data_PCOD9327840
_publ_section_title
;
Structure prediction by ZEFSAII (Michael W. Deem and Ramdas Pophale) SiO2 
 PCOD9327840
Probable space group: F 2 2 2
;
_chemical_formula_sum "Si O2"
_cell_formula_units_Z 56
_cell_length_a 7.908888
_cell_length_b 23.078320
_cell_length_c 14.159898
_cell_angle_alpha 90.000000
_cell_angle_beta 90.000000
_cell_angle_gamma 90.000000
_cell_volume 2584.519072
_symmetry_space_group_name_H-M "F 2 2 2"
_symmetry_group_IT_number 22
_symmetry_cell_setting 'orthorhombic'
loop_
_space_group_symop_operation_xyz
x,y,z
-x,-y,z
x,-y,-z
-x,y,-z
x,1/2+y,1/2+z
-x,1/2-y,1/2+z
x,1/2-y,1/2-z
-x,1/2+y,1/2-z
1/2+x,y,1/2+z
1/2-x,-y,1/2+z
1/2+x,-y,1/2-z
1/2-x,y,1/2-z
1/2+x,1/2+y,z
1/2-x,1/2-y,z
1/2+x,1/2-y,-z
1/2-x,1/2+y,-z
loop_
_atom_site_type_symbol
_atom_site_label
_atom_site_fract_x
_atom_site_fract_y
_atom_site_fract_z
Si Si1 0.000000 0.500000 0.500000
Si Si2 0.418348 0.353950 0.852869
Si Si3 0.433576 0.064807 0.198566
Si Si4 0.250000 0.250000 0.750000
Si Si5 0.724635 0.104562 0.542593
O O1 0.123488 0.543221 0.554708
O O2 0.445255 0.397764 0.765713
O O3 0.359244 0.292727 0.814692
O O4 0.601573 0.350682 0.903576
O O5 0.292222 0.379814 0.932575
O O6 0.250000 0.063423 0.250000
O O7 0.396641 0.095906 0.098493
O O8 0.500000 0.000000 0.185606
#
# Coordination Sequence:
#
# PCOD9327840 Si02
#       5
#     4  16  16   4  16
#     4   8  16  32  66  88 144 172 192 276 338 396
#     4   9  22  41  62  92 131 172 223 278 339 381
#     4  10  22  37  69 103 138 178 216 277 341 408
#     4  12  24  44  66  84 130 184 222 290 328 400
#     4   9  20  40  63  96 131 179 215 267 349 397
#
# _framework density 21.667473000000001
#
# number of rings (size 3 to 8) (size 9 to 14) (size 15 to 20)
#    0.000    2.857    0.000    0.000   20.000    0.000 
#   10.286    8.571    0.000    0.000    0.000    0.000 
#    0.000    0.000    0.000    0.000    0.000    0.000 
#
# Total GULP energy -78166.233106 kJ/mol
# GULP energy per Si atom -5583.302365 kJ/mol
# Density = 2.161816 g / cm^3
# Si number density = 21.667473 Si / 1000 Ang^3
#
#
#
# Elastic Constant Matrix: (Units=GPa)
#
#
# Indices 1 2 3 4 5 6 
#
# 1 95.8553 55.6817 68.7608 0.0000 0.0000 0.0000
# 2 55.6817 147.0226 83.4565 0.0000 0.0000 0.0000
# 3 68.7608 83.4565 194.8959 0.0000 0.0000 0.0000
# 4 0.0000 0.0000 0.0000 26.0494 0.0000 0.0000
# 5 0.0000 0.0000 0.0000 0.0000 24.2359 0.0000
# 6 0.0000 0.0000 0.0000 0.0000 0.0000 21.2744
#
#
#
# Elastic Compliance Matrix: (Units=1/GPa)
#
#
# Indices 1 2 3 4 5 6 
#
# 1 0.015288 -0.003604 -0.003850 0.000000 0.000000 0.000000
# 2 -0.003604 0.009836 -0.002940 0.000000 0.000000 0.000000
# 3 -0.003850 -0.002940 0.007748 0.000000 0.000000 0.000000
# 4 0.000000 0.000000 0.000000 0.038389 0.000000 0.000000
# 5 0.000000 0.000000 0.000000 0.000000 0.041261 0.000000
# 6 0.000000 0.000000 0.000000 0.000000 0.000000 0.047005
#
#
# Mechanical properties :
#
#
# Convention : Reuss Voigt Hill
#
# Bulk Modulus (GPa) = 82.76422 94.84131 88.80276
# Shear Modulus (GPa) = 27.12319 29.63692 28.38006
#
# Velocity S-wave (km/s) = 3.54191 3.70240 3.62304
# Velocity P-wave (km/s) = 7.41668 7.88310 7.65345
#
# Compressibility (1/GPa) = 0.01208252
#
# Stress axis : x y z
#
# Youngs Moduli (GPa) = 65.40995 101.67047 129.05995
#
# Poissons Ratio (x) = 0.36647 0.49692
# Poissons Ratio (y) = 0.23577 0.37944
# Poissons Ratio (z) = 0.25185 0.29892
#
# Static dielectric constant tensor:
#      x y z
#    x 1.823950 0.000000 0.000000 
#    y 0.000000 1.744560 0.000000 
#    z 0.000000 0.000000 1.878690 
# 
# From -- ./inp_files/9698.got.cif
#   From: 2010.05.17/outbox.cif.g08.bks.cpg/sg22_5_cif.got.tgz:9698.got - 2010.06.03 23:40:54.
