data_PCOD9327258
_publ_section_title
;
Structure prediction by ZEFSAII (Michael W. Deem and Ramdas Pophale) SiO2 
 PCOD9327258
Probable space group: F 2 2 2
;
_chemical_formula_sum "Si O2"
_cell_formula_units_Z 108
_cell_length_a 26.763020
_cell_length_b 6.033367
_cell_length_c 33.048841
_cell_angle_alpha 90.000000
_cell_angle_beta 90.000000
_cell_angle_gamma 90.000000
_cell_volume 5336.433427
_symmetry_space_group_name_H-M "F 2 2 2"
_symmetry_group_IT_number 22
_symmetry_cell_setting 'orthorhombic'
loop_
_space_group_symop_operation_xyz
x,y,z
-x,-y,z
x,-y,-z
-x,y,-z
x,1/2+y,1/2+z
-x,1/2-y,1/2+z
x,1/2-y,1/2-z
-x,1/2+y,1/2-z
1/2+x,y,1/2+z
1/2-x,-y,1/2+z
1/2+x,-y,1/2-z
1/2-x,y,1/2-z
1/2+x,1/2+y,z
1/2-x,1/2-y,z
1/2+x,1/2-y,-z
1/2-x,1/2+y,-z
loop_
_atom_site_type_symbol
_atom_site_label
_atom_site_fract_x
_atom_site_fract_y
_atom_site_fract_z
Si Si1 0.449848 0.370682 0.835384
Si Si2 0.132160 0.202471 0.130654
Si Si3 0.558032 0.250175 0.486651
Si Si4 0.329223 0.974152 0.199872
Si Si5 0.592622 0.099609 0.097742
Si Si6 0.088290 0.750000 0.250000
Si Si7 0.805932 0.314296 0.373628
Si Si8 0.750000 0.250000 0.750000
O O1 0.500000 0.500000 0.844694
O O2 0.404527 0.525247 0.849635
O O3 0.439922 0.152327 0.862116
O O4 0.444312 0.325801 0.787911
O O5 0.148646 0.368802 0.165496
O O6 0.102095 0.336516 0.096411
O O7 0.181751 0.070307 0.118718
O O8 0.578212 0.500000 0.500000
O O9 0.500000 0.251349 0.500000
O O10 0.565792 0.275583 0.438604
O O11 0.576940 0.000000 0.500000
O O12 0.373027 0.928011 0.231715
O O13 0.313219 0.756619 0.173896
O O14 0.284019 0.092855 0.222205
O O15 0.649266 0.191924 0.102526
O O16 0.750000 0.250000 0.384972
#
# Coordination Sequence:
#
# PCOD9327258 Si02
#       8
#    16  16  16  16  16   8  16   4
#     4  11  25  39  62  84 124 176 230 281 340 418
#     4  10  20  43  61  85 128 175 218 289 333 414
#     4  10  24  42  72 110 141 176 219 280 348 431
#     4  11  23  37  54  85 121 167 224 289 349 391
#     4  10  23  43  65  98 134 173 217 281 349 413
#     4  12  22  43  49  84 128 170 227 299 338 394
#     4  10  21  39  64  93 129 173 226 277 344 420
#     4  12  24  30  62  84 118 172 226 298 356 412
#
# _framework density 20.238237000000002
#
# number of rings (size 3 to 8) (size 9 to 14) (size 15 to 20)
#    0.000    1.481    4.444    1.778    8.296    4.741 
#    0.000    0.000    0.000    0.889    0.000    0.000 
#    0.000    0.000    0.000    0.000    0.000    0.000 
#
# Total GULP energy -150478.478431 kJ/mol
# GULP energy per Si atom -5573.276979 kJ/mol
# Density = 2.019217 g / cm^3
# Si number density = 20.238237 Si / 1000 Ang^3
#
#
#
# Elastic Constant Matrix: (Units=GPa)
#
#
# Indices 1 2 3 4 5 6 
#
# 1 102.4718 16.5179 19.9655 0.0014 0.0002 -0.0195
# 2 16.5179 103.7762 20.5655 0.0042 0.0048 -0.0390
# 3 19.9655 20.5655 73.7254 -0.0038 0.0037 0.0063
# 4 0.0014 0.0042 -0.0038 28.9090 -0.0004 -0.0038
# 5 0.0002 0.0048 0.0037 -0.0004 14.6881 0.0003
# 6 -0.0195 -0.0390 0.0063 -0.0038 0.0003 33.3708
#
#
#
# Elastic Compliance Matrix: (Units=1/GPa)
#
#
# Indices 1 2 3 4 5 6 
#
# 1 0.010434 -0.001165 -0.002501 -0.000001 0.000001 0.000005
# 2 -0.001165 0.010330 -0.002566 -0.000002 -0.000003 0.000012
# 3 -0.002501 -0.002566 0.014957 0.000002 -0.000003 -0.000007
# 4 -0.000001 -0.000002 0.000002 0.034591 0.000001 0.000004
# 5 0.000001 -0.000003 -0.000003 0.000001 0.068082 -0.000001
# 6 0.000005 0.000012 -0.000007 0.000004 -0.000001 0.029966
#
#
# Mechanical properties :
#
#
# Convention : Reuss Voigt Hill
#
# Bulk Modulus (GPa) = 42.99740 43.78568 43.39154
# Shear Modulus (GPa) = 26.51446 30.25523 28.38484
#
# Velocity S-wave (km/s) = 3.62348 3.87066 3.74911
# Velocity P-wave (km/s) = 6.22880 6.45431 6.34255
#
# Compressibility (1/GPa) = 0.02325722
#
# Stress axis : x y z
#
# Youngs Moduli (GPa) = 95.84224 96.80450 66.85924
#
# Poissons Ratio (x) = 0.11280 0.16718
# Poissons Ratio (y) = 0.11168 0.17156
# Poissons Ratio (z) = 0.23966 0.24840
#
# Static dielectric constant tensor:
#      x y z
#    x 1.704130 0.000000 0.000000 
#    y 0.000000 1.789590 -0.000020 
#    z 0.000000 -0.000020 1.751870 
# 
# From -- ./inp_files/57370.got.cif
#   From: 2010.05.17/outbox.cif.g08.bks.cpg/sg22_29_cif.got.tgz:57370.got - 2010.06.03 23:40:54.
