data_PCOD9327203
_publ_section_title
;
Structure prediction by ZEFSAII (Michael W. Deem and Ramdas Pophale) SiO2 
 PCOD9327203
Probable space group: F 2 2 2
;
_chemical_formula_sum "Si O2"
_cell_formula_units_Z 100
_cell_length_a 13.759274
_cell_length_b 11.900361
_cell_length_c 29.369841
_cell_angle_alpha 90.000000
_cell_angle_beta 90.000000
_cell_angle_gamma 90.000000
_cell_volume 4809.027390
_symmetry_space_group_name_H-M "F 2 2 2"
_symmetry_group_IT_number 22
_symmetry_cell_setting 'orthorhombic'
loop_
_space_group_symop_operation_xyz
x,y,z
-x,-y,z
x,-y,-z
-x,y,-z
x,1/2+y,1/2+z
-x,1/2-y,1/2+z
x,1/2-y,1/2-z
-x,1/2+y,1/2-z
1/2+x,y,1/2+z
1/2-x,-y,1/2+z
1/2+x,-y,1/2-z
1/2-x,y,1/2-z
1/2+x,1/2+y,z
1/2-x,1/2-y,z
1/2+x,1/2-y,-z
1/2-x,1/2+y,-z
loop_
_atom_site_type_symbol
_atom_site_label
_atom_site_fract_x
_atom_site_fract_y
_atom_site_fract_z
Si Si1 0.511213 0.619010 0.339552
Si Si2 0.250000 0.750000 0.520139
Si Si3 0.750000 0.750000 0.250000
Si Si4 0.312674 0.589980 0.596952
Si Si5 0.664283 0.339113 0.398609
Si Si6 0.358518 0.660159 0.832091
Si Si7 0.500000 0.500000 0.112362
Si Si8 0.417222 0.829659 0.462096
O O1 0.500000 0.500000 0.312662
O O2 0.579622 0.585976 0.382305
O O3 0.403501 0.653786 0.354259
O O4 0.573799 0.727696 0.325765
O O5 0.311242 0.670015 0.553432
O O6 0.316744 0.831617 0.490067
O O7 0.691503 0.665157 0.216994
O O8 0.291312 0.459451 0.589120
O O9 0.233556 0.639604 0.632978
O O10 0.750000 0.250000 0.392672
O O11 0.593358 0.290695 0.437549
O O12 0.431501 0.571119 0.854324
O O13 0.441213 0.582033 0.077837
O O14 0.500000 0.838167 0.500000
#
# Coordination Sequence:
#
# PCOD9327203 Si02
#       8
#    16   8   4  16  16  16   8  16
#     4  10  20  40  69  96 133 185 223 276 351 434
#     4  12  23  40  62  99 140 189 252 298 321 394
#     4  12  26  48  80 112 132 164 236 304 362 466
#     4  11  22  42  67  95 143 196 230 294 361 409
#     4  11  23  41  61  96 132 183 248 289 344 406
#     4  12  23  47  75 106 139 177 234 289 371 451
#     4  12  27  46  72  98 144 192 230 292 369 440
#     4  12  25  42  63  99 142 192 250 291 336 405
#
# _framework density 20.794225999999998
#
# number of rings (size 3 to 8) (size 9 to 14) (size 15 to 20)
#    0.000    0.640    5.600    3.120    0.000    1.920 
#    1.440    0.800    0.000    0.000    0.000    0.000 
#    0.000    0.000    0.000    0.000    0.000    0.000 
#
# Total GULP energy -139178.531425 kJ/mol
# GULP energy per Si atom -5567.141257 kJ/mol
# Density = 2.074690 g / cm^3
# Si number density = 20.794226 Si / 1000 Ang^3
#
#
#
# Elastic Constant Matrix: (Units=GPa)
#
#
# Indices 1 2 3 4 5 6 
#
# 1 119.2201 50.7003 47.7923 0.0000 0.0000 0.0000
# 2 50.7003 149.7210 56.8446 0.0000 0.0000 0.0000
# 3 47.7923 56.8446 107.4850 0.0000 0.0000 0.0000
# 4 0.0000 0.0000 0.0000 15.9375 0.0000 0.0000
# 5 0.0000 0.0000 0.0000 0.0000 11.1825 0.0000
# 6 0.0000 0.0000 0.0000 0.0000 0.0000 37.1939
#
#
#
# Elastic Compliance Matrix: (Units=1/GPa)
#
#
# Indices 1 2 3 4 5 6 
#
# 1 0.010803 -0.002295 -0.003589 0.000000 0.000000 0.000000
# 2 -0.002295 0.008845 -0.003657 0.000000 0.000000 0.000000
# 3 -0.003589 -0.003657 0.012834 0.000000 0.000000 0.000000
# 4 0.000000 0.000000 0.000000 0.062745 0.000000 0.000000
# 5 0.000000 0.000000 0.000000 0.000000 0.089425 0.000000
# 6 0.000000 0.000000 0.000000 0.000000 0.000000 0.026886
#
#
# Mechanical properties :
#
#
# Convention : Reuss Voigt Hill
#
# Bulk Modulus (GPa) = 74.64011 76.34452 75.49231
# Shear Modulus (GPa) = 21.26864 27.60202 24.43533
#
# Velocity S-wave (km/s) = 3.20162 3.64729 3.43169
# Velocity P-wave (km/s) = 7.04554 7.38451 7.21702
#
# Compressibility (1/GPa) = 0.01339762
#
# Stress axis : x y z
#
# Youngs Moduli (GPa) = 92.56732 113.05992 77.91955
#
# Poissons Ratio (x) = 0.25952 0.27969
# Poissons Ratio (y) = 0.21248 0.28496
# Poissons Ratio (z) = 0.33227 0.41347
#
# Static dielectric constant tensor:
#      x y z
#    x 1.747700 0.000000 0.000000 
#    y 0.000000 1.887060 0.000000 
#    z 0.000000 0.000000 1.753550 
# 
# From -- ./inp_files/56436.got.cif
#   From: 2010.05.17/outbox.cif.g08.bks.cpg/sg22_29_cif.got.tgz:56436.got - 2010.06.03 23:40:54.
