data_PCOD9327063
_publ_section_title
;
Structure prediction by ZEFSAII (Michael W. Deem and Ramdas Pophale) SiO2 
 PCOD9327063
Probable space group: F 2 2 2
;
_chemical_formula_sum "Si O2"
_cell_formula_units_Z 112
_cell_length_a 24.501729
_cell_length_b 21.570527
_cell_length_c 11.477816
_cell_angle_alpha 90.000000
_cell_angle_beta 90.000000
_cell_angle_gamma 90.000000
_cell_volume 6066.200298
_symmetry_space_group_name_H-M "F 2 2 2"
_symmetry_group_IT_number 22
_symmetry_cell_setting 'orthorhombic'
loop_
_space_group_symop_operation_xyz
x,y,z
-x,-y,z
x,-y,-z
-x,y,-z
x,1/2+y,1/2+z
-x,1/2-y,1/2+z
x,1/2-y,1/2-z
-x,1/2+y,1/2-z
1/2+x,y,1/2+z
1/2-x,-y,1/2+z
1/2+x,-y,1/2-z
1/2-x,y,1/2-z
1/2+x,1/2+y,z
1/2-x,1/2-y,z
1/2+x,1/2-y,-z
1/2-x,1/2+y,-z
loop_
_atom_site_type_symbol
_atom_site_label
_atom_site_fract_x
_atom_site_fract_y
_atom_site_fract_z
Si Si1 0.286538 0.439761 0.072765
Si Si2 0.829404 0.094358 0.548783
Si Si3 0.314825 0.735710 0.616855
Si Si4 0.938947 0.930074 0.040833
Si Si5 0.154400 0.159680 0.943180
Si Si6 0.684282 0.908262 0.773026
Si Si7 0.375397 0.037205 0.248783
O O1 0.222993 0.444693 0.093808
O O2 0.325160 0.429735 0.182240
O O3 0.303711 0.500000 0.000000
O O4 0.294862 0.379858 0.993689
O O5 0.825390 0.163869 0.594533
O O6 0.826309 0.097261 0.410202
O O7 0.877582 0.058851 0.615610
O O8 0.332738 0.750000 0.750000
O O9 0.250000 0.750000 0.611323
O O10 0.342895 0.776364 0.514138
O O11 0.927272 0.938604 0.178512
O O12 0.898106 0.880044 0.984620
O O13 0.000000 0.916174 0.000000
O O14 0.926047 0.000000 0.000000
O O15 0.164570 0.150580 0.805036
O O16 0.750000 0.919953 0.750000
O O17 0.644786 0.966090 0.738442
#
# Coordination Sequence:
#
# PCOD9327063 Si02
#       7
#    16  16  16  16  16  16  16
#     4  11  17  31  50  77 116 154 191 236 289 354
#     4  12  23  31  49  83 119 164 195 236 298 364
#     4  11  22  36  51  78 120 162 206 247 292 356
#     4  10  20  38  64  91 109 140 198 262 316 354
#     4  11  20  36  55  82 118 156 202 248 290 357
#     4  12  20  34  51  82 126 165 200 230 295 382
#     4  11  20  32  54  86 117 149 193 256 303 359
#
# _framework density 18.462958
#
# number of rings (size 3 to 8) (size 9 to 14) (size 15 to 20)
#    0.000    0.857    5.714    5.143    2.000    0.571 
#    0.000    1.429    0.000    0.857   11.143    0.000 
#    0.000    0.000    0.000    0.000    0.000    0.000 
#
# Total GULP energy -155983.864567 kJ/mol
# GULP energy per Si atom -5570.852306 kJ/mol
# Density = 1.842094 g / cm^3
# Si number density = 18.462958 Si / 1000 Ang^3
#
#
#
# Elastic Constant Matrix: (Units=GPa)
#
#
# Indices 1 2 3 4 5 6 
#
# 1 76.6202 14.2885 31.1939 0.0000 0.0000 0.0000
# 2 14.2885 69.3410 29.2768 0.0000 0.0000 0.0000
# 3 31.1939 29.2768 144.9162 0.0000 0.0000 0.0000
# 4 0.0000 0.0000 0.0000 31.8464 0.0000 0.0000
# 5 0.0000 0.0000 0.0000 0.0000 20.0955 0.0000
# 6 0.0000 0.0000 0.0000 0.0000 0.0000 14.5286
#
#
#
# Elastic Compliance Matrix: (Units=1/GPa)
#
#
# Indices 1 2 3 4 5 6 
#
# 1 0.014514 -0.001828 -0.002755 0.000000 0.000000 0.000000
# 2 -0.001828 0.015996 -0.002838 0.000000 0.000000 0.000000
# 3 -0.002755 -0.002838 0.008067 0.000000 0.000000 0.000000
# 4 0.000000 0.000000 0.000000 0.031401 0.000000 0.000000
# 5 0.000000 0.000000 0.000000 0.000000 0.049762 0.000000
# 6 0.000000 0.000000 0.000000 0.000000 0.000000 0.068830
#
#
# Mechanical properties :
#
#
# Convention : Reuss Voigt Hill
#
# Bulk Modulus (GPa) = 42.13083 48.93288 45.53185
# Shear Modulus (GPa) = 23.66040 27.70198 25.68119
#
# Velocity S-wave (km/s) = 3.58370 3.87771 3.73360
# Velocity P-wave (km/s) = 6.32396 6.82713 6.58036
#
# Compressibility (1/GPa) = 0.02373559
#
# Stress axis : x y z
#
# Youngs Moduli (GPa) = 68.89993 62.51384 123.96236
#
# Poissons Ratio (x) = 0.11425 0.34151
# Poissons Ratio (y) = 0.12592 0.35184
# Poissons Ratio (z) = 0.18982 0.17743
#
# Static dielectric constant tensor:
#      x y z
#    x 1.659730 0.000000 0.000000 
#    y 0.000000 1.655720 0.000000 
#    z 0.000000 0.000000 1.764970 
# 
# From -- ./inp_files/24772.got.cif
#   From: 2010.05.17/outbox.cif.g08.bks.cpg/sg22_13_cif.got.tgz:24772.got - 2010.06.03 23:40:54.
