data_PCOD9327107
_publ_section_title
;
Structure prediction by ZEFSAII (Michael W. Deem and Ramdas Pophale) SiO2 
 PCOD9327107
Probable space group: F 2 2 2
;
_chemical_formula_sum "Si O2"
_cell_formula_units_Z 108
_cell_length_a 6.326819
_cell_length_b 30.688828
_cell_length_c 29.459374
_cell_angle_alpha 90.000000
_cell_angle_beta 90.000000
_cell_angle_gamma 90.000000
_cell_volume 5719.910420
_symmetry_space_group_name_H-M "F 2 2 2"
_symmetry_group_IT_number 22
_symmetry_cell_setting 'orthorhombic'
loop_
_space_group_symop_operation_xyz
x,y,z
-x,-y,z
x,-y,-z
-x,y,-z
x,1/2+y,1/2+z
-x,1/2-y,1/2+z
x,1/2-y,1/2-z
-x,1/2+y,1/2-z
1/2+x,y,1/2+z
1/2-x,-y,1/2+z
1/2+x,-y,1/2-z
1/2-x,y,1/2-z
1/2+x,1/2+y,z
1/2-x,1/2-y,z
1/2+x,1/2-y,-z
1/2-x,1/2+y,-z
loop_
_atom_site_type_symbol
_atom_site_label
_atom_site_fract_x
_atom_site_fract_y
_atom_site_fract_z
Si Si1 0.475904 0.322233 0.688899
Si Si2 0.085108 0.951457 0.208276
Si Si3 0.592688 0.132686 0.046659
Si Si4 0.899113 0.286127 0.453452
Si Si5 0.828802 0.887156 0.866526
Si Si6 0.276759 0.169459 0.390160
Si Si7 0.250000 0.112822 0.250000
Si Si8 0.750000 0.250000 0.250000
O O1 0.295626 0.348717 0.660863
O O2 0.653004 0.310040 0.651960
O O3 0.589893 0.356504 0.722348
O O4 0.385299 0.282155 0.717644
O O5 0.250000 0.951024 0.250000
O O6 0.185940 0.930137 0.163701
O O7 0.892896 0.919018 0.219914
O O8 0.000000 0.000000 0.201765
O O9 0.755567 0.171872 0.034893
O O10 0.721850 0.105696 0.084343
O O11 0.395779 0.151580 0.074747
O O12 0.500000 0.113462 0.000000
O O13 0.750000 0.250000 0.432618
O O14 0.000000 0.269200 0.500000
O O15 0.075945 0.298155 0.417734
O O16 0.065869 0.869059 0.873779
#
# Coordination Sequence:
#
# PCOD9327107 Si02
#       8
#    16  16  16  16  16  16   8   4
#     4  11  24  45  63  83 123 173 221 272 316 369
#     4  12  23  39  67 104 133 162 207 258 322 409
#     4  10  20  39  62  86 116 165 216 253 317 396
#     4  11  22  36  55  84 120 156 205 273 330 383
#     4  10  22  41  62  94 132 158 210 267 325 387
#     4  10  22  41  60  84 116 167 204 264 327 383
#     4  12  22  41  69  86 130 174 203 263 336 372
#     4  12  28  46  58  88 118 180 250 270 304 396
#
# _framework density 18.881413999999999
#
# number of rings (size 3 to 8) (size 9 to 14) (size 15 to 20)
#    0.000    1.185    5.185    1.333    0.000    0.296 
#   14.667    0.000    0.000    0.000    0.000    3.111 
#    0.000    0.000    0.000    0.000    0.000    0.000 
#
# Total GULP energy -150847.580460 kJ/mol
# GULP energy per Si atom -5586.947424 kJ/mol
# Density = 1.883844 g / cm^3
# Si number density = 18.881414 Si / 1000 Ang^3
#
#
#
# Elastic Constant Matrix: (Units=GPa)
#
#
# Indices 1 2 3 4 5 6 
#
# 1 98.8295 37.6721 49.8356 0.0000 0.0000 0.0000
# 2 37.6721 88.2177 56.9192 0.0000 0.0000 0.0000
# 3 49.8356 56.9192 136.7124 0.0000 0.0000 0.0000
# 4 0.0000 0.0000 0.0000 -0.8729 0.0000 0.0000
# 5 0.0000 0.0000 0.0000 0.0000 27.6223 0.0000
# 6 0.0000 0.0000 0.0000 0.0000 0.0000 10.8215
#
#
#
# Elastic Compliance Matrix: (Units=1/GPa)
#
#
# Indices 1 2 3 4 5 6 
#
# 1 0.013119 -0.003441 -0.003350 0.000000 0.000000 0.000000
# 2 -0.003441 0.016402 -0.005574 0.000000 0.000000 0.000000
# 3 -0.003350 -0.005574 0.010857 0.000000 0.000000 0.000000
# 4 0.000000 0.000000 0.000000 -1.145551 0.000000 0.000000
# 5 0.000000 0.000000 0.000000 0.000000 0.036203 0.000000
# 6 0.000000 0.000000 0.000000 0.000000 0.000000 0.092408
#
#
# Mechanical properties :
#
#
# Convention : Reuss Voigt Hill
#
# Bulk Modulus (GPa) = 63.90921 68.06817 65.98869
# Shear Modulus (GPa) = -5.28197 19.46968 7.09385
#
# Velocity S-wave (km/s) = -1.67437 3.21464 1.94042
# Velocity P-wave (km/s) = 5.49392 7.06450 6.32813
#
# Compressibility (1/GPa) = 0.01564720
#
# Stress axis : x y z
#
# Youngs Moduli (GPa) = 76.22398 60.96922 92.11064
#
# Poissons Ratio (x) = 0.20980 0.30854
# Poissons Ratio (y) = 0.26230 0.51346
# Poissons Ratio (z) = 0.25532 0.33986
#
# Static dielectric constant tensor:
#      x y z
#    x 1.696460 0.000000 0.000000 
#    y 0.000000 1.628800 0.000000 
#    z 0.000000 0.000000 1.685610 
# 
# From -- ./inp_files/55181.got.cif
#   From: 2010.05.17/outbox.cif.g08.bks.cpg/sg22_28_cif.got.tgz:55181.got - 2010.06.03 23:40:54.
