data_PCOD9327960
_publ_section_title
;
Structure prediction by ZEFSAII (Michael W. Deem and Ramdas Pophale) SiO2 
 PCOD9327960
Probable space group: F 2 2 2
;
_chemical_formula_sum "Si O2"
_cell_formula_units_Z 116
_cell_length_a 29.026457
_cell_length_b 9.207973
_cell_length_c 21.257764
_cell_angle_alpha 90.000000
_cell_angle_beta 90.000000
_cell_angle_gamma 90.000000
_cell_volume 5681.665309
_symmetry_space_group_name_H-M "F 2 2 2"
_symmetry_group_IT_number 22
_symmetry_cell_setting 'orthorhombic'
loop_
_space_group_symop_operation_xyz
x,y,z
-x,-y,z
x,-y,-z
-x,y,-z
x,1/2+y,1/2+z
-x,1/2-y,1/2+z
x,1/2-y,1/2-z
-x,1/2+y,1/2-z
1/2+x,y,1/2+z
1/2-x,-y,1/2+z
1/2+x,-y,1/2-z
1/2-x,y,1/2-z
1/2+x,1/2+y,z
1/2-x,1/2-y,z
1/2+x,1/2-y,-z
1/2-x,1/2+y,-z
loop_
_atom_site_type_symbol
_atom_site_label
_atom_site_fract_x
_atom_site_fract_y
_atom_site_fract_z
Si Si1 0.109547 0.099789 0.249775
Si Si2 0.388591 0.415745 0.866572
Si Si3 0.834142 0.371926 0.174308
Si Si4 0.192490 0.412964 0.434077
Si Si5 0.515402 0.335434 0.688923
Si Si6 0.750000 0.250000 0.250000
Si Si7 0.702006 0.072194 0.931897
Si Si8 0.519087 0.661906 0.931580
O O1 0.138527 0.250000 0.250000
O O2 0.069676 0.150006 0.297758
O O3 0.089477 0.024006 0.186358
O O4 0.139251 0.971185 0.276906
O O5 0.363826 0.272010 0.839431
O O6 0.347518 0.513623 0.894105
O O7 0.426296 0.360368 0.917426
O O8 0.784785 0.334847 0.204221
O O9 0.827610 0.470877 0.113105
O O10 0.191465 0.500000 0.500000
O O11 0.244685 0.430510 0.408933
O O12 0.185958 0.239189 0.438207
O O13 0.500000 0.500000 0.688617
O O14 0.495938 0.250000 0.750000
O O15 0.500749 0.258705 0.624938
O O16 0.701692 0.000000 0.000000
O O17 0.500000 0.500000 0.925251
O O18 0.500000 0.713661 0.000000
#
# Coordination Sequence:
#
# PCOD9327960 Si02
#       8
#    16  16  16  16  16   4  16  16
#     4  11  23  40  64  97 130 172 234 284 348 413
#     4  12  23  43  69 100 135 186 235 282 357 425
#     4  12  24  43  66 101 139 187 231 292 340 424
#     4  10  22  40  68  98 137 187 229 284 338 415
#     4  11  22  42  70  98 131 177 225 291 347 419
#     4  12  24  44  70 100 152 184 234 286 364 412
#     4  10  22  42  64 102 140 183 239 279 344 405
#     4  11  26  46  69 103 142 182 232 292 362 430
#
# _framework density 20.416549
#
# number of rings (size 3 to 8) (size 9 to 14) (size 15 to 20)
#    0.000    0.966    1.379    6.207    1.931    2.483 
#    2.483    0.000    0.000    0.000    0.000    0.000 
#    0.000    0.000    0.000    0.000    0.000    0.000 
#
# Total GULP energy -161822.704185 kJ/mol
# GULP energy per Si atom -5580.093248 kJ/mol
# Density = 2.037008 g / cm^3
# Si number density = 20.416549 Si / 1000 Ang^3
#
#
#
# Elastic Constant Matrix: (Units=GPa)
#
#
# Indices 1 2 3 4 5 6 
#
# 1 71.0533 49.0454 30.1744 0.0000 0.0000 0.0000
# 2 49.0454 168.4557 67.3724 0.0000 0.0000 0.0000
# 3 30.1744 67.3724 113.8725 0.0000 0.0000 0.0000
# 4 0.0000 0.0000 0.0000 45.5669 0.0000 0.0000
# 5 0.0000 0.0000 0.0000 0.0000 30.7736 0.0000
# 6 0.0000 0.0000 0.0000 0.0000 0.0000 50.2539
#
#
#
# Elastic Compliance Matrix: (Units=1/GPa)
#
#
# Indices 1 2 3 4 5 6 
#
# 1 0.018021 -0.004371 -0.002189 0.000000 0.000000 0.000000
# 2 -0.004371 0.008837 -0.004070 0.000000 0.000000 0.000000
# 3 -0.002189 -0.004070 0.011770 0.000000 0.000000 0.000000
# 4 0.000000 0.000000 0.000000 0.021946 0.000000 0.000000
# 5 0.000000 0.000000 0.000000 0.000000 0.032495 0.000000
# 6 0.000000 0.000000 0.000000 0.000000 0.000000 0.019899
#
#
# Mechanical properties :
#
#
# Convention : Reuss Voigt Hill
#
# Bulk Modulus (GPa) = 57.58047 71.84065 64.71056
# Shear Modulus (GPa) = 35.71003 39.10483 37.40743
#
# Velocity S-wave (km/s) = 4.18673 4.38122 4.28508
# Velocity P-wave (km/s) = 7.18580 7.80111 7.49977
#
# Compressibility (1/GPa) = 0.01736700
#
# Stress axis : x y z
#
# Youngs Moduli (GPa) = 55.49125 113.16474 84.96361
#
# Poissons Ratio (x) = 0.49467 0.18599
# Poissons Ratio (y) = 0.24257 0.34579
# Poissons Ratio (z) = 0.12147 0.46057
#
# Static dielectric constant tensor:
#      x y z
#    x 1.794080 0.000000 0.000000 
#    y 0.000000 1.745870 0.000000 
#    z 0.000000 0.000000 1.756680 
# 
# From -- ./inp_files/50492.got.cif
#   From: 2010.05.17/outbox.cif.g08.bks.cpg/sg22_26_cif.got.tgz:50492.got - 2010.06.03 23:40:54.
