data_PCOD9327670
_publ_section_title
;
Structure prediction by ZEFSAII (Michael W. Deem and Ramdas Pophale) SiO2 
 PCOD9327670
Probable space group: F 2 2 2
;
_chemical_formula_sum "Si O2"
_cell_formula_units_Z 60
_cell_length_a 20.585815
_cell_length_b 16.102232
_cell_length_c 9.253075
_cell_angle_alpha 90.000000
_cell_angle_beta 90.000000
_cell_angle_gamma 90.000000
_cell_volume 3067.186807
_symmetry_space_group_name_H-M "F 2 2 2"
_symmetry_group_IT_number 22
_symmetry_cell_setting 'orthorhombic'
loop_
_space_group_symop_operation_xyz
x,y,z
-x,-y,z
x,-y,-z
-x,y,-z
x,1/2+y,1/2+z
-x,1/2-y,1/2+z
x,1/2-y,1/2-z
-x,1/2+y,1/2-z
1/2+x,y,1/2+z
1/2-x,-y,1/2+z
1/2+x,-y,1/2-z
1/2-x,y,1/2-z
1/2+x,1/2+y,z
1/2-x,1/2-y,z
1/2+x,1/2-y,-z
1/2-x,1/2+y,-z
loop_
_atom_site_type_symbol
_atom_site_label
_atom_site_fract_x
_atom_site_fract_y
_atom_site_fract_z
Si Si1 0.897038 0.000000 0.500000
Si Si2 0.500000 0.500000 0.000000
Si Si3 0.322299 0.457695 0.210798
Si Si4 0.118073 0.108528 0.932230
Si Si5 0.500000 0.643869 0.500000
Si Si6 0.945435 0.750000 0.750000
O O1 0.856601 0.975669 0.360955
O O2 0.940525 0.918848 0.521539
O O3 0.549857 0.441985 0.085893
O O4 0.250000 0.430000 0.250000
O O5 0.326717 0.549155 0.135981
O O6 0.361627 0.395916 0.102023
O O7 0.101783 0.193145 0.850675
O O8 0.492775 0.700894 0.359120
#
# Coordination Sequence:
#
# PCOD9327670 Si02
#       6
#     8   4  16  16   8   8
#     4  11  22  41  62 101 122 169 226 266 310 393
#     4   8  18  34  62  92 120 170 212 248 314 388
#     4  10  21  41  68  91 122 171 229 262 308 384
#     4  10  22  37  67  95 129 167 211 273 324 388
#     4  11  27  36  67  91 136 166 210 275 331 398
#     4  12  24  42  57 106 135 168 202 270 362 386
#
# _framework density 19.561900000000001
#
# number of rings (size 3 to 8) (size 9 to 14) (size 15 to 20)
#    0.000    1.867    2.667    2.400   11.200    0.000 
#    0.000    0.667    0.000    1.600    0.000    0.000 
#    0.000    0.000    0.000    0.000    0.000    0.000 
#
# Total GULP energy -83506.911983 kJ/mol
# GULP energy per Si atom -5567.127466 kJ/mol
# Density = 1.951738 g / cm^3
# Si number density = 19.561900 Si / 1000 Ang^3
#
#
#
# Elastic Constant Matrix: (Units=GPa)
#
#
# Indices 1 2 3 4 5 6 
#
# 1 88.7505 31.2765 56.0504 0.0000 0.0000 0.0000
# 2 31.2765 96.7110 58.7971 0.0000 0.0000 0.0000
# 3 56.0504 58.7971 160.1308 0.0000 0.0000 0.0000
# 4 0.0000 0.0000 0.0000 44.5714 0.0000 0.0000
# 5 0.0000 0.0000 0.0000 0.0000 14.9238 0.0000
# 6 0.0000 0.0000 0.0000 0.0000 0.0000 -393.2141
#
#
#
# Elastic Compliance Matrix: (Units=1/GPa)
#
#
# Indices 1 2 3 4 5 6 
#
# 1 0.014791 -0.002106 -0.004404 0.000000 0.000000 0.000000
# 2 -0.002106 0.013612 -0.004261 0.000000 0.000000 0.000000
# 3 -0.004404 -0.004261 0.009351 0.000000 0.000000 0.000000
# 4 0.000000 0.000000 0.000000 0.022436 0.000000 0.000000
# 5 0.000000 0.000000 0.000000 0.000000 0.067007 0.000000
# 6 0.000000 0.000000 0.000000 0.000000 0.000000 -0.002543
#
#
# Mechanical properties :
#
#
# Convention : Reuss Voigt Hill
#
# Bulk Modulus (GPa) = 61.68258 70.87115 66.27686
# Shear Modulus (GPa) = 32.98174 -53.44592 -10.23209
#
# Velocity S-wave (km/s) = 4.11057 -5.23266 -2.28954
# Velocity P-wave (km/s) = 7.35728 0.44703 5.19277
#
# Compressibility (1/GPa) = 0.01621203
#
# Stress axis : x y z
#
# Youngs Moduli (GPa) = 67.60834 73.46694 106.94134
#
# Poissons Ratio (x) = 0.15472 0.47097
# Poissons Ratio (y) = 0.14238 0.45565
# Poissons Ratio (z) = 0.29775 0.31303
#
# Static dielectric constant tensor:
#      x y z
#    x 1.702890 0.000000 0.000000 
#    y 0.000000 1.710980 0.000000 
#    z 0.000000 0.000000 2.181940 
# 
# From -- ./inp_files/9733.got.cif
#   From: 2010.05.17/outbox.cif.g08.bks.cpg/sg22_5_cif.got.tgz:9733.got - 2010.06.03 23:40:54.
