data_PCOD9327262
_publ_section_title
;
Structure prediction by ZEFSAII (Michael W. Deem and Ramdas Pophale) SiO2 
 PCOD9327262
Probable space group: F 2 2 2
;
_chemical_formula_sum "Si O2"
_cell_formula_units_Z 72
_cell_length_a 7.694481
_cell_length_b 14.786466
_cell_length_c 23.797513
_cell_angle_alpha 90.000000
_cell_angle_beta 90.000000
_cell_angle_gamma 90.000000
_cell_volume 2707.542568
_symmetry_space_group_name_H-M "F 2 2 2"
_symmetry_group_IT_number 22
_symmetry_cell_setting 'orthorhombic'
loop_
_space_group_symop_operation_xyz
x,y,z
-x,-y,z
x,-y,-z
-x,y,-z
x,1/2+y,1/2+z
-x,1/2-y,1/2+z
x,1/2-y,1/2-z
-x,1/2+y,1/2-z
1/2+x,y,1/2+z
1/2-x,-y,1/2+z
1/2+x,-y,1/2-z
1/2-x,y,1/2-z
1/2+x,1/2+y,z
1/2-x,1/2-y,z
1/2+x,1/2-y,-z
1/2-x,1/2+y,-z
loop_
_atom_site_type_symbol
_atom_site_label
_atom_site_fract_x
_atom_site_fract_y
_atom_site_fract_z
Si Si1 0.000000 0.000000 0.383732
Si Si2 0.000000 0.277774 0.500000
Si Si3 0.750000 0.250000 0.406678
Si Si4 0.064256 0.362708 0.784049
Si Si5 0.660355 0.928291 0.429899
Si Si6 0.015329 0.166409 0.172027
O O1 0.944308 0.074831 0.337740
O O2 0.159952 0.021369 0.424501
O O3 0.089552 0.226215 0.551696
O O4 0.140907 0.349506 0.475775
O O5 0.661320 0.175098 0.366440
O O6 0.250000 0.349489 0.750000
O O7 0.981786 0.268965 0.806242
O O8 0.962300 0.392899 0.728109
O O9 0.648120 0.873032 0.371821
O O10 0.500000 0.000000 0.433854
#
# Coordination Sequence:
#
# PCOD9327262 Si02
#       6
#     8   8   8  16  16  16
#     4  12  30  42  77 116 160 201 264 320 406 486
#     4  10  25  46  78 104 151 192 272 329 406 464
#     4  10  20  43  72 108 132 195 250 336 376 466
#     4  11  22  41  70 113 147 204 254 314 380 482
#     4  11  26  50  72 110 154 206 255 338 396 474
#     4  10  21  42  75 100 149 200 254 305 392 459
#
# _framework density 26.592381
#
# number of rings (size 3 to 8) (size 9 to 14) (size 15 to 20)
#    0.000    1.333    2.222    2.333    7.778    4.444 
#    0.000    3.333    0.000    0.000    0.000    0.000 
#    0.000    0.000    0.000    0.000    0.000    0.000 
#
# Total GULP energy -100459.883272 kJ/mol
# GULP energy per Si atom -5581.104626 kJ/mol
# Density = 2.653186 g / cm^3
# Si number density = 26.592381 Si / 1000 Ang^3
#
#
#
# Elastic Constant Matrix: (Units=GPa)
#
#
# Indices 1 2 3 4 5 6 
#
# 1 139.7134 26.9281 35.7003 0.0000 0.0000 0.0000
# 2 26.9281 63.4689 18.1885 0.0000 0.0000 0.0000
# 3 35.7003 18.1885 141.2186 0.0000 0.0000 0.0000
# 4 0.0000 0.0000 0.0000 28.1979 0.0000 0.0000
# 5 0.0000 0.0000 0.0000 0.0000 29.9355 0.0000
# 6 0.0000 0.0000 0.0000 0.0000 0.0000 29.9528
#
#
#
# Elastic Compliance Matrix: (Units=1/GPa)
#
#
# Indices 1 2 3 4 5 6 
#
# 1 0.008161 -0.002981 -0.001679 0.000000 0.000000 0.000000
# 2 -0.002981 0.017449 -0.001494 0.000000 0.000000 0.000000
# 3 -0.001679 -0.001494 0.007698 0.000000 0.000000 0.000000
# 4 0.000000 0.000000 0.000000 0.035464 0.000000 0.000000
# 5 0.000000 0.000000 0.000000 0.000000 0.033405 0.000000
# 6 0.000000 0.000000 0.000000 0.000000 0.000000 0.033386
#
#
# Mechanical properties :
#
#
# Convention : Reuss Voigt Hill
#
# Bulk Modulus (GPa) = 47.61989 56.22606 51.92297
# Shear Modulus (GPa) = 32.28497 35.18951 33.73724
#
# Velocity S-wave (km/s) = 3.48813 3.64166 3.56572
# Velocity P-wave (km/s) = 5.84542 6.23472 6.04321
#
# Compressibility (1/GPa) = 0.02099963
#
# Stress axis : x y z
#
# Youngs Moduli (GPa) = 122.53090 57.31092 129.90228
#
# Poissons Ratio (x) = 0.17086 0.21813
# Poissons Ratio (y) = 0.36531 0.19403
# Poissons Ratio (z) = 0.20575 0.08560
#
# Static dielectric constant tensor:
#      x y z
#    x 2.410010 0.000000 0.000000 
#    y 0.000000 2.120130 0.000000 
#    z 0.000000 0.000000 2.112020 
# 
# From -- ./inp_files/47136.got.cif
#   From: 2010.05.17/outbox.cif.g08.bks.cpg/sg22_24_cif.got.tgz:47136.got - 2010.06.03 23:40:54.
