data_PCOD9327975
_publ_section_title
;
Structure prediction by ZEFSAII (Michael W. Deem and Ramdas Pophale) SiO2 
 PCOD9327975
Probable space group: F 2 2 2
;
_chemical_formula_sum "Si O2"
_cell_formula_units_Z 116
_cell_length_a 19.351784
_cell_length_b 27.248951
_cell_length_c 11.579360
_cell_angle_alpha 90.000000
_cell_angle_beta 90.000000
_cell_angle_gamma 90.000000
_cell_volume 6105.979644
_symmetry_space_group_name_H-M "F 2 2 2"
_symmetry_group_IT_number 22
_symmetry_cell_setting 'orthorhombic'
loop_
_space_group_symop_operation_xyz
x,y,z
-x,-y,z
x,-y,-z
-x,y,-z
x,1/2+y,1/2+z
-x,1/2-y,1/2+z
x,1/2-y,1/2-z
-x,1/2+y,1/2-z
1/2+x,y,1/2+z
1/2-x,-y,1/2+z
1/2+x,-y,1/2-z
1/2-x,y,1/2-z
1/2+x,1/2+y,z
1/2-x,1/2-y,z
1/2+x,1/2-y,-z
1/2-x,1/2+y,-z
loop_
_atom_site_type_symbol
_atom_site_label
_atom_site_fract_x
_atom_site_fract_y
_atom_site_fract_z
Si Si1 0.917222 0.633482 0.192060
Si Si2 0.683916 0.452585 0.326715
Si Si3 0.750000 0.250000 0.250000
Si Si4 0.418867 0.865834 0.227287
Si Si5 0.347136 0.306016 0.923204
Si Si6 0.318222 0.939428 0.900500
Si Si7 0.291347 0.645500 0.851660
Si Si8 0.417528 0.205308 0.989994
O O1 0.891477 0.587283 0.117806
O O2 0.867630 0.634410 0.302745
O O3 0.997951 0.631219 0.219796
O O4 0.897387 0.679293 0.109706
O O5 0.750000 0.437599 0.250000
O O6 0.620212 0.417678 0.290464
O O7 0.677899 0.511757 0.322540
O O8 0.693394 0.446693 0.463851
O O9 0.704312 0.284178 0.170391
O O10 0.395555 0.842659 0.349603
O O11 0.398771 0.829111 0.120425
O O12 0.388357 0.259374 0.972836
O O13 0.303062 0.329513 0.026014
O O14 0.256797 0.902276 0.867432
O O15 0.250000 0.674184 0.750000
O O16 0.500000 0.207853 0.000000
#
# Coordination Sequence:
#
# PCOD9327975 Si02
#       8
#    16  16   4  16  16  16  16  16
#     4  10  22  42  64  89 133 169 212 273 318 386
#     4  11  22  37  68  95 124 167 218 265 334 393
#     4  12  28  40  62  88 128 164 206 286 304 372
#     4  11  23  40  64  96 124 168 215 270 324 384
#     4  12  26  41  64  92 128 171 221 266 326 377
#     4  10  22  42  63  93 129 167 210 274 329 387
#     4  10  24  42  64  89 130 169 214 265 323 387
#     4  10  22  41  62  87 130 169 217 264 324 380
#
# _framework density 18.997771
#
# number of rings (size 3 to 8) (size 9 to 14) (size 15 to 20)
#    0.000    1.379    2.759    2.069    8.690    1.103 
#    0.000    1.379    0.000    0.000    0.000    3.862 
#    0.000    0.000    0.000    0.000    0.000    0.000 
#
# Total GULP energy -161741.579476 kJ/mol
# GULP energy per Si atom -5577.295844 kJ/mol
# Density = 1.895453 g / cm^3
# Si number density = 18.997771 Si / 1000 Ang^3
#
#
#
# Elastic Constant Matrix: (Units=GPa)
#
#
# Indices 1 2 3 4 5 6 
#
# 1 105.9552 53.5094 57.1823 0.0000 0.0000 0.0000
# 2 53.5094 111.8585 52.1483 0.0000 0.0000 0.0000
# 3 57.1823 52.1483 104.7682 0.0000 0.0000 0.0000
# 4 0.0000 0.0000 0.0000 16.9992 0.0000 0.0000
# 5 0.0000 0.0000 0.0000 0.0000 29.5073 0.0000
# 6 0.0000 0.0000 0.0000 0.0000 0.0000 42.1338
#
#
#
# Elastic Compliance Matrix: (Units=1/GPa)
#
#
# Indices 1 2 3 4 5 6 
#
# 1 0.014828 -0.004323 -0.005941 0.000000 0.000000 0.000000
# 2 -0.004323 0.012902 -0.004062 0.000000 0.000000 0.000000
# 3 -0.005941 -0.004062 0.014809 0.000000 0.000000 0.000000
# 4 0.000000 0.000000 0.000000 0.058826 0.000000 0.000000
# 5 0.000000 0.000000 0.000000 0.000000 0.033890 0.000000
# 6 0.000000 0.000000 0.000000 0.000000 0.000000 0.023734
#
#
# Mechanical properties :
#
#
# Convention : Reuss Voigt Hill
#
# Bulk Modulus (GPa) = 72.01592 72.02913 72.02253
# Shear Modulus (GPa) = 26.00504 28.37751 27.19127
#
# Velocity S-wave (km/s) = 3.70381 3.86907 3.78734
# Velocity P-wave (km/s) = 7.50205 7.61291 7.55769
#
# Compressibility (1/GPa) = 0.01388582
#
# Stress axis : x y z
#
# Youngs Moduli (GPa) = 67.44208 77.50854 67.52490
#
# Poissons Ratio (x) = 0.33510 0.40116
# Poissons Ratio (y) = 0.29158 0.27430
# Poissons Ratio (z) = 0.40067 0.31485
#
# Static dielectric constant tensor:
#      x y z
#    x 1.654100 0.000000 0.000000 
#    y 0.000000 1.706610 0.000000 
#    z 0.000000 0.000000 1.690470 
# 
# From -- ./inp_files/21827.got.cif
#   From: 2010.05.17/outbox.cif.g08.bks.cpg/sg22_11_cif.got.tgz:21827.got - 2010.06.03 23:40:54.
