data_PCOD9327925
_publ_section_title
;
Structure prediction by ZEFSAII (Michael W. Deem and Ramdas Pophale) SiO2 
 PCOD9327925
Probable space group: F 2 2 2
;
_chemical_formula_sum "Si O2"
_cell_formula_units_Z 104
_cell_length_a 17.929612
_cell_length_b 12.252606
_cell_length_c 23.069499
_cell_angle_alpha 90.000000
_cell_angle_beta 90.000000
_cell_angle_gamma 90.000000
_cell_volume 5068.010697
_symmetry_space_group_name_H-M "F 2 2 2"
_symmetry_group_IT_number 22
_symmetry_cell_setting 'orthorhombic'
loop_
_space_group_symop_operation_xyz
x,y,z
-x,-y,z
x,-y,-z
-x,y,-z
x,1/2+y,1/2+z
-x,1/2-y,1/2+z
x,1/2-y,1/2-z
-x,1/2+y,1/2-z
1/2+x,y,1/2+z
1/2-x,-y,1/2+z
1/2+x,-y,1/2-z
1/2-x,y,1/2-z
1/2+x,1/2+y,z
1/2-x,1/2-y,z
1/2+x,1/2-y,-z
1/2-x,1/2+y,-z
loop_
_atom_site_type_symbol
_atom_site_label
_atom_site_fract_x
_atom_site_fract_y
_atom_site_fract_z
Si Si1 0.855902 0.512847 0.297404
Si Si2 0.770130 0.512739 0.113822
Si Si3 0.542132 0.103125 0.392887
Si Si4 0.911627 0.518024 0.170738
Si Si5 0.311137 0.833063 0.453474
Si Si6 0.433977 0.265563 0.186798
Si Si7 0.750000 0.750000 0.434285
O O1 0.775821 0.491883 0.326408
O O2 0.914294 0.454014 0.339674
O O3 0.879386 0.479465 0.232838
O O4 0.871740 0.642382 0.302593
O O5 0.855170 0.474004 0.122258
O O6 0.726309 0.448887 0.063237
O O7 0.768873 0.641549 0.100519
O O8 0.605526 0.161363 0.430062
O O9 0.486200 0.188212 0.363542
O O10 0.500000 0.000000 0.422219
O O11 0.903283 0.648583 0.170664
O O12 0.000000 0.500000 0.165277
O O13 0.250000 0.750000 0.425424
O O14 0.312149 0.793098 0.519885
O O15 0.473054 0.250000 0.250000
#
# Coordination Sequence:
#
# PCOD9327925 Si02
#       7
#    16  16  16  16  16  16   8
#     4   9  18  35  56  85 113 148 195 237 272 342
#     4  11  21  38  62  85 114 154 199 240 291 362
#     4   9  17  34  59  83 114 156 197 243 296 357
#     4  11  22  32  54  87 124 155 179 225 294 362
#     4   9  22  38  62  85 115 151 202 264 305 343
#     4   9  17  30  51  80 116 155 187 230 287 346
#     4  10  22  40  63  84 109 148 202 264 300 338
#
# _framework density 20.520872000000001
#
# number of rings (size 3 to 8) (size 9 to 14) (size 15 to 20)
#    0.462    1.846    0.000    4.154    2.154    0.000 
#    0.000    3.077    0.000   37.846    0.000    0.000 
#    0.000    0.000    0.000    0.000    0.000    0.000 
#
# Total GULP energy -144794.883369 kJ/mol
# GULP energy per Si atom -5569.033976 kJ/mol
# Density = 2.047417 g / cm^3
# Si number density = 20.520872 Si / 1000 Ang^3
#
#
#
# Elastic Constant Matrix: (Units=GPa)
#
#
# Indices 1 2 3 4 5 6 
#
# 1 102.8694 -3.8139 35.2524 0.0000 0.0000 0.0000
# 2 -3.8139 41.8962 -0.5126 0.0000 0.0000 0.0000
# 3 35.2524 -0.5126 41.6796 0.0000 0.0000 0.0000
# 4 0.0000 0.0000 0.0000 18.0522 0.0000 0.0000
# 5 0.0000 0.0000 0.0000 0.0000 11.8319 0.0000
# 6 0.0000 0.0000 0.0000 0.0000 0.0000 15.7001
#
#
#
# Elastic Compliance Matrix: (Units=1/GPa)
#
#
# Indices 1 2 3 4 5 6 
#
# 1 0.013740 0.001109 -0.011608 0.000000 0.000000 0.000000
# 2 0.001109 0.023962 -0.000643 0.000000 0.000000 0.000000
# 3 -0.011608 -0.000643 0.033802 0.000000 0.000000 0.000000
# 4 0.000000 0.000000 0.000000 0.055395 0.000000 0.000000
# 5 0.000000 0.000000 0.000000 0.000000 0.084517 0.000000
# 6 0.000000 0.000000 0.000000 0.000000 0.000000 0.063694
#
#
# Mechanical properties :
#
#
# Convention : Reuss Voigt Hill
#
# Bulk Modulus (GPa) = 20.31693 27.58857 23.95275
# Shear Modulus (GPa) = 15.93367 19.48477 17.70922
#
# Velocity S-wave (km/s) = 2.78953 3.08475 2.94085
# Velocity P-wave (km/s) = 4.50526 5.11478 4.81967
#
# Compressibility (1/GPa) = 0.04922002
#
# Stress axis : x y z
#
# Youngs Moduli (GPa) = 72.78024 41.73344 29.58375
#
# Poissons Ratio (x) = -0.04627 0.34340
# Poissons Ratio (y) = -0.08070 0.01903
# Poissons Ratio (z) = 0.84480 0.02684
#
# Static dielectric constant tensor:
#      x y z
#    x 1.774930 0.000000 0.000000 
#    y 0.000000 1.742230 0.000000 
#    z 0.000000 0.000000 1.762840 
# 
# From -- ./inp_files/53593.got.cif
#   From: 2010.05.17/outbox.cif.g08.bks.cpg/sg22_27_cif.got.tgz:53593.got - 2010.06.03 23:40:54.
