data_PCOD9327999
_publ_section_title
;
Structure prediction by ZEFSAII (Michael W. Deem and Ramdas Pophale) SiO2 
 PCOD9327999
Probable space group: F 2 2 2
;
_chemical_formula_sum "Si O2"
_cell_formula_units_Z 116
_cell_length_a 23.222534
_cell_length_b 26.821408
_cell_length_c 9.252034
_cell_angle_alpha 90.000000
_cell_angle_beta 90.000000
_cell_angle_gamma 90.000000
_cell_volume 5762.731697
_symmetry_space_group_name_H-M "F 2 2 2"
_symmetry_group_IT_number 22
_symmetry_cell_setting 'orthorhombic'
loop_
_space_group_symop_operation_xyz
x,y,z
-x,-y,z
x,-y,-z
-x,y,-z
x,1/2+y,1/2+z
-x,1/2-y,1/2+z
x,1/2-y,1/2-z
-x,1/2+y,1/2-z
1/2+x,y,1/2+z
1/2-x,-y,1/2+z
1/2+x,-y,1/2-z
1/2-x,y,1/2-z
1/2+x,1/2+y,z
1/2-x,1/2-y,z
1/2+x,1/2-y,-z
1/2-x,1/2+y,-z
loop_
_atom_site_type_symbol
_atom_site_label
_atom_site_fract_x
_atom_site_fract_y
_atom_site_fract_z
Si Si1 0.134170 0.740830 0.902367
Si Si2 0.688515 0.172261 0.457729
Si Si3 0.809167 0.472803 0.841490
Si Si4 0.309485 0.634018 0.533084
Si Si5 0.390640 0.878674 0.241449
Si Si6 0.565892 0.012987 0.173073
Si Si7 0.957594 0.714131 0.872591
Si Si8 0.750000 0.250000 0.250000
O O1 0.103934 0.750000 0.750000
O O2 0.173187 0.789855 0.914746
O O3 0.165874 0.687414 0.913589
O O4 0.093415 0.742159 0.041844
O O5 0.742570 0.139880 0.501837
O O6 0.639639 0.136816 0.391373
O O7 0.709872 0.212499 0.338550
O O8 0.750000 0.482685 0.750000
O O9 0.871944 0.489344 0.777934
O O10 0.803197 0.500000 0.000000
O O11 0.816552 0.413484 0.865178
O O12 0.341450 0.622310 0.382240
O O13 0.423913 0.929978 0.219100
O O14 0.433426 0.834392 0.202560
O O15 0.500000 0.000000 0.222151
O O16 0.565620 0.000000 0.000000
O O17 0.980674 0.750000 0.750000
O O18 0.000000 0.699446 0.000000
#
# Coordination Sequence:
#
# PCOD9327999 Si02
#       8
#    16  16  16  16  16  16  16   4
#     4  11  24  40  59  92 142 180 216 268 333 418
#     4  12  21  35  62  92 138 178 224 268 335 416
#     4  11  25  43  65 101 135 170 231 296 357 415
#     4  11  22  36  61  94 133 175 220 265 348 408
#     4  11  21  38  64  97 125 173 234 278 334 416
#     4  10  22  41  67  96 133 175 235 294 350 419
#     4  11  23  41  64  94 130 173 224 277 341 412
#     4  12  16  32  54  96 124 180 206 272 310 408
#
# _framework density 20.129342999999999
#
# number of rings (size 3 to 8) (size 9 to 14) (size 15 to 20)
#    0.000    0.966    6.897    1.241    5.793    0.552 
#    0.000    0.000    0.000    0.414    0.000    0.000 
#    0.000    0.000    0.000    0.000    0.000    0.000 
#
# Total GULP energy -161629.080822 kJ/mol
# GULP energy per Si atom -5573.416580 kJ/mol
# Density = 2.008353 g / cm^3
# Si number density = 20.129343 Si / 1000 Ang^3
#
#
#
# Elastic Constant Matrix: (Units=GPa)
#
#
# Indices 1 2 3 4 5 6 
#
# 1 137.6269 59.6560 26.8300 -0.0003 0.0005 0.0000
# 2 59.6560 109.4152 28.8655 -0.0004 0.0005 -0.0002
# 3 26.8300 28.8655 51.7403 -0.0013 0.0018 0.0004
# 4 -0.0003 -0.0004 -0.0013 8.3424 0.0006 0.0001
# 5 0.0005 0.0005 0.0018 0.0006 23.5432 0.0004
# 6 0.0000 -0.0002 0.0004 0.0001 0.0004 55.4029
#
#
#
# Elastic Compliance Matrix: (Units=1/GPa)
#
#
# Indices 1 2 3 4 5 6 
#
# 1 0.009774 -0.004681 -0.002457 0.000000 0.000000 0.000000
# 2 -0.004681 0.012959 -0.004802 0.000000 0.000000 0.000000
# 3 -0.002457 -0.004802 0.023280 0.000003 -0.000002 0.000000
# 4 0.000000 0.000000 0.000003 0.119870 -0.000003 0.000000
# 5 0.000000 0.000000 -0.000002 -0.000003 0.042475 0.000000
# 6 0.000000 0.000000 0.000000 0.000000 0.000000 0.018050
#
#
# Mechanical properties :
#
#
# Convention : Reuss Voigt Hill
#
# Bulk Modulus (GPa) = 45.18136 58.83173 52.00655
# Shear Modulus (GPa) = 19.40507 29.68642 24.54574
#
# Velocity S-wave (km/s) = 3.10823 3.84446 3.49578
# Velocity P-wave (km/s) = 5.94775 6.99977 6.49509
#
# Compressibility (1/GPa) = 0.02213302
#
# Stress axis : x y z
#
# Youngs Moduli (GPa) = 102.31268 77.16934 42.95460
#
# Poissons Ratio (x) = 0.36122 0.10554
# Poissons Ratio (y) = 0.47891 0.20628
# Poissons Ratio (z) = 0.25137 0.37058
#
# Static dielectric constant tensor:
#      x y z
#    x 1.788820 0.000000 0.000000 
#    y 0.000000 1.685750 0.000000 
#    z 0.000000 0.000000 1.742890 
# 
# From -- ./inp_files/14084.got.cif
#   From: 2010.05.17/outbox.cif.g08.bks.cpg/sg22_8_cif.got.tgz:14084.got - 2010.06.03 23:40:54.
