data_PCOD9327064
_publ_section_title
;
Structure prediction by ZEFSAII (Michael W. Deem and Ramdas Pophale) SiO2 
 PCOD9327064
Probable space group: F 2 2 2
;
_chemical_formula_sum "Si O2"
_cell_formula_units_Z 96
_cell_length_a 16.530059
_cell_length_b 15.283651
_cell_length_c 20.433461
_cell_angle_alpha 90.000000
_cell_angle_beta 90.000000
_cell_angle_gamma 90.000000
_cell_volume 5162.302492
_symmetry_space_group_name_H-M "F 2 2 2"
_symmetry_group_IT_number 22
_symmetry_cell_setting 'orthorhombic'
loop_
_space_group_symop_operation_xyz
x,y,z
-x,-y,z
x,-y,-z
-x,y,-z
x,1/2+y,1/2+z
-x,1/2-y,1/2+z
x,1/2-y,1/2-z
-x,1/2+y,1/2-z
1/2+x,y,1/2+z
1/2-x,-y,1/2+z
1/2+x,-y,1/2-z
1/2-x,y,1/2-z
1/2+x,1/2+y,z
1/2-x,1/2-y,z
1/2+x,1/2-y,-z
1/2-x,1/2+y,-z
loop_
_atom_site_type_symbol
_atom_site_label
_atom_site_fract_x
_atom_site_fract_y
_atom_site_fract_z
Si Si1 0.816644 0.972766 0.199252
Si Si2 0.185959 0.549410 0.434936
Si Si3 0.317803 0.822849 0.094937
Si Si4 0.545399 0.810818 0.569328
Si Si5 0.870789 0.351084 0.236067
Si Si6 0.045272 0.329914 0.293155
O O1 0.750000 0.938517 0.250000
O O2 0.894599 0.911180 0.203040
O O3 0.794237 0.982741 0.123482
O O4 0.832078 0.073312 0.220829
O O5 0.163663 0.500000 0.500000
O O6 0.265462 0.608812 0.446281
O O7 0.108357 0.609729 0.417786
O O8 0.250000 0.750000 0.112389
O O9 0.395127 0.773436 0.065356
O O10 0.348497 0.867291 0.161278
O O11 0.500000 0.822253 0.500000
O O12 0.487118 0.805248 0.633423
O O13 0.846788 0.250000 0.250000
O O14 0.965307 0.354721 0.252229
O O15 0.081253 0.250000 0.250000
#
# Coordination Sequence:
#
# PCOD9327064 Si02
#       6
#    16  16  16  16  16  16
#     4  12  24  38  63  93 124 164 204 251 313 364
#     4  11  23  39  60  91 125 155 198 253 308 370
#     4  10  20  38  64  92 118 151 201 254 306 364
#     4  11  22  40  64  89 118 162 204 250 305 362
#     4  11  19  36  66  95 121 150 197 262 308 357
#     4  11  23  41  62  91 124 159 211 258 301 361
#
# _framework density 18.596353000000001
#
# number of rings (size 3 to 8) (size 9 to 14) (size 15 to 20)
#    0.000    1.000    6.667    2.500    0.000    2.000 
#    3.000    0.000    0.000    0.000    0.000    0.000 
#    0.000    0.000    0.000    0.000    0.000    0.000 
#
# Total GULP energy -133845.661618 kJ/mol
# GULP energy per Si atom -5576.902567 kJ/mol
# Density = 1.855403 g / cm^3
# Si number density = 18.596353 Si / 1000 Ang^3
#
#
#
# Elastic Constant Matrix: (Units=GPa)
#
#
# Indices 1 2 3 4 5 6 
#
# 1 84.2599 34.1369 26.5868 0.0000 0.0000 0.0000
# 2 34.1369 68.8132 25.5638 0.0000 0.0000 0.0000
# 3 26.5868 25.5638 90.2545 0.0000 0.0000 0.0000
# 4 0.0000 0.0000 0.0000 21.4940 0.0000 0.0000
# 5 0.0000 0.0000 0.0000 0.0000 32.8708 0.0000
# 6 0.0000 0.0000 0.0000 0.0000 0.0000 -33.0263
#
#
#
# Elastic Compliance Matrix: (Units=1/GPa)
#
#
# Indices 1 2 3 4 5 6 
#
# 1 0.015401 -0.006655 -0.002652 0.000000 0.000000 0.000000
# 2 -0.006655 0.019117 -0.003454 0.000000 0.000000 0.000000
# 3 -0.002652 -0.003454 0.012839 0.000000 0.000000 0.000000
# 4 0.000000 0.000000 0.000000 0.046525 0.000000 0.000000
# 5 0.000000 0.000000 0.000000 0.000000 0.030422 0.000000
# 6 0.000000 0.000000 0.000000 0.000000 0.000000 -0.030279
#
#
# Mechanical properties :
#
#
# Convention : Reuss Voigt Hill
#
# Bulk Modulus (GPa) = 45.79808 46.21139 46.00474
# Shear Modulus (GPa) = 39.42433 14.73704 27.08068
#
# Velocity S-wave (km/s) = 4.60934 2.81814 3.82021
# Velocity P-wave (km/s) = 7.28073 5.95759 6.65214
#
# Compressibility (1/GPa) = 0.02183497
#
# Stress axis : x y z
#
# Youngs Moduli (GPa) = 64.93105 52.31014 77.88574
#
# Poissons Ratio (x) = 0.34812 0.20654
# Poissons Ratio (y) = 0.43212 0.26904
# Poissons Ratio (z) = 0.17218 0.18069
#
# Static dielectric constant tensor:
#      x y z
#    x 1.639360 0.000000 0.000000 
#    y 0.000000 1.669990 0.000000 
#    z 0.000000 0.000000 1.645890 
# 
# From -- ./inp_files/43478.got.cif
#   From: 2010.05.17/outbox.cif.g08.bks.cpg/sg22_22_cif.got.tgz:43478.got - 2010.06.03 23:40:54.
