data_PCOD9327425
_publ_section_title
;
Structure prediction by ZEFSAII (Michael W. Deem and Ramdas Pophale) SiO2 
 PCOD9327425
Probable space group: F 2 2 2
;
_chemical_formula_sum "Si O2"
_cell_formula_units_Z 96
_cell_length_a 13.510262
_cell_length_b 13.755176
_cell_length_c 23.366983
_cell_angle_alpha 90.000000
_cell_angle_beta 90.000000
_cell_angle_gamma 90.000000
_cell_volume 4342.427392
_symmetry_space_group_name_H-M "F 2 2 2"
_symmetry_group_IT_number 22
_symmetry_cell_setting 'orthorhombic'
loop_
_space_group_symop_operation_xyz
x,y,z
-x,-y,z
x,-y,-z
-x,y,-z
x,1/2+y,1/2+z
-x,1/2-y,1/2+z
x,1/2-y,1/2-z
-x,1/2+y,1/2-z
1/2+x,y,1/2+z
1/2-x,-y,1/2+z
1/2+x,-y,1/2-z
1/2-x,y,1/2-z
1/2+x,1/2+y,z
1/2-x,1/2-y,z
1/2+x,1/2-y,-z
1/2-x,1/2+y,-z
loop_
_atom_site_type_symbol
_atom_site_label
_atom_site_fract_x
_atom_site_fract_y
_atom_site_fract_z
Si Si1 0.216742 0.907867 0.349938
Si Si2 0.360880 0.584799 0.954024
Si Si3 0.500000 0.247223 0.000000
Si Si4 0.598886 0.270480 0.182786
Si Si5 0.304123 0.150182 0.967095
Si Si6 0.250000 0.055696 0.250000
Si Si7 0.573093 0.911287 0.327069
O O1 0.315678 0.848066 0.332898
O O2 0.127027 0.831553 0.344687
O O3 0.217958 0.928004 0.417598
O O4 0.207950 0.989885 0.302154
O O5 0.433753 0.677212 0.963571
O O6 0.378181 0.558965 0.887788
O O7 0.387387 0.500000 0.000000
O O8 0.252726 0.620679 0.975051
O O9 0.417881 0.177290 0.972878
O O10 0.602189 0.250000 0.250000
O O11 0.495799 0.317765 0.165951
O O12 0.250000 0.250000 0.947826
O O13 0.342133 0.107768 0.280291
O O14 0.500000 0.000000 0.309310
#
# Coordination Sequence:
#
# PCOD9327425 Si02
#       7
#    16  16   8  16  16   8  16
#     4  11  18  36  66  93 117 159 214 270 292 362
#     4  11  23  38  64  96 125 161 208 261 315 375
#     4  10  21  40  63  92 128 162 204 254 313 388
#     4  11  20  36  63  94 117 157 219 260 308 358
#     4  10  21  37  62  97 125 159 207 261 314 368
#     4  12  24  41  63  92 132 162 212 266 311 374
#     4  12  24  41  62  95 132 170 206 263 325 377
#
# _framework density 22.10745
#
# number of rings (size 3 to 8) (size 9 to 14) (size 15 to 20)
#    0.000    1.000    5.000    3.750    2.333    0.000 
#    0.000    9.167    0.000    0.000    0.000    0.000 
#    0.000    0.000    0.000    0.000    0.000    0.000 
#
# Total GULP energy -134059.265662 kJ/mol
# GULP energy per Si atom -5585.802736 kJ/mol
# Density = 2.205713 g / cm^3
# Si number density = 22.107450 Si / 1000 Ang^3
#
#
#
# Elastic Constant Matrix: (Units=GPa)
#
#
# Indices 1 2 3 4 5 6 
#
# 1 141.1065 42.0799 62.1777 0.0000 0.0000 0.0000
# 2 42.0799 50.4683 12.9527 0.0000 0.0000 0.0000
# 3 62.1777 12.9527 117.3817 0.0000 0.0000 0.0000
# 4 0.0000 0.0000 0.0000 23.9725 0.0000 0.0000
# 5 0.0000 0.0000 0.0000 0.0000 11.1994 0.0000
# 6 0.0000 0.0000 0.0000 0.0000 0.0000 39.0585
#
#
#
# Elastic Compliance Matrix: (Units=1/GPa)
#
#
# Indices 1 2 3 4 5 6 
#
# 1 0.012066 -0.008666 -0.005435 0.000000 0.000000 0.000000
# 2 -0.008666 0.026615 0.001653 0.000000 0.000000 0.000000
# 3 -0.005435 0.001653 0.011216 0.000000 0.000000 0.000000
# 4 0.000000 0.000000 0.000000 0.041715 0.000000 0.000000
# 5 0.000000 0.000000 0.000000 0.000000 0.089291 0.000000
# 6 0.000000 0.000000 0.000000 0.000000 0.000000 0.025603
#
#
# Mechanical properties :
#
#
# Convention : Reuss Voigt Hill
#
# Bulk Modulus (GPa) = 39.99646 60.37523 50.18585
# Shear Modulus (GPa) = 20.85642 27.62915 24.24279
#
# Velocity S-wave (km/s) = 3.07483 3.53904 3.31507
# Velocity P-wave (km/s) = 5.54412 6.63844 6.11581
#
# Compressibility (1/GPa) = 0.02500221
#
# Stress axis : x y z
#
# Youngs Moduli (GPa) = 82.87719 37.57227 89.15955
#
# Poissons Ratio (x) = 0.32559 0.48460
# Poissons Ratio (y) = 0.71818 -0.14741
# Poissons Ratio (z) = 0.45046 -0.06212
#
# Static dielectric constant tensor:
#      x y z
#    x 1.826620 0.000000 0.000000 
#    y 0.000000 1.860700 0.000000 
#    z 0.000000 0.000000 1.855320 
# 
# From -- ./inp_files/48910.got.cif
#   From: 2010.05.17/outbox.cif.g08.bks.cpg/sg22_25_cif.got.tgz:48910.got - 2010.06.03 23:40:54.
