data_PCOD9327579
_publ_section_title
;
Structure prediction by ZEFSAII (Michael W. Deem and Ramdas Pophale) SiO2 
 PCOD9327579
Probable space group: F 2 2 2
;
_chemical_formula_sum "Si O2"
_cell_formula_units_Z 56
_cell_length_a 25.789048
_cell_length_b 11.129032
_cell_length_c 8.345427
_cell_angle_alpha 90.000000
_cell_angle_beta 90.000000
_cell_angle_gamma 90.000000
_cell_volume 2395.197139
_symmetry_space_group_name_H-M "F 2 2 2"
_symmetry_group_IT_number 22
_symmetry_cell_setting 'orthorhombic'
loop_
_space_group_symop_operation_xyz
x,y,z
-x,-y,z
x,-y,-z
-x,y,-z
x,1/2+y,1/2+z
-x,1/2-y,1/2+z
x,1/2-y,1/2-z
-x,1/2+y,1/2-z
1/2+x,y,1/2+z
1/2-x,-y,1/2+z
1/2+x,-y,1/2-z
1/2-x,y,1/2-z
1/2+x,1/2+y,z
1/2-x,1/2-y,z
1/2+x,1/2-y,-z
1/2-x,1/2+y,-z
loop_
_atom_site_type_symbol
_atom_site_label
_atom_site_fract_x
_atom_site_fract_y
_atom_site_fract_z
Si Si1 0.221029 0.631272 0.081032
Si Si2 0.058495 0.162480 0.027082
Si Si3 0.626679 0.250000 0.250000
Si Si4 0.443679 0.934715 0.848666
O O1 0.250000 0.614871 0.250000
O O2 0.250000 0.750000 0.003276
O O3 0.164025 0.676299 0.131035
O O4 0.221848 0.500000 0.000000
O O5 0.081096 0.083771 0.173162
O O6 0.051830 0.298595 0.089816
O O7 0.090488 0.170898 0.864257
O O8 0.000000 0.122756 0.000000
O O9 0.500000 0.000000 0.831435
O O10 0.417550 0.000000 0.000000
#
# Coordination Sequence:
#
# PCOD9327579 Si02
#       4
#    16  16   8  16
#     4   9  21  47  81 113 150 186 237 316 399 489
#     4  11  22  40  64  94 144 194 258 310 361 435
#     4  10  23  44  68 108 150 192 255 328 382 454
#     4  10  21  40  62  83 122 194 259 312 360 414
#
# _framework density 23.380122
#
# number of rings (size 3 to 8) (size 9 to 14) (size 15 to 20)
#    0.000    2.286    2.857    1.714    0.000    2.286 
#    0.000   22.857    0.000    0.000    0.000    0.000 
#    0.000    0.000    0.000    0.000    0.000    0.000 
#
# Total GULP energy -78120.480650 kJ/mol
# GULP energy per Si atom -5580.034332 kJ/mol
# Density = 2.332691 g / cm^3
# Si number density = 23.380122 Si / 1000 Ang^3
#
#
#
# Elastic Constant Matrix: (Units=GPa)
#
#
# Indices 1 2 3 4 5 6 
#
# 1 107.9997 48.6572 41.5219 0.0000 0.0000 0.0000
# 2 48.6572 241.3359 68.4632 0.0000 0.0000 0.0000
# 3 41.5219 68.4632 144.8505 0.0000 0.0000 0.0000
# 4 0.0000 0.0000 0.0000 57.4467 0.0000 0.0000
# 5 0.0000 0.0000 0.0000 0.0000 20.9495 0.0000
# 6 0.0000 0.0000 0.0000 0.0000 0.0000 706.3160
#
#
#
# Elastic Compliance Matrix: (Units=1/GPa)
#
#
# Indices 1 2 3 4 5 6 
#
# 1 0.010862 -0.001509 -0.002400 0.000000 0.000000 0.000000
# 2 -0.001509 0.004995 -0.001928 0.000000 0.000000 0.000000
# 3 -0.002400 -0.001928 0.008503 0.000000 0.000000 0.000000
# 4 0.000000 0.000000 0.000000 0.017407 0.000000 0.000000
# 5 0.000000 0.000000 0.000000 0.000000 0.047734 0.000000
# 6 0.000000 0.000000 0.000000 0.000000 0.000000 0.001416
#
#
# Mechanical properties :
#
#
# Convention : Reuss Voigt Hill
#
# Bulk Modulus (GPa) = 78.83518 90.16340 84.49929
# Shear Modulus (GPa) = 46.80749 179.31203 113.05976
#
# Velocity S-wave (km/s) = 4.47925 8.76702 6.96148
# Velocity P-wave (km/s) = 7.78098 11.87976 10.04172
#
# Compressibility (1/GPa) = 0.01268469
#
# Stress axis : x y z
#
# Youngs Moduli (GPa) = 92.06409 200.20610 117.60376
#
# Poissons Ratio (x) = 0.30211 0.28230
# Poissons Ratio (y) = 0.13892 0.22677
# Poissons Ratio (z) = 0.22099 0.38605
#
# Static dielectric constant tensor:
#      x y z
#    x 1.883960 0.000000 0.000000 
#    y 0.000000 2.023780 0.000000 
#    z 0.000000 0.000000 1.955250 
# 
# From -- ./inp_files/8460.got.cif
#   From: 2010.05.17/outbox.cif.g08.bks.cpg/sg22_5_cif.got.tgz:8460.got - 2010.06.03 23:40:54.
