data_PCOD9327433
_publ_section_title
;
Structure prediction by ZEFSAII (Michael W. Deem and Ramdas Pophale) SiO2 
 PCOD9327433
Probable space group: F 2 2 2
;
_chemical_formula_sum "Si O2"
_cell_formula_units_Z 104
_cell_length_a 8.442968
_cell_length_b 21.136993
_cell_length_c 27.290731
_cell_angle_alpha 90.000000
_cell_angle_beta 90.000000
_cell_angle_gamma 90.000000
_cell_volume 4870.275350
_symmetry_space_group_name_H-M "F 2 2 2"
_symmetry_group_IT_number 22
_symmetry_cell_setting 'orthorhombic'
loop_
_space_group_symop_operation_xyz
x,y,z
-x,-y,z
x,-y,-z
-x,y,-z
x,1/2+y,1/2+z
-x,1/2-y,1/2+z
x,1/2-y,1/2-z
-x,1/2+y,1/2-z
1/2+x,y,1/2+z
1/2-x,-y,1/2+z
1/2+x,-y,1/2-z
1/2-x,y,1/2-z
1/2+x,1/2+y,z
1/2-x,1/2-y,z
1/2+x,1/2-y,-z
1/2-x,1/2+y,-z
loop_
_atom_site_type_symbol
_atom_site_label
_atom_site_fract_x
_atom_site_fract_y
_atom_site_fract_z
Si Si1 0.750000 0.120906 0.750000
Si Si2 0.466095 0.641766 0.113226
Si Si3 0.276899 0.554450 0.035299
Si Si4 0.817263 0.611223 0.145018
Si Si5 0.000000 0.500000 0.099628
Si Si6 0.590493 0.178371 0.273185
Si Si7 0.421672 0.724786 0.588711
Si Si8 0.000000 0.638000 0.000000
O O1 0.775807 0.087134 0.698970
O O2 0.585622 0.157752 0.742452
O O3 0.380045 0.596252 0.073628
O O4 0.647008 0.615911 0.118202
O O5 0.403460 0.656488 0.169020
O O6 0.473551 0.713354 0.093705
O O7 0.163029 0.599011 0.002452
O O8 0.151155 0.517675 0.068282
O O9 0.345374 0.500000 0.000000
O O10 0.948083 0.562975 0.126980
O O11 0.888040 0.682477 0.137516
O O12 0.594371 0.250000 0.250000
O O13 0.750000 0.148450 0.250000
O O14 0.250000 0.750000 0.572338
O O15 0.493539 0.679040 0.548707
#
# Coordination Sequence:
#
# PCOD9327433 Si02
#       8
#     8  16  16  16   8  16  16   8
#     4  10  21  40  70 100 142 188 233 294 366 442
#     4  10  25  43  69 107 144 181 239 307 372 447
#     4  12  24  46  70  97 133 190 252 303 361 443
#     4  10  22  46  70 102 138 188 234 295 373 452
#     4  12  23  46  70  88 134 190 242 300 361 428
#     4  10  21  37  66 111 149 189 236 286 371 465
#     4  10  22  41  65  99 142 176 224 299 374 438
#     4  12  23  40  64  98 129 182 244 286 372 446
#
# _framework density 21.354029000000001
#
# number of rings (size 3 to 8) (size 9 to 14) (size 15 to 20)
#    0.000    1.385    3.077    1.154    4.308    5.538 
#    0.000    7.692    0.000    0.000    0.000    0.000 
#    0.000    0.000    0.000    0.000    0.000    0.000 
#
# Total GULP energy -144749.336926 kJ/mol
# GULP energy per Si atom -5567.282189 kJ/mol
# Density = 2.130543 g / cm^3
# Si number density = 21.354029 Si / 1000 Ang^3
#
#
#
# Elastic Constant Matrix: (Units=GPa)
#
#
# Indices 1 2 3 4 5 6 
#
# 1 99.6791 48.6831 50.3031 0.0000 0.0000 0.0000
# 2 48.6831 97.9062 49.9720 0.0000 0.0000 0.0000
# 3 50.3031 49.9720 106.8172 0.0000 0.0000 0.0000
# 4 0.0000 0.0000 0.0000 -4.6293 0.0000 0.0000
# 5 0.0000 0.0000 0.0000 0.0000 615.5488 0.0000
# 6 0.0000 0.0000 0.0000 0.0000 0.0000 26.4462
#
#
#
# Elastic Compliance Matrix: (Units=1/GPa)
#
#
# Indices 1 2 3 4 5 6 
#
# 1 0.014814 -0.004999 -0.004638 0.000000 0.000000 0.000000
# 2 -0.004999 0.015105 -0.004712 0.000000 0.000000 0.000000
# 3 -0.004638 -0.004712 0.013750 0.000000 0.000000 0.000000
# 4 0.000000 0.000000 0.000000 -0.216016 0.000000 0.000000
# 5 0.000000 0.000000 0.000000 0.000000 0.001625 0.000000
# 6 0.000000 0.000000 0.000000 0.000000 0.000000 0.037813
#
#
# Mechanical properties :
#
#
# Convention : Reuss Voigt Hill
#
# Bulk Modulus (GPa) = 66.79473 66.92431 66.85952
# Shear Modulus (GPa) = -50.39259 137.83609 43.72175
#
# Velocity S-wave (km/s) = -4.86311 8.04290 4.52981
# Velocity P-wave (km/s) = 0.43077 10.84709 7.66400
#
# Compressibility (1/GPa) = 0.01497124
#
# Stress axis : x y z
#
# Youngs Moduli (GPa) = 67.50299 66.20424 72.72575
#
# Poissons Ratio (x) = 0.33096 0.33728
# Poissons Ratio (y) = 0.33746 0.34270
# Poissons Ratio (z) = 0.31306 0.31197
#
# Static dielectric constant tensor:
#      x y z
#    x 1.776520 0.000000 0.000000 
#    y 0.000000 1.853820 0.000000 
#    z 0.000000 0.000000 1.863300 
# 
# From -- ./inp_files/52019.got.cif
#   From: 2010.05.17/outbox.cif.g08.bks.cpg/sg22_27_cif.got.tgz:52019.got - 2010.06.03 23:40:54.
