data_PCOD9327377
_publ_section_title
;
Structure prediction by ZEFSAII (Michael W. Deem and Ramdas Pophale) SiO2 
 PCOD9327377
Probable space group: F 2 2 2
;
_chemical_formula_sum "Si O2"
_cell_formula_units_Z 116
_cell_length_a 17.231261
_cell_length_b 18.363199
_cell_length_c 19.061438
_cell_angle_alpha 90.000000
_cell_angle_beta 90.000000
_cell_angle_gamma 90.000000
_cell_volume 6031.440699
_symmetry_space_group_name_H-M "F 2 2 2"
_symmetry_group_IT_number 22
_symmetry_cell_setting 'orthorhombic'
loop_
_space_group_symop_operation_xyz
x,y,z
-x,-y,z
x,-y,-z
-x,y,-z
x,1/2+y,1/2+z
-x,1/2-y,1/2+z
x,1/2-y,1/2-z
-x,1/2+y,1/2-z
1/2+x,y,1/2+z
1/2-x,-y,1/2+z
1/2+x,-y,1/2-z
1/2-x,y,1/2-z
1/2+x,1/2+y,z
1/2-x,1/2-y,z
1/2+x,1/2-y,-z
1/2-x,1/2+y,-z
loop_
_atom_site_type_symbol
_atom_site_label
_atom_site_fract_x
_atom_site_fract_y
_atom_site_fract_z
Si Si1 0.948630 0.192111 0.694178
Si Si2 0.420559 0.606584 0.392164
Si Si3 0.660292 0.256511 0.061271
Si Si4 0.166557 0.826619 0.212152
Si Si5 0.336672 0.284557 0.093305
Si Si6 0.669076 0.898469 0.289789
Si Si7 0.086590 0.465419 0.755221
Si Si8 0.500000 0.500000 0.500000
O O1 0.982656 0.250000 0.750000
O O2 0.894256 0.235423 0.639838
O O3 0.894406 0.141330 0.741350
O O4 0.008121 0.144142 0.649629
O O5 0.372181 0.676402 0.418528
O O6 0.385719 0.550178 0.335048
O O7 0.448945 0.554694 0.453700
O O8 0.750000 0.250000 0.045566
O O9 0.661677 0.307623 0.129826
O O10 0.629835 0.285506 0.986214
O O11 0.152401 0.750000 0.250000
O O12 0.250000 0.849622 0.250000
O O13 0.099851 0.885616 0.223840
O O14 0.250000 0.250000 0.097437
O O15 0.331312 0.361447 0.133983
O O16 0.750000 0.887859 0.250000
O O17 0.643280 0.981781 0.287175
O O18 0.000000 0.500000 0.754458
#
# Coordination Sequence:
#
# PCOD9327377 Si02
#       8
#    16  16  16  16  16  16  16   4
#     4  10  21  36  64  95 123 166 215 261 311 378
#     4  12  23  40  62  92 130 170 213 274 327 391
#     4  11  23  40  67  94 124 167 218 270 320 381
#     4  11  21  41  67  91 120 161 220 270 315 373
#     4  10  21  38  62  95 131 163 212 259 318 393
#     4  11  21  38  62  92 131 169 208 266 324 387
#     4  12  24  39  60  95 126 161 217 269 325 382
#     4  12  24  40  56  92 144 168 200 266 360 400
#
# _framework density 19.232551999999998
#
# number of rings (size 3 to 8) (size 9 to 14) (size 15 to 20)
#    0.000    0.966    6.207    1.241    1.931    0.000 
#    0.000    0.690    0.000    0.828    0.000    0.000 
#    0.000    0.000    0.000    0.000    0.000    0.000 
#
# Total GULP energy -161621.206658 kJ/mol
# GULP energy per Si atom -5573.145057 kJ/mol
# Density = 1.918878 g / cm^3
# Si number density = 19.232552 Si / 1000 Ang^3
#
#
#
# Elastic Constant Matrix: (Units=GPa)
#
#
# Indices 1 2 3 4 5 6 
#
# 1 74.5579 42.7782 23.5334 0.0000 0.0000 0.0000
# 2 42.7782 107.8137 49.3298 0.0000 0.0000 0.0000
# 3 23.5334 49.3298 144.4835 0.0000 0.0000 0.0000
# 4 0.0000 0.0000 0.0000 27.9636 0.0000 0.0000
# 5 0.0000 0.0000 0.0000 0.0000 16.3023 0.0000
# 6 0.0000 0.0000 0.0000 0.0000 0.0000 24.6181
#
#
#
# Elastic Compliance Matrix: (Units=1/GPa)
#
#
# Indices 1 2 3 4 5 6 
#
# 1 0.017405 -0.006647 -0.000565 0.000000 0.000000 0.000000
# 2 -0.006647 0.013531 -0.003537 0.000000 0.000000 0.000000
# 3 -0.000565 -0.003537 0.008221 0.000000 0.000000 0.000000
# 4 0.000000 0.000000 0.000000 0.035761 0.000000 0.000000
# 5 0.000000 0.000000 0.000000 0.000000 0.061341 0.000000
# 6 0.000000 0.000000 0.000000 0.000000 0.000000 0.040620
#
#
# Mechanical properties :
#
#
# Convention : Reuss Voigt Hill
#
# Bulk Modulus (GPa) = 56.63333 62.01533 59.32433
# Shear Modulus (GPa) = 24.47812 27.85772 26.16792
#
# Velocity S-wave (km/s) = 3.57142 3.81000 3.69264
# Velocity P-wave (km/s) = 6.82036 7.18817 7.00668
#
# Compressibility (1/GPa) = 0.01765745
#
# Stress axis : x y z
#
# Youngs Moduli (GPa) = 57.45577 73.90380 121.64037
#
# Poissons Ratio (x) = 0.49125 0.06877
# Poissons Ratio (y) = 0.38192 0.43026
# Poissons Ratio (z) = 0.03249 0.26141
#
# Static dielectric constant tensor:
#      x y z
#    x 1.646800 0.000000 0.000000 
#    y 0.000000 1.709870 0.000000 
#    z 0.000000 0.000000 1.780660 
# 
# From -- ./inp_files/38148.got.cif
#   From: 2010.05.17/outbox.cif.g08.bks.cpg/sg22_20_cif.got.tgz:38148.got - 2010.06.03 23:40:54.
