data_PCOD9327134
_publ_section_title
;
Structure prediction by ZEFSAII (Michael W. Deem and Ramdas Pophale) SiO2 
 PCOD9327134
Probable space group: F 2 2 2
;
_chemical_formula_sum "Si O2"
_cell_formula_units_Z 96
_cell_length_a 17.504812
_cell_length_b 14.177503
_cell_length_c 19.191221
_cell_angle_alpha 90.000000
_cell_angle_beta 90.000000
_cell_angle_gamma 90.000000
_cell_volume 4762.772149
_symmetry_space_group_name_H-M "F 2 2 2"
_symmetry_group_IT_number 22
_symmetry_cell_setting 'orthorhombic'
loop_
_space_group_symop_operation_xyz
x,y,z
-x,-y,z
x,-y,-z
-x,y,-z
x,1/2+y,1/2+z
-x,1/2-y,1/2+z
x,1/2-y,1/2-z
-x,1/2+y,1/2-z
1/2+x,y,1/2+z
1/2-x,-y,1/2+z
1/2+x,-y,1/2-z
1/2-x,y,1/2-z
1/2+x,1/2+y,z
1/2-x,1/2-y,z
1/2+x,1/2-y,-z
1/2-x,1/2+y,-z
loop_
_atom_site_type_symbol
_atom_site_label
_atom_site_fract_x
_atom_site_fract_y
_atom_site_fract_z
Si Si1 0.619080 0.847583 0.656425
Si Si2 0.300020 0.451378 0.319394
Si Si3 0.318690 0.977960 0.577264
Si Si4 0.963723 0.156180 0.923560
Si Si5 0.110591 0.364411 0.822450
Si Si6 0.559778 0.185944 0.818842
O O1 0.534054 0.868154 0.627667
O O2 0.634503 0.736354 0.644837
O O3 0.623369 0.860718 0.739074
O O4 0.670788 0.923328 0.617879
O O5 0.250000 0.467370 0.250000
O O6 0.241407 0.418274 0.378460
O O7 0.341420 0.546367 0.346122
O O8 0.367804 0.378804 0.304760
O O9 0.399670 0.924142 0.572974
O O10 0.292091 0.000000 0.500000
O O11 0.928496 0.248149 0.886368
O O12 0.000000 0.171871 0.000000
O O13 0.019115 0.370379 0.831629
O O14 0.546579 0.250000 0.750000
#
# Coordination Sequence:
#
# PCOD9327134 Si02
#       6
#    16  16  16  16  16  16
#     4  10  20  39  67 101 125 163 224 276 325 386
#     4  12  26  41  65  96 136 176 214 270 345 403
#     4  12  25  41  62 100 135 171 214 272 341 401
#     4  11  22  40  69  97 125 167 222 278 329 388
#     4  10  21  43  69  95 125 170 221 275 323 393
#     4  11  23  43  68  96 125 168 229 275 326 385
#
# _framework density 20.156327999999998
#
# number of rings (size 3 to 8) (size 9 to 14) (size 15 to 20)
#    0.000    1.000    6.667    2.000    0.000    4.333 
#    6.000    1.667    0.000    0.000    0.000    0.000 
#    0.000    0.000    0.000    0.000    0.000    0.000 
#
# Total GULP energy -134061.991562 kJ/mol
# GULP energy per Si atom -5585.916315 kJ/mol
# Density = 2.011045 g / cm^3
# Si number density = 20.156328 Si / 1000 Ang^3
#
#
#
# Elastic Constant Matrix: (Units=GPa)
#
#
# Indices 1 2 3 4 5 6 
#
# 1 88.8111 46.5201 21.4614 0.0000 0.0000 0.0000
# 2 46.5201 59.5825 22.3913 0.0000 0.0000 0.0000
# 3 21.4614 22.3913 83.6405 0.0000 0.0000 0.0000
# 4 0.0000 0.0000 0.0000 19.8398 0.0000 0.0000
# 5 0.0000 0.0000 0.0000 0.0000 29.5507 0.0000
# 6 0.0000 0.0000 0.0000 0.0000 0.0000 12.6634
#
#
#
# Elastic Compliance Matrix: (Units=1/GPa)
#
#
# Indices 1 2 3 4 5 6 
#
# 1 0.019128 -0.014554 -0.001012 0.000000 0.000000 0.000000
# 2 -0.014554 0.029735 -0.004226 0.000000 0.000000 0.000000
# 3 -0.001012 -0.004226 0.013347 0.000000 0.000000 0.000000
# 4 0.000000 0.000000 0.000000 0.050404 0.000000 0.000000
# 5 0.000000 0.000000 0.000000 0.000000 0.033840 0.000000
# 6 0.000000 0.000000 0.000000 0.000000 0.000000 0.078968
#
#
# Mechanical properties :
#
#
# Convention : Reuss Voigt Hill
#
# Bulk Modulus (GPa) = 44.19673 45.86442 45.03057
# Shear Modulus (GPa) = 18.34539 21.85485 20.10012
#
# Velocity S-wave (km/s) = 3.02015 3.29639 3.16129
# Velocity P-wave (km/s) = 5.84263 6.10672 5.97613
#
# Compressibility (1/GPa) = 0.02262611
#
# Stress axis : x y z
#
# Youngs Moduli (GPa) = 52.27917 33.63025 74.92420
#
# Poissons Ratio (x) = 0.48947 0.07581
# Poissons Ratio (y) = 0.76089 0.31662
# Poissons Ratio (z) = 0.05289 0.14212
#
# Static dielectric constant tensor:
#      x y z
#    x 1.717840 0.000000 0.000000 
#    y 0.000000 1.747270 0.000000 
#    z 0.000000 0.000000 1.687220 
# 
# From -- ./inp_files/43490.got.cif
#   From: 2010.05.17/outbox.cif.g08.bks.cpg/sg22_22_cif.got.tgz:43490.got - 2010.06.03 23:40:54.
