data_PCOD9327289
_publ_section_title
;
Structure prediction by ZEFSAII (Michael W. Deem and Ramdas Pophale) SiO2 
 PCOD9327289
Probable space group: F 2 2 2
;
_chemical_formula_sum "Si O2"
_cell_formula_units_Z 64
_cell_length_a 12.758420
_cell_length_b 7.272769
_cell_length_c 32.310139
_cell_angle_alpha 90.000000
_cell_angle_beta 90.000000
_cell_angle_gamma 90.000000
_cell_volume 2998.026827
_symmetry_space_group_name_H-M "F 2 2 2"
_symmetry_group_IT_number 22
_symmetry_cell_setting 'orthorhombic'
loop_
_space_group_symop_operation_xyz
x,y,z
-x,-y,z
x,-y,-z
-x,y,-z
x,1/2+y,1/2+z
-x,1/2-y,1/2+z
x,1/2-y,1/2-z
-x,1/2+y,1/2-z
1/2+x,y,1/2+z
1/2-x,-y,1/2+z
1/2+x,-y,1/2-z
1/2-x,y,1/2-z
1/2+x,1/2+y,z
1/2-x,1/2-y,z
1/2+x,1/2-y,-z
1/2-x,1/2+y,-z
loop_
_atom_site_type_symbol
_atom_site_label
_atom_site_fract_x
_atom_site_fract_y
_atom_site_fract_z
Si Si1 0.878930 0.952020 0.819715
Si Si2 0.911247 0.738527 0.067819
Si Si3 0.750000 0.750000 0.366573
Si Si4 0.250000 0.750000 0.250000
Si Si5 0.140062 0.166024 0.911043
Si Si6 0.500000 0.500000 0.500000
O O1 0.823757 0.868730 0.779970
O O2 0.865524 0.829513 0.860963
O O3 0.818638 0.129253 0.836221
O O4 0.000000 0.000000 0.812943
O O5 0.833426 0.653076 0.102242
O O6 0.034301 0.729266 0.077760
O O7 0.918005 0.634058 0.024533
O O8 0.878122 0.955755 0.071704
O O9 0.250000 0.250000 0.925153
#
# Coordination Sequence:
#
# PCOD9327289 Si02
#       6
#    16  16   8   4  16   4
#     4  11  23  45  68 106 137 183 237 298 353 428
#     4  10  24  44  68 106 135 190 239 305 370 431
#     4  10  22  47  76  93 132 190 250 275 346 443
#     4  12  28  38  68 104 152 178 224 298 378 398
#     4  10  20  45  77  93 136 191 255 297 346 447
#     4  12  28  42  60 112 162 178 240 314 388 434
#
# _framework density 21.347375
#
# number of rings (size 3 to 8) (size 9 to 14) (size 15 to 20)
#    0.000    1.500    6.250    0.000    7.000    4.500 
#    2.250    0.000    0.000    0.000    0.000    0.000 
#    0.000    0.000    0.000    0.000    0.000    0.000 
#
# Total GULP energy -89174.846608 kJ/mol
# GULP energy per Si atom -5573.427913 kJ/mol
# Density = 2.129879 g / cm^3
# Si number density = 21.347375 Si / 1000 Ang^3
#
#
#
# Elastic Constant Matrix: (Units=GPa)
#
#
# Indices 1 2 3 4 5 6 
#
# 1 227.4937 71.0808 67.4281 0.0000 0.0000 0.0000
# 2 71.0808 50.0707 58.4996 0.0000 0.0000 0.0000
# 3 67.4281 58.4996 134.6697 0.0000 0.0000 0.0000
# 4 0.0000 0.0000 0.0000 32.8175 0.0000 0.0000
# 5 0.0000 0.0000 0.0000 0.0000 -6.3652 0.0000
# 6 0.0000 0.0000 0.0000 0.0000 0.0000 42.6120
#
#
#
# Elastic Compliance Matrix: (Units=1/GPa)
#
#
# Indices 1 2 3 4 5 6 
#
# 1 0.008136 -0.013789 0.001916 0.000000 0.000000 0.000000
# 2 -0.013789 0.063922 -0.020863 0.000000 0.000000 0.000000
# 3 0.001916 -0.020863 0.015529 0.000000 0.000000 0.000000
# 4 0.000000 0.000000 0.000000 0.030472 0.000000 0.000000
# 5 0.000000 0.000000 0.000000 0.000000 -0.157105 0.000000
# 6 0.000000 0.000000 0.000000 0.000000 0.000000 0.023468
#
#
# Mechanical properties :
#
#
# Convention : Reuss Voigt Hill
#
# Bulk Modulus (GPa) = 45.21808 89.58344 67.40076
# Shear Modulus (GPa) = 87.31526 28.16126 57.73826
#
# Velocity S-wave (km/s) = 6.40241 3.63601 5.20632
# Velocity P-wave (km/s) = 8.71106 7.72548 8.23303
#
# Compressibility (1/GPa) = 0.02211505
#
# Stress axis : x y z
#
# Youngs Moduli (GPa) = 122.90872 15.64418 64.39535
#
# Poissons Ratio (x) = 0.21571 -0.12338
# Poissons Ratio (y) = 1.69474 1.34349
# Poissons Ratio (z) = -0.23549 0.32639
#
# Static dielectric constant tensor:
#      x y z
#    x 1.773800 0.000000 0.000000 
#    y 0.000000 2.045840 0.000000 
#    z 0.000000 0.000000 1.795080 
# 
# From -- ./inp_files/55840.got.cif
#   From: 2010.05.17/outbox.cif.g08.bks.cpg/sg22_28_cif.got.tgz:55840.got - 2010.06.03 23:40:54.
