data_PCOD9327490
_publ_section_title
;
Structure prediction by ZEFSAII (Michael W. Deem and Ramdas Pophale) SiO2 
 PCOD9327490
Probable space group: F 2 2 2
;
_chemical_formula_sum "Si O2"
_cell_formula_units_Z 64
_cell_length_a 8.064351
_cell_length_b 21.708580
_cell_length_c 17.829918
_cell_angle_alpha 90.000000
_cell_angle_beta 90.000000
_cell_angle_gamma 90.000000
_cell_volume 3121.405450
_symmetry_space_group_name_H-M "F 2 2 2"
_symmetry_group_IT_number 22
_symmetry_cell_setting 'orthorhombic'
loop_
_space_group_symop_operation_xyz
x,y,z
-x,-y,z
x,-y,-z
-x,y,-z
x,1/2+y,1/2+z
-x,1/2-y,1/2+z
x,1/2-y,1/2-z
-x,1/2+y,1/2-z
1/2+x,y,1/2+z
1/2-x,-y,1/2+z
1/2+x,-y,1/2-z
1/2-x,y,1/2-z
1/2+x,1/2+y,z
1/2-x,1/2-y,z
1/2+x,1/2-y,-z
1/2-x,1/2+y,-z
loop_
_atom_site_type_symbol
_atom_site_label
_atom_site_fract_x
_atom_site_fract_y
_atom_site_fract_z
Si Si1 0.750000 0.093321 0.750000
Si Si2 0.325288 0.618725 0.334238
Si Si3 0.826041 0.319024 0.874000
Si Si4 0.314776 0.817169 0.468778
Si Si5 0.500000 0.000000 0.187219
O O1 0.720572 0.136555 0.679126
O O2 0.599333 0.048066 0.763228
O O3 0.250000 0.621691 0.250000
O O4 0.486596 0.664213 0.346474
O O5 0.196847 0.640126 0.396945
O O6 0.380121 0.548350 0.353805
O O7 0.750000 0.250000 0.865886
O O8 0.801224 0.336110 0.960951
O O9 0.500000 0.812037 0.500000
O O10 0.250000 0.750000 0.445925
#
# Coordination Sequence:
#
# PCOD9327490 Si02
#       5
#     8  16  16  16   8
#     4  10  21  38  66  90 125 176 214 274 320 396
#     4  11  24  45  70  97 134 181 227 273 334 400
#     4  10  22  42  69  94 137 172 215 272 345 395
#     4  11  24  43  67 101 143 173 214 278 343 402
#     4  10  22  42  67  89 136 166 228 274 328 377
#
# _framework density 20.503585999999999
#
# number of rings (size 3 to 8) (size 9 to 14) (size 15 to 20)
#    0.000    1.500    1.250    4.125    7.000    0.500 
#    9.000   10.000    0.000    7.500    0.000    0.000 
#    0.000    0.000    0.000    0.000    0.000    0.000 
#
# Total GULP energy -89221.962619 kJ/mol
# GULP energy per Si atom -5576.372664 kJ/mol
# Density = 2.045692 g / cm^3
# Si number density = 20.503586 Si / 1000 Ang^3
#
#
#
# Elastic Constant Matrix: (Units=GPa)
#
#
# Indices 1 2 3 4 5 6 
#
# 1 95.8691 43.4732 28.9793 0.0000 0.0000 0.0000
# 2 43.4732 121.0095 78.3005 0.0000 0.0000 0.0000
# 3 28.9793 78.3005 120.3272 0.0000 0.0000 0.0000
# 4 0.0000 0.0000 0.0000 6403.6530 0.0000 0.0000
# 5 0.0000 0.0000 0.0000 0.0000 18.0046 0.0000
# 6 0.0000 0.0000 0.0000 0.0000 0.0000 16.2402
#
#
#
# Elastic Compliance Matrix: (Units=1/GPa)
#
#
# Indices 1 2 3 4 5 6 
#
# 1 0.012462 -0.004379 -0.000152 0.000000 0.000000 0.000000
# 2 -0.004379 0.015813 -0.009235 0.000000 0.000000 0.000000
# 3 -0.000152 -0.009235 0.014357 0.000000 0.000000 0.000000
# 4 0.000000 0.000000 0.000000 0.000156 0.000000 0.000000
# 5 0.000000 0.000000 0.000000 0.000000 0.055541 0.000000
# 6 0.000000 0.000000 0.000000 0.000000 0.000000 0.061576
#
#
# Mechanical properties :
#
#
# Convention : Reuss Voigt Hill
#
# Bulk Modulus (GPa) = 66.22521 70.96799 68.59660
# Shear Modulus (GPa) = 25.97799 1300.00973 662.99386
#
# Velocity S-wave (km/s) = 3.56335 25.20747 18.00158
# Velocity P-wave (km/s) = 7.02135 29.69697 21.57787
#
# Compressibility (1/GPa) = 0.01509999
#
# Stress axis : x y z
#
# Youngs Moduli (GPa) = 80.24086 63.24040 69.65297
#
# Poissons Ratio (x) = 0.27692 0.01059
# Poissons Ratio (y) = 0.35136 0.64326
# Poissons Ratio (z) = 0.01219 0.58404
#
# Static dielectric constant tensor:
#      x y z
#    x -3.724930 0.000000 0.000000 
#    y 0.000000 1.728290 0.000000 
#    z 0.000000 0.000000 1.724290 
# 
# From -- ./inp_files/34820.got.cif
#   From: 2010.05.17/outbox.cif.g08.bks.cpg/sg22_18_cif.got.tgz:34820.got - 2010.06.03 23:40:54.
