data_PCOD9327672
_publ_section_title
;
Structure prediction by ZEFSAII (Michael W. Deem and Ramdas Pophale) SiO2 
 PCOD9327672
Probable space group: F 2 2 2
;
_chemical_formula_sum "Si O2"
_cell_formula_units_Z 112
_cell_length_a 11.486024
_cell_length_b 15.027844
_cell_length_c 28.281677
_cell_angle_alpha 90.000000
_cell_angle_beta 90.000000
_cell_angle_gamma 90.000000
_cell_volume 4881.705269
_symmetry_space_group_name_H-M "F 2 2 2"
_symmetry_group_IT_number 22
_symmetry_cell_setting 'orthorhombic'
loop_
_space_group_symop_operation_xyz
x,y,z
-x,-y,z
x,-y,-z
-x,y,-z
x,1/2+y,1/2+z
-x,1/2-y,1/2+z
x,1/2-y,1/2-z
-x,1/2+y,1/2-z
1/2+x,y,1/2+z
1/2-x,-y,1/2+z
1/2+x,-y,1/2-z
1/2-x,y,1/2-z
1/2+x,1/2+y,z
1/2-x,1/2-y,z
1/2+x,1/2-y,-z
1/2-x,1/2+y,-z
loop_
_atom_site_type_symbol
_atom_site_label
_atom_site_fract_x
_atom_site_fract_y
_atom_site_fract_z
Si Si1 0.437222 0.590122 0.153133
Si Si2 0.098004 0.265569 0.321996
Si Si3 0.804607 0.600237 0.202531
Si Si4 0.483275 0.828586 0.914666
Si Si5 0.533015 0.356572 0.949213
Si Si6 0.722607 0.435838 0.545119
Si Si7 0.183107 0.947132 0.366505
O O1 0.500000 0.500000 0.171029
O O2 0.484126 0.675713 0.180324
O O3 0.482233 0.599637 0.098480
O O4 0.298642 0.593157 0.156312
O O5 0.108842 0.182074 0.286759
O O6 0.200489 0.339503 0.320282
O O7 0.093346 0.216052 0.372896
O O8 0.750000 0.561355 0.250000
O O9 0.857248 0.524589 0.169496
O O10 0.518655 0.743287 0.945478
O O11 0.402871 0.891173 0.946628
O O12 0.586095 0.882080 0.888178
O O13 0.673212 0.364656 0.950925
O O14 0.500000 0.396403 0.000000
O O15 0.727448 0.500000 0.500000
O O16 0.736729 0.499918 0.589540
#
# Coordination Sequence:
#
# PCOD9327672 Si02
#       7
#    16  16  16  16  16  16  16
#     4  11  21  41  69  96 131 192 232 292 363 429
#     4  10  21  41  68  97 138 182 232 287 363 442
#     4  11  23  43  73 108 138 183 238 297 369 459
#     4  11  26  43  68 101 143 195 239 306 376 430
#     4  11  25  42  64  98 142 189 253 301 362 435
#     4  12  25  42  72  98 142 194 252 302 367 434
#     4  12  24  44  70 101 147 179 242 306 363 437
#
# _framework density 22.942803000000001
#
# number of rings (size 3 to 8) (size 9 to 14) (size 15 to 20)
#    0.000    0.857    4.286    3.429    6.000    2.857 
#    2.571    4.286    0.000    0.000    0.000    8.000 
#    0.000    0.000    0.000    0.000    0.000    0.000 
#
# Total GULP energy -156321.040554 kJ/mol
# GULP energy per Si atom -5582.894305 kJ/mol
# Density = 2.289058 g / cm^3
# Si number density = 22.942803 Si / 1000 Ang^3
#
#
#
# Elastic Constant Matrix: (Units=GPa)
#
#
# Indices 1 2 3 4 5 6 
#
# 1 126.3636 68.0614 10.6908 0.0000 0.0000 0.0000
# 2 68.0614 138.8685 28.2674 0.0000 0.0000 0.0000
# 3 10.6908 28.2674 67.7867 0.0000 0.0000 0.0000
# 4 0.0000 0.0000 0.0000 -202.6640 0.0000 0.0000
# 5 0.0000 0.0000 0.0000 0.0000 17.4986 0.0000
# 6 0.0000 0.0000 0.0000 0.0000 0.0000 35.9142
#
#
#
# Elastic Compliance Matrix: (Units=1/GPa)
#
#
# Indices 1 2 3 4 5 6 
#
# 1 0.010771 -0.005391 0.000549 0.000000 0.000000 0.000000
# 2 -0.005391 0.010567 -0.003556 0.000000 0.000000 0.000000
# 3 0.000549 -0.003556 0.016149 0.000000 0.000000 0.000000
# 4 0.000000 0.000000 0.000000 -0.004934 0.000000 0.000000
# 5 0.000000 0.000000 0.000000 0.000000 0.057147 0.000000
# 6 0.000000 0.000000 0.000000 0.000000 0.000000 0.027844
#
#
# Mechanical properties :
#
#
# Convention : Reuss Voigt Hill
#
# Bulk Modulus (GPa) = 48.33070 60.78422 54.55746
# Shear Modulus (GPa) = 35.40178 -14.78363 10.30908
#
# Velocity S-wave (km/s) = 3.93242 -2.54120 2.12206
# Velocity P-wave (km/s) = 6.45988 4.23569 5.46220
#
# Compressibility (1/GPa) = 0.02069078
#
# Stress axis : x y z
#
# Youngs Moduli (GPa) = 92.84443 94.63411 61.92509
#
# Poissons Ratio (x) = 0.51014 -0.03401
# Poissons Ratio (y) = 0.50049 0.22023
# Poissons Ratio (z) = -0.05100 0.33655
#
# Static dielectric constant tensor:
#      x y z
#    x 3.492380 0.000000 0.000000 
#    y 0.000000 1.928280 0.000000 
#    z 0.000000 0.000000 1.907080 
# 
# From -- ./inp_files/56114.got.cif
#   From: 2010.05.17/outbox.cif.g08.bks.cpg/sg22_29_cif.got.tgz:56114.got - 2010.06.03 23:40:54.
