data_PCOD9327603
_publ_section_title
;
Structure prediction by ZEFSAII (Michael W. Deem and Ramdas Pophale) SiO2 
 PCOD9327603
Probable space group: F 2 2 2
;
_chemical_formula_sum "Si O2"
_cell_formula_units_Z 116
_cell_length_a 28.497926
_cell_length_b 24.361839
_cell_length_c 8.045013
_cell_angle_alpha 90.000000
_cell_angle_beta 90.000000
_cell_angle_gamma 90.000000
_cell_volume 5585.345891
_symmetry_space_group_name_H-M "F 2 2 2"
_symmetry_group_IT_number 22
_symmetry_cell_setting 'orthorhombic'
loop_
_space_group_symop_operation_xyz
x,y,z
-x,-y,z
x,-y,-z
-x,y,-z
x,1/2+y,1/2+z
-x,1/2-y,1/2+z
x,1/2-y,1/2-z
-x,1/2+y,1/2-z
1/2+x,y,1/2+z
1/2-x,-y,1/2+z
1/2+x,-y,1/2-z
1/2-x,y,1/2-z
1/2+x,1/2+y,z
1/2-x,1/2-y,z
1/2+x,1/2-y,-z
1/2-x,1/2+y,-z
loop_
_atom_site_type_symbol
_atom_site_label
_atom_site_fract_x
_atom_site_fract_y
_atom_site_fract_z
Si Si1 0.548747 0.292573 0.597367
Si Si2 0.162496 0.420709 0.846728
Si Si3 0.421800 0.082941 0.107176
Si Si4 0.500000 0.500000 0.500000
Si Si5 0.317897 0.865691 0.513527
Si Si6 0.843724 0.530163 0.324524
Si Si7 0.355635 0.754613 0.551981
Si Si8 0.275062 0.825296 0.069252
O O1 0.500000 0.291704 0.500000
O O2 0.544975 0.250000 0.750000
O O3 0.560924 0.355542 0.642339
O O4 0.595142 0.272321 0.499389
O O5 0.170188 0.391626 0.667126
O O6 0.173154 0.484261 0.805973
O O7 0.198907 0.384009 0.950104
O O8 0.112264 0.417498 0.941572
O O9 0.465150 0.041682 0.091969
O O10 0.389949 0.057900 0.251263
O O11 0.312837 0.917104 0.634503
O O12 0.357400 0.819645 0.527848
O O13 0.271126 0.829656 0.540792
O O14 0.852278 0.500000 0.500000
O O15 0.349621 0.750000 0.750000
O O16 0.313471 0.721188 0.464039
O O17 0.250000 0.819493 0.250000
#
# Coordination Sequence:
#
# PCOD9327603 Si02
#       8
#    16  16  16   4  16  16  16  16
#     4  11  25  44  68 103 137 177 231 289 354 421
#     4  10  21  40  65  89 134 177 217 276 334 397
#     4  12  22  45  69  98 131 177 229 279 344 422
#     4  12  24  40  78 100 116 176 246 278 328 432
#     4  10  23  39  64  96 132 174 226 273 337 414
#     4  10  21  41  65  92 134 174 216 277 344 404
#     4  11  23  43  68  93 138 182 225 289 352 410
#     4  10  22  41  64  99 134 178 231 274 334 421
#
# _framework density 20.768633000000001
#
# number of rings (size 3 to 8) (size 9 to 14) (size 15 to 20)
#    0.000    1.379    3.448    2.069    0.000    6.069 
#    0.000   12.759    0.000    0.000    0.000    0.000 
#    0.000    0.000    0.000    0.000    0.000    0.000 
#
# Total GULP energy -161612.429908 kJ/mol
# GULP energy per Si atom -5572.842411 kJ/mol
# Density = 2.072136 g / cm^3
# Si number density = 20.768633 Si / 1000 Ang^3
#
#
#
# Elastic Constant Matrix: (Units=GPa)
#
#
# Indices 1 2 3 4 5 6 
#
# 1 98.4460 47.1666 21.2256 -0.0003 -0.0001 0.0012
# 2 47.1666 174.0344 19.0529 0.0003 -0.0017 0.0044
# 3 21.2256 19.0529 43.2857 0.0028 -0.0053 -0.0001
# 4 -0.0003 0.0003 0.0028 22.1199 -0.0030 0.0015
# 5 -0.0001 -0.0017 -0.0053 -0.0030 24.3799 -0.0022
# 6 0.0012 0.0044 -0.0001 0.0015 -0.0022 -72.0789
#
#
#
# Elastic Compliance Matrix: (Units=1/GPa)
#
#
# Indices 1 2 3 4 5 6 
#
# 1 0.012594 -0.002876 -0.004910 0.000001 -0.000001 0.000000
# 2 -0.002876 0.006694 -0.001536 0.000000 0.000000 0.000000
# 3 -0.004910 -0.001536 0.026186 -0.000003 0.000006 0.000000
# 4 0.000001 0.000000 -0.000003 0.045208 0.000006 0.000001
# 5 -0.000001 0.000000 0.000006 0.000006 0.041017 -0.000001
# 6 0.000000 0.000000 0.000000 0.000001 -0.000001 -0.013874
#
#
# Mechanical properties :
#
#
# Convention : Reuss Voigt Hill
#
# Bulk Modulus (GPa) = 37.27125 54.51736 45.89430
# Shear Modulus (GPa) = 34.38486 10.10558 22.24522
#
# Velocity S-wave (km/s) = 4.07334 2.20825 3.27631
# Velocity P-wave (km/s) = 6.33306 5.72788 6.03806
#
# Compressibility (1/GPa) = 0.02683033
#
# Stress axis : x y z
#
# Youngs Moduli (GPa) = 79.40116 149.39766 38.18819
#
# Poissons Ratio (x) = 0.42963 0.18750
# Poissons Ratio (y) = 0.22834 0.05866
# Poissons Ratio (z) = 0.38985 0.22949
#
# Static dielectric constant tensor:
#      x y z
#    x 1.768540 0.000000 0.000000 
#    y 0.000000 1.781880 0.000000 
#    z 0.000000 0.000000 1.787080 
# 
# From -- ./inp_files/15737.got.cif
#   From: 2010.05.17/outbox.cif.g08.bks.cpg/sg22_8_cif.got.tgz:15737.got - 2010.06.03 23:40:54.
