data_PCOD9327795
_publ_section_title
;
Structure prediction by ZEFSAII (Michael W. Deem and Ramdas Pophale) SiO2 
 PCOD9327795
Probable space group: F 2 2 2
;
_chemical_formula_sum "Si O2"
_cell_formula_units_Z 96
_cell_length_a 11.316811
_cell_length_b 17.276646
_cell_length_c 26.329519
_cell_angle_alpha 90.000000
_cell_angle_beta 90.000000
_cell_angle_gamma 90.000000
_cell_volume 5147.856389
_symmetry_space_group_name_H-M "F 2 2 2"
_symmetry_group_IT_number 22
_symmetry_cell_setting 'orthorhombic'
loop_
_space_group_symop_operation_xyz
x,y,z
-x,-y,z
x,-y,-z
-x,y,-z
x,1/2+y,1/2+z
-x,1/2-y,1/2+z
x,1/2-y,1/2-z
-x,1/2+y,1/2-z
1/2+x,y,1/2+z
1/2-x,-y,1/2+z
1/2+x,-y,1/2-z
1/2-x,y,1/2-z
1/2+x,1/2+y,z
1/2-x,1/2-y,z
1/2+x,1/2-y,-z
1/2-x,1/2+y,-z
loop_
_atom_site_type_symbol
_atom_site_label
_atom_site_fract_x
_atom_site_fract_y
_atom_site_fract_z
Si Si1 0.367521 0.878432 0.779184
Si Si2 0.500000 0.000000 0.288546
Si Si3 0.936059 0.586975 0.110681
Si Si4 0.820245 0.668513 0.901406
Si Si5 0.949529 0.250000 0.250000
Si Si6 0.813386 0.879941 0.803830
Si Si7 0.356441 0.587950 0.505307
O O1 0.250000 0.851750 0.750000
O O2 0.415199 0.949771 0.746707
O O3 0.364933 0.906586 0.836950
O O4 0.466922 0.812566 0.776116
O O5 0.582411 0.060626 0.316715
O O6 0.845964 0.605184 0.064810
O O7 0.000000 0.500000 0.106068
O O8 0.039474 0.652173 0.107054
O O9 0.750000 0.750000 0.900089
O O10 0.768900 0.623577 0.852488
O O11 0.802581 0.635667 0.958760
O O12 0.870659 0.203335 0.209768
O O13 0.750000 0.901218 0.750000
O O14 0.316659 0.500000 0.500000
O O15 0.500000 0.590345 0.500000
#
# Coordination Sequence:
#
# PCOD9327795 Si02
#       7
#    16   8  16  16   8  16  16
#     4  11  22  35  56  85 122 162 199 244 305 357
#     4  10  22  32  50  86 122 150 196 244 286 362
#     4  11  20  36  63  92 119 154 211 259 295 359
#     4  11  21  35  61  92 121 154 204 260 306 354
#     4  10  22  40  52  82 126 162 198 244 300 368
#     4  11  21  35  57  83 119 158 199 243 304 362
#     4   9  17  34  57  85 113 145 195 254 299 344
#
# _framework density 18.648539
#
# number of rings (size 3 to 8) (size 9 to 14) (size 15 to 20)
#    0.000    1.500    4.167    5.000    2.333    0.000 
#    0.000    1.667    0.000    8.000    0.000    1.167 
#    0.000    0.000    0.000    0.000    0.000    0.000 
#
# Total GULP energy -133633.615921 kJ/mol
# GULP energy per Si atom -5568.067330 kJ/mol
# Density = 1.860609 g / cm^3
# Si number density = 18.648539 Si / 1000 Ang^3
#
#
#
# Elastic Constant Matrix: (Units=GPa)
#
#
# Indices 1 2 3 4 5 6 
#
# 1 63.3740 25.0807 37.3998 0.0000 0.0000 0.0000
# 2 25.0807 70.3603 14.4351 0.0000 0.0000 0.0000
# 3 37.3998 14.4351 142.2524 0.0000 0.0000 0.0000
# 4 0.0000 0.0000 0.0000 83.4486 0.0000 0.0000
# 5 0.0000 0.0000 0.0000 0.0000 -4.8355 0.0000
# 6 0.0000 0.0000 0.0000 0.0000 0.0000 23.9257
#
#
#
# Elastic Compliance Matrix: (Units=1/GPa)
#
#
# Indices 1 2 3 4 5 6 
#
# 1 0.021292 -0.006578 -0.004930 0.000000 0.000000 0.000000
# 2 -0.006578 0.016547 0.000050 0.000000 0.000000 0.000000
# 3 -0.004930 0.000050 0.008321 0.000000 0.000000 0.000000
# 4 0.000000 0.000000 0.000000 0.011983 0.000000 0.000000
# 5 0.000000 0.000000 0.000000 0.000000 -0.206803 0.000000
# 6 0.000000 0.000000 0.000000 0.000000 0.000000 0.041796
#
#
# Mechanical properties :
#
#
# Convention : Reuss Voigt Hill
#
# Bulk Modulus (GPa) = 43.02260 47.75755 45.39008
# Shear Modulus (GPa) = -65.61865 33.77917 -15.91974
#
# Velocity S-wave (km/s) = -5.93830 4.26062 -2.92494
# Velocity P-wave (km/s) = 4.88851 7.06178 3.60355
#
# Compressibility (1/GPa) = 0.02324360
#
# Stress axis : x y z
#
# Youngs Moduli (GPa) = 46.96495 60.43331 120.17894
#
# Poissons Ratio (x) = 0.39755 0.59254
# Poissons Ratio (y) = 0.30895 -0.00606
# Poissons Ratio (z) = 0.23156 -0.00305
#
# Static dielectric constant tensor:
#      x y z
#    x 1.686090 0.000000 0.000000 
#    y 0.000000 1.689950 0.000000 
#    z 0.000000 0.000000 1.701570 
# 
# From -- ./inp_files/52657.got.cif
#   From: 2010.05.17/outbox.cif.g08.bks.cpg/sg22_27_cif.got.tgz:52657.got - 2010.06.03 23:40:54.
