data_PCOD9327597
_publ_section_title
;
Structure prediction by ZEFSAII (Michael W. Deem and Ramdas Pophale) SiO2 
 PCOD9327597
Probable space group: F 2 2 2
;
_chemical_formula_sum "Si O2"
_cell_formula_units_Z 120
_cell_length_a 20.750222
_cell_length_b 21.368467
_cell_length_c 12.859548
_cell_angle_alpha 90.000000
_cell_angle_beta 90.000000
_cell_angle_gamma 90.000000
_cell_volume 5701.929165
_symmetry_space_group_name_H-M "F 2 2 2"
_symmetry_group_IT_number 22
_symmetry_cell_setting 'orthorhombic'
loop_
_space_group_symop_operation_xyz
x,y,z
-x,-y,z
x,-y,-z
-x,y,-z
x,1/2+y,1/2+z
-x,1/2-y,1/2+z
x,1/2-y,1/2-z
-x,1/2+y,1/2-z
1/2+x,y,1/2+z
1/2-x,-y,1/2+z
1/2+x,-y,1/2-z
1/2-x,y,1/2-z
1/2+x,1/2+y,z
1/2-x,1/2-y,z
1/2+x,1/2-y,-z
1/2-x,1/2+y,-z
loop_
_atom_site_type_symbol
_atom_site_label
_atom_site_fract_x
_atom_site_fract_y
_atom_site_fract_z
Si Si1 0.516575 0.894422 0.393355
Si Si2 0.323371 0.745904 0.529930
Si Si3 0.588231 0.298120 0.156999
Si Si4 0.854602 0.029517 0.693756
Si Si5 0.320269 0.606672 0.277811
Si Si6 0.500000 0.000000 0.771557
Si Si7 0.799327 0.391514 0.977858
Si Si8 0.834136 0.128938 0.872381
O O1 0.500000 0.927524 0.500000
O O2 0.476738 0.830402 0.383577
O O3 0.592332 0.883455 0.402647
O O4 0.494978 0.938600 0.299972
O O5 0.250000 0.750000 0.486788
O O6 0.372047 0.766685 0.438120
O O7 0.329250 0.674067 0.564352
O O8 0.327496 0.795732 0.624020
O O9 0.574671 0.250000 0.250000
O O10 0.630432 0.352235 0.212234
O O11 0.930772 0.014159 0.676542
O O12 0.825803 0.049787 0.584547
O O13 0.832267 0.087237 0.768241
O O14 0.827815 0.966712 0.746415
O O15 0.250000 0.630717 0.250000
O O16 0.321604 0.609204 0.402895
O O17 0.722314 0.390710 0.953515
#
# Coordination Sequence:
#
# PCOD9327597 Si02
#       8
#    16  16  16  16  16   8  16  16
#     4  11  22  42  67  94 133 171 226 279 338 417
#     4  10  21  40  64 100 133 174 227 279 351 406
#     4  12  24  42  66  99 138 177 231 283 346 413
#     4  11  24  44  67  97 137 176 229 280 345 418
#     4  12  24  40  68 101 137 175 222 289 347 406
#     4  10  23  44  65  94 126 180 222 275 347 398
#     4  11  23  42  68 100 135 176 229 282 349 417
#     4  10  22  42  67  96 132 176 225 283 339 408
#
# _framework density 21.045508000000002
#
# number of rings (size 3 to 8) (size 9 to 14) (size 15 to 20)
#    0.000    1.067    4.000    3.400    0.000    0.533 
#    4.800    6.667    2.933    0.000    0.000    0.000 
#    0.000    0.000    0.000    0.000    0.000    0.000 
#
# Total GULP energy -167270.949755 kJ/mol
# GULP energy per Si atom -5575.698325 kJ/mol
# Density = 2.099761 g / cm^3
# Si number density = 21.045508 Si / 1000 Ang^3
#
#
#
# Elastic Constant Matrix: (Units=GPa)
#
#
# Indices 1 2 3 4 5 6 
#
# 1 126.1165 28.1183 27.6440 0.0000 0.0000 0.0000
# 2 28.1183 101.7911 31.6963 0.0000 0.0000 0.0000
# 3 27.6440 31.6963 57.2257 0.0000 0.0000 0.0000
# 4 0.0000 0.0000 0.0000 51.8001 0.0000 0.0000
# 5 0.0000 0.0000 0.0000 0.0000 11.1336 0.0000
# 6 0.0000 0.0000 0.0000 0.0000 0.0000 26.7757
#
#
#
# Elastic Compliance Matrix: (Units=1/GPa)
#
#
# Indices 1 2 3 4 5 6 
#
# 1 0.009024 -0.001372 -0.003599 0.000000 0.000000 0.000000
# 2 -0.001372 0.012080 -0.006028 0.000000 0.000000 0.000000
# 3 -0.003599 -0.006028 0.022552 0.000000 0.000000 0.000000
# 4 0.000000 0.000000 0.000000 0.019305 0.000000 0.000000
# 5 0.000000 0.000000 0.000000 0.000000 0.089818 0.000000
# 6 0.000000 0.000000 0.000000 0.000000 0.000000 0.037347
#
#
# Mechanical properties :
#
#
# Convention : Reuss Voigt Hill
#
# Bulk Modulus (GPa) = 46.17347 51.11671 48.64509
# Shear Modulus (GPa) = 22.79516 31.12020 26.95768
#
# Velocity S-wave (km/s) = 3.29467 3.84957 3.58288
# Velocity P-wave (km/s) = 6.03826 6.64081 6.34669
#
# Compressibility (1/GPa) = 0.02165746
#
# Stress axis : x y z
#
# Youngs Moduli (GPa) = 110.81547 82.78062 44.34135
#
# Poissons Ratio (x) = 0.11357 0.15960
# Poissons Ratio (y) = 0.15204 0.26730
# Poissons Ratio (z) = 0.39886 0.49902
#
# Static dielectric constant tensor:
#      x y z
#    x 1.786800 0.000000 0.000000 
#    y 0.000000 1.782330 0.000000 
#    z 0.000000 0.000000 1.897160 
# 
# From -- ./inp_files/31871.got.cif
#   From: 2010.05.17/outbox.cif.g08.bks.cpg/sg22_16_cif.got.tgz:31871.got - 2010.06.03 23:40:54.
