data_PCOD9327756
_publ_section_title
;
Structure prediction by ZEFSAII (Michael W. Deem and Ramdas Pophale) SiO2 
 PCOD9327756
Probable space group: F 2 2 2
;
_chemical_formula_sum "Si O2"
_cell_formula_units_Z 64
_cell_length_a 15.451952
_cell_length_b 15.687480
_cell_length_c 12.045763
_cell_angle_alpha 90.000000
_cell_angle_beta 90.000000
_cell_angle_gamma 90.000000
_cell_volume 2919.919307
_symmetry_space_group_name_H-M "F 2 2 2"
_symmetry_group_IT_number 22
_symmetry_cell_setting 'orthorhombic'
loop_
_space_group_symop_operation_xyz
x,y,z
-x,-y,z
x,-y,-z
-x,y,-z
x,1/2+y,1/2+z
-x,1/2-y,1/2+z
x,1/2-y,1/2-z
-x,1/2+y,1/2-z
1/2+x,y,1/2+z
1/2-x,-y,1/2+z
1/2+x,-y,1/2-z
1/2-x,y,1/2-z
1/2+x,1/2+y,z
1/2-x,1/2-y,z
1/2+x,1/2-y,-z
1/2-x,1/2+y,-z
loop_
_atom_site_type_symbol
_atom_site_label
_atom_site_fract_x
_atom_site_fract_y
_atom_site_fract_z
Si Si1 0.372799 0.315790 0.566353
Si Si2 0.096866 0.534676 0.646005
Si Si3 0.453847 0.665607 0.675139
Si Si4 0.177727 0.375077 0.571496
O O1 0.447801 0.356170 0.640905
O O2 0.404975 0.316860 0.439488
O O3 0.279943 0.359901 0.568450
O O4 0.362951 0.283562 0.899928
O O5 0.089986 0.591178 0.755016
O O6 0.154759 0.450697 0.654619
O O7 0.136282 0.591659 0.545245
O O8 0.000000 0.500000 0.621391
O O9 0.453358 0.750000 0.750000
#
# Coordination Sequence:
#
# PCOD9327756 Si02
#       4
#    16  16  16  16
#     4  10  23  43  72 104 145 190 240 301 351 421
#     4  11  23  42  71 102 138 191 238 291 359 428
#     4  11  22  43  72 106 143 191 239 289 363 433
#     4  10  21  43  71 101 143 184 242 297 350 419
#
# _framework density 21.918413999999999
#
# number of rings (size 3 to 8) (size 9 to 14) (size 15 to 20)
#    0.000    1.500    2.500    3.000    3.500    1.000 
#   13.500    8.750    0.000    0.000    0.000    0.000 
#    0.000    0.000    0.000    0.000    0.000    0.000 
#
# Total GULP energy -89543.102532 kJ/mol
# GULP energy per Si atom -5596.443908 kJ/mol
# Density = 2.186853 g / cm^3
# Si number density = 21.918414 Si / 1000 Ang^3
#
#
#
# Elastic Constant Matrix: (Units=GPa)
#
#
# Indices 1 2 3 4 5 6 
#
# 1 114.7018 73.8650 33.8663 0.0000 0.0000 0.0000
# 2 73.8650 116.1682 57.6831 0.0000 0.0000 0.0000
# 3 33.8663 57.6831 105.1154 0.0000 0.0000 0.0000
# 4 0.0000 0.0000 0.0000 35.2827 0.0000 0.0000
# 5 0.0000 0.0000 0.0000 0.0000 3.6315 0.0000
# 6 0.0000 0.0000 0.0000 0.0000 0.0000 34.0609
#
#
#
# Elastic Compliance Matrix: (Units=1/GPa)
#
#
# Indices 1 2 3 4 5 6 
#
# 1 0.014786 -0.009671 0.000544 0.000000 0.000000 0.000000
# 2 -0.009671 0.018158 -0.006849 0.000000 0.000000 0.000000
# 3 0.000544 -0.006849 0.013096 0.000000 0.000000 0.000000
# 4 0.000000 0.000000 0.000000 0.028342 0.000000 0.000000
# 5 0.000000 0.000000 0.000000 0.000000 0.275371 0.000000
# 6 0.000000 0.000000 0.000000 0.000000 0.000000 0.029359
#
#
# Mechanical properties :
#
#
# Convention : Reuss Voigt Hill
#
# Bulk Modulus (GPa) = 70.98370 74.09047 72.53708
# Shear Modulus (GPa) = 12.02609 25.96642 18.99625
#
# Velocity S-wave (km/s) = 2.34492 3.44566 2.94714
# Velocity P-wave (km/s) = 6.30772 7.05027 6.68930
#
# Compressibility (1/GPa) = 0.01408774
#
# Stress axis : x y z
#
# Youngs Moduli (GPa) = 67.63166 55.07071 76.35633
#
# Poissons Ratio (x) = 0.53262 -0.04150
# Poissons Ratio (y) = 0.65410 0.52294
# Poissons Ratio (z) = -0.03676 0.37716
#
# Static dielectric constant tensor:
#      x y z
#    x 1.789280 0.000000 0.000000 
#    y 0.000000 1.779130 0.000000 
#    z 0.000000 0.000000 1.803810 
# 
# From -- ./inp_files/19348.got.cif
#   From: 2010.05.17/outbox.cif.g08.bks.cpg/sg22_10_cif.got.tgz:19348.got - 2010.06.03 23:40:54.
