data_PCOD9327045
_publ_section_title
;
Structure prediction by ZEFSAII (Michael W. Deem and Ramdas Pophale) SiO2 
 PCOD9327045
Probable space group: F 2 2 2
;
_chemical_formula_sum "Si O2"
_cell_formula_units_Z 120
_cell_length_a 23.885995
_cell_length_b 13.559510
_cell_length_c 20.111539
_cell_angle_alpha 90.000000
_cell_angle_beta 90.000000
_cell_angle_gamma 90.000000
_cell_volume 6513.773279
_symmetry_space_group_name_H-M "F 2 2 2"
_symmetry_group_IT_number 22
_symmetry_cell_setting 'orthorhombic'
loop_
_space_group_symop_operation_xyz
x,y,z
-x,-y,z
x,-y,-z
-x,y,-z
x,1/2+y,1/2+z
-x,1/2-y,1/2+z
x,1/2-y,1/2-z
-x,1/2+y,1/2-z
1/2+x,y,1/2+z
1/2-x,-y,1/2+z
1/2+x,-y,1/2-z
1/2-x,y,1/2-z
1/2+x,1/2+y,z
1/2-x,1/2-y,z
1/2+x,1/2-y,-z
1/2-x,1/2+y,-z
loop_
_atom_site_type_symbol
_atom_site_label
_atom_site_fract_x
_atom_site_fract_y
_atom_site_fract_z
Si Si1 0.075492 0.367551 0.758736
Si Si2 0.689461 0.136339 0.636791
Si Si3 0.022492 0.391138 0.903541
Si Si4 0.084449 0.415059 0.445964
Si Si5 0.312806 0.990279 0.239839
Si Si6 0.081528 0.810228 0.531844
Si Si7 0.500000 0.000000 0.660305
Si Si8 0.316877 0.138765 0.119800
O O1 0.074875 0.250000 0.750000
O O2 0.051574 0.386064 0.832582
O O3 0.137790 0.412152 0.751226
O O4 0.036608 0.427163 0.706570
O O5 0.644835 0.086978 0.588550
O O6 0.687421 0.075708 0.704523
O O7 0.675620 0.251177 0.650750
O O8 0.750909 0.133095 0.604025
O O9 0.000000 0.500000 0.915237
O O10 0.966476 0.326297 0.912413
O O11 0.062931 0.360476 0.963586
O O12 0.078098 0.500000 0.500000
O O13 0.081369 0.307116 0.478535
O O14 0.039685 0.435617 0.387888
O O15 0.250000 0.947095 0.250000
O O16 0.324818 0.048981 0.171051
O O17 0.138980 0.856199 0.559811
#
# Coordination Sequence:
#
# PCOD9327045 Si02
#       8
#    16  16  16  16  16  16   8  16
#     4  12  26  42  64  89 124 161 210 258 307 368
#     4   9  18  37  58  91 123 155 204 261 307 361
#     4  11  23  41  59  88 125 162 200 251 304 371
#     4  11  24  38  62  89 122 161 202 254 313 373
#     4  10  20  38  62  89 122 160 207 253 310 362
#     4  10  22  37  61  90 124 159 204 248 307 369
#     4  12  25  44  64  89 124 162 210 252 316 363
#     4   9  18  34  63  90 121 159 202 257 311 359
#
# _framework density 18.422501
#
# number of rings (size 3 to 8) (size 9 to 14) (size 15 to 20)
#    0.000    1.600    2.000    3.000    5.600    1.867 
#    0.000    4.000    0.000    1.600    0.000    0.000 
#    0.000    0.000    0.000    0.000    0.000    0.000 
#
# Total GULP energy -167364.723969 kJ/mol
# GULP energy per Si atom -5578.824132 kJ/mol
# Density = 1.838057 g / cm^3
# Si number density = 18.422501 Si / 1000 Ang^3
#
#
#
# Elastic Constant Matrix: (Units=GPa)
#
#
# Indices 1 2 3 4 5 6 
#
# 1 112.8040 61.2919 60.8428 0.0000 0.0000 0.0000
# 2 61.2919 102.2829 50.4347 0.0000 0.0000 0.0000
# 3 60.8428 50.4347 98.3446 0.0000 0.0000 0.0000
# 4 0.0000 0.0000 0.0000 17.5428 0.0000 0.0000
# 5 0.0000 0.0000 0.0000 0.0000 20.7668 0.0000
# 6 0.0000 0.0000 0.0000 0.0000 0.0000 30.1441
#
#
#
# Elastic Compliance Matrix: (Units=1/GPa)
#
#
# Indices 1 2 3 4 5 6 
#
# 1 0.015794 -0.006219 -0.006582 0.000000 0.000000 0.000000
# 2 -0.006219 0.015535 -0.004119 0.000000 0.000000 0.000000
# 3 -0.006582 -0.004119 0.016353 0.000000 0.000000 0.000000
# 4 0.000000 0.000000 0.000000 0.057004 0.000000 0.000000
# 5 0.000000 0.000000 0.000000 0.000000 0.048154 0.000000
# 6 0.000000 0.000000 0.000000 0.000000 0.000000 0.033174
#
#
# Mechanical properties :
#
#
# Convention : Reuss Voigt Hill
#
# Bulk Modulus (GPa) = 72.24801 73.17450 72.71125
# Shear Modulus (GPa) = 22.27498 23.08154 22.67826
#
# Velocity S-wave (km/s) = 3.48101 3.54347 3.51238
# Velocity P-wave (km/s) = 7.44708 7.51984 7.48355
#
# Compressibility (1/GPa) = 0.01384121
#
# Stress axis : x y z
#
# Youngs Moduli (GPa) = 63.31470 64.37245 61.15101
#
# Poissons Ratio (x) = 0.40033 0.40250
# Poissons Ratio (y) = 0.39375 0.25190
# Poissons Ratio (z) = 0.41674 0.26517
#
# Static dielectric constant tensor:
#      x y z
#    x 1.663370 0.000000 0.000000 
#    y 0.000000 1.678880 0.000000 
#    z 0.000000 0.000000 1.627240 
# 
# From -- ./inp_files/45404.got.cif
#   From: 2010.05.17/outbox.cif.g08.bks.cpg/sg22_23_cif.got.tgz:45404.got - 2010.06.03 23:40:54.
