data_PCOD9327332
_publ_section_title
;
Structure prediction by ZEFSAII (Michael W. Deem and Ramdas Pophale) SiO2 
 PCOD9327332
Probable space group: F 2 2 2
;
_chemical_formula_sum "Si O2"
_cell_formula_units_Z 116
_cell_length_a 8.145259
_cell_length_b 25.961167
_cell_length_c 27.090761
_cell_angle_alpha 90.000000
_cell_angle_beta 90.000000
_cell_angle_gamma 90.000000
_cell_volume 5728.623947
_symmetry_space_group_name_H-M "F 2 2 2"
_symmetry_group_IT_number 22
_symmetry_cell_setting 'orthorhombic'
loop_
_space_group_symop_operation_xyz
x,y,z
-x,-y,z
x,-y,-z
-x,y,-z
x,1/2+y,1/2+z
-x,1/2-y,1/2+z
x,1/2-y,1/2-z
-x,1/2+y,1/2-z
1/2+x,y,1/2+z
1/2-x,-y,1/2+z
1/2+x,-y,1/2-z
1/2-x,y,1/2-z
1/2+x,1/2+y,z
1/2-x,1/2-y,z
1/2+x,1/2-y,-z
1/2-x,1/2+y,-z
loop_
_atom_site_type_symbol
_atom_site_label
_atom_site_fract_x
_atom_site_fract_y
_atom_site_fract_z
Si Si1 0.820083 0.664129 0.014217
Si Si2 0.010918 0.281336 0.666207
Si Si3 0.717953 0.628662 0.193065
Si Si4 0.689173 0.055004 0.519824
Si Si5 0.970239 0.059922 0.879570
Si Si6 0.940890 0.329157 0.881293
Si Si7 0.750000 0.750000 0.750000
Si Si8 0.192369 0.847525 0.083908
O O1 0.805380 0.602313 0.007181
O O2 0.811004 0.675760 0.072745
O O3 0.687597 0.677203 0.971623
O O4 0.000000 0.684247 0.000000
O O5 0.133462 0.280714 0.712739
O O6 0.098403 0.310047 0.621003
O O7 0.857304 0.314599 0.683938
O O8 0.969341 0.224704 0.646650
O O9 0.750000 0.619469 0.250000
O O10 0.590908 0.589080 0.168815
O O11 0.877908 0.630050 0.158704
O O12 0.500000 0.061412 0.500000
O O13 0.669085 0.057400 0.578425
O O14 0.745134 0.000000 0.500000
O O15 0.112118 0.096248 0.904550
O O16 0.000000 0.000000 0.869371
O O17 0.115161 0.347258 0.902937
#
# Coordination Sequence:
#
# PCOD9327332 Si02
#       8
#    16  16  16  16  16  16   4  16
#     4  10  21  35  57  86 130 165 192 253 311 382
#     4  11  23  39  65  91 119 167 214 269 307 385
#     4  11  25  42  64  90 124 164 209 272 320 369
#     4  11  18  33  62  90 117 157 207 251 303 372
#     4  11  21  40  65  93 124 165 212 264 311 384
#     4  11  21  41  60  91 130 161 209 254 323 374
#     4  12  20  40  70  84 120 152 230 264 302 360
#     4  10  21  39  61  90 130 165 208 250 317 387
#
# _framework density 20.249191
#
# number of rings (size 3 to 8) (size 9 to 14) (size 15 to 20)
#    0.000    1.241    5.517    1.241    0.000    0.828 
#    0.000   10.345    0.000    0.000    0.000    0.000 
#    0.000    0.000    0.000    0.000    0.000    0.000 
#
# Total GULP energy -161680.794365 kJ/mol
# GULP energy per Si atom -5575.199806 kJ/mol
# Density = 2.020310 g / cm^3
# Si number density = 20.249191 Si / 1000 Ang^3
#
#
#
# Elastic Constant Matrix: (Units=GPa)
#
#
# Indices 1 2 3 4 5 6 
#
# 1 52.4554 14.6770 32.5138 0.0000 0.0000 0.0000
# 2 14.6770 78.7482 23.9642 0.0000 0.0000 0.0000
# 3 32.5138 23.9642 162.7045 0.0000 0.0000 0.0000
# 4 0.0000 0.0000 0.0000 14.4657 0.0000 0.0000
# 5 0.0000 0.0000 0.0000 0.0000 32.1010 0.0000
# 6 0.0000 0.0000 0.0000 0.0000 0.0000 8.2150
#
#
#
# Elastic Compliance Matrix: (Units=1/GPa)
#
#
# Indices 1 2 3 4 5 6 
#
# 1 0.022392 -0.002944 -0.004041 0.000000 0.000000 0.000000
# 2 -0.002944 0.013682 -0.001427 0.000000 0.000000 0.000000
# 3 -0.004041 -0.001427 0.007164 0.000000 0.000000 0.000000
# 4 0.000000 0.000000 0.000000 0.069129 0.000000 0.000000
# 5 0.000000 0.000000 0.000000 0.000000 0.031152 0.000000
# 6 0.000000 0.000000 0.000000 0.000000 0.000000 0.121728
#
#
# Mechanical properties :
#
#
# Convention : Reuss Voigt Hill
#
# Bulk Modulus (GPa) = 37.85828 48.46867 43.16348
# Shear Modulus (GPa) = 17.18953 25.80656 21.49804
#
# Velocity S-wave (km/s) = 2.91675 3.57382 3.26187
# Velocity P-wave (km/s) = 5.48453 6.40450 5.96228
#
# Compressibility (1/GPa) = 0.02641430
#
# Stress axis : x y z
#
# Youngs Moduli (GPa) = 44.65819 73.09115 139.59008
#
# Poissons Ratio (x) = 0.21515 0.56411
# Poissons Ratio (y) = 0.13146 0.19918
# Poissons Ratio (z) = 0.18047 0.10429
#
# Static dielectric constant tensor:
#      x y z
#    x 1.807390 0.000000 0.000000 
#    y 0.000000 1.736250 0.000000 
#    z 0.000000 0.000000 1.766910 
# 
# From -- ./inp_files/52120.got.cif
#   From: 2010.05.17/outbox.cif.g08.bks.cpg/sg22_27_cif.got.tgz:52120.got - 2010.06.03 23:40:54.
