data_PCOD9327568
_publ_section_title
;
Structure prediction by ZEFSAII (Michael W. Deem and Ramdas Pophale) SiO2 
 PCOD9327568
Probable space group: F 2 2 2
;
_chemical_formula_sum "Si O2"
_cell_formula_units_Z 92
_cell_length_a 7.558887
_cell_length_b 30.477792
_cell_length_c 22.359549
_cell_angle_alpha 90.000000
_cell_angle_beta 90.000000
_cell_angle_gamma 90.000000
_cell_volume 5151.152333
_symmetry_space_group_name_H-M "F 2 2 2"
_symmetry_group_IT_number 22
_symmetry_cell_setting 'orthorhombic'
loop_
_space_group_symop_operation_xyz
x,y,z
-x,-y,z
x,-y,-z
-x,y,-z
x,1/2+y,1/2+z
-x,1/2-y,1/2+z
x,1/2-y,1/2-z
-x,1/2+y,1/2-z
1/2+x,y,1/2+z
1/2-x,-y,1/2+z
1/2+x,-y,1/2-z
1/2-x,y,1/2-z
1/2+x,1/2+y,z
1/2-x,1/2-y,z
1/2+x,1/2-y,-z
1/2-x,1/2+y,-z
loop_
_atom_site_type_symbol
_atom_site_label
_atom_site_fract_x
_atom_site_fract_y
_atom_site_fract_z
Si Si1 0.543956 0.258994 0.431032
Si Si2 0.090097 0.174192 0.121139
Si Si3 0.467069 0.198736 0.253423
Si Si4 0.988882 0.848460 0.367492
Si Si5 0.356107 0.414538 0.546475
Si Si6 0.000000 0.500000 0.000000
Si Si7 0.000000 0.624773 0.500000
O O1 0.500000 0.252042 0.500000
O O2 0.750000 0.250000 0.419347
O O3 0.418950 0.226345 0.393345
O O4 0.519182 0.309124 0.413942
O O5 0.988107 0.174674 0.184255
O O6 0.274995 0.149088 0.131955
O O7 0.019727 0.153883 0.059668
O O8 0.523178 0.250000 0.250000
O O9 0.250000 0.199530 0.250000
O O10 0.536235 0.171228 0.197194
O O11 0.095620 0.890526 0.391458
O O12 0.500000 0.395311 0.500000
O O13 0.390228 0.466648 0.541911
O O14 0.169332 0.403823 0.517146
#
# Coordination Sequence:
#
# PCOD9327568 Si02
#       7
#    16  16  16  16  16   4   8
#     4  12  23  31  44  71 106 152 195 237 283 327
#     4  11  20  34  51  79 110 152 200 234 281 329
#     4   9  18  33  51  73 108 159 204 240 277 324
#     4  11  20  36  55  75 110 154 197 239 280 342
#     4  10  21  40  60  88 116 141 183 231 298 352
#     4   8  20  42  62  92 118 136 178 236 304 360
#     4  12  22  37  59  88 116 146 185 237 282 352
#
# _framework density 17.86008
#
# number of rings (size 3 to 8) (size 9 to 14) (size 15 to 20)
#    0.522    0.870    4.348    3.130    0.000    0.348 
#    0.000    4.348    0.000    0.000    0.000   12.174 
#    0.000    0.000    0.000    0.000    0.000    0.000 
#
# Total GULP energy -128101.742588 kJ/mol
# GULP energy per Si atom -5569.640982 kJ/mol
# Density = 1.781943 g / cm^3
# Si number density = 17.860080 Si / 1000 Ang^3
#
#
#
# Elastic Constant Matrix: (Units=GPa)
#
#
# Indices 1 2 3 4 5 6 
#
# 1 82.1328 35.0855 20.5886 0.0000 0.0000 0.0000
# 2 35.0855 112.4348 44.0613 0.0000 0.0000 0.0000
# 3 20.5886 44.0613 125.0340 0.0000 0.0000 0.0000
# 4 0.0000 0.0000 0.0000 15.4308 0.0000 0.0000
# 5 0.0000 0.0000 0.0000 0.0000 10.7402 0.0000
# 6 0.0000 0.0000 0.0000 0.0000 0.0000 32.7922
#
#
#
# Elastic Compliance Matrix: (Units=1/GPa)
#
#
# Indices 1 2 3 4 5 6 
#
# 1 0.014134 -0.004059 -0.000897 0.000000 0.000000 0.000000
# 2 -0.004059 0.011485 -0.003379 0.000000 0.000000 0.000000
# 3 -0.000897 -0.003379 0.009336 0.000000 0.000000 0.000000
# 4 0.000000 0.000000 0.000000 0.064805 0.000000 0.000000
# 5 0.000000 0.000000 0.000000 0.000000 0.093108 0.000000
# 6 0.000000 0.000000 0.000000 0.000000 0.000000 0.030495
#
#
# Mechanical properties :
#
#
# Convention : Reuss Voigt Hill
#
# Bulk Modulus (GPa) = 54.68828 57.67469 56.18149
# Shear Modulus (GPa) = 20.31457 26.45040 23.38248
#
# Velocity S-wave (km/s) = 3.37624 3.85252 3.62222
# Velocity P-wave (km/s) = 6.77389 7.22163 7.00134
#
# Compressibility (1/GPa) = 0.01828545
#
# Stress axis : x y z
#
# Youngs Moduli (GPa) = 70.75025 87.07179 107.11009
#
# Poissons Ratio (x) = 0.35343 0.09608
# Poissons Ratio (y) = 0.28718 0.36190
# Poissons Ratio (z) = 0.06346 0.29420
#
# Static dielectric constant tensor:
#      x y z
#    x 1.715690 0.000000 0.000000 
#    y 0.000000 1.592940 0.000000 
#    z 0.000000 0.000000 1.645320 
# 
# From -- ./inp_files/41987.got.cif
#   From: 2010.05.17/outbox.cif.g08.bks.cpg/sg22_21_cif.got.tgz:41987.got - 2010.06.03 23:40:54.
