data_PCOD9327363
_publ_section_title
;
Structure prediction by ZEFSAII (Michael W. Deem and Ramdas Pophale) SiO2 
 PCOD9327363
Probable space group: F 2 2 2
;
_chemical_formula_sum "Si O2"
_cell_formula_units_Z 72
_cell_length_a 10.275593
_cell_length_b 22.052778
_cell_length_c 16.363427
_cell_angle_alpha 90.000000
_cell_angle_beta 90.000000
_cell_angle_gamma 90.000000
_cell_volume 3708.040450
_symmetry_space_group_name_H-M "F 2 2 2"
_symmetry_group_IT_number 22
_symmetry_cell_setting 'orthorhombic'
loop_
_space_group_symop_operation_xyz
x,y,z
-x,-y,z
x,-y,-z
-x,y,-z
x,1/2+y,1/2+z
-x,1/2-y,1/2+z
x,1/2-y,1/2-z
-x,1/2+y,1/2-z
1/2+x,y,1/2+z
1/2-x,-y,1/2+z
1/2+x,-y,1/2-z
1/2-x,y,1/2-z
1/2+x,1/2+y,z
1/2-x,1/2-y,z
1/2+x,1/2-y,-z
1/2-x,1/2+y,-z
loop_
_atom_site_type_symbol
_atom_site_label
_atom_site_fract_x
_atom_site_fract_y
_atom_site_fract_z
Si Si1 0.101302 0.607329 0.074426
Si Si2 0.601086 0.179017 0.232706
Si Si3 0.371820 0.100046 0.295087
Si Si4 0.000000 0.000000 0.314400
Si Si5 0.148975 0.571625 0.517965
O O1 0.076744 0.661313 0.138336
O O2 0.076970 0.546574 0.127775
O O3 0.245225 0.605914 0.036714
O O4 0.000000 0.607864 0.000000
O O5 0.588680 0.250000 0.250000
O O6 0.750000 0.160135 0.250000
O O7 0.499427 0.141516 0.287287
O O8 0.250000 0.130479 0.250000
O O9 0.331586 0.084243 0.386527
O O10 0.407505 0.039576 0.243955
O O11 0.163907 0.500000 0.500000
O O12 0.000000 0.588407 0.500000
#
# Coordination Sequence:
#
# PCOD9327363 Si02
#       5
#    16  16  16   8  16
#     4  11  21  38  61  86 117 156 196 240 290 355
#     4  10  23  44  63  81 111 157 203 246 302 364
#     4  11  22  37  60  90 119 154 195 239 289 346
#     4  10  21  36  59  88 126 162 188 220 289 372
#     4  11  21  33  53  89 124 148 182 235 290 343
#
# _framework density 19.417265
#
# number of rings (size 3 to 8) (size 9 to 14) (size 15 to 20)
#    0.000    1.333    0.000    8.333    0.000    5.778 
#    0.000    5.556    0.000    0.000    0.000    0.000 
#    0.000    0.000    0.000    0.000    0.000    0.000 
#
# Total GULP energy -100620.871797 kJ/mol
# GULP energy per Si atom -5590.048433 kJ/mol
# Density = 1.937307 g / cm^3
# Si number density = 19.417265 Si / 1000 Ang^3
#
#
#
# Elastic Constant Matrix: (Units=GPa)
#
#
# Indices 1 2 3 4 5 6 
#
# 1 67.3644 37.1850 8.5183 0.0000 0.0000 0.0000
# 2 37.1850 80.3915 45.0682 0.0000 0.0000 0.0000
# 3 8.5183 45.0682 124.8295 0.0000 0.0000 0.0000
# 4 0.0000 0.0000 0.0000 7.1975 0.0000 0.0000
# 5 0.0000 0.0000 0.0000 0.0000 38.2671 0.0000
# 6 0.0000 0.0000 0.0000 0.0000 0.0000 14.8941
#
#
#
# Elastic Compliance Matrix: (Units=1/GPa)
#
#
# Indices 1 2 3 4 5 6 
#
# 1 0.020560 -0.010937 0.002546 0.000000 0.000000 0.000000
# 2 -0.010937 0.021414 -0.006985 0.000000 0.000000 0.000000
# 3 0.002546 -0.006985 0.010359 0.000000 0.000000 0.000000
# 4 0.000000 0.000000 0.000000 0.138937 0.000000 0.000000
# 5 0.000000 0.000000 0.000000 0.000000 0.026132 0.000000
# 6 0.000000 0.000000 0.000000 0.000000 0.000000 0.067141
#
#
# Mechanical properties :
#
#
# Convention : Reuss Voigt Hill
#
# Bulk Modulus (GPa) = 46.33859 50.45869 48.39864
# Shear Modulus (GPa) = 15.50442 24.19268 19.84855
#
# Velocity S-wave (km/s) = 2.82882 3.53361 3.20067
# Velocity P-wave (km/s) = 5.88099 6.53387 6.21601
#
# Compressibility (1/GPa) = 0.02158028
#
# Stress axis : x y z
#
# Youngs Moduli (GPa) = 48.63804 46.69862 96.53428
#
# Poissons Ratio (x) = 0.51075 -0.24575
# Poissons Ratio (y) = 0.53196 0.67428
# Poissons Ratio (z) = -0.12382 0.32618
#
# Static dielectric constant tensor:
#      x y z
#    x 1.710680 0.000000 0.000000 
#    y 0.000000 1.663780 0.000000 
#    z 0.000000 0.000000 1.680170 
# 
# From -- ./inp_files/11420.got.cif
#   From: 2010.05.17/outbox.cif.g08.bks.cpg/sg22_6_cif.got.tgz:11420.got - 2010.06.03 23:40:54.
