data_PCOD9327201
_publ_section_title
;
Structure prediction by ZEFSAII (Michael W. Deem and Ramdas Pophale) SiO2 
 PCOD9327201
Probable space group: F 2 2 2
;
_chemical_formula_sum "Si O2"
_cell_formula_units_Z 64
_cell_length_a 5.329948
_cell_length_b 19.279090
_cell_length_c 33.528337
_cell_angle_alpha 90.000000
_cell_angle_beta 90.000000
_cell_angle_gamma 90.000000
_cell_volume 3445.256143
_symmetry_space_group_name_H-M "F 2 2 2"
_symmetry_group_IT_number 22
_symmetry_cell_setting 'orthorhombic'
loop_
_space_group_symop_operation_xyz
x,y,z
-x,-y,z
x,-y,-z
-x,y,-z
x,1/2+y,1/2+z
-x,1/2-y,1/2+z
x,1/2-y,1/2-z
-x,1/2+y,1/2-z
1/2+x,y,1/2+z
1/2-x,-y,1/2+z
1/2+x,-y,1/2-z
1/2-x,y,1/2-z
1/2+x,1/2+y,z
1/2-x,1/2-y,z
1/2+x,1/2-y,-z
1/2-x,1/2+y,-z
loop_
_atom_site_type_symbol
_atom_site_label
_atom_site_fract_x
_atom_site_fract_y
_atom_site_fract_z
Si Si1 0.000000 0.500000 0.105806
Si Si2 0.500000 0.000000 0.500000
Si Si3 0.750000 0.250000 0.472774
Si Si4 0.862060 0.896501 0.542415
Si Si5 0.991073 0.386402 0.274213
Si Si6 0.750000 0.250000 0.250000
Si Si7 0.500000 0.000000 0.341697
O O1 0.982329 0.566723 0.076769
O O2 0.249556 0.505056 0.131980
O O3 0.350628 0.049725 0.529733
O O4 0.500000 0.241180 0.500000
O O5 0.773461 0.180188 0.447335
O O6 0.000000 0.888696 0.500000
O O7 0.250000 0.392041 0.250000
O O8 0.014354 0.431410 0.313963
O O9 0.750000 0.416434 0.250000
O O10 0.916211 0.304249 0.275987
#
# Coordination Sequence:
#
# PCOD9327201 Si02
#       7
#     8   4   8  16  16   4   8
#     4  12  25  39  60  94 128 172 203 263 322 369
#     4  12  16  36  64  90 114 148 220 288 288 358
#     4  10  22  36  61  88 114 144 205 280 313 352
#     4  11  22  38  63  88 116 165 224 262 306 368
#     4  10  20  40  68  97 120 162 207 254 295 371
#     4   8  22  36  76  96 122 154 222 248 298 356
#     4  12  25  39  63  96 135 160 205 258 317 375
#
# _framework density 18.576267000000001
#
# number of rings (size 3 to 8) (size 9 to 14) (size 15 to 20)
#    0.750    0.500    3.750    3.375    0.000    0.000 
#    0.000    1.250    0.000    0.000    0.000    0.000 
#    0.000    0.000    0.000    0.000    0.000    0.000 
#
# Total GULP energy -89149.074767 kJ/mol
# GULP energy per Si atom -5571.817173 kJ/mol
# Density = 1.853399 g / cm^3
# Si number density = 18.576267 Si / 1000 Ang^3
#
#
#
# Elastic Constant Matrix: (Units=GPa)
#
#
# Indices 1 2 3 4 5 6 
#
# 1 120.5731 34.0850 45.1391 0.0000 0.0000 0.0000
# 2 34.0850 171.3404 55.6768 0.0000 0.0000 0.0000
# 3 45.1391 55.6768 92.2789 0.0000 0.0000 0.0000
# 4 0.0000 0.0000 0.0000 49.1274 0.0000 0.0000
# 5 0.0000 0.0000 0.0000 0.0000 33.7819 0.0000
# 6 0.0000 0.0000 0.0000 0.0000 0.0000 11.2769
#
#
#
# Elastic Compliance Matrix: (Units=1/GPa)
#
#
# Indices 1 2 3 4 5 6 
#
# 1 0.010188 -0.000507 -0.004678 0.000000 0.000000 0.000000
# 2 -0.000507 0.007285 -0.004148 0.000000 0.000000 0.000000
# 3 -0.004678 -0.004148 0.015627 0.000000 0.000000 0.000000
# 4 0.000000 0.000000 0.000000 0.020355 0.000000 0.000000
# 5 0.000000 0.000000 0.000000 0.000000 0.029602 0.000000
# 6 0.000000 0.000000 0.000000 0.000000 0.000000 0.088677
#
#
# Mechanical properties :
#
#
# Convention : Reuss Voigt Hill
#
# Bulk Modulus (GPa) = 69.27025 72.66603 70.96814
# Shear Modulus (GPa) = 25.61332 35.45667 30.53500
#
# Velocity S-wave (km/s) = 3.71727 4.37362 4.05873
# Velocity P-wave (km/s) = 7.46959 8.04408 7.76215
#
# Compressibility (1/GPa) = 0.01443621
#
# Stress axis : x y z
#
# Youngs Moduli (GPa) = 98.15225 137.27113 63.99012
#
# Poissons Ratio (x) = 0.06955 0.29935
# Poissons Ratio (y) = 0.04973 0.26540
# Poissons Ratio (z) = 0.45916 0.56933
#
# Static dielectric constant tensor:
#      x y z
#    x 1.346560 0.000000 0.000000 
#    y 0.000000 1.715190 0.000000 
#    z 0.000000 0.000000 1.710500 
# 
# From -- ./inp_files/51101.got.cif
#   From: 2010.05.17/outbox.cif.g08.bks.cpg/sg22_26_cif.got.tgz:51101.got - 2010.06.03 23:40:54.
