data_PCOD9327007
_publ_section_title
;
Structure prediction by ZEFSAII (Michael W. Deem and Ramdas Pophale) SiO2 
 PCOD9327007
Probable space group: F 2 2 2
;
_chemical_formula_sum "Si O2"
_cell_formula_units_Z 88
_cell_length_a 22.427589
_cell_length_b 5.382061
_cell_length_c 34.362520
_cell_angle_alpha 90.000000
_cell_angle_beta 90.000000
_cell_angle_gamma 90.000000
_cell_volume 4147.784746
_symmetry_space_group_name_H-M "F 2 2 2"
_symmetry_group_IT_number 22
_symmetry_cell_setting 'orthorhombic'
loop_
_space_group_symop_operation_xyz
x,y,z
-x,-y,z
x,-y,-z
-x,y,-z
x,1/2+y,1/2+z
-x,1/2-y,1/2+z
x,1/2-y,1/2-z
-x,1/2+y,1/2-z
1/2+x,y,1/2+z
1/2-x,-y,1/2+z
1/2+x,-y,1/2-z
1/2-x,y,1/2-z
1/2+x,1/2+y,z
1/2-x,1/2-y,z
1/2+x,1/2-y,-z
1/2-x,1/2+y,-z
loop_
_atom_site_type_symbol
_atom_site_label
_atom_site_fract_x
_atom_site_fract_y
_atom_site_fract_z
Si Si1 0.181803 0.881780 0.291497
Si Si2 0.413672 0.247291 0.853088
Si Si3 0.500000 0.000000 0.698645
Si Si4 0.321523 0.250379 0.475833
Si Si5 0.870946 0.757601 0.110509
Si Si6 0.250000 0.250000 0.338407
Si Si7 0.097687 0.750000 0.750000
O O1 0.188444 0.750000 0.250000
O O2 0.142168 0.740010 0.323054
O O3 0.239618 0.010477 0.310696
O O4 0.139246 0.114402 0.280670
O O5 0.473903 0.282525 0.828399
O O6 0.406180 0.490724 0.879682
O O7 0.405660 0.989091 0.875571
O O8 0.554206 0.072468 0.726255
O O9 0.335136 0.500000 0.500000
O O10 0.250000 0.250000 0.468542
O O11 0.354613 0.253892 0.434734
O O12 0.335222 0.000000 0.500000
O O13 0.808365 0.763106 0.134556
#
# Coordination Sequence:
#
# PCOD9327007 Si02
#       7
#    16  16   8  16  16   8   8
#     4  11  24  45  56  89 120 175 233 279 320 405
#     4  11  25  41  64  89 130 162 230 267 344 380
#     4  12  22  42  68  92 113 178 214 310 349 376
#     4  10  20  37  66  99 131 171 211 245 305 389
#     4  11  23  44  60  99 132 173 204 268 312 407
#     4  10  24  41  60  80 132 176 212 262 332 372
#     4  12  24  43  62  84 122 155 234 306 338 380
#
# _framework density 21.216145999999998
#
# number of rings (size 3 to 8) (size 9 to 14) (size 15 to 20)
#    0.000    1.091    2.727    4.364    0.000    5.455 
#    3.273    0.000    0.000    0.000    0.000    9.545 
#    0.000    0.000    0.000    0.000    0.000    0.000 
#
# Total GULP energy -123150.913537 kJ/mol
# GULP energy per Si atom -5597.768797 kJ/mol
# Density = 2.116786 g / cm^3
# Si number density = 21.216146 Si / 1000 Ang^3
#
#
#
# Elastic Constant Matrix: (Units=GPa)
#
#
# Indices 1 2 3 4 5 6 
#
# 1 43.5064 14.0252 12.4356 -0.0002 0.0063 -0.0021
# 2 14.0252 142.0657 58.3518 -0.0006 0.0142 -0.0091
# 3 12.4356 58.3518 142.8726 -0.0001 0.0048 -0.0011
# 4 -0.0002 -0.0006 -0.0001 29.3447 0.0008 0.0001
# 5 0.0063 0.0142 0.0048 0.0008 -36.2567 0.0049
# 6 -0.0021 -0.0091 -0.0011 0.0001 0.0049 30.5930
#
#
#
# Elastic Compliance Matrix: (Units=1/GPa)
#
#
# Indices 1 2 3 4 5 6 
#
# 1 0.023954 -0.001812 -0.001345 0.000000 0.000003 0.000001
# 2 -0.001812 0.008595 -0.003353 0.000000 0.000003 0.000002
# 3 -0.001345 -0.003353 0.008486 0.000000 0.000000 -0.000001
# 4 0.000000 0.000000 0.000000 0.034078 0.000001 0.000000
# 5 0.000003 0.000003 0.000000 0.000001 -0.027581 0.000004
# 6 0.000001 0.000002 -0.000001 0.000000 0.000004 0.032687
#
#
# Mechanical properties :
#
#
# Convention : Reuss Voigt Hill
#
# Bulk Modulus (GPa) = 35.69546 55.34111 45.51828
# Shear Modulus (GPa) = 48.74442 20.97834 34.86138
#
# Velocity S-wave (km/s) = 4.79844 3.14792 4.05798
# Velocity P-wave (km/s) = 6.89647 6.27324 6.59222
#
# Compressibility (1/GPa) = 0.02801477
#
# Stress axis : x y z
#
# Youngs Moduli (GPa) = 41.74710 116.34715 117.84752
#
# Poissons Ratio (x) = 0.21088 0.15847
# Poissons Ratio (y) = 0.07567 0.39509
# Poissons Ratio (z) = 0.05614 0.39006
#
# Static dielectric constant tensor:
#      x y z
#    x 1.762300 0.000000 0.000000 
#    y 0.000000 1.854870 0.000000 
#    z 0.000000 0.000000 1.730950 
# 
# From -- ./inp_files/6456.got.cif
#   From: 2010.05.17/outbox.cif.g08.bks.cpg/sg22_4_cif.got.tgz:6456.got - 2010.06.03 23:40:54.
