data_PCOD9327431
_publ_section_title
;
Structure prediction by ZEFSAII (Michael W. Deem and Ramdas Pophale) SiO2 
 PCOD9327431
Probable space group: F 2 2 2
;
_chemical_formula_sum "Si O2"
_cell_formula_units_Z 64
_cell_length_a 21.447129
_cell_length_b 14.341315
_cell_length_c 8.268331
_cell_angle_alpha 90.000000
_cell_angle_beta 90.000000
_cell_angle_gamma 90.000000
_cell_volume 2543.173520
_symmetry_space_group_name_H-M "F 2 2 2"
_symmetry_group_IT_number 22
_symmetry_cell_setting 'orthorhombic'
loop_
_space_group_symop_operation_xyz
x,y,z
-x,-y,z
x,-y,-z
-x,y,-z
x,1/2+y,1/2+z
-x,1/2-y,1/2+z
x,1/2-y,1/2-z
-x,1/2+y,1/2-z
1/2+x,y,1/2+z
1/2-x,-y,1/2+z
1/2+x,-y,1/2-z
1/2-x,y,1/2-z
1/2+x,1/2+y,z
1/2-x,1/2-y,z
1/2+x,1/2-y,-z
1/2-x,1/2+y,-z
loop_
_atom_site_type_symbol
_atom_site_label
_atom_site_fract_x
_atom_site_fract_y
_atom_site_fract_z
Si Si1 0.750000 0.250000 0.501040
Si Si2 0.378196 0.480018 0.755089
Si Si3 0.570600 0.370804 0.552622
Si Si4 0.113109 0.200718 0.910688
Si Si5 0.250000 0.915169 0.750000
O O1 0.812480 0.282003 0.412047
O O2 0.765877 0.158259 0.607724
O O3 0.417785 0.571195 0.713970
O O4 0.386297 0.417305 0.590164
O O5 0.397607 0.408641 0.894706
O O6 0.308795 0.518660 0.780732
O O7 0.500000 0.384286 0.500000
O O8 0.586543 0.261865 0.555883
O O9 0.085598 0.250000 0.750000
#
# Coordination Sequence:
#
# PCOD9327431 Si02
#       5
#     8  16  16  16   8
#     4  11  23  42  58  96 147 179 224 290 354 413
#     4  10  21  37  64  98 125 183 227 280 341 404
#     4  10  21  43  67  97 142 183 237 280 337 424
#     4  10  22  38  64  97 130 178 230 281 348 405
#     4  11  24  38  63  96 144 180 227 292 346 419
#
# _framework density 25.165407999999999
#
# number of rings (size 3 to 8) (size 9 to 14) (size 15 to 20)
#    0.000    1.750    2.500    1.875    7.000    1.000 
#    0.000   10.000    0.000    0.000    0.000    0.000 
#    0.000    0.000    0.000    0.000    0.000    0.000 
#
# Total GULP energy -89455.851519 kJ/mol
# GULP energy per Si atom -5590.990720 kJ/mol
# Density = 2.510813 g / cm^3
# Si number density = 25.165408 Si / 1000 Ang^3
#
#
#
# Elastic Constant Matrix: (Units=GPa)
#
#
# Indices 1 2 3 4 5 6 
#
# 1 93.1864 51.3514 11.5143 0.0000 0.0000 0.0000
# 2 51.3514 250.5738 64.8761 0.0000 0.0000 0.0000
# 3 11.5143 64.8761 76.1940 0.0000 0.0000 0.0000
# 4 0.0000 0.0000 0.0000 43.6088 0.0000 0.0000
# 5 0.0000 0.0000 0.0000 0.0000 -5.5848 0.0000
# 6 0.0000 0.0000 0.0000 0.0000 0.0000 14.0057
#
#
#
# Elastic Compliance Matrix: (Units=1/GPa)
#
#
# Indices 1 2 3 4 5 6 
#
# 1 0.012105 -0.002575 0.000363 0.000000 0.000000 0.000000
# 2 -0.002575 0.005667 -0.004436 0.000000 0.000000 0.000000
# 3 0.000363 -0.004436 0.016847 0.000000 0.000000 0.000000
# 4 0.000000 0.000000 0.000000 0.022931 0.000000 0.000000
# 5 0.000000 0.000000 0.000000 0.000000 -0.179057 0.000000
# 6 0.000000 0.000000 0.000000 0.000000 0.000000 0.071400
#
#
# Mechanical properties :
#
#
# Convention : Reuss Voigt Hill
#
# Bulk Modulus (GPa) = 46.89747 75.04863 60.97305
# Shear Modulus (GPa) = -168.33166 29.88676 -69.22245
#
# Velocity S-wave (km/s) = -8.18751 3.44991 -5.25040
# Velocity P-wave (km/s) = 8.40858 6.76433 3.53187
#
# Compressibility (1/GPa) = 0.02132311
#
# Stress axis : x y z
#
# Youngs Moduli (GPa) = 82.60928 176.45789 59.35852
#
# Poissons Ratio (x) = 0.45434 -0.02155
# Poissons Ratio (y) = 0.21270 0.26333
# Poissons Ratio (z) = -0.02999 0.78280
#
# Static dielectric constant tensor:
#      x y z
#    x 1.911180 0.000000 0.000000 
#    y 0.000000 2.020760 0.000000 
#    z 0.000000 0.000000 2.092960 
# 
# From -- ./inp_files/13451.got.cif
#   From: 2010.05.17/outbox.cif.g08.bks.cpg/sg22_7_cif.got.tgz:13451.got - 2010.06.03 23:40:54.
