data_PCOD9327535
_publ_section_title
;
Structure prediction by ZEFSAII (Michael W. Deem and Ramdas Pophale) SiO2 
 PCOD9327535
Probable space group: F 2 2 2
;
_chemical_formula_sum "Si O2"
_cell_formula_units_Z 56
_cell_length_a 16.294334
_cell_length_b 4.967729
_cell_length_c 30.535398
_cell_angle_alpha 90.000000
_cell_angle_beta 90.000000
_cell_angle_gamma 90.000000
_cell_volume 2471.713305
_symmetry_space_group_name_H-M "F 2 2 2"
_symmetry_group_IT_number 22
_symmetry_cell_setting 'orthorhombic'
loop_
_space_group_symop_operation_xyz
x,y,z
-x,-y,z
x,-y,-z
-x,y,-z
x,1/2+y,1/2+z
-x,1/2-y,1/2+z
x,1/2-y,1/2-z
-x,1/2+y,1/2-z
1/2+x,y,1/2+z
1/2-x,-y,1/2+z
1/2+x,-y,1/2-z
1/2-x,y,1/2-z
1/2+x,1/2+y,z
1/2-x,1/2-y,z
1/2+x,1/2-y,-z
1/2-x,1/2+y,-z
loop_
_atom_site_type_symbol
_atom_site_label
_atom_site_fract_x
_atom_site_fract_y
_atom_site_fract_z
Si Si1 0.413106 0.863594 0.915233
Si Si2 0.595440 0.500355 0.218284
Si Si3 0.693643 0.000000 0.000000
Si Si4 0.342396 0.661992 0.128529
O O1 0.391478 0.555381 0.901824
O O2 0.500000 0.000000 0.926851
O O3 0.387980 0.052060 0.874249
O O4 0.358647 0.920544 0.957818
O O5 0.500000 0.500000 0.202208
O O6 0.604929 0.250000 0.250000
O O7 0.653243 0.465751 0.176537
O O8 0.609758 0.750000 0.250000
O O9 0.750000 0.250000 0.012049
O O10 0.250000 0.750000 0.116131
#
# Coordination Sequence:
#
# PCOD9327535 Si02
#       4
#    16  16   8  16
#     4  12  25  44  69  98 133 178 229 278 339 416
#     4  10  21  39  64  93 127 171 224 280 340 409
#     4  12  25  44  69  98 136 172 216 278 345 406
#     4  12  25  43  67  98 136 177 226 286 349 407
#
# _framework density 22.656351000000001
#
# number of rings (size 3 to 8) (size 9 to 14) (size 15 to 20)
#    0.000    0.571    0.000    9.857    0.000    2.857 
#    0.000    5.714    0.000    0.000    0.000    0.000 
#    0.000    0.000    0.000    0.000    0.000    0.000 
#
# Total GULP energy -78206.047105 kJ/mol
# GULP energy per Si atom -5586.146222 kJ/mol
# Density = 2.260478 g / cm^3
# Si number density = 22.656351 Si / 1000 Ang^3
#
#
#
# Elastic Constant Matrix: (Units=GPa)
#
#
# Indices 1 2 3 4 5 6 
#
# 1 90.8058 24.3861 25.6987 0.0000 0.0000 0.0000
# 2 24.3861 148.6484 14.4904 0.0000 0.0000 0.0000
# 3 25.6987 14.4904 87.6304 0.0000 0.0000 0.0000
# 4 0.0000 0.0000 0.0000 105.2254 0.0000 0.0000
# 5 0.0000 0.0000 0.0000 0.0000 28.3096 0.0000
# 6 0.0000 0.0000 0.0000 0.0000 0.0000 31.6109
#
#
#
# Elastic Compliance Matrix: (Units=1/GPa)
#
#
# Indices 1 2 3 4 5 6 
#
# 1 0.012423 -0.001710 -0.003360 0.000000 0.000000 0.000000
# 2 -0.001710 0.007073 -0.000668 0.000000 0.000000 0.000000
# 3 -0.003360 -0.000668 0.012507 0.000000 0.000000 0.000000
# 4 0.000000 0.000000 0.000000 0.009503 0.000000 0.000000
# 5 0.000000 0.000000 0.000000 0.000000 0.035324 0.000000
# 6 0.000000 0.000000 0.000000 0.000000 0.000000 0.031635
#
#
# Mechanical properties :
#
#
# Convention : Reuss Voigt Hill
#
# Bulk Modulus (GPa) = 48.71900 50.69279 49.70590
# Shear Modulus (GPa) = 39.43700 50.52979 44.98339
#
# Velocity S-wave (km/s) = 4.17665 4.72770 4.46069
# Velocity P-wave (km/s) = 6.69398 7.22667 6.96542
#
# Compressibility (1/GPa) = 0.02052587
#
# Stress axis : x y z
#
# Youngs Moduli (GPa) = 80.49679 141.38275 79.95212
#
# Poissons Ratio (x) = 0.24183 0.26867
# Poissons Ratio (y) = 0.13768 0.05341
# Poissons Ratio (z) = 0.27050 0.09444
#
# Static dielectric constant tensor:
#      x y z
#    x 1.815710 0.000000 0.000000 
#    y 0.000000 1.829600 0.000000 
#    z 0.000000 0.000000 1.768090 
# 
# From -- ./inp_files/54679.got.cif
#   From: 2010.05.17/outbox.cif.g08.bks.cpg/sg22_28_cif.got.tgz:54679.got - 2010.06.03 23:40:54.
