data_PCOD9327957
_publ_section_title
;
Structure prediction by ZEFSAII (Michael W. Deem and Ramdas Pophale) SiO2 
 PCOD9327957
Probable space group: F 2 2 2
;
_chemical_formula_sum "Si O2"
_cell_formula_units_Z 72
_cell_length_a 9.525987
_cell_length_b 16.527024
_cell_length_c 23.234828
_cell_angle_alpha 90.000000
_cell_angle_beta 90.000000
_cell_angle_gamma 90.000000
_cell_volume 3658.003394
_symmetry_space_group_name_H-M "F 2 2 2"
_symmetry_group_IT_number 22
_symmetry_cell_setting 'orthorhombic'
loop_
_space_group_symop_operation_xyz
x,y,z
-x,-y,z
x,-y,-z
-x,y,-z
x,1/2+y,1/2+z
-x,1/2-y,1/2+z
x,1/2-y,1/2-z
-x,1/2+y,1/2-z
1/2+x,y,1/2+z
1/2-x,-y,1/2+z
1/2+x,-y,1/2-z
1/2-x,y,1/2-z
1/2+x,1/2+y,z
1/2-x,1/2-y,z
1/2+x,1/2-y,-z
1/2-x,1/2+y,-z
loop_
_atom_site_type_symbol
_atom_site_label
_atom_site_fract_x
_atom_site_fract_y
_atom_site_fract_z
Si Si1 0.628522 0.059094 0.213237
Si Si2 0.750000 0.750000 0.250000
Si Si3 0.250000 0.250000 0.616400
Si Si4 0.223798 0.078091 0.582222
Si Si5 0.000000 0.500000 0.613952
Si Si6 0.500000 0.500000 0.500000
Si Si7 0.006987 0.664679 0.310346
O O1 0.750000 0.016897 0.250000
O O2 0.682463 0.076067 0.149883
O O3 0.584544 0.135622 0.251854
O O4 0.500000 0.000000 0.208473
O O5 0.857707 0.700721 0.291002
O O6 0.244221 0.172911 0.574774
O O7 0.387428 0.226017 0.655712
O O8 0.361049 0.021533 0.577660
O O9 0.100609 0.049798 0.541691
O O10 0.015854 0.581541 0.652863
#
# Coordination Sequence:
#
# PCOD9327957 Si02
#       7
#    16   4   8  16   8   4  16
#     4  12  21  36  66 100 136 175 214 275 334 406
#     4  12  28  26  48  90 148 174 204 256 316 406
#     4  10  22  45  66  95 132 177 215 278 356 394
#     4  11  24  43  69  95 130 174 226 277 327 401
#     4  10  22  40  68  88 119 167 218 274 332 396
#     4  12  28  48  68  96 126 184 236 266 320 394
#     4  11  23  38  58  98 137 173 212 266 343 413
#
# _framework density 19.682867999999999
#
# number of rings (size 3 to 8) (size 9 to 14) (size 15 to 20)
#    0.000    0.889    6.667    1.333    4.667    3.111 
#    0.000    4.444    0.000    1.333    0.000    0.000 
#    0.000    0.000    0.000    0.000    0.000    0.000 
#
# Total GULP energy -100433.690138 kJ/mol
# GULP energy per Si atom -5579.649452 kJ/mol
# Density = 1.963807 g / cm^3
# Si number density = 19.682868 Si / 1000 Ang^3
#
#
#
# Elastic Constant Matrix: (Units=GPa)
#
#
# Indices 1 2 3 4 5 6 
#
# 1 160.3158 65.8459 32.6580 0.0000 0.0000 0.0000
# 2 65.8459 103.4739 22.7050 0.0000 0.0000 0.0000
# 3 32.6580 22.7050 60.9624 0.0000 0.0000 0.0000
# 4 0.0000 0.0000 0.0000 18.6814 0.0000 0.0000
# 5 0.0000 0.0000 0.0000 0.0000 21.5000 0.0000
# 6 0.0000 0.0000 0.0000 0.0000 0.0000 32.0367
#
#
#
# Elastic Compliance Matrix: (Units=1/GPa)
#
#
# Indices 1 2 3 4 5 6 
#
# 1 0.008890 -0.005022 -0.002892 0.000000 0.000000 0.000000
# 2 -0.005022 0.013362 -0.002286 0.000000 0.000000 0.000000
# 3 -0.002892 -0.002286 0.018804 0.000000 0.000000 0.000000
# 4 0.000000 0.000000 0.000000 0.053529 0.000000 0.000000
# 5 0.000000 0.000000 0.000000 0.000000 0.046512 0.000000
# 6 0.000000 0.000000 0.000000 0.000000 0.000000 0.031214
#
#
# Mechanical properties :
#
#
# Convention : Reuss Voigt Hill
#
# Bulk Modulus (GPa) = 48.41348 63.01886 55.71617
# Shear Modulus (GPa) = 25.05065 28.01319 26.53192
#
# Velocity S-wave (km/s) = 3.57138 3.77666 3.67545
# Velocity P-wave (km/s) = 6.45419 7.14872 6.81031
#
# Compressibility (1/GPa) = 0.02065540
#
# Stress axis : x y z
#
# Youngs Moduli (GPa) = 112.49133 74.83971 53.18008
#
# Poissons Ratio (x) = 0.37587 0.15378
# Poissons Ratio (y) = 0.56498 0.12157
# Poissons Ratio (z) = 0.32529 0.17108
#
# Static dielectric constant tensor:
#      x y z
#    x 1.714380 0.000000 0.000000 
#    y 0.000000 1.818250 0.000000 
#    z 0.000000 0.000000 1.686560 
# 
# From -- ./inp_files/39379.got.cif
#   From: 2010.05.17/outbox.cif.g08.bks.cpg/sg22_20_cif.got.tgz:39379.got - 2010.06.03 23:40:54.
