data_PCOD9327453
_publ_section_title
;
Structure prediction by ZEFSAII (Michael W. Deem and Ramdas Pophale) SiO2 
 PCOD9327453
Probable space group: F 2 2 2
;
_chemical_formula_sum "Si O2"
_cell_formula_units_Z 80
_cell_length_a 14.075834
_cell_length_b 24.058307
_cell_length_c 11.349957
_cell_angle_alpha 90.000000
_cell_angle_beta 90.000000
_cell_angle_gamma 90.000000
_cell_volume 3843.557788
_symmetry_space_group_name_H-M "F 2 2 2"
_symmetry_group_IT_number 22
_symmetry_cell_setting 'orthorhombic'
loop_
_space_group_symop_operation_xyz
x,y,z
-x,-y,z
x,-y,-z
-x,y,-z
x,1/2+y,1/2+z
-x,1/2-y,1/2+z
x,1/2-y,1/2-z
-x,1/2+y,1/2-z
1/2+x,y,1/2+z
1/2-x,-y,1/2+z
1/2+x,-y,1/2-z
1/2-x,y,1/2-z
1/2+x,1/2+y,z
1/2-x,1/2-y,z
1/2+x,1/2-y,-z
1/2-x,1/2+y,-z
loop_
_atom_site_type_symbol
_atom_site_label
_atom_site_fract_x
_atom_site_fract_y
_atom_site_fract_z
Si Si1 0.821364 0.094924 0.946887
Si Si2 0.849797 0.977374 0.371734
Si Si3 0.795691 0.191057 0.621937
Si Si4 0.853343 0.586853 0.714598
Si Si5 0.049754 0.870878 0.731093
O O1 0.757800 0.047372 0.884254
O O2 0.744511 0.144447 0.964216
O O3 0.901883 0.119140 0.860064
O O4 0.858170 0.077445 0.074096
O O5 0.915645 0.926054 0.336868
O O6 0.874214 0.000000 0.500000
O O7 0.861675 0.028401 0.283063
O O8 0.750000 0.177393 0.750000
O O9 0.750000 0.250000 0.590059
O O10 0.905398 0.180503 0.656738
O O11 0.750000 0.608864 0.750000
O O12 0.937841 0.627136 0.753869
#
# Coordination Sequence:
#
# PCOD9327453 Si02
#       5
#    16  16  16  16  16
#     4  10  21  38  60  88 119 158 211 255 311 373
#     4  11  22  37  55  84 124 168 208 250 299 365
#     4   8  16  37  68  92 111 144 202 271 317 367
#     4  12  23  37  55  84 130 171 199 255 308 363
#     4  10  22  36  60  91 116 156 217 255 308 375
#
# _framework density 20.814049000000001
#
# number of rings (size 3 to 8) (size 9 to 14) (size 15 to 20)
#    0.000    1.800    2.000    4.200    0.000    1.600 
#    0.000    2.000    0.000   19.800    0.000    0.000 
#    0.000    0.000    0.000    0.000    0.000    0.000 
#
# Total GULP energy -111567.592850 kJ/mol
# GULP energy per Si atom -5578.379643 kJ/mol
# Density = 2.076668 g / cm^3
# Si number density = 20.814049 Si / 1000 Ang^3
#
#
#
# Elastic Constant Matrix: (Units=GPa)
#
#
# Indices 1 2 3 4 5 6 
#
# 1 131.7066 35.3272 3.4169 0.0000 0.0000 0.0000
# 2 35.3272 75.2938 46.4455 0.0000 0.0000 0.0000
# 3 3.4169 46.4455 87.7870 0.0000 0.0000 0.0000
# 4 0.0000 0.0000 0.0000 13.0596 0.0000 0.0000
# 5 0.0000 0.0000 0.0000 0.0000 15.4003 0.0000
# 6 0.0000 0.0000 0.0000 0.0000 0.0000 21.8627
#
#
#
# Elastic Compliance Matrix: (Units=1/GPa)
#
#
# Indices 1 2 3 4 5 6 
#
# 1 0.009139 -0.006040 0.002840 0.000000 0.000000 0.000000
# 2 -0.006040 0.023707 -0.012308 0.000000 0.000000 0.000000
# 3 0.002840 -0.012308 0.017792 0.000000 0.000000 0.000000
# 4 0.000000 0.000000 0.000000 0.076572 0.000000 0.000000
# 5 0.000000 0.000000 0.000000 0.000000 0.064934 0.000000
# 6 0.000000 0.000000 0.000000 0.000000 0.000000 0.045740
#
#
# Mechanical properties :
#
#
# Convention : Reuss Voigt Hill
#
# Bulk Modulus (GPa) = 50.96013 51.68517 51.32265
# Shear Modulus (GPa) = 18.15274 24.03769 21.09521
#
# Velocity S-wave (km/s) = 2.95640 3.40204 3.18702
# Velocity P-wave (km/s) = 6.01585 6.34961 6.18498
#
# Compressibility (1/GPa) = 0.01962318
#
# Stress axis : x y z
#
# Youngs Moduli (GPa) = 109.42197 42.18149 56.20409
#
# Poissons Ratio (x) = 0.25476 -0.15960
# Poissons Ratio (y) = 0.66086 0.69174
# Poissons Ratio (z) = -0.31072 0.51915
#
# Static dielectric constant tensor:
#      x y z
#    x 1.835580 0.000000 0.000000 
#    y 0.000000 1.769150 0.000000 
#    z 0.000000 0.000000 1.760660 
# 
# From -- ./inp_files/19820.got.cif
#   From: 2010.05.17/outbox.cif.g08.bks.cpg/sg22_10_cif.got.tgz:19820.got - 2010.06.03 23:40:54.
