data_PCOD9327195
_publ_section_title
;
Structure prediction by ZEFSAII (Michael W. Deem and Ramdas Pophale) SiO2 
 PCOD9327195
Probable space group: F 2 2 2
;
_chemical_formula_sum "Si O2"
_cell_formula_units_Z 40
_cell_length_a 4.740332
_cell_length_b 20.327255
_cell_length_c 17.688605
_cell_angle_alpha 90.000000
_cell_angle_beta 90.000000
_cell_angle_gamma 90.000000
_cell_volume 1704.437492
_symmetry_space_group_name_H-M "F 2 2 2"
_symmetry_group_IT_number 22
_symmetry_cell_setting 'orthorhombic'
loop_
_space_group_symop_operation_xyz
x,y,z
-x,-y,z
x,-y,-z
-x,y,-z
x,1/2+y,1/2+z
-x,1/2-y,1/2+z
x,1/2-y,1/2-z
-x,1/2+y,1/2-z
1/2+x,y,1/2+z
1/2-x,-y,1/2+z
1/2+x,-y,1/2-z
1/2-x,y,1/2-z
1/2+x,1/2+y,z
1/2-x,1/2-y,z
1/2+x,1/2-y,-z
1/2-x,1/2+y,-z
loop_
_atom_site_type_symbol
_atom_site_label
_atom_site_fract_x
_atom_site_fract_y
_atom_site_fract_z
Si Si1 0.500000 0.500000 0.193518
Si Si2 0.217069 0.128840 0.659539
Si Si3 0.828896 0.176881 0.929835
O O1 0.750000 0.525767 0.250000
O O2 0.355873 0.556993 0.144809
O O3 0.250000 0.130536 0.750000
O O4 0.433830 0.183683 0.632974
O O5 0.931612 0.140238 0.611677
O O6 0.750000 0.250000 0.954582
O O7 0.000000 0.144534 0.000000
#
# Coordination Sequence:
#
# PCOD9327195 Si02
#       3
#     8  16  16
#     4  10  20  40  67 102 143 178 220 288 364 408
#     4  11  23  41  70 102 134 179 235 289 340 411
#     4  12  25  43  65  96 143 190 227 278 353 420
#
# _framework density 23.468153999999998
#
# number of rings (size 3 to 8) (size 9 to 14) (size 15 to 20)
#    0.000    0.800    0.000   10.800    0.000    4.800 
#    0.000    1.000    0.000   19.200    0.000    0.000 
#    0.000    0.000    0.000    0.000    0.000    0.000 
#
# Total GULP energy -55715.586477 kJ/mol
# GULP energy per Si atom -5571.558648 kJ/mol
# Density = 2.341474 g / cm^3
# Si number density = 23.468154 Si / 1000 Ang^3
#
#
#
# Elastic Constant Matrix: (Units=GPa)
#
#
# Indices 1 2 3 4 5 6 
#
# 1 219.2535 68.4032 86.2506 0.0000 0.0000 0.0000
# 2 68.4032 79.1610 51.4551 0.0000 0.0000 0.0000
# 3 86.2506 51.4551 116.0206 0.0000 0.0000 0.0000
# 4 0.0000 0.0000 0.0000 22.0430 0.0000 0.0000
# 5 0.0000 0.0000 0.0000 0.0000 64.0489 0.0000
# 6 0.0000 0.0000 0.0000 0.0000 0.0000 52.5261
#
#
#
# Elastic Compliance Matrix: (Units=1/GPa)
#
#
# Indices 1 2 3 4 5 6 
#
# 1 0.007194 -0.003850 -0.003641 0.000000 0.000000 0.000000
# 2 -0.003850 0.019810 -0.005923 0.000000 0.000000 0.000000
# 3 -0.003641 -0.005923 0.013953 0.000000 0.000000 0.000000
# 4 0.000000 0.000000 0.000000 0.045366 0.000000 0.000000
# 5 0.000000 0.000000 0.000000 0.000000 0.015613 0.000000
# 6 0.000000 0.000000 0.000000 0.000000 0.000000 0.019038
#
#
# Mechanical properties :
#
#
# Convention : Reuss Voigt Hill
#
# Bulk Modulus (GPa) = 70.78061 91.85034 81.31548
# Shear Modulus (GPa) = 32.78440 41.61202 37.19821
#
# Velocity S-wave (km/s) = 3.74167 4.21542 3.98559
# Velocity P-wave (km/s) = 6.99232 7.93198 7.47692
#
# Compressibility (1/GPa) = 0.01412816
#
# Stress axis : x y z
#
# Youngs Moduli (GPa) = 138.99853 50.48067 71.67038
#
# Poissons Ratio (x) = 0.19435 0.26094
# Poissons Ratio (y) = 0.53516 0.42453
# Poissons Ratio (z) = 0.50607 0.29901
#
# Static dielectric constant tensor:
#      x y z
#    x 1.990700 0.000000 0.000000 
#    y 0.000000 1.968890 0.000000 
#    z 0.000000 0.000000 1.977130 
# 
# From -- ./inp_files/33897.got.cif
#   From: 2010.05.17/outbox.cif.g08.bks.cpg/sg22_17_cif.got.tgz:33897.got - 2010.06.03 23:40:54.
