data_PCOD9327521
_publ_section_title
;
Structure prediction by ZEFSAII (Michael W. Deem and Ramdas Pophale) SiO2 
 PCOD9327521
Probable space group: F 2 2 2
;
_chemical_formula_sum "Si O2"
_cell_formula_units_Z 80
_cell_length_a 22.355249
_cell_length_b 29.153477
_cell_length_c 5.225362
_cell_angle_alpha 90.000000
_cell_angle_beta 90.000000
_cell_angle_gamma 90.000000
_cell_volume 3405.542094
_symmetry_space_group_name_H-M "F 2 2 2"
_symmetry_group_IT_number 22
_symmetry_cell_setting 'orthorhombic'
loop_
_space_group_symop_operation_xyz
x,y,z
-x,-y,z
x,-y,-z
-x,y,-z
x,1/2+y,1/2+z
-x,1/2-y,1/2+z
x,1/2-y,1/2-z
-x,1/2+y,1/2-z
1/2+x,y,1/2+z
1/2-x,-y,1/2+z
1/2+x,-y,1/2-z
1/2-x,y,1/2-z
1/2+x,1/2+y,z
1/2-x,1/2-y,z
1/2+x,1/2-y,-z
1/2-x,1/2+y,-z
loop_
_atom_site_type_symbol
_atom_site_label
_atom_site_fract_x
_atom_site_fract_y
_atom_site_fract_z
Si Si1 0.317090 0.500000 0.500000
Si Si2 0.354097 0.150268 0.704062
Si Si3 0.562561 0.349682 0.705332
Si Si4 0.250000 0.921632 0.250000
Si Si5 0.000000 0.424040 0.500000
Si Si6 0.355247 0.750000 0.250000
Si Si7 0.600682 0.000000 0.500000
Si Si8 0.938258 0.750000 0.250000
O O1 0.275144 0.455942 0.535976
O O2 0.358533 0.494748 0.250285
O O3 0.391313 0.149541 0.442626
O O4 0.305335 0.110810 0.684929
O O5 0.324151 0.200633 0.739477
O O6 0.398906 0.145041 0.946757
O O7 0.517324 0.390464 0.768247
O O8 0.530785 0.299613 0.734452
O O9 0.056882 0.456710 0.543625
O O10 0.396912 0.749561 0.499984
#
# Coordination Sequence:
#
# PCOD9327521 Si02
#       8
#     8  16  16   8   8   8   8   8
#     4  12  27  47  65  94 131 167 213 272 326 386
#     4  10  22  39  64  95 130 167 209 259 312 377
#     4  10  21  39  62  94 131 168 212 259 309 376
#     4  12  26  43  70  94 122 169 214 262 326 380
#     4  11  24  42  70  96 124 174 218 263 326 380
#     4   8  16  35  59  88 129 166 199 250 313 367
#     4  11  27  46  67  94 131 166 213 273 328 384
#     4   8  16  34  57  85 129 172 201 251 309 362
#
# _framework density 23.491119999999999
#
# number of rings (size 3 to 8) (size 9 to 14) (size 15 to 20)
#    0.000    1.800    0.000    3.000    0.000    8.400 
#    0.000    6.000    0.000    7.200    0.000    0.000 
#    0.000    0.000    0.000    0.000    0.000    0.000 
#
# Total GULP energy -111910.734225 kJ/mol
# GULP energy per Si atom -5595.536711 kJ/mol
# Density = 2.343765 g / cm^3
# Si number density = 23.491120 Si / 1000 Ang^3
#
#
#
# Elastic Constant Matrix: (Units=GPa)
#
#
# Indices 1 2 3 4 5 6 
#
# 1 127.7534 92.8204 81.5705 -0.0097 0.0086 0.1443
# 2 92.8204 222.4684 37.4073 0.0235 0.0365 -0.5547
# 3 81.5705 37.4073 176.2886 0.0635 0.0395 0.0494
# 4 -0.0097 0.0235 0.0635 28.1128 -0.0192 0.0576
# 5 0.0086 0.0365 0.0395 -0.0192 17.1044 0.1395
# 6 0.1443 -0.5547 0.0494 0.0576 0.1395 -308.3665
#
#
#
# Elastic Compliance Matrix: (Units=1/GPa)
#
#
# Indices 1 2 3 4 5 6 
#
# 1 0.015765 -0.005549 -0.006117 0.000024 0.000018 0.000016
# 2 -0.005549 0.006614 0.001164 -0.000010 -0.000014 -0.000014
# 3 -0.006117 0.001164 0.008256 -0.000022 -0.000018 -0.000004
# 4 0.000024 -0.000010 -0.000022 0.035571 0.000040 0.000007
# 5 0.000018 -0.000014 -0.000018 0.000040 0.058464 0.000026
# 6 0.000016 -0.000014 -0.000004 0.000007 0.000026 -0.003243
#
#
# Mechanical properties :
#
#
# Convention : Reuss Voigt Hill
#
# Bulk Modulus (GPa) = 103.82920 105.56742 104.69831
# Shear Modulus (GPa) = 34.33054 -31.64903 1.34076
#
# Velocity S-wave (km/s) = 3.82701 -3.67451 0.75630
# Velocity P-wave (km/s) = 7.98895 5.19944 6.74008
#
# Compressibility (1/GPa) = 0.00963120
#
# Stress axis : x y z
#
# Youngs Moduli (GPa) = 63.43116 151.18344 121.12365
#
# Poissons Ratio (x) = 0.83892 0.74094
# Poissons Ratio (y) = 0.35198 -0.14100
# Poissons Ratio (z) = 0.38802 -0.17599
#
# Static dielectric constant tensor:
#      x y z
#    x 1.883520 -0.000050 -0.000210 
#    y -0.000050 1.945650 0.000040 
#    z -0.000210 0.000040 1.873890 
# 
# From -- ./inp_files/4841.got.cif
#   From: 2010.05.17/outbox.cif.g08.bks.cpg/sg22_3_cif.got.tgz:4841.got - 2010.06.03 23:40:54.
