data_PCOD9327536
_publ_section_title
;
Structure prediction by ZEFSAII (Michael W. Deem and Ramdas Pophale) SiO2 
 PCOD9327536
Probable space group: F 2 2 2
;
_chemical_formula_sum "Si O2"
_cell_formula_units_Z 88
_cell_length_a 13.161168
_cell_length_b 28.243580
_cell_length_c 11.170845
_cell_angle_alpha 90.000000
_cell_angle_beta 90.000000
_cell_angle_gamma 90.000000
_cell_volume 4152.409762
_symmetry_space_group_name_H-M "F 2 2 2"
_symmetry_group_IT_number 22
_symmetry_cell_setting 'orthorhombic'
loop_
_space_group_symop_operation_xyz
x,y,z
-x,-y,z
x,-y,-z
-x,y,-z
x,1/2+y,1/2+z
-x,1/2-y,1/2+z
x,1/2-y,1/2-z
-x,1/2+y,1/2-z
1/2+x,y,1/2+z
1/2-x,-y,1/2+z
1/2+x,-y,1/2-z
1/2-x,y,1/2-z
1/2+x,1/2+y,z
1/2-x,1/2-y,z
1/2+x,1/2-y,-z
1/2-x,1/2+y,-z
loop_
_atom_site_type_symbol
_atom_site_label
_atom_site_fract_x
_atom_site_fract_y
_atom_site_fract_z
Si Si1 0.243327 0.392479 0.052986
Si Si2 0.421342 0.598674 0.763458
Si Si3 0.500000 0.500000 0.698086
Si Si4 0.322866 0.205950 0.996669
Si Si5 0.714559 0.026751 0.114267
Si Si6 0.500238 0.699517 0.311068
O O1 0.342731 0.405276 0.127740
O O2 0.146963 0.401784 0.141149
O O3 0.249149 0.337427 0.027295
O O4 0.226220 0.419798 0.929491
O O5 0.486055 0.550302 0.765959
O O6 0.476923 0.650143 0.759386
O O7 0.599836 0.509188 0.621876
O O8 0.250000 0.250000 0.972455
O O9 0.400740 0.191673 0.892101
O O10 0.399341 0.210659 0.109279
O O11 0.750000 0.018272 0.250000
O O12 0.764497 0.000000 0.000000
O O13 0.480356 0.750000 0.250000
#
# Coordination Sequence:
#
# PCOD9327536 Si02
#       6
#    16  16   8  16  16  16
#     4  10  21  41  66  97 137 172 227 281 347 418
#     4  10  21  39  69 101 130 179 224 288 344 414
#     4  12  23  40  69  98 133 178 235 274 343 414
#     4  10  21  39  64  94 130 177 225 281 346 410
#     4  12  25  43  67  98 137 181 230 287 341 408
#     4  10  21  39  65  96 131 170 231 285 342 413
#
# _framework density 21.192512000000001
#
# number of rings (size 3 to 8) (size 9 to 14) (size 15 to 20)
#    0.000    1.455    1.818    3.545    0.000    3.636 
#    6.545    4.091    0.000    0.000    0.000    0.000 
#    0.000    0.000    0.000    0.000    0.000    0.000 
#
# Total GULP energy -122665.215067 kJ/mol
# GULP energy per Si atom -5575.691594 kJ/mol
# Density = 2.114428 g / cm^3
# Si number density = 21.192512 Si / 1000 Ang^3
#
#
#
# Elastic Constant Matrix: (Units=GPa)
#
#
# Indices 1 2 3 4 5 6 
#
# 1 41.9325 25.7913 21.6827 0.0000 0.0000 0.0000
# 2 25.7913 133.8980 28.0363 0.0000 0.0000 0.0000
# 3 21.6827 28.0363 95.2381 0.0000 0.0000 0.0000
# 4 0.0000 0.0000 0.0000 31.0291 0.0000 0.0000
# 5 0.0000 0.0000 0.0000 0.0000 4.0847 0.0000
# 6 0.0000 0.0000 0.0000 0.0000 0.0000 37.5464
#
#
#
# Elastic Compliance Matrix: (Units=1/GPa)
#
#
# Indices 1 2 3 4 5 6 
#
# 1 0.029413 -0.004543 -0.005359 0.000000 0.000000 0.000000
# 2 -0.004543 0.008661 -0.001515 0.000000 0.000000 0.000000
# 3 -0.005359 -0.001515 0.012166 0.000000 0.000000 0.000000
# 4 0.000000 0.000000 0.000000 0.032228 0.000000 0.000000
# 5 0.000000 0.000000 0.000000 0.000000 0.244814 0.000000
# 6 0.000000 0.000000 0.000000 0.000000 0.000000 0.026634
#
#
# Mechanical properties :
#
#
# Convention : Reuss Voigt Hill
#
# Bulk Modulus (GPa) = 36.48963 46.89880 41.69422
# Shear Modulus (GPa) = 12.95717 27.56926 20.26322
#
# Velocity S-wave (km/s) = 2.47534 3.61071 3.09552
# Velocity P-wave (km/s) = 5.04235 6.28974 5.70027
#
# Compressibility (1/GPa) = 0.02740505
#
# Stress axis : x y z
#
# Youngs Moduli (GPa) = 33.99807 115.46293 82.19563
#
# Poissons Ratio (x) = 0.52461 0.44048
# Poissons Ratio (y) = 0.15447 0.12454
# Poissons Ratio (z) = 0.18219 0.17494
#
# Static dielectric constant tensor:
#      x y z
#    x 1.750160 0.000000 0.000000 
#    y 0.000000 1.821640 0.000000 
#    z 0.000000 0.000000 1.832310 
# 
# From -- ./inp_files/18414.got.cif
#   From: 2010.05.17/outbox.cif.g08.bks.cpg/sg22_10_cif.got.tgz:18414.got - 2010.06.03 23:40:54.
