data_PCOD9327685
_publ_section_title
;
Structure prediction by ZEFSAII (Michael W. Deem and Ramdas Pophale) SiO2 
 PCOD9327685
Probable space group: F 2 2 2
;
_chemical_formula_sum "Si O2"
_cell_formula_units_Z 104
_cell_length_a 30.237027
_cell_length_b 8.979082
_cell_length_c 20.228220
_cell_angle_alpha 90.000000
_cell_angle_beta 90.000000
_cell_angle_gamma 90.000000
_cell_volume 5491.976797
_symmetry_space_group_name_H-M "F 2 2 2"
_symmetry_group_IT_number 22
_symmetry_cell_setting 'orthorhombic'
loop_
_space_group_symop_operation_xyz
x,y,z
-x,-y,z
x,-y,-z
-x,y,-z
x,1/2+y,1/2+z
-x,1/2-y,1/2+z
x,1/2-y,1/2-z
-x,1/2+y,1/2-z
1/2+x,y,1/2+z
1/2-x,-y,1/2+z
1/2+x,-y,1/2-z
1/2-x,y,1/2-z
1/2+x,1/2+y,z
1/2-x,1/2-y,z
1/2+x,1/2-y,-z
1/2-x,1/2+y,-z
loop_
_atom_site_type_symbol
_atom_site_label
_atom_site_fract_x
_atom_site_fract_y
_atom_site_fract_z
Si Si1 0.131272 0.531403 0.851993
Si Si2 0.410490 0.250000 0.250000
Si Si3 0.891231 0.782731 0.048010
Si Si4 0.629187 0.601277 0.905405
Si Si5 0.302000 0.719843 0.326256
Si Si6 0.973892 0.156577 0.868793
Si Si7 0.438644 0.728691 0.328181
O O1 0.120726 0.637826 0.790119
O O2 0.126084 0.633235 0.917222
O O3 0.177080 0.440586 0.845456
O O4 0.092004 0.410057 0.847226
O O5 0.442579 0.173534 0.304244
O O6 0.942314 0.808872 0.069176
O O7 0.867362 0.928247 0.078453
O O8 0.883167 0.803051 0.970530
O O9 0.672850 0.664202 0.872606
O O10 0.589118 0.631219 0.855397
O O11 0.314878 0.750000 0.250000
O O12 0.250000 0.750000 0.332020
O O13 0.013230 0.275678 0.860316
O O14 0.000000 0.000000 0.872585
O O15 0.443656 0.750000 0.250000
#
# Coordination Sequence:
#
# PCOD9327685 Si02
#       7
#    16   8  16  16  16  16  16
#     4  10  22  37  62  92 123 165 205 258 320 363
#     4  10  22  30  56  89 132 158 205 262 304 356
#     4  10  23  37  58  91 122 169 210 254 303 368
#     4  10  21  42  61  84 126 165 207 249 317 374
#     4  10  23  43  70  94 118 155 200 250 319 394
#     4  11  20  33  54  85 123 169 222 252 298 356
#     4  11  21  35  57  86 121 173 213 267 309 362
#
# _framework density 18.936715
#
# number of rings (size 3 to 8) (size 9 to 14) (size 15 to 20)
#    0.000    1.692    2.308    2.769    6.462    4.923 
#    0.000    3.846    0.000    7.385    0.000    0.000 
#    0.000    0.000    0.000    0.000    0.000    0.000 
#
# Total GULP energy -145132.806938 kJ/mol
# GULP energy per Si atom -5582.031036 kJ/mol
# Density = 1.889361 g / cm^3
# Si number density = 18.936715 Si / 1000 Ang^3
#
#
#
# Elastic Constant Matrix: (Units=GPa)
#
#
# Indices 1 2 3 4 5 6 
#
# 1 108.3875 47.9388 54.9378 0.0000 0.0000 0.0000
# 2 47.9388 98.5247 31.8124 0.0000 0.0000 0.0000
# 3 54.9378 31.8124 86.2385 0.0000 0.0000 0.0000
# 4 0.0000 0.0000 0.0000 33.6846 0.0000 0.0000
# 5 0.0000 0.0000 0.0000 0.0000 81.0741 0.0000
# 6 0.0000 0.0000 0.0000 0.0000 0.0000 24.7416
#
#
#
# Elastic Compliance Matrix: (Units=1/GPa)
#
#
# Indices 1 2 3 4 5 6 
#
# 1 0.015488 -0.004938 -0.008045 0.000000 0.000000 0.000000
# 2 -0.004938 0.013097 -0.001685 0.000000 0.000000 0.000000
# 3 -0.008045 -0.001685 0.017342 0.000000 0.000000 0.000000
# 4 0.000000 0.000000 0.000000 0.029687 0.000000 0.000000
# 5 0.000000 0.000000 0.000000 0.000000 0.012334 0.000000
# 6 0.000000 0.000000 0.000000 0.000000 0.000000 0.040418
#
#
# Mechanical properties :
#
#
# Convention : Reuss Voigt Hill
#
# Bulk Modulus (GPa) = 60.27680 62.50315 61.38998
# Shear Modulus (GPa) = 30.63101 38.46420 34.54760
#
# Velocity S-wave (km/s) = 4.02624 4.51177 4.27590
# Velocity P-wave (km/s) = 7.31532 7.76012 7.54100
#
# Compressibility (1/GPa) = 0.01659013
#
# Stress axis : x y z
#
# Youngs Moduli (GPa) = 64.56616 76.35494 57.66233
#
# Poissons Ratio (x) = 0.37707 0.46388
# Poissons Ratio (y) = 0.31885 0.09718
# Poissons Ratio (z) = 0.51942 0.12868
#
# Static dielectric constant tensor:
#      x y z
#    x 1.637330 0.000000 0.000000 
#    y 0.000000 1.634760 0.000000 
#    z 0.000000 0.000000 1.669490 
# 
# From -- ./inp_files/46020.got.cif
#   From: 2010.05.17/outbox.cif.g08.bks.cpg/sg22_24_cif.got.tgz:46020.got - 2010.06.03 23:40:54.
