data_PCOD9327072
_publ_section_title
;
Structure prediction by ZEFSAII (Michael W. Deem and Ramdas Pophale) SiO2 
 PCOD9327072
Probable space group: F 2 2 2
;
_chemical_formula_sum "Si O2"
_cell_formula_units_Z 80
_cell_length_a 10.656528
_cell_length_b 30.661099
_cell_length_c 12.232181
_cell_angle_alpha 90.000000
_cell_angle_beta 90.000000
_cell_angle_gamma 90.000000
_cell_volume 3996.753340
_symmetry_space_group_name_H-M "F 2 2 2"
_symmetry_group_IT_number 22
_symmetry_cell_setting 'orthorhombic'
loop_
_space_group_symop_operation_xyz
x,y,z
-x,-y,z
x,-y,-z
-x,y,-z
x,1/2+y,1/2+z
-x,1/2-y,1/2+z
x,1/2-y,1/2-z
-x,1/2+y,1/2-z
1/2+x,y,1/2+z
1/2-x,-y,1/2+z
1/2+x,-y,1/2-z
1/2-x,y,1/2-z
1/2+x,1/2+y,z
1/2-x,1/2-y,z
1/2+x,1/2-y,-z
1/2-x,1/2+y,-z
loop_
_atom_site_type_symbol
_atom_site_label
_atom_site_fract_x
_atom_site_fract_y
_atom_site_fract_z
Si Si1 0.026497 0.202423 0.286427
Si Si2 0.133775 0.620528 0.670924
Si Si3 0.746578 0.891646 0.568831
Si Si4 0.547770 0.453551 0.125804
Si Si5 0.000000 0.851159 0.500000
Si Si6 0.750000 0.178121 0.250000
O O1 0.072695 0.250000 0.250000
O O2 0.055415 0.180605 0.405106
O O3 0.874589 0.203314 0.284379
O O4 0.080980 0.167733 0.200802
O O5 0.250000 0.611076 0.750000
O O6 0.180281 0.616694 0.546933
O O7 0.025859 0.584734 0.687167
O O8 0.692431 0.937412 0.615991
O O9 0.709325 0.853652 0.652102
O O10 0.893449 0.882565 0.550052
O O11 0.500000 0.500000 0.170250
O O12 0.500000 0.453561 0.000000
#
# Coordination Sequence:
#
# PCOD9327072 Si02
#       6
#    16  16  16  16   8   8
#     4  11  23  39  60  89 125 166 215 259 319 376
#     4  11  21  39  60  88 122 163 206 259 315 378
#     4  10  20  38  65  85 123 163 206 257 320 377
#     4   9  19  38  65  90 116 162 215 256 310 390
#     4  10  22  40  58  93 126 166 205 270 324 372
#     4  10  21  38  60  90 118 164 206 256 317 372
#
# _framework density 20.016247
#
# number of rings (size 3 to 8) (size 9 to 14) (size 15 to 20)
#    0.000    1.800    4.000    0.300    0.000    2.000 
#    1.800    2.000    0.000    8.400    0.000    0.000 
#    0.000    0.000    0.000    0.000    0.000    0.000 
#
# Total GULP energy -111450.814033 kJ/mol
# GULP energy per Si atom -5572.540702 kJ/mol
# Density = 1.997069 g / cm^3
# Si number density = 20.016247 Si / 1000 Ang^3
#
#
#
# Elastic Constant Matrix: (Units=GPa)
#
#
# Indices 1 2 3 4 5 6 
#
# 1 75.0794 47.6562 11.6021 0.0000 0.0000 0.0000
# 2 47.6562 162.9647 26.9576 0.0000 0.0000 0.0000
# 3 11.6021 26.9576 74.5309 0.0000 0.0000 0.0000
# 4 0.0000 0.0000 0.0000 20.5529 0.0000 0.0000
# 5 0.0000 0.0000 0.0000 0.0000 23.8213 0.0000
# 6 0.0000 0.0000 0.0000 0.0000 0.0000 27.9859
#
#
#
# Elastic Compliance Matrix: (Units=1/GPa)
#
#
# Indices 1 2 3 4 5 6 
#
# 1 0.016408 -0.004654 -0.000871 0.000000 0.000000 0.000000
# 2 -0.004654 0.007847 -0.002114 0.000000 0.000000 0.000000
# 3 -0.000871 -0.002114 0.014317 0.000000 0.000000 0.000000
# 4 0.000000 0.000000 0.000000 0.048655 0.000000 0.000000
# 5 0.000000 0.000000 0.000000 0.000000 0.041979 0.000000
# 6 0.000000 0.000000 0.000000 0.000000 0.000000 0.035732
#
#
# Mechanical properties :
#
#
# Convention : Reuss Voigt Hill
#
# Bulk Modulus (GPa) = 42.92782 53.88965 48.40873
# Shear Modulus (GPa) = 26.59840 29.56263 28.08051
#
# Velocity S-wave (km/s) = 3.64928 3.84726 3.74958
# Velocity P-wave (km/s) = 6.26493 6.83495 6.55614
#
# Compressibility (1/GPa) = 0.02329492
#
# Stress axis : x y z
#
# Youngs Moduli (GPa) = 60.94581 127.43745 69.84539
#
# Poissons Ratio (x) = 0.59312 0.06082
# Poissons Ratio (y) = 0.28365 0.14763
# Poissons Ratio (z) = 0.05307 0.26937
#
# Static dielectric constant tensor:
#      x y z
#    x 1.762210 0.000000 0.000000 
#    y 0.000000 1.717550 0.000000 
#    z 0.000000 0.000000 1.712680 
# 
# From -- ./inp_files/18321.got.cif
#   From: 2010.05.17/outbox.cif.g08.bks.cpg/sg22_10_cif.got.tgz:18321.got - 2010.06.03 23:40:54.
