data_PCOD9327973
_publ_section_title
;
Structure prediction by ZEFSAII (Michael W. Deem and Ramdas Pophale) SiO2 
 PCOD9327973
Probable space group: F 2 2 2
;
_chemical_formula_sum "Si O2"
_cell_formula_units_Z 104
_cell_length_a 9.084693
_cell_length_b 23.496243
_cell_length_c 25.090934
_cell_angle_alpha 90.000000
_cell_angle_beta 90.000000
_cell_angle_gamma 90.000000
_cell_volume 5355.814280
_symmetry_space_group_name_H-M "F 2 2 2"
_symmetry_group_IT_number 22
_symmetry_cell_setting 'orthorhombic'
loop_
_space_group_symop_operation_xyz
x,y,z
-x,-y,z
x,-y,-z
-x,y,-z
x,1/2+y,1/2+z
-x,1/2-y,1/2+z
x,1/2-y,1/2-z
-x,1/2+y,1/2-z
1/2+x,y,1/2+z
1/2-x,-y,1/2+z
1/2+x,-y,1/2-z
1/2-x,y,1/2-z
1/2+x,1/2+y,z
1/2-x,1/2-y,z
1/2+x,1/2-y,-z
1/2-x,1/2+y,-z
loop_
_atom_site_type_symbol
_atom_site_label
_atom_site_fract_x
_atom_site_fract_y
_atom_site_fract_z
Si Si1 0.921125 0.182286 0.738679
Si Si2 0.601191 0.945007 0.578296
Si Si3 0.077066 0.669636 0.127551
Si Si4 0.431562 0.056049 0.941135
Si Si5 0.408113 0.773678 0.590693
Si Si6 0.906488 0.643751 0.663365
Si Si7 0.000000 0.153745 0.000000
O O1 0.936954 0.250000 0.750000
O O2 0.750000 0.167196 0.750000
O O3 0.969063 0.171306 0.678190
O O4 0.037932 0.149405 0.776366
O O5 0.761216 0.959705 0.557365
O O6 0.597490 0.919518 0.638198
O O7 0.564231 0.889424 0.543153
O O8 0.500000 0.000000 0.572037
O O9 0.054251 0.612879 0.093182
O O10 0.245297 0.669834 0.149477
O O11 0.028978 0.723424 0.091763
O O12 0.500000 0.000000 0.915073
O O13 0.500000 0.063706 0.000000
O O14 0.250000 0.750000 0.606793
O O15 0.470284 0.819308 0.632420
O O16 0.395002 0.804928 0.533746
#
# Coordination Sequence:
#
# PCOD9327973 Si02
#       7
#    16  16  16  16  16  16   8
#     4  11  22  38  62  94 125 161 204 248 302 364
#     4  10  23  42  65  86 121 162 207 253 302 364
#     4  11  23  39  65  88 128 166 198 256 305 364
#     4  10  25  42  63  93 121 158 209 255 306 357
#     4  11  23  36  57  88 126 164 204 252 301 363
#     4  10  22  41  60  94 121 160 208 247 311 367
#     4  10  25  36  58  88 121 162 210 248 298 368
#
# _framework density 19.418150000000001
#
# number of rings (size 3 to 8) (size 9 to 14) (size 15 to 20)
#    0.000    1.538    1.538    2.077    7.538    5.538 
#    0.000    0.769    0.000    0.000    0.000    0.000 
#    0.000    0.000    0.000    0.000    0.000    0.000 
#
# Total GULP energy -145045.608288 kJ/mol
# GULP energy per Si atom -5578.677242 kJ/mol
# Density = 1.937395 g / cm^3
# Si number density = 19.418150 Si / 1000 Ang^3
#
#
#
# Elastic Constant Matrix: (Units=GPa)
#
#
# Indices 1 2 3 4 5 6 
#
# 1 134.1016 49.8485 32.0917 0.0000 0.0000 0.0000
# 2 49.8485 86.1038 38.2736 0.0000 0.0000 0.0000
# 3 32.0917 38.2736 72.9935 0.0000 0.0000 0.0000
# 4 0.0000 0.0000 0.0000 21.8419 0.0000 0.0000
# 5 0.0000 0.0000 0.0000 0.0000 21.1061 0.0000
# 6 0.0000 0.0000 0.0000 0.0000 0.0000 -24.7234
#
#
#
# Elastic Compliance Matrix: (Units=1/GPa)
#
#
# Indices 1 2 3 4 5 6 
#
# 1 0.009664 -0.004832 -0.001715 0.000000 0.000000 0.000000
# 2 -0.004832 0.017560 -0.007083 0.000000 0.000000 0.000000
# 3 -0.001715 -0.007083 0.018168 0.000000 0.000000 0.000000
# 4 0.000000 0.000000 0.000000 0.045784 0.000000 0.000000
# 5 0.000000 0.000000 0.000000 0.000000 0.047380 0.000000
# 6 0.000000 0.000000 0.000000 0.000000 0.000000 -0.040447
#
#
# Mechanical properties :
#
#
# Convention : Reuss Voigt Hill
#
# Bulk Modulus (GPa) = 55.15390 59.29183 57.22287
# Shear Modulus (GPa) = 38.04863 15.17726 26.61295
#
# Velocity S-wave (km/s) = 4.43135 2.79875 3.70607
# Velocity P-wave (km/s) = 7.39239 6.40660 6.91708
#
# Compressibility (1/GPa) = 0.01813108
#
# Stress axis : x y z
#
# Youngs Moduli (GPa) = 103.47978 56.94801 55.04310
#
# Poissons Ratio (x) = 0.27520 0.09439
# Poissons Ratio (y) = 0.50006 0.38986
# Poissons Ratio (z) = 0.17745 0.40335
#
# Static dielectric constant tensor:
#      x y z
#    x 1.693610 0.000000 0.000000 
#    y 0.000000 1.693720 0.000000 
#    z 0.000000 0.000000 1.859840 
# 
# From -- ./inp_files/14827.got.cif
#   From: 2010.05.17/outbox.cif.g08.bks.cpg/sg22_8_cif.got.tgz:14827.got - 2010.06.03 23:40:54.
