data_PCOD9327785
_publ_section_title
;
Structure prediction by ZEFSAII (Michael W. Deem and Ramdas Pophale) SiO2 
 PCOD9327785
Probable space group: F 2 2 2
;
_chemical_formula_sum "Si O2"
_cell_formula_units_Z 104
_cell_length_a 21.035648
_cell_length_b 27.262236
_cell_length_c 8.572505
_cell_angle_alpha 90.000000
_cell_angle_beta 90.000000
_cell_angle_gamma 90.000000
_cell_volume 4916.149882
_symmetry_space_group_name_H-M "F 2 2 2"
_symmetry_group_IT_number 22
_symmetry_cell_setting 'orthorhombic'
loop_
_space_group_symop_operation_xyz
x,y,z
-x,-y,z
x,-y,-z
-x,y,-z
x,1/2+y,1/2+z
-x,1/2-y,1/2+z
x,1/2-y,1/2-z
-x,1/2+y,1/2-z
1/2+x,y,1/2+z
1/2-x,-y,1/2+z
1/2+x,-y,1/2-z
1/2-x,y,1/2-z
1/2+x,1/2+y,z
1/2-x,1/2-y,z
1/2+x,1/2-y,-z
1/2-x,1/2+y,-z
loop_
_atom_site_type_symbol
_atom_site_label
_atom_site_fract_x
_atom_site_fract_y
_atom_site_fract_z
Si Si1 0.374954 0.702159 0.830226
Si Si2 0.000000 0.307002 0.500000
Si Si3 0.455567 0.547949 0.692547
Si Si4 0.133134 0.053800 0.015209
Si Si5 0.369308 0.875361 0.953728
Si Si6 0.226795 0.361360 0.420240
Si Si7 0.065539 0.880221 0.238619
O O1 0.346709 0.750000 0.750000
O O2 0.383415 0.659683 0.696630
O O3 0.325960 0.679854 0.958587
O O4 0.442678 0.717575 0.904359
O O5 0.961374 0.341488 0.382109
O O6 0.500000 0.500000 0.662925
O O7 0.425193 0.545813 0.865124
O O8 0.398041 0.569918 0.585038
O O9 0.505893 0.591134 0.693048
O O10 0.185494 0.089540 0.086394
O O11 0.108037 0.080310 0.858281
O O12 0.161493 0.000000 0.000000
O O13 0.294256 0.873336 0.995968
O O14 0.401296 0.857137 0.112080
O O15 0.250000 0.345642 0.250000
#
# Coordination Sequence:
#
# PCOD9327785 Si02
#       7
#    16   8  16  16  16  16  16
#     4  11  24  44  75 101 129 181 222 281 352 419
#     4  12  22  42  67  96 140 166 215 274 346 408
#     4  12  22  40  64  94 133 177 233 278 338 409
#     4  12  22  41  65  91 126 185 229 270 336 416
#     4  11  25  42  64  98 135 174 226 288 343 402
#     4  10  21  46  66  90 135 173 228 283 333 409
#     4  12  22  38  66  93 131 175 216 277 343 396
#
# _framework density 21.154765999999999
#
# number of rings (size 3 to 8) (size 9 to 14) (size 15 to 20)
#    0.000    0.615    9.231    0.462    0.000    5.846 
#    5.538    0.000    0.000    0.000    8.000    0.000 
#    0.000    0.000    0.000    0.000    0.000    0.000 
#
# Total GULP energy -144838.750294 kJ/mol
# GULP energy per Si atom -5570.721165 kJ/mol
# Density = 2.110662 g / cm^3
# Si number density = 21.154766 Si / 1000 Ang^3
#
#
#
# Elastic Constant Matrix: (Units=GPa)
#
#
# Indices 1 2 3 4 5 6 
#
# 1 124.5199 32.4138 20.8102 0.0000 0.0000 0.0000
# 2 32.4138 72.9142 -2.9277 0.0000 0.0000 0.0000
# 3 20.8102 -2.9277 69.2871 0.0000 0.0002 0.0001
# 4 0.0000 0.0000 0.0000 4.6248 0.0000 0.0000
# 5 0.0000 0.0000 0.0002 0.0000 25.7393 -0.0001
# 6 0.0000 0.0000 0.0001 0.0000 -0.0001 15.3008
#
#
#
# Elastic Compliance Matrix: (Units=1/GPa)
#
#
# Indices 1 2 3 4 5 6 
#
# 1 0.009705 -0.004439 -0.003102 0.000000 0.000000 0.000000
# 2 -0.004439 0.015768 0.001999 0.000000 0.000000 0.000000
# 3 -0.003102 0.001999 0.015449 0.000000 0.000000 0.000000
# 4 0.000000 0.000000 0.000000 0.216227 0.000000 0.000000
# 5 0.000000 0.000000 0.000000 0.000000 0.038851 0.000000
# 6 0.000000 0.000000 0.000000 0.000000 0.000000 0.065356
#
#
# Mechanical properties :
#
#
# Convention : Reuss Voigt Hill
#
# Bulk Modulus (GPa) = 33.51357 40.81265 37.16311
# Shear Modulus (GPa) = 13.07580 23.56130 18.31855
#
# Velocity S-wave (km/s) = 2.48886 3.34092 2.94586
# Velocity P-wave (km/s) = 4.91281 5.84950 5.40150
#
# Compressibility (1/GPa) = 0.02983866
#
# Stress axis : x y z
#
# Youngs Moduli (GPa) = 103.04181 63.41834 64.72922
#
# Poissons Ratio (x) = 0.28150 0.20081
# Poissons Ratio (y) = 0.45738 -0.12942
# Poissons Ratio (z) = 0.31967 -0.12680
#
# Static dielectric constant tensor:
#      x y z
#    x 1.859190 0.000000 0.000000 
#    y 0.000000 1.774150 0.000000 
#    z 0.000000 0.000000 1.905080 
# 
# From -- ./inp_files/12941.got.cif
#   From: 2010.05.17/outbox.cif.g08.bks.cpg/sg22_7_cif.got.tgz:12941.got - 2010.06.03 23:40:54.
