data_PCOD9327247
_publ_section_title
;
Structure prediction by ZEFSAII (Michael W. Deem and Ramdas Pophale) SiO2 
 PCOD9327247
Probable space group: F 2 2 2
;
_chemical_formula_sum "Si O2"
_cell_formula_units_Z 96
_cell_length_a 18.800455
_cell_length_b 15.669810
_cell_length_c 14.828836
_cell_angle_alpha 90.000000
_cell_angle_beta 90.000000
_cell_angle_gamma 90.000000
_cell_volume 4368.568528
_symmetry_space_group_name_H-M "F 2 2 2"
_symmetry_group_IT_number 22
_symmetry_cell_setting 'orthorhombic'
loop_
_space_group_symop_operation_xyz
x,y,z
-x,-y,z
x,-y,-z
-x,y,-z
x,1/2+y,1/2+z
-x,1/2-y,1/2+z
x,1/2-y,1/2-z
-x,1/2+y,1/2-z
1/2+x,y,1/2+z
1/2-x,-y,1/2+z
1/2+x,-y,1/2-z
1/2-x,y,1/2-z
1/2+x,1/2+y,z
1/2-x,1/2-y,z
1/2+x,1/2-y,-z
1/2-x,1/2+y,-z
loop_
_atom_site_type_symbol
_atom_site_label
_atom_site_fract_x
_atom_site_fract_y
_atom_site_fract_z
Si Si1 0.922420 0.469496 0.120297
Si Si2 0.888886 0.329461 0.645815
Si Si3 0.844059 0.841188 0.945178
Si Si4 0.954837 0.846778 0.786536
Si Si5 0.807781 0.643583 0.974906
Si Si6 0.344135 0.357499 0.332161
O O1 0.935215 0.407567 0.204559
O O2 0.872850 0.417917 0.050128
O O3 0.881756 0.552892 0.153832
O O4 0.000000 0.500000 0.090268
O O5 0.871454 0.360960 0.546019
O O6 0.831517 0.349135 0.725046
O O7 0.892901 0.225724 0.645624
O O8 0.964913 0.362260 0.679539
O O9 0.901008 0.860833 0.869108
O O10 0.829577 0.738834 0.945363
O O11 0.766477 0.882293 0.929153
O O12 0.949319 0.750000 0.750000
O O13 0.791534 0.647333 0.082340
#
# Coordination Sequence:
#
# PCOD9327247 Si02
#       6
#    16  16  16  16  16  16
#     4  12  23  41  66 100 139 169 230 295 346 405
#     4  10  20  42  68  98 131 174 233 278 341 414
#     4  10  23  42  67  96 135 184 225 277 345 429
#     4  12  21  41  67 101 134 178 232 288 348 413
#     4  10  23  41  63 103 136 177 229 276 356 421
#     4  10  21  39  66  96 131 174 223 284 340 397
#
# _framework density 21.975162000000001
#
# number of rings (size 3 to 8) (size 9 to 14) (size 15 to 20)
#    0.000    1.333    5.000    1.000    0.000    2.667 
#    0.000    9.167    0.000    0.000    0.000    0.000 
#    0.000    0.000    0.000    0.000    0.000    0.000 
#
# Total GULP energy -134043.852451 kJ/mol
# GULP energy per Si atom -5585.160519 kJ/mol
# Density = 2.192515 g / cm^3
# Si number density = 21.975162 Si / 1000 Ang^3
#
#
#
# Elastic Constant Matrix: (Units=GPa)
#
#
# Indices 1 2 3 4 5 6 
#
# 1 104.9311 9.1600 62.3329 0.0000 0.0000 0.0000
# 2 9.1600 66.1776 17.5046 0.0000 0.0000 0.0000
# 3 62.3329 17.5046 165.3624 0.0000 0.0000 0.0000
# 4 0.0000 0.0000 0.0000 48.1098 0.0000 0.0000
# 5 0.0000 0.0000 0.0000 0.0000 39.5869 0.0000
# 6 0.0000 0.0000 0.0000 0.0000 0.0000 20.3954
#
#
#
# Elastic Compliance Matrix: (Units=1/GPa)
#
#
# Indices 1 2 3 4 5 6 
#
# 1 0.012295 -0.000490 -0.004583 0.000000 0.000000 0.000000
# 2 -0.000490 0.015566 -0.001463 0.000000 0.000000 0.000000
# 3 -0.004583 -0.001463 0.007930 0.000000 0.000000 0.000000
# 4 0.000000 0.000000 0.000000 0.020786 0.000000 0.000000
# 5 0.000000 0.000000 0.000000 0.000000 0.025261 0.000000
# 6 0.000000 0.000000 0.000000 0.000000 0.000000 0.049031
#
#
# Mechanical properties :
#
#
# Convention : Reuss Voigt Hill
#
# Bulk Modulus (GPa) = 44.01543 57.16290 50.58917
# Shear Modulus (GPa) = 33.00070 38.11669 35.55869
#
# Velocity S-wave (km/s) = 3.87942 4.16929 4.02696
# Velocity P-wave (km/s) = 6.33558 7.01757 6.68528
#
# Compressibility (1/GPa) = 0.02271931
#
# Stress axis : x y z
#
# Youngs Moduli (GPa) = 81.33291 64.24406 126.10854
#
# Poissons Ratio (x) = 0.03146 0.57793
# Poissons Ratio (y) = 0.03982 0.18452
# Poissons Ratio (z) = 0.37273 0.09400
#
# Static dielectric constant tensor:
#      x y z
#    x 1.805830 0.000000 0.000000 
#    y 0.000000 1.781910 0.000000 
#    z 0.000000 0.000000 1.817690 
# 
# From -- ./inp_files/31533.got.cif
#   From: 2010.05.17/outbox.cif.g08.bks.cpg/sg22_16_cif.got.tgz:31533.got - 2010.06.03 23:40:54.
