data_PCOD9327954
_publ_section_title
;
Structure prediction by ZEFSAII (Michael W. Deem and Ramdas Pophale) SiO2 
 PCOD9327954
Probable space group: F 2 2 2
;
_chemical_formula_sum "Si O2"
_cell_formula_units_Z 116
_cell_length_a 9.336091
_cell_length_b 21.329505
_cell_length_c 28.947799
_cell_angle_alpha 90.000000
_cell_angle_beta 90.000000
_cell_angle_gamma 90.000000
_cell_volume 5764.496786
_symmetry_space_group_name_H-M "F 2 2 2"
_symmetry_group_IT_number 22
_symmetry_cell_setting 'orthorhombic'
loop_
_space_group_symop_operation_xyz
x,y,z
-x,-y,z
x,-y,-z
-x,y,-z
x,1/2+y,1/2+z
-x,1/2-y,1/2+z
x,1/2-y,1/2-z
-x,1/2+y,1/2-z
1/2+x,y,1/2+z
1/2-x,-y,1/2+z
1/2+x,-y,1/2-z
1/2-x,y,1/2-z
1/2+x,1/2+y,z
1/2-x,1/2-y,z
1/2+x,1/2-y,-z
1/2-x,1/2+y,-z
loop_
_atom_site_type_symbol
_atom_site_label
_atom_site_fract_x
_atom_site_fract_y
_atom_site_fract_z
Si Si1 0.006439 0.685618 0.632254
Si Si2 0.877363 0.701706 0.533328
Si Si3 0.160447 0.936023 0.021379
Si Si4 0.250000 0.750000 0.250000
Si Si5 0.580984 0.182869 0.170301
Si Si6 0.331478 0.488225 0.205390
Si Si7 0.740430 0.344440 0.697450
Si Si8 0.790682 0.083181 0.129196
O O1 0.973817 0.682160 0.577697
O O2 0.930927 0.750212 0.645498
O O3 0.925155 0.623110 0.648739
O O4 0.158005 0.686561 0.658391
O O5 0.750000 0.750000 0.543597
O O6 0.804076 0.637879 0.512895
O O7 0.000000 0.728434 0.500000
O O8 0.179543 0.938583 0.076858
O O9 0.000000 0.937424 0.000000
O O10 0.229161 0.000000 0.000000
O O11 0.340619 0.796972 0.217643
O O12 0.423144 0.158791 0.181882
O O13 0.663052 0.132594 0.138421
O O14 0.500000 0.500000 0.209978
O O15 0.250000 0.514520 0.250000
O O16 0.294196 0.415525 0.201370
O O17 0.273144 0.522993 0.160507
O O18 0.750000 0.318473 0.750000
#
# Coordination Sequence:
#
# PCOD9327954 Si02
#       8
#    16  16  16   4  16  16  16  16
#     4  11  21  44  65  94 132 175 222 278 341 412
#     4  10  22  40  68 101 135 173 222 279 353 429
#     4   9  20  38  68  99 127 165 230 288 341 412
#     4  12  24  40  70 100 136 204 226 280 350 440
#     4  12  25  39  65  99 137 179 232 279 346 411
#     4  11  26  41  63  90 132 182 230 288 338 411
#     4  11  26  42  60  94 136 179 237 288 331 399
#     4  11  23  39  68  97 131 175 228 285 341 427
#
# _framework density 20.123180000000001
#
# number of rings (size 3 to 8) (size 9 to 14) (size 15 to 20)
#    0.000    1.241    2.759    2.897    6.759    2.759 
#    0.000    0.000    0.000    3.724    0.000    3.862 
#    0.000    0.000    0.000    0.000    0.000    0.000 
#
# Total GULP energy -161561.111151 kJ/mol
# GULP energy per Si atom -5571.072798 kJ/mol
# Density = 2.007738 g / cm^3
# Si number density = 20.123180 Si / 1000 Ang^3
#
#
#
# Elastic Constant Matrix: (Units=GPa)
#
#
# Indices 1 2 3 4 5 6 
#
# 1 104.9770 38.8868 58.5675 0.0000 0.0000 0.0000
# 2 38.8868 119.0513 49.4233 0.0000 0.0000 0.0000
# 3 58.5675 49.4233 120.7036 0.0000 0.0000 0.0000
# 4 0.0000 0.0000 0.0000 18.7638 0.0000 0.0000
# 5 0.0000 0.0000 0.0000 0.0000 28.4736 0.0000
# 6 0.0000 0.0000 0.0000 0.0000 0.0000 18.2749
#
#
#
# Elastic Compliance Matrix: (Units=1/GPa)
#
#
# Indices 1 2 3 4 5 6 
#
# 1 0.013457 -0.002030 -0.005698 0.000000 0.000000 0.000000
# 2 -0.002030 0.010426 -0.003284 0.000000 0.000000 0.000000
# 3 -0.005698 -0.003284 0.012394 0.000000 0.000000 0.000000
# 4 0.000000 0.000000 0.000000 0.053294 0.000000 0.000000
# 5 0.000000 0.000000 0.000000 0.000000 0.035120 0.000000
# 6 0.000000 0.000000 0.000000 0.000000 0.000000 0.054720
#
#
# Mechanical properties :
#
#
# Convention : Reuss Voigt Hill
#
# Bulk Modulus (GPa) = 70.16221 70.94301 70.55261
# Shear Modulus (GPa) = 24.24972 26.29273 25.27122
#
# Velocity S-wave (km/s) = 3.47517 3.61860 3.54761
# Velocity P-wave (km/s) = 7.14454 7.26567 7.20536
#
# Compressibility (1/GPa) = 0.01425269
#
# Stress axis : x y z
#
# Youngs Moduli (GPa) = 74.31055 95.91230 80.68127
#
# Poissons Ratio (x) = 0.19470 0.45976
# Poissons Ratio (y) = 0.15085 0.26497
# Poissons Ratio (z) = 0.42345 0.31499
#
# Static dielectric constant tensor:
#      x y z
#    x 1.712450 0.000000 0.000000 
#    y 0.000000 1.750690 0.000000 
#    z 0.000000 0.000000 1.808540 
# 
# From -- ./inp_files/52134.got.cif
#   From: 2010.05.17/outbox.cif.g08.bks.cpg/sg22_27_cif.got.tgz:52134.got - 2010.06.03 23:40:54.
