data_PCOD9327456
_publ_section_title
;
Structure prediction by ZEFSAII (Michael W. Deem and Ramdas Pophale) SiO2 
 PCOD9327456
Probable space group: F 2 2 2
;
_chemical_formula_sum "Si O2"
_cell_formula_units_Z 52
_cell_length_a 6.919854
_cell_length_b 14.839888
_cell_length_c 18.094349
_cell_angle_alpha 90.000000
_cell_angle_beta 90.000000
_cell_angle_gamma 90.000000
_cell_volume 1858.106135
_symmetry_space_group_name_H-M "F 2 2 2"
_symmetry_group_IT_number 22
_symmetry_cell_setting 'orthorhombic'
loop_
_space_group_symop_operation_xyz
x,y,z
-x,-y,z
x,-y,-z
-x,y,-z
x,1/2+y,1/2+z
-x,1/2-y,1/2+z
x,1/2-y,1/2-z
-x,1/2+y,1/2-z
1/2+x,y,1/2+z
1/2-x,-y,1/2+z
1/2+x,-y,1/2-z
1/2-x,y,1/2-z
1/2+x,1/2+y,z
1/2-x,1/2-y,z
1/2+x,1/2-y,-z
1/2-x,1/2+y,-z
loop_
_atom_site_type_symbol
_atom_site_label
_atom_site_fract_x
_atom_site_fract_y
_atom_site_fract_z
Si Si1 0.275392 0.852726 0.506719
Si Si2 0.702502 0.108698 0.670838
Si Si3 0.750000 0.250000 0.250000
Si Si4 0.261754 0.093393 0.852854
O O1 0.500000 0.878854 0.500000
O O2 0.250000 0.750000 0.482285
O O3 0.219806 0.855870 0.592344
O O4 0.183736 0.907282 0.439306
O O5 0.750000 0.150836 0.750000
O O6 0.470516 0.108348 0.658586
O O7 0.787945 0.007540 0.674869
O O8 0.652164 0.177422 0.193280
#
# Coordination Sequence:
#
# PCOD9327456 Si02
#       4
#    16  16   4  16
#     4  10  21  38  61  88 123 161 207 252 309 365
#     4  10  21  38  60  89 122 158 203 250 304 365
#     4  12  20  36  66  84 112 156 208 246 292 368
#     4  10  21  38  61  88 120 161 200 252 309 361
#
# _framework density 27.985482999999999
#
# number of rings (size 3 to 8) (size 9 to 14) (size 15 to 20)
#    0.000    1.846    3.077    0.923    0.000    9.231 
#    0.000    0.000    0.000    1.846    0.000    0.000 
#    0.000    0.000    0.000    0.000    0.000    0.000 
#
# Total GULP energy -72666.937829 kJ/mol
# GULP energy per Si atom -5589.764448 kJ/mol
# Density = 2.792179 g / cm^3
# Si number density = 27.985483 Si / 1000 Ang^3
#
#
#
# Elastic Constant Matrix: (Units=GPa)
#
#
# Indices 1 2 3 4 5 6 
#
# 1 148.0119 -28.1218 17.0038 0.0000 0.0000 0.0000
# 2 -28.1218 148.1506 48.3132 0.0000 0.0000 0.0000
# 3 17.0038 48.3132 316.3463 0.0000 0.0000 0.0000
# 4 0.0000 0.0000 0.0000 71.7553 0.0000 0.0000
# 5 0.0000 0.0000 0.0000 0.0000 37.6994 0.0000
# 6 0.0000 0.0000 0.0000 0.0000 0.0000 2.1999
#
#
#
# Elastic Compliance Matrix: (Units=1/GPa)
#
#
# Indices 1 2 3 4 5 6 
#
# 1 0.007123 0.001554 -0.000620 0.000000 0.000000 0.000000
# 2 0.001554 0.007443 -0.001220 0.000000 0.000000 0.000000
# 3 -0.000620 -0.001220 0.003381 0.000000 0.000000 0.000000
# 4 0.000000 0.000000 0.000000 0.013936 0.000000 0.000000
# 5 0.000000 0.000000 0.000000 0.000000 0.026526 0.000000
# 6 0.000000 0.000000 0.000000 0.000000 0.000000 0.454566
#
#
# Mechanical properties :
#
#
# Convention : Reuss Voigt Hill
#
# Bulk Modulus (GPa) = 57.55697 76.32214 66.93955
# Shear Modulus (GPa) = 9.62764 60.68515 35.15640
#
# Velocity S-wave (km/s) = 1.85680 4.66171 3.54819
# Velocity P-wave (km/s) = 5.02079 7.50378 6.38416
#
# Compressibility (1/GPa) = 0.01737409
#
# Stress axis : x y z
#
# Youngs Moduli (GPa) = 140.39468 134.35702 295.78905
#
# Poissons Ratio (x) = -0.20883 0.18346
# Poissons Ratio (y) = -0.21822 0.36093
# Poissons Ratio (z) = 0.08708 0.16395
#
# Static dielectric constant tensor:
#      x y z
#    x 2.272990 0.000000 0.000000 
#    y 0.000000 2.076770 0.000000 
#    z 0.000000 0.000000 2.135170 
# 
# From -- ./inp_files/9465.got.cif
#   From: 2010.05.17/outbox.cif.g08.bks.cpg/sg22_5_cif.got.tgz:9465.got - 2010.06.03 23:40:54.
