data_PCOD9327806
_publ_section_title
;
Structure prediction by ZEFSAII (Michael W. Deem and Ramdas Pophale) SiO2 
 PCOD9327806
Probable space group: F 2 2 2
;
_chemical_formula_sum "Si O2"
_cell_formula_units_Z 96
_cell_length_a 18.507836
_cell_length_b 16.552031
_cell_length_c 14.997770
_cell_angle_alpha 90.000000
_cell_angle_beta 90.000000
_cell_angle_gamma 90.000000
_cell_volume 4594.450985
_symmetry_space_group_name_H-M "F 2 2 2"
_symmetry_group_IT_number 22
_symmetry_cell_setting 'orthorhombic'
loop_
_space_group_symop_operation_xyz
x,y,z
-x,-y,z
x,-y,-z
-x,y,-z
x,1/2+y,1/2+z
-x,1/2-y,1/2+z
x,1/2-y,1/2-z
-x,1/2+y,1/2-z
1/2+x,y,1/2+z
1/2-x,-y,1/2+z
1/2+x,-y,1/2-z
1/2-x,y,1/2-z
1/2+x,1/2+y,z
1/2-x,1/2-y,z
1/2+x,1/2-y,-z
1/2-x,1/2+y,-z
loop_
_atom_site_type_symbol
_atom_site_label
_atom_site_fract_x
_atom_site_fract_y
_atom_site_fract_z
Si Si1 0.519399 0.834622 0.604029
Si Si2 0.429290 0.343176 0.590296
Si Si3 0.422508 0.427921 0.428973
Si Si4 0.727676 0.840777 0.852271
Si Si5 0.847592 0.546021 0.592797
Si Si6 0.927607 0.056870 0.770426
O O1 0.500000 0.847434 0.500000
O O2 0.535542 0.740699 0.616646
O O3 0.593619 0.884189 0.612522
O O4 0.460314 0.867206 0.674147
O O5 0.403832 0.348174 0.486858
O O6 0.491876 0.410729 0.592761
O O7 0.357708 0.355399 0.645424
O O8 0.403719 0.500000 0.500000
O O9 0.395327 0.433486 0.328789
O O10 0.750000 0.845640 0.750000
O O11 0.750000 0.750000 0.883825
O O12 0.770781 0.909822 0.904651
O O13 0.860495 0.500000 0.500000
O O14 0.865240 0.482402 0.669878
O O15 0.000000 0.000000 0.766974
#
# Coordination Sequence:
#
# PCOD9327806 Si02
#       6
#    16  16  16  16  16  16
#     4  11  20  38  63  97 130 160 213 271 329 393
#     4  11  22  40  64  89 130 172 210 270 330 378
#     4  11  24  40  64  96 128 164 220 281 325 381
#     4  11  26  42  62  89 127 172 219 263 316 400
#     4  11  23  41  62  91 129 171 209 261 333 391
#     4  10  22  35  63  94 127 162 204 271 328 386
#
# _framework density 20.894770000000001
#
# number of rings (size 3 to 8) (size 9 to 14) (size 15 to 20)
#    0.000    1.167    5.000    3.000    7.000    2.000 
#    0.000    0.000    0.000    0.000    0.000    1.167 
#    0.000    0.000    0.000    0.000    0.000    0.000 
#
# Total GULP energy -133818.267050 kJ/mol
# GULP energy per Si atom -5575.761127 kJ/mol
# Density = 2.084721 g / cm^3
# Si number density = 20.894770 Si / 1000 Ang^3
#
#
#
# Elastic Constant Matrix: (Units=GPa)
#
#
# Indices 1 2 3 4 5 6 
#
# 1 52.5820 32.9845 25.0397 0.0000 0.0000 0.0000
# 2 32.9845 107.3728 45.5266 0.0000 0.0000 0.0000
# 3 25.0397 45.5266 145.8308 0.0000 0.0000 0.0000
# 4 0.0000 0.0000 0.0000 15.9075 0.0000 0.0000
# 5 0.0000 0.0000 0.0000 0.0000 25.2077 0.0000
# 6 0.0000 0.0000 0.0000 0.0000 0.0000 18.0054
#
#
#
# Elastic Compliance Matrix: (Units=1/GPa)
#
#
# Indices 1 2 3 4 5 6 
#
# 1 0.024106 -0.006512 -0.002106 0.000000 0.000000 0.000000
# 2 -0.006512 0.012494 -0.002782 0.000000 0.000000 0.000000
# 3 -0.002106 -0.002782 0.008087 0.000000 0.000000 0.000000
# 4 0.000000 0.000000 0.000000 0.062863 0.000000 0.000000
# 5 0.000000 0.000000 0.000000 0.000000 0.039670 0.000000
# 6 0.000000 0.000000 0.000000 0.000000 0.000000 0.055539
#
#
# Mechanical properties :
#
#
# Convention : Reuss Voigt Hill
#
# Bulk Modulus (GPa) = 45.69131 56.98747 51.33939
# Shear Modulus (GPa) = 21.47252 25.30645 23.38948
#
# Velocity S-wave (km/s) = 3.20918 3.48392 3.34936
# Velocity P-wave (km/s) = 5.97047 6.59669 6.29138
#
# Compressibility (1/GPa) = 0.02188600
#
# Stress axis : x y z
#
# Youngs Moduli (GPa) = 41.48352 80.04143 123.64877
#
# Poissons Ratio (x) = 0.52125 0.26041
# Poissons Ratio (y) = 0.27015 0.34401
# Poissons Ratio (z) = 0.08737 0.22269
#
# Static dielectric constant tensor:
#      x y z
#    x 1.785580 0.000000 0.000000 
#    y 0.000000 1.818660 0.000000 
#    z 0.000000 0.000000 1.843040 
# 
# From -- ./inp_files/31518.got.cif
#   From: 2010.05.17/outbox.cif.g08.bks.cpg/sg22_16_cif.got.tgz:31518.got - 2010.06.03 23:40:54.
