data_PCOD9327414
_publ_section_title
;
Structure prediction by ZEFSAII (Michael W. Deem and Ramdas Pophale) SiO2 
 PCOD9327414
Probable space group: F 2 2 2
;
_chemical_formula_sum "Si O2"
_cell_formula_units_Z 104
_cell_length_a 7.903129
_cell_length_b 21.714127
_cell_length_c 29.236486
_cell_angle_alpha 90.000000
_cell_angle_beta 90.000000
_cell_angle_gamma 90.000000
_cell_volume 5017.260113
_symmetry_space_group_name_H-M "F 2 2 2"
_symmetry_group_IT_number 22
_symmetry_cell_setting 'orthorhombic'
loop_
_space_group_symop_operation_xyz
x,y,z
-x,-y,z
x,-y,-z
-x,y,-z
x,1/2+y,1/2+z
-x,1/2-y,1/2+z
x,1/2-y,1/2-z
-x,1/2+y,1/2-z
1/2+x,y,1/2+z
1/2-x,-y,1/2+z
1/2+x,-y,1/2-z
1/2-x,y,1/2-z
1/2+x,1/2+y,z
1/2-x,1/2-y,z
1/2+x,1/2-y,-z
1/2-x,1/2+y,-z
loop_
_atom_site_type_symbol
_atom_site_label
_atom_site_fract_x
_atom_site_fract_y
_atom_site_fract_z
Si Si1 0.750000 0.750000 0.843650
Si Si2 0.511567 0.391580 0.450303
Si Si3 0.782914 0.871625 0.196497
Si Si4 0.809039 0.378486 0.301385
Si Si5 0.311009 0.002140 0.344858
Si Si6 0.597962 0.209648 0.878456
Si Si7 0.245141 0.996446 0.050880
O O1 0.735861 0.812400 0.814842
O O2 0.571543 0.750261 0.870456
O O3 0.500000 0.360600 0.500000
O O4 0.458405 0.345835 0.410997
O O5 0.386929 0.450266 0.452704
O O6 0.689148 0.426324 0.443785
O O7 0.750000 0.864583 0.250000
O O8 0.684123 0.820498 0.166899
O O9 0.987799 0.870524 0.191621
O O10 0.724237 0.938840 0.177939
O O11 0.750000 0.392871 0.250000
O O12 0.741168 0.434887 0.332463
O O13 0.327567 0.011638 0.399195
O O14 0.500000 0.000000 0.324498
O O15 0.750000 0.250000 0.899262
O O16 0.167363 0.000000 0.000000
#
# Coordination Sequence:
#
# PCOD9327414 Si02
#       7
#     8  16  16  16  16  16  16
#     4  12  25  42  64  94 128 174 226 268 323 394
#     4   9  19  38  64  93 124 163 215 274 331 395
#     4  11  23  41  64  94 128 176 222 271 339 391
#     4  11  23  41  60  92 133 171 222 276 322 393
#     4  10  21  37  61  91 132 167 212 274 337 391
#     4  12  24  44  68  92 135 176 222 271 332 399
#     4   9  17  34  63  94 120 158 215 268 335 394
#
# _framework density 20.728446000000002
#
# number of rings (size 3 to 8) (size 9 to 14) (size 15 to 20)
#    0.000    1.538    3.077    3.462    0.000    0.615 
#    1.385    0.000    0.000    0.000    0.000    0.000 
#    0.000    0.000    0.000    0.000    0.000    0.000 
#
# Total GULP energy -144852.911033 kJ/mol
# GULP energy per Si atom -5571.265809 kJ/mol
# Density = 2.068127 g / cm^3
# Si number density = 20.728446 Si / 1000 Ang^3
#
#
#
# Elastic Constant Matrix: (Units=GPa)
#
#
# Indices 1 2 3 4 5 6 
#
# 1 76.8060 8.3424 11.2804 0.0000 0.0000 0.0000
# 2 8.3424 88.1866 26.1520 0.0000 0.0000 0.0000
# 3 11.2804 26.1520 104.8151 0.0000 0.0000 0.0000
# 4 0.0000 0.0000 0.0000 -7.0425 0.0000 0.0000
# 5 0.0000 0.0000 0.0000 0.0000 65.8509 0.0000
# 6 0.0000 0.0000 0.0000 0.0000 0.0000 -4.8631
#
#
#
# Elastic Compliance Matrix: (Units=1/GPa)
#
#
# Indices 1 2 3 4 5 6 
#
# 1 0.013295 -0.000900 -0.001206 0.000000 0.000000 0.000000
# 2 -0.000900 0.012307 -0.002974 0.000000 0.000000 0.000000
# 3 -0.001206 -0.002974 0.010412 0.000000 0.000000 0.000000
# 4 0.000000 0.000000 0.000000 -0.141994 0.000000 0.000000
# 5 0.000000 0.000000 0.000000 0.000000 0.015186 0.000000
# 6 0.000000 0.000000 0.000000 0.000000 0.000000 -0.205630
#
#
# Mechanical properties :
#
#
# Convention : Reuss Voigt Hill
#
# Bulk Modulus (GPa) = 38.67893 40.15080 39.41487
# Shear Modulus (GPa) = -18.00845 25.72458 3.85807
#
# Velocity S-wave (km/s) = -2.95070 3.52664 1.36575
# Velocity P-wave (km/s) = 2.66298 5.99958 4.64146
#
# Compressibility (1/GPa) = 0.02585387
#
# Stress axis : x y z
#
# Youngs Moduli (GPa) = 75.21776 81.25725 96.03941
#
# Poissons Ratio (x) = 0.07313 0.11585
# Poissons Ratio (y) = 0.06769 0.28559
# Poissons Ratio (z) = 0.09073 0.24164
#
# Static dielectric constant tensor:
#      x y z
#    x 2.104590 0.000000 0.000000 
#    y 0.000000 1.720580 0.000000 
#    z 0.000000 0.000000 1.738370 
# 
# From -- ./inp_files/51986.got.cif
#   From: 2010.05.17/outbox.cif.g08.bks.cpg/sg22_26_cif.got.tgz:51986.got - 2010.06.03 23:40:54.
