data_PCOD9327469
_publ_section_title
;
Structure prediction by ZEFSAII (Michael W. Deem and Ramdas Pophale) SiO2 
 PCOD9327469
Probable space group: F 2 2 2
;
_chemical_formula_sum "Si O2"
_cell_formula_units_Z 64
_cell_length_a 11.885118
_cell_length_b 13.853596
_cell_length_c 19.815906
_cell_angle_alpha 90.000000
_cell_angle_beta 90.000000
_cell_angle_gamma 90.000000
_cell_volume 3262.721088
_symmetry_space_group_name_H-M "F 2 2 2"
_symmetry_group_IT_number 22
_symmetry_cell_setting 'orthorhombic'
loop_
_space_group_symop_operation_xyz
x,y,z
-x,-y,z
x,-y,-z
-x,y,-z
x,1/2+y,1/2+z
-x,1/2-y,1/2+z
x,1/2-y,1/2-z
-x,1/2+y,1/2-z
1/2+x,y,1/2+z
1/2-x,-y,1/2+z
1/2+x,-y,1/2-z
1/2-x,y,1/2-z
1/2+x,1/2+y,z
1/2-x,1/2-y,z
1/2+x,1/2-y,-z
1/2-x,1/2+y,-z
loop_
_atom_site_type_symbol
_atom_site_label
_atom_site_fract_x
_atom_site_fract_y
_atom_site_fract_z
Si Si1 0.984814 0.750000 0.250000
Si Si2 0.857065 0.181119 0.621159
Si Si3 0.188361 0.646876 0.314421
Si Si4 0.000000 0.148840 0.500000
Si Si5 0.706645 0.471174 0.430786
O O1 0.913953 0.804336 0.306621
O O2 0.064026 0.674505 0.290447
O O3 0.750000 0.250000 0.618178
O O4 0.938038 0.207572 0.558437
O O5 0.830117 0.068845 0.607024
O O6 0.250000 0.598747 0.250000
O O7 0.250000 0.750000 0.323719
O O8 0.214632 0.588612 0.381260
O O9 0.904341 0.087175 0.458552
O O10 0.767499 0.500000 0.500000
#
# Coordination Sequence:
#
# PCOD9327469 Si02
#       5
#     8  16  16   8  16
#     4  10  22  40  60  84 120 162 196 244 304 348
#     4  11  23  38  58  90 125 156 196 247 300 356
#     4   9  19  36  61  87 112 151 204 248 287 351
#     4  10  21  40  66  88 115 160 205 246 300 356
#     4  10  21  38  62  91 118 154 200 246 297 357
#
# _framework density 19.615528999999999
#
# number of rings (size 3 to 8) (size 9 to 14) (size 15 to 20)
#    0.000    2.250    0.000    6.750    0.000   10.000 
#    0.000    6.250    0.000    4.500    0.000    0.000 
#    0.000    0.000    0.000    0.000    0.000    0.000 
#
# Total GULP energy -89205.260560 kJ/mol
# GULP energy per Si atom -5575.328785 kJ/mol
# Density = 1.957088 g / cm^3
# Si number density = 19.615529 Si / 1000 Ang^3
#
#
#
# Elastic Constant Matrix: (Units=GPa)
#
#
# Indices 1 2 3 4 5 6 
#
# 1 87.9619 47.3399 80.5744 0.0000 0.0000 0.0000
# 2 47.3399 52.3148 84.1762 0.0000 0.0000 0.0000
# 3 80.5744 84.1762 212.0352 0.0000 0.0000 0.0000
# 4 0.0000 0.0000 0.0000 42.0821 0.0000 0.0000
# 5 0.0000 0.0000 0.0000 0.0000 6.6577 0.0000
# 6 0.0000 0.0000 0.0000 0.0000 0.0000 20.7227
#
#
#
# Elastic Compliance Matrix: (Units=1/GPa)
#
#
# Indices 1 2 3 4 5 6 
#
# 1 0.022286 -0.018106 -0.001281 0.000000 0.000000 0.000000
# 2 -0.018106 0.067626 -0.019967 0.000000 0.000000 0.000000
# 3 -0.001281 -0.019967 0.013130 0.000000 0.000000 0.000000
# 4 0.000000 0.000000 0.000000 0.023763 0.000000 0.000000
# 5 0.000000 0.000000 0.000000 0.000000 0.150202 0.000000
# 6 0.000000 0.000000 0.000000 0.000000 0.000000 0.048256
#
#
# Mechanical properties :
#
#
# Convention : Reuss Voigt Hill
#
# Bulk Modulus (GPa) = 41.09296 86.27699 63.68498
# Shear Modulus (GPa) = 12.13349 23.24058 17.68704
#
# Velocity S-wave (km/s) = 2.48980 3.44583 3.00607
# Velocity P-wave (km/s) = 5.40926 7.74023 6.67725
#
# Compressibility (1/GPa) = 0.02433507
#
# Stress axis : x y z
#
# Youngs Moduli (GPa) = 44.87065 14.78718 76.16333
#
# Poissons Ratio (x) = 0.26773 0.09757
# Poissons Ratio (y) = 0.81241 1.52074
# Poissons Ratio (z) = 0.05748 0.29525
#
# Static dielectric constant tensor:
#      x y z
#    x 1.718100 0.000000 0.000000 
#    y 0.000000 1.703450 0.000000 
#    z 0.000000 0.000000 1.714200 
# 
# From -- ./inp_files/27833.got.cif
#   From: 2010.05.17/outbox.cif.g08.bks.cpg/sg22_14_cif.got.tgz:27833.got - 2010.06.03 23:40:54.
