data_PCOD9327962
_publ_section_title
;
Structure prediction by ZEFSAII (Michael W. Deem and Ramdas Pophale) SiO2 
 PCOD9327962
Probable space group: F 2 2 2
;
_chemical_formula_sum "Si O2"
_cell_formula_units_Z 56
_cell_length_a 8.330460
_cell_length_b 22.655112
_cell_length_c 11.749701
_cell_angle_alpha 90.000000
_cell_angle_beta 90.000000
_cell_angle_gamma 90.000000
_cell_volume 2217.491746
_symmetry_space_group_name_H-M "F 2 2 2"
_symmetry_group_IT_number 22
_symmetry_cell_setting 'orthorhombic'
loop_
_space_group_symop_operation_xyz
x,y,z
-x,-y,z
x,-y,-z
-x,y,-z
x,1/2+y,1/2+z
-x,1/2-y,1/2+z
x,1/2-y,1/2-z
-x,1/2+y,1/2-z
1/2+x,y,1/2+z
1/2-x,-y,1/2+z
1/2+x,-y,1/2-z
1/2-x,y,1/2-z
1/2+x,1/2+y,z
1/2-x,1/2-y,z
1/2+x,1/2-y,-z
1/2-x,1/2+y,-z
loop_
_atom_site_type_symbol
_atom_site_label
_atom_site_fract_x
_atom_site_fract_y
_atom_site_fract_z
Si Si1 0.058518 0.128727 0.762136
Si Si2 0.500000 0.607161 0.000000
Si Si3 0.000000 0.500000 0.194770
Si Si4 0.242466 0.500000 0.500000
Si Si5 0.067676 0.226963 0.372629
O O1 0.250000 0.137431 0.750000
O O2 0.003706 0.147589 0.888177
O O3 0.017645 0.059348 0.764547
O O4 0.959384 0.157733 0.659382
O O5 0.647262 0.561502 0.997261
O O6 0.848516 0.502326 0.112370
O O7 0.991961 0.250000 0.250000
O O8 0.250000 0.250000 0.373403
O O9 0.000000 0.234534 0.500000
#
# Coordination Sequence:
#
# PCOD9327962 Si02
#       5
#    16   8   8   8  16
#     4  12  28  47  83 122 171 219 274 347 421 503
#     4  11  24  44  74 114 160 222 268 327 418 482
#     4  11  24  45  70 124 172 209 271 332 418 500
#     4  10  22  40  70 108 170 222 270 320 394 512
#     4  11  31  57  87 122 160 221 288 357 422 498
#
# _framework density 25.25376
#
# number of rings (size 3 to 8) (size 9 to 14) (size 15 to 20)
#    0.000    0.857    2.857    1.714   10.000    6.857 
#    0.000    0.000    0.000    0.000    0.000    0.000 
#    0.000    0.000    0.000    0.000    0.000    0.000 
#
# Total GULP energy -78352.740020 kJ/mol
# GULP energy per Si atom -5596.624287 kJ/mol
# Density = 2.519628 g / cm^3
# Si number density = 25.253760 Si / 1000 Ang^3
#
#
#
# Elastic Constant Matrix: (Units=GPa)
#
#
# Indices 1 2 3 4 5 6 
#
# 1 132.3393 37.6072 66.4514 0.0000 0.0000 0.0000
# 2 37.6072 91.2575 66.8956 0.0000 0.0000 0.0000
# 3 66.4514 66.8956 262.4217 0.0000 0.0000 0.0000
# 4 0.0000 0.0000 0.0000 55.5608 0.0000 0.0000
# 5 0.0000 0.0000 0.0000 0.0000 52.3332 0.0000
# 6 0.0000 0.0000 0.0000 0.0000 0.0000 20.1308
#
#
#
# Elastic Compliance Matrix: (Units=1/GPa)
#
#
# Indices 1 2 3 4 5 6 
#
# 1 0.009111 -0.002538 -0.001660 0.000000 0.000000 0.000000
# 2 -0.002538 0.014183 -0.002973 0.000000 0.000000 0.000000
# 3 -0.001660 -0.002973 0.004989 0.000000 0.000000 0.000000
# 4 0.000000 0.000000 0.000000 0.017998 0.000000 0.000000
# 5 0.000000 0.000000 0.000000 0.000000 0.019108 0.000000
# 6 0.000000 0.000000 0.000000 0.000000 0.000000 0.049675
#
#
# Mechanical properties :
#
#
# Convention : Reuss Voigt Hill
#
# Bulk Modulus (GPa) = 71.72852 91.99188 81.86020
# Shear Modulus (GPa) = 37.29853 46.60925 41.95389
#
# Velocity S-wave (km/s) = 3.84728 4.30075 4.08032
# Velocity P-wave (km/s) = 6.94263 7.82100 7.39487
#
# Compressibility (1/GPa) = 0.01394146
#
# Stress axis : x y z
#
# Youngs Moduli (GPa) = 109.75582 70.50677 200.44431
#
# Poissons Ratio (x) = 0.17892 0.33279
# Poissons Ratio (y) = 0.27852 0.59590
# Poissons Ratio (z) = 0.18222 0.20961
#
# Static dielectric constant tensor:
#      x y z
#    x 1.963530 0.000000 0.000000 
#    y 0.000000 2.310690 0.000000 
#    z 0.000000 0.000000 2.001630 
# 
# From -- ./inp_files/16824.got.cif
#   From: 2010.05.17/outbox.cif.g08.bks.cpg/sg22_9_cif.got.tgz:16824.got - 2010.06.03 23:40:54.
