data_PCOD9327421
_publ_section_title
;
Structure prediction by ZEFSAII (Michael W. Deem and Ramdas Pophale) SiO2 
 PCOD9327421
Probable space group: F 2 2 2
;
_chemical_formula_sum "Si O2"
_cell_formula_units_Z 100
_cell_length_a 30.533933
_cell_length_b 18.553652
_cell_length_c 9.124869
_cell_angle_alpha 90.000000
_cell_angle_beta 90.000000
_cell_angle_gamma 90.000000
_cell_volume 5169.383986
_symmetry_space_group_name_H-M "F 2 2 2"
_symmetry_group_IT_number 22
_symmetry_cell_setting 'orthorhombic'
loop_
_space_group_symop_operation_xyz
x,y,z
-x,-y,z
x,-y,-z
-x,y,-z
x,1/2+y,1/2+z
-x,1/2-y,1/2+z
x,1/2-y,1/2-z
-x,1/2+y,1/2-z
1/2+x,y,1/2+z
1/2-x,-y,1/2+z
1/2+x,-y,1/2-z
1/2-x,y,1/2-z
1/2+x,1/2+y,z
1/2-x,1/2-y,z
1/2+x,1/2-y,-z
1/2-x,1/2+y,-z
loop_
_atom_site_type_symbol
_atom_site_label
_atom_site_fract_x
_atom_site_fract_y
_atom_site_fract_z
Si Si1 0.250000 0.250000 0.250000
Si Si2 0.221038 0.500000 0.500000
Si Si3 0.160334 0.670744 0.315493
Si Si4 0.250000 0.907490 0.250000
Si Si5 0.493314 0.419278 0.323057
Si Si6 0.823803 0.639665 0.361508
Si Si7 0.407873 0.671886 0.675262
Si Si8 0.577226 0.672176 0.674585
O O1 0.217016 0.305915 0.331716
O O2 0.251820 0.456534 0.608187
O O3 0.192959 0.440925 0.406383
O O4 0.161453 0.750000 0.250000
O O5 0.206365 0.637053 0.273204
O O6 0.154624 0.669433 0.489309
O O7 0.119306 0.631883 0.241711
O O8 0.500000 0.500000 0.266072
O O9 0.500000 0.422507 0.500000
O O10 0.446759 0.383894 0.283741
O O11 0.533282 0.368219 0.280954
O O12 0.860072 0.644916 0.232763
O O13 0.414839 0.750000 0.750000
O O14 0.413562 0.678722 0.499193
O O15 0.574465 0.750000 0.750000
#
# Coordination Sequence:
#
# PCOD9327421 Si02
#       8
#     4   8  16   8  16  16  16  16
#     4  12  26  40  70  94 132 170 230 276 322 414
#     4  10  24  42  58  90 131 166 213 266 326 400
#     4  10  22  37  60  86 118 151 206 256 307 371
#     4  10  22  38  58  80 120 164 198 252 317 377
#     4   9  20  38  60  90 124 164 210 257 313 383
#     4  11  25  41  63  92 126 170 212 271 327 389
#     4  11  21  39  65  91 124 166 212 259 324 384
#     4  10  21  37  62  91 124 158 205 263 311 375
#
# _framework density 19.344664000000002
#
# number of rings (size 3 to 8) (size 9 to 14) (size 15 to 20)
#    0.000    1.760    0.800    3.120    4.480    3.840 
#    0.000    4.000    0.000    3.840    0.000    0.000 
#    0.000    0.000    0.000    0.000    0.000    0.000 
#
# Total GULP energy -139337.440721 kJ/mol
# GULP energy per Si atom -5573.497629 kJ/mol
# Density = 1.930063 g / cm^3
# Si number density = 19.344664 Si / 1000 Ang^3
#
#
#
# Elastic Constant Matrix: (Units=GPa)
#
#
# Indices 1 2 3 4 5 6 
#
# 1 121.6855 40.1691 40.8273 0.0000 0.0000 0.0000
# 2 40.1691 94.0788 27.3264 0.0000 0.0000 0.0000
# 3 40.8273 27.3264 81.2459 0.0000 0.0000 0.0000
# 4 0.0000 0.0000 0.0000 17.6228 0.0000 0.0000
# 5 0.0000 0.0000 0.0000 0.0000 38.6247 0.0000
# 6 0.0000 0.0000 0.0000 0.0000 0.0000 -59.9633
#
#
#
# Elastic Compliance Matrix: (Units=1/GPa)
#
#
# Indices 1 2 3 4 5 6 
#
# 1 0.010760 -0.003351 -0.004280 0.000000 0.000000 0.000000
# 2 -0.003351 0.012824 -0.002629 0.000000 0.000000 0.000000
# 3 -0.004280 -0.002629 0.015343 0.000000 0.000000 0.000000
# 4 0.000000 0.000000 0.000000 0.056745 0.000000 0.000000
# 5 0.000000 0.000000 0.000000 0.000000 0.025890 0.000000
# 6 0.000000 0.000000 0.000000 0.000000 0.000000 -0.016677
#
#
# Mechanical properties :
#
#
# Convention : Reuss Voigt Hill
#
# Bulk Modulus (GPa) = 54.32790 57.07286 55.70038
# Shear Modulus (GPa) = 38.01076 11.83600 24.92338
#
# Velocity S-wave (km/s) = 4.43755 2.47624 3.59330
# Velocity P-wave (km/s) = 7.37570 6.14352 6.78763
#
# Compressibility (1/GPa) = 0.01840675
#
# Stress axis : x y z
#
# Youngs Moduli (GPa) = 92.93558 77.97926 65.17458
#
# Poissons Ratio (x) = 0.26132 0.27895
# Poissons Ratio (y) = 0.31144 0.17136
# Poissons Ratio (z) = 0.39777 0.20503
#
# Static dielectric constant tensor:
#      x y z
#    x 1.716930 0.000000 0.000000 
#    y 0.000000 1.615560 0.000000 
#    z 0.000000 0.000000 1.672940 
# 
# From -- ./inp_files/14840.got.cif
#   From: 2010.05.17/outbox.cif.g08.bks.cpg/sg22_8_cif.got.tgz:14840.got - 2010.06.03 23:40:54.
