data_PCOD9327699
_publ_section_title
;
Structure prediction by ZEFSAII (Michael W. Deem and Ramdas Pophale) SiO2 
 PCOD9327699
Probable space group: F 2 2 2
;
_chemical_formula_sum "Si O2"
_cell_formula_units_Z 68
_cell_length_a 26.938760
_cell_length_b 9.849964
_cell_length_c 11.700995
_cell_angle_alpha 90.000000
_cell_angle_beta 90.000000
_cell_angle_gamma 90.000000
_cell_volume 3104.810069
_symmetry_space_group_name_H-M "F 2 2 2"
_symmetry_group_IT_number 22
_symmetry_cell_setting 'orthorhombic'
loop_
_space_group_symop_operation_xyz
x,y,z
-x,-y,z
x,-y,-z
-x,y,-z
x,1/2+y,1/2+z
-x,1/2-y,1/2+z
x,1/2-y,1/2-z
-x,1/2+y,1/2-z
1/2+x,y,1/2+z
1/2-x,-y,1/2+z
1/2+x,-y,1/2-z
1/2-x,y,1/2-z
1/2+x,1/2+y,z
1/2-x,1/2-y,z
1/2+x,1/2-y,-z
1/2-x,1/2+y,-z
loop_
_atom_site_type_symbol
_atom_site_label
_atom_site_fract_x
_atom_site_fract_y
_atom_site_fract_z
Si Si1 0.500000 0.500000 0.000000
Si Si2 0.862546 0.053602 0.794013
Si Si3 0.785856 0.000000 0.500000
Si Si4 0.124091 0.683148 0.935169
Si Si5 0.074605 0.190673 0.866739
Si Si6 0.750000 0.013162 0.750000
O O1 0.534893 0.406797 0.076577
O O2 0.875332 0.162708 0.890127
O O3 0.889743 0.094088 0.675736
O O4 0.877622 0.903413 0.832941
O O5 0.804351 0.076790 0.767880
O O6 0.822613 0.874034 0.474015
O O7 0.757462 0.959575 0.617660
O O8 0.089766 0.691265 0.045539
O O9 0.054560 0.250000 0.750000
#
# Coordination Sequence:
#
# PCOD9327699 Si02
#       6
#     4  16   8  16  16   8
#     4  12  28  46  68 108 132 176 232 294 372 430
#     4  10  22  42  69  96 139 191 227 288 349 414
#     4  10  22  37  62  97 136 191 242 285 350 412
#     4  10  21  42  66  93 136 185 229 285 351 409
#     4  12  25  46  73 100 137 177 232 290 362 426
#     4  10  22  39  59  98 140 180 249 277 342 418
#
# _framework density 21.901501
#
# number of rings (size 3 to 8) (size 9 to 14) (size 15 to 20)
#    0.000    1.412    2.353    2.824    3.294    9.412 
#    0.000    4.118    0.000    0.000    0.000    0.000 
#    0.000    0.000    0.000    0.000    0.000    0.000 
#
# Total GULP energy -94715.486320 kJ/mol
# GULP energy per Si atom -5571.499195 kJ/mol
# Density = 2.185165 g / cm^3
# Si number density = 21.901501 Si / 1000 Ang^3
#
#
#
# Elastic Constant Matrix: (Units=GPa)
#
#
# Indices 1 2 3 4 5 6 
#
# 1 61.5519 12.7434 38.5235 0.0000 0.0000 0.0000
# 2 12.7434 59.3114 36.0676 0.0000 0.0000 0.0000
# 3 38.5235 36.0676 203.0925 0.0000 0.0000 0.0000
# 4 0.0000 0.0000 0.0000 28.5656 0.0000 0.0000
# 5 0.0000 0.0000 0.0000 0.0000 -21.8484 0.0000
# 6 0.0000 0.0000 0.0000 0.0000 0.0000 2.8407
#
#
#
# Elastic Compliance Matrix: (Units=1/GPa)
#
#
# Indices 1 2 3 4 5 6 
#
# 1 0.018662 -0.002082 -0.003170 0.000000 0.000000 0.000000
# 2 -0.002082 0.019134 -0.003003 0.000000 0.000000 0.000000
# 3 -0.003170 -0.003003 0.006059 0.000000 0.000000 0.000000
# 4 0.000000 0.000000 0.000000 0.035007 0.000000 0.000000
# 5 0.000000 0.000000 0.000000 0.000000 -0.045770 0.000000
# 6 0.000000 0.000000 0.000000 0.000000 0.000000 0.352022
#
#
# Mechanical properties :
#
#
# Convention : Reuss Voigt Hill
#
# Bulk Modulus (GPa) = 36.57145 55.40273 45.98709
# Shear Modulus (GPa) = 12.17322 17.68635 14.92979
#
# Velocity S-wave (km/s) = 2.36013 2.84481 2.61373
# Velocity P-wave (km/s) = 4.91542 6.01181 5.49105
#
# Compressibility (1/GPa) = 0.02734374
#
# Stress axis : x y z
#
# Youngs Moduli (GPa) = 53.58620 52.26397 165.05713
#
# Poissons Ratio (x) = 0.10880 0.52325
# Poissons Ratio (y) = 0.11155 0.49568
# Poissons Ratio (z) = 0.16987 0.15695
#
# Static dielectric constant tensor:
#      x y z
#    x 1.761740 0.000000 0.000000 
#    y 0.000000 1.794790 0.000000 
#    z 0.000000 0.000000 1.859170 
# 
# From -- ./inp_files/18139.got.cif
#   From: 2010.05.17/outbox.cif.g08.bks.cpg/sg22_10_cif.got.tgz:18139.got - 2010.06.03 23:40:54.
