data_PCOD9327636
_publ_section_title
;
Structure prediction by ZEFSAII (Michael W. Deem and Ramdas Pophale) SiO2 
 PCOD9327636
Probable space group: F 2 2 2
;
_chemical_formula_sum "Si O2"
_cell_formula_units_Z 88
_cell_length_a 29.325981
_cell_length_b 17.168981
_cell_length_c 8.572475
_cell_angle_alpha 90.000000
_cell_angle_beta 90.000000
_cell_angle_gamma 90.000000
_cell_volume 4316.217250
_symmetry_space_group_name_H-M "F 2 2 2"
_symmetry_group_IT_number 22
_symmetry_cell_setting 'orthorhombic'
loop_
_space_group_symop_operation_xyz
x,y,z
-x,-y,z
x,-y,-z
-x,y,-z
x,1/2+y,1/2+z
-x,1/2-y,1/2+z
x,1/2-y,1/2-z
-x,1/2+y,1/2-z
1/2+x,y,1/2+z
1/2-x,-y,1/2+z
1/2+x,-y,1/2-z
1/2-x,y,1/2-z
1/2+x,1/2+y,z
1/2-x,1/2-y,z
1/2+x,1/2-y,-z
1/2-x,1/2+y,-z
loop_
_atom_site_type_symbol
_atom_site_label
_atom_site_fract_x
_atom_site_fract_y
_atom_site_fract_z
Si Si1 0.341263 0.100607 0.918856
Si Si2 0.363935 0.500000 0.000000
Si Si3 0.697145 0.551746 0.270283
Si Si4 0.069881 0.367709 0.586357
Si Si5 0.869731 0.250000 0.250000
Si Si6 0.573020 0.500000 0.500000
Si Si7 0.981197 0.918235 0.218534
O O1 0.341720 0.181188 0.829700
O O2 0.309421 0.036391 0.835976
O O3 0.391700 0.061921 0.925291
O O4 0.324985 0.105594 0.097340
O O5 0.332080 0.449127 0.112624
O O6 0.396582 0.557797 0.095370
O O7 0.750000 0.568919 0.250000
O O8 0.098738 0.291266 0.620399
O O9 0.050318 0.376740 0.410222
O O10 0.028447 0.370045 0.712130
O O11 0.543612 0.551747 0.376490
O O12 0.000000 0.000000 0.154692
#
# Coordination Sequence:
#
# PCOD9327636 Si02
#       7
#    16   8  16  16   8   8  16
#     4  10  22  41  66 102 135 174 221 264 349 410
#     4  12  18  40  70  93 124 175 222 280 328 384
#     4  10  21  40  74 103 122 160 228 280 322 407
#     4  11  22  38  62  90 132 185 222 273 332 401
#     4  12  24  44  61  94 148 182 212 268 349 412
#     4  10  21  41  68  99 126 179 238 299 318 387
#     4  11  20  37  63  96 127 170 247 288 319 371
#
# _framework density 20.388224999999998
#
# number of rings (size 3 to 8) (size 9 to 14) (size 15 to 20)
#    0.000    1.455    3.636    5.182    0.000    0.000 
#    6.545    3.182    0.000    1.091    0.000    0.000 
#    0.000    0.000    0.000    0.000    0.000    0.000 
#
# Total GULP energy -122683.123741 kJ/mol
# GULP energy per Si atom -5576.505625 kJ/mol
# Density = 2.034182 g / cm^3
# Si number density = 20.388225 Si / 1000 Ang^3
#
#
#
# Elastic Constant Matrix: (Units=GPa)
#
#
# Indices 1 2 3 4 5 6 
#
# 1 112.8572 8.2481 63.6633 0.0000 0.0000 0.0000
# 2 8.2481 77.1319 23.3795 0.0000 0.0000 0.0000
# 3 63.6633 23.3795 134.0246 0.0000 0.0000 0.0000
# 4 0.0000 0.0000 0.0000 32.0078 0.0000 0.0000
# 5 0.0000 0.0000 0.0000 0.0000 11.2892 0.0000
# 6 0.0000 0.0000 0.0000 0.0000 0.0000 8.4500
#
#
#
# Elastic Compliance Matrix: (Units=1/GPa)
#
#
# Indices 1 2 3 4 5 6 
#
# 1 0.012121 0.000474 -0.005840 0.000000 0.000000 0.000000
# 2 0.000474 0.013707 -0.002616 0.000000 0.000000 0.000000
# 3 -0.005840 -0.002616 0.010692 0.000000 0.000000 0.000000
# 4 0.000000 0.000000 0.000000 0.031242 0.000000 0.000000
# 5 0.000000 0.000000 0.000000 0.000000 0.088580 0.000000
# 6 0.000000 0.000000 0.000000 0.000000 0.000000 0.118344
#
#
# Mechanical properties :
#
#
# Convention : Reuss Voigt Hill
#
# Bulk Modulus (GPa) = 48.65024 57.17726 52.91375
# Shear Modulus (GPa) = 16.80664 25.59760 21.20212
#
# Velocity S-wave (km/s) = 2.87423 3.54716 3.22828
# Velocity P-wave (km/s) = 5.91005 6.69937 6.31705
#
# Compressibility (1/GPa) = 0.02055488
#
# Stress axis : x y z
#
# Youngs Moduli (GPa) = 82.50464 72.95470 93.52937
#
# Poissons Ratio (x) = -0.03459 0.54622
# Poissons Ratio (y) = -0.03911 0.24470
# Poissons Ratio (z) = 0.48184 0.19087
#
# Static dielectric constant tensor:
#      x y z
#    x 1.773990 0.000000 0.000000 
#    y 0.000000 2.096580 0.000000 
#    z 0.000000 0.000000 1.873810 
# 
# From -- ./inp_files/15565.got.cif
#   From: 2010.05.17/outbox.cif.g08.bks.cpg/sg22_8_cif.got.tgz:15565.got - 2010.06.03 23:40:54.
