data_PCOD9327941
_publ_section_title
;
Structure prediction by ZEFSAII (Michael W. Deem and Ramdas Pophale) SiO2 
 PCOD9327941
Probable space group: F 2 2 2
;
_chemical_formula_sum "Si O2"
_cell_formula_units_Z 80
_cell_length_a 16.997094
_cell_length_b 9.093942
_cell_length_c 25.487302
_cell_angle_alpha 90.000000
_cell_angle_beta 90.000000
_cell_angle_gamma 90.000000
_cell_volume 3939.587231
_symmetry_space_group_name_H-M "F 2 2 2"
_symmetry_group_IT_number 22
_symmetry_cell_setting 'orthorhombic'
loop_
_space_group_symop_operation_xyz
x,y,z
-x,-y,z
x,-y,-z
-x,y,-z
x,1/2+y,1/2+z
-x,1/2-y,1/2+z
x,1/2-y,1/2-z
-x,1/2+y,1/2-z
1/2+x,y,1/2+z
1/2-x,-y,1/2+z
1/2+x,-y,1/2-z
1/2-x,y,1/2-z
1/2+x,1/2+y,z
1/2-x,1/2-y,z
1/2+x,1/2-y,-z
1/2-x,1/2+y,-z
loop_
_atom_site_type_symbol
_atom_site_label
_atom_site_fract_x
_atom_site_fract_y
_atom_site_fract_z
Si Si1 0.337884 0.177987 0.382930
Si Si2 0.764611 0.909306 0.604620
Si Si3 0.174642 0.091272 0.722814
Si Si4 0.417413 0.940182 0.940444
Si Si5 0.438731 0.612897 0.781194
O O1 0.250000 0.250000 0.378688
O O2 0.394693 0.271830 0.422436
O O3 0.380178 0.170049 0.326374
O O4 0.312744 0.011481 0.397975
O O5 0.750000 0.750000 0.581361
O O6 0.797660 0.889860 0.663701
O O7 0.838456 0.982022 0.577801
O O8 0.162971 0.250000 0.750000
O O9 0.250000 0.018145 0.750000
O O10 0.103881 0.985117 0.736710
O O11 0.500000 0.000000 0.915817
O O12 0.422585 0.000000 0.000000
O O13 0.500000 0.500000 0.806777
O O14 0.474510 0.750000 0.750000
#
# Coordination Sequence:
#
# PCOD9327941 Si02
#       5
#    16  16  16  16  16
#     4  10  22  40  65  89 119 165 216 263 320 389
#     4  11  21  37  67  98 125 168 214 264 317 382
#     4  11  20  37  61  90 133 176 213 251 307 377
#     4  10  24  45  65  88 123 164 211 274 339 389
#     4  12  25  36  57  90 133 174 220 261 314 372
#
# _framework density 20.306695000000001
#
# number of rings (size 3 to 8) (size 9 to 14) (size 15 to 20)
#    0.000    1.200    4.000    3.000    0.000    8.800 
#    0.000    0.000    0.000    2.400    0.000    0.000 
#    0.000    0.000    0.000    0.000    0.000    0.000 
#
# Total GULP energy -111342.936364 kJ/mol
# GULP energy per Si atom -5567.146818 kJ/mol
# Density = 2.026048 g / cm^3
# Si number density = 20.306695 Si / 1000 Ang^3
#
#
#
# Elastic Constant Matrix: (Units=GPa)
#
#
# Indices 1 2 3 4 5 6 
#
# 1 81.2976 36.5117 23.7377 0.0000 0.0000 0.0000
# 2 36.5117 136.8501 27.6273 0.0000 0.0000 0.0000
# 3 23.7377 27.6273 54.9297 0.0000 0.0000 0.0000
# 4 0.0000 0.0000 0.0000 39.6946 0.0000 0.0000
# 5 0.0000 0.0000 0.0000 0.0000 19.2693 0.0000
# 6 0.0000 0.0000 0.0000 0.0000 0.0000 30.0249
#
#
#
# Elastic Compliance Matrix: (Units=1/GPa)
#
#
# Indices 1 2 3 4 5 6 
#
# 1 0.015122 -0.003022 -0.005015 0.000000 0.000000 0.000000
# 2 -0.003022 0.008737 -0.003088 0.000000 0.000000 0.000000
# 3 -0.005015 -0.003088 0.021926 0.000000 0.000000 0.000000
# 4 0.000000 0.000000 0.000000 0.025192 0.000000 0.000000
# 5 0.000000 0.000000 0.000000 0.000000 0.051896 0.000000
# 6 0.000000 0.000000 0.000000 0.000000 0.000000 0.033306
#
#
# Mechanical properties :
#
#
# Convention : Reuss Voigt Hill
#
# Bulk Modulus (GPa) = 42.49207 49.87011 46.18109
# Shear Modulus (GPa) = 26.84215 30.14448 28.49331
#
# Velocity S-wave (km/s) = 3.63965 3.85705 3.74993
# Velocity P-wave (km/s) = 6.21557 6.66690 6.44519
#
# Compressibility (1/GPa) = 0.02353380
#
# Stress axis : x y z
#
# Youngs Moduli (GPa) = 66.12857 114.45503 45.60887
#
# Poissons Ratio (x) = 0.34590 0.22872
# Poissons Ratio (y) = 0.19985 0.14086
# Poissons Ratio (z) = 0.33163 0.35348
#
# Static dielectric constant tensor:
#      x y z
#    x 1.637540 0.000000 0.000000 
#    y 0.000000 1.811420 0.000000 
#    z 0.000000 0.000000 1.616360 
# 
# From -- ./inp_files/14625.got.cif
#   From: 2010.05.17/outbox.cif.g08.bks.cpg/sg22_8_cif.got.tgz:14625.got - 2010.06.03 23:40:54.
