data_PCOD9327912
_publ_section_title
;
Structure prediction by ZEFSAII (Michael W. Deem and Ramdas Pophale) SiO2 
 PCOD9327912
Probable space group: F 2 2 2
;
_chemical_formula_sum "Si O2"
_cell_formula_units_Z 64
_cell_length_a 11.773766
_cell_length_b 14.743151
_cell_length_c 16.499880
_cell_angle_alpha 90.000000
_cell_angle_beta 90.000000
_cell_angle_gamma 90.000000
_cell_volume 2864.088935
_symmetry_space_group_name_H-M "F 2 2 2"
_symmetry_group_IT_number 22
_symmetry_cell_setting 'orthorhombic'
loop_
_space_group_symop_operation_xyz
x,y,z
-x,-y,z
x,-y,-z
-x,y,-z
x,1/2+y,1/2+z
-x,1/2-y,1/2+z
x,1/2-y,1/2-z
-x,1/2+y,1/2-z
1/2+x,y,1/2+z
1/2-x,-y,1/2+z
1/2+x,-y,1/2-z
1/2-x,y,1/2-z
1/2+x,1/2+y,z
1/2-x,1/2-y,z
1/2+x,1/2-y,-z
1/2-x,1/2+y,-z
loop_
_atom_site_type_symbol
_atom_site_label
_atom_site_fract_x
_atom_site_fract_y
_atom_site_fract_z
Si Si1 0.374238 0.283306 0.909464
Si Si2 0.580394 0.827174 0.133602
Si Si3 0.297129 0.089659 0.448820
Si Si4 0.056830 0.369914 0.310927
O O1 0.250000 0.250000 0.886771
O O2 0.430410 0.349899 0.843013
O O3 0.461084 0.198114 0.909090
O O4 0.362099 0.337070 0.994076
O O5 0.677521 0.869407 0.079282
O O6 0.615648 0.727316 0.166732
O O7 0.562723 0.885107 0.215751
O O8 0.374796 0.065964 0.370998
O O9 0.279034 0.000000 0.500000
#
# Coordination Sequence:
#
# PCOD9327912 Si02
#       4
#    16  16  16  16
#     4  10  22  39  70 102 132 174 240 290 326 393
#     4   9  21  42  71  97 129 186 233 273 329 417
#     4  12  24  38  68 107 140 173 228 289 355 403
#     4   9  20  40  74  96 129 183 237 271 332 412
#
# _framework density 22.345676000000001
#
# number of rings (size 3 to 8) (size 9 to 14) (size 15 to 20)
#    1.500    0.500    0.000    3.750    3.500    6.000 
#    0.000    2.500   27.500    0.000    0.000    0.000 
#    0.000    0.000    0.000    0.000    0.000    0.000 
#
# Total GULP energy -89273.270179 kJ/mol
# GULP energy per Si atom -5579.579386 kJ/mol
# Density = 2.229482 g / cm^3
# Si number density = 22.345676 Si / 1000 Ang^3
#
#
#
# Elastic Constant Matrix: (Units=GPa)
#
#
# Indices 1 2 3 4 5 6 
#
# 1 189.5190 52.3975 82.3969 0.0000 0.0000 0.0000
# 2 52.3975 70.9591 51.4430 0.0000 0.0000 0.0000
# 3 82.3969 51.4430 159.9200 0.0000 0.0000 0.0000
# 4 0.0000 0.0000 0.0000 24.7823 0.0000 0.0000
# 5 0.0000 0.0000 0.0000 0.0000 29.0402 0.0000
# 6 0.0000 0.0000 0.0000 0.0000 0.0000 11.6204
#
#
#
# Elastic Compliance Matrix: (Units=1/GPa)
#
#
# Indices 1 2 3 4 5 6 
#
# 1 0.007421 -0.003532 -0.002688 0.000000 0.000000 0.000000
# 2 -0.003532 0.020059 -0.004633 0.000000 0.000000 0.000000
# 3 -0.002688 -0.004633 0.009128 0.000000 0.000000 0.000000
# 4 0.000000 0.000000 0.000000 0.040351 0.000000 0.000000
# 5 0.000000 0.000000 0.000000 0.000000 0.034435 0.000000
# 6 0.000000 0.000000 0.000000 0.000000 0.000000 0.086055
#
#
# Mechanical properties :
#
#
# Convention : Reuss Voigt Hill
#
# Bulk Modulus (GPa) = 67.09522 88.09700 77.59611
# Shear Modulus (GPa) = 22.30911 28.69929 25.50420
#
# Velocity S-wave (km/s) = 3.16312 3.58765 3.38205
# Velocity P-wave (km/s) = 6.59027 7.52807 7.07473
#
# Compressibility (1/GPa) = 0.01490419
#
# Stress axis : x y z
#
# Youngs Moduli (GPa) = 134.74384 49.85241 109.54904
#
# Poissons Ratio (x) = 0.17606 0.29445
# Poissons Ratio (y) = 0.47586 0.50754
# Poissons Ratio (z) = 0.36216 0.23097
#
# Static dielectric constant tensor:
#      x y z
#    x 1.815110 0.000000 0.000000 
#    y 0.000000 1.901190 0.000000 
#    z 0.000000 0.000000 1.882210 
# 
# From -- ./inp_files/28984.got.cif
#   From: 2010.05.17/outbox.cif.g08.bks.cpg/sg22_15_cif.got.tgz:28984.got - 2010.06.03 23:40:54.
