data_PCOD9327217
_publ_section_title
;
Structure prediction by ZEFSAII (Michael W. Deem and Ramdas Pophale) SiO2 
 PCOD9327217
Probable space group: F 2 2 2
;
_chemical_formula_sum "Si O2"
_cell_formula_units_Z 92
_cell_length_a 11.854786
_cell_length_b 23.324454
_cell_length_c 16.330665
_cell_angle_alpha 90.000000
_cell_angle_beta 90.000000
_cell_angle_gamma 90.000000
_cell_volume 4515.533564
_symmetry_space_group_name_H-M "F 2 2 2"
_symmetry_group_IT_number 22
_symmetry_cell_setting 'orthorhombic'
loop_
_space_group_symop_operation_xyz
x,y,z
-x,-y,z
x,-y,-z
-x,y,-z
x,1/2+y,1/2+z
-x,1/2-y,1/2+z
x,1/2-y,1/2-z
-x,1/2+y,1/2-z
1/2+x,y,1/2+z
1/2-x,-y,1/2+z
1/2+x,-y,1/2-z
1/2-x,y,1/2-z
1/2+x,1/2+y,z
1/2-x,1/2-y,z
1/2+x,1/2-y,-z
1/2-x,1/2+y,-z
loop_
_atom_site_type_symbol
_atom_site_label
_atom_site_fract_x
_atom_site_fract_y
_atom_site_fract_z
Si Si1 0.553848 0.323879 0.339238
Si Si2 0.569996 0.943161 0.769909
Si Si3 0.000000 0.888081 0.500000
Si Si4 0.250000 0.250000 0.750000
Si Si5 0.698145 0.694286 0.340778
Si Si6 0.710201 0.042524 0.381805
Si Si7 0.729962 0.080144 0.944489
O O1 0.521392 0.380818 0.287253
O O2 0.560834 0.347872 0.432456
O O3 0.663147 0.290342 0.303622
O O4 0.435006 0.291521 0.336457
O O5 0.604843 0.945708 0.675449
O O6 0.680394 0.943229 0.827450
O O7 0.500000 0.000000 0.789486
O O8 0.095954 0.927227 0.539508
O O9 0.750000 0.687916 0.250000
O O10 0.750000 0.750000 0.382254
O O11 0.730216 0.638090 0.392563
O O12 0.713598 0.077883 0.465813
O O13 0.719931 0.974930 0.399633
#
# Coordination Sequence:
#
# PCOD9327217 Si02
#       7
#    16  16   8   4  16  16  16
#     4  11  24  42  68  99 130 180 220 277 345 394
#     4  11  22  40  64  92 130 168 219 268 328 413
#     4  10  20  41  62  94 126 172 231 270 320 398
#     4  12  24  44  70  96 148 174 216 288 340 428
#     4  10  22  42  68  94 128 173 238 281 325 396
#     4  10  22  36  61  98 128 170 211 267 339 392
#     4  10  21  37  62  92 133 167 214 276 326 389
#
# _framework density 20.374115
#
# number of rings (size 3 to 8) (size 9 to 14) (size 15 to 20)
#    0.000    1.565    1.739    4.174    4.870    0.696 
#    6.261    1.739    0.000    0.000    0.000    0.000 
#    0.000    0.000    0.000    0.000    0.000    0.000 
#
# Total GULP energy -128255.726276 kJ/mol
# GULP energy per Si atom -5576.335925 kJ/mol
# Density = 2.032774 g / cm^3
# Si number density = 20.374115 Si / 1000 Ang^3
#
#
#
# Elastic Constant Matrix: (Units=GPa)
#
#
# Indices 1 2 3 4 5 6 
#
# 1 73.6428 35.9453 15.3106 0.0000 0.0000 0.0000
# 2 35.9453 100.9548 40.8229 0.0000 0.0000 0.0000
# 3 15.3106 40.8229 97.3124 0.0000 0.0000 0.0000
# 4 0.0000 0.0000 0.0000 24.3291 0.0000 0.0000
# 5 0.0000 0.0000 0.0000 0.0000 11.3262 0.0000
# 6 0.0000 0.0000 0.0000 0.0000 0.0000 26.2749
#
#
#
# Elastic Compliance Matrix: (Units=1/GPa)
#
#
# Indices 1 2 3 4 5 6 
#
# 1 0.016437 -0.005789 -0.000158 0.000000 0.000000 0.000000
# 2 -0.005789 0.013968 -0.004949 0.000000 0.000000 0.000000
# 3 -0.000158 -0.004949 0.012377 0.000000 0.000000 0.000000
# 4 0.000000 0.000000 0.000000 0.041103 0.000000 0.000000
# 5 0.000000 0.000000 0.000000 0.000000 0.088291 0.000000
# 6 0.000000 0.000000 0.000000 0.000000 0.000000 0.038059
#
#
# Mechanical properties :
#
#
# Convention : Reuss Voigt Hill
#
# Bulk Modulus (GPa) = 47.63826 50.67420 49.15623
# Shear Modulus (GPa) = 20.91851 24.37477 22.64664
#
# Velocity S-wave (km/s) = 3.20772 3.46260 3.33759
# Velocity P-wave (km/s) = 6.09523 6.39624 6.24755
#
# Compressibility (1/GPa) = 0.02099153
#
# Stress axis : x y z
#
# Youngs Moduli (GPa) = 60.83688 71.59399 80.79503
#
# Poissons Ratio (x) = 0.41444 0.01275
# Poissons Ratio (y) = 0.35217 0.39983
# Poissons Ratio (z) = 0.00960 0.35430
#
# Static dielectric constant tensor:
#      x y z
#    x 1.758990 0.000000 0.000000 
#    y 0.000000 1.790600 0.000000 
#    z 0.000000 0.000000 1.767500 
# 
# From -- ./inp_files/36126.got.cif
#   From: 2010.05.17/outbox.cif.g08.bks.cpg/sg22_19_cif.got.tgz:36126.got - 2010.06.03 23:40:54.
