data_PCOD9327596
_publ_section_title
;
Structure prediction by ZEFSAII (Michael W. Deem and Ramdas Pophale) SiO2 
 PCOD9327596
Probable space group: F 2 2 2
;
_chemical_formula_sum "Si O2"
_cell_formula_units_Z 120
_cell_length_a 21.417467
_cell_length_b 21.206470
_cell_length_c 12.627924
_cell_angle_alpha 90.000000
_cell_angle_beta 90.000000
_cell_angle_gamma 90.000000
_cell_volume 5735.462550
_symmetry_space_group_name_H-M "F 2 2 2"
_symmetry_group_IT_number 22
_symmetry_cell_setting 'orthorhombic'
loop_
_space_group_symop_operation_xyz
x,y,z
-x,-y,z
x,-y,-z
-x,y,-z
x,1/2+y,1/2+z
-x,1/2-y,1/2+z
x,1/2-y,1/2-z
-x,1/2+y,1/2-z
1/2+x,y,1/2+z
1/2-x,-y,1/2+z
1/2+x,-y,1/2-z
1/2-x,y,1/2-z
1/2+x,1/2+y,z
1/2-x,1/2-y,z
1/2+x,1/2-y,-z
1/2-x,1/2+y,-z
loop_
_atom_site_type_symbol
_atom_site_label
_atom_site_fract_x
_atom_site_fract_y
_atom_site_fract_z
Si Si1 0.468273 0.901571 0.399640
Si Si2 0.320051 0.746597 0.526291
Si Si3 0.672838 0.367296 0.088349
Si Si4 0.885548 0.071633 0.692816
Si Si5 0.318070 0.541136 0.272445
Si Si6 0.500000 0.000000 0.781903
Si Si7 0.805021 0.397684 0.006309
Si Si8 0.927612 0.192792 0.824266
O O1 0.500000 0.933297 0.500000
O O2 0.398318 0.885151 0.435525
O O3 0.512031 0.840216 0.376955
O O4 0.472482 0.945842 0.296644
O O5 0.250000 0.750000 0.576745
O O6 0.318602 0.793116 0.426010
O O7 0.328677 0.674724 0.491717
O O8 0.374104 0.776175 0.600587
O O9 0.680371 0.395276 0.204569
O O10 0.729283 0.396439 0.017510
O O11 0.949784 0.040167 0.651897
O O12 0.833610 0.077990 0.602779
O O13 0.896987 0.136451 0.754213
O O14 0.862002 0.014900 0.767283
O O15 0.250000 0.514815 0.250000
O O16 0.328153 0.562058 0.393355
O O17 0.948865 0.250000 0.750000
#
# Coordination Sequence:
#
# PCOD9327596 Si02
#       8
#    16  16  16  16  16   8  16  16
#     4  11  21  41  66  91 133 171 231 284 331 405
#     4  10  21  40  63  98 131 173 225 279 351 406
#     4  10  21  42  66  95 128 173 229 288 341 395
#     4  11  22  42  67  97 138 177 225 272 348 415
#     4  10  22  41  64  94 130 171 227 281 335 403
#     4  10  23  40  67  96 132 180 218 275 345 404
#     4  10  22  41  68  95 135 173 222 279 343 414
#     4  11  23  41  64  96 135 177 223 281 341 414
#
# _framework density 20.922461999999999
#
# number of rings (size 3 to 8) (size 9 to 14) (size 15 to 20)
#    0.000    1.600    4.000    0.600    0.000    2.933 
#    2.400    7.333    2.933    0.000    0.000    0.000 
#    0.000    0.000    0.000    0.000    0.000    0.000 
#
# Total GULP energy -167121.447475 kJ/mol
# GULP energy per Si atom -5570.714916 kJ/mol
# Density = 2.087484 g / cm^3
# Si number density = 20.922462 Si / 1000 Ang^3
#
#
#
# Elastic Constant Matrix: (Units=GPa)
#
#
# Indices 1 2 3 4 5 6 
#
# 1 116.8712 47.1339 31.1834 0.0000 0.0000 0.0000
# 2 47.1339 143.9735 31.9705 0.0000 0.0000 0.0000
# 3 31.1834 31.9705 57.1168 0.0000 0.0000 0.0000
# 4 0.0000 0.0000 0.0000 14.6334 0.0000 0.0000
# 5 0.0000 0.0000 0.0000 0.0000 24.3094 0.0000
# 6 0.0000 0.0000 0.0000 0.0000 0.0000 22.7242
#
#
#
# Elastic Compliance Matrix: (Units=1/GPa)
#
#
# Indices 1 2 3 4 5 6 
#
# 1 0.010769 -0.002535 -0.004460 0.000000 0.000000 0.000000
# 2 -0.002535 0.008528 -0.003390 0.000000 0.000000 0.000000
# 3 -0.004460 -0.003390 0.021841 0.000000 0.000000 0.000000
# 4 0.000000 0.000000 0.000000 0.068337 0.000000 0.000000
# 5 0.000000 0.000000 0.000000 0.000000 0.041136 0.000000
# 6 0.000000 0.000000 0.000000 0.000000 0.000000 0.044006
#
#
# Mechanical properties :
#
#
# Convention : Reuss Voigt Hill
#
# Bulk Modulus (GPa) = 49.09761 59.83745 54.46753
# Shear Modulus (GPa) = 22.50467 26.17832 24.34150
#
# Velocity S-wave (km/s) = 3.28323 3.54108 3.41459
# Velocity P-wave (km/s) = 6.15550 6.73652 6.45255
#
# Compressibility (1/GPa) = 0.02036759
#
# Stress axis : x y z
#
# Youngs Moduli (GPa) = 92.85965 117.25615 45.78649
#
# Poissons Ratio (x) = 0.29725 0.20423
# Poissons Ratio (y) = 0.23540 0.15520
# Poissons Ratio (z) = 0.41419 0.39745
#
# Static dielectric constant tensor:
#      x y z
#    x 1.907540 0.000000 0.000000 
#    y 0.000000 1.735880 0.000000 
#    z 0.000000 0.000000 1.773370 
# 
# From -- ./inp_files/31873.got.cif
#   From: 2010.05.17/outbox.cif.g08.bks.cpg/sg22_16_cif.got.tgz:31873.got - 2010.06.03 23:40:54.
