data_PCOD9327518
_publ_section_title
;
Structure prediction by ZEFSAII (Michael W. Deem and Ramdas Pophale) SiO2 
 PCOD9327518
Probable space group: F 2 2 2
;
_chemical_formula_sum "Si O2"
_cell_formula_units_Z 116
_cell_length_a 9.492082
_cell_length_b 27.731288
_cell_length_c 22.970609
_cell_angle_alpha 90.000000
_cell_angle_beta 90.000000
_cell_angle_gamma 90.000000
_cell_volume 6046.499648
_symmetry_space_group_name_H-M "F 2 2 2"
_symmetry_group_IT_number 22
_symmetry_cell_setting 'orthorhombic'
loop_
_space_group_symop_operation_xyz
x,y,z
-x,-y,z
x,-y,-z
-x,y,-z
x,1/2+y,1/2+z
-x,1/2-y,1/2+z
x,1/2-y,1/2-z
-x,1/2+y,1/2-z
1/2+x,y,1/2+z
1/2-x,-y,1/2+z
1/2+x,-y,1/2-z
1/2-x,y,1/2-z
1/2+x,1/2+y,z
1/2-x,1/2-y,z
1/2+x,1/2-y,-z
1/2-x,1/2+y,-z
loop_
_atom_site_type_symbol
_atom_site_label
_atom_site_fract_x
_atom_site_fract_y
_atom_site_fract_z
Si Si1 0.970238 0.444226 0.930711
Si Si2 0.088054 0.867220 0.254714
Si Si3 0.081734 0.742909 0.058847
Si Si4 0.357231 0.927848 0.592445
Si Si5 0.096500 0.044587 0.225701
Si Si6 0.128905 0.645831 0.116914
Si Si7 0.500000 0.500000 0.000000
Si Si8 0.043674 0.162311 0.874855
O O1 0.810790 0.428105 0.916367
O O2 0.000000 0.500000 0.913953
O O3 0.071313 0.406685 0.898294
O O4 0.000000 0.440655 0.000000
O O5 0.250000 0.885925 0.250000
O O6 0.091841 0.840759 0.316346
O O7 0.047379 0.839617 0.195540
O O8 0.975996 0.909751 0.255569
O O9 0.250000 0.750000 0.052619
O O10 0.061949 0.687811 0.078223
O O11 0.028063 0.783102 0.104000
O O12 0.000000 0.752240 0.000000
O O13 0.394680 0.948402 0.656242
O O14 0.414631 0.963808 0.542495
O O15 0.433208 0.875150 0.595877
O O16 0.250000 0.037369 0.250000
O O17 0.000000 0.000000 0.239437
O O18 0.297475 0.645921 0.108369
#
# Coordination Sequence:
#
# PCOD9327518 Si02
#       8
#    16  16  16  16  16  16   4  16
#     4  11  25  40  58  88 121 160 204 246 307 362
#     4   9  19  37  58  85 116 152 196 248 302 362
#     4  10  22  40  61  89 118 157 200 248 304 360
#     4  11  25  40  61  89 122 163 207 255 305 368
#     4  11  22  38  57  86 119 160 207 252 306 362
#     4  10  21  39  62  87 122 157 196 252 303 362
#     4  12  24  40  62  84 124 164 206 254 298 364
#     4   9  22  39  63  90 119 155 204 247 303 361
#
# _framework density 19.184653000000001
#
# number of rings (size 3 to 8) (size 9 to 14) (size 15 to 20)
#    0.000    1.793    0.690    2.483    4.828    6.069 
#    0.000    2.759    0.000    0.000    0.000    3.862 
#    0.000    0.000    0.000    0.000    0.000    0.000 
#
# Total GULP energy -161826.852149 kJ/mol
# GULP energy per Si atom -5580.236281 kJ/mol
# Density = 1.914099 g / cm^3
# Si number density = 19.184653 Si / 1000 Ang^3
#
#
#
# Elastic Constant Matrix: (Units=GPa)
#
#
# Indices 1 2 3 4 5 6 
#
# 1 61.6201 29.2292 17.4510 0.0000 0.0000 0.0000
# 2 29.2292 100.4254 28.4103 0.0000 0.0000 0.0000
# 3 17.4510 28.4103 43.7025 0.0000 0.0000 0.0000
# 4 0.0000 0.0000 0.0000 26.3660 0.0000 0.0000
# 5 0.0000 0.0000 0.0000 0.0000 33.3627 0.0000
# 6 0.0000 0.0000 0.0000 0.0000 0.0000 22.6539
#
#
#
# Elastic Compliance Matrix: (Units=1/GPa)
#
#
# Indices 1 2 3 4 5 6 
#
# 1 0.019705 -0.004300 -0.005073 0.000000 0.000000 0.000000
# 2 -0.004300 0.013140 -0.006825 0.000000 0.000000 0.000000
# 3 -0.005073 -0.006825 0.029345 0.000000 0.000000 0.000000
# 4 0.000000 0.000000 0.000000 0.037928 0.000000 0.000000
# 5 0.000000 0.000000 0.000000 0.000000 0.029974 0.000000
# 6 0.000000 0.000000 0.000000 0.000000 0.000000 0.044142
#
#
# Mechanical properties :
#
#
# Convention : Reuss Voigt Hill
#
# Bulk Modulus (GPa) = 33.56470 39.54768 36.55619
# Shear Modulus (GPa) = 23.08824 25.18702 24.13763
#
# Velocity S-wave (km/s) = 3.47288 3.62729 3.55092
# Velocity P-wave (km/s) = 5.79782 6.18077 5.99236
#
# Compressibility (1/GPa) = 0.02979321
#
# Stress axis : x y z
#
# Youngs Moduli (GPa) = 50.74891 76.10366 34.07781
#
# Poissons Ratio (x) = 0.32725 0.17288
# Poissons Ratio (y) = 0.21822 0.23258
# Poissons Ratio (z) = 0.25745 0.51941
#
# Static dielectric constant tensor:
#      x y z
#    x 1.649480 0.000000 0.000000 
#    y 0.000000 1.657680 0.000000 
#    z 0.000000 0.000000 1.672810 
# 
# From -- ./inp_files/47598.got.cif
#   From: 2010.05.17/outbox.cif.g08.bks.cpg/sg22_24_cif.got.tgz:47598.got - 2010.06.03 23:40:54.
