data_PCOD9327659
_publ_section_title
;
Structure prediction by ZEFSAII (Michael W. Deem and Ramdas Pophale) SiO2 
 PCOD9327659
Probable space group: F 2 2 2
;
_chemical_formula_sum "Si O2"
_cell_formula_units_Z 68
_cell_length_a 27.991525
_cell_length_b 5.713304
_cell_length_c 20.099239
_cell_angle_alpha 90.000000
_cell_angle_beta 90.000000
_cell_angle_gamma 90.000000
_cell_volume 3214.352542
_symmetry_space_group_name_H-M "F 2 2 2"
_symmetry_group_IT_number 22
_symmetry_cell_setting 'orthorhombic'
loop_
_space_group_symop_operation_xyz
x,y,z
-x,-y,z
x,-y,-z
-x,y,-z
x,1/2+y,1/2+z
-x,1/2-y,1/2+z
x,1/2-y,1/2-z
-x,1/2+y,1/2-z
1/2+x,y,1/2+z
1/2-x,-y,1/2+z
1/2+x,-y,1/2-z
1/2-x,y,1/2-z
1/2+x,1/2+y,z
1/2-x,1/2-y,z
1/2+x,1/2-y,-z
1/2-x,1/2+y,-z
loop_
_atom_site_type_symbol
_atom_site_label
_atom_site_fract_x
_atom_site_fract_y
_atom_site_fract_z
Si Si1 0.405768 0.223668 0.629174
Si Si2 0.677301 0.402338 0.815769
Si Si3 0.593350 0.500000 0.000000
Si Si4 0.973761 0.250000 0.250000
Si Si5 0.750000 0.750000 0.750000
Si Si6 0.162946 0.112518 0.435798
O O1 0.441849 0.304372 0.685176
O O2 0.370164 0.423950 0.602239
O O3 0.371281 0.031810 0.663151
O O4 0.431517 0.114725 0.563929
O O5 0.669264 0.250000 0.750000
O O6 0.716768 0.590547 0.796016
O O7 0.691834 0.242453 0.878313
O O8 0.627471 0.300915 0.969216
O O9 0.000000 0.500000 0.263701
O O10 0.188864 0.000000 0.500000
#
# Coordination Sequence:
#
# PCOD9327659 Si02
#       6
#    16  16   8   8   4  16
#     4  10  21  41  66  94 125 171 223 271 335 391
#     4  11  22  37  64  96 127 166 221 276 327 403
#     4   8  18  34  69  92 118 160 218 270 318 408
#     4  12  29  42  64  97 144 179 218 284 341 406
#     4  12  24  36  52 106 128 176 202 286 338 398
#     4   9  18  36  65  99 116 164 220 271 325 401
#
# _framework density 21.155117000000001
#
# number of rings (size 3 to 8) (size 9 to 14) (size 15 to 20)
#    0.000    1.882    0.000    3.882    8.235    0.000 
#    0.000    0.588    0.000    0.000  492.471    0.000 
#    0.000    0.000    0.000    0.000    0.000    0.000 
#
# Total GULP energy -94872.700759 kJ/mol
# GULP energy per Si atom -5580.747103 kJ/mol
# Density = 2.110697 g / cm^3
# Si number density = 21.155117 Si / 1000 Ang^3
#
#
#
# Elastic Constant Matrix: (Units=GPa)
#
#
# Indices 1 2 3 4 5 6 
#
# 1 36.7110 20.1537 37.6593 -0.0007 0.0004 0.0004
# 2 20.1537 107.5895 61.5102 -0.0017 0.0034 0.0027
# 3 37.6593 61.5102 188.6759 -0.0005 0.0013 0.0007
# 4 -0.0007 -0.0017 -0.0005 35.3592 0.0013 0.0014
# 5 0.0004 0.0034 0.0013 0.0013 -15.6604 -0.0004
# 6 0.0004 0.0027 0.0007 0.0014 -0.0004 4.4184
#
#
#
# Elastic Compliance Matrix: (Units=1/GPa)
#
#
# Indices 1 2 3 4 5 6 
#
# 1 0.035105 -0.003159 -0.005977 0.000000 0.000000 0.000000
# 2 -0.003159 0.011708 -0.003186 0.000000 0.000002 -0.000006
# 3 -0.005977 -0.003186 0.007532 0.000000 0.000000 0.000001
# 4 0.000000 0.000000 0.000000 0.028281 0.000002 -0.000009
# 5 0.000000 0.000002 0.000000 0.000002 -0.063855 -0.000006
# 6 0.000000 -0.000006 0.000001 -0.000009 -0.000006 0.226325
#
#
# Mechanical properties :
#
#
# Convention : Reuss Voigt Hill
#
# Bulk Modulus (GPa) = 33.66928 63.51363 48.59146
# Shear Modulus (GPa) = 17.88003 19.06699 18.47351
#
# Velocity S-wave (km/s) = 2.91036 3.00541 2.95827
# Velocity P-wave (km/s) = 5.21954 6.49087 5.88961
#
# Compressibility (1/GPa) = 0.02970066
#
# Stress axis : x y z
#
# Youngs Moduli (GPa) = 28.48558 85.41154 132.76795
#
# Poissons Ratio (x) = 0.26979 0.79358
# Poissons Ratio (y) = 0.08998 0.42306
# Poissons Ratio (z) = 0.17026 0.27216
#
# Static dielectric constant tensor:
#      x y z
#    x 1.707340 0.000000 0.000000 
#    y 0.000000 1.739630 0.000000 
#    z 0.000000 0.000000 1.779070 
# 
# From -- ./inp_files/3820.got.cif
#   From: 2010.05.17/outbox.cif.g08.bks.cpg/sg22_2_cif.got.tgz:3820.got - 2010.06.03 23:40:54.
