data_PCOD9327952
_publ_section_title
;
Structure prediction by ZEFSAII (Michael W. Deem and Ramdas Pophale) SiO2 
 PCOD9327952
Probable space group: F 2 2 2
;
_chemical_formula_sum "Si O2"
_cell_formula_units_Z 80
_cell_length_a 9.392531
_cell_length_b 16.651408
_cell_length_c 23.560655
_cell_angle_alpha 90.000000
_cell_angle_beta 90.000000
_cell_angle_gamma 90.000000
_cell_volume 3684.859720
_symmetry_space_group_name_H-M "F 2 2 2"
_symmetry_group_IT_number 22
_symmetry_cell_setting 'orthorhombic'
loop_
_space_group_symop_operation_xyz
x,y,z
-x,-y,z
x,-y,-z
-x,y,-z
x,1/2+y,1/2+z
-x,1/2-y,1/2+z
x,1/2-y,1/2-z
-x,1/2+y,1/2-z
1/2+x,y,1/2+z
1/2-x,-y,1/2+z
1/2+x,-y,1/2-z
1/2-x,y,1/2-z
1/2+x,1/2+y,z
1/2-x,1/2-y,z
1/2+x,1/2-y,-z
1/2-x,1/2+y,-z
loop_
_atom_site_type_symbol
_atom_site_label
_atom_site_fract_x
_atom_site_fract_y
_atom_site_fract_z
Si Si1 0.218467 0.946601 0.685963
Si Si2 0.284773 0.128545 0.816014
Si Si3 0.521262 0.883417 0.372271
Si Si4 0.250000 0.250000 0.026738
Si Si5 0.443459 0.698876 0.627214
Si Si6 0.000000 0.858023 0.000000
O O1 0.250000 0.924387 0.750000
O O2 0.370595 0.945029 0.655167
O O3 0.129260 0.874985 0.659095
O O4 0.156959 0.036622 0.685533
O O5 0.250000 0.152548 0.750000
O O6 0.134686 0.121343 0.847091
O O7 0.392321 0.182478 0.853681
O O8 0.581937 0.792988 0.359301
O O9 0.521602 0.899000 0.439658
O O10 0.364271 0.199376 0.065296
O O11 0.356195 0.305702 0.991653
#
# Coordination Sequence:
#
# PCOD9327952 Si02
#       6
#    16  16  16   8  16   8
#     4  11  22  41  63  91 134 176 212 259 328 393
#     4  11  25  40  62  95 136 176 209 264 330 391
#     4  11  23  41  65  97 127 167 220 269 320 382
#     4  10  22  40  67  98 123 168 216 280 332 386
#     4  11  21  41  62  96 122 164 223 265 320 378
#     4  10  22  40  67  94 127 164 218 266 340 380
#
# _framework density 21.710460000000001
#
# number of rings (size 3 to 8) (size 9 to 14) (size 15 to 20)
#    0.000    1.200    4.000    3.000    5.600    8.000 
#    0.000    2.000    0.000    0.000    0.000    0.000 
#    0.000    0.000    0.000    0.000    0.000    0.000 
#
# Total GULP energy -111441.587776 kJ/mol
# GULP energy per Si atom -5572.079389 kJ/mol
# Density = 2.166105 g / cm^3
# Si number density = 21.710460 Si / 1000 Ang^3
#
#
#
# Elastic Constant Matrix: (Units=GPa)
#
#
# Indices 1 2 3 4 5 6 
#
# 1 117.1429 4.3851 28.7003 0.0000 0.0000 0.0000
# 2 4.3851 88.2463 1.8296 0.0000 0.0000 0.0000
# 3 28.7003 1.8296 119.0352 0.0000 0.0000 0.0000
# 4 0.0000 0.0000 0.0000 -2.0014 0.0000 0.0000
# 5 0.0000 0.0000 0.0000 0.0000 9.8157 0.0000
# 6 0.0000 0.0000 0.0000 0.0000 0.0000 37.0197
#
#
#
# Elastic Compliance Matrix: (Units=1/GPa)
#
#
# Indices 1 2 3 4 5 6 
#
# 1 0.009087 -0.000406 -0.002185 0.000000 0.000000 0.000000
# 2 -0.000406 0.011354 -0.000077 0.000000 0.000000 0.000000
# 3 -0.002185 -0.000077 0.008929 0.000000 0.000000 0.000000
# 4 0.000000 0.000000 0.000000 -0.499659 0.000000 0.000000
# 5 0.000000 0.000000 0.000000 0.000000 0.101878 0.000000
# 6 0.000000 0.000000 0.000000 0.000000 0.000000 0.027013
#
#
# Mechanical properties :
#
#
# Convention : Reuss Voigt Hill
#
# Bulk Modulus (GPa) = 41.60687 43.80605 42.70646
# Shear Modulus (GPa) = -15.24148 28.26743 6.51297
#
# Velocity S-wave (km/s) = -2.65247 3.61226 1.73391
# Velocity P-wave (km/s) = 3.13453 6.13344 4.87054
#
# Compressibility (1/GPa) = 0.02403449
#
# Stress axis : x y z
#
# Youngs Moduli (GPa) = 110.04678 88.07706 111.99710
#
# Poissons Ratio (x) = 0.03578 0.24468
# Poissons Ratio (y) = 0.04471 0.00857
# Poissons Ratio (z) = 0.24042 0.00674
#
# Static dielectric constant tensor:
#      x y z
#    x 1.845580 0.000000 0.000000 
#    y 0.000000 1.839400 0.000000 
#    z 0.000000 0.000000 1.881540 
# 
# From -- ./inp_files/12572.got.cif
#   From: 2010.05.17/outbox.cif.g08.bks.cpg/sg22_7_cif.got.tgz:12572.got - 2010.06.03 23:40:54.
