data_PCOD9327887
_publ_section_title
;
Structure prediction by ZEFSAII (Michael W. Deem and Ramdas Pophale) SiO2 
 PCOD9327887
Probable space group: F 2 2 2
;
_chemical_formula_sum "Si O2"
_cell_formula_units_Z 60
_cell_length_a 23.474065
_cell_length_b 23.795297
_cell_length_c 5.397052
_cell_angle_alpha 90.000000
_cell_angle_beta 90.000000
_cell_angle_gamma 90.000000
_cell_volume 3014.644010
_symmetry_space_group_name_H-M "F 2 2 2"
_symmetry_group_IT_number 22
_symmetry_cell_setting 'orthorhombic'
loop_
_space_group_symop_operation_xyz
x,y,z
-x,-y,z
x,-y,-z
-x,y,-z
x,1/2+y,1/2+z
-x,1/2-y,1/2+z
x,1/2-y,1/2-z
-x,1/2+y,1/2-z
1/2+x,y,1/2+z
1/2-x,-y,1/2+z
1/2+x,-y,1/2-z
1/2-x,y,1/2-z
1/2+x,1/2+y,z
1/2-x,1/2-y,z
1/2+x,1/2-y,-z
1/2-x,1/2+y,-z
loop_
_atom_site_type_symbol
_atom_site_label
_atom_site_fract_x
_atom_site_fract_y
_atom_site_fract_z
Si Si1 0.250000 0.250000 0.250000
Si Si2 0.734074 0.142385 0.992197
Si Si3 0.000000 0.714043 0.000000
Si Si4 0.895994 0.871625 0.505161
Si Si5 0.067790 0.567117 0.504508
O O1 0.230887 0.299000 0.445818
O O2 0.750000 0.115925 0.250000
O O3 0.667065 0.154081 0.994314
O O4 0.750000 0.107032 0.750000
O O5 0.001216 0.750000 0.750000
O O6 0.944128 0.675617 0.994729
O O7 0.906384 0.908441 0.258212
O O8 0.904216 0.906701 0.758337
O O9 0.073206 0.500000 0.500000
O O10 0.000000 0.580984 0.500000
#
# Coordination Sequence:
#
# PCOD9327887 Si02
#       5
#     4  16   8  16  16
#     4   8  22  36  58  92 110 168 234 228 300 344
#     4  10  22  39  61  86 120 161 217 255 290 355
#     4  12  26  38  57  92 135 170 196 244 324 380
#     4  12  23  42  65  92 131 162 209 258 318 374
#     4  11  22  41  67  95 124 161 211 264 314 378
#
# _framework density 19.902847999999999
#
# number of rings (size 3 to 8) (size 9 to 14) (size 15 to 20)
#    0.800    0.267    2.667    4.400    1.867    4.267 
#    0.000    0.000    0.000   16.000    0.000    0.000 
#    0.000    0.000    0.000    0.000    0.000    0.000 
#
# Total GULP energy -83514.106819 kJ/mol
# GULP energy per Si atom -5567.607121 kJ/mol
# Density = 1.985755 g / cm^3
# Si number density = 19.902848 Si / 1000 Ang^3
#
#
#
# Elastic Constant Matrix: (Units=GPa)
#
#
# Indices 1 2 3 4 5 6 
#
# 1 116.5651 19.5427 39.9954 -0.0333 -0.0143 -0.0144
# 2 19.5427 59.8925 49.8474 -0.0430 0.0008 0.0080
# 3 39.9954 49.8474 211.7134 0.0792 -0.0183 0.0310
# 4 -0.0333 -0.0430 0.0792 34.8295 0.0793 0.1944
# 5 -0.0143 0.0008 -0.0183 0.0793 22.2825 0.2039
# 6 -0.0144 0.0080 0.0310 0.1944 0.2039 -14.0154
#
#
#
# Elastic Compliance Matrix: (Units=1/GPa)
#
#
# Indices 1 2 3 4 5 6 
#
# 1 0.009356 -0.001967 -0.001304 0.000010 0.000005 -0.000013
# 2 -0.001967 0.021180 -0.004615 0.000035 -0.000006 0.000004
# 3 -0.001304 -0.004615 0.006056 -0.000021 0.000004 0.000012
# 4 0.000010 0.000035 -0.000021 0.028709 -0.000106 0.000397
# 5 0.000005 -0.000006 0.000004 -0.000106 0.044873 0.000651
# 6 -0.000013 0.000004 0.000012 0.000397 0.000651 -0.071335
#
#
# Mechanical properties :
#
#
# Convention : Reuss Voigt Hill
#
# Bulk Modulus (GPa) = 48.03349 67.43798 57.73574
# Shear Modulus (GPa) = 81.23156 27.20502 54.21829
#
# Velocity S-wave (km/s) = 6.39552 3.70116 5.22500
# Velocity P-wave (km/s) = 8.87261 7.22647 8.09151
#
# Compressibility (1/GPa) = 0.02081881
#
# Stress axis : x y z
#
# Youngs Moduli (GPa) = 106.88025 47.21534 165.11539
#
# Poissons Ratio (x) = 0.09289 0.21536
# Poissons Ratio (y) = 0.21027 0.76201
# Poissons Ratio (z) = 0.13941 0.21790
#
# Static dielectric constant tensor:
#      x y z
#    x 1.721160 0.000140 -0.000310 
#    y 0.000140 1.660130 0.000120 
#    z -0.000310 0.000120 1.781490 
# 
# From -- ./inp_files/4409.got.cif
#   From: 2010.05.17/outbox.cif.g08.bks.cpg/sg22_3_cif.got.tgz:4409.got - 2010.06.03 23:40:54.
