data_PCOD9327466
_publ_section_title
;
Structure prediction by ZEFSAII (Michael W. Deem and Ramdas Pophale) SiO2 
 PCOD9327466
Probable space group: F 2 2 2
;
_chemical_formula_sum "Si O2"
_cell_formula_units_Z 104
_cell_length_a 25.641575
_cell_length_b 17.859450
_cell_length_c 11.499732
_cell_angle_alpha 90.000000
_cell_angle_beta 90.000000
_cell_angle_gamma 90.000000
_cell_volume 5266.238177
_symmetry_space_group_name_H-M "F 2 2 2"
_symmetry_group_IT_number 22
_symmetry_cell_setting 'orthorhombic'
loop_
_space_group_symop_operation_xyz
x,y,z
-x,-y,z
x,-y,-z
-x,y,-z
x,1/2+y,1/2+z
-x,1/2-y,1/2+z
x,1/2-y,1/2-z
-x,1/2+y,1/2-z
1/2+x,y,1/2+z
1/2-x,-y,1/2+z
1/2+x,-y,1/2-z
1/2-x,y,1/2-z
1/2+x,1/2+y,z
1/2-x,1/2-y,z
1/2+x,1/2-y,-z
1/2-x,1/2+y,-z
loop_
_atom_site_type_symbol
_atom_site_label
_atom_site_fract_x
_atom_site_fract_y
_atom_site_fract_z
Si Si1 0.943406 0.414862 0.548026
Si Si2 0.500000 0.317242 0.500000
Si Si3 0.455133 0.937458 0.818067
Si Si4 0.847408 0.135862 0.098314
Si Si5 0.245824 0.949688 0.387747
Si Si6 0.909982 0.774965 0.628002
Si Si7 0.127387 0.438500 0.840491
O O1 0.940774 0.500000 0.500000
O O2 0.945320 0.411033 0.687125
O O3 0.888317 0.381115 0.504001
O O4 0.000000 0.388729 0.500000
O O5 0.477193 0.371945 0.399640
O O6 0.452568 0.263142 0.531569
O O7 0.500000 0.000000 0.813241
O O8 0.404220 0.984906 0.859521
O O9 0.786101 0.118860 0.095462
O O10 0.859294 0.222950 0.123087
O O11 0.866223 0.080735 0.203013
O O12 0.250000 0.976047 0.250000
O O13 0.184328 0.936281 0.396623
O O14 0.260618 0.000000 0.500000
O O15 0.934755 0.750000 0.750000
O O16 0.901214 0.863321 0.619249
#
# Coordination Sequence:
#
# PCOD9327466 Si02
#       7
#    16   8  16  16  16  16  16
#     4  11  20  34  62  91 121 164 214 259 317 371
#     4  12  27  38  60  92 131 172 204 260 329 382
#     4  12  22  37  61  93 131 161 208 264 321 380
#     4  10  21  40  59  88 122 162 215 263 303 375
#     4  10  23  39  66  95 125 159 211 273 328 371
#     4  10  24  40  58  82 126 168 210 251 310 385
#     4  10  21  38  61  92 123 164 205 263 321 377
#
# _framework density 19.748441
#
# number of rings (size 3 to 8) (size 9 to 14) (size 15 to 20)
#    0.000    1.385    4.615    0.692    7.538    0.615 
#    0.000    3.077    0.000    0.000    0.000    1.077 
#    0.000    0.000    0.000    0.000    0.000    0.000 
#
# Total GULP energy -144741.356437 kJ/mol
# GULP energy per Si atom -5566.975248 kJ/mol
# Density = 1.970349 g / cm^3
# Si number density = 19.748441 Si / 1000 Ang^3
#
#
#
# Elastic Constant Matrix: (Units=GPa)
#
#
# Indices 1 2 3 4 5 6 
#
# 1 131.3943 31.0842 32.7113 0.0000 0.0000 0.0000
# 2 31.0842 66.5963 27.3885 0.0000 0.0000 0.0000
# 3 32.7113 27.3885 98.0549 0.0000 0.0000 0.0000
# 4 0.0000 0.0000 0.0000 11.9347 0.0000 0.0000
# 5 0.0000 0.0000 0.0000 0.0000 27.5743 0.0000
# 6 0.0000 0.0000 0.0000 0.0000 0.0000 11.0963
#
#
#
# Elastic Compliance Matrix: (Units=1/GPa)
#
#
# Indices 1 2 3 4 5 6 
#
# 1 0.008904 -0.003315 -0.002044 0.000000 0.000000 0.000000
# 2 -0.003315 0.018199 -0.003977 0.000000 0.000000 0.000000
# 3 -0.002044 -0.003977 0.011991 0.000000 0.000000 0.000000
# 4 0.000000 0.000000 0.000000 0.083789 0.000000 0.000000
# 5 0.000000 0.000000 0.000000 0.000000 0.036266 0.000000
# 6 0.000000 0.000000 0.000000 0.000000 0.000000 0.090120
#
#
# Mechanical properties :
#
#
# Convention : Reuss Voigt Hill
#
# Bulk Modulus (GPa) = 48.97065 53.15705 51.06385
# Shear Modulus (GPa) = 18.19838 23.77850 20.98844
#
# Velocity S-wave (km/s) = 3.03893 3.47374 3.26358
# Velocity P-wave (km/s) = 6.09627 6.56237 6.33361
#
# Compressibility (1/GPa) = 0.02042039
#
# Stress axis : x y z
#
# Youngs Moduli (GPa) = 112.31022 54.94825 83.39367
#
# Poissons Ratio (x) = 0.18216 0.17049
# Poissons Ratio (y) = 0.37233 0.33169
# Poissons Ratio (z) = 0.22960 0.21855
#
# Static dielectric constant tensor:
#      x y z
#    x 1.711210 0.000000 0.000000 
#    y 0.000000 1.765260 0.000000 
#    z 0.000000 0.000000 1.771780 
# 
# From -- ./inp_files/24660.got.cif
#   From: 2010.05.17/outbox.cif.g08.bks.cpg/sg22_13_cif.got.tgz:24660.got - 2010.06.03 23:40:54.
