data_PCOD9327737
_publ_section_title
;
Structure prediction by ZEFSAII (Michael W. Deem and Ramdas Pophale) SiO2 
 PCOD9327737
Probable space group: F 2 2 2
;
_chemical_formula_sum "Si O2"
_cell_formula_units_Z 96
_cell_length_a 29.055111
_cell_length_b 9.070523
_cell_length_c 16.336268
_cell_angle_alpha 90.000000
_cell_angle_beta 90.000000
_cell_angle_gamma 90.000000
_cell_volume 4305.342609
_symmetry_space_group_name_H-M "F 2 2 2"
_symmetry_group_IT_number 22
_symmetry_cell_setting 'orthorhombic'
loop_
_space_group_symop_operation_xyz
x,y,z
-x,-y,z
x,-y,-z
-x,y,-z
x,1/2+y,1/2+z
-x,1/2-y,1/2+z
x,1/2-y,1/2-z
-x,1/2+y,1/2-z
1/2+x,y,1/2+z
1/2-x,-y,1/2+z
1/2+x,-y,1/2-z
1/2-x,y,1/2-z
1/2+x,1/2+y,z
1/2-x,1/2-y,z
1/2+x,1/2-y,-z
1/2-x,1/2+y,-z
loop_
_atom_site_type_symbol
_atom_site_label
_atom_site_fract_x
_atom_site_fract_y
_atom_site_fract_z
Si Si1 0.910456 0.320691 0.416315
Si Si2 0.101196 0.654530 0.612328
Si Si3 0.334411 0.875396 0.055480
Si Si4 0.001810 0.177650 0.165764
Si Si5 0.250191 0.927987 0.345191
Si Si6 0.299388 0.809311 0.595722
O O1 0.902608 0.330730 0.513805
O O2 0.901047 0.478273 0.374969
O O3 0.871686 0.206037 0.389526
O O4 0.963162 0.279195 0.400027
O O5 0.054464 0.721798 0.647752
O O6 0.151006 0.715335 0.638223
O O7 0.297236 0.961860 0.108745
O O8 0.307711 0.761865 0.994297
O O9 0.358169 0.000000 0.000000
O O10 0.986989 0.250000 0.250000
O O11 0.000000 0.000000 0.169806
O O12 0.250000 0.971769 0.250000
O O13 0.250000 0.750000 0.347093
O O14 0.289771 0.014907 0.394650
O O15 0.250000 0.750000 0.627239
#
# Coordination Sequence:
#
# PCOD9327737 Si02
#       6
#    16  16  16  16  16  16
#     4   9  19  38  67  92 122 157 219 264 326 373
#     4   9  19  38  67  94 115 166 216 265 312 392
#     4  11  22  40  65 100 132 175 225 277 327 394
#     4  10  21  43  64  93 125 165 207 265 329 397
#     4  11  25  43  62  95 137 180 224 276 336 391
#     4  11  22  41  66  96 130 175 222 272 320 389
#
# _framework density 22.297878000000001
#
# number of rings (size 3 to 8) (size 9 to 14) (size 15 to 20)
#    0.000    1.833    1.667    2.000    0.000    7.667 
#   18.000    0.000    0.000    0.000    0.000    0.000 
#    0.000    0.000    0.000    0.000    0.000    0.000 
#
# Total GULP energy -133822.227531 kJ/mol
# GULP energy per Si atom -5575.926147 kJ/mol
# Density = 2.224713 g / cm^3
# Si number density = 22.297878 Si / 1000 Ang^3
#
#
#
# Elastic Constant Matrix: (Units=GPa)
#
#
# Indices 1 2 3 4 5 6 
#
# 1 185.3055 34.2337 20.4973 0.0000 0.0000 0.0000
# 2 34.2337 53.7458 20.3696 0.0000 0.0000 0.0000
# 3 20.4973 20.3696 47.8408 0.0000 0.0000 0.0000
# 4 0.0000 0.0000 0.0000 20.6873 0.0000 0.0000
# 5 0.0000 0.0000 0.0000 0.0000 -3.5302 0.0000
# 6 0.0000 0.0000 0.0000 0.0000 0.0000 21.8810
#
#
#
# Elastic Compliance Matrix: (Units=1/GPa)
#
#
# Indices 1 2 3 4 5 6 
#
# 1 0.006169 -0.003491 -0.001157 0.000000 0.000000 0.000000
# 2 -0.003491 0.024162 -0.008792 0.000000 0.000000 0.000000
# 3 -0.001157 -0.008792 0.025142 0.000000 0.000000 0.000000
# 4 0.000000 0.000000 0.000000 0.048339 0.000000 0.000000
# 5 0.000000 0.000000 0.000000 0.000000 -0.283267 0.000000
# 6 0.000000 0.000000 0.000000 0.000000 0.000000 0.045702
#
#
# Mechanical properties :
#
#
# Convention : Reuss Voigt Hill
#
# Bulk Modulus (GPa) = 34.97318 48.56592 41.76955
# Shear Modulus (GPa) = -51.36502 21.92704 -14.71899
#
# Velocity S-wave (km/s) = -4.80477 3.13927 -2.57204
# Velocity P-wave (km/s) = 3.88105 5.91336 3.15478
#
# Compressibility (1/GPa) = 0.02859334
#
# Stress axis : x y z
#
# Youngs Moduli (GPa) = 162.08957 41.38740 39.77460
#
# Poissons Ratio (x) = 0.14449 0.04601
# Poissons Ratio (y) = 0.56589 0.34969
# Poissons Ratio (z) = 0.18750 0.36387
#
# Static dielectric constant tensor:
#      x y z
#    x 1.860530 0.000000 0.000000 
#    y 0.000000 1.920810 0.000000 
#    z 0.000000 0.000000 1.783840 
# 
# From -- ./inp_files/45699.got.cif
#   From: 2010.05.17/outbox.cif.g08.bks.cpg/sg22_23_cif.got.tgz:45699.got - 2010.06.03 23:40:54.
