data_PCOD9327793
_publ_section_title
;
Structure prediction by ZEFSAII (Michael W. Deem and Ramdas Pophale) SiO2 
 PCOD9327793
Probable space group: F 2 2 2
;
_chemical_formula_sum "Si O2"
_cell_formula_units_Z 96
_cell_length_a 11.746883
_cell_length_b 21.629950
_cell_length_c 16.296673
_cell_angle_alpha 90.000000
_cell_angle_beta 90.000000
_cell_angle_gamma 90.000000
_cell_volume 4140.731880
_symmetry_space_group_name_H-M "F 2 2 2"
_symmetry_group_IT_number 22
_symmetry_cell_setting 'orthorhombic'
loop_
_space_group_symop_operation_xyz
x,y,z
-x,-y,z
x,-y,-z
-x,y,-z
x,1/2+y,1/2+z
-x,1/2-y,1/2+z
x,1/2-y,1/2-z
-x,1/2+y,1/2-z
1/2+x,y,1/2+z
1/2-x,-y,1/2+z
1/2+x,-y,1/2-z
1/2-x,y,1/2-z
1/2+x,1/2+y,z
1/2-x,1/2-y,z
1/2+x,1/2-y,-z
1/2-x,1/2+y,-z
loop_
_atom_site_type_symbol
_atom_site_label
_atom_site_fract_x
_atom_site_fract_y
_atom_site_fract_z
Si Si1 0.468508 0.780134 0.414100
Si Si2 0.897305 0.617928 0.339683
Si Si3 0.242424 0.863813 0.097264
Si Si4 0.826790 0.597804 0.082252
Si Si5 0.297377 0.006786 0.657194
Si Si6 0.020100 0.342399 0.826394
O O1 0.500000 0.748854 0.500000
O O2 0.546658 0.840795 0.409532
O O3 0.341037 0.805463 0.406306
O O4 0.496658 0.729797 0.345731
O O5 0.761237 0.629144 0.351145
O O6 0.897219 0.543941 0.347349
O O7 0.964751 0.638047 0.259136
O O8 0.176380 0.925090 0.126890
O O9 0.346517 0.854455 0.160191
O O10 0.291163 0.879026 0.007070
O O11 0.798876 0.525650 0.099277
O O12 0.951988 0.617210 0.106825
O O13 0.250000 0.007815 0.750000
#
# Coordination Sequence:
#
# PCOD9327793 Si02
#       6
#    16  16  16  16  16  16
#     4  12  25  46  70 103 149 196 241 299 361 440
#     4  10  23  47  70  99 139 187 247 289 360 431
#     4  12  26  42  72 109 146 191 239 303 368 440
#     4  10  21  48  70 104 141 188 249 295 367 432
#     4  10  22  46  70 100 142 182 243 300 364 428
#     4  12  25  44  74 107 144 192 235 306 367 429
#
# _framework density 23.184307
#
# number of rings (size 3 to 8) (size 9 to 14) (size 15 to 20)
#    1.000    0.000    3.333    3.500    2.333    2.000 
#    0.000    5.833    0.000    0.000    0.000    0.000 
#    0.000    0.000    0.000    0.000    0.000    0.000 
#
# Total GULP energy -134053.764494 kJ/mol
# GULP energy per Si atom -5585.573521 kJ/mol
# Density = 2.313154 g / cm^3
# Si number density = 23.184307 Si / 1000 Ang^3
#
#
#
# Elastic Constant Matrix: (Units=GPa)
#
#
# Indices 1 2 3 4 5 6 
#
# 1 95.7921 27.8324 3.7282 0.0000 0.0000 0.0000
# 2 27.8324 106.5933 15.0775 0.0000 0.0000 0.0000
# 3 3.7282 15.0775 77.9801 0.0000 0.0000 0.0000
# 4 0.0000 0.0000 0.0000 12.9475 0.0000 0.0000
# 5 0.0000 0.0000 0.0000 0.0000 35.3121 0.0000
# 6 0.0000 0.0000 0.0000 0.0000 0.0000 28.5859
#
#
#
# Elastic Compliance Matrix: (Units=1/GPa)
#
#
# Indices 1 2 3 4 5 6 
#
# 1 0.011296 -0.002954 0.000031 0.000000 0.000000 0.000000
# 2 -0.002954 0.010418 -0.001873 0.000000 0.000000 0.000000
# 3 0.000031 -0.001873 0.013184 0.000000 0.000000 0.000000
# 4 0.000000 0.000000 0.000000 0.077235 0.000000 0.000000
# 5 0.000000 0.000000 0.000000 0.000000 0.028319 0.000000
# 6 0.000000 0.000000 0.000000 0.000000 0.000000 0.034982
#
#
# Mechanical properties :
#
#
# Convention : Reuss Voigt Hill
#
# Bulk Modulus (GPa) = 39.51534 41.51576 40.51555
# Shear Modulus (GPa) = 25.84487 30.95092 28.39789
#
# Velocity S-wave (km/s) = 3.34242 3.65772 3.50362
# Velocity P-wave (km/s) = 5.65479 5.98200 5.82069
#
# Compressibility (1/GPa) = 0.02530662
#
# Stress axis : x y z
#
# Youngs Moduli (GPa) = 88.52431 95.99055 75.84691
#
# Poissons Ratio (x) = 0.28355 -0.00236
# Poissons Ratio (y) = 0.26150 0.14206
# Poissons Ratio (z) = -0.00275 0.17979
#
# Static dielectric constant tensor:
#      x y z
#    x 1.887250 0.000000 0.000000 
#    y 0.000000 1.850530 0.000000 
#    z 0.000000 0.000000 1.932930 
# 
# From -- ./inp_files/36247.got.cif
#   From: 2010.05.17/outbox.cif.g08.bks.cpg/sg22_19_cif.got.tgz:36247.got - 2010.06.03 23:40:54.
