data_PCOD9327206
_publ_section_title
;
Structure prediction by ZEFSAII (Michael W. Deem and Ramdas Pophale) SiO2 
 PCOD9327206
Probable space group: F 2 2 2
;
_chemical_formula_sum "Si O2"
_cell_formula_units_Z 92
_cell_length_a 13.797724
_cell_length_b 19.341647
_cell_length_c 16.633495
_cell_angle_alpha 90.000000
_cell_angle_beta 90.000000
_cell_angle_gamma 90.000000
_cell_volume 4438.992571
_symmetry_space_group_name_H-M "F 2 2 2"
_symmetry_group_IT_number 22
_symmetry_cell_setting 'orthorhombic'
loop_
_space_group_symop_operation_xyz
x,y,z
-x,-y,z
x,-y,-z
-x,y,-z
x,1/2+y,1/2+z
-x,1/2-y,1/2+z
x,1/2-y,1/2-z
-x,1/2+y,1/2-z
1/2+x,y,1/2+z
1/2-x,-y,1/2+z
1/2+x,-y,1/2-z
1/2-x,y,1/2-z
1/2+x,1/2+y,z
1/2-x,1/2-y,z
1/2+x,1/2-y,-z
1/2-x,1/2+y,-z
loop_
_atom_site_type_symbol
_atom_site_label
_atom_site_fract_x
_atom_site_fract_y
_atom_site_fract_z
Si Si1 0.250000 0.750000 0.250000
Si Si2 0.284122 0.325999 0.476077
Si Si3 0.250000 0.450483 0.750000
Si Si4 0.905279 0.922358 0.037821
Si Si5 0.876135 0.151331 0.357306
Si Si6 0.597692 0.817065 0.189415
Si Si7 0.588606 0.954474 0.284781
O O1 0.180770 0.788901 0.311183
O O2 0.250000 0.250000 0.502337
O O3 0.192216 0.377604 0.469005
O O4 0.353194 0.352655 0.548098
O O5 0.336056 0.314024 0.390098
O O6 0.176087 0.411537 0.809526
O O7 0.320605 0.496881 0.802272
O O8 0.941287 0.927928 0.128924
O O9 0.000000 0.886810 0.000000
O O10 0.893262 0.000000 0.000000
O O11 0.987713 0.167750 0.339383
O O12 0.604705 0.750000 0.250000
O O13 0.622085 0.888458 0.234813
O O14 0.500000 0.000000 0.249490
#
# Coordination Sequence:
#
# PCOD9327206 Si02
#       7
#     4  16   8  16  16  16  16
#     4  10  20  40  72 100 134 180 234 296 342 420
#     4  12  27  45  68 104 147 189 228 291 365 426
#     4  11  24  43  73 102 143 184 238 298 347 426
#     4  11  24  44  72 105 137 181 242 299 350 415
#     4  11  23  43  72 103 137 182 240 294 350 416
#     4  12  27  47  72 103 144 188 235 292 358 436
#     4  12  23  44  71 101 137 186 236 286 356 421
#
# _framework density 20.725424
#
# number of rings (size 3 to 8) (size 9 to 14) (size 15 to 20)
#    0.000    0.522    5.217    3.652    0.000    4.522 
#    0.000    0.000    0.000    0.000    0.000    0.000 
#    0.000    0.000    0.000    0.000    0.000    0.000 
#
# Total GULP energy -128255.839112 kJ/mol
# GULP energy per Si atom -5576.340831 kJ/mol
# Density = 2.067825 g / cm^3
# Si number density = 20.725424 Si / 1000 Ang^3
#
#
#
# Elastic Constant Matrix: (Units=GPa)
#
#
# Indices 1 2 3 4 5 6 
#
# 1 137.7452 41.5076 34.5339 0.0000 0.0000 0.0000
# 2 41.5076 84.4643 25.9618 0.0000 0.0000 0.0000
# 3 34.5339 25.9618 130.4376 0.0000 0.0000 0.0000
# 4 0.0000 0.0000 0.0000 20.8835 0.0000 0.0000
# 5 0.0000 0.0000 0.0000 0.0000 41.0446 0.0000
# 6 0.0000 0.0000 0.0000 0.0000 0.0000 22.4542
#
#
#
# Elastic Compliance Matrix: (Units=1/GPa)
#
#
# Indices 1 2 3 4 5 6 
#
# 1 0.008812 -0.003849 -0.001567 0.000000 0.000000 0.000000
# 2 -0.003849 0.014292 -0.001826 0.000000 0.000000 0.000000
# 3 -0.001567 -0.001826 0.008445 0.000000 0.000000 0.000000
# 4 0.000000 0.000000 0.000000 0.047885 0.000000 0.000000
# 5 0.000000 0.000000 0.000000 0.000000 0.024364 0.000000
# 6 0.000000 0.000000 0.000000 0.000000 0.000000 0.044535
#
#
# Mechanical properties :
#
#
# Convention : Reuss Voigt Hill
#
# Bulk Modulus (GPa) = 58.59630 61.85042 60.22336
# Shear Modulus (GPa) = 29.67277 33.58604 31.62941
#
# Velocity S-wave (km/s) = 3.78790 4.02994 3.91079
# Velocity P-wave (km/s) = 6.88948 7.18063 7.03656
#
# Compressibility (1/GPa) = 0.01706592
#
# Stress axis : x y z
#
# Youngs Moduli (GPa) = 113.47526 69.96958 118.41691
#
# Poissons Ratio (x) = 0.26931 0.18557
# Poissons Ratio (y) = 0.43676 0.21618
# Poissons Ratio (z) = 0.17782 0.12773
#
# Static dielectric constant tensor:
#      x y z
#    x 1.792900 0.000000 0.000000 
#    y 0.000000 1.796690 0.000000 
#    z 0.000000 0.000000 1.731030 
# 
# From -- ./inp_files/31579.got.cif
#   From: 2010.05.17/outbox.cif.g08.bks.cpg/sg22_16_cif.got.tgz:31579.got - 2010.06.03 23:40:54.
