data_PCOD9327507
_publ_section_title
;
Structure prediction by ZEFSAII (Michael W. Deem and Ramdas Pophale) SiO2 
 PCOD9327507
Probable space group: F 2 2 2
;
_chemical_formula_sum "Si O2"
_cell_formula_units_Z 60
_cell_length_a 21.031819
_cell_length_b 4.706230
_cell_length_c 26.057244
_cell_angle_alpha 90.000000
_cell_angle_beta 90.000000
_cell_angle_gamma 90.000000
_cell_volume 2579.161060
_symmetry_space_group_name_H-M "F 2 2 2"
_symmetry_group_IT_number 22
_symmetry_cell_setting 'orthorhombic'
loop_
_space_group_symop_operation_xyz
x,y,z
-x,-y,z
x,-y,-z
-x,y,-z
x,1/2+y,1/2+z
-x,1/2-y,1/2+z
x,1/2-y,1/2-z
-x,1/2+y,1/2-z
1/2+x,y,1/2+z
1/2-x,-y,1/2+z
1/2+x,-y,1/2-z
1/2-x,y,1/2-z
1/2+x,1/2+y,z
1/2-x,1/2-y,z
1/2+x,1/2-y,-z
1/2-x,1/2+y,-z
loop_
_atom_site_type_symbol
_atom_site_label
_atom_site_fract_x
_atom_site_fract_y
_atom_site_fract_z
Si Si1 0.500000 0.000000 0.000000
Si Si2 0.934635 0.991498 0.711848
Si Si3 0.678106 0.293135 0.578356
Si Si4 0.915565 0.000000 0.000000
Si Si5 0.178022 0.710369 0.351800
O O1 0.456021 0.757897 0.026920
O O2 0.958482 0.750000 0.750000
O O3 0.875377 0.848644 0.683296
O O4 0.914574 0.250000 0.750000
O O5 0.000000 0.000000 0.677414
O O6 0.750000 0.250000 0.559209
O O7 0.673804 0.619056 0.594383
O O8 0.626951 0.174154 0.539670
O O9 0.670076 0.115425 0.631597
O O10 0.250000 0.750000 0.331740
#
# Coordination Sequence:
#
# PCOD9327507 Si02
#       5
#     4  16  16   8  16
#     4  10  24  40  56  84 128 162 204 272 296 374
#     4  10  21  39  62  88 122 163 210 251 308 388
#     4  10  22  39  64  90 120 160 209 263 311 372
#     4  11  22  43  62  87 128 171 212 258 316 373
#     4  10  21  39  59  93 127 154 206 267 318 373
#
# _framework density 23.263376999999998
#
# number of rings (size 3 to 8) (size 9 to 14) (size 15 to 20)
#    0.000    1.867    0.000    3.200    0.000    4.800 
#   14.400    1.333    0.000    0.000    0.000    0.000 
#    0.000    0.000    0.000    0.000    0.000    0.000 
#
# Total GULP energy -83506.837486 kJ/mol
# GULP energy per Si atom -5567.122499 kJ/mol
# Density = 2.321043 g / cm^3
# Si number density = 23.263377 Si / 1000 Ang^3
#
#
#
# Elastic Constant Matrix: (Units=GPa)
#
#
# Indices 1 2 3 4 5 6 
#
# 1 159.6335 20.0076 34.5132 0.0009 0.0014 -0.0072
# 2 20.0076 120.3522 -6.1829 0.0011 0.0094 0.0199
# 3 34.5132 -6.1829 19.2768 0.0014 -0.0021 -0.0016
# 4 0.0009 0.0011 0.0014 18.1978 -0.0025 0.0009
# 5 0.0014 0.0094 -0.0021 -0.0025 37.6097 0.0038
# 6 -0.0072 0.0199 -0.0016 0.0009 0.0038 46.0197
#
#
#
# Elastic Compliance Matrix: (Units=1/GPa)
#
#
# Indices 1 2 3 4 5 6 
#
# 1 0.011151 -0.002928 -0.020903 0.000001 -0.000001 0.000002
# 2 -0.002928 0.009217 0.008198 -0.000001 -0.000002 -0.000004
# 3 -0.020903 0.008198 0.091930 -0.000006 0.000004 -0.000004
# 4 0.000001 -0.000001 -0.000006 0.054952 0.000004 -0.000001
# 5 -0.000001 -0.000002 0.000004 0.000004 0.026589 -0.000002
# 6 0.000002 -0.000004 -0.000004 -0.000001 -0.000002 0.021730
#
#
# Mechanical properties :
#
#
# Convention : Reuss Voigt Hill
#
# Bulk Modulus (GPa) = 12.34083 43.99316 28.16699
# Shear Modulus (GPa) = 18.25856 37.09377 27.67616
#
# Velocity S-wave (km/s) = 2.80458 3.99747 3.45293
# Velocity P-wave (km/s) = 3.97541 6.34494 5.29444
#
# Compressibility (1/GPa) = 0.08103186
#
# Stress axis : x y z
#
# Youngs Moduli (GPa) = 89.68151 108.49781 10.87781
#
# Poissons Ratio (x) = 0.31763 0.22738
# Poissons Ratio (y) = 0.26255 -0.08917
# Poissons Ratio (z) = 1.87462 -0.88944
#
# Static dielectric constant tensor:
#      x y z
#    x 2.057940 0.000000 0.000000 
#    y 0.000000 1.881180 0.000010 
#    z 0.000000 0.000010 1.864830 
# 
# From -- ./inp_files/49660.got.cif
#   From: 2010.05.17/outbox.cif.g08.bks.cpg/sg22_25_cif.got.tgz:49660.got - 2010.06.03 23:40:54.
