data_PCOD9327890
_publ_section_title
;
Structure prediction by ZEFSAII (Michael W. Deem and Ramdas Pophale) SiO2 
 PCOD9327890
Probable space group: F 2 2 2
;
_chemical_formula_sum "Si O2"
_cell_formula_units_Z 52
_cell_length_a 8.221504
_cell_length_b 23.158112
_cell_length_c 12.164498
_cell_angle_alpha 90.000000
_cell_angle_beta 90.000000
_cell_angle_gamma 90.000000
_cell_volume 2316.053641
_symmetry_space_group_name_H-M "F 2 2 2"
_symmetry_group_IT_number 22
_symmetry_cell_setting 'orthorhombic'
loop_
_space_group_symop_operation_xyz
x,y,z
-x,-y,z
x,-y,-z
-x,y,-z
x,1/2+y,1/2+z
-x,1/2-y,1/2+z
x,1/2-y,1/2-z
-x,1/2+y,1/2-z
1/2+x,y,1/2+z
1/2-x,-y,1/2+z
1/2+x,-y,1/2-z
1/2-x,y,1/2-z
1/2+x,1/2+y,z
1/2-x,1/2-y,z
1/2+x,1/2-y,-z
1/2-x,1/2+y,-z
loop_
_atom_site_type_symbol
_atom_site_label
_atom_site_fract_x
_atom_site_fract_y
_atom_site_fract_z
Si Si1 0.154191 0.159504 0.425982
Si Si2 0.750000 0.750000 0.250000
Si Si3 0.136291 0.904372 0.077735
Si Si4 0.029880 0.934011 0.309873
O O1 0.160540 0.206745 0.332207
O O2 0.307927 0.151054 0.505931
O O3 0.000000 0.173025 0.500000
O O4 0.117880 0.096952 0.371413
O O5 0.060719 0.897574 0.198835
O O6 0.310034 0.933032 0.111660
O O7 0.000000 0.933317 0.000000
O O8 0.000000 0.000000 0.278973
#
# Coordination Sequence:
#
# PCOD9327890 Si02
#       4
#    16   4  16  16
#     4  10  24  43  63  93 130 172 220 278 340 395
#     4  12  24  40  68  96 132 176 228 284 332 406
#     4  10  22  39  63  90 123 170 218 266 328 393
#     4  10  23  41  62  95 133 168 219 279 334 403
#
# _framework density 22.451983999999999
#
# number of rings (size 3 to 8) (size 9 to 14) (size 15 to 20)
#    0.000    1.846    0.000    1.846    0.000   19.692 
#    0.000    0.000    0.000    7.385    0.000    0.000 
#    0.000    0.000    0.000    0.000    0.000    0.000 
#
# Total GULP energy -72493.315910 kJ/mol
# GULP energy per Si atom -5576.408916 kJ/mol
# Density = 2.240088 g / cm^3
# Si number density = 22.451984 Si / 1000 Ang^3
#
#
#
# Elastic Constant Matrix: (Units=GPa)
#
#
# Indices 1 2 3 4 5 6 
#
# 1 80.3844 20.4072 53.0128 0.0000 0.0000 0.0000
# 2 20.4072 84.1791 60.2232 0.0000 0.0000 0.0000
# 3 53.0128 60.2232 176.2673 0.0000 0.0000 0.0000
# 4 0.0000 0.0000 0.0000 3.7849 0.0000 0.0000
# 5 0.0000 0.0000 0.0000 0.0000 45.6942 0.0000
# 6 0.0000 0.0000 0.0000 0.0000 0.0000 7.1652
#
#
#
# Elastic Compliance Matrix: (Units=1/GPa)
#
#
# Indices 1 2 3 4 5 6 
#
# 1 0.015538 -0.000561 -0.004482 0.000000 0.000000 0.000000
# 2 -0.000561 0.015743 -0.005210 0.000000 0.000000 0.000000
# 3 -0.004482 -0.005210 0.008801 0.000000 0.000000 0.000000
# 4 0.000000 0.000000 0.000000 0.264208 0.000000 0.000000
# 5 0.000000 0.000000 0.000000 0.000000 0.021885 0.000000
# 6 0.000000 0.000000 0.000000 0.000000 0.000000 0.139563
#
#
# Mechanical properties :
#
#
# Convention : Reuss Voigt Hill
#
# Bulk Modulus (GPa) = 51.07921 67.56858 59.32390
# Shear Modulus (GPa) = 10.14677 25.14137 17.64407
#
# Velocity S-wave (km/s) = 2.12818 3.34995 2.80636
# Velocity P-wave (km/s) = 5.37016 6.71736 6.08118
#
# Compressibility (1/GPa) = 0.01957743
#
# Stress axis : x y z
#
# Youngs Moduli (GPa) = 64.35786 63.52165 113.62228
#
# Poissons Ratio (x) = 0.03561 0.50921
# Poissons Ratio (y) = 0.03608 0.59197
# Poissons Ratio (z) = 0.28843 0.33095
#
# Static dielectric constant tensor:
#      x y z
#    x 1.867900 0.000000 0.000000 
#    y 0.000000 1.836730 0.000000 
#    z 0.000000 0.000000 1.840360 
# 
# From -- ./inp_files/8272.got.cif
#   From: 2010.05.17/outbox.cif.g08.bks.cpg/sg22_5_cif.got.tgz:8272.got - 2010.06.03 23:40:54.
