data_PCOD9327918
_publ_section_title
;
Structure prediction by ZEFSAII (Michael W. Deem and Ramdas Pophale) SiO2 
 PCOD9327918
Probable space group: F 2 2 2
;
_chemical_formula_sum "Si O2"
_cell_formula_units_Z 56
_cell_length_a 14.113114
_cell_length_b 5.085932
_cell_length_c 35.087763
_cell_angle_alpha 90.000000
_cell_angle_beta 90.000000
_cell_angle_gamma 90.000000
_cell_volume 2518.541316
_symmetry_space_group_name_H-M "F 2 2 2"
_symmetry_group_IT_number 22
_symmetry_cell_setting 'orthorhombic'
loop_
_space_group_symop_operation_xyz
x,y,z
-x,-y,z
x,-y,-z
-x,y,-z
x,1/2+y,1/2+z
-x,1/2-y,1/2+z
x,1/2-y,1/2-z
-x,1/2+y,1/2-z
1/2+x,y,1/2+z
1/2-x,-y,1/2+z
1/2+x,-y,1/2-z
1/2-x,y,1/2-z
1/2+x,1/2+y,z
1/2-x,1/2-y,z
1/2+x,1/2-y,-z
1/2-x,1/2+y,-z
loop_
_atom_site_type_symbol
_atom_site_label
_atom_site_fract_x
_atom_site_fract_y
_atom_site_fract_z
Si Si1 0.310406 0.480668 0.675697
Si Si2 0.500000 0.000000 0.776398
Si Si3 0.564843 0.752927 0.610891
Si Si4 0.136009 0.752870 0.024984
O O1 0.250000 0.250000 0.696234
O O2 0.406239 0.549099 0.698432
O O3 0.348476 0.324932 0.638197
O O4 0.250000 0.750000 0.669208
O O5 0.482544 0.250000 0.750000
O O6 0.500000 0.500000 0.612157
O O7 0.596340 0.782461 0.567258
O O8 0.500000 0.000000 0.623201
O O9 0.250000 0.750000 0.028671
O O10 0.108850 0.500000 0.000000
O O11 0.108414 0.000000 0.000000
#
# Coordination Sequence:
#
# PCOD9327918 Si02
#       4
#    16   8  16  16
#     4  12  27  48  77 108 150 195 244 296 368 439
#     4  12  28  50  78 112 153 186 239 302 360 446
#     4  12  25  42  69 100 142 187 245 310 360 428
#     4  10  22  40  60  91 134 184 243 302 364 430
#
# _framework density 22.23509
#
# number of rings (size 3 to 8) (size 9 to 14) (size 15 to 20)
#    0.000    0.571    1.429    6.000    2.000   10.286 
#    0.000    0.000    0.000    0.000    0.000    0.000 
#    0.000    0.000    0.000    0.000    0.000    0.000 
#
# Total GULP energy -78334.688159 kJ/mol
# GULP energy per Si atom -5595.334868 kJ/mol
# Density = 2.218448 g / cm^3
# Si number density = 22.235090 Si / 1000 Ang^3
#
#
#
# Elastic Constant Matrix: (Units=GPa)
#
#
# Indices 1 2 3 4 5 6 
#
# 1 167.5155 68.6965 55.2910 0.0000 0.0000 0.0000
# 2 68.6965 205.3065 50.3898 0.0000 0.0000 0.0000
# 3 55.2910 50.3898 115.8715 0.0000 0.0000 0.0000
# 4 0.0000 0.0000 0.0000 44.3917 0.0000 0.0000
# 5 0.0000 0.0000 0.0000 0.0000 23.5943 0.0000
# 6 0.0000 0.0000 0.0000 0.0000 0.0000 65.3080
#
#
#
# Elastic Compliance Matrix: (Units=1/GPa)
#
#
# Indices 1 2 3 4 5 6 
#
# 1 0.007677 -0.001869 -0.002850 0.000000 0.000000 0.000000
# 2 -0.001869 0.005908 -0.001677 0.000000 0.000000 0.000000
# 3 -0.002850 -0.001677 0.010720 0.000000 0.000000 0.000000
# 4 0.000000 0.000000 0.000000 0.022527 0.000000 0.000000
# 5 0.000000 0.000000 0.000000 0.000000 0.042383 0.000000
# 6 0.000000 0.000000 0.000000 0.000000 0.000000 0.015312
#
#
# Mechanical properties :
#
#
# Convention : Reuss Voigt Hill
#
# Bulk Modulus (GPa) = 86.87382 93.04979 89.96181
# Shear Modulus (GPa) = 41.26873 47.61322 44.44098
#
# Velocity S-wave (km/s) = 4.31283 4.63250 4.47552
# Velocity P-wave (km/s) = 7.99725 8.39955 8.20087
#
# Compressibility (1/GPa) = 0.01151095
#
# Stress axis : x y z
#
# Youngs Moduli (GPa) = 130.26041 169.26610 93.28534
#
# Poissons Ratio (x) = 0.31638 0.26590
# Poissons Ratio (y) = 0.24348 0.15647
# Poissons Ratio (z) = 0.37129 0.28391
#
# Static dielectric constant tensor:
#      x y z
#    x 1.846160 0.000000 0.000000 
#    y 0.000000 1.766890 0.000000 
#    z 0.000000 0.000000 1.803860 
# 
# From -- ./inp_files/26088.got.cif
#   From: 2010.05.17/outbox.cif.g08.bks.cpg/sg22_14_cif.got.tgz:26088.got - 2010.06.03 23:40:54.
