data_PCOD9327541
_publ_section_title
;
Structure prediction by ZEFSAII (Michael W. Deem and Ramdas Pophale) SiO2 
 PCOD9327541
Probable space group: F 2 2 2
;
_chemical_formula_sum "Si O2"
_cell_formula_units_Z 92
_cell_length_a 9.803887
_cell_length_b 22.707372
_cell_length_c 20.357479
_cell_angle_alpha 90.000000
_cell_angle_beta 90.000000
_cell_angle_gamma 90.000000
_cell_volume 4531.992340
_symmetry_space_group_name_H-M "F 2 2 2"
_symmetry_group_IT_number 22
_symmetry_cell_setting 'orthorhombic'
loop_
_space_group_symop_operation_xyz
x,y,z
-x,-y,z
x,-y,-z
-x,y,-z
x,1/2+y,1/2+z
-x,1/2-y,1/2+z
x,1/2-y,1/2-z
-x,1/2+y,1/2-z
1/2+x,y,1/2+z
1/2-x,-y,1/2+z
1/2+x,-y,1/2-z
1/2-x,y,1/2-z
1/2+x,1/2+y,z
1/2-x,1/2-y,z
1/2+x,1/2-y,-z
1/2-x,1/2+y,-z
loop_
_atom_site_type_symbol
_atom_site_label
_atom_site_fract_x
_atom_site_fract_y
_atom_site_fract_z
Si Si1 0.681569 0.834933 0.315040
Si Si2 0.750000 0.750000 0.750000
Si Si3 0.086820 0.664540 0.919923
Si Si4 0.851022 0.530748 0.310263
Si Si5 0.250000 0.750000 0.482777
Si Si6 0.069147 0.767663 0.130241
Si Si7 0.137077 0.969383 0.569889
O O1 0.750000 0.810168 0.250000
O O2 0.808972 0.841847 0.361285
O O3 0.621784 0.899363 0.300080
O O4 0.575123 0.796196 0.355181
O O5 0.848712 0.780542 0.802865
O O6 0.153963 0.708456 0.973293
O O7 0.088711 0.597676 0.944038
O O8 0.958128 0.698693 0.887832
O O9 0.750000 0.512023 0.250000
O O10 0.761272 0.525475 0.377731
O O11 0.000000 0.500000 0.312220
O O12 0.153336 0.712350 0.433530
O O13 0.170941 0.000000 0.500000
O O14 0.000000 0.000000 0.597679
#
# Coordination Sequence:
#
# PCOD9327541 Si02
#       7
#    16   4  16  16   8  16  16
#     4  10  21  39  65  93 124 173 215 264 328 394
#     4  10  24  40  54  92 130 160 206 270 322 382
#     4  11  22  40  65  90 131 173 213 265 326 398
#     4  10  22  43  67  95 132 172 225 278 338 396
#     4  11  24  35  59  96 127 172 206 266 325 388
#     4  11  22  39  60  90 131 163 214 261 327 393
#     4  10  24  42  66  98 129 175 226 275 330 398
#
# _framework density 20.300121000000001
#
# number of rings (size 3 to 8) (size 9 to 14) (size 15 to 20)
#    0.000    1.565    1.739    2.087    4.870    2.435 
#    4.696    3.478    0.000    0.000    0.000    0.000 
#    0.000    0.000    0.000    0.000    0.000    0.000 
#
# Total GULP energy -128076.531987 kJ/mol
# GULP energy per Si atom -5568.544869 kJ/mol
# Density = 2.025392 g / cm^3
# Si number density = 20.300121 Si / 1000 Ang^3
#
#
#
# Elastic Constant Matrix: (Units=GPa)
#
#
# Indices 1 2 3 4 5 6 
#
# 1 100.6766 48.6767 43.3650 0.0000 0.0000 0.0000
# 2 48.6767 108.8809 42.7489 0.0000 0.0000 0.0000
# 3 43.3650 42.7489 132.9939 0.0000 0.0000 0.0000
# 4 0.0000 0.0000 0.0000 -15.4104 0.0000 0.0000
# 5 0.0000 0.0000 0.0000 0.0000 44.4876 0.0000
# 6 0.0000 0.0000 0.0000 0.0000 0.0000 25.4093
#
#
#
# Elastic Compliance Matrix: (Units=1/GPa)
#
#
# Indices 1 2 3 4 5 6 
#
# 1 0.013540 -0.004944 -0.002826 0.000000 0.000000 0.000000
# 2 -0.004944 0.012316 -0.002347 0.000000 0.000000 0.000000
# 3 -0.002826 -0.002347 0.009195 0.000000 0.000000 0.000000
# 4 0.000000 0.000000 0.000000 -0.064891 0.000000 0.000000
# 5 0.000000 0.000000 0.000000 0.000000 0.022478 0.000000
# 6 0.000000 0.000000 0.000000 0.000000 0.000000 0.039356
#
#
# Mechanical properties :
#
#
# Convention : Reuss Voigt Hill
#
# Bulk Modulus (GPa) = 67.48496 68.01473 67.74985
# Shear Modulus (GPa) = 87.46390 24.74802 56.10596
#
# Velocity S-wave (km/s) = 6.57107 3.49536 5.26291
# Velocity P-wave (km/s) = 9.53350 7.06168 8.38913
#
# Compressibility (1/GPa) = 0.01481812
#
# Stress axis : x y z
#
# Youngs Moduli (GPa) = 73.85320 81.19544 108.75579
#
# Poissons Ratio (x) = 0.40142 0.30734
# Poissons Ratio (y) = 0.36512 0.25522
# Poissons Ratio (z) = 0.20870 0.19054
#
# Static dielectric constant tensor:
#      x y z
#    x 1.759080 0.000000 0.000000 
#    y 0.000000 1.762080 0.000000 
#    z 0.000000 0.000000 1.646630 
# 
# From -- ./inp_files/42001.got.cif
#   From: 2010.05.17/outbox.cif.g08.bks.cpg/sg22_22_cif.got.tgz:42001.got - 2010.06.03 23:40:54.
