data_PCOD9327777
_publ_section_title
;
Structure prediction by ZEFSAII (Michael W. Deem and Ramdas Pophale) SiO2 
 PCOD9327777
Probable space group: F 2 2 2
;
_chemical_formula_sum "Si O2"
_cell_formula_units_Z 88
_cell_length_a 24.913953
_cell_length_b 11.957840
_cell_length_c 14.566775
_cell_angle_alpha 90.000000
_cell_angle_beta 90.000000
_cell_angle_gamma 90.000000
_cell_volume 4339.690836
_symmetry_space_group_name_H-M "F 2 2 2"
_symmetry_group_IT_number 22
_symmetry_cell_setting 'orthorhombic'
loop_
_space_group_symop_operation_xyz
x,y,z
-x,-y,z
x,-y,-z
-x,y,-z
x,1/2+y,1/2+z
-x,1/2-y,1/2+z
x,1/2-y,1/2-z
-x,1/2+y,1/2-z
1/2+x,y,1/2+z
1/2-x,-y,1/2+z
1/2+x,-y,1/2-z
1/2-x,y,1/2-z
1/2+x,1/2+y,z
1/2-x,1/2-y,z
1/2+x,1/2-y,-z
1/2-x,1/2+y,-z
loop_
_atom_site_type_symbol
_atom_site_label
_atom_site_fract_x
_atom_site_fract_y
_atom_site_fract_z
Si Si1 0.084207 0.117038 0.251445
Si Si2 0.141139 0.750000 0.250000
Si Si3 0.325254 0.000000 0.000000
Si Si4 0.805712 0.987714 0.705925
Si Si5 0.058860 0.394895 0.455146
Si Si6 0.411094 0.179753 0.941372
Si Si7 0.500000 0.500000 0.614986
O O1 0.089007 0.250000 0.250000
O O2 0.141768 0.060330 0.269011
O O3 0.060152 0.086171 0.152427
O O4 0.042501 0.070955 0.325775
O O5 0.177670 0.638011 0.240436
O O6 0.104244 0.764735 0.342113
O O7 0.363463 0.105467 0.981685
O O8 0.295683 0.997279 0.903124
O O9 0.750000 0.022036 0.750000
O O10 0.088850 0.500000 0.500000
O O11 0.081680 0.277320 0.485824
O O12 0.000000 0.391794 0.500000
O O13 0.461297 0.094610 0.930833
#
# Coordination Sequence:
#
# PCOD9327777 Si02
#       7
#    16   8   8  16  16  16   8
#     4  12  25  43  66 101 139 183 228 288 355 417
#     4  10  21  44  72 100 136 170 241 298 338 418
#     4  10  22  45  68 104 132 171 240 290 334 436
#     4  11  24  47  74 100 138 182 238 296 359 419
#     4  11  24  38  58  94 142 178 223 276 342 414
#     4  11  24  40  68 101 137 181 233 281 349 424
#     4  12  24  41  71  98 140 194 228 285 350 427
#
# _framework density 20.277941999999999
#
# number of rings (size 3 to 8) (size 9 to 14) (size 15 to 20)
#    0.000    0.909    3.636    4.636    6.364    0.364 
#    4.909    0.000    4.000    0.000    0.000    0.000 
#    0.000    0.000    0.000    0.000    0.000    0.000 
#
# Total GULP energy -122807.500948 kJ/mol
# GULP energy per Si atom -5582.159134 kJ/mol
# Density = 2.023179 g / cm^3
# Si number density = 20.277942 Si / 1000 Ang^3
#
#
#
# Elastic Constant Matrix: (Units=GPa)
#
#
# Indices 1 2 3 4 5 6 
#
# 1 108.7533 22.3477 40.4540 0.0000 0.0000 0.0000
# 2 22.3477 111.4707 30.6665 0.0000 0.0000 0.0000
# 3 40.4540 30.6665 130.2508 0.0000 0.0000 0.0000
# 4 0.0000 0.0000 0.0000 39.2524 0.0000 0.0000
# 5 0.0000 0.0000 0.0000 0.0000 12.7278 0.0000
# 6 0.0000 0.0000 0.0000 0.0000 0.0000 12.4463
#
#
#
# Elastic Compliance Matrix: (Units=1/GPa)
#
#
# Indices 1 2 3 4 5 6 
#
# 1 0.010570 -0.001300 -0.002977 0.000000 0.000000 0.000000
# 2 -0.001300 0.009752 -0.001892 0.000000 0.000000 0.000000
# 3 -0.002977 -0.001892 0.009048 0.000000 0.000000 0.000000
# 4 0.000000 0.000000 0.000000 0.025476 0.000000 0.000000
# 5 0.000000 0.000000 0.000000 0.000000 0.078568 0.000000
# 6 0.000000 0.000000 0.000000 0.000000 0.000000 0.080345
#
#
# Mechanical properties :
#
#
# Convention : Reuss Voigt Hill
#
# Bulk Modulus (GPa) = 58.71574 59.71235 59.21405
# Shear Modulus (GPa) = 21.57274 30.01907 25.79590
#
# Velocity S-wave (km/s) = 3.26521 3.85175 3.57054
# Velocity P-wave (km/s) = 6.57524 7.02084 6.80169
#
# Compressibility (1/GPa) = 0.01703121
#
# Stress axis : x y z
#
# Youngs Moduli (GPa) = 94.61164 102.54103 110.52752
#
# Poissons Ratio (x) = 0.13331 0.32900
# Poissons Ratio (y) = 0.12300 0.20915
# Poissons Ratio (z) = 0.28163 0.19404
#
# Static dielectric constant tensor:
#      x y z
#    x 1.641040 0.000000 0.000000 
#    y 0.000000 1.900420 0.000000 
#    z 0.000000 0.000000 1.792510 
# 
# From -- ./inp_files/32358.got.cif
#   From: 2010.05.17/outbox.cif.g08.bks.cpg/sg22_17_cif.got.tgz:32358.got - 2010.06.03 23:40:54.
