data_PCOD9327086
_publ_section_title
;
Structure prediction by ZEFSAII (Michael W. Deem and Ramdas Pophale) SiO2 
 PCOD9327086
Probable space group: F 2 2 2
;
_chemical_formula_sum "Si O2"
_cell_formula_units_Z 116
_cell_length_a 14.125657
_cell_length_b 28.420207
_cell_length_c 11.065013
_cell_angle_alpha 90.000000
_cell_angle_beta 90.000000
_cell_angle_gamma 90.000000
_cell_volume 4442.094791
_symmetry_space_group_name_H-M "F 2 2 2"
_symmetry_group_IT_number 22
_symmetry_cell_setting 'orthorhombic'
loop_
_space_group_symop_operation_xyz
x,y,z
-x,-y,z
x,-y,-z
-x,y,-z
x,1/2+y,1/2+z
-x,1/2-y,1/2+z
x,1/2-y,1/2-z
-x,1/2+y,1/2-z
1/2+x,y,1/2+z
1/2-x,-y,1/2+z
1/2+x,-y,1/2-z
1/2-x,y,1/2-z
1/2+x,1/2+y,z
1/2-x,1/2-y,z
1/2+x,1/2-y,-z
1/2-x,1/2+y,-z
loop_
_atom_site_type_symbol
_atom_site_label
_atom_site_fract_x
_atom_site_fract_y
_atom_site_fract_z
Si Si1 0.094601 0.184775 0.812977
Si Si2 0.201674 0.607428 0.421854
Si Si3 0.372901 0.834987 0.653808
Si Si4 0.598615 0.770236 0.950273
Si Si5 0.750000 0.250000 0.750000
Si Si6 0.624867 0.967985 0.115023
Si Si7 0.338936 0.001041 0.628517
Si Si8 0.629828 0.632317 0.418920
O O1 0.157461 0.139149 0.818548
O O2 0.090892 0.205194 0.679449
O O3 0.146088 0.221275 0.906719
O O4 0.985383 0.173755 0.843027
O O5 0.148418 0.629523 0.542773
O O6 0.192624 0.555072 0.372816
O O7 0.306044 0.616503 0.468927
O O8 0.316214 0.784457 0.666994
O O9 0.344429 0.859922 0.779170
O O10 0.500000 0.751427 0.000000
O O11 0.613906 0.813316 0.042216
O O12 0.575664 0.917237 0.099542
O O13 0.607717 0.987391 0.249808
O O14 0.742789 0.968719 0.116431
O O15 0.602269 0.000000 0.000000
O O16 0.391655 0.000000 0.500000
#
# Coordination Sequence:
#
# PCOD9327086 Si02
#       8
#    16  16  16  16   4  16  16  16
#     4  11  27  45  68  99 152 202 235 302 398 447
#     4  12  24  40  69 111 142 187 244 306 379 460
#     4  12  25  43  68 106 147 191 253 316 365 454
#     4  11  24  46  69  94 142 203 246 300 381 467
#     4  12  24  36  76 104 138 190 276 308 352 426
#     4  10  21  38  66 102 138 181 232 319 384 439
#     4  10  20  38  66  98 142 183 232 303 389 440
#     4  12  24  41  74 107 140 186 261 318 370 464
#
# _framework density 26.113804999999999
#
# number of rings (size 3 to 8) (size 9 to 14) (size 15 to 20)
#    0.000    0.828    5.517    2.897    5.793    1.103 
#    0.000    1.379    0.000    7.862    0.000    0.000 
#    0.000    0.000    0.000    0.000    0.000    0.000 
#
# Total GULP energy -161578.482588 kJ/mol
# GULP energy per Si atom -5571.671813 kJ/mol
# Density = 2.605437 g / cm^3
# Si number density = 26.113805 Si / 1000 Ang^3
#
#
#
# Elastic Constant Matrix: (Units=GPa)
#
#
# Indices 1 2 3 4 5 6 
#
# 1 57.9393 18.0312 21.4313 0.0000 0.0000 0.0000
# 2 18.0312 131.2997 14.1812 0.0000 0.0000 0.0000
# 3 21.4313 14.1812 178.6263 0.0000 0.0000 0.0000
# 4 0.0000 0.0000 0.0000-1790.4649 0.0000 0.0000
# 5 0.0000 0.0000 0.0000 0.0000 -30.9654 0.0000
# 6 0.0000 0.0000 0.0000 0.0000 0.0000 11.4823
#
#
#
# Elastic Compliance Matrix: (Units=1/GPa)
#
#
# Indices 1 2 3 4 5 6 
#
# 1 0.018755 -0.002353 -0.002063 0.000000 0.000000 0.000000
# 2 -0.002353 0.007977 -0.000351 0.000000 0.000000 0.000000
# 3 -0.002063 -0.000351 0.005874 0.000000 0.000000 0.000000
# 4 0.000000 0.000000 0.000000 -0.000559 0.000000 0.000000
# 5 0.000000 0.000000 0.000000 0.000000 -0.032294 0.000000
# 6 0.000000 0.000000 0.000000 0.000000 0.000000 0.087091
#
#
# Mechanical properties :
#
#
# Convention : Reuss Voigt Hill
#
# Bulk Modulus (GPa) = 43.34360 52.79475 48.06917
# Shear Modulus (GPa) = 48.04522 -341.04149 -146.49813
#
# Velocity S-wave (km/s) = 4.29399 -11.44035 -7.49811
# Velocity P-wave (km/s) = 6.42016 12.41966 7.51763
#
# Compressibility (1/GPa) = 0.02307146
#
# Stress axis : x y z
#
# Youngs Moduli (GPa) = 53.31947 125.35771 170.25004
#
# Poissons Ratio (x) = 0.29493 0.35129
# Poissons Ratio (y) = 0.12545 0.05976
# Poissons Ratio (z) = 0.11002 0.04401
#
# Static dielectric constant tensor:
#      x y z
#    x 3.108330 0.000000 0.000000 
#    y 0.000000 2.440200 0.000000 
#    z 0.000000 0.000000 2.015780 
# 
# From -- ./inp_files/21822.got.cif
#   From: 2010.05.17/outbox.cif.g08.bks.cpg/sg22_11_cif.got.tgz:21822.got - 2010.06.03 23:40:54.
