data_PCOD9327680
_publ_section_title
;
Structure prediction by ZEFSAII (Michael W. Deem and Ramdas Pophale) SiO2 
 PCOD9327680
Probable space group: F 2 2 2
;
_chemical_formula_sum "Si O2"
_cell_formula_units_Z 64
_cell_length_a 7.268313
_cell_length_b 24.256302
_cell_length_c 17.188673
_cell_angle_alpha 90.000000
_cell_angle_beta 90.000000
_cell_angle_gamma 90.000000
_cell_volume 3030.404219
_symmetry_space_group_name_H-M "F 2 2 2"
_symmetry_group_IT_number 22
_symmetry_cell_setting 'orthorhombic'
loop_
_space_group_symop_operation_xyz
x,y,z
-x,-y,z
x,-y,-z
-x,y,-z
x,1/2+y,1/2+z
-x,1/2-y,1/2+z
x,1/2-y,1/2-z
-x,1/2+y,1/2-z
1/2+x,y,1/2+z
1/2-x,-y,1/2+z
1/2+x,-y,1/2-z
1/2-x,y,1/2-z
1/2+x,1/2+y,z
1/2-x,1/2-y,z
1/2+x,1/2-y,-z
1/2-x,1/2+y,-z
loop_
_atom_site_type_symbol
_atom_site_label
_atom_site_fract_x
_atom_site_fract_y
_atom_site_fract_z
Si Si1 0.603691 0.334261 0.423581
Si Si2 0.240405 0.627152 0.834446
Si Si3 0.395407 0.304853 0.804457
Si Si4 0.781080 0.937318 0.010342
O O1 0.500000 0.309722 0.500000
O O2 0.444553 0.340699 0.358675
O O3 0.777691 0.304331 0.384716
O O4 0.680551 0.393556 0.453838
O O5 0.250000 0.599981 0.750000
O O6 0.088252 0.669050 0.672008
O O7 0.253862 0.583237 0.902283
O O8 0.426186 0.250000 0.750000
O O9 0.250000 0.338719 0.750000
O O10 0.000000 0.934592 0.000000
O O11 0.719619 0.000000 0.000000
#
# Coordination Sequence:
#
# PCOD9327680 Si02
#       4
#    16  16  16  16
#     4  10  22  40  70  97 137 181 224 286 353 411
#     4  11  22  39  67 100 137 180 226 284 350 415
#     4  11  23  41  68  93 135 178 231 291 351 406
#     4  10  21  41  70 101 140 182 228 283 352 422
#
# _framework density 21.119295999999999
#
# number of rings (size 3 to 8) (size 9 to 14) (size 15 to 20)
#    0.000    1.500    5.000    0.000    0.000    6.000 
#    0.000    6.250   44.000    0.000    0.000    0.000 
#    0.000    0.000    0.000    0.000    0.000    0.000 
#
# Total GULP energy -89092.890530 kJ/mol
# GULP energy per Si atom -5568.305658 kJ/mol
# Density = 2.107123 g / cm^3
# Si number density = 21.119296 Si / 1000 Ang^3
#
#
#
# Elastic Constant Matrix: (Units=GPa)
#
#
# Indices 1 2 3 4 5 6 
#
# 1 150.0901 51.2012 56.5612 0.0000 0.0000 0.0000
# 2 51.2012 122.4429 73.3575 0.0000 0.0000 0.0000
# 3 56.5612 73.3575 141.8424 0.0000 0.0000 0.0000
# 4 0.0000 0.0000 0.0000 35.6901 0.0000 0.0000
# 5 0.0000 0.0000 0.0000 0.0000 47.2351 0.0000
# 6 0.0000 0.0000 0.0000 0.0000 0.0000 -266.1708
#
#
#
# Elastic Compliance Matrix: (Units=1/GPa)
#
#
# Indices 1 2 3 4 5 6 
#
# 1 0.008208 -0.002132 -0.002170 0.000000 0.000000 0.000000
# 2 -0.002132 0.012387 -0.005556 0.000000 0.000000 0.000000
# 3 -0.002170 -0.005556 0.010789 0.000000 0.000000 0.000000
# 4 0.000000 0.000000 0.000000 0.028019 0.000000 0.000000
# 5 0.000000 0.000000 0.000000 0.000000 0.021171 0.000000
# 6 0.000000 0.000000 0.000000 0.000000 0.000000 -0.003757
#
#
# Mechanical properties :
#
#
# Convention : Reuss Voigt Hill
#
# Bulk Modulus (GPa) = 85.71093 86.29058 86.00076
# Shear Modulus (GPa) = 49.78910 -21.09875 14.34518
#
# Velocity S-wave (km/s) = 4.86069 -3.16417 2.60906
# Velocity P-wave (km/s) = 8.49553 5.25339 7.06301
#
# Compressibility (1/GPa) = 0.01166712
#
# Stress axis : x y z
#
# Youngs Moduli (GPa) = 121.83471 80.72672 92.68549
#
# Poissons Ratio (x) = 0.17210 0.20116
# Poissons Ratio (y) = 0.25974 0.51500
# Poissons Ratio (z) = 0.26443 0.44855
#
# Static dielectric constant tensor:
#      x y z
#    x 1.881290 0.000000 0.000000 
#    y 0.000000 1.828230 0.000000 
#    z 0.000000 0.000000 1.821630 
# 
# From -- ./inp_files/26884.got.cif
#   From: 2010.05.17/outbox.cif.g08.bks.cpg/sg22_14_cif.got.tgz:26884.got - 2010.06.03 23:40:54.
