data_PCOD9327851
_publ_section_title
;
Structure prediction by ZEFSAII (Michael W. Deem and Ramdas Pophale) SiO2 
 PCOD9327851
Probable space group: F 2 2 2
;
_chemical_formula_sum "Si O2"
_cell_formula_units_Z 88
_cell_length_a 18.952224
_cell_length_b 11.828229
_cell_length_c 20.296428
_cell_angle_alpha 90.000000
_cell_angle_beta 90.000000
_cell_angle_gamma 90.000000
_cell_volume 4549.875545
_symmetry_space_group_name_H-M "F 2 2 2"
_symmetry_group_IT_number 22
_symmetry_cell_setting 'orthorhombic'
loop_
_space_group_symop_operation_xyz
x,y,z
-x,-y,z
x,-y,-z
-x,y,-z
x,1/2+y,1/2+z
-x,1/2-y,1/2+z
x,1/2-y,1/2-z
-x,1/2+y,1/2-z
1/2+x,y,1/2+z
1/2-x,-y,1/2+z
1/2+x,-y,1/2-z
1/2-x,y,1/2-z
1/2+x,1/2+y,z
1/2-x,1/2-y,z
1/2+x,1/2-y,-z
1/2-x,1/2+y,-z
loop_
_atom_site_type_symbol
_atom_site_label
_atom_site_fract_x
_atom_site_fract_y
_atom_site_fract_z
Si Si1 0.111694 0.039795 0.837922
Si Si2 0.527889 0.312417 0.822061
Si Si3 0.244680 0.617874 0.403001
Si Si4 0.063600 0.911372 0.621188
Si Si5 0.315099 0.022031 0.213860
Si Si6 0.155959 0.000000 0.500000
O O1 0.164231 0.072647 0.897287
O O2 0.043528 0.117869 0.833777
O O3 0.088531 0.907712 0.832852
O O4 0.153727 0.058668 0.769896
O O5 0.526763 0.250000 0.750000
O O6 0.533535 0.214296 0.876350
O O7 0.250000 0.750000 0.390331
O O8 0.283713 0.549554 0.345501
O O9 0.290348 0.589661 0.467544
O O10 0.120649 0.912414 0.680587
O O11 0.105432 0.946108 0.555484
O O12 0.000000 0.000000 0.633245
O O13 0.250000 0.085640 0.250000
#
# Coordination Sequence:
#
# PCOD9327851 Si02
#       6
#    16  16  16  16  16   8
#     4  10  22  38  59 100 128 166 206 257 337 395
#     4  11  22  36  64  96 137 165 199 266 333 401
#     4  10  23  40  64  87 122 171 217 267 322 381
#     4  11  22  40  65  95 127 169 219 270 322 387
#     4   9  19  37  57  92 130 157 206 249 318 396
#     4  10  25  44  64  91 116 168 236 268 313 388
#
# _framework density 19.341189
#
# number of rings (size 3 to 8) (size 9 to 14) (size 15 to 20)
#    0.000    1.818    1.818    1.364    7.636    4.000 
#    0.000   10.000    0.000    1.091    0.000    0.000 
#    0.000    0.000    0.000    0.000    0.000    0.000 
#
# Total GULP energy -122571.630659 kJ/mol
# GULP energy per Si atom -5571.437757 kJ/mol
# Density = 1.929717 g / cm^3
# Si number density = 19.341189 Si / 1000 Ang^3
#
#
#
# Elastic Constant Matrix: (Units=GPa)
#
#
# Indices 1 2 3 4 5 6 
#
# 1 119.2658 42.0894 31.3441 0.0000 0.0000 0.0000
# 2 42.0894 104.6418 8.9686 0.0000 0.0000 0.0000
# 3 31.3441 8.9686 51.2753 0.0000 0.0000 0.0000
# 4 0.0000 0.0000 0.0000 9.4874 0.0000 0.0000
# 5 0.0000 0.0000 0.0000 0.0000 8245.0109 0.0000
# 6 0.0000 0.0000 0.0000 0.0000 0.0000 20.2771
#
#
#
# Elastic Compliance Matrix: (Units=1/GPa)
#
#
# Indices 1 2 3 4 5 6 
#
# 1 0.011480 -0.004077 -0.006305 0.000000 0.000000 0.000000
# 2 -0.004077 0.011150 0.000542 0.000000 0.000000 0.000000
# 3 -0.006305 0.000542 0.023262 0.000000 0.000000 0.000000
# 4 0.000000 0.000000 0.000000 0.105403 0.000000 0.000000
# 5 0.000000 0.000000 0.000000 0.000000 0.000121 0.000000
# 6 0.000000 0.000000 0.000000 0.000000 0.000000 0.049317
#
#
# Mechanical properties :
#
#
# Convention : Reuss Voigt Hill
#
# Bulk Modulus (GPa) = 38.14987 48.88745 43.51866
# Shear Modulus (GPa) = 21.81970 1667.80712 844.81341
#
# Velocity S-wave (km/s) = 3.36243 29.39695 20.92231
# Velocity P-wave (km/s) = 5.90272 34.31577 24.62127
#
# Compressibility (1/GPa) = 0.02621241
#
# Stress axis : x y z
#
# Youngs Moduli (GPa) = 87.10426 89.68651 42.98900
#
# Poissons Ratio (x) = 0.36568 0.27103
# Poissons Ratio (y) = 0.35516 -0.02331
# Poissons Ratio (z) = 0.54917 -0.04863
#
# Static dielectric constant tensor:
#      x y z
#    x 1.765210 0.000000 0.000000 
#    y 0.000000 -57.625830 0.000000 
#    z 0.000000 0.000000 1.705720 
# 
# From -- ./inp_files/21382.got.cif
#   From: 2010.05.17/outbox.cif.g08.bks.cpg/sg22_11_cif.got.tgz:21382.got - 2010.06.03 23:40:54.
