data_PCOD9327151
_publ_section_title
;
Structure prediction by ZEFSAII (Michael W. Deem and Ramdas Pophale) SiO2 
 PCOD9327151
Probable space group: F 2 2 2
;
_chemical_formula_sum "Si O2"
_cell_formula_units_Z 112
_cell_length_a 14.705003
_cell_length_b 23.622652
_cell_length_c 15.447560
_cell_angle_alpha 90.000000
_cell_angle_beta 90.000000
_cell_angle_gamma 90.000000
_cell_volume 5366.036968
_symmetry_space_group_name_H-M "F 2 2 2"
_symmetry_group_IT_number 22
_symmetry_cell_setting 'orthorhombic'
loop_
_space_group_symop_operation_xyz
x,y,z
-x,-y,z
x,-y,-z
-x,y,-z
x,1/2+y,1/2+z
-x,1/2-y,1/2+z
x,1/2-y,1/2-z
-x,1/2+y,1/2-z
1/2+x,y,1/2+z
1/2-x,-y,1/2+z
1/2+x,-y,1/2-z
1/2-x,y,1/2-z
1/2+x,1/2+y,z
1/2-x,1/2-y,z
1/2+x,1/2-y,-z
1/2-x,1/2+y,-z
loop_
_atom_site_type_symbol
_atom_site_label
_atom_site_fract_x
_atom_site_fract_y
_atom_site_fract_z
Si Si1 0.855165 0.095698 0.667022
Si Si2 0.442017 0.125614 0.840282
Si Si3 0.854317 0.243004 0.355560
Si Si4 0.524698 0.846246 0.639402
Si Si5 0.122927 0.438951 0.531649
Si Si6 0.667076 0.871619 0.359882
Si Si7 0.791375 0.469915 0.153355
O O1 0.774294 0.140489 0.647384
O O2 0.855829 0.092633 0.772444
O O3 0.953967 0.113098 0.633374
O O4 0.824010 0.033989 0.635062
O O5 0.396729 0.182319 0.878258
O O6 0.448210 0.137742 0.737203
O O7 0.376291 0.072504 0.854584
O O8 0.856147 0.250000 0.250000
O O9 0.750000 0.250000 0.382540
O O10 0.914175 0.294294 0.391169
O O11 0.549788 0.901385 0.583421
O O12 0.418330 0.829156 0.638605
O O13 0.092211 0.500000 0.500000
O O14 0.154954 0.405654 0.447425
O O15 0.210409 0.449770 0.591852
O O16 0.750000 0.467629 0.250000
#
# Coordination Sequence:
#
# PCOD9327151 Si02
#       7
#    16  16  16  16  16  16  16
#     4  10  20  40  56  84 129 163 208 252 305 389
#     4  10  21  35  64  89 116 166 213 253 321 376
#     4   9  18  35  59  92 123 155 207 270 312 362
#     4  10  21  35  59  91 126 153 208 267 320 373
#     4  12  22  36  57  91 129 159 204 254 329 385
#     4  10  21  37  56  85 123 166 200 256 308 379
#     4  12  20  36  58  91 126 162 205 260 318 381
#
# _framework density 20.872014
#
# number of rings (size 3 to 8) (size 9 to 14) (size 15 to 20)
#    0.000    1.571    4.286    1.714    2.000    1.143 
#    0.000    1.429    0.000   12.857    0.000    0.000 
#    0.000    0.000    0.000    0.000    0.000    0.000 
#
# Total GULP energy -156266.558581 kJ/mol
# GULP energy per Si atom -5580.948521 kJ/mol
# Density = 2.082451 g / cm^3
# Si number density = 20.872014 Si / 1000 Ang^3
#
#
#
# Elastic Constant Matrix: (Units=GPa)
#
#
# Indices 1 2 3 4 5 6 
#
# 1 220.0735 67.5724 14.6243 0.0000 0.0000 0.0000
# 2 67.5724 73.0972 -6.4333 0.0000 0.0000 0.0000
# 3 14.6243 -6.4333 38.1606 0.0000 0.0000 0.0000
# 4 0.0000 0.0000 0.0000 11.6360 0.0000 0.0000
# 5 0.0000 0.0000 0.0000 0.0000 28.7940 0.0000
# 6 0.0000 0.0000 0.0000 0.0000 0.0000 6.4280
#
#
#
# Elastic Compliance Matrix: (Units=1/GPa)
#
#
# Indices 1 2 3 4 5 6 
#
# 1 0.006833 -0.006645 -0.003739 0.000000 0.000000 0.000000
# 2 -0.006645 0.020350 0.005977 0.000000 0.000000 0.000000
# 3 -0.003739 0.005977 0.028646 0.000000 0.000000 0.000000
# 4 0.000000 0.000000 0.000000 0.085940 0.000000 0.000000
# 5 0.000000 0.000000 0.000000 0.000000 0.034730 0.000000
# 6 0.000000 0.000000 0.000000 0.000000 0.000000 0.155569
#
#
# Mechanical properties :
#
#
# Convention : Reuss Voigt Hill
#
# Bulk Modulus (GPa) = 21.27019 53.65092 37.46056
# Shear Modulus (GPa) = 14.02321 26.40946 20.21633
#
# Velocity S-wave (km/s) = 2.59485 3.56097 3.11559
# Velocity P-wave (km/s) = 4.38070 6.53207 5.56140
#
# Compressibility (1/GPa) = 0.04701416
#
# Stress axis : x y z
#
# Youngs Moduli (GPa) = 146.35182 49.14083 34.90942
#
# Poissons Ratio (x) = 0.32656 0.13052
# Poissons Ratio (y) = 0.97258 -0.20867
# Poissons Ratio (z) = 0.54719 -0.29373
#
# Static dielectric constant tensor:
#      x y z
#    x 1.782490 0.000000 0.000000 
#    y 0.000000 1.728490 0.000000 
#    z 0.000000 0.000000 1.755710 
# 
# From -- ./inp_files/29631.got.cif
#   From: 2010.05.17/outbox.cif.g08.bks.cpg/sg22_15_cif.got.tgz:29631.got - 2010.06.03 23:40:54.
