data_PCOD9327019
_publ_section_title
;
Structure prediction by ZEFSAII (Michael W. Deem and Ramdas Pophale) SiO2 
 PCOD9327019
Probable space group: F 2 2 2
;
_chemical_formula_sum "Si O2"
_cell_formula_units_Z 100
_cell_length_a 19.448469
_cell_length_b 16.187973
_cell_length_c 15.090215
_cell_angle_alpha 90.000000
_cell_angle_beta 90.000000
_cell_angle_gamma 90.000000
_cell_volume 4750.871871
_symmetry_space_group_name_H-M "F 2 2 2"
_symmetry_group_IT_number 22
_symmetry_cell_setting 'orthorhombic'
loop_
_space_group_symop_operation_xyz
x,y,z
-x,-y,z
x,-y,-z
-x,y,-z
x,1/2+y,1/2+z
-x,1/2-y,1/2+z
x,1/2-y,1/2-z
-x,1/2+y,1/2-z
1/2+x,y,1/2+z
1/2-x,-y,1/2+z
1/2+x,-y,1/2-z
1/2-x,y,1/2-z
1/2+x,1/2+y,z
1/2-x,1/2-y,z
1/2+x,1/2-y,-z
1/2-x,1/2+y,-z
loop_
_atom_site_type_symbol
_atom_site_label
_atom_site_fract_x
_atom_site_fract_y
_atom_site_fract_z
Si Si1 0.053950 0.129060 0.572366
Si Si2 0.203140 0.894342 0.383028
Si Si3 0.150536 0.447167 0.582662
Si Si4 0.750000 0.750000 0.750000
Si Si5 0.560269 0.296847 0.158529
Si Si6 0.176908 0.449096 0.243470
Si Si7 0.473683 0.414544 0.252653
O O1 0.134038 0.110137 0.559502
O O2 0.050932 0.227364 0.585749
O O3 0.000000 0.100660 0.500000
O O4 0.026753 0.093537 0.665582
O O5 0.273115 0.910613 0.436387
O O6 0.212917 0.814237 0.318767
O O7 0.192015 0.972762 0.319296
O O8 0.123018 0.500000 0.500000
O O9 0.108807 0.369661 0.622789
O O10 0.159049 0.513105 0.661084
O O11 0.583628 0.250000 0.250000
O O12 0.489605 0.340416 0.186453
O O13 0.250000 0.402013 0.250000
O O14 0.104562 0.410067 0.214869
O O15 0.500000 0.500000 0.209577
#
# Coordination Sequence:
#
# PCOD9327019 Si02
#       7
#    16  16  16   4  16  16  16
#     4  11  25  39  58  90 129 168 210 275 339 389
#     4  11  22  35  63  93 122 169 220 270 327 413
#     4  11  22  36  59  98 132 158 208 281 344 388
#     4  12  20  36  76  92 120 168 238 280 312 396
#     4  10  22  41  65  89 127 173 225 267 325 411
#     4  10  20  38  57  89 120 162 210 262 323 398
#     4  11  20  38  64  89 116 161 220 261 317 400
#
# _framework density 21.048767999999999
#
# number of rings (size 3 to 8) (size 9 to 14) (size 15 to 20)
#    0.000    1.280    5.600    1.920    4.480    4.160 
#    0.000    0.800    0.000    6.240    0.000    0.000 
#    0.000    0.000    0.000    0.000    0.000    0.000 
#
# Total GULP energy -139430.409990 kJ/mol
# GULP energy per Si atom -5577.216400 kJ/mol
# Density = 2.100086 g / cm^3
# Si number density = 21.048768 Si / 1000 Ang^3
#
#
#
# Elastic Constant Matrix: (Units=GPa)
#
#
# Indices 1 2 3 4 5 6 
#
# 1 134.1970 26.2273 -2.3036 0.0000 0.0000 0.0000
# 2 26.2273 54.8629 16.3920 0.0000 0.0000 0.0000
# 3 -2.3036 16.3920 41.4421 0.0000 0.0000 0.0000
# 4 0.0000 0.0000 0.0000 19.6300 0.0000 0.0000
# 5 0.0000 0.0000 0.0000 0.0000 28.4540 0.0000
# 6 0.0000 0.0000 0.0000 0.0000 0.0000 21.7834
#
#
#
# Elastic Compliance Matrix: (Units=1/GPa)
#
#
# Indices 1 2 3 4 5 6 
#
# 1 0.008414 -0.004720 0.002335 0.000000 0.000000 0.000000
# 2 -0.004720 0.023318 -0.009485 0.000000 0.000000 0.000000
# 3 0.002335 -0.009485 0.028012 0.000000 0.000000 0.000000
# 4 0.000000 0.000000 0.000000 0.050942 0.000000 0.000000
# 5 0.000000 0.000000 0.000000 0.000000 0.035144 0.000000
# 6 0.000000 0.000000 0.000000 0.000000 0.000000 0.045907
#
#
# Mechanical properties :
#
#
# Convention : Reuss Voigt Hill
#
# Bulk Modulus (GPa) = 27.77613 34.57037 31.17325
# Shear Modulus (GPa) = 21.98001 26.65256 24.31629
#
# Velocity S-wave (km/s) = 3.23498 3.56227 3.40256
# Velocity P-wave (km/s) = 5.21327 5.77748 5.50261
#
# Compressibility (1/GPa) = 0.03600214
#
# Stress axis : x y z
#
# Youngs Moduli (GPa) = 118.84552 42.88579 35.69935
#
# Poissons Ratio (x) = 0.20242 -0.08335
# Poissons Ratio (y) = 0.56095 0.33862
# Poissons Ratio (z) = -0.27747 0.40679
#
# Static dielectric constant tensor:
#      x y z
#    x 1.867830 0.000000 0.000000 
#    y 0.000000 1.796290 0.000000 
#    z 0.000000 0.000000 1.763800 
# 
# From -- ./inp_files/38937.got.cif
#   From: 2010.05.17/outbox.cif.g08.bks.cpg/sg22_20_cif.got.tgz:38937.got - 2010.06.03 23:40:54.
