data_PCOD9327115
_publ_section_title
;
Structure prediction by ZEFSAII (Michael W. Deem and Ramdas Pophale) SiO2 
 PCOD9327115
Probable space group: F 2 2 2
;
_chemical_formula_sum "Si O2"
_cell_formula_units_Z 96
_cell_length_a 17.887032
_cell_length_b 18.590642
_cell_length_c 13.817479
_cell_angle_alpha 90.000000
_cell_angle_beta 90.000000
_cell_angle_gamma 90.000000
_cell_volume 4594.745752
_symmetry_space_group_name_H-M "F 2 2 2"
_symmetry_group_IT_number 22
_symmetry_cell_setting 'orthorhombic'
loop_
_space_group_symop_operation_xyz
x,y,z
-x,-y,z
x,-y,-z
-x,y,-z
x,1/2+y,1/2+z
-x,1/2-y,1/2+z
x,1/2-y,1/2-z
-x,1/2+y,1/2-z
1/2+x,y,1/2+z
1/2-x,-y,1/2+z
1/2+x,-y,1/2-z
1/2-x,y,1/2-z
1/2+x,1/2+y,z
1/2-x,1/2-y,z
1/2+x,1/2-y,-z
1/2-x,1/2+y,-z
loop_
_atom_site_type_symbol
_atom_site_label
_atom_site_fract_x
_atom_site_fract_y
_atom_site_fract_z
Si Si1 0.223823 0.887658 0.951953
Si Si2 0.289389 0.043887 0.646583
Si Si3 0.539235 0.420736 0.189449
Si Si4 0.410874 0.181214 0.375019
Si Si5 0.359157 0.832703 0.841748
Si Si6 0.513292 0.583706 0.395429
O O1 0.142785 0.850947 0.955695
O O2 0.280602 0.835768 0.894904
O O3 0.214963 0.961605 0.891236
O O4 0.247314 0.909096 0.060395
O O5 0.250000 0.050244 0.750000
O O6 0.375977 0.067392 0.657491
O O7 0.500000 0.500000 0.183802
O O8 0.487576 0.362937 0.132810
O O9 0.533483 0.393426 0.301192
O O10 0.364080 0.169531 0.274027
O O11 0.411418 0.267336 0.378961
O O12 0.400299 0.905697 0.869944
O O13 0.500000 0.500000 0.403392
O O14 0.500000 0.617523 0.500000
#
# Coordination Sequence:
#
# PCOD9327115 Si02
#       6
#    16  16  16  16  16  16
#     4  11  23  38  63  96 125 169 215 259 332 381
#     4  11  25  39  61  95 133 174 211 268 327 391
#     4  10  20  39  63  89 132 168 216 267 320 383
#     4  10  20  40  65  93 124 166 213 276 320 371
#     4  10  21  37  65  95 123 158 215 273 326 377
#     4   9  20  34  59  90 122 164 204 263 317 379
#
# _framework density 20.893429999999999
#
# number of rings (size 3 to 8) (size 9 to 14) (size 15 to 20)
#    0.000    1.833    1.667    2.000    7.000    3.333 
#    3.000    0.000    0.000    2.000    0.000    0.000 
#    0.000    0.000    0.000    0.000    0.000    0.000 
#
# Total GULP energy -133833.682692 kJ/mol
# GULP energy per Si atom -5576.403445 kJ/mol
# Density = 2.084588 g / cm^3
# Si number density = 20.893430 Si / 1000 Ang^3
#
#
#
# Elastic Constant Matrix: (Units=GPa)
#
#
# Indices 1 2 3 4 5 6 
#
# 1 92.6629 36.8536 30.8794 0.0000 0.0000 0.0000
# 2 36.8536 77.6264 16.0070 0.0000 0.0000 0.0000
# 3 30.8794 16.0070 76.9757 0.0000 0.0000 0.0000
# 4 0.0000 0.0000 0.0000 18.2171 0.0000 0.0000
# 5 0.0000 0.0000 0.0000 0.0000 13.5220 0.0000
# 6 0.0000 0.0000 0.0000 0.0000 0.0000 29.1723
#
#
#
# Elastic Compliance Matrix: (Units=1/GPa)
#
#
# Indices 1 2 3 4 5 6 
#
# 1 0.014747 -0.006040 -0.004660 0.000000 0.000000 0.000000
# 2 -0.006040 0.015933 -0.000890 0.000000 0.000000 0.000000
# 3 -0.004660 -0.000890 0.015046 0.000000 0.000000 0.000000
# 4 0.000000 0.000000 0.000000 0.054894 0.000000 0.000000
# 5 0.000000 0.000000 0.000000 0.000000 0.073954 0.000000
# 6 0.000000 0.000000 0.000000 0.000000 0.000000 0.034279
#
#
# Mechanical properties :
#
#
# Convention : Reuss Voigt Hill
#
# Bulk Modulus (GPa) = 44.35512 46.08278 45.21895
# Shear Modulus (GPa) = 20.87264 23.08395 21.97830
#
# Velocity S-wave (km/s) = 3.16413 3.32752 3.24686
# Velocity P-wave (km/s) = 5.88424 6.07184 5.97877
#
# Compressibility (1/GPa) = 0.02254531
#
# Stress axis : x y z
#
# Youngs Moduli (GPa) = 67.81041 62.76093 66.46484
#
# Poissons Ratio (x) = 0.37910 0.30971
# Poissons Ratio (y) = 0.40960 0.05917
# Poissons Ratio (z) = 0.31598 0.05587
#
# Static dielectric constant tensor:
#      x y z
#    x 1.772290 0.000000 0.000000 
#    y 0.000000 1.781050 0.000000 
#    z 0.000000 0.000000 1.822640 
# 
# From -- ./inp_files/29369.got.cif
#   From: 2010.05.17/outbox.cif.g08.bks.cpg/sg22_15_cif.got.tgz:29369.got - 2010.06.03 23:40:54.
