data_PCOD9327968
_publ_section_title
;
Structure prediction by ZEFSAII (Michael W. Deem and Ramdas Pophale) SiO2 
 PCOD9327968
Probable space group: F 2 2 2
;
_chemical_formula_sum "Si O2"
_cell_formula_units_Z 88
_cell_length_a 13.521664
_cell_length_b 23.928496
_cell_length_c 12.057187
_cell_angle_alpha 90.000000
_cell_angle_beta 90.000000
_cell_angle_gamma 90.000000
_cell_volume 3901.140025
_symmetry_space_group_name_H-M "F 2 2 2"
_symmetry_group_IT_number 22
_symmetry_cell_setting 'orthorhombic'
loop_
_space_group_symop_operation_xyz
x,y,z
-x,-y,z
x,-y,-z
-x,y,-z
x,1/2+y,1/2+z
-x,1/2-y,1/2+z
x,1/2-y,1/2-z
-x,1/2+y,1/2-z
1/2+x,y,1/2+z
1/2-x,-y,1/2+z
1/2+x,-y,1/2-z
1/2-x,y,1/2-z
1/2+x,1/2+y,z
1/2-x,1/2-y,z
1/2+x,1/2-y,-z
1/2-x,1/2+y,-z
loop_
_atom_site_type_symbol
_atom_site_label
_atom_site_fract_x
_atom_site_fract_y
_atom_site_fract_z
Si Si1 0.750000 0.477425 0.250000
Si Si2 0.077975 0.953714 0.682880
Si Si3 0.111908 0.617924 0.209282
Si Si4 0.116076 0.288351 0.974971
Si Si5 0.726312 0.128017 0.879967
Si Si6 0.387668 0.659302 0.042185
O O1 0.845479 0.518178 0.273216
O O2 0.812967 0.432570 0.177259
O O3 0.155344 0.925236 0.600159
O O4 0.001665 0.903963 0.710921
O O5 0.000000 0.000000 0.643506
O O6 0.129558 0.669873 0.128559
O O7 0.128096 0.635313 0.335980
O O8 0.144525 0.224348 0.955263
O O9 0.169497 0.316896 0.078839
O O10 0.000000 0.288107 0.000000
O O11 0.750000 0.131557 0.750000
O O12 0.823359 0.126106 0.953367
O O13 0.500000 0.657084 0.000000
#
# Coordination Sequence:
#
# PCOD9327968 Si02
#       6
#     8  16  16  16  16  16
#     4  10  22  40  73  96 133 180 234 294 346 412
#     4  10  22  42  75 100 137 185 236 294 344 423
#     4  11  22  47  70  98 143 178 232 294 351 409
#     4  11  24  43  70 105 135 184 236 282 345 421
#     4  12  24  45  71  99 146 185 231 285 350 415
#     4  11  26  42  69 106 141 181 229 284 355 418
#
# _framework density 22.557507000000001
#
# number of rings (size 3 to 8) (size 9 to 14) (size 15 to 20)
#    0.000    1.091    2.727    3.273    0.000    1.455 
#    0.000   15.455    0.000    0.000    0.000    0.000 
#    0.000    0.000    0.000    0.000    0.000    0.000 
#
# Total GULP energy -122685.683010 kJ/mol
# GULP energy per Si atom -5576.621955 kJ/mol
# Density = 2.250617 g / cm^3
# Si number density = 22.557507 Si / 1000 Ang^3
#
#
#
# Elastic Constant Matrix: (Units=GPa)
#
#
# Indices 1 2 3 4 5 6 
#
# 1 168.3351 74.8657 43.5475 0.0000 0.0000 0.0000
# 2 74.8657 129.0987 60.7461 0.0000 0.0000 0.0000
# 3 43.5475 60.7461 136.9748 0.0000 0.0000 0.0000
# 4 0.0000 0.0000 0.0000 74.3251 0.0000 0.0000
# 5 0.0000 0.0000 0.0000 0.0000 33.9788 0.0000
# 6 0.0000 0.0000 0.0000 0.0000 0.0000 54.4931
#
#
#
# Elastic Compliance Matrix: (Units=1/GPa)
#
#
# Indices 1 2 3 4 5 6 
#
# 1 0.008046 -0.004375 -0.000618 0.000000 0.000000 0.000000
# 2 -0.004375 0.012168 -0.004005 0.000000 0.000000 0.000000
# 3 -0.000618 -0.004005 0.009273 0.000000 0.000000 0.000000
# 4 0.000000 0.000000 0.000000 0.013454 0.000000 0.000000
# 5 0.000000 0.000000 0.000000 0.000000 0.029430 0.000000
# 6 0.000000 0.000000 0.000000 0.000000 0.000000 0.018351
#
#
# Mechanical properties :
#
#
# Convention : Reuss Voigt Hill
#
# Bulk Modulus (GPa) = 87.02631 88.08079 87.55355
# Shear Modulus (GPa) = 44.42470 49.57604 47.00037
#
# Velocity S-wave (km/s) = 4.44260 4.69312 4.56958
# Velocity P-wave (km/s) = 8.06096 8.27642 8.16940
#
# Compressibility (1/GPa) = 0.01149078
#
# Stress axis : x y z
#
# Youngs Moduli (GPa) = 124.28106 82.18255 107.83725
#
# Poissons Ratio (x) = 0.35959 0.06660
# Poissons Ratio (y) = 0.54379 0.43192
# Poissons Ratio (z) = 0.07676 0.32916
#
# Static dielectric constant tensor:
#      x y z
#    x 1.899500 0.000000 0.000000 
#    y 0.000000 1.884750 0.000000 
#    z 0.000000 0.000000 1.794000 
# 
# From -- ./inp_files/19952.got.cif
#   From: 2010.05.17/outbox.cif.g08.bks.cpg/sg22_10_cif.got.tgz:19952.got - 2010.06.03 23:40:54.
