data_PCOD9327788
_publ_section_title
;
Structure prediction by ZEFSAII (Michael W. Deem and Ramdas Pophale) SiO2 
 PCOD9327788
Probable space group: F 2 2 2
;
_chemical_formula_sum "Si O2"
_cell_formula_units_Z 104
_cell_length_a 25.420974
_cell_length_b 9.281006
_cell_length_c 19.884399
_cell_angle_alpha 90.000000
_cell_angle_beta 90.000000
_cell_angle_gamma 90.000000
_cell_volume 4691.370245
_symmetry_space_group_name_H-M "F 2 2 2"
_symmetry_group_IT_number 22
_symmetry_cell_setting 'orthorhombic'
loop_
_space_group_symop_operation_xyz
x,y,z
-x,-y,z
x,-y,-z
-x,y,-z
x,1/2+y,1/2+z
-x,1/2-y,1/2+z
x,1/2-y,1/2-z
-x,1/2+y,1/2-z
1/2+x,y,1/2+z
1/2-x,-y,1/2+z
1/2+x,-y,1/2-z
1/2-x,y,1/2-z
1/2+x,1/2+y,z
1/2-x,1/2-y,z
1/2+x,1/2-y,-z
1/2-x,1/2+y,-z
loop_
_atom_site_type_symbol
_atom_site_label
_atom_site_fract_x
_atom_site_fract_y
_atom_site_fract_z
Si Si1 0.190035 0.606345 0.639534
Si Si2 0.894757 0.872355 0.699019
Si Si3 0.000000 0.000000 0.903655
Si Si4 0.083784 0.726983 0.442434
Si Si5 0.802759 0.446963 0.860457
Si Si6 0.836056 0.000000 0.000000
Si Si7 0.078183 0.398914 0.291689
Si Si8 0.636956 0.500000 0.500000
O O1 0.193604 0.776673 0.652250
O O2 0.242525 0.519333 0.658633
O O3 0.191952 0.587837 0.558536
O O4 0.135403 0.566881 0.675130
O O5 0.879260 0.750000 0.750000
O O6 0.915067 0.798977 0.631098
O O7 0.844749 0.969373 0.683067
O O8 0.934785 0.975781 0.738232
O O9 0.960988 0.089156 0.854545
O O10 0.033684 0.120676 0.943209
O O11 0.130300 0.615305 0.458145
O O12 0.098297 0.861396 0.491173
O O13 0.824505 0.480391 0.935839
O O14 0.078263 0.250000 0.250000
#
# Coordination Sequence:
#
# PCOD9327788 Si02
#       8
#    16  16   8  16  16   8  16   8
#     4  11  22  42  66 106 136 192 233 286 343 435
#     4  11  22  46  68 105 143 179 230 302 348 417
#     4  12  26  47  74 104 130 197 244 294 360 422
#     4  11  25  43  77 100 143 181 237 289 359 416
#     4  10  22  39  71 101 143 187 233 273 368 424
#     4  12  21  45  68  95 141 180 226 290 338 420
#     4  12  26  45  70  98 140 185 239 295 350 421
#     4  10  21  46  70 112 145 181 222 311 344 430
#
# _framework density 22.168364
#
# number of rings (size 3 to 8) (size 9 to 14) (size 15 to 20)
#    0.000    0.923    6.154    0.462    2.154    0.923 
#    0.000    6.154    3.385    0.923    0.000    0.000 
#    0.000    0.000    0.000    0.000    0.000    0.000 
#
# Total GULP energy -145109.942183 kJ/mol
# GULP energy per Si atom -5581.151622 kJ/mol
# Density = 2.211791 g / cm^3
# Si number density = 22.168364 Si / 1000 Ang^3
#
#
#
# Elastic Constant Matrix: (Units=GPa)
#
#
# Indices 1 2 3 4 5 6 
#
# 1 100.2633 18.7142 4.5980 0.0000 0.0000 0.0000
# 2 18.7142 106.1994 3.5790 0.0000 0.0000 0.0000
# 3 4.5980 3.5790 44.4744 0.0000 0.0000 0.0000
# 4 0.0000 0.0000 0.0000 39.3034 0.0000 0.0000
# 5 0.0000 0.0000 0.0000 0.0000 -20.0937 0.0000
# 6 0.0000 0.0000 0.0000 0.0000 0.0000 33.0498
#
#
#
# Elastic Compliance Matrix: (Units=1/GPa)
#
#
# Indices 1 2 3 4 5 6 
#
# 1 0.010351 -0.001793 -0.000926 0.000000 0.000000 0.000000
# 2 -0.001793 0.009752 -0.000599 0.000000 0.000000 0.000000
# 3 -0.000926 -0.000599 0.022629 0.000000 0.000000 0.000000
# 4 0.000000 0.000000 0.000000 0.025443 0.000000 0.000000
# 5 0.000000 0.000000 0.000000 0.000000 -0.049767 0.000000
# 6 0.000000 0.000000 0.000000 0.000000 0.000000 0.030257
#
#
# Mechanical properties :
#
#
# Convention : Reuss Voigt Hill
#
# Bulk Modulus (GPa) = 27.70406 33.85772 30.78089
# Shear Modulus (GPa) = 74.25706 25.38831 49.82268
#
# Velocity S-wave (km/s) = 5.79393 3.38782 4.74589
# Velocity P-wave (km/s) = 7.56860 5.53257 6.62921
#
# Compressibility (1/GPa) = 0.03609579
#
# Stress axis : x y z
#
# Youngs Moduli (GPa) = 96.61071 102.53917 44.19147
#
# Poissons Ratio (x) = 0.18383 0.04091
# Poissons Ratio (y) = 0.17320 0.02649
# Poissons Ratio (z) = 0.08945 0.06147
#
# Static dielectric constant tensor:
#      x y z
#    x 1.850540 0.000000 0.000000 
#    y 0.000000 1.879280 0.000000 
#    z 0.000000 0.000000 1.836660 
# 
# From -- ./inp_files/45826.got.cif
#   From: 2010.05.17/outbox.cif.g08.bks.cpg/sg22_23_cif.got.tgz:45826.got - 2010.06.03 23:40:54.
