data_PCOD9327748
_publ_section_title
;
Structure prediction by ZEFSAII (Michael W. Deem and Ramdas Pophale) SiO2 
 PCOD9327748
Probable space group: F 2 2 2
;
_chemical_formula_sum "Si O2"
_cell_formula_units_Z 104
_cell_length_a 8.417435
_cell_length_b 20.025301
_cell_length_c 30.489486
_cell_angle_alpha 90.000000
_cell_angle_beta 90.000000
_cell_angle_gamma 90.000000
_cell_volume 5139.358663
_symmetry_space_group_name_H-M "F 2 2 2"
_symmetry_group_IT_number 22
_symmetry_cell_setting 'orthorhombic'
loop_
_space_group_symop_operation_xyz
x,y,z
-x,-y,z
x,-y,-z
-x,y,-z
x,1/2+y,1/2+z
-x,1/2-y,1/2+z
x,1/2-y,1/2-z
-x,1/2+y,1/2-z
1/2+x,y,1/2+z
1/2-x,-y,1/2+z
1/2+x,-y,1/2-z
1/2-x,y,1/2-z
1/2+x,1/2+y,z
1/2-x,1/2-y,z
1/2+x,1/2-y,-z
1/2-x,1/2+y,-z
loop_
_atom_site_type_symbol
_atom_site_label
_atom_site_fract_x
_atom_site_fract_y
_atom_site_fract_z
Si Si1 0.515264 0.794348 0.291456
Si Si2 0.925914 0.281717 0.875060
Si Si3 0.431912 0.073837 0.599220
Si Si4 0.907198 0.291979 0.454773
Si Si5 0.250000 0.386186 0.750000
Si Si6 0.726901 0.888080 0.340195
Si Si7 0.831305 0.971481 0.668852
O O1 0.546511 0.750000 0.250000
O O2 0.479589 0.748684 0.333843
O O3 0.371506 0.842023 0.278064
O O4 0.669592 0.836458 0.304022
O O5 0.750000 0.250000 0.875478
O O6 0.882696 0.358733 0.864680
O O7 0.005373 0.255488 0.919047
O O8 0.387402 0.132975 0.565255
O O9 0.580036 0.104905 0.626153
O O10 0.281607 0.061246 0.631614
O O11 0.500000 0.000000 0.584192
O O12 0.750000 0.250000 0.464263
O O13 0.000000 0.298910 0.500000
O O14 0.157274 0.428331 0.787061
O O15 0.743404 0.959822 0.318940
O O16 0.000000 0.000000 0.652608
#
# Coordination Sequence:
#
# PCOD9327748 Si02
#       7
#    16  16  16  16   8  16  16
#     4  11  24  39  62  91 129 181 232 278 338 405
#     4  10  21  43  68  94 133 178 219 287 340 410
#     4  10  22  48  73  96 135 182 226 277 352 415
#     4  12  26  43  75 109 142 175 223 280 351 420
#     4  12  25  40  54  90 135 178 234 294 338 402
#     4  10  22  44  67  89 130 174 237 271 351 408
#     4  11  26  40  65  92 129 182 235 288 340 401
#
# _framework density 20.235987999999999
#
# number of rings (size 3 to 8) (size 9 to 14) (size 15 to 20)
#    0.000    1.231    4.615    0.692    6.462    4.308 
#    0.000    0.000    0.000    0.000    0.000    0.000 
#    0.000    0.000    0.000    0.000    0.000    0.000 
#
# Total GULP energy -145076.806600 kJ/mol
# GULP energy per Si atom -5579.877177 kJ/mol
# Density = 2.018993 g / cm^3
# Si number density = 20.235988 Si / 1000 Ang^3
#
#
#
# Elastic Constant Matrix: (Units=GPa)
#
#
# Indices 1 2 3 4 5 6 
#
# 1 77.7321 48.5399 48.5137 0.0000 0.0000 0.0000
# 2 48.5399 124.1932 66.3341 0.0000 0.0000 0.0000
# 3 48.5137 66.3341 124.9653 0.0000 0.0000 0.0000
# 4 0.0000 0.0000 0.0000 18.7385 0.0000 0.0000
# 5 0.0000 0.0000 0.0000 0.0000 29.6504 0.0000
# 6 0.0000 0.0000 0.0000 0.0000 0.0000 51.8309
#
#
#
# Elastic Compliance Matrix: (Units=1/GPa)
#
#
# Indices 1 2 3 4 5 6 
#
# 1 0.018846 -0.004826 -0.004754 0.000000 0.000000 0.000000
# 2 -0.004826 0.012474 -0.004748 0.000000 0.000000 0.000000
# 3 -0.004754 -0.004748 0.012368 0.000000 0.000000 0.000000
# 4 0.000000 0.000000 0.000000 0.053366 0.000000 0.000000
# 5 0.000000 0.000000 0.000000 0.000000 0.033726 0.000000
# 6 0.000000 0.000000 0.000000 0.000000 0.000000 0.019294
#
#
# Mechanical properties :
#
#
# Convention : Reuss Voigt Hill
#
# Bulk Modulus (GPa) = 66.52887 72.62956 69.57921
# Shear Modulus (GPa) = 27.21209 30.94414 29.07812
#
# Velocity S-wave (km/s) = 3.67104 3.91469 3.79483
# Velocity P-wave (km/s) = 7.13559 7.51015 7.32526
#
# Compressibility (1/GPa) = 0.01503107
#
# Stress axis : x y z
#
# Youngs Moduli (GPa) = 53.06234 80.16510 80.85230
#
# Poissons Ratio (x) = 0.38690 0.38440
# Poissons Ratio (y) = 0.25610 0.38388
# Poissons Ratio (z) = 0.25228 0.38062
#
# Static dielectric constant tensor:
#      x y z
#    x 1.760280 0.000000 0.000000 
#    y 0.000000 1.833760 0.000000 
#    z 0.000000 0.000000 1.628320 
# 
# From -- ./inp_files/12940.got.cif
#   From: 2010.05.17/outbox.cif.g08.bks.cpg/sg22_7_cif.got.tgz:12940.got - 2010.06.03 23:40:54.
