data_PCOD9327825
_publ_section_title
;
Structure prediction by ZEFSAII (Michael W. Deem and Ramdas Pophale) SiO2 
 PCOD9327825
Probable space group: F 2 2 2
;
_chemical_formula_sum "Si O2"
_cell_formula_units_Z 80
_cell_length_a 29.545523
_cell_length_b 26.842453
_cell_length_c 5.274031
_cell_angle_alpha 90.000000
_cell_angle_beta 90.000000
_cell_angle_gamma 90.000000
_cell_volume 4182.698509
_symmetry_space_group_name_H-M "F 2 2 2"
_symmetry_group_IT_number 22
_symmetry_cell_setting 'orthorhombic'
loop_
_space_group_symop_operation_xyz
x,y,z
-x,-y,z
x,-y,-z
-x,y,-z
x,1/2+y,1/2+z
-x,1/2-y,1/2+z
x,1/2-y,1/2-z
-x,1/2+y,1/2-z
1/2+x,y,1/2+z
1/2-x,-y,1/2+z
1/2+x,-y,1/2-z
1/2-x,y,1/2-z
1/2+x,1/2+y,z
1/2-x,1/2-y,z
1/2+x,1/2-y,-z
1/2-x,1/2+y,-z
loop_
_atom_site_type_symbol
_atom_site_label
_atom_site_fract_x
_atom_site_fract_y
_atom_site_fract_z
Si Si1 0.554893 0.058572 0.005901
Si Si2 0.917246 0.881640 0.008733
Si Si3 0.128159 0.806607 0.656359
Si Si4 0.269919 0.807088 0.000631
Si Si5 0.460511 0.192427 0.813143
O O1 0.571138 0.084166 0.747130
O O2 0.500000 0.062914 0.000000
O O3 0.578288 0.084534 0.252980
O O4 0.565616 0.000000 0.000000
O O5 0.953517 0.838745 0.941107
O O6 0.875880 0.846914 0.114764
O O7 0.123427 0.750000 0.750000
O O8 0.176312 0.808251 0.516955
O O9 0.086668 0.814211 0.464467
O O10 0.250000 0.831206 0.250000
O O11 0.250000 0.750000 0.000323
O O12 0.250000 0.831251 0.750000
O O13 0.467505 0.250000 0.750000
O O14 0.500000 0.175473 0.000000
#
# Coordination Sequence:
#
# PCOD9327825 Si02
#       5
#    16  16  16  16  16
#     4  11  25  44  66  88 118 167 229 290 344 381
#     4  12  25  40  63  89 125 168 223 271 324 386
#     4  12  24  40  62  93 133 182 221 261 319 385
#     4  10  22  37  61  84 119 172 217 261 310 367
#     4  12  27  38  56  88 136 187 224 259 304 383
#
# _framework density 19.126407
#
# number of rings (size 3 to 8) (size 9 to 14) (size 15 to 20)
#    0.000    0.600    6.000    2.400    8.400    1.600 
#    0.000    0.000    0.000    0.000    0.000    0.000 
#    0.000    4.800    1.600    0.000    0.000    0.000 
#
# Total GULP energy -111613.813864 kJ/mol
# GULP energy per Si atom -5580.690693 kJ/mol
# Density = 1.908287 g / cm^3
# Si number density = 19.126407 Si / 1000 Ang^3
#
#
#
# Elastic Constant Matrix: (Units=GPa)
#
#
# Indices 1 2 3 4 5 6 
#
# 1 137.9321 13.9334 47.9365 -0.0008 -0.0027 -0.0155
# 2 13.9334 144.9361 56.8013 0.1147 -0.0375 -0.0315
# 3 47.9365 56.8013 172.0061 0.1827 -0.0967 0.0170
# 4 -0.0008 0.1147 0.1827 11.2703 -0.0724 -0.0029
# 5 -0.0027 -0.0375 -0.0967 -0.0724 40.4364 0.0201
# 6 -0.0155 -0.0315 0.0170 -0.0029 0.0201 11.1645
#
#
#
# Elastic Compliance Matrix: (Units=1/GPa)
#
#
# Indices 1 2 3 4 5 6 
#
# 1 0.008029 0.000121 -0.002278 0.000036 -0.000005 0.000015
# 2 0.000121 0.007927 -0.002651 -0.000038 0.000001 0.000027
# 3 -0.002278 -0.002651 0.007324 -0.000092 0.000015 -0.000022
# 4 0.000036 -0.000038 -0.000092 0.088732 0.000159 0.000023
# 5 -0.000005 0.000001 0.000015 0.000159 0.024731 -0.000044
# 6 0.000015 0.000027 -0.000022 0.000023 -0.000044 0.089570
#
#
# Mechanical properties :
#
#
# Convention : Reuss Voigt Hill
#
# Bulk Modulus (GPa) = 73.18479 76.91296 75.04887
# Shear Modulus (GPa) = 20.79141 34.98777 27.88959
#
# Velocity S-wave (km/s) = 3.30062 4.28166 3.82274
# Velocity P-wave (km/s) = 7.27133 8.04635 7.66864
#
# Compressibility (1/GPa) = 0.01366404
#
# Stress axis : x y z
#
# Youngs Moduli (GPa) = 124.54381 126.14944 136.53469
#
# Poissons Ratio (x) = -0.01522 0.31097
# Poissons Ratio (y) = -0.01503 0.36200
# Poissons Ratio (z) = 0.28366 0.33447
#
# Static dielectric constant tensor:
#      x y z
#    x 1.771560 0.000040 -0.000120 
#    y 0.000040 1.675100 -0.000030 
#    z -0.000120 -0.000030 1.737120 
# 
# From -- ./inp_files/6529.got.cif
#   From: 2010.05.17/outbox.cif.g08.bks.cpg/sg22_4_cif.got.tgz:6529.got - 2010.06.03 23:40:54.
