data_PCOD9327204
_publ_section_title
;
Structure prediction by ZEFSAII (Michael W. Deem and Ramdas Pophale) SiO2 
 PCOD9327204
Probable space group: F 2 2 2
;
_chemical_formula_sum "Si O2"
_cell_formula_units_Z 64
_cell_length_a 10.499438
_cell_length_b 15.219605
_cell_length_c 17.588293
_cell_angle_alpha 90.000000
_cell_angle_beta 90.000000
_cell_angle_gamma 90.000000
_cell_volume 2810.561717
_symmetry_space_group_name_H-M "F 2 2 2"
_symmetry_group_IT_number 22
_symmetry_cell_setting 'orthorhombic'
loop_
_space_group_symop_operation_xyz
x,y,z
-x,-y,z
x,-y,-z
-x,y,-z
x,1/2+y,1/2+z
-x,1/2-y,1/2+z
x,1/2-y,1/2-z
-x,1/2+y,1/2-z
1/2+x,y,1/2+z
1/2-x,-y,1/2+z
1/2+x,-y,1/2-z
1/2-x,y,1/2-z
1/2+x,1/2+y,z
1/2-x,1/2-y,z
1/2+x,1/2-y,-z
1/2-x,1/2+y,-z
loop_
_atom_site_type_symbol
_atom_site_label
_atom_site_fract_x
_atom_site_fract_y
_atom_site_fract_z
Si Si1 0.500000 0.194903 0.500000
Si Si2 0.804026 0.844804 0.882022
Si Si3 0.060805 0.750000 0.250000
Si Si4 0.133469 0.308581 0.127207
Si Si5 0.651933 0.996111 0.178068
O O1 0.586474 0.137144 0.443387
O O2 0.583466 0.259904 0.552378
O O3 0.750000 0.750000 0.906436
O O4 0.863397 0.820944 0.799701
O O5 0.700006 0.919153 0.868994
O O6 0.975741 0.699946 0.189658
O O7 0.250000 0.250000 0.155100
O O8 0.169159 0.410183 0.124824
O O9 0.750000 0.986491 0.250000
O O10 0.500000 0.000000 0.198052
#
# Coordination Sequence:
#
# PCOD9327204 Si02
#       5
#     8  16   8  16  16
#     4  10  24  46  66  94 140 186 228 282 344 404
#     4  11  22  42  69 100 137 180 228 282 344 408
#     4  10  20  40  70 100 139 178 219 284 347 406
#     4  11  23  42  67  98 137 180 228 282 341 407
#     4  12  25  43  73 108 139 178 231 287 344 408
#
# _framework density 22.771249000000001
#
# number of rings (size 3 to 8) (size 9 to 14) (size 15 to 20)
#    0.000    1.000    0.000    9.000    0.000    2.000 
#    0.000   13.125    0.000   12.000    0.000    0.000 
#    0.000    0.000    0.000    0.000    0.000    0.000 
#
# Total GULP energy -89466.491973 kJ/mol
# GULP energy per Si atom -5591.655748 kJ/mol
# Density = 2.271942 g / cm^3
# Si number density = 22.771249 Si / 1000 Ang^3
#
#
#
# Elastic Constant Matrix: (Units=GPa)
#
#
# Indices 1 2 3 4 5 6 
#
# 1 154.6080 66.9034 63.1831 0.0000 0.0000 0.0000
# 2 66.9034 138.9428 18.4104 0.0000 0.0000 0.0000
# 3 63.1831 18.4104 117.8199 0.0000 0.0000 0.0000
# 4 0.0000 0.0000 0.0000 1.3078 0.0000 0.0000
# 5 0.0000 0.0000 0.0000 0.0000 38.4621 0.0000
# 6 0.0000 0.0000 0.0000 0.0000 0.0000 57.1211
#
#
#
# Elastic Compliance Matrix: (Units=1/GPa)
#
#
# Indices 1 2 3 4 5 6 
#
# 1 0.010328 -0.004329 -0.004862 0.000000 0.000000 0.000000
# 2 -0.004329 0.009164 0.000890 0.000000 0.000000 0.000000
# 3 -0.004862 0.000890 0.010956 0.000000 0.000000 0.000000
# 4 0.000000 0.000000 0.000000 0.764615 0.000000 0.000000
# 5 0.000000 0.000000 0.000000 0.000000 0.026000 0.000000
# 6 0.000000 0.000000 0.000000 0.000000 0.000000 0.017507
#
#
# Mechanical properties :
#
#
# Convention : Reuss Voigt Hill
#
# Bulk Modulus (GPa) = 72.22975 78.70717 75.46846
# Shear Modulus (GPa) = 5.81539 36.90315 21.35927
#
# Velocity S-wave (km/s) = 1.59980 4.03004 3.06599
# Velocity P-wave (km/s) = 5.93305 7.50295 6.76370
#
# Compressibility (1/GPa) = 0.01384471
#
# Stress axis : x y z
#
# Youngs Moduli (GPa) = 96.82134 109.12487 91.27402
#
# Poissons Ratio (x) = 0.47240 0.44380
# Poissons Ratio (y) = 0.41914 -0.08119
# Poissons Ratio (z) = 0.47077 -0.09707
#
# Static dielectric constant tensor:
#      x y z
#    x 2.148670 0.000000 0.000000 
#    y 0.000000 1.866170 0.000000 
#    z 0.000000 0.000000 1.599980 
# 
# From -- ./inp_files/21042.got.cif
#   From: 2010.05.17/outbox.cif.g08.bks.cpg/sg22_11_cif.got.tgz:21042.got - 2010.06.03 23:40:54.
