data_PCOD9327399
_publ_section_title
;
Structure prediction by ZEFSAII (Michael W. Deem and Ramdas Pophale) SiO2 
 PCOD9327399
Probable space group: F 2 2 2
;
_chemical_formula_sum "Si O2"
_cell_formula_units_Z 120
_cell_length_a 11.942547
_cell_length_b 20.868602
_cell_length_c 21.089095
_cell_angle_alpha 90.000000
_cell_angle_beta 90.000000
_cell_angle_gamma 90.000000
_cell_volume 5255.914100
_symmetry_space_group_name_H-M "F 2 2 2"
_symmetry_group_IT_number 22
_symmetry_cell_setting 'orthorhombic'
loop_
_space_group_symop_operation_xyz
x,y,z
-x,-y,z
x,-y,-z
-x,y,-z
x,1/2+y,1/2+z
-x,1/2-y,1/2+z
x,1/2-y,1/2-z
-x,1/2+y,1/2-z
1/2+x,y,1/2+z
1/2-x,-y,1/2+z
1/2+x,-y,1/2-z
1/2-x,y,1/2-z
1/2+x,1/2+y,z
1/2-x,1/2-y,z
1/2+x,1/2-y,-z
1/2-x,1/2+y,-z
loop_
_atom_site_type_symbol
_atom_site_label
_atom_site_fract_x
_atom_site_fract_y
_atom_site_fract_z
Si Si1 0.929854 0.938087 0.626600
Si Si2 0.128384 0.126151 0.951016
Si Si3 0.825712 0.487801 0.378982
Si Si4 0.014742 0.694186 0.926653
Si Si5 0.117391 0.401032 0.735437
Si Si6 0.750000 0.750000 0.383688
Si Si7 0.871265 0.133863 0.908263
Si Si8 0.357590 0.214419 0.655747
O O1 0.802417 0.963690 0.623320
O O2 0.945634 0.918098 0.700398
O O3 0.972315 0.878300 0.585144
O O4 0.000000 0.000000 0.609410
O O5 0.131179 0.050273 0.940419
O O6 0.193718 0.166481 0.898111
O O7 0.001354 0.141773 0.928570
O O8 0.174742 0.142634 0.019740
O O9 0.887885 0.455666 0.318631
O O10 0.844342 0.563068 0.383759
O O11 0.144120 0.710831 0.912885
O O12 0.938773 0.736116 0.878920
O O13 0.000000 0.712502 0.000000
O O14 0.250000 0.395217 0.750000
O O15 0.083978 0.332780 0.705763
O O16 0.822114 0.687599 0.361474
O O17 0.250000 0.250000 0.682530
#
# Coordination Sequence:
#
# PCOD9327399 Si02
#       8
#    16  16  16  16  16   8  16  16
#     4  11  25  47  66 101 137 183 238 292 357 418
#     4  10  21  37  59  98 133 180 233 280 345 405
#     4  10  21  40  69 100 129 175 238 297 349 398
#     4  12  27  44  68 100 146 191 228 280 348 425
#     4   9  21  42  71 102 129 172 237 303 356 392
#     4  12  26  42  62  95 146 189 230 268 344 432
#     4  11  22  38  61  93 143 183 228 278 338 424
#     4  11  22  40  70 105 139 176 233 296 355 409
#
# _framework density 22.831423000000001
#
# number of rings (size 3 to 8) (size 9 to 14) (size 15 to 20)
#    0.000    1.333    1.333    4.800    5.600    5.333 
#    2.400    0.000    0.000    0.800    0.000    0.000 
#    0.000    0.000    0.000    0.000    0.000    0.000 
#
# Total GULP energy -167289.023419 kJ/mol
# GULP energy per Si atom -5576.300781 kJ/mol
# Density = 2.277946 g / cm^3
# Si number density = 22.831423 Si / 1000 Ang^3
#
#
#
# Elastic Constant Matrix: (Units=GPa)
#
#
# Indices 1 2 3 4 5 6 
#
# 1 101.5213 45.0706 11.6034 0.0000 0.0000 0.0000
# 2 45.0706 185.2767 18.5304 0.0000 0.0000 0.0000
# 3 11.6034 18.5304 52.6684 0.0000 0.0000 0.0000
# 4 0.0000 0.0000 0.0000 33.4390 0.0000 0.0000
# 5 0.0000 0.0000 0.0000 0.0000 12.4084 0.0000
# 6 0.0000 0.0000 0.0000 0.0000 0.0000 37.0381
#
#
#
# Elastic Compliance Matrix: (Units=1/GPa)
#
#
# Indices 1 2 3 4 5 6 
#
# 1 0.011165 -0.002560 -0.001559 0.000000 0.000000 0.000000
# 2 -0.002560 0.006181 -0.001611 0.000000 0.000000 0.000000
# 3 -0.001559 -0.001611 0.019897 0.000000 0.000000 0.000000
# 4 0.000000 0.000000 0.000000 0.029905 0.000000 0.000000
# 5 0.000000 0.000000 0.000000 0.000000 0.080591 0.000000
# 6 0.000000 0.000000 0.000000 0.000000 0.000000 0.026999
#
#
# Mechanical properties :
#
#
# Convention : Reuss Voigt Hill
#
# Bulk Modulus (GPa) = 38.78473 54.43056 46.60764
# Shear Modulus (GPa) = 25.66838 34.19457 29.93147
#
# Velocity S-wave (km/s) = 3.35663 3.87421 3.62467
# Velocity P-wave (km/s) = 5.66100 6.62605 6.16245
#
# Compressibility (1/GPa) = 0.02578334
#
# Stress axis : x y z
#
# Youngs Moduli (GPa) = 89.56657 161.78112 50.25908
#
# Poissons Ratio (x) = 0.41417 0.07836
# Poissons Ratio (y) = 0.22930 0.08095
# Poissons Ratio (z) = 0.13964 0.26059
#
# Static dielectric constant tensor:
#      x y z
#    x 1.861510 0.000000 0.000000 
#    y 0.000000 1.897590 0.000000 
#    z 0.000000 0.000000 1.918530 
# 
# From -- ./inp_files/48324.got.cif
#   From: 2010.05.17/outbox.cif.g08.bks.cpg/sg22_25_cif.got.tgz:48324.got - 2010.06.03 23:40:54.
