data_PCOD9327219
_publ_section_title
;
Structure prediction by ZEFSAII (Michael W. Deem and Ramdas Pophale) SiO2 
 PCOD9327219
Probable space group: F 2 2 2
;
_chemical_formula_sum "Si O2"
_cell_formula_units_Z 84
_cell_length_a 17.055783
_cell_length_b 19.035315
_cell_length_c 11.616796
_cell_angle_alpha 90.000000
_cell_angle_beta 90.000000
_cell_angle_gamma 90.000000
_cell_volume 3771.534569
_symmetry_space_group_name_H-M "F 2 2 2"
_symmetry_group_IT_number 22
_symmetry_cell_setting 'orthorhombic'
loop_
_space_group_symop_operation_xyz
x,y,z
-x,-y,z
x,-y,-z
-x,y,-z
x,1/2+y,1/2+z
-x,1/2-y,1/2+z
x,1/2-y,1/2-z
-x,1/2+y,1/2-z
1/2+x,y,1/2+z
1/2-x,-y,1/2+z
1/2+x,-y,1/2-z
1/2-x,y,1/2-z
1/2+x,1/2+y,z
1/2-x,1/2-y,z
1/2+x,1/2-y,-z
1/2-x,1/2+y,-z
loop_
_atom_site_type_symbol
_atom_site_label
_atom_site_fract_x
_atom_site_fract_y
_atom_site_fract_z
Si Si1 0.339731 0.082297 0.723043
Si Si2 0.009674 0.415579 0.872951
Si Si3 0.110907 0.925129 0.823585
Si Si4 0.839120 0.276122 0.628748
Si Si5 0.658009 0.274902 0.122540
Si Si6 0.500000 0.500000 0.000000
O O1 0.250000 0.097256 0.750000
O O2 0.404173 0.097236 0.821347
O O3 0.355600 0.140750 0.626365
O O4 0.346276 0.999275 0.699202
O O5 0.000000 0.500000 0.879643
O O6 0.940615 0.398020 0.784238
O O7 0.000000 0.386080 0.000000
O O8 0.162835 0.860606 0.863094
O O9 0.049685 0.949487 0.919387
O O10 0.875370 0.250000 0.750000
O O11 0.750000 0.250000 0.627914
O O12 0.873880 0.253362 0.504058
O O13 0.628484 0.250000 0.250000
O O14 0.750000 0.250000 0.121850
#
# Coordination Sequence:
#
# PCOD9327219 Si02
#       6
#    16  16  16  16  16   4
#     4  11  21  39  73 113 130 181 243 304 361 419
#     4   9  20  42  64  98 145 182 221 292 371 440
#     4  11  23  42  72 102 141 183 236 298 362 436
#     4  10  24  43  65  96 144 188 225 291 364 426
#     4  10  20  41  63  96 138 178 226 291 350 420
#     4  12  20  44  74 100 132 180 246 300 344 420
#
# _framework density 22.272102
#
# number of rings (size 3 to 8) (size 9 to 14) (size 15 to 20)
#    0.000    1.714    4.762    1.143    2.667    1.524 
#    3.429    8.571    2.095    0.000    0.000    0.000 
#    0.000    0.000    0.000    0.000    0.000    0.000 
#
# Total GULP energy -116990.644059 kJ/mol
# GULP energy per Si atom -5570.983050 kJ/mol
# Density = 2.222141 g / cm^3
# Si number density = 22.272102 Si / 1000 Ang^3
#
#
#
# Elastic Constant Matrix: (Units=GPa)
#
#
# Indices 1 2 3 4 5 6 
#
# 1 68.7383 33.3489 28.5940 0.0000 0.0000 0.0000
# 2 33.3489 135.3123 49.2543 0.0000 0.0000 0.0000
# 3 28.5940 49.2543 199.3252 0.0000 0.0000 0.0000
# 4 0.0000 0.0000 0.0000 -22.7053 0.0000 0.0000
# 5 0.0000 0.0000 0.0000 0.0000 -24.4691 0.0000
# 6 0.0000 0.0000 0.0000 0.0000 0.0000 16.6294
#
#
#
# Elastic Compliance Matrix: (Units=1/GPa)
#
#
# Indices 1 2 3 4 5 6 
#
# 1 0.016942 -0.003616 -0.001537 0.000000 0.000000 0.000000
# 2 -0.003616 0.008893 -0.001679 0.000000 0.000000 0.000000
# 3 -0.001537 -0.001679 0.005652 0.000000 0.000000 0.000000
# 4 0.000000 0.000000 0.000000 -0.044043 0.000000 0.000000
# 5 0.000000 0.000000 0.000000 0.000000 -0.040868 0.000000
# 6 0.000000 0.000000 0.000000 0.000000 0.000000 0.060135
#
#
# Mechanical properties :
#
#
# Convention : Reuss Voigt Hill
#
# Bulk Modulus (GPa) = 56.10613 69.53002 62.81807
# Shear Modulus (GPa) = 190.00986 13.36956 101.68971
#
# Velocity S-wave (km/s) = 9.24652 2.45273 6.76439
# Velocity P-wave (km/s) = 11.80015 6.26956 9.44857
#
# Compressibility (1/GPa) = 0.01782336
#
# Stress axis : x y z
#
# Youngs Moduli (GPa) = 59.02655 112.45373 176.92238
#
# Poissons Ratio (x) = 0.40663 0.27189
# Poissons Ratio (y) = 0.21344 0.29699
# Poissons Ratio (z) = 0.09071 0.18877
#
# Static dielectric constant tensor:
#      x y z
#    x 1.826720 0.000000 0.000000 
#    y 0.000000 2.057270 0.000000 
#    z 0.000000 0.000000 1.902680 
# 
# From -- ./inp_files/21298.got.cif
#   From: 2010.05.17/outbox.cif.g08.bks.cpg/sg22_11_cif.got.tgz:21298.got - 2010.06.03 23:40:54.
