data_PCOD9327397
_publ_section_title
;
Structure prediction by ZEFSAII (Michael W. Deem and Ramdas Pophale) SiO2 
 PCOD9327397
Probable space group: F 2 2 2
;
_chemical_formula_sum "Si O2"
_cell_formula_units_Z 56
_cell_length_a 32.093371
_cell_length_b 4.992736
_cell_length_c 14.870937
_cell_angle_alpha 90.000000
_cell_angle_beta 90.000000
_cell_angle_gamma 90.000000
_cell_volume 2382.825686
_symmetry_space_group_name_H-M "F 2 2 2"
_symmetry_group_IT_number 22
_symmetry_cell_setting 'orthorhombic'
loop_
_space_group_symop_operation_xyz
x,y,z
-x,-y,z
x,-y,-z
-x,y,-z
x,1/2+y,1/2+z
-x,1/2-y,1/2+z
x,1/2-y,1/2-z
-x,1/2+y,1/2-z
1/2+x,y,1/2+z
1/2-x,-y,1/2+z
1/2+x,-y,1/2-z
1/2-x,y,1/2-z
1/2+x,1/2+y,z
1/2-x,1/2-y,z
1/2+x,1/2-y,-z
1/2-x,1/2+y,-z
loop_
_atom_site_type_symbol
_atom_site_label
_atom_site_fract_x
_atom_site_fract_y
_atom_site_fract_z
Si Si1 0.778739 0.500274 0.892057
Si Si2 0.368594 0.334425 0.650418
Si Si3 0.527011 0.250000 0.750000
Si Si4 0.412869 0.143195 0.412473
O O1 0.750000 0.250000 0.869177
O O2 0.823005 0.538045 0.845247
O O3 0.750000 0.750000 0.871017
O O4 0.787208 0.500000 0.000000
O O5 0.382592 0.250000 0.750000
O O6 0.396907 0.551602 0.598403
O O7 0.372585 0.050564 0.600757
O O8 0.500000 0.500000 0.715142
O O9 0.554978 0.130399 0.669893
O O10 0.432533 0.000000 0.500000
#
# Coordination Sequence:
#
# PCOD9327397 Si02
#       4
#    16  16   8  16
#     4  10  21  37  59  92 134 183 242 307 371 436
#     4  12  23  43  69 101 142 191 251 314 368 443
#     4  12  26  48  76 108 151 186 237 316 386 456
#     4  12  25  46  74 106 142 194 248 296 377 459
#
# _framework density 23.501508000000001
#
# number of rings (size 3 to 8) (size 9 to 14) (size 15 to 20)
#    0.000    0.571    2.857    6.000    0.000    3.429 
#    0.000    2.857    0.000    0.000    0.000    0.000 
#    0.000    0.000    0.000    0.000    0.000    0.000 
#
# Total GULP energy -78203.989222 kJ/mol
# GULP energy per Si atom -5585.999230 kJ/mol
# Density = 2.344802 g / cm^3
# Si number density = 23.501508 Si / 1000 Ang^3
#
#
#
# Elastic Constant Matrix: (Units=GPa)
#
#
# Indices 1 2 3 4 5 6 
#
# 1 90.3265 39.6411 37.5739 0.0002 0.0000 -0.0002
# 2 39.6411 179.8175 50.9730 0.0017 -0.0004 -0.0010
# 3 37.5739 50.9730 155.0603 0.0008 -0.0002 -0.0002
# 4 0.0002 0.0017 0.0008 41.0670 -0.0003 -0.0002
# 5 0.0000 -0.0004 -0.0002 -0.0003 22.6488 0.0003
# 6 -0.0002 -0.0010 -0.0002 -0.0002 0.0003 32.8685
#
#
#
# Elastic Compliance Matrix: (Units=1/GPa)
#
#
# Indices 1 2 3 4 5 6 
#
# 1 0.013046 -0.002183 -0.002443 0.000000 0.000000 0.000000
# 2 -0.002183 0.006498 -0.001607 0.000000 0.000000 0.000000
# 3 -0.002443 -0.001607 0.007569 0.000000 0.000000 0.000000
# 4 0.000000 0.000000 0.000000 0.024350 0.000000 0.000000
# 5 0.000000 0.000000 0.000000 0.000000 0.044152 0.000000
# 6 0.000000 0.000000 0.000000 0.000000 0.000000 0.030424
#
#
# Mechanical properties :
#
#
# Convention : Reuss Voigt Hill
#
# Bulk Modulus (GPa) = 68.28036 75.73114 72.00575
# Shear Modulus (GPa) = 34.87004 39.11796 36.99400
#
# Velocity S-wave (km/s) = 3.85611 4.08424 3.97181
# Velocity P-wave (km/s) = 6.99591 7.38480 7.19298
#
# Compressibility (1/GPa) = 0.01464550
#
# Stress axis : x y z
#
# Youngs Moduli (GPa) = 76.65463 153.89223 132.10928
#
# Poissons Ratio (x) = 0.33599 0.32280
# Poissons Ratio (y) = 0.16736 0.21231
# Poissons Ratio (z) = 0.18730 0.24731
#
# Static dielectric constant tensor:
#      x y z
#    x 1.813140 0.000000 0.000000 
#    y 0.000000 1.836330 0.000000 
#    z 0.000000 0.000000 2.013030 
# 
# From -- ./inp_files/5997.got.cif
#   From: 2010.05.17/outbox.cif.g08.bks.cpg/sg22_3_cif.got.tgz:5997.got - 2010.06.03 23:40:54.
