data_PCOD9327755
_publ_section_title
;
Structure prediction by ZEFSAII (Michael W. Deem and Ramdas Pophale) SiO2 
 PCOD9327755
Probable space group: F 2 2 2
;
_chemical_formula_sum "Si O2"
_cell_formula_units_Z 60
_cell_length_a 5.540171
_cell_length_b 18.531167
_cell_length_c 21.523841
_cell_angle_alpha 90.000000
_cell_angle_beta 90.000000
_cell_angle_gamma 90.000000
_cell_volume 2209.763087
_symmetry_space_group_name_H-M "F 2 2 2"
_symmetry_group_IT_number 22
_symmetry_cell_setting 'orthorhombic'
loop_
_space_group_symop_operation_xyz
x,y,z
-x,-y,z
x,-y,-z
-x,y,-z
x,1/2+y,1/2+z
-x,1/2-y,1/2+z
x,1/2-y,1/2-z
-x,1/2+y,1/2-z
1/2+x,y,1/2+z
1/2-x,-y,1/2+z
1/2+x,-y,1/2-z
1/2-x,y,1/2-z
1/2+x,1/2+y,z
1/2-x,1/2-y,z
1/2+x,1/2-y,-z
1/2-x,1/2+y,-z
loop_
_atom_site_type_symbol
_atom_site_label
_atom_site_fract_x
_atom_site_fract_y
_atom_site_fract_z
Si Si1 0.248162 0.020631 0.151487
Si Si2 0.250000 0.250000 0.539187
Si Si3 0.855068 0.324682 0.680114
Si Si4 0.749687 0.908654 0.539104
Si Si5 0.250000 0.750000 0.250000
O O1 0.219923 0.106154 0.141204
O O2 0.249493 0.970951 0.090172
O O3 0.500000 0.000000 0.182172
O O4 0.000000 0.000000 0.184883
O O5 0.500000 0.250495 0.500000
O O6 0.253291 0.171161 0.569969
O O7 0.750000 0.336279 0.750000
O O8 0.750000 0.250000 0.653121
O O9 0.120004 0.303800 0.702047
O O10 0.500000 0.913982 0.500000
O O11 0.000000 0.913603 0.500000
#
# Coordination Sequence:
#
# PCOD9327755 Si02
#       5
#    16   8  16  16   4
#     4  12  28  44  68 115 148 193 238 310 377 436
#     4   8  16  34  65  94 125 182 253 300 340 417
#     4   9  22  46  78 106 142 191 250 300 374 447
#     4  10  21  43  70  99 143 199 252 301 361 428
#     4   8  18  44  86 106 132 212 244 308 366 458
#
# _framework density 27.152231
#
# number of rings (size 3 to 8) (size 9 to 14) (size 15 to 20)
#    0.000    2.400    0.000    1.600    7.467    4.267 
#    4.800    0.000    0.000    1.600    0.000    0.000 
#    0.000    0.000    0.000    0.000    0.000    0.000 
#
# Total GULP energy -83889.347652 kJ/mol
# GULP energy per Si atom -5592.623177 kJ/mol
# Density = 2.709043 g / cm^3
# Si number density = 27.152231 Si / 1000 Ang^3
#
#
#
# Elastic Constant Matrix: (Units=GPa)
#
#
# Indices 1 2 3 4 5 6 
#
# 1 231.0427 61.3712 63.2517 0.0000 0.0000 0.0000
# 2 61.3712 323.0758 87.2956 0.0000 0.0000 0.0000
# 3 63.2517 87.2956 143.9646 0.0000 0.0000 0.0000
# 4 0.0000 0.0000 0.0000 15.3939 0.0000 0.0000
# 5 0.0000 0.0000 0.0000 0.0000 12.4009 0.0000
# 6 0.0000 0.0000 0.0000 0.0000 0.0000 44.5001
#
#
#
# Elastic Compliance Matrix: (Units=1/GPa)
#
#
# Indices 1 2 3 4 5 6 
#
# 1 0.004968 -0.000423 -0.001926 0.000000 0.000000 0.000000
# 2 -0.000423 0.003738 -0.002081 0.000000 0.000000 0.000000
# 3 -0.001926 -0.002081 0.009054 0.000000 0.000000 0.000000
# 4 0.000000 0.000000 0.000000 0.064961 0.000000 0.000000
# 5 0.000000 0.000000 0.000000 0.000000 0.080639 0.000000
# 6 0.000000 0.000000 0.000000 0.000000 0.000000 0.022472
#
#
# Mechanical properties :
#
#
# Convention : Reuss Voigt Hill
#
# Bulk Modulus (GPa) = 112.35943 124.65775 118.50859
# Shear Modulus (GPa) = 25.29623 46.86995 36.08309
#
# Velocity S-wave (km/s) = 3.05560 4.15925 3.64939
# Velocity P-wave (km/s) = 7.34303 8.31121 7.84207
#
# Compressibility (1/GPa) = 0.00890001
#
# Stress axis : x y z
#
# Youngs Moduli (GPa) = 201.29149 267.53589 110.44939
#
# Poissons Ratio (x) = 0.11324 0.21273
# Poissons Ratio (y) = 0.08520 0.22979
# Poissons Ratio (z) = 0.38769 0.55661
#
# Static dielectric constant tensor:
#      x y z
#    x 2.239610 0.000000 0.000000 
#    y 0.000000 2.064870 0.000000 
#    z 0.000000 0.000000 2.127830 
# 
# From -- ./inp_files/4412.got.cif
#   From: 2010.05.17/outbox.cif.g08.bks.cpg/sg22_3_cif.got.tgz:4412.got - 2010.06.03 23:40:54.
