data_PCOD9327198
_publ_section_title
;
Structure prediction by ZEFSAII (Michael W. Deem and Ramdas Pophale) SiO2 
 PCOD9327198
Probable space group: F 2 2 2
;
_chemical_formula_sum "Si O2"
_cell_formula_units_Z 80
_cell_length_a 17.924896
_cell_length_b 8.501559
_cell_length_c 25.055240
_cell_angle_alpha 90.000000
_cell_angle_beta 90.000000
_cell_angle_gamma 90.000000
_cell_volume 3818.157022
_symmetry_space_group_name_H-M "F 2 2 2"
_symmetry_group_IT_number 22
_symmetry_cell_setting 'orthorhombic'
loop_
_space_group_symop_operation_xyz
x,y,z
-x,-y,z
x,-y,-z
-x,y,-z
x,1/2+y,1/2+z
-x,1/2-y,1/2+z
x,1/2-y,1/2-z
-x,1/2+y,1/2-z
1/2+x,y,1/2+z
1/2-x,-y,1/2+z
1/2+x,-y,1/2-z
1/2-x,y,1/2-z
1/2+x,1/2+y,z
1/2-x,1/2-y,z
1/2+x,1/2-y,-z
1/2-x,1/2+y,-z
loop_
_atom_site_type_symbol
_atom_site_label
_atom_site_fract_x
_atom_site_fract_y
_atom_site_fract_z
Si Si1 0.431140 0.419218 0.230094
Si Si2 0.678040 0.633654 0.956110
Si Si3 0.416317 0.926194 0.055143
Si Si4 0.143464 0.404080 0.826088
Si Si5 0.687843 0.454902 0.163997
O O1 0.500000 0.500000 0.200917
O O2 0.453063 0.250000 0.250000
O O3 0.409095 0.522868 0.281516
O O4 0.361339 0.412623 0.190868
O O5 0.750000 0.750000 0.962267
O O6 0.603306 0.741537 0.953783
O O7 0.688368 0.548296 0.899523
O O8 0.675074 0.500000 0.000000
O O9 0.380301 0.952517 0.113719
O O10 0.500000 0.000000 0.058219
O O11 0.383948 0.000000 0.000000
O O12 0.227757 0.460585 0.816446
O O13 0.150657 0.214704 0.821663
#
# Coordination Sequence:
#
# PCOD9327198 Si02
#       5
#    16  16  16  16  16
#     4  12  26  42  62  92 128 177 227 277 337 402
#     4  11  22  42  70 103 134 176 233 282 342 409
#     4  10  21  39  65 100 138 182 223 273 342 402
#     4  10  20  40  67  94 127 176 217 271 332 404
#     4  10  21  41  66  97 130 167 220 277 337 395
#
# _framework density 20.952517
#
# number of rings (size 3 to 8) (size 9 to 14) (size 15 to 20)
#    0.000    1.400    4.000    3.600    0.000    6.400 
#    0.000    6.000    0.000    0.000    0.000    0.000 
#    0.000    0.000    0.000    0.000    0.000    0.000 
#
# Total GULP energy -111616.269694 kJ/mol
# GULP energy per Si atom -5580.813485 kJ/mol
# Density = 2.090483 g / cm^3
# Si number density = 20.952517 Si / 1000 Ang^3
#
#
#
# Elastic Constant Matrix: (Units=GPa)
#
#
# Indices 1 2 3 4 5 6 
#
# 1 93.5433 37.6242 19.0245 0.0000 0.0000 0.0000
# 2 37.6242 39.9565 20.4101 0.0000 0.0000 0.0000
# 3 19.0245 20.4101 81.5444 0.0000 0.0000 0.0000
# 4 0.0000 0.0000 0.0000 27.3953 0.0000 0.0000
# 5 0.0000 0.0000 0.0000 0.0000 24.1572 0.0000
# 6 0.0000 0.0000 0.0000 0.0000 0.0000 35.5387
#
#
#
# Elastic Compliance Matrix: (Units=1/GPa)
#
#
# Indices 1 2 3 4 5 6 
#
# 1 0.017207 -0.016227 0.000047 0.000000 0.000000 0.000000
# 2 -0.016227 0.043998 -0.007227 0.000000 0.000000 0.000000
# 3 0.000047 -0.007227 0.014061 0.000000 0.000000 0.000000
# 4 0.000000 0.000000 0.000000 0.036503 0.000000 0.000000
# 5 0.000000 0.000000 0.000000 0.000000 0.041396 0.000000
# 6 0.000000 0.000000 0.000000 0.000000 0.000000 0.028138
#
#
# Mechanical properties :
#
#
# Convention : Reuss Voigt Hill
#
# Bulk Modulus (GPa) = 35.14509 41.01798 38.08153
# Shear Modulus (GPa) = 21.04366 26.61726 23.83046
#
# Velocity S-wave (km/s) = 3.17259 3.56808 3.37613
# Velocity P-wave (km/s) = 5.49823 6.04930 5.78034
#
# Compressibility (1/GPa) = 0.02845348
#
# Stress axis : x y z
#
# Youngs Moduli (GPa) = 58.11477 22.72809 71.11813
#
# Poissons Ratio (x) = 0.36881 -0.00334
# Poissons Ratio (y) = 0.94302 0.51395
# Poissons Ratio (z) = -0.00273 0.16425
#
# Static dielectric constant tensor:
#      x y z
#    x 1.769140 0.000000 0.000000 
#    y 0.000000 1.741810 0.000000 
#    z 0.000000 0.000000 1.754000 
# 
# From -- ./inp_files/53468.got.cif
#   From: 2010.05.17/outbox.cif.g08.bks.cpg/sg22_27_cif.got.tgz:53468.got - 2010.06.03 23:40:54.
