data_PCOD9327373
_publ_section_title
;
Structure prediction by ZEFSAII (Michael W. Deem and Ramdas Pophale) SiO2 
 PCOD9327373
Probable space group: F 2 2 2
;
_chemical_formula_sum "Si O2"
_cell_formula_units_Z 68
_cell_length_a 14.041179
_cell_length_b 13.588018
_cell_length_c 17.609886
_cell_angle_alpha 90.000000
_cell_angle_beta 90.000000
_cell_angle_gamma 90.000000
_cell_volume 3359.821724
_symmetry_space_group_name_H-M "F 2 2 2"
_symmetry_group_IT_number 22
_symmetry_cell_setting 'orthorhombic'
loop_
_space_group_symop_operation_xyz
x,y,z
-x,-y,z
x,-y,-z
-x,y,-z
x,1/2+y,1/2+z
-x,1/2-y,1/2+z
x,1/2-y,1/2-z
-x,1/2+y,1/2-z
1/2+x,y,1/2+z
1/2-x,-y,1/2+z
1/2+x,-y,1/2-z
1/2-x,y,1/2-z
1/2+x,1/2+y,z
1/2-x,1/2-y,z
1/2+x,1/2-y,-z
1/2-x,1/2+y,-z
loop_
_atom_site_type_symbol
_atom_site_label
_atom_site_fract_x
_atom_site_fract_y
_atom_site_fract_z
Si Si1 0.257464 0.597348 0.660288
Si Si2 0.233626 0.917493 0.436641
Si Si3 0.407908 0.258167 0.157469
Si Si4 0.250000 0.750000 0.250000
Si Si5 0.621413 0.724526 0.893550
O O1 0.250000 0.607120 0.750000
O O2 0.266255 0.485126 0.637845
O O3 0.348435 0.661005 0.634180
O O4 0.161182 0.651813 0.634553
O O5 0.335039 0.862511 0.444630
O O6 0.159209 0.828498 0.426976
O O7 0.215965 0.000000 0.500000
O O8 0.419003 0.250000 0.250000
O O9 0.509974 0.270164 0.119839
O O10 0.324952 0.706722 0.187897
#
# Coordination Sequence:
#
# PCOD9327373 Si02
#       5
#    16  16  16   4  16
#     4   9  20  36  60  85 123 156 192 246 304 342
#     4  10  23  40  56  85 120 157 199 244 301 354
#     4   9  18  36  58  92 119 151 194 248 296 354
#     4   8  16  32  56  86 108 138 182 240 288 326
#     4  10  21  36  63  83 117 154 195 246 297 345
#
# _framework density 20.239169
#
# number of rings (size 3 to 8) (size 9 to 14) (size 15 to 20)
#    0.000    2.824    1.176    1.412    6.588    5.647 
#    0.000   11.765    0.000    0.000    0.000    0.000 
#    0.000    0.000    0.000    0.000    0.000    0.000 
#
# Total GULP energy -94672.466336 kJ/mol
# GULP energy per Si atom -5568.968608 kJ/mol
# Density = 2.019310 g / cm^3
# Si number density = 20.239169 Si / 1000 Ang^3
#
#
#
# Elastic Constant Matrix: (Units=GPa)
#
#
# Indices 1 2 3 4 5 6 
#
# 1 175.1795 51.8867 18.6324 0.0000 0.0000 0.0000
# 2 51.8867 126.1376 14.1161 0.0000 0.0000 0.0000
# 3 18.6324 14.1161 52.7221 0.0000 0.0000 0.0000
# 4 0.0000 0.0000 0.0000 18.6393 0.0000 0.0000
# 5 0.0000 0.0000 0.0000 0.0000 6.9540 0.0000
# 6 0.0000 0.0000 0.0000 0.0000 0.0000 2.8600
#
#
#
# Elastic Compliance Matrix: (Units=1/GPa)
#
#
# Indices 1 2 3 4 5 6 
#
# 1 0.006639 -0.002545 -0.001665 0.000000 0.000000 0.000000
# 2 -0.002545 0.009148 -0.001550 0.000000 0.000000 0.000000
# 3 -0.001665 -0.001550 0.019971 0.000000 0.000000 0.000000
# 4 0.000000 0.000000 0.000000 0.053650 0.000000 0.000000
# 5 0.000000 0.000000 0.000000 0.000000 0.143802 0.000000
# 6 0.000000 0.000000 0.000000 0.000000 0.000000 0.349647
#
#
# Mechanical properties :
#
#
# Convention : Reuss Voigt Hill
#
# Bulk Modulus (GPa) = 41.25649 58.14550 49.70099
# Shear Modulus (GPa) = 8.29936 23.65095 15.97515
#
# Velocity S-wave (km/s) = 2.02720 3.42215 2.81253
# Velocity P-wave (km/s) = 5.09000 6.66381 5.92935
#
# Compressibility (1/GPa) = 0.02423861
#
# Stress axis : x y z
#
# Youngs Moduli (GPa) = 150.61946 109.31256 50.07304
#
# Poissons Ratio (x) = 0.27817 0.08337
# Poissons Ratio (y) = 0.38328 0.07761
# Poissons Ratio (z) = 0.25079 0.16944
#
# Static dielectric constant tensor:
#      x y z
#    x 1.684730 0.000000 0.000000 
#    y 0.000000 1.785810 0.000000 
#    z 0.000000 0.000000 1.854590 
# 
# From -- ./inp_files/22358.got.cif
#   From: 2010.05.17/outbox.cif.g08.bks.cpg/sg22_12_cif.got.tgz:22358.got - 2010.06.03 23:40:54.
