data_PCOD9327042
_publ_section_title
;
Structure prediction by ZEFSAII (Michael W. Deem and Ramdas Pophale) SiO2 
 PCOD9327042
Probable space group: F 2 2 2
;
_chemical_formula_sum "Si O2"
_cell_formula_units_Z 96
_cell_length_a 22.877849
_cell_length_b 22.493051
_cell_length_c 9.646108
_cell_angle_alpha 90.000000
_cell_angle_beta 90.000000
_cell_angle_gamma 90.000000
_cell_volume 4963.816030
_symmetry_space_group_name_H-M "F 2 2 2"
_symmetry_group_IT_number 22
_symmetry_cell_setting 'orthorhombic'
loop_
_space_group_symop_operation_xyz
x,y,z
-x,-y,z
x,-y,-z
-x,y,-z
x,1/2+y,1/2+z
-x,1/2-y,1/2+z
x,1/2-y,1/2-z
-x,1/2+y,1/2-z
1/2+x,y,1/2+z
1/2-x,-y,1/2+z
1/2+x,-y,1/2-z
1/2-x,y,1/2-z
1/2+x,1/2+y,z
1/2-x,1/2-y,z
1/2+x,1/2-y,-z
1/2-x,1/2+y,-z
loop_
_atom_site_type_symbol
_atom_site_label
_atom_site_fract_x
_atom_site_fract_y
_atom_site_fract_z
Si Si1 0.947018 0.877610 0.700101
Si Si2 0.433451 0.736139 0.488478
Si Si3 0.420819 0.865062 0.789496
Si Si4 0.271500 0.939616 0.408811
Si Si5 0.649894 0.069714 0.005801
Si Si6 0.384691 0.358411 0.971346
O O1 0.936983 0.812138 0.634406
O O2 0.899656 0.916251 0.618721
O O3 0.014886 0.891207 0.678705
O O4 0.932769 0.879346 0.861005
O O5 0.500000 0.761515 0.500000
O O6 0.420746 0.698281 0.628726
O O7 0.385954 0.786487 0.458099
O O8 0.373080 0.904934 0.863307
O O9 0.406212 0.865262 0.628593
O O10 0.250000 0.954444 0.250000
O O11 0.213849 0.905506 0.463125
O O12 0.326843 0.895752 0.429926
O O13 0.282159 0.000000 0.500000
O O14 0.657336 0.000000 0.000000
#
# Coordination Sequence:
#
# PCOD9327042 Si02
#       6
#    16  16  16  16  16  16
#     4  10  20  38  61  94 130 164 203 245 306 374
#     4   9  19  38  62  91 131 173 201 236 307 384
#     4  10  22  36  62  97 128 163 200 248 312 368
#     4  11  26  46  68  87 115 164 213 258 310 369
#     4  10  22  42  64  82 118 166 214 252 304 378
#     4  12  22  35  64  95 121 157 211 258 296 356
#
# _framework density 19.339957999999999
#
# number of rings (size 3 to 8) (size 9 to 14) (size 15 to 20)
#    0.000    1.667    1.667    4.000    4.667    4.000 
#    0.000    3.333    0.000    9.500    0.000    0.000 
#    0.000    0.000    0.000    0.000    0.000    0.000 
#
# Total GULP energy -133761.329950 kJ/mol
# GULP energy per Si atom -5573.388748 kJ/mol
# Density = 1.929594 g / cm^3
# Si number density = 19.339958 Si / 1000 Ang^3
#
#
#
# Elastic Constant Matrix: (Units=GPa)
#
#
# Indices 1 2 3 4 5 6 
#
# 1 110.4586 41.0120 21.7083 0.0001 0.0000 0.0000
# 2 41.0120 55.9043 11.5288 0.0001 0.0000 0.0000
# 3 21.7083 11.5288 120.7158 0.0002 -0.0001 -0.0001
# 4 0.0001 0.0001 0.0002 17.1688 0.0000 0.0000
# 5 0.0000 0.0000 -0.0001 0.0000 29.9945 0.0000
# 6 0.0000 0.0000 -0.0001 0.0000 0.0000 35.1507
#
#
#
# Elastic Compliance Matrix: (Units=1/GPa)
#
#
# Indices 1 2 3 4 5 6 
#
# 1 0.012676 -0.009007 -0.001419 0.000000 0.000000 0.000000
# 2 -0.009007 0.024647 -0.000734 0.000000 0.000000 0.000000
# 3 -0.001419 -0.000734 0.008609 0.000000 0.000000 0.000000
# 4 0.000000 0.000000 0.000000 0.058245 0.000000 0.000000
# 5 0.000000 0.000000 0.000000 0.000000 0.033339 0.000000
# 6 0.000000 0.000000 0.000000 0.000000 0.000000 0.028449
#
#
# Mechanical properties :
#
#
# Convention : Reuss Voigt Hill
#
# Bulk Modulus (GPa) = 42.35219 48.39743 45.37481
# Shear Modulus (GPa) = 25.48985 30.65145 28.07065
#
# Velocity S-wave (km/s) = 3.63435 3.98537 3.81390
# Velocity P-wave (km/s) = 6.28949 6.80121 6.55035
#
# Compressibility (1/GPa) = 0.02361153
#
# Stress axis : x y z
#
# Youngs Moduli (GPa) = 78.88802 40.57368 116.15372
#
# Poissons Ratio (x) = 0.36543 0.16487
# Poissons Ratio (y) = 0.71052 0.08528
# Poissons Ratio (z) = 0.11197 0.02979
#
# Static dielectric constant tensor:
#      x y z
#    x 1.672480 0.000000 0.000000 
#    y 0.000000 1.695940 0.000000 
#    z 0.000000 0.000000 1.730720 
# 
# From -- ./inp_files/12866.got.cif
#   From: 2010.05.17/outbox.cif.g08.bks.cpg/sg22_7_cif.got.tgz:12866.got - 2010.06.03 23:40:54.
