data_PCOD9327567
_publ_section_title
;
Structure prediction by ZEFSAII (Michael W. Deem and Ramdas Pophale) SiO2 
 PCOD9327567
Probable space group: F 2 2 2
;
_chemical_formula_sum "Si O2"
_cell_formula_units_Z 56
_cell_length_a 18.030997
_cell_length_b 5.579603
_cell_length_c 23.787190
_cell_angle_alpha 90.000000
_cell_angle_beta 90.000000
_cell_angle_gamma 90.000000
_cell_volume 2393.129398
_symmetry_space_group_name_H-M "F 2 2 2"
_symmetry_group_IT_number 22
_symmetry_cell_setting 'orthorhombic'
loop_
_space_group_symop_operation_xyz
x,y,z
-x,-y,z
x,-y,-z
-x,y,-z
x,1/2+y,1/2+z
-x,1/2-y,1/2+z
x,1/2-y,1/2-z
-x,1/2+y,1/2-z
1/2+x,y,1/2+z
1/2-x,-y,1/2+z
1/2+x,-y,1/2-z
1/2-x,y,1/2-z
1/2+x,1/2+y,z
1/2-x,1/2-y,z
1/2+x,1/2-y,-z
1/2-x,1/2+y,-z
loop_
_atom_site_type_symbol
_atom_site_label
_atom_site_fract_x
_atom_site_fract_y
_atom_site_fract_z
Si Si1 0.015249 0.739988 0.141750
Si Si2 0.795426 0.505165 0.440424
Si Si3 0.406566 0.250000 0.250000
Si Si4 0.829379 0.625391 0.679313
O O1 0.099123 0.717120 0.163922
O O2 0.000000 0.500000 0.107019
O O3 0.961718 0.736101 0.196652
O O4 0.000000 0.000000 0.115298
O O5 0.839610 0.500000 0.500000
O O6 0.750000 0.250000 0.437234
O O7 0.827747 0.531412 0.378086
O O8 0.750000 0.750000 0.446694
O O9 0.352681 0.467319 0.232614
O O10 0.750000 0.750000 0.685119
#
# Coordination Sequence:
#
# PCOD9327567 Si02
#       4
#    16  16   8  16
#     4  10  21  40  60  81 120 171 204 241 315 383
#     4   9  19  38  63  95 132 163 203 271 341 381
#     4  10  22  42  58  82 132 176 200 250 327 386
#     4  10  22  41  67  97 125 168 229 273 312 384
#
# _framework density 23.400321999999999
#
# number of rings (size 3 to 8) (size 9 to 14) (size 15 to 20)
#    0.000    2.286    0.000    2.571    0.000    9.143 
#    0.000   27.143    0.000    7.714    0.000   14.000 
#    0.000    0.000    0.000    0.000    0.000    0.000 
#
# Total GULP energy -77962.506829 kJ/mol
# GULP energy per Si atom -5568.750488 kJ/mol
# Density = 2.334706 g / cm^3
# Si number density = 23.400322 Si / 1000 Ang^3
#
#
#
# Elastic Constant Matrix: (Units=GPa)
#
#
# Indices 1 2 3 4 5 6 
#
# 1 154.3817 37.9509 -2.4782 -0.0001 0.0001 -0.0005
# 2 37.9509 148.5050 -16.3957 -0.0003 0.0005 0.0011
# 3 -2.4782 -16.3957 77.1660 0.0001 0.0000 0.0002
# 4 -0.0001 -0.0003 0.0001 26.9059 0.0000 0.0001
# 5 0.0001 0.0005 0.0000 0.0000 -9.4838 -0.0002
# 6 -0.0005 0.0011 0.0002 0.0001 -0.0002 31.0047
#
#
#
# Elastic Compliance Matrix: (Units=1/GPa)
#
#
# Indices 1 2 3 4 5 6 
#
# 1 0.006914 -0.001784 -0.000157 0.000000 0.000000 0.000000
# 2 -0.001784 0.007356 0.001506 0.000000 0.000000 0.000000
# 3 -0.000157 0.001506 0.013274 0.000000 0.000000 0.000000
# 4 0.000000 0.000000 0.000000 0.037167 0.000000 0.000000
# 5 0.000000 0.000000 0.000000 0.000000 -0.105443 -0.000001
# 6 0.000000 0.000000 0.000000 0.000000 -0.000001 0.032253
#
#
# Mechanical properties :
#
#
# Convention : Reuss Voigt Hill
#
# Bulk Modulus (GPa) = 37.49196 46.46741 41.97968
# Shear Modulus (GPa) = 3898.95040 33.75040 1966.35040
#
# Velocity S-wave (km/s) = 40.86334 3.80189 29.01953
# Velocity P-wave (km/s) = 47.35476 6.25885 33.77607
#
# Compressibility (1/GPa) = 0.02667239
#
# Stress axis : x y z
#
# Youngs Moduli (GPa) = 144.64436 135.94445 75.33554
#
# Poissons Ratio (x) = 0.24254 0.01183
# Poissons Ratio (y) = 0.25806 -0.11343
# Poissons Ratio (z) = 0.02272 -0.20468
#
# Static dielectric constant tensor:
#      x y z
#    x 1.920610 0.000000 0.000000 
#    y 0.000000 2.093340 0.000000 
#    z 0.000000 0.000000 1.908280 
# 
# From -- ./inp_files/2593.got.cif
#   From: 2010.05.17/outbox.cif.g08.bks.cpg/sg22_2_cif.got.tgz:2593.got - 2010.06.03 23:40:54.
