data_PCOD9327039
_publ_section_title
;
Structure prediction by ZEFSAII (Michael W. Deem and Ramdas Pophale) SiO2 
 PCOD9327039
Probable space group: F 2 2 2
;
_chemical_formula_sum "Si O2"
_cell_formula_units_Z 88
_cell_length_a 12.937215
_cell_length_b 11.789227
_cell_length_c 28.135510
_cell_angle_alpha 90.000000
_cell_angle_beta 90.000000
_cell_angle_gamma 90.000000
_cell_volume 4291.221356
_symmetry_space_group_name_H-M "F 2 2 2"
_symmetry_group_IT_number 22
_symmetry_cell_setting 'orthorhombic'
loop_
_space_group_symop_operation_xyz
x,y,z
-x,-y,z
x,-y,-z
-x,y,-z
x,1/2+y,1/2+z
-x,1/2-y,1/2+z
x,1/2-y,1/2-z
-x,1/2+y,1/2-z
1/2+x,y,1/2+z
1/2-x,-y,1/2+z
1/2+x,-y,1/2-z
1/2-x,y,1/2-z
1/2+x,1/2+y,z
1/2-x,1/2-y,z
1/2+x,1/2-y,-z
1/2-x,1/2+y,-z
loop_
_atom_site_type_symbol
_atom_site_label
_atom_site_fract_x
_atom_site_fract_y
_atom_site_fract_z
Si Si1 0.116100 0.028626 0.635093
Si Si2 0.862410 0.296392 0.053161
Si Si3 0.226636 0.872153 0.912106
Si Si4 0.996897 0.636471 0.613753
Si Si5 0.372857 0.228073 0.804344
Si Si6 0.693142 0.000000 0.000000
O O1 0.152169 0.129867 0.600889
O O2 0.111107 0.094283 0.684631
O O3 0.191579 0.923920 0.625633
O O4 0.000000 0.000000 0.620114
O O5 0.750000 0.250000 0.041611
O O6 0.943554 0.199050 0.068005
O O7 0.879283 0.393664 0.013985
O O8 0.250000 0.750000 0.933410
O O9 0.118917 0.844730 0.886981
O O10 0.235164 0.960558 0.955915
O O11 0.937823 0.691728 0.659117
O O12 0.000000 0.500000 0.611747
O O13 0.402375 0.250000 0.750000
O O14 0.250000 0.250000 0.809741
#
# Coordination Sequence:
#
# PCOD9327039 Si02
#       6
#    16  16  16  16  16   8
#     4  10  20  38  61  86 121 166 205 253 321 386
#     4  10  20  39  60  82 117 163 214 266 317 377
#     4  11  22  38  59  87 122 162 209 259 312 373
#     4  11  21  37  62  89 121 159 200 260 330 376
#     4  10  21  39  64  93 121 159 211 257 311 396
#     4  10  22  40  58  82 122 166 218 268 308 374
#
# _framework density 20.506983000000002
#
# number of rings (size 3 to 8) (size 9 to 14) (size 15 to 20)
#    0.000    1.636    0.000    8.182    0.000    0.727 
#    0.000   27.727    0.000    3.818    0.000    0.000 
#    0.000    0.000    0.000    0.000    0.000    0.000 
#
# Total GULP energy -122485.883163 kJ/mol
# GULP energy per Si atom -5567.540144 kJ/mol
# Density = 2.046031 g / cm^3
# Si number density = 20.506983 Si / 1000 Ang^3
#
#
#
# Elastic Constant Matrix: (Units=GPa)
#
#
# Indices 1 2 3 4 5 6 
#
# 1 130.6213 60.4398 42.8719 0.0000 0.0000 0.0000
# 2 60.4398 147.9880 50.5269 0.0000 0.0000 0.0000
# 3 42.8719 50.5269 88.6666 0.0000 0.0000 0.0000
# 4 0.0000 0.0000 0.0000 36.4470 0.0000 0.0000
# 5 0.0000 0.0000 0.0000 0.0000 13.6121 0.0000
# 6 0.0000 0.0000 0.0000 0.0000 0.0000 34.3520
#
#
#
# Elastic Compliance Matrix: (Units=1/GPa)
#
#
# Indices 1 2 3 4 5 6 
#
# 1 0.010100 -0.003051 -0.003145 0.000000 0.000000 0.000000
# 2 -0.003051 0.009311 -0.003831 0.000000 0.000000 0.000000
# 3 -0.003145 -0.003831 0.014982 0.000000 0.000000 0.000000
# 4 0.000000 0.000000 0.000000 0.027437 0.000000 0.000000
# 5 0.000000 0.000000 0.000000 0.000000 0.073464 0.000000
# 6 0.000000 0.000000 0.000000 0.000000 0.000000 0.029110
#
#
# Mechanical properties :
#
#
# Convention : Reuss Voigt Hill
#
# Bulk Modulus (GPa) = 69.73756 74.99477 72.36616
# Shear Modulus (GPa) = 26.42190 31.11140 28.76665
#
# Velocity S-wave (km/s) = 3.59337 3.89924 3.74942
# Velocity P-wave (km/s) = 7.16219 7.54466 7.35591
#
# Compressibility (1/GPa) = 0.01433947
#
# Stress axis : x y z
#
# Youngs Moduli (GPa) = 99.01356 107.39580 66.74806
#
# Poissons Ratio (x) = 0.32768 0.20990
# Poissons Ratio (y) = 0.30210 0.25570
# Poissons Ratio (z) = 0.31136 0.41141
#
# Static dielectric constant tensor:
#      x y z
#    x 1.600260 0.000000 0.000000 
#    y 0.000000 1.610440 0.000000 
#    z 0.000000 0.000000 1.795020 
# 
# From -- ./inp_files/18377.got.cif
#   From: 2010.05.17/outbox.cif.g08.bks.cpg/sg22_10_cif.got.tgz:18377.got - 2010.06.03 23:40:54.
