data_PCOD9327032
_publ_section_title
;
Structure prediction by ZEFSAII (Michael W. Deem and Ramdas Pophale) SiO2 
 PCOD9327032
Probable space group: F 2 2 2
;
_chemical_formula_sum "Si O2"
_cell_formula_units_Z 104
_cell_length_a 21.156550
_cell_length_b 26.300748
_cell_length_c 8.958886
_cell_angle_alpha 90.000000
_cell_angle_beta 90.000000
_cell_angle_gamma 90.000000
_cell_volume 4985.020621
_symmetry_space_group_name_H-M "F 2 2 2"
_symmetry_group_IT_number 22
_symmetry_cell_setting 'orthorhombic'
loop_
_space_group_symop_operation_xyz
x,y,z
-x,-y,z
x,-y,-z
-x,y,-z
x,1/2+y,1/2+z
-x,1/2-y,1/2+z
x,1/2-y,1/2-z
-x,1/2+y,1/2-z
1/2+x,y,1/2+z
1/2-x,-y,1/2+z
1/2+x,-y,1/2-z
1/2-x,y,1/2-z
1/2+x,1/2+y,z
1/2-x,1/2-y,z
1/2+x,1/2-y,-z
1/2-x,1/2+y,-z
loop_
_atom_site_type_symbol
_atom_site_label
_atom_site_fract_x
_atom_site_fract_y
_atom_site_fract_z
Si Si1 0.429739 0.244074 0.927822
Si Si2 0.249629 0.942486 0.033095
Si Si3 0.610316 0.551071 0.904708
Si Si4 0.429513 0.845739 0.560536
Si Si5 0.750000 0.623832 0.250000
Si Si6 0.109352 0.556541 0.070979
Si Si7 0.885341 0.151951 0.615673
O O1 0.433897 0.250000 0.750000
O O2 0.500000 0.239782 0.000000
O O3 0.397727 0.295993 0.988320
O O4 0.392759 0.195373 0.991375
O O5 0.229737 0.912504 0.885301
O O6 0.185832 0.948206 0.124752
O O7 0.317456 0.922596 0.083614
O O8 0.266710 0.000000 0.000000
O O9 0.581317 0.554526 0.738375
O O10 0.595503 0.500000 0.000000
O O11 0.595944 0.600444 0.003177
O O12 0.500000 0.844845 0.500000
O O13 0.426640 0.838392 0.736981
O O14 0.813342 0.650206 0.184253
O O15 0.103434 0.500000 0.000000
O O16 0.087611 0.599417 0.954549
#
# Coordination Sequence:
#
# PCOD9327032 Si02
#       7
#    16  16  16  16   8  16  16
#     4  11  23  43  70  97 121 161 220 272 320 377
#     4   9  19  29  56  83 124 162 213 245 300 362
#     4  11  21  35  58  87 125 167 208 258 316 371
#     4  11  23  41  64  90 119 161 212 260 311 376
#     4  10  20  38  59  98 130 172 206 263 320 386
#     4  10  21  34  56  90 126 167 208 255 308 372
#     4  11  22  41  66  96 131 165 212 266 320 380
#
# _framework density 20.862501999999999
#
# number of rings (size 3 to 8) (size 9 to 14) (size 15 to 20)
#    0.000    1.538    1.538    4.615   10.769    0.308 
#    0.000    1.538    0.000    4.154    0.000    0.000 
#    0.000    0.000    0.000    0.000    0.000    0.000 
#
# Total GULP energy -144764.950171 kJ/mol
# GULP energy per Si atom -5567.882699 kJ/mol
# Density = 2.081502 g / cm^3
# Si number density = 20.862502 Si / 1000 Ang^3
#
#
#
# Elastic Constant Matrix: (Units=GPa)
#
#
# Indices 1 2 3 4 5 6 
#
# 1 31.8268 6.9798 11.9965 0.0000 0.0000 0.0000
# 2 6.9798 142.5517 60.3839 0.0000 0.0000 0.0000
# 3 11.9965 60.3839 184.1464 -0.0001 0.0000 0.0000
# 4 0.0000 0.0000 -0.0001 33.8185 0.0000 0.0000
# 5 0.0000 0.0000 0.0000 0.0000 28.6805 0.0000
# 6 0.0000 0.0000 0.0000 0.0000 0.0000 19.3711
#
#
#
# Elastic Compliance Matrix: (Units=1/GPa)
#
#
# Indices 1 2 3 4 5 6 
#
# 1 0.032290 -0.000801 -0.001841 0.000000 0.000000 0.000000
# 2 -0.000801 0.008166 -0.002626 0.000000 0.000000 0.000000
# 3 -0.001841 -0.002626 0.006411 0.000000 0.000000 0.000000
# 4 0.000000 0.000000 0.000000 0.029570 0.000000 0.000000
# 5 0.000000 0.000000 0.000000 0.000000 0.034867 0.000000
# 6 0.000000 0.000000 0.000000 0.000000 0.000000 0.051623
#
#
# Mechanical properties :
#
#
# Convention : Reuss Voigt Hill
#
# Bulk Modulus (GPa) = 27.52398 57.47169 42.49783
# Shear Modulus (GPa) = 26.94352 34.98500 30.96426
#
# Velocity S-wave (km/s) = 3.59762 4.09948 3.85672
# Velocity P-wave (km/s) = 5.52076 7.07215 6.34406
#
# Compressibility (1/GPa) = 0.03633196
#
# Stress axis : x y z
#
# Youngs Moduli (GPa) = 30.96971 122.45217 155.97266
#
# Poissons Ratio (x) = 0.09811 0.28712
# Poissons Ratio (y) = 0.02481 0.40953
# Poissons Ratio (z) = 0.05701 0.32152
#
# Static dielectric constant tensor:
#      x y z
#    x 1.883520 0.000000 0.000000 
#    y 0.000000 1.767720 0.000000 
#    z 0.000000 0.000000 1.740630 
# 
# From -- ./inp_files/12933.got.cif
#   From: 2010.05.17/outbox.cif.g08.bks.cpg/sg22_7_cif.got.tgz:12933.got - 2010.06.03 23:40:54.
