data_PCOD9327812
_publ_section_title
;
Structure prediction by ZEFSAII (Michael W. Deem and Ramdas Pophale) SiO2 
 PCOD9327812
Probable space group: F 2 2 2
;
_chemical_formula_sum "Si O2"
_cell_formula_units_Z 88
_cell_length_a 17.784334
_cell_length_b 18.510213
_cell_length_c 12.248330
_cell_angle_alpha 90.000000
_cell_angle_beta 90.000000
_cell_angle_gamma 90.000000
_cell_volume 4032.049927
_symmetry_space_group_name_H-M "F 2 2 2"
_symmetry_group_IT_number 22
_symmetry_cell_setting 'orthorhombic'
loop_
_space_group_symop_operation_xyz
x,y,z
-x,-y,z
x,-y,-z
-x,y,-z
x,1/2+y,1/2+z
-x,1/2-y,1/2+z
x,1/2-y,1/2-z
-x,1/2+y,1/2-z
1/2+x,y,1/2+z
1/2-x,-y,1/2+z
1/2+x,-y,1/2-z
1/2-x,y,1/2-z
1/2+x,1/2+y,z
1/2-x,1/2-y,z
1/2+x,1/2-y,-z
1/2-x,1/2+y,-z
loop_
_atom_site_type_symbol
_atom_site_label
_atom_site_fract_x
_atom_site_fract_y
_atom_site_fract_z
Si Si1 0.293452 0.433166 0.073467
Si Si2 0.364692 0.429549 0.312230
Si Si3 0.320302 0.293737 0.929160
Si Si4 0.500000 0.000000 0.754597
Si Si5 0.520942 0.849895 0.625229
Si Si6 0.607450 0.229451 0.859253
O O1 0.342694 0.422791 0.183195
O O2 0.210151 0.444219 0.120343
O O3 0.293484 0.364761 0.994188
O O4 0.320113 0.500000 0.000000
O O5 0.424501 0.492438 0.323095
O O6 0.403459 0.355611 0.350816
O O7 0.250000 0.250000 0.878971
O O8 0.352230 0.244688 0.027528
O O9 0.393733 0.320023 0.862166
O O10 0.491288 0.074869 0.687850
O O11 0.500000 0.867432 0.500000
O O12 0.463818 0.783328 0.647869
O O13 0.654424 0.250000 0.750000
#
# Coordination Sequence:
#
# PCOD9327812 Si02
#       6
#    16  16  16   8  16  16
#     4  11  23  41  63  95 130 164 218 266 319 387
#     4  11  23  39  66  92 125 173 211 271 325 370
#     4  11  21  36  62  92 126 164 210 263 322 381
#     4  12  21  40  61  90 126 168 216 262 334 382
#     4  10  22  36  62  95 127 162 214 272 326 379
#     4  11  19  38  62  95 119 156 214 270 309 376
#
# _framework density 21.825125
#
# number of rings (size 3 to 8) (size 9 to 14) (size 15 to 20)
#    0.000    1.091    5.455    2.455    0.000    0.364 
#    3.273    0.455    0.000    0.545    0.000    0.000 
#    0.000    0.000    0.000    0.000    0.000    0.000 
#
# Total GULP energy -122818.468856 kJ/mol
# GULP energy per Si atom -5582.657675 kJ/mol
# Density = 2.177545 g / cm^3
# Si number density = 21.825125 Si / 1000 Ang^3
#
#
#
# Elastic Constant Matrix: (Units=GPa)
#
#
# Indices 1 2 3 4 5 6 
#
# 1 154.0239 50.2196 12.7668 0.0000 0.0000 0.0000
# 2 50.2196 117.7050 30.9405 0.0000 0.0000 0.0000
# 3 12.7668 30.9405 43.3852 0.0000 0.0000 0.0000
# 4 0.0000 0.0000 0.0000 31.4672 0.0000 0.0000
# 5 0.0000 0.0000 0.0000 0.0000 0.5917 0.0000
# 6 0.0000 0.0000 0.0000 0.0000 0.0000 28.6187
#
#
#
# Elastic Compliance Matrix: (Units=1/GPa)
#
#
# Indices 1 2 3 4 5 6 
#
# 1 0.007542 -0.003242 0.000093 0.000000 0.000000 0.000000
# 2 -0.003242 0.011850 -0.007497 0.000000 0.000000 0.000000
# 3 0.000093 -0.007497 0.028368 0.000000 0.000000 0.000000
# 4 0.000000 0.000000 0.000000 0.031779 0.000000 0.000000
# 5 0.000000 0.000000 0.000000 0.000000 1.690054 0.000000
# 6 0.000000 0.000000 0.000000 0.000000 0.000000 0.034942
#
#
# Mechanical properties :
#
#
# Convention : Reuss Voigt Hill
#
# Bulk Modulus (GPa) = 37.78151 55.88533 46.83342
# Shear Modulus (GPa) = 2.72531 26.88133 14.80332
#
# Velocity S-wave (km/s) = 1.11867 3.51332 2.60719
# Velocity P-wave (km/s) = 4.36087 6.48995 5.52886
#
# Compressibility (1/GPa) = 0.02646797
#
# Stress axis : x y z
#
# Youngs Moduli (GPa) = 132.59198 84.38992 35.25057
#
# Poissons Ratio (x) = 0.27361 -0.00327
# Poissons Ratio (y) = 0.42989 0.26426
# Poissons Ratio (z) = -0.01232 0.63264
#
# Static dielectric constant tensor:
#      x y z
#    x 1.862850 0.000000 0.000000 
#    y 0.000000 1.857690 0.000000 
#    z 0.000000 0.000000 1.852630 
# 
# From -- ./inp_files/30633.got.cif
#   From: 2010.05.17/outbox.cif.g08.bks.cpg/sg22_16_cif.got.tgz:30633.got - 2010.06.03 23:40:54.
