data_PCOD9327500
_publ_section_title
;
Structure prediction by ZEFSAII (Michael W. Deem and Ramdas Pophale) SiO2 
 PCOD9327500
Probable space group: F 2 2 2
;
_chemical_formula_sum "Si O2"
_cell_formula_units_Z 116
_cell_length_a 7.352665
_cell_length_b 31.695734
_cell_length_c 24.931614
_cell_angle_alpha 90.000000
_cell_angle_beta 90.000000
_cell_angle_gamma 90.000000
_cell_volume 5810.265622
_symmetry_space_group_name_H-M "F 2 2 2"
_symmetry_group_IT_number 22
_symmetry_cell_setting 'orthorhombic'
loop_
_space_group_symop_operation_xyz
x,y,z
-x,-y,z
x,-y,-z
-x,y,-z
x,1/2+y,1/2+z
-x,1/2-y,1/2+z
x,1/2-y,1/2-z
-x,1/2+y,1/2-z
1/2+x,y,1/2+z
1/2-x,-y,1/2+z
1/2+x,-y,1/2-z
1/2-x,y,1/2-z
1/2+x,1/2+y,z
1/2-x,1/2-y,z
1/2+x,1/2-y,-z
1/2-x,1/2+y,-z
loop_
_atom_site_type_symbol
_atom_site_label
_atom_site_fract_x
_atom_site_fract_y
_atom_site_fract_z
Si Si1 0.740270 0.885019 0.394534
Si Si2 0.722931 0.953872 0.313281
Si Si3 0.712349 0.547650 0.813029
Si Si4 0.207998 0.433587 0.505938
Si Si5 0.224169 0.798324 0.941934
Si Si6 0.000000 0.000000 0.500000
Si Si7 0.690106 0.620422 0.889684
Si Si8 0.210274 0.702870 0.435248
O O1 0.807308 0.915830 0.347380
O O2 0.757338 0.912865 0.448862
O O3 0.805165 0.837619 0.408593
O O4 0.526794 0.878383 0.380179
O O5 0.750000 0.948202 0.250000
O O6 0.505257 0.954482 0.321687
O O7 0.786924 0.001252 0.328109
O O8 0.750000 0.553813 0.750000
O O9 0.773557 0.587055 0.848605
O O10 0.353537 0.468003 0.525704
O O11 0.206786 0.397563 0.550310
O O12 0.000000 0.449749 0.500000
O O13 0.250000 0.750000 0.923217
O O14 0.006098 0.803456 0.941672
O O15 0.286862 0.801020 0.004134
O O16 0.769580 0.667114 0.893657
O O17 0.250000 0.750000 0.416752
#
# Coordination Sequence:
#
# PCOD9327500 Si02
#       8
#    16  16  16  16  16   4  16  16
#     4   9  17  33  56  73  99 140 179 209 258 326
#     4   9  18  33  51  74  96 129 175 216 259 311
#     4   9  18  33  51  74  96 129 175 216 259 311
#     4  10  21  39  54  73 111 149 177 221 267 319
#     4   9  16  29  48  74 101 131 168 207 258 318
#     4  12  26  36  44  86 112 144 190 208 268 336
#     4   9  17  33  56  73  99 140 179 209 258 326
#     4   9  16  29  48  74 101 131 168 207 258 318
#
# _framework density 19.964663999999999
#
# number of rings (size 3 to 8) (size 9 to 14) (size 15 to 20)
#    0.000    2.759    1.379    0.207    1.931    0.000 
#    4.966    0.000    0.000    0.828    0.000    5.793 
#    0.000    0.000    0.000    0.000    0.000    0.000 
#
# Total GULP energy -161563.945201 kJ/mol
# GULP energy per Si atom -5571.170524 kJ/mol
# Density = 1.991922 g / cm^3
# Si number density = 19.964664 Si / 1000 Ang^3
#
#
#
# Elastic Constant Matrix: (Units=GPa)
#
#
# Indices 1 2 3 4 5 6 
#
# 1 81.1330 17.5239 -0.3734 0.0000 0.0000 0.0000
# 2 17.5239 211.6807 81.9940 0.0000 0.0000 0.0000
# 3 -0.3734 81.9940 72.7534 0.0000 0.0000 0.0000
# 4 0.0000 0.0000 0.0000 17.1747 0.0000 0.0000
# 5 0.0000 0.0000 0.0000 0.0000 9.4212 0.0000
# 6 0.0000 0.0000 0.0000 0.0000 0.0000 6.1965
#
#
#
# Elastic Compliance Matrix: (Units=1/GPa)
#
#
# Indices 1 2 3 4 5 6 
#
# 1 0.012750 -0.001918 0.002227 0.000000 0.000000 0.000000
# 2 -0.001918 0.008673 -0.009784 0.000000 0.000000 0.000000
# 3 0.002227 -0.009784 0.024783 0.000000 0.000000 0.000000
# 4 0.000000 0.000000 0.000000 0.058225 0.000000 0.000000
# 5 0.000000 0.000000 0.000000 0.000000 0.106143 0.000000
# 6 0.000000 0.000000 0.000000 0.000000 0.000000 0.161382
#
#
# Mechanical properties :
#
#
# Convention : Reuss Voigt Hill
#
# Bulk Modulus (GPa) = 36.68919 62.65070 49.66994
# Shear Modulus (GPa) = 12.50023 24.31998 18.41010
#
# Velocity S-wave (km/s) = 2.50495 3.49399 3.03996
# Velocity P-wave (km/s) = 5.17526 6.90841 6.10367
#
# Compressibility (1/GPa) = 0.02725599
#
# Stress axis : x y z
#
# Youngs Moduli (GPa) = 78.43127 115.30329 40.34960
#
# Poissons Ratio (x) = 0.22118 -0.08987
# Poissons Ratio (y) = 0.15045 0.39479
# Poissons Ratio (z) = -0.17469 1.12815
#
# Static dielectric constant tensor:
#      x y z
#    x 1.669970 0.000000 0.000000 
#    y 0.000000 1.758730 0.000000 
#    z 0.000000 0.000000 1.669350 
# 
# From -- ./inp_files/47607.got.cif
#   From: 2010.05.17/outbox.cif.g08.bks.cpg/sg22_24_cif.got.tgz:47607.got - 2010.06.03 23:40:54.
