data_PCOD9327185
_publ_section_title
;
Structure prediction by ZEFSAII (Michael W. Deem and Ramdas Pophale) SiO2 
 PCOD9327185
Probable space group: F 2 2 2
;
_chemical_formula_sum "Si O2"
_cell_formula_units_Z 60
_cell_length_a 18.523483
_cell_length_b 17.022640
_cell_length_c 8.206298
_cell_angle_alpha 90.000000
_cell_angle_beta 90.000000
_cell_angle_gamma 90.000000
_cell_volume 2587.598254
_symmetry_space_group_name_H-M "F 2 2 2"
_symmetry_group_IT_number 22
_symmetry_cell_setting 'orthorhombic'
loop_
_space_group_symop_operation_xyz
x,y,z
-x,-y,z
x,-y,-z
-x,y,-z
x,1/2+y,1/2+z
-x,1/2-y,1/2+z
x,1/2-y,1/2-z
-x,1/2+y,1/2-z
1/2+x,y,1/2+z
1/2-x,-y,1/2+z
1/2+x,-y,1/2-z
1/2-x,y,1/2-z
1/2+x,1/2+y,z
1/2-x,1/2-y,z
1/2+x,1/2-y,-z
1/2-x,1/2+y,-z
loop_
_atom_site_type_symbol
_atom_site_label
_atom_site_fract_x
_atom_site_fract_y
_atom_site_fract_z
Si Si1 0.324704 0.902545 0.195977
Si Si2 0.250000 0.055131 0.250000
Si Si3 0.923915 0.217778 0.437255
Si Si4 0.000000 0.500000 0.500000
Si Si5 0.117739 0.617090 0.551548
O O1 0.250000 0.860523 0.250000
O O2 0.365214 0.851135 0.063854
O O3 0.370560 0.905238 0.361693
O O4 0.300944 0.991009 0.160757
O O5 0.193895 0.102325 0.139854
O O6 0.927969 0.250000 0.250000
O O7 0.903803 0.292103 0.549254
O O8 0.000000 0.187184 0.500000
O O9 0.947983 0.440363 0.601147
#
# Coordination Sequence:
#
# PCOD9327185 Si02
#       5
#    16   8  16   4  16
#     4   9  20  40  66  91 129 181 217 264 335 399
#     4  10  20  40  65 103 124 176 228 272 318 395
#     4  10  22  41  65 100 136 177 218 270 340 398
#     4  12  16  36  64  92 130 182 224 254 358 396
#     4  11  21  37  68  96 133 175 225 269 335 400
#
# _framework density 23.187525000000001
#
# number of rings (size 3 to 8) (size 9 to 14) (size 15 to 20)
#    0.800    1.067    4.000    0.000    0.000    4.800 
#    4.800    0.000    5.867    0.000    0.000    0.000 
#    0.000    0.000    0.000    0.000    0.000    0.000 
#
# Total GULP energy -83687.606000 kJ/mol
# GULP energy per Si atom -5579.173733 kJ/mol
# Density = 2.313475 g / cm^3
# Si number density = 23.187525 Si / 1000 Ang^3
#
#
#
# Elastic Constant Matrix: (Units=GPa)
#
#
# Indices 1 2 3 4 5 6 
#
# 1 150.8489 74.4310 17.0903 0.0001 0.0000 -0.0011
# 2 74.4310 100.0900 34.2614 0.0001 0.0000 -0.0020
# 3 17.0903 34.2614 40.9102 0.0002 -0.0001 -0.0049
# 4 0.0001 0.0001 0.0002 1.8502 -0.0001 -0.0035
# 5 0.0000 0.0000 -0.0001 -0.0001 37.6174 0.0010
# 6 -0.0011 -0.0020 -0.0049 -0.0035 0.0010-1227.8462
#
#
#
# Elastic Compliance Matrix: (Units=1/GPa)
#
#
# Indices 1 2 3 4 5 6 
#
# 1 0.010743 -0.009046 0.003088 0.000000 0.000000 0.000000
# 2 -0.009046 0.021623 -0.014330 0.000001 0.000000 0.000000
# 3 0.003088 -0.014330 0.035155 -0.000003 0.000000 0.000000
# 4 0.000000 0.000001 -0.000003 0.540474 0.000001 -0.000002
# 5 0.000000 0.000000 0.000000 0.000001 0.026583 0.000000
# 6 0.000000 0.000000 0.000000 -0.000002 0.000000 -0.000814
#
#
# Mechanical properties :
#
#
# Convention : Reuss Voigt Hill
#
# Bulk Modulus (GPa) = 37.11285 60.37940 48.74613
# Shear Modulus (GPa) = 7.31721 -226.60460 -109.64369
#
# Velocity S-wave (km/s) = 1.77835 -9.89642 -6.88392
# Velocity P-wave (km/s) = 4.50077 10.22200 6.48970
#
# Compressibility (1/GPa) = 0.02694484
#
# Stress axis : x y z
#
# Youngs Moduli (GPa) = 93.08803 46.24747 28.44562
#
# Poissons Ratio (x) = 0.41833 -0.08783
# Poissons Ratio (y) = 0.84203 0.40762
# Poissons Ratio (z) = -0.28743 0.66272
#
# Static dielectric constant tensor:
#      x y z
#    x 1.914860 0.000000 0.000000 
#    y 0.000000 1.870780 0.000000 
#    z 0.000000 0.000000 2.032950 
# 
# From -- ./inp_files/10972.got.cif
#   From: 2010.05.17/outbox.cif.g08.bks.cpg/sg22_6_cif.got.tgz:10972.got - 2010.06.03 23:40:54.
