data_PCOD9327641
_publ_section_title
;
Structure prediction by ZEFSAII (Michael W. Deem and Ramdas Pophale) SiO2 
 PCOD9327641
Probable space group: F 2 2 2
;
_chemical_formula_sum "Si O2"
_cell_formula_units_Z 128
_cell_length_a 23.577972
_cell_length_b 11.446850
_cell_length_c 22.665538
_cell_angle_alpha 90.000000
_cell_angle_beta 90.000000
_cell_angle_gamma 90.000000
_cell_volume 6117.281579
_symmetry_space_group_name_H-M "F 2 2 2"
_symmetry_group_IT_number 22
_symmetry_cell_setting 'orthorhombic'
loop_
_space_group_symop_operation_xyz
x,y,z
-x,-y,z
x,-y,-z
-x,y,-z
x,1/2+y,1/2+z
-x,1/2-y,1/2+z
x,1/2-y,1/2-z
-x,1/2+y,1/2-z
1/2+x,y,1/2+z
1/2-x,-y,1/2+z
1/2+x,-y,1/2-z
1/2-x,y,1/2-z
1/2+x,1/2+y,z
1/2-x,1/2-y,z
1/2+x,1/2-y,-z
1/2-x,1/2+y,-z
loop_
_atom_site_type_symbol
_atom_site_label
_atom_site_fract_x
_atom_site_fract_y
_atom_site_fract_z
Si Si1 0.587711 0.892679 0.341773
Si Si2 0.284479 0.464411 0.596830
Si Si3 0.577594 0.024986 0.219318
Si Si4 0.816535 0.279822 0.879262
Si Si5 0.521480 0.305256 0.687262
Si Si6 0.346590 0.543637 0.065345
Si Si7 0.699836 0.372442 0.283807
Si Si8 0.317419 0.723702 0.483568
O O1 0.641391 0.799219 0.339161
O O2 0.535436 0.803287 0.355269
O O3 0.569829 0.971143 0.285131
O O4 0.610665 0.984890 0.389301
O O5 0.314184 0.579464 0.622454
O O6 0.219217 0.491231 0.579440
O O7 0.282614 0.368453 0.648482
O O8 0.318943 0.405015 0.543765
O O9 0.539270 0.135774 0.200256
O O10 0.641373 0.063059 0.219257
O O11 0.560385 0.918506 0.176530
O O12 0.750000 0.250000 0.869744
O O13 0.833936 0.258462 0.948200
O O14 0.539431 0.250000 0.750000
O O15 0.347287 0.683617 0.059269
O O16 0.358937 0.500000 0.000000
O O17 0.693490 0.250000 0.250000
O O18 0.750000 0.438965 0.250000
O O19 0.250000 0.750000 0.483014
#
# Coordination Sequence:
#
# PCOD9327641 Si02
#       8
#    16  16  16  16  16  16  16  16
#     4  11  21  34  64  94 128 167 224 282 347 398
#     4  11  21  34  54  80 128 192 238 260 324 403
#     4  10  21  41  62  84 123 163 221 282 337 398
#     4  11  19  34  55  91 131 178 224 270 333 408
#     4   9  20  40  64  89 110 158 224 277 324 403
#     4  11  19  35  57  92 136 182 215 271 338 406
#     4  11  25  36  51  84 127 172 221 274 325 401
#     4   9  19  31  54  81 126 186 235 259 309 416
#
# _framework density 20.924327000000002
#
# number of rings (size 3 to 8) (size 9 to 14) (size 15 to 20)
#    0.000    1.625    2.500    3.750    7.000    0.000 
#    0.000    0.000    0.000    0.000    0.000   14.875 
#    0.000   12.000    0.000    0.000    0.000    0.000 
#
# Total GULP energy -178230.768273 kJ/mol
# GULP energy per Si atom -5569.711509 kJ/mol
# Density = 2.087670 g / cm^3
# Si number density = 20.924327 Si / 1000 Ang^3
#
#
#
# Elastic Constant Matrix: (Units=GPa)
#
#
# Indices 1 2 3 4 5 6 
#
# 1 103.7021 40.1909 17.7334 0.0000 0.0000 0.0000
# 2 40.1909 115.0973 29.2617 0.0000 0.0000 0.0000
# 3 17.7334 29.2617 54.0330 0.0000 0.0000 0.0000
# 4 0.0000 0.0000 0.0000 -38.2121 0.0000 0.0000
# 5 0.0000 0.0000 0.0000 0.0000 14.7228 0.0000
# 6 0.0000 0.0000 0.0000 0.0000 0.0000 20.6785
#
#
#
# Elastic Compliance Matrix: (Units=1/GPa)
#
#
# Indices 1 2 3 4 5 6 
#
# 1 0.011305 -0.003484 -0.001823 0.000000 0.000000 0.000000
# 2 -0.003484 0.011149 -0.004894 0.000000 0.000000 0.000000
# 3 -0.001823 -0.004894 0.021756 0.000000 0.000000 0.000000
# 4 0.000000 0.000000 0.000000 -0.026170 0.000000 0.000000
# 5 0.000000 0.000000 0.000000 0.000000 0.067922 0.000000
# 6 0.000000 0.000000 0.000000 0.000000 0.000000 0.048359
#
#
# Mechanical properties :
#
#
# Convention : Reuss Voigt Hill
#
# Bulk Modulus (GPa) = 42.00510 49.68939 45.84724
# Shear Modulus (GPa) = 30.73868 11.81428 21.27648
#
# Velocity S-wave (km/s) = 3.83696 2.37875 3.19224
# Velocity P-wave (km/s) = 6.30461 5.59851 5.96202
#
# Compressibility (1/GPa) = 0.02380664
#
# Stress axis : x y z
#
# Youngs Moduli (GPa) = 88.45557 89.69221 45.96376
#
# Poissons Ratio (x) = 0.31249 0.08381
# Poissons Ratio (y) = 0.30818 0.22497
# Poissons Ratio (z) = 0.16130 0.43899
#
# Static dielectric constant tensor:
#      x y z
#    x 1.812020 0.000000 0.000000 
#    y 0.000000 1.849640 0.000000 
#    z 0.000000 0.000000 1.811040 
# 
# From -- ./inp_files/50531.got.cif
#   From: 2010.05.17/outbox.cif.g08.bks.cpg/sg22_26_cif.got.tgz:50531.got - 2010.06.03 23:40:54.
