data_PCOD9327781
_publ_section_title
;
Structure prediction by ZEFSAII (Michael W. Deem and Ramdas Pophale) SiO2 
 PCOD9327781
Probable space group: F 2 2 2
;
_chemical_formula_sum "Si O2"
_cell_formula_units_Z 116
_cell_length_a 25.206979
_cell_length_b 8.696749
_cell_length_c 23.865151
_cell_angle_alpha 90.000000
_cell_angle_beta 90.000000
_cell_angle_gamma 90.000000
_cell_volume 5231.689034
_symmetry_space_group_name_H-M "F 2 2 2"
_symmetry_group_IT_number 22
_symmetry_cell_setting 'orthorhombic'
loop_
_space_group_symop_operation_xyz
x,y,z
-x,-y,z
x,-y,-z
-x,y,-z
x,1/2+y,1/2+z
-x,1/2-y,1/2+z
x,1/2-y,1/2-z
-x,1/2+y,1/2-z
1/2+x,y,1/2+z
1/2-x,-y,1/2+z
1/2+x,-y,1/2-z
1/2-x,y,1/2-z
1/2+x,1/2+y,z
1/2-x,1/2-y,z
1/2+x,1/2-y,-z
1/2-x,1/2+y,-z
loop_
_atom_site_type_symbol
_atom_site_label
_atom_site_fract_x
_atom_site_fract_y
_atom_site_fract_z
Si Si1 0.344218 0.084748 0.230194
Si Si2 0.061343 0.583138 0.609580
Si Si3 0.458980 0.647414 0.692721
Si Si4 0.596941 0.852465 0.695003
Si Si5 0.500000 0.000000 0.500000
Si Si6 0.304711 0.844000 0.153545
Si Si7 0.710402 0.941676 0.060834
Si Si8 0.173677 0.100032 0.057656
O O1 0.325291 0.250000 0.250000
O O2 0.396984 0.097606 0.191447
O O3 0.370945 0.996605 0.281156
O O4 0.301761 0.977890 0.200201
O O5 0.039996 0.733044 0.641516
O O6 0.056277 0.431652 0.650885
O O7 0.123811 0.577326 0.596834
O O8 0.036686 0.582656 0.546699
O O9 0.500000 0.500000 0.691692
O O10 0.464432 0.750000 0.750000
O O11 0.578182 0.750000 0.750000
O O12 0.643029 0.752057 0.667648
O O13 0.250000 0.750000 0.151378
O O14 0.317886 0.929507 0.096031
O O15 0.769605 0.933340 0.086945
O O16 0.680125 0.783441 0.050998
O O17 0.722441 0.000000 0.000000
O O18 0.167482 0.000000 0.000000
#
# Coordination Sequence:
#
# PCOD9327781 Si02
#       8
#    16  16  16  16   4  16  16  16
#     4  10  21  45  69 104 142 185 248 295 370 436
#     4  12  24  49  72 102 156 187 242 302 375 461
#     4  11  25  46  79 114 141 184 247 316 377 443
#     4  10  23  41  74 102 143 194 243 300 367 439
#     4  12  32  44  66 116 140 200 234 290 388 442
#     4  11  24  40  65 106 151 197 245 298 368 433
#     4  10  23  38  66 105 136 187 261 303 348 436
#     4  10  22  43  71  94 139 196 245 303 370 429
#
# _framework density 22.172571000000001
#
# number of rings (size 3 to 8) (size 9 to 14) (size 15 to 20)
#    0.000    1.379    3.448    1.655    6.759    6.345 
#    0.000    2.414    0.000    0.000    0.000    0.000 
#    0.000    0.000    0.000    0.000    0.000    0.000 
#
# Total GULP energy -161595.711794 kJ/mol
# GULP energy per Si atom -5572.265924 kJ/mol
# Density = 2.212211 g / cm^3
# Si number density = 22.172571 Si / 1000 Ang^3
#
#
#
# Elastic Constant Matrix: (Units=GPa)
#
#
# Indices 1 2 3 4 5 6 
#
# 1 62.3411 55.2674 40.4339 0.0000 0.0000 0.0000
# 2 55.2674 154.6974 66.2655 0.0000 0.0000 0.0000
# 3 40.4339 66.2655 134.4615 0.0000 0.0000 0.0000
# 4 0.0000 0.0000 0.0000 49.3538 0.0000 0.0000
# 5 0.0000 0.0000 0.0000 0.0000 -14.5600 0.0000
# 6 0.0000 0.0000 0.0000 0.0000 0.0000 28.8049
#
#
#
# Elastic Compliance Matrix: (Units=1/GPa)
#
#
# Indices 1 2 3 4 5 6 
#
# 1 0.025032 -0.007249 -0.003955 0.000000 0.000000 0.000000
# 2 -0.007249 0.010293 -0.002893 0.000000 0.000000 0.000000
# 3 -0.003955 -0.002893 0.010052 0.000000 0.000000 0.000000
# 4 0.000000 0.000000 0.000000 0.020262 0.000000 0.000000
# 5 0.000000 0.000000 0.000000 0.000000 -0.068681 0.000000
# 6 0.000000 0.000000 0.000000 0.000000 0.000000 0.034716
#
#
# Mechanical properties :
#
#
# Convention : Reuss Voigt Hill
#
# Bulk Modulus (GPa) = 58.19395 75.04816 66.62106
# Shear Modulus (GPa) = 76.22390 25.35528 50.78959
#
# Velocity S-wave (km/s) = 5.86960 3.38530 4.79127
# Velocity P-wave (km/s) = 8.49936 7.01435 7.79231
#
# Compressibility (1/GPa) = 0.01718392
#
# Stress axis : x y z
#
# Youngs Moduli (GPa) = 39.94825 97.15185 99.48208
#
# Poissons Ratio (x) = 0.70425 0.39346
# Poissons Ratio (y) = 0.28958 0.28779
# Poissons Ratio (z) = 0.15800 0.28105
#
# Static dielectric constant tensor:
#      x y z
#    x 1.954670 0.000000 0.000000 
#    y 0.000000 2.045190 0.000000 
#    z 0.000000 0.000000 1.874040 
# 
# From -- ./inp_files/50505.got.cif
#   From: 2010.05.17/outbox.cif.g08.bks.cpg/sg22_26_cif.got.tgz:50505.got - 2010.06.03 23:40:54.
