data_PCOD9327512
_publ_section_title
;
Structure prediction by ZEFSAII (Michael W. Deem and Ramdas Pophale) SiO2 
 PCOD9327512
Probable space group: F 2 2 2
;
_chemical_formula_sum "Si O2"
_cell_formula_units_Z 56
_cell_length_a 13.671859
_cell_length_b 5.063379
_cell_length_c 34.338445
_cell_angle_alpha 90.000000
_cell_angle_beta 90.000000
_cell_angle_gamma 90.000000
_cell_volume 2377.106455
_symmetry_space_group_name_H-M "F 2 2 2"
_symmetry_group_IT_number 22
_symmetry_cell_setting 'orthorhombic'
loop_
_space_group_symop_operation_xyz
x,y,z
-x,-y,z
x,-y,-z
-x,y,-z
x,1/2+y,1/2+z
-x,1/2-y,1/2+z
x,1/2-y,1/2-z
-x,1/2+y,1/2-z
1/2+x,y,1/2+z
1/2-x,-y,1/2+z
1/2+x,-y,1/2-z
1/2-x,y,1/2-z
1/2+x,1/2+y,z
1/2-x,1/2-y,z
1/2+x,1/2-y,-z
1/2-x,1/2+y,-z
loop_
_atom_site_type_symbol
_atom_site_label
_atom_site_fract_x
_atom_site_fract_y
_atom_site_fract_z
Si Si1 0.381905 0.526051 0.636817
Si Si2 0.881231 0.998075 0.724352
Si Si3 0.383379 0.477976 0.912009
Si Si4 0.250000 0.250000 0.024219
O O1 0.500000 0.500000 0.638781
O O2 0.343145 0.482780 0.680249
O O3 0.359845 0.820672 0.623013
O O4 0.355673 0.312826 0.603446
O O5 0.854796 0.750000 0.750000
O O6 0.855119 0.250000 0.750000
O O7 0.000000 0.000000 0.721042
O O8 0.500000 0.500000 0.918739
O O9 0.328507 0.597643 0.949016
O O10 0.206645 0.500000 0.000000
#
# Coordination Sequence:
#
# PCOD9327512 Si02
#       4
#    16  16  16   8
#     4   9  17  31  53  81 117 160 205 249 298 363
#     4   9  15  23  40  73 115 154 195 248 300 342
#     4  10  21  39  61  87 119 159 204 250 307 374
#     4  12  26  44  66  94 125 156 203 262 322 394
#
# _framework density 23.558053000000001
#
# number of rings (size 3 to 8) (size 9 to 14) (size 15 to 20)
#    0.000    2.286    0.000    3.429    0.000    7.429 
#    0.000    1.429    0.000    0.000    0.000   15.000 
#    0.000    0.000    0.000    0.000    0.000    0.000 
#
# Total GULP energy -78308.664018 kJ/mol
# GULP energy per Si atom -5593.476001 kJ/mol
# Density = 2.350443 g / cm^3
# Si number density = 23.558053 Si / 1000 Ang^3
#
#
#
# Elastic Constant Matrix: (Units=GPa)
#
#
# Indices 1 2 3 4 5 6 
#
# 1 99.3324 -3.4613 24.9172 0.0000 0.0000 0.0000
# 2 -3.4613 158.3629 52.7059 0.0000 0.0000 0.0000
# 3 24.9172 52.7059 140.2910 0.0000 0.0000 0.0000
# 4 0.0000 0.0000 0.0000 57.9170 0.0000 0.0000
# 5 0.0000 0.0000 0.0000 0.0000 9.3444 0.0000
# 6 0.0000 0.0000 0.0000 0.0000 0.0000 27.2032
#
#
#
# Elastic Compliance Matrix: (Units=1/GPa)
#
#
# Indices 1 2 3 4 5 6 
#
# 1 0.010670 0.000987 -0.002266 0.000000 0.000000 0.000000
# 2 0.000987 0.007308 -0.002921 0.000000 0.000000 0.000000
# 3 -0.002266 -0.002921 0.008628 0.000000 0.000000 0.000000
# 4 0.000000 0.000000 0.000000 0.017266 0.000000 0.000000
# 5 0.000000 0.000000 0.000000 0.000000 0.107016 0.000000
# 6 0.000000 0.000000 0.000000 0.000000 0.000000 0.036760
#
#
# Mechanical properties :
#
#
# Convention : Reuss Voigt Hill
#
# Bulk Modulus (GPa) = 54.92424 60.70111 57.81267
# Shear Modulus (GPa) = 24.73815 40.48122 32.60969
#
# Velocity S-wave (km/s) = 3.24403 4.14981 3.72456
# Velocity P-wave (km/s) = 6.11528 6.98454 6.56431
#
# Compressibility (1/GPa) = 0.01820690
#
# Stress axis : x y z
#
# Youngs Moduli (GPa) = 93.72027 136.82946 115.90266
#
# Poissons Ratio (x) = -0.13511 0.26264
# Poissons Ratio (y) = -0.09254 0.33856
# Poissons Ratio (z) = 0.21238 0.39969
#
# Static dielectric constant tensor:
#      x y z
#    x 1.956290 0.000000 0.000000 
#    y 0.000000 1.802300 0.000000 
#    z 0.000000 0.000000 1.856150 
# 
# From -- ./inp_files/2611.got.cif
#   From: 2010.05.17/outbox.cif.g08.bks.cpg/sg22_2_cif.got.tgz:2611.got - 2010.06.03 23:40:54.
