data_PCOD9327852
_publ_section_title
;
Structure prediction by ZEFSAII (Michael W. Deem and Ramdas Pophale) SiO2 
 PCOD9327852
Probable space group: F 2 2 2
;
_chemical_formula_sum "Si O2"
_cell_formula_units_Z 104
_cell_length_a 27.023077
_cell_length_b 19.050224
_cell_length_c 9.557247
_cell_angle_alpha 90.000000
_cell_angle_beta 90.000000
_cell_angle_gamma 90.000000
_cell_volume 4920.029373
_symmetry_space_group_name_H-M "F 2 2 2"
_symmetry_group_IT_number 22
_symmetry_cell_setting 'orthorhombic'
loop_
_space_group_symop_operation_xyz
x,y,z
-x,-y,z
x,-y,-z
-x,y,-z
x,1/2+y,1/2+z
-x,1/2-y,1/2+z
x,1/2-y,1/2-z
-x,1/2+y,1/2-z
1/2+x,y,1/2+z
1/2-x,-y,1/2+z
1/2+x,-y,1/2-z
1/2-x,y,1/2-z
1/2+x,1/2+y,z
1/2-x,1/2-y,z
1/2+x,1/2-y,-z
1/2-x,1/2+y,-z
loop_
_atom_site_type_symbol
_atom_site_label
_atom_site_fract_x
_atom_site_fract_y
_atom_site_fract_z
Si Si1 0.202756 0.965187 0.150645
Si Si2 0.519483 0.574820 0.289975
Si Si3 0.929788 0.853745 0.640390
Si Si4 0.591271 0.738349 0.083099
Si Si5 0.845654 0.811941 0.849520
Si Si6 0.381642 0.006813 0.151922
Si Si7 0.500000 0.635841 0.000000
O O1 0.250000 0.971107 0.250000
O O2 0.185398 0.883531 0.148791
O O3 0.157388 0.005422 0.224822
O O4 0.211399 0.000000 0.000000
O O5 0.500000 0.500000 0.344473
O O6 0.488982 0.640410 0.351154
O O7 0.577789 0.567111 0.316902
O O8 0.500739 0.583765 0.131664
O O9 0.915390 0.809319 0.506315
O O10 0.899147 0.824168 0.772503
O O11 0.911295 0.933481 0.643827
O O12 0.593171 0.750000 0.250000
O O13 0.640842 0.707929 0.008761
O O14 0.546008 0.686501 0.040335
O O15 0.823479 0.750000 0.750000
O O16 0.355877 0.000000 0.000000
#
# Coordination Sequence:
#
# PCOD9327852 Si02
#       7
#    16  16  16  16  16  16   8
#     4  11  25  45  74 103 134 166 219 294 376 438
#     4  10  22  38  59  85 127 177 229 271 321 387
#     4   9  20  40  58  85 132 174 225 265 320 390
#     4  11  25  37  58  90 133 186 229 278 324 387
#     4   9  20  44  69  96 132 183 228 275 343 431
#     4  10  23  39  65  93 124 168 220 283 339 415
#     4  12  25  34  56  88 133 184 230 270 314 384
#
# _framework density 21.138086000000001
#
# number of rings (size 3 to 8) (size 9 to 14) (size 15 to 20)
#    0.000    1.846    1.538    0.692    6.462    3.077 
#    0.000    1.538    0.000    0.000    0.000    1.077 
#    0.000    0.000    0.000    0.000    0.000    0.000 
#
# Total GULP energy -144854.051433 kJ/mol
# GULP energy per Si atom -5571.309670 kJ/mol
# Density = 2.108997 g / cm^3
# Si number density = 21.138086 Si / 1000 Ang^3
#
#
#
# Elastic Constant Matrix: (Units=GPa)
#
#
# Indices 1 2 3 4 5 6 
#
# 1 97.4665 41.6111 54.6610 0.0000 0.0000 0.0000
# 2 41.6111 85.9463 42.0539 0.0001 0.0000 0.0000
# 3 54.6610 42.0539 203.3499 0.0001 0.0000 0.0000
# 4 0.0000 0.0001 0.0001 28.0774 0.0000 0.0000
# 5 0.0000 0.0000 0.0000 0.0000 28.4840 0.0000
# 6 0.0000 0.0000 0.0000 0.0000 0.0000 11.2149
#
#
#
# Elastic Compliance Matrix: (Units=1/GPa)
#
#
# Indices 1 2 3 4 5 6 
#
# 1 0.014108 -0.005535 -0.002648 0.000000 0.000000 0.000000
# 2 -0.005535 0.015117 -0.001638 0.000000 0.000000 0.000000
# 3 -0.002648 -0.001638 0.005968 0.000000 0.000000 0.000000
# 4 0.000000 0.000000 0.000000 0.035616 0.000000 0.000000
# 5 0.000000 0.000000 0.000000 0.000000 0.035107 0.000000
# 6 0.000000 0.000000 0.000000 0.000000 0.000000 0.089167
#
#
# Mechanical properties :
#
#
# Convention : Reuss Voigt Hill
#
# Bulk Modulus (GPa) = 64.30533 73.71275 69.00904
# Shear Modulus (GPa) = 22.73677 30.11771 26.42724
#
# Velocity S-wave (km/s) = 3.28324 3.77876 3.53968
# Velocity P-wave (km/s) = 6.69780 7.34754 7.03018
#
# Compressibility (1/GPa) = 0.01555081
#
# Stress axis : x y z
#
# Youngs Moduli (GPa) = 70.88329 66.15268 167.55659
#
# Poissons Ratio (x) = 0.36614 0.44362
# Poissons Ratio (y) = 0.39233 0.27453
# Poissons Ratio (z) = 0.18767 0.10839
#
# Static dielectric constant tensor:
#      x y z
#    x 1.776970 0.000000 0.000000 
#    y 0.000000 1.801040 0.000000 
#    z 0.000000 0.000000 1.924190 
# 
# From -- ./inp_files/14811.got.cif
#   From: 2010.05.17/outbox.cif.g08.bks.cpg/sg22_8_cif.got.tgz:14811.got - 2010.06.03 23:40:54.
