data_PCOD9327419
_publ_section_title
;
Structure prediction by ZEFSAII (Michael W. Deem and Ramdas Pophale) SiO2 
 PCOD9327419
Probable space group: F 2 2 2
;
_chemical_formula_sum "Si O2"
_cell_formula_units_Z 100
_cell_length_a 8.725701
_cell_length_b 21.863439
_cell_length_c 26.347904
_cell_angle_alpha 90.000000
_cell_angle_beta 90.000000
_cell_angle_gamma 90.000000
_cell_volume 5026.490599
_symmetry_space_group_name_H-M "F 2 2 2"
_symmetry_group_IT_number 22
_symmetry_cell_setting 'orthorhombic'
loop_
_space_group_symop_operation_xyz
x,y,z
-x,-y,z
x,-y,-z
-x,y,-z
x,1/2+y,1/2+z
-x,1/2-y,1/2+z
x,1/2-y,1/2-z
-x,1/2+y,1/2-z
1/2+x,y,1/2+z
1/2-x,-y,1/2+z
1/2+x,-y,1/2-z
1/2-x,y,1/2-z
1/2+x,1/2+y,z
1/2-x,1/2-y,z
1/2+x,1/2-y,-z
1/2-x,1/2+y,-z
loop_
_atom_site_type_symbol
_atom_site_label
_atom_site_fract_x
_atom_site_fract_y
_atom_site_fract_z
Si Si1 0.716294 0.317682 0.666590
Si Si2 0.496073 0.661727 0.757648
Si Si3 0.664716 0.081526 0.596354
Si Si4 0.250000 0.750000 0.250000
Si Si5 0.632965 0.543699 0.711592
Si Si6 0.673808 0.073814 0.006522
Si Si7 0.187163 0.564877 0.386653
O O1 0.750000 0.250000 0.645040
O O2 0.566997 0.316239 0.702489
O O3 0.855468 0.332796 0.704761
O O4 0.724380 0.373350 0.627388
O O5 0.634559 0.703570 0.777213
O O6 0.554586 0.594039 0.747283
O O7 0.707106 0.092740 0.537465
O O8 0.486349 0.090032 0.611284
O O9 0.688105 0.009588 0.608416
O O10 0.500000 0.500000 0.691544
O O11 0.750000 0.509657 0.750000
O O12 0.721776 0.575159 0.665269
O O13 0.730152 0.088415 0.062845
O O14 0.500000 0.096611 0.000000
O O15 0.668284 0.000000 0.000000
#
# Coordination Sequence:
#
# PCOD9327419 Si02
#       7
#    16  16  16   4  16  16  16
#     4  11  22  40  60  86 117 167 210 255 305 357
#     4  11  23  39  60  82 123 165 217 256 295 364
#     4  10  21  37  62  86 122 159 203 251 309 370
#     4  12  20  42  60  84 112 158 228 262 288 334
#     4  12  27  37  56  90 133 169 200 250 321 379
#     4   9  19  35  61  89 119 153 200 249 298 369
#     4  10  22  38  59  90 125 160 202 245 318 373
#
# _framework density 19.894596
#
# number of rings (size 3 to 8) (size 9 to 14) (size 15 to 20)
#    0.000    1.440    2.400    2.880   13.440    1.920 
#    0.000    0.000    0.000    1.920    2.080    0.000 
#    0.000    0.000    0.000    0.000    0.000    0.000 
#
# Total GULP energy -139466.143076 kJ/mol
# GULP energy per Si atom -5578.645723 kJ/mol
# Density = 1.984931 g / cm^3
# Si number density = 19.894596 Si / 1000 Ang^3
#
#
#
# Elastic Constant Matrix: (Units=GPa)
#
#
# Indices 1 2 3 4 5 6 
#
# 1 98.7928 16.2383 31.1249 0.0000 0.0000 0.0000
# 2 16.2383 47.2971 13.3581 0.0000 0.0000 0.0000
# 3 31.1249 13.3581 80.6952 0.0000 0.0000 0.0000
# 4 0.0000 0.0000 0.0000 12.6022 0.0000 0.0000
# 5 0.0000 0.0000 0.0000 0.0000 21.2734 0.0000
# 6 0.0000 0.0000 0.0000 0.0000 0.0000 25.5838
#
#
#
# Elastic Compliance Matrix: (Units=1/GPa)
#
#
# Indices 1 2 3 4 5 6 
#
# 1 0.011896 -0.002925 -0.004104 0.000000 0.000000 0.000000
# 2 -0.002925 0.022899 -0.002662 0.000000 0.000000 0.000000
# 3 -0.004104 -0.002662 0.014416 0.000000 0.000000 0.000000
# 4 0.000000 0.000000 0.000000 0.079351 0.000000 0.000000
# 5 0.000000 0.000000 0.000000 0.000000 0.047007 0.000000
# 6 0.000000 0.000000 0.000000 0.000000 0.000000 0.039087
#
#
# Mechanical properties :
#
#
# Convention : Reuss Voigt Hill
#
# Bulk Modulus (GPa) = 33.52574 38.69198 36.10886
# Shear Modulus (GPa) = 20.49325 22.96279 21.72802
#
# Velocity S-wave (km/s) = 3.21299 3.40107 3.30837
# Velocity P-wave (km/s) = 5.53648 5.90879 5.72566
#
# Compressibility (1/GPa) = 0.02982782
#
# Stress axis : x y z
#
# Youngs Moduli (GPa) = 84.06174 43.66972 69.36702
#
# Poissons Ratio (x) = 0.12774 0.28470
# Poissons Ratio (y) = 0.24589 0.18469
# Poissons Ratio (z) = 0.34501 0.11627
#
# Static dielectric constant tensor:
#      x y z
#    x 1.736500 0.000000 0.000000 
#    y 0.000000 1.713240 0.000000 
#    z 0.000000 0.000000 1.708330 
# 
# From -- ./inp_files/12963.got.cif
#   From: 2010.05.17/outbox.cif.g08.bks.cpg/sg22_7_cif.got.tgz:12963.got - 2010.06.03 23:40:54.
