data_PCOD9327866
_publ_section_title
;
Structure prediction by ZEFSAII (Michael W. Deem and Ramdas Pophale) SiO2 
 PCOD9327866
Probable space group: F 2 2 2
;
_chemical_formula_sum "Si O2"
_cell_formula_units_Z 80
_cell_length_a 17.530711
_cell_length_b 9.883926
_cell_length_c 22.611811
_cell_angle_alpha 90.000000
_cell_angle_beta 90.000000
_cell_angle_gamma 90.000000
_cell_volume 3917.999374
_symmetry_space_group_name_H-M "F 2 2 2"
_symmetry_group_IT_number 22
_symmetry_cell_setting 'orthorhombic'
loop_
_space_group_symop_operation_xyz
x,y,z
-x,-y,z
x,-y,-z
-x,y,-z
x,1/2+y,1/2+z
-x,1/2-y,1/2+z
x,1/2-y,1/2-z
-x,1/2+y,1/2-z
1/2+x,y,1/2+z
1/2-x,-y,1/2+z
1/2+x,-y,1/2-z
1/2-x,y,1/2-z
1/2+x,1/2+y,z
1/2-x,1/2-y,z
1/2+x,1/2-y,-z
1/2-x,1/2+y,-z
loop_
_atom_site_type_symbol
_atom_site_label
_atom_site_fract_x
_atom_site_fract_y
_atom_site_fract_z
Si Si1 0.674810 0.343267 0.004243
Si Si2 0.833919 0.062514 0.781927
Si Si3 0.340930 0.232649 0.116654
Si Si4 0.587792 0.477730 0.335118
Si Si5 0.162689 0.799792 0.134869
O O1 0.750000 0.250000 0.006246
O O2 0.630780 0.298719 0.944656
O O3 0.697261 0.500000 0.000000
O O4 0.635492 0.326189 0.067789
O O5 0.750000 0.080224 0.750000
O O6 0.860155 0.186928 0.823134
O O7 0.892288 0.029841 0.730102
O O8 0.833860 0.933796 0.825572
O O9 0.250000 0.250000 0.115157
O O10 0.363577 0.076515 0.122163
O O11 0.500000 0.500000 0.348967
O O12 0.613365 0.322863 0.339511
O O13 0.250000 0.750000 0.132987
#
# Coordination Sequence:
#
# PCOD9327866 Si02
#       5
#    16  16  16  16  16
#     4  10  22  38  64 103 131 165 223 281 325 379
#     4  12  22  39  67  99 133 177 219 271 326 399
#     4  11  22  41  68  96 135 174 220 274 327 390
#     4  12  28  43  64 103 138 172 219 274 338 394
#     4  11  22  41  68  96 135 174 220 274 327 390
#
# _framework density 20.418583000000002
#
# number of rings (size 3 to 8) (size 9 to 14) (size 15 to 20)
#    0.000    0.800    6.000    1.200    8.400    3.200 
#    0.000    2.000    0.000    1.200    0.000    0.000 
#    0.000    0.000    0.000    0.000    0.000    0.000 
#
# Total GULP energy -111680.821298 kJ/mol
# GULP energy per Si atom -5584.041065 kJ/mol
# Density = 2.037211 g / cm^3
# Si number density = 20.418583 Si / 1000 Ang^3
#
#
#
# Elastic Constant Matrix: (Units=GPa)
#
#
# Indices 1 2 3 4 5 6 
#
# 1 41.9697 -17.8427 -10.4795 0.0000 0.0000 0.0000
# 2 -17.8427 88.6081 26.7972 0.0000 0.0000 0.0000
# 3 -10.4795 26.7972 121.6728 0.0000 0.0000 0.0000
# 4 0.0000 0.0000 0.0000 21.6209 0.0000 0.0000
# 5 0.0000 0.0000 0.0000 0.0000 4.8449 0.0000
# 6 0.0000 0.0000 0.0000 0.0000 0.0000 12.5587
#
#
#
# Elastic Compliance Matrix: (Units=1/GPa)
#
#
# Indices 1 2 3 4 5 6 
#
# 1 0.026213 0.004924 0.001173 0.000000 0.000000 0.000000
# 2 0.004924 0.013016 -0.002443 0.000000 0.000000 0.000000
# 3 0.001173 -0.002443 0.008858 0.000000 0.000000 0.000000
# 4 0.000000 0.000000 0.000000 0.046251 0.000000 0.000000
# 5 0.000000 0.000000 0.000000 0.000000 0.206401 0.000000
# 6 0.000000 0.000000 0.000000 0.000000 0.000000 0.079626
#
#
# Mechanical properties :
#
#
# Convention : Reuss Voigt Hill
#
# Bulk Modulus (GPa) = 18.05218 27.68897 22.87058
# Shear Modulus (GPa) = 12.77071 24.72329 18.74700
#
# Velocity S-wave (km/s) = 2.50360 3.48346 3.03336
# Velocity P-wave (km/s) = 4.14941 5.45614 4.84701
#
# Compressibility (1/GPa) = 0.05539497
#
# Stress axis : x y z
#
# Youngs Moduli (GPa) = 38.14926 76.82991 112.89538
#
# Poissons Ratio (x) = -0.37827 -0.13246
# Poissons Ratio (y) = -0.18783 0.27575
# Poissons Ratio (z) = -0.04476 0.18766
#
# Static dielectric constant tensor:
#      x y z
#    x 1.731760 0.000000 0.000000 
#    y 0.000000 1.749650 0.000000 
#    z 0.000000 0.000000 1.808470 
# 
# From -- ./inp_files/53460.got.cif
#   From: 2010.05.17/outbox.cif.g08.bks.cpg/sg22_27_cif.got.tgz:53460.got - 2010.06.03 23:40:54.
