data_PCOD9327615
_publ_section_title
;
Structure prediction by ZEFSAII (Michael W. Deem and Ramdas Pophale) SiO2 
 PCOD9327615
Probable space group: F 2 2 2
;
_chemical_formula_sum "Si O2"
_cell_formula_units_Z 88
_cell_length_a 23.466157
_cell_length_b 11.200777
_cell_length_c 15.877977
_cell_angle_alpha 90.000000
_cell_angle_beta 90.000000
_cell_angle_gamma 90.000000
_cell_volume 4173.354639
_symmetry_space_group_name_H-M "F 2 2 2"
_symmetry_group_IT_number 22
_symmetry_cell_setting 'orthorhombic'
loop_
_space_group_symop_operation_xyz
x,y,z
-x,-y,z
x,-y,-z
-x,y,-z
x,1/2+y,1/2+z
-x,1/2-y,1/2+z
x,1/2-y,1/2-z
-x,1/2+y,1/2-z
1/2+x,y,1/2+z
1/2-x,-y,1/2+z
1/2+x,-y,1/2-z
1/2-x,y,1/2-z
1/2+x,1/2+y,z
1/2-x,1/2-y,z
1/2+x,1/2-y,-z
1/2-x,1/2+y,-z
loop_
_atom_site_type_symbol
_atom_site_label
_atom_site_fract_x
_atom_site_fract_y
_atom_site_fract_z
Si Si1 0.318034 0.255401 0.017593
Si Si2 0.465735 0.621366 0.764996
Si Si3 0.600240 0.544954 0.084912
Si Si4 0.250000 0.450411 0.750000
Si Si5 0.342746 0.137134 0.188464
Si Si6 0.155921 0.183802 0.836846
O O1 0.250000 0.250000 0.014350
O O2 0.344303 0.380372 0.054072
O O3 0.336206 0.165078 0.090477
O O4 0.342224 0.240699 0.923141
O O5 0.500000 0.500000 0.753181
O O6 0.494598 0.750000 0.750000
O O7 0.441403 0.624062 0.860016
O O8 0.408397 0.613538 0.709461
O O9 0.617645 0.431421 0.141195
O O10 0.571967 0.500000 0.000000
O O11 0.299785 0.532242 0.712658
O O12 0.218860 0.369935 0.680664
O O13 0.327240 0.250000 0.250000
O O14 0.140173 0.250000 0.750000
#
# Coordination Sequence:
#
# PCOD9327615 Si02
#       6
#    16  16  16   8  16  16
#     4  11  20  36  63  95 134 177 223 274 325 406
#     4  11  23  44  70 107 132 174 233 296 351 407
#     4  10  21  40  66  96 129 174 234 279 328 415
#     4  12  20  36  62  92 138 174 226 270 338 410
#     4  11  20  37  63  97 130 176 225 277 340 406
#     4  11  23  37  55  95 144 180 218 268 338 404
#
# _framework density 21.086152999999999
#
# number of rings (size 3 to 8) (size 9 to 14) (size 15 to 20)
#    0.000    1.091    5.455    3.818    0.000    1.091 
#    0.000    4.545    0.000    0.000    4.727    0.000 
#    0.000    0.000    0.000    0.000    0.000    0.000 
#
# Total GULP energy -122873.407169 kJ/mol
# GULP energy per Si atom -5585.154871 kJ/mol
# Density = 2.103816 g / cm^3
# Si number density = 21.086153 Si / 1000 Ang^3
#
#
#
# Elastic Constant Matrix: (Units=GPa)
#
#
# Indices 1 2 3 4 5 6 
#
# 1 50.5533 41.0835 26.3006 0.0000 0.0000 0.0000
# 2 41.0835 112.4747 58.6622 0.0000 0.0000 0.0000
# 3 26.3006 58.6622 178.9519 0.0000 0.0000 0.0000
# 4 0.0000 0.0000 0.0000 43.1269 0.0000 0.0000
# 5 0.0000 0.0000 0.0000 0.0000 -6.1702 0.0000
# 6 0.0000 0.0000 0.0000 0.0000 0.0000 27.7827
#
#
#
# Elastic Compliance Matrix: (Units=1/GPa)
#
#
# Indices 1 2 3 4 5 6 
#
# 1 0.028259 -0.009838 -0.000928 0.000000 0.000000 0.000000
# 2 -0.009838 0.014149 -0.003192 0.000000 0.000000 0.000000
# 3 -0.000928 -0.003192 0.006771 0.000000 0.000000 0.000000
# 4 0.000000 0.000000 0.000000 0.023187 0.000000 0.000000
# 5 0.000000 0.000000 0.000000 0.000000 -0.162069 0.000000
# 6 0.000000 0.000000 0.000000 0.000000 0.000000 0.035994
#
#
# Mechanical properties :
#
#
# Convention : Reuss Voigt Hill
#
# Bulk Modulus (GPa) = 47.03185 66.00808 56.51997
# Shear Modulus (GPa) = -267.32456 27.34346 -119.99055
#
# Velocity S-wave (km/s) = -11.27176 3.60495 -7.55172
# Velocity P-wave (km/s) = 12.12643 6.97850 7.01252
#
# Compressibility (1/GPa) = 0.02126219
#
# Stress axis : x y z
#
# Youngs Moduli (GPa) = 35.38673 70.67401 147.68797
#
# Poissons Ratio (x) = 0.69530 0.13709
# Poissons Ratio (y) = 0.34814 0.47148
# Poissons Ratio (z) = 0.03285 0.22562
#
# Static dielectric constant tensor:
#      x y z
#    x 1.769050 0.000000 0.000000 
#    y 0.000000 1.824400 0.000000 
#    z 0.000000 0.000000 1.768050 
# 
# From -- ./inp_files/28211.got.cif
#   From: 2010.05.17/outbox.cif.g08.bks.cpg/sg22_15_cif.got.tgz:28211.got - 2010.06.03 23:40:54.
