data_PCOD9327816
_publ_section_title
;
Structure prediction by ZEFSAII (Michael W. Deem and Ramdas Pophale) SiO2 
 PCOD9327816
Probable space group: F 2 2 2
;
_chemical_formula_sum "Si O2"
_cell_formula_units_Z 64
_cell_length_a 32.471102
_cell_length_b 18.162340
_cell_length_c 5.410124
_cell_angle_alpha 90.000000
_cell_angle_beta 90.000000
_cell_angle_gamma 90.000000
_cell_volume 3190.627092
_symmetry_space_group_name_H-M "F 2 2 2"
_symmetry_group_IT_number 22
_symmetry_cell_setting 'orthorhombic'
loop_
_space_group_symop_operation_xyz
x,y,z
-x,-y,z
x,-y,-z
-x,y,-z
x,1/2+y,1/2+z
-x,1/2-y,1/2+z
x,1/2-y,1/2-z
-x,1/2+y,1/2-z
1/2+x,y,1/2+z
1/2-x,-y,1/2+z
1/2+x,-y,1/2-z
1/2-x,y,1/2-z
1/2+x,1/2+y,z
1/2-x,1/2-y,z
1/2+x,1/2-y,-z
1/2-x,1/2+y,-z
loop_
_atom_site_type_symbol
_atom_site_label
_atom_site_fract_x
_atom_site_fract_y
_atom_site_fract_z
Si Si1 0.591105 0.500000 0.000000
Si Si2 0.250000 0.951941 0.250000
Si Si3 0.891600 0.297260 0.998758
Si Si4 0.660144 0.573468 0.664569
Si Si5 0.453841 0.077542 0.102572
O O1 0.624336 0.447267 0.140467
O O2 0.559096 0.560287 0.116249
O O3 0.293993 0.911230 0.263136
O O4 0.249572 0.000000 0.500000
O O5 0.891362 0.250000 0.250000
O O6 0.855061 0.356825 0.010889
O O7 0.889231 0.250000 0.750000
O O8 0.931820 0.349006 0.983518
O O9 0.662700 0.500000 0.500000
O O10 0.500000 0.079356 0.000000
O O11 0.435529 0.000000 0.000000
#
# Coordination Sequence:
#
# PCOD9327816 Si02
#       5
#     8   8  16  16  16
#     4  12  18  43  74  96 138 170 236 294 353 414
#     4  10  22  36  69 112 139 172 234 304 346 396
#     4  12  26  44  68  98 140 187 228 278 355 425
#     4  11  22  42  71 103 137 182 238 290 350 416
#     4  11  25  43  66 101 125 179 230 298 348 412
#
# _framework density 20.058754
#
# number of rings (size 3 to 8) (size 9 to 14) (size 15 to 20)
#    0.000    0.750    6.250    1.500    0.000    3.000 
#    0.000    0.625    0.000    4.500    0.000    0.000 
#    0.000    0.000    0.000    0.000    0.000    0.000 
#
# Total GULP energy -89082.956438 kJ/mol
# GULP energy per Si atom -5567.684777 kJ/mol
# Density = 2.001310 g / cm^3
# Si number density = 20.058754 Si / 1000 Ang^3
#
#
#
# Elastic Constant Matrix: (Units=GPa)
#
#
# Indices 1 2 3 4 5 6 
#
# 1 194.1346 51.4282 49.0579 -0.0001 -0.0003 0.0002
# 2 51.4282 136.7355 56.5979 -0.0002 -0.0003 0.0002
# 3 49.0579 56.5979 95.2521 -0.0008 -0.0019 0.0008
# 4 -0.0001 -0.0002 -0.0008 43.9741 -0.0007 0.0003
# 5 -0.0003 -0.0003 -0.0019 -0.0007 -21.3444 0.0020
# 6 0.0002 0.0002 0.0008 0.0003 0.0020 -23.5158
#
#
#
# Elastic Compliance Matrix: (Units=1/GPa)
#
#
# Indices 1 2 3 4 5 6 
#
# 1 0.006096 -0.001317 -0.002357 0.000000 0.000000 0.000000
# 2 -0.001317 0.009983 -0.005254 0.000000 0.000000 0.000000
# 3 -0.002357 -0.005254 0.014834 0.000000 -0.000001 0.000000
# 4 0.000000 0.000000 0.000000 0.022741 -0.000001 0.000000
# 5 0.000000 0.000000 -0.000001 -0.000001 -0.046851 -0.000004
# 6 0.000000 0.000000 0.000000 0.000000 -0.000004 -0.042525
#
#
# Mechanical properties :
#
#
# Convention : Reuss Voigt Hill
#
# Bulk Modulus (GPa) = 76.58287 82.25444 79.41866
# Shear Modulus (GPa) = -369.98745 17.75865 -176.11440
#
# Velocity S-wave (km/s) = -13.59604 2.97868 -9.38029
# Velocity P-wave (km/s) = 14.42940 7.27501 8.81141
#
# Compressibility (1/GPa) = 0.01305775
#
# Stress axis : x y z
#
# Youngs Moduli (GPa) = 164.05436 100.16643 67.41283
#
# Poissons Ratio (x) = 0.13193 0.15888
# Poissons Ratio (y) = 0.21607 0.35417
# Poissons Ratio (z) = 0.38664 0.52624
#
# Static dielectric constant tensor:
#      x y z
#    x 1.749870 0.000000 0.000000 
#    y 0.000000 1.698900 0.000000 
#    z 0.000000 0.000000 2.216170 
# 
# From -- ./inp_files/6167.got.cif
#   From: 2010.05.17/outbox.cif.g08.bks.cpg/sg22_4_cif.got.tgz:6167.got - 2010.06.03 23:40:54.
