data_PCOD9327009
_publ_section_title
;
Structure prediction by ZEFSAII (Michael W. Deem and Ramdas Pophale) SiO2 
 PCOD9327009
Probable space group: F 2 2 2
;
_chemical_formula_sum "Si O2"
_cell_formula_units_Z 116
_cell_length_a 9.980402
_cell_length_b 19.167290
_cell_length_c 27.558821
_cell_angle_alpha 90.000000
_cell_angle_beta 90.000000
_cell_angle_gamma 90.000000
_cell_volume 5271.926931
_symmetry_space_group_name_H-M "F 2 2 2"
_symmetry_group_IT_number 22
_symmetry_cell_setting 'orthorhombic'
loop_
_space_group_symop_operation_xyz
x,y,z
-x,-y,z
x,-y,-z
-x,y,-z
x,1/2+y,1/2+z
-x,1/2-y,1/2+z
x,1/2-y,1/2-z
-x,1/2+y,1/2-z
1/2+x,y,1/2+z
1/2-x,-y,1/2+z
1/2+x,-y,1/2-z
1/2-x,y,1/2-z
1/2+x,1/2+y,z
1/2-x,1/2-y,z
1/2+x,1/2-y,-z
1/2-x,1/2+y,-z
loop_
_atom_site_type_symbol
_atom_site_label
_atom_site_fract_x
_atom_site_fract_y
_atom_site_fract_z
Si Si1 0.779243 0.076858 0.523480
Si Si2 0.145126 0.033950 0.370786
Si Si3 0.073807 0.134009 0.287568
Si Si4 0.711157 0.113715 0.161844
Si Si5 0.250000 0.250000 0.250000
Si Si6 0.002851 0.583749 0.685311
Si Si7 0.514842 0.415785 0.925118
Si Si8 0.260515 0.168970 0.939802
O O1 0.842051 0.067929 0.576592
O O2 0.631182 0.103306 0.537731
O O3 0.836761 0.127687 0.482482
O O4 0.774726 0.000000 0.500000
O O5 0.150914 0.086190 0.326161
O O6 0.231629 0.965042 0.360113
O O7 0.000000 0.000000 0.369248
O O8 0.148341 0.207433 0.284758
O O9 0.917192 0.125544 0.303764
O O10 0.082100 0.108936 0.232109
O O11 0.856239 0.121794 0.186502
O O12 0.682061 0.160297 0.114409
O O13 0.000000 0.500000 0.690440
O O14 0.055950 0.597704 0.630882
O O15 0.500000 0.500000 0.930062
O O16 0.381090 0.372175 0.934686
O O17 0.250000 0.250000 0.951665
#
# Coordination Sequence:
#
# PCOD9327009 Si02
#       8
#    16  16  16  16   4  16  16  16
#     4  12  21  40  71  98 138 186 245 295 355 435
#     4  10  22  43  67 101 134 178 236 306 348 423
#     4  11  26  45  65  95 144 184 243 290 368 439
#     4  10  21  43  70 104 134 184 235 291 373 430
#     4  12  32  48  66  92 144 212 230 306 380 436
#     4  10  20  37  73 112 136 169 229 306 358 423
#     4  10  20  37  68 105 134 179 242 293 354 421
#     4  11  24  41  62 104 148 178 228 306 365 428
#
# _framework density 22.003340000000001
#
# number of rings (size 3 to 8) (size 9 to 14) (size 15 to 20)
#    0.000    1.379    2.759    3.724    3.862    2.483 
#    1.241    4.828    0.000    0.000    0.000    0.000 
#    0.000    0.000    0.000    0.000    0.000    0.000 
#
# Total GULP energy -161889.880992 kJ/mol
# GULP energy per Si atom -5582.409689 kJ/mol
# Density = 2.195326 g / cm^3
# Si number density = 22.003340 Si / 1000 Ang^3
#
#
#
# Elastic Constant Matrix: (Units=GPa)
#
#
# Indices 1 2 3 4 5 6 
#
# 1 59.0735 20.5474 26.0166 0.0000 0.0000 0.0000
# 2 20.5474 96.2176 48.5943 0.0000 0.0000 0.0000
# 3 26.0166 48.5943 171.1506 0.0000 0.0000 0.0000
# 4 0.0000 0.0000 0.0000 1.4923 0.0000 0.0000
# 5 0.0000 0.0000 0.0000 0.0000 26.9978 0.0000
# 6 0.0000 0.0000 0.0000 0.0000 0.0000 24.6406
#
#
#
# Elastic Compliance Matrix: (Units=1/GPa)
#
#
# Indices 1 2 3 4 5 6 
#
# 1 0.018862 -0.003012 -0.002012 0.000000 0.000000 0.000000
# 2 -0.003012 0.012614 -0.003124 0.000000 0.000000 0.000000
# 3 -0.002012 -0.003124 0.007036 0.000000 0.000000 0.000000
# 4 0.000000 0.000000 0.000000 0.670114 0.000000 0.000000
# 5 0.000000 0.000000 0.000000 0.000000 0.037040 0.000000
# 6 0.000000 0.000000 0.000000 0.000000 0.000000 0.040583
#
#
# Mechanical properties :
#
#
# Convention : Reuss Voigt Hill
#
# Bulk Modulus (GPa) = 45.01200 57.41758 51.21479
# Shear Modulus (GPa) = 6.17323 26.04502 16.10912
#
# Velocity S-wave (km/s) = 1.67681 3.44420 2.70871
# Velocity P-wave (km/s) = 4.92445 6.47830 5.75406
#
# Compressibility (1/GPa) = 0.02221630
#
# Stress axis : x y z
#
# Youngs Moduli (GPa) = 53.01728 79.27805 142.13567
#
# Poissons Ratio (x) = 0.23877 0.28599
# Poissons Ratio (y) = 0.15968 0.44397
# Poissons Ratio (z) = 0.10667 0.24763
#
# Static dielectric constant tensor:
#      x y z
#    x 1.954470 0.000000 0.000000 
#    y 0.000000 1.825620 0.000000 
#    z 0.000000 0.000000 1.855390 
# 
# From -- ./inp_files/52728.got.cif
#   From: 2010.05.17/outbox.cif.g08.bks.cpg/sg22_27_cif.got.tgz:52728.got - 2010.06.03 23:40:54.
