data_PCOD9327829
_publ_section_title
;
Structure prediction by ZEFSAII (Michael W. Deem and Ramdas Pophale) SiO2 
 PCOD9327829
Probable space group: F 2 2 2
;
_chemical_formula_sum "Si O2"
_cell_formula_units_Z 104
_cell_length_a 21.366309
_cell_length_b 9.179438
_cell_length_c 22.297844
_cell_angle_alpha 90.000000
_cell_angle_beta 90.000000
_cell_angle_gamma 90.000000
_cell_volume 4373.291947
_symmetry_space_group_name_H-M "F 2 2 2"
_symmetry_group_IT_number 22
_symmetry_cell_setting 'orthorhombic'
loop_
_space_group_symop_operation_xyz
x,y,z
-x,-y,z
x,-y,-z
-x,y,-z
x,1/2+y,1/2+z
-x,1/2-y,1/2+z
x,1/2-y,1/2-z
-x,1/2+y,1/2-z
1/2+x,y,1/2+z
1/2-x,-y,1/2+z
1/2+x,-y,1/2-z
1/2-x,y,1/2-z
1/2+x,1/2+y,z
1/2-x,1/2-y,z
1/2+x,1/2-y,-z
1/2-x,1/2+y,-z
loop_
_atom_site_type_symbol
_atom_site_label
_atom_site_fract_x
_atom_site_fract_y
_atom_site_fract_z
Si Si1 0.089709 0.255939 0.105676
Si Si2 0.662355 0.519879 0.563467
Si Si3 0.640428 0.063742 0.405348
Si Si4 0.750000 0.750000 0.922158
Si Si5 0.452112 0.681375 0.408916
Si Si6 0.682243 0.581247 0.769999
Si Si7 0.436632 0.959440 0.794814
O O1 0.145111 0.368665 0.092366
O O2 0.069894 0.299653 0.174438
O O3 0.024094 0.299391 0.073806
O O4 0.115201 0.099435 0.086904
O O5 0.695550 0.500000 0.500000
O O6 0.703926 0.626047 0.604440
O O7 0.597370 0.601996 0.548462
O O8 0.692566 0.145618 0.447290
O O9 0.578498 0.161977 0.400379
O O10 0.673918 0.070488 0.340934
O O11 0.443479 0.578803 0.349687
O O12 0.677255 0.750000 0.750000
O O13 0.750000 0.526703 0.750000
O O14 0.625444 0.494903 0.740499
O O15 0.500000 0.000000 0.759109
#
# Coordination Sequence:
#
# PCOD9327829 Si02
#       7
#    16  16  16   8  16  16  16
#     4  10  22  37  62  91 121 153 202 259 310 367
#     4  10  22  41  67  91 119 157 202 252 308 375
#     4  11  22  38  60  87 121 166 205 255 305 364
#     4  10  24  42  61  84 124 168 202 237 308 382
#     4   9  19  39  62  88 121 158 199 244 318 384
#     4  11  22  36  60  86 117 166 222 256 305 371
#     4   9  19  38  56  83 121 160 205 257 309 368
#
# _framework density 23.780712999999999
#
# number of rings (size 3 to 8) (size 9 to 14) (size 15 to 20)
#    0.000    2.000    1.538    2.769    4.308    4.923 
#    0.000    3.077    0.000    3.692    0.000    0.000 
#    0.000    0.000    0.000    0.000    0.000    0.000 
#
# Total GULP energy -144838.102259 kJ/mol
# GULP energy per Si atom -5570.696241 kJ/mol
# Density = 2.372659 g / cm^3
# Si number density = 23.780713 Si / 1000 Ang^3
#
#
#
# Elastic Constant Matrix: (Units=GPa)
#
#
# Indices 1 2 3 4 5 6 
#
# 1 160.1397 56.1772 12.7362 0.0000 0.0000 0.0000
# 2 56.1772 155.6804 -10.7790 0.0000 0.0000 0.0000
# 3 12.7362 -10.7790 34.8851 0.0000 0.0000 0.0000
# 4 0.0000 0.0000 0.0000 12.1706 0.0000 0.0000
# 5 0.0000 0.0000 0.0000 0.0000 21.3916 0.0000
# 6 0.0000 0.0000 0.0000 0.0000 0.0000 34.8625
#
#
#
# Elastic Compliance Matrix: (Units=1/GPa)
#
#
# Indices 1 2 3 4 5 6 
#
# 1 0.007589 -0.002994 -0.003696 0.000000 0.000000 0.000000
# 2 -0.002994 0.007745 0.003486 0.000000 0.000000 0.000000
# 3 -0.003696 0.003486 0.031092 0.000000 0.000000 0.000000
# 4 0.000000 0.000000 0.000000 0.082165 0.000000 0.000000
# 5 0.000000 0.000000 0.000000 0.000000 0.046747 0.000000
# 6 0.000000 0.000000 0.000000 0.000000 0.000000 0.028684
#
#
# Mechanical properties :
#
#
# Convention : Reuss Voigt Hill
#
# Bulk Modulus (GPa) = 24.98828 51.88600 38.43714
# Shear Modulus (GPa) = 22.34437 33.18967 27.76702
#
# Velocity S-wave (km/s) = 3.06862 3.73990 3.42076
# Velocity P-wave (km/s) = 4.80477 6.36514 5.63919
#
# Compressibility (1/GPa) = 0.04001876
#
# Stress axis : x y z
#
# Youngs Moduli (GPa) = 131.77137 129.11033 32.16248
#
# Poissons Ratio (x) = 0.38660 0.11887
# Poissons Ratio (y) = 0.39457 -0.11213
# Poissons Ratio (z) = 0.48701 -0.45013
#
# Static dielectric constant tensor:
#      x y z
#    x 1.944420 0.000000 0.000000 
#    y 0.000000 1.930400 0.000000 
#    z 0.000000 0.000000 2.022050 
# 
# From -- ./inp_files/12927.got.cif
#   From: 2010.05.17/outbox.cif.g08.bks.cpg/sg22_7_cif.got.tgz:12927.got - 2010.06.03 23:40:54.
