data_PCOD9327929
_publ_section_title
;
Structure prediction by ZEFSAII (Michael W. Deem and Ramdas Pophale) SiO2 
 PCOD9327929
Probable space group: F 2 2 2
;
_chemical_formula_sum "Si O2"
_cell_formula_units_Z 116
_cell_length_a 24.422607
_cell_length_b 18.344411
_cell_length_c 12.351970
_cell_angle_alpha 90.000000
_cell_angle_beta 90.000000
_cell_angle_gamma 90.000000
_cell_volume 5533.909101
_symmetry_space_group_name_H-M "F 2 2 2"
_symmetry_group_IT_number 22
_symmetry_cell_setting 'orthorhombic'
loop_
_space_group_symop_operation_xyz
x,y,z
-x,-y,z
x,-y,-z
-x,y,-z
x,1/2+y,1/2+z
-x,1/2-y,1/2+z
x,1/2-y,1/2-z
-x,1/2+y,1/2-z
1/2+x,y,1/2+z
1/2-x,-y,1/2+z
1/2+x,-y,1/2-z
1/2-x,y,1/2-z
1/2+x,1/2+y,z
1/2-x,1/2-y,z
1/2+x,1/2-y,-z
1/2-x,1/2+y,-z
loop_
_atom_site_type_symbol
_atom_site_label
_atom_site_fract_x
_atom_site_fract_y
_atom_site_fract_z
Si Si1 0.000000 0.500000 0.500000
Si Si2 0.394428 0.263878 0.072868
Si Si3 0.793822 0.840763 0.158832
Si Si4 0.883654 0.606987 0.173171
Si Si5 0.809267 0.662672 0.783132
Si Si6 0.293433 0.582305 0.507841
Si Si7 0.584321 0.818373 0.670660
Si Si8 0.031958 0.108999 0.169455
O O1 0.036918 0.551246 0.573963
O O2 0.331129 0.279927 0.102691
O O3 0.402103 0.183141 0.117648
O O4 0.434823 0.317929 0.137748
O O5 0.404842 0.283609 0.947761
O O6 0.750000 0.821260 0.250000
O O7 0.840205 0.884999 0.226660
O O8 0.756409 0.876884 0.067635
O O9 0.847110 0.570703 0.082105
O O10 0.939032 0.576534 0.224746
O O11 0.807994 0.750000 0.750000
O O12 0.750000 0.633121 0.750000
O O13 0.862117 0.639229 0.714389
O O14 0.812386 0.632855 0.906177
O O15 0.271980 0.500000 0.500000
O O16 0.574321 0.750000 0.750000
O O17 0.531241 0.868961 0.674749
#
# Coordination Sequence:
#
# PCOD9327929 Si02
#       8
#     4  16  16  16  16  16  16  16
#     4  12  24  44  60  92 138 172 210 268 340 434
#     4  11  20  40  64  98 124 163 222 286 341 394
#     4   9  20  37  60  90 121 167 215 272 335 402
#     4  10  22  40  67  92 127 170 223 285 344 406
#     4  10  22  40  63  94 130 177 227 285 340 412
#     4  11  24  42  60  92 135 177 226 281 343 420
#     4  11  21  37  64  95 126 167 215 278 344 398
#     4  11  23  41  62  93 126 168 216 275 341 407
#
# _framework density 20.961675
#
# number of rings (size 3 to 8) (size 9 to 14) (size 15 to 20)
#    0.000    1.517    1.379    4.966    0.000    7.724 
#    4.966    2.069    0.000    0.828    0.000    0.000 
#    0.000    0.000    0.000    0.000    0.000    0.000 
#
# Total GULP energy -161586.651434 kJ/mol
# GULP energy per Si atom -5571.953498 kJ/mol
# Density = 2.091396 g / cm^3
# Si number density = 20.961675 Si / 1000 Ang^3
#
#
#
# Elastic Constant Matrix: (Units=GPa)
#
#
# Indices 1 2 3 4 5 6 
#
# 1 148.4858 13.6124 45.8333 0.0000 0.0000 0.0000
# 2 13.6124 30.5303 2.4177 0.0000 0.0000 0.0000
# 3 45.8333 2.4177 121.2618 0.0000 0.0000 0.0000
# 4 0.0000 0.0000 0.0000 -1.8783 0.0000 0.0000
# 5 0.0000 0.0000 0.0000 0.0000 20.2305 0.0000
# 6 0.0000 0.0000 0.0000 0.0000 0.0000 -5.1049
#
#
#
# Elastic Compliance Matrix: (Units=1/GPa)
#
#
# Indices 1 2 3 4 5 6 
#
# 1 0.007945 -0.003310 -0.002937 0.000000 0.000000 0.000000
# 2 -0.003310 0.034185 0.000569 0.000000 0.000000 0.000000
# 3 -0.002937 0.000569 0.009345 0.000000 0.000000 0.000000
# 4 0.000000 0.000000 0.000000 -0.532400 0.000000 0.000000
# 5 0.000000 0.000000 0.000000 0.000000 0.049430 0.000000
# 6 0.000000 0.000000 0.000000 0.000000 0.000000 -0.195892
#
#
# Mechanical properties :
#
#
# Convention : Reuss Voigt Hill
#
# Bulk Modulus (GPa) = 24.92487 47.11163 36.01825
# Shear Modulus (GPa) = -8.29657 18.54378 5.12360
#
# Velocity S-wave (km/s) = -1.99162 2.97754 1.56511
# Velocity P-wave (km/s) = 2.57444 5.86045 4.52618
#
# Compressibility (1/GPa) = 0.04012057
#
# Stress axis : x y z
#
# Youngs Moduli (GPa) = 125.87211 29.25271 107.00573
#
# Poissons Ratio (x) = 0.09682 0.31426
# Poissons Ratio (y) = 0.41659 -0.06093
# Poissons Ratio (z) = 0.36966 -0.01666
#
# Static dielectric constant tensor:
#      x y z
#    x 1.792410 0.000000 0.000000 
#    y 0.000000 1.782230 0.000000 
#    z 0.000000 0.000000 1.861010 
# 
# From -- ./inp_files/24730.got.cif
#   From: 2010.05.17/outbox.cif.g08.bks.cpg/sg22_13_cif.got.tgz:24730.got - 2010.06.03 23:40:54.
