data_PCOD9327022
_publ_section_title
;
Structure prediction by ZEFSAII (Michael W. Deem and Ramdas Pophale) SiO2 
 PCOD9327022
Probable space group: F 2 2 2
;
_chemical_formula_sum "Si O2"
_cell_formula_units_Z 92
_cell_length_a 23.310059
_cell_length_b 8.659551
_cell_length_c 23.159815
_cell_angle_alpha 90.000000
_cell_angle_beta 90.000000
_cell_angle_gamma 90.000000
_cell_volume 4674.916229
_symmetry_space_group_name_H-M "F 2 2 2"
_symmetry_group_IT_number 22
_symmetry_cell_setting 'orthorhombic'
loop_
_space_group_symop_operation_xyz
x,y,z
-x,-y,z
x,-y,-z
-x,y,-z
x,1/2+y,1/2+z
-x,1/2-y,1/2+z
x,1/2-y,1/2-z
-x,1/2+y,1/2-z
1/2+x,y,1/2+z
1/2-x,-y,1/2+z
1/2+x,-y,1/2-z
1/2-x,y,1/2-z
1/2+x,1/2+y,z
1/2-x,1/2-y,z
1/2+x,1/2-y,-z
1/2-x,1/2+y,-z
loop_
_atom_site_type_symbol
_atom_site_label
_atom_site_fract_x
_atom_site_fract_y
_atom_site_fract_z
Si Si1 0.844319 0.948327 0.311709
Si Si2 0.319565 0.759403 0.908157
Si Si3 0.500000 0.500000 0.833339
Si Si4 0.877285 0.051370 0.136168
Si Si5 0.853191 0.750000 0.750000
Si Si6 0.943339 0.750000 0.250000
Si Si7 0.190766 0.667586 0.470681
Si Si8 0.750000 0.750000 0.250000
O O1 0.842716 0.914575 0.379228
O O2 0.901572 0.870354 0.284192
O O3 0.790982 0.852370 0.288221
O O4 0.830022 0.120961 0.293220
O O5 0.250000 0.750000 0.908276
O O6 0.345433 0.615425 0.870645
O O7 0.337914 0.750981 0.974640
O O8 0.444691 0.469816 0.872224
O O9 0.482083 0.645466 0.792497
O O10 0.875563 0.129720 0.199825
O O11 0.847674 0.148287 0.085652
O O12 0.203554 0.500000 0.500000
O O13 0.250000 0.750000 0.455333
#
# Coordination Sequence:
#
# PCOD9327022 Si02
#       8
#    16  16   8  16   8   8  16   4
#     4  11  21  39  58  93 130 174 219 270 340 402
#     4  10  20  42  67  86 127 180 220 263 334 406
#     4  12  22  40  67  92 134 179 218 278 326 408
#     4  11  23  42  61 100 130 169 227 274 334 397
#     4  12  25  37  55  97 135 163 223 281 320 394
#     4  11  23  39  66  85 132 174 225 257 336 408
#     4   9  21  41  67  91 127 173 225 272 329 401
#     4  10  20  38  58  84 136 180 202 270 350 406
#
# _framework density 19.679497000000001
#
# number of rings (size 3 to 8) (size 9 to 14) (size 15 to 20)
#    0.000    1.391    4.348    1.565    0.000    4.522 
#    0.000    3.913    0.000    0.000    0.000    0.000 
#    0.000    0.000    0.000    0.000    0.000    0.000 
#
# Total GULP energy -128073.989150 kJ/mol
# GULP energy per Si atom -5568.434311 kJ/mol
# Density = 1.963471 g / cm^3
# Si number density = 19.679497 Si / 1000 Ang^3
#
#
#
# Elastic Constant Matrix: (Units=GPa)
#
#
# Indices 1 2 3 4 5 6 
#
# 1 111.8821 35.6418 43.8168 0.0000 0.0000 0.0000
# 2 35.6418 85.1617 36.5796 0.0000 0.0000 0.0000
# 3 43.8168 36.5796 114.7775 0.0000 0.0000 0.0000
# 4 0.0000 0.0000 0.0000 41.2396 0.0000 0.0000
# 5 0.0000 0.0000 0.0000 0.0000 49.4333 0.0000
# 6 0.0000 0.0000 0.0000 0.0000 0.0000 3.8566
#
#
#
# Elastic Compliance Matrix: (Units=1/GPa)
#
#
# Indices 1 2 3 4 5 6 
#
# 1 0.011266 -0.003323 -0.003242 0.000000 0.000000 0.000000
# 2 -0.003323 0.014585 -0.003380 0.000000 0.000000 0.000000
# 3 -0.003242 -0.003380 0.011027 0.000000 0.000000 0.000000
# 4 0.000000 0.000000 0.000000 0.024249 0.000000 0.000000
# 5 0.000000 0.000000 0.000000 0.000000 0.020229 0.000000
# 6 0.000000 0.000000 0.000000 0.000000 0.000000 0.259293
#
#
# Mechanical properties :
#
#
# Convention : Reuss Voigt Hill
#
# Bulk Modulus (GPa) = 58.85999 60.43310 59.64655
# Shear Modulus (GPa) = 13.65374 31.95812 22.80593
#
# Velocity S-wave (km/s) = 2.63688 4.03417 3.40791
# Velocity P-wave (km/s) = 6.26459 7.24394 6.77199
#
# Compressibility (1/GPa) = 0.01698947
#
# Stress axis : x y z
#
# Youngs Moduli (GPa) = 88.76186 68.56546 90.68428
#
# Poissons Ratio (x) = 0.22781 0.29400
# Poissons Ratio (y) = 0.29492 0.30649
# Poissons Ratio (z) = 0.28777 0.23173
#
# Static dielectric constant tensor:
#      x y z
#    x 1.681940 0.000000 0.000000 
#    y 0.000000 1.799420 0.000000 
#    z 0.000000 0.000000 1.772650 
# 
# From -- ./inp_files/49882.got.cif
#   From: 2010.05.17/outbox.cif.g08.bks.cpg/sg22_25_cif.got.tgz:49882.got - 2010.06.03 23:40:54.
