data_PCOD9327696
_publ_section_title
;
Structure prediction by ZEFSAII (Michael W. Deem and Ramdas Pophale) SiO2 
 PCOD9327696
Probable space group: F 2 2 2
;
_chemical_formula_sum "Si O2"
_cell_formula_units_Z 84
_cell_length_a 15.156921
_cell_length_b 17.430766
_cell_length_c 15.307531
_cell_angle_alpha 90.000000
_cell_angle_beta 90.000000
_cell_angle_gamma 90.000000
_cell_volume 4044.199837
_symmetry_space_group_name_H-M "F 2 2 2"
_symmetry_group_IT_number 22
_symmetry_cell_setting 'orthorhombic'
loop_
_space_group_symop_operation_xyz
x,y,z
-x,-y,z
x,-y,-z
-x,y,-z
x,1/2+y,1/2+z
-x,1/2-y,1/2+z
x,1/2-y,1/2-z
-x,1/2+y,1/2-z
1/2+x,y,1/2+z
1/2-x,-y,1/2+z
1/2+x,-y,1/2-z
1/2-x,y,1/2-z
1/2+x,1/2+y,z
1/2-x,1/2-y,z
1/2+x,1/2-y,-z
1/2-x,1/2+y,-z
loop_
_atom_site_type_symbol
_atom_site_label
_atom_site_fract_x
_atom_site_fract_y
_atom_site_fract_z
Si Si1 0.250000 0.250000 0.750000
Si Si2 0.321950 0.990332 0.672948
Si Si3 0.777636 0.500000 0.000000
Si Si4 0.000000 0.225382 0.000000
Si Si5 0.542750 0.915447 0.216020
Si Si6 0.408274 0.845332 0.330501
Si Si7 0.405110 0.125062 0.029517
O O1 0.319251 0.201990 0.690530
O O2 0.250000 0.002169 0.750000
O O3 0.276983 0.972738 0.582168
O O4 0.376173 0.067872 0.656926
O O5 0.390178 0.926611 0.704554
O O6 0.835764 0.574803 0.976302
O O7 0.917886 0.284191 0.982342
O O8 0.033547 0.181293 0.913592
O O9 0.469586 0.853025 0.243330
O O10 0.598272 0.892582 0.131719
O O11 0.500000 0.000000 0.200511
O O12 0.500000 0.093826 0.000000
#
# Coordination Sequence:
#
# PCOD9327696 Si02
#       7
#     4  16   8   8  16  16  16
#     4  12  24  40  72 100 126 182 224 282 316 404
#     4  11  24  41  67 100 129 175 228 290 346 398
#     4  12  23  38  65  98 132 164 232 298 323 397
#     4  10  26  41  61 100 132 188 210 260 346 434
#     4  10  21  42  65  95 131 172 217 287 348 400
#     4  11  25  42  65  95 141 170 225 268 347 411
#     4  10  22  37  66  93 127 170 228 277 342 399
#
# _framework density 20.770486999999999
#
# number of rings (size 3 to 8) (size 9 to 14) (size 15 to 20)
#    0.571    0.762    2.857    2.571    8.000    0.000 
#    0.000    0.000    0.000    0.000    0.000    0.000 
#    0.000    0.000    0.000    0.000    0.000    0.000 
#
# Total GULP energy -117069.644020 kJ/mol
# GULP energy per Si atom -5574.744953 kJ/mol
# Density = 2.072321 g / cm^3
# Si number density = 20.770487 Si / 1000 Ang^3
#
#
#
# Elastic Constant Matrix: (Units=GPa)
#
#
# Indices 1 2 3 4 5 6 
#
# 1 58.9659 19.4509 17.1710 0.0000 0.0000 0.0000
# 2 19.4509 52.2129 12.7945 0.0000 0.0000 0.0000
# 3 17.1710 12.7945 69.1637 0.0000 0.0000 0.0000
# 4 0.0000 0.0000 0.0000 81.9217 0.0000 0.0000
# 5 0.0000 0.0000 0.0000 0.0000 38.9733 0.0000
# 6 0.0000 0.0000 0.0000 0.0000 0.0000 6.6201
#
#
#
# Elastic Compliance Matrix: (Units=1/GPa)
#
#
# Indices 1 2 3 4 5 6 
#
# 1 0.020247 -0.006611 -0.003804 0.000000 0.000000 0.000000
# 2 -0.006611 0.022220 -0.002469 0.000000 0.000000 0.000000
# 3 -0.003804 -0.002469 0.015860 0.000000 0.000000 0.000000
# 4 0.000000 0.000000 0.000000 0.012207 0.000000 0.000000
# 5 0.000000 0.000000 0.000000 0.000000 0.025659 0.000000
# 6 0.000000 0.000000 0.000000 0.000000 0.000000 0.151056
#
#
# Mechanical properties :
#
#
# Convention : Reuss Voigt Hill
#
# Bulk Modulus (GPa) = 30.71299 31.01950 30.86624
# Shear Modulus (GPa) = 17.61378 34.23144 25.92261
#
# Velocity S-wave (km/s) = 2.91524 4.06406 3.53661
# Velocity P-wave (km/s) = 5.11375 6.08185 5.61869
#
# Compressibility (1/GPa) = 0.03255951
#
# Stress axis : x y z
#
# Youngs Moduli (GPa) = 49.38940 45.00434 63.05333
#
# Poissons Ratio (x) = 0.29751 0.23984
# Poissons Ratio (y) = 0.32649 0.15570
# Poissons Ratio (z) = 0.18787 0.11113
#
# Static dielectric constant tensor:
#      x y z
#    x 1.810890 0.000000 0.000000 
#    y 0.000000 1.743100 0.000000 
#    z 0.000000 0.000000 2.008630 
# 
# From -- ./inp_files/29298.got.cif
#   From: 2010.05.17/outbox.cif.g08.bks.cpg/sg22_15_cif.got.tgz:29298.got - 2010.06.03 23:40:54.
