data_PCOD9327629
_publ_section_title
;
Structure prediction by ZEFSAII (Michael W. Deem and Ramdas Pophale) SiO2 
 PCOD9327629
Probable space group: F 2 2 2
;
_chemical_formula_sum "Si O2"
_cell_formula_units_Z 60
_cell_length_a 17.980105
_cell_length_b 5.031517
_cell_length_c 26.133556
_cell_angle_alpha 90.000000
_cell_angle_beta 90.000000
_cell_angle_gamma 90.000000
_cell_volume 2364.229741
_symmetry_space_group_name_H-M "F 2 2 2"
_symmetry_group_IT_number 22
_symmetry_cell_setting 'orthorhombic'
loop_
_space_group_symop_operation_xyz
x,y,z
-x,-y,z
x,-y,-z
-x,y,-z
x,1/2+y,1/2+z
-x,1/2-y,1/2+z
x,1/2-y,1/2-z
-x,1/2+y,1/2-z
1/2+x,y,1/2+z
1/2-x,-y,1/2+z
1/2+x,-y,1/2-z
1/2-x,y,1/2-z
1/2+x,1/2+y,z
1/2-x,1/2-y,z
1/2+x,1/2-y,-z
1/2-x,1/2+y,-z
loop_
_atom_site_type_symbol
_atom_site_label
_atom_site_fract_x
_atom_site_fract_y
_atom_site_fract_z
Si Si1 0.500000 0.000000 0.618897
Si Si2 0.000000 0.500000 0.000000
Si Si3 0.074974 0.385897 0.798376
Si Si4 0.879213 0.367593 0.448964
Si Si5 0.202385 0.012009 0.633946
O O1 0.461364 0.211517 0.656191
O O2 0.427012 0.921191 0.584916
O O3 0.053621 0.683852 0.032486
O O4 0.113566 0.250000 0.750000
O O5 0.135312 0.562634 0.827796
O O6 0.000000 0.500000 0.774068
O O7 0.845273 0.500000 0.500000
O O8 0.828177 0.174745 0.415405
O O9 0.250000 0.250000 0.659906
O O10 0.250000 0.750000 0.621248
#
# Coordination Sequence:
#
# PCOD9327629 Si02
#       5
#     8   4  16  16  16
#     4  10  21  40  69 116 152 193 249 338 396 470
#     4  12  22  40  74 114 144 198 268 344 402 456
#     4  11  25  44  81 115 153 202 275 341 405 473
#     4  11  24  42  76 111 160 204 273 329 405 473
#     4  11  30  52  77 111 167 221 266 326 410 494
#
# _framework density 25.378245
#
# number of rings (size 3 to 8) (size 9 to 14) (size 15 to 20)
#    0.000    1.067    4.000    0.000   18.667    0.533 
#    2.400    1.333    0.000    0.000    0.000    0.000 
#    0.000    0.000    0.000    0.000    0.000    0.000 
#
# Total GULP energy -83767.103224 kJ/mol
# GULP energy per Si atom -5584.473548 kJ/mol
# Density = 2.532048 g / cm^3
# Si number density = 25.378245 Si / 1000 Ang^3
#
#
#
# Elastic Constant Matrix: (Units=GPa)
#
#
# Indices 1 2 3 4 5 6 
#
# 1 127.1705 45.4903 58.1829 -0.0003 0.0012 0.0004
# 2 45.4903 99.6004 41.1408 -0.0018 0.0038 0.0033
# 3 58.1829 41.1408 140.0335 -0.0002 0.0003 0.0008
# 4 -0.0003 -0.0018 -0.0002 38.8985 -0.0001 0.0001
# 5 0.0012 0.0038 0.0003 -0.0001 50.0703 -0.0008
# 6 0.0004 0.0033 0.0008 0.0001 -0.0008 57.0502
#
#
#
# Elastic Compliance Matrix: (Units=1/GPa)
#
#
# Indices 1 2 3 4 5 6 
#
# 1 0.010663 -0.003460 -0.003414 0.000000 0.000000 0.000000
# 2 -0.003460 0.012549 -0.002249 0.000001 -0.000001 -0.000001
# 3 -0.003414 -0.002249 0.009220 0.000000 0.000000 0.000000
# 4 0.000000 0.000001 0.000000 0.025708 0.000000 0.000000
# 5 0.000000 -0.000001 0.000000 0.000000 0.019972 0.000000
# 6 0.000000 -0.000001 0.000000 0.000000 0.000000 0.017528
#
#
# Mechanical properties :
#
#
# Convention : Reuss Voigt Hill
#
# Bulk Modulus (GPa) = 70.48939 72.93692 71.71316
# Shear Modulus (GPa) = 42.15263 44.00317 43.07790
#
# Velocity S-wave (km/s) = 4.07993 4.16852 4.12446
# Velocity P-wave (km/s) = 7.07321 7.20910 7.14147
#
# Compressibility (1/GPa) = 0.01418653
#
# Stress axis : x y z
#
# Youngs Moduli (GPa) = 93.78175 79.68446 108.45466
#
# Poissons Ratio (x) = 0.27571 0.37025
# Poissons Ratio (y) = 0.32448 0.24395
# Poissons Ratio (z) = 0.32016 0.17924
#
# Static dielectric constant tensor:
#      x y z
#    x 2.044590 0.000000 0.000000 
#    y 0.000000 1.999580 0.000000 
#    z 0.000000 0.000000 2.100610 
# 
# From -- ./inp_files/5263.got.cif
#   From: 2010.05.17/outbox.cif.g08.bks.cpg/sg22_3_cif.got.tgz:5263.got - 2010.06.03 23:40:54.
