data_PCOD9327545
_publ_section_title
;
Structure prediction by ZEFSAII (Michael W. Deem and Ramdas Pophale) SiO2 
 PCOD9327545
Probable space group: F 2 2 2
;
_chemical_formula_sum "Si O2"
_cell_formula_units_Z 116
_cell_length_a 21.152521
_cell_length_b 28.977641
_cell_length_c 9.502443
_cell_angle_alpha 90.000000
_cell_angle_beta 90.000000
_cell_angle_gamma 90.000000
_cell_volume 5824.523955
_symmetry_space_group_name_H-M "F 2 2 2"
_symmetry_group_IT_number 22
_symmetry_cell_setting 'orthorhombic'
loop_
_space_group_symop_operation_xyz
x,y,z
-x,-y,z
x,-y,-z
-x,y,-z
x,1/2+y,1/2+z
-x,1/2-y,1/2+z
x,1/2-y,1/2-z
-x,1/2+y,1/2-z
1/2+x,y,1/2+z
1/2-x,-y,1/2+z
1/2+x,-y,1/2-z
1/2-x,y,1/2-z
1/2+x,1/2+y,z
1/2-x,1/2-y,z
1/2+x,1/2-y,-z
1/2-x,1/2+y,-z
loop_
_atom_site_type_symbol
_atom_site_label
_atom_site_fract_x
_atom_site_fract_y
_atom_site_fract_z
Si Si1 0.079367 0.379503 0.723155
Si Si2 0.854388 0.607770 0.426632
Si Si3 0.956253 0.076397 0.695653
Si Si4 0.152788 0.696764 0.752797
Si Si5 0.364232 0.126394 0.018725
Si Si6 0.500000 0.500000 0.500000
Si Si7 0.506434 0.793152 0.333733
Si Si8 0.264633 0.046097 0.087317
O O1 0.112363 0.381422 0.573116
O O2 0.028504 0.419855 0.752133
O O3 0.032825 0.336419 0.715522
O O4 0.127696 0.374394 0.851936
O O5 0.907109 0.584629 0.323427
O O6 0.826293 0.654364 0.351167
O O7 0.798915 0.572172 0.459258
O O8 0.933120 0.115425 0.585263
O O9 0.955928 0.030550 0.601827
O O10 0.177165 0.750000 0.750000
O O11 0.157955 0.673727 0.907371
O O12 0.079477 0.700962 0.707145
O O13 0.319743 0.084156 0.068890
O O14 0.500000 0.787161 0.500000
O O15 0.480432 0.750000 0.250000
O O16 0.250000 0.034841 0.250000
O O17 0.277514 0.000000 0.000000
#
# Coordination Sequence:
#
# PCOD9327545 Si02
#       8
#    16  16  16  16  16   4  16  16
#     4  12  22  39  64  95 138 173 205 273 339 392
#     4  11  24  45  65  93 138 171 222 278 335 399
#     4  11  22  39  63  90 126 170 214 272 347 395
#     4  10  21  39  65  97 135 174 221 266 328 400
#     4  11  24  41  67  95 133 174 227 275 329 398
#     4  12  24  36  62  96 128 164 226 276 350 432
#     4  11  22  34  59  98 139 177 217 257 318 402
#     4  12  28  48  72  94 126 173 231 282 331 399
#
# _framework density 19.915790999999999
#
# number of rings (size 3 to 8) (size 9 to 14) (size 15 to 20)
#    0.000    0.828    8.276    0.414    6.759    1.103 
#    0.000    2.069    0.000    0.000    0.000    2.897 
#    0.000    0.000    0.000    0.000    0.000    0.000 
#
# Total GULP energy -161781.762513 kJ/mol
# GULP energy per Si atom -5578.681466 kJ/mol
# Density = 1.987046 g / cm^3
# Si number density = 19.915791 Si / 1000 Ang^3
#
#
#
# Elastic Constant Matrix: (Units=GPa)
#
#
# Indices 1 2 3 4 5 6 
#
# 1 59.8233 23.8852 27.8407 0.0000 0.0001 -0.0003
# 2 23.8852 119.9459 47.4725 0.0000 0.0000 -0.0001
# 3 27.8407 47.4725 133.9796 0.0001 0.0000 -0.0008
# 4 0.0000 0.0000 0.0001 38.9867 0.0000 -0.0001
# 5 0.0001 0.0000 0.0000 0.0000 32.9859 0.0004
# 6 -0.0003 -0.0001 -0.0008 -0.0001 0.0004 39.4761
#
#
#
# Elastic Compliance Matrix: (Units=1/GPa)
#
#
# Indices 1 2 3 4 5 6 
#
# 1 0.019182 -0.002608 -0.003062 0.000000 0.000000 0.000000
# 2 -0.002608 0.010052 -0.003020 0.000000 0.000000 0.000000
# 3 -0.003062 -0.003020 0.009170 0.000000 0.000000 0.000000
# 4 0.000000 0.000000 0.000000 0.025650 0.000000 0.000000
# 5 0.000000 0.000000 0.000000 0.000000 0.030316 0.000000
# 6 0.000000 0.000000 0.000000 0.000000 0.000000 0.025332
#
#
# Mechanical properties :
#
#
# Convention : Reuss Voigt Hill
#
# Bulk Modulus (GPa) = 47.56308 56.90504 52.23406
# Shear Modulus (GPa) = 34.70093 36.59310 35.64701
#
# Velocity S-wave (km/s) = 4.17871 4.29113 4.23530
# Velocity P-wave (km/s) = 6.87140 7.29291 7.08529
#
# Compressibility (1/GPa) = 0.02102471
#
# Stress axis : x y z
#
# Youngs Moduli (GPa) = 52.13192 99.48743 109.05113
#
# Poissons Ratio (x) = 0.25946 0.33391
# Poissons Ratio (y) = 0.13596 0.32929
# Poissons Ratio (z) = 0.15962 0.30041
#
# Static dielectric constant tensor:
#      x y z
#    x 1.731600 0.000000 0.000000 
#    y 0.000000 1.749360 0.000000 
#    z 0.000000 0.000000 1.718810 
# 
# From -- ./inp_files/14106.got.cif
#   From: 2010.05.17/outbox.cif.g08.bks.cpg/sg22_8_cif.got.tgz:14106.got - 2010.06.03 23:40:54.
