data_PCOD9327344
_publ_section_title
;
Structure prediction by ZEFSAII (Michael W. Deem and Ramdas Pophale) SiO2 
 PCOD9327344
Probable space group: F 2 2 2
;
_chemical_formula_sum "Si O2"
_cell_formula_units_Z 64
_cell_length_a 29.455665
_cell_length_b 19.594183
_cell_length_c 5.388488
_cell_angle_alpha 90.000000
_cell_angle_beta 90.000000
_cell_angle_gamma 90.000000
_cell_volume 3110.018066
_symmetry_space_group_name_H-M "F 2 2 2"
_symmetry_group_IT_number 22
_symmetry_cell_setting 'orthorhombic'
loop_
_space_group_symop_operation_xyz
x,y,z
-x,-y,z
x,-y,-z
-x,y,-z
x,1/2+y,1/2+z
-x,1/2-y,1/2+z
x,1/2-y,1/2-z
-x,1/2+y,1/2-z
1/2+x,y,1/2+z
1/2-x,-y,1/2+z
1/2+x,-y,1/2-z
1/2-x,y,1/2-z
1/2+x,1/2+y,z
1/2-x,1/2-y,z
1/2+x,1/2-y,-z
1/2-x,1/2+y,-z
loop_
_atom_site_type_symbol
_atom_site_label
_atom_site_fract_x
_atom_site_fract_y
_atom_site_fract_z
Si Si1 0.594705 0.577636 0.961606
Si Si2 0.269146 0.672756 0.500868
Si Si3 0.628433 0.862889 0.027695
Si Si4 0.962505 0.175819 0.324772
O O1 0.623841 0.585353 0.706802
O O2 0.552723 0.628138 0.902466
O O3 0.580615 0.500000 0.000000
O O4 0.621086 0.603238 0.204828
O O5 0.250000 0.640026 0.250000
O O6 0.250000 0.750000 0.500690
O O7 0.323366 0.673407 0.509177
O O8 0.250000 0.639018 0.750000
O O9 0.584808 0.814948 0.976465
O O10 0.979261 0.250000 0.250000
O O11 0.000000 0.141958 0.500000
#
# Coordination Sequence:
#
# PCOD9327344 Si02
#       4
#    16  16  16  16
#     4  10  23  45  72  95 137 185 232 281 342 424
#     4  10  21  35  61  97 137 168 224 278 338 405
#     4  10  23  41  69  99 133 181 225 287 343 407
#     4  10  26  40  69 102 140 175 226 290 357 414
#
# _framework density 20.578657
#
# number of rings (size 3 to 8) (size 9 to 14) (size 15 to 20)
#    1.500    0.500    0.000    2.250    7.000    2.000 
#    0.000    3.750    0.000   15.000    0.000    0.000 
#    0.000    0.000    0.000    0.000    0.000    0.000 
#
# Total GULP energy -89150.358709 kJ/mol
# GULP energy per Si atom -5571.897419 kJ/mol
# Density = 2.053182 g / cm^3
# Si number density = 20.578657 Si / 1000 Ang^3
#
#
#
# Elastic Constant Matrix: (Units=GPa)
#
#
# Indices 1 2 3 4 5 6 
#
# 1 110.7803 7.0522 44.2886 -0.0001 0.0012 0.0026
# 2 7.0522 79.0519 29.8330 0.0010 0.0006 0.0031
# 3 44.2886 29.8330 186.7971 -0.0018 0.0015 0.0087
# 4 -0.0001 0.0010 -0.0018 11.1617 0.0005 0.0044
# 5 0.0012 0.0006 0.0015 0.0005 26.8980 -0.0024
# 6 0.0026 0.0031 0.0087 0.0044 -0.0024 -64.2551
#
#
#
# Elastic Compliance Matrix: (Units=1/GPa)
#
#
# Indices 1 2 3 4 5 6 
#
# 1 0.009972 0.000003 -0.002365 0.000000 0.000000 0.000000
# 2 0.000003 0.013461 -0.002151 -0.000002 0.000000 0.000000
# 3 -0.002365 -0.002151 0.006258 0.000001 0.000000 0.000001
# 4 0.000000 -0.000002 0.000001 0.089592 -0.000001 0.000006
# 5 0.000000 0.000000 0.000000 -0.000001 0.037178 -0.000001
# 6 0.000000 0.000000 0.000001 0.000006 -0.000001 -0.015563
#
#
# Mechanical properties :
#
#
# Convention : Reuss Voigt Hill
#
# Bulk Modulus (GPa) = 48.38890 59.88631 54.13761
# Shear Modulus (GPa) = 31.88554 14.45796 23.17175
#
# Velocity S-wave (km/s) = 3.94057 2.65348 3.35925
# Velocity P-wave (km/s) = 6.65352 6.20905 6.43512
#
# Compressibility (1/GPa) = 0.02066589
#
# Stress axis : x y z
#
# Youngs Moduli (GPa) = 100.27975 74.28737 159.80724
#
# Poissons Ratio (x) = -0.00021 0.37791
# Poissons Ratio (y) = -0.00028 0.34367
# Poissons Ratio (z) = 0.23714 0.15976
#
# Static dielectric constant tensor:
#      x y z
#    x 1.731880 0.000000 0.000000 
#    y 0.000000 1.670600 0.000000 
#    z 0.000000 0.000000 1.558630 
# 
# From -- ./inp_files/5344.got.cif
#   From: 2010.05.17/outbox.cif.g08.bks.cpg/sg22_3_cif.got.tgz:5344.got - 2010.06.03 23:40:54.
