data_PCOD9327910
_publ_section_title
;
Structure prediction by ZEFSAII (Michael W. Deem and Ramdas Pophale) SiO2 
 PCOD9327910
Probable space group: F 2 2 2
;
_chemical_formula_sum "Si O2"
_cell_formula_units_Z 68
_cell_length_a 9.924168
_cell_length_b 17.033950
_cell_length_c 18.590831
_cell_angle_alpha 90.000000
_cell_angle_beta 90.000000
_cell_angle_gamma 90.000000
_cell_volume 3142.738737
_symmetry_space_group_name_H-M "F 2 2 2"
_symmetry_group_IT_number 22
_symmetry_cell_setting 'orthorhombic'
loop_
_space_group_symop_operation_xyz
x,y,z
-x,-y,z
x,-y,-z
-x,y,-z
x,1/2+y,1/2+z
-x,1/2-y,1/2+z
x,1/2-y,1/2-z
-x,1/2+y,1/2-z
1/2+x,y,1/2+z
1/2-x,-y,1/2+z
1/2+x,-y,1/2-z
1/2-x,y,1/2-z
1/2+x,1/2+y,z
1/2-x,1/2-y,z
1/2+x,1/2-y,-z
1/2-x,1/2+y,-z
loop_
_atom_site_type_symbol
_atom_site_label
_atom_site_fract_x
_atom_site_fract_y
_atom_site_fract_z
Si Si1 0.345875 0.343723 0.620871
Si Si2 0.282785 0.163597 0.335305
Si Si3 0.460305 0.308544 0.920606
Si Si4 0.852642 0.494648 0.815688
Si Si5 0.250000 0.250000 0.750000
O O1 0.452031 0.286964 0.582523
O O2 0.193923 0.331429 0.593434
O O3 0.363798 0.435547 0.627014
O O4 0.341504 0.305599 0.700983
O O5 0.250000 0.168720 0.250000
O O6 0.250000 0.250000 0.366542
O O7 0.437464 0.155821 0.361444
O O8 0.194513 0.086603 0.352996
O O9 0.500000 0.334142 0.000000
O O10 0.750000 0.509746 0.750000
O O11 0.000000 0.500000 0.780870
#
# Coordination Sequence:
#
# PCOD9327910 Si02
#       5
#    16  16  16  16   4
#     4  10  22  39  68  95 137 168 233 280 352 415
#     4  10  23  39  67  97 135 173 234 283 354 411
#     4  10  23  42  69  94 132 190 230 279 346 438
#     4  11  24  39  66 104 142 175 225 299 360 418
#     4   8  16  32  60  92 112 164 202 264 338 408
#
# _framework density 21.637179
#
# number of rings (size 3 to 8) (size 9 to 14) (size 15 to 20)
#    0.000    2.118    1.176    1.412    9.882    7.529 
#    0.000    2.353    0.000    0.000    0.000    0.000 
#    0.000    0.000    0.000    0.000    0.000    0.000 
#
# Total GULP energy -94675.542387 kJ/mol
# GULP energy per Si atom -5569.149552 kJ/mol
# Density = 2.158793 g / cm^3
# Si number density = 21.637179 Si / 1000 Ang^3
#
#
#
# Elastic Constant Matrix: (Units=GPa)
#
#
# Indices 1 2 3 4 5 6 
#
# 1 151.7250 28.8044 39.8817 0.0000 0.0000 0.0000
# 2 28.8044 137.9946 2.2256 0.0000 0.0000 0.0000
# 3 39.8817 2.2256 70.4664 0.0000 0.0000 0.0000
# 4 0.0000 0.0000 0.0000 6.4049 0.0000 0.0000
# 5 0.0000 0.0000 0.0000 0.0000 -0.6736 0.0000
# 6 0.0000 0.0000 0.0000 0.0000 0.0000 30.6741
#
#
#
# Elastic Compliance Matrix: (Units=1/GPa)
#
#
# Indices 1 2 3 4 5 6 
#
# 1 0.008087 -0.001615 -0.004526 0.000000 0.000000 0.000000
# 2 -0.001615 0.007573 0.000675 0.000000 0.000000 0.000000
# 3 -0.004526 0.000675 0.016731 0.000000 0.000000 0.000000
# 4 0.000000 0.000000 0.000000 0.156132 0.000000 0.000000
# 5 0.000000 0.000000 0.000000 0.000000 -1.484588 0.000000
# 6 0.000000 0.000000 0.000000 0.000000 0.000000 0.032601
#
#
# Mechanical properties :
#
#
# Convention : Reuss Voigt Hill
#
# Bulk Modulus (GPa) = 46.60041 55.77882 51.18962
# Shear Modulus (GPa) = -4.01485 26.56603 11.27559
#
# Velocity S-wave (km/s) = -1.36366 3.50779 2.28528
# Velocity P-wave (km/s) = 4.37087 6.49933 5.53831
#
# Compressibility (1/GPa) = 0.02145904
#
# Stress axis : x y z
#
# Youngs Moduli (GPa) = 123.65233 132.04977 59.76764
#
# Poissons Ratio (x) = 0.21327 0.27051
# Poissons Ratio (y) = 0.19971 -0.04034
# Poissons Ratio (z) = 0.55966 -0.08912
#
# Static dielectric constant tensor:
#      x y z
#    x 1.822000 0.000000 0.000000 
#    y 0.000000 1.893010 0.000000 
#    z 0.000000 0.000000 1.869450 
# 
# From -- ./inp_files/11258.got.cif
#   From: 2010.05.17/outbox.cif.g08.bks.cpg/sg22_6_cif.got.tgz:11258.got - 2010.06.03 23:40:54.
