data_PCOD9327901
_publ_section_title
;
Structure prediction by ZEFSAII (Michael W. Deem and Ramdas Pophale) SiO2 
 PCOD9327901
Probable space group: F 2 2 2
;
_chemical_formula_sum "Si O2"
_cell_formula_units_Z 100
_cell_length_a 17.318531
_cell_length_b 28.288709
_cell_length_c 9.534863
_cell_angle_alpha 90.000000
_cell_angle_beta 90.000000
_cell_angle_gamma 90.000000
_cell_volume 4671.309438
_symmetry_space_group_name_H-M "F 2 2 2"
_symmetry_group_IT_number 22
_symmetry_cell_setting 'orthorhombic'
loop_
_space_group_symop_operation_xyz
x,y,z
-x,-y,z
x,-y,-z
-x,y,-z
x,1/2+y,1/2+z
-x,1/2-y,1/2+z
x,1/2-y,1/2-z
-x,1/2+y,1/2-z
1/2+x,y,1/2+z
1/2-x,-y,1/2+z
1/2+x,-y,1/2-z
1/2-x,y,1/2-z
1/2+x,1/2+y,z
1/2-x,1/2-y,z
1/2+x,1/2-y,-z
1/2-x,1/2+y,-z
loop_
_atom_site_type_symbol
_atom_site_label
_atom_site_fract_x
_atom_site_fract_y
_atom_site_fract_z
Si Si1 0.672494 0.505744 0.666732
Si Si2 0.085917 0.355823 0.064672
Si Si3 0.420866 0.251074 0.413925
Si Si4 0.407264 0.652183 0.031745
Si Si5 0.659629 0.607342 0.705018
Si Si6 0.500000 0.000000 0.500000
Si Si7 0.096998 0.077323 0.175821
O O1 0.679601 0.500000 0.500000
O O2 0.750000 0.515053 0.750000
O O3 0.626546 0.553307 0.711274
O O4 0.646327 0.456252 0.726534
O O5 0.117252 0.302197 0.071034
O O6 0.073381 0.381763 0.213438
O O7 0.143856 0.380709 0.956710
O O8 0.000000 0.355517 0.000000
O O9 0.500000 0.252507 0.500000
O O10 0.439688 0.250000 0.250000
O O11 0.381917 0.203038 0.471078
O O12 0.387688 0.642522 0.193329
O O13 0.500000 0.647564 0.000000
O O14 0.368018 0.608455 0.949851
O O15 0.750000 0.611187 0.750000
O O16 0.455218 0.962511 0.599382
#
# Coordination Sequence:
#
# PCOD9327901 Si02
#       7
#    16  16  16  16  16   4  16
#     4  11  26  44  65  94 130 181 230 273 338 425
#     4  11  24  42  69 102 137 176 228 286 342 409
#     4  10  22  39  66 100 135 179 229 279 344 417
#     4  11  23  42  69  99 135 177 225 285 343 409
#     4  11  26  47  69  99 139 182 228 281 343 415
#     4  12  28  36  62 104 136 176 214 286 344 398
#     4  12  24  40  64  93 133 172 224 277 342 389
#
# _framework density 21.407273
#
# number of rings (size 3 to 8) (size 9 to 14) (size 15 to 20)
#    0.000    0.960    4.000    1.920   14.560    0.000 
#    0.000    1.600    0.000    0.960    0.000    0.000 
#    0.000    0.000    0.000    0.000    0.000    0.000 
#
# Total GULP energy -139223.777990 kJ/mol
# GULP energy per Si atom -5568.951120 kJ/mol
# Density = 2.135855 g / cm^3
# Si number density = 21.407273 Si / 1000 Ang^3
#
#
#
# Elastic Constant Matrix: (Units=GPa)
#
#
# Indices 1 2 3 4 5 6 
#
# 1 30.0937 3.3910 10.8600 0.0000 0.0000 0.0000
# 2 3.3910 170.7805 27.3766 0.0000 0.0000 0.0000
# 3 10.8600 27.3766 98.2239 0.0000 0.0000 0.0000
# 4 0.0000 0.0000 0.0000 53.7106 0.0000 0.0000
# 5 0.0000 0.0000 0.0000 0.0000 29.1540 0.0000
# 6 0.0000 0.0000 0.0000 0.0000 0.0000 10.0595
#
#
#
# Elastic Compliance Matrix: (Units=1/GPa)
#
#
# Indices 1 2 3 4 5 6 
#
# 1 0.034611 -0.000077 -0.003805 0.000000 0.000000 0.000000
# 2 -0.000077 0.006129 -0.001700 0.000000 0.000000 0.000000
# 3 -0.003805 -0.001700 0.011075 0.000000 0.000000 0.000000
# 4 0.000000 0.000000 0.000000 0.018618 0.000000 0.000000
# 5 0.000000 0.000000 0.000000 0.000000 0.034301 0.000000
# 6 0.000000 0.000000 0.000000 0.000000 0.000000 0.099408
#
#
# Mechanical properties :
#
#
# Convention : Reuss Voigt Hill
#
# Bulk Modulus (GPa) = 24.59928 42.48369 33.54148
# Shear Modulus (GPa) = 21.84754 35.74953 28.79853
#
# Velocity S-wave (km/s) = 3.19810 4.09096 3.67177
# Velocity P-wave (km/s) = 5.01529 6.49640 5.80329
#
# Compressibility (1/GPa) = 0.04065160
#
# Stress axis : x y z
#
# Youngs Moduli (GPa) = 28.89217 163.14559 90.29086
#
# Poissons Ratio (x) = 0.01260 0.34358
# Poissons Ratio (y) = 0.00223 0.15348
# Poissons Ratio (z) = 0.10994 0.27732
#
# Static dielectric constant tensor:
#      x y z
#    x 1.800020 0.000000 0.000000 
#    y 0.000000 1.978400 0.000000 
#    z 0.000000 0.000000 1.762640 
# 
# From -- ./inp_files/12954.got.cif
#   From: 2010.05.17/outbox.cif.g08.bks.cpg/sg22_7_cif.got.tgz:12954.got - 2010.06.03 23:40:54.
