data_PCOD9327037
_publ_section_title
;
Structure prediction by ZEFSAII (Michael W. Deem and Ramdas Pophale) SiO2 
 PCOD9327037
Probable space group: F 2 2 2
;
_chemical_formula_sum "Si O2"
_cell_formula_units_Z 116
_cell_length_a 12.086478
_cell_length_b 17.739087
_cell_length_c 25.923950
_cell_angle_alpha 90.000000
_cell_angle_beta 90.000000
_cell_angle_gamma 90.000000
_cell_volume 5558.174849
_symmetry_space_group_name_H-M "F 2 2 2"
_symmetry_group_IT_number 22
_symmetry_cell_setting 'orthorhombic'
loop_
_space_group_symop_operation_xyz
x,y,z
-x,-y,z
x,-y,-z
-x,y,-z
x,1/2+y,1/2+z
-x,1/2-y,1/2+z
x,1/2-y,1/2-z
-x,1/2+y,1/2-z
1/2+x,y,1/2+z
1/2-x,-y,1/2+z
1/2+x,-y,1/2-z
1/2-x,y,1/2-z
1/2+x,1/2+y,z
1/2-x,1/2-y,z
1/2+x,1/2-y,-z
1/2-x,1/2+y,-z
loop_
_atom_site_type_symbol
_atom_site_label
_atom_site_fract_x
_atom_site_fract_y
_atom_site_fract_z
Si Si1 0.044134 0.803154 0.129950
Si Si2 0.896939 0.453066 0.087174
Si Si3 0.346741 0.186866 0.441356
Si Si4 0.758304 0.918996 0.358376
Si Si5 0.221095 0.338041 0.550899
Si Si6 0.910190 0.379022 0.713656
Si Si7 0.985899 0.355115 0.826047
Si Si8 0.250000 0.750000 0.750000
O O1 0.151389 0.838984 0.103505
O O2 0.962282 0.783287 0.081674
O O3 0.996320 0.864764 0.168643
O O4 0.041886 0.726288 0.164075
O O5 0.812333 0.511104 0.112976
O O6 0.826915 0.393377 0.053361
O O7 0.000000 0.500000 0.062757
O O8 0.950553 0.409354 0.135219
O O9 0.250000 0.250000 0.440017
O O10 0.313274 0.123649 0.400663
O O11 0.347780 0.150938 0.498293
O O12 0.681711 0.936671 0.308568
O O13 0.857331 0.861591 0.342973
O O14 0.250000 0.250000 0.548353
O O15 0.974953 0.384834 0.767416
O O16 0.833397 0.303818 0.719018
#
# Coordination Sequence:
#
# PCOD9327037 Si02
#       8
#    16  16  16  16  16  16  16   4
#     4  11  20  36  62  96 126 159 213 278 332 389
#     4  10  24  43  64  90 132 179 218 273 333 405
#     4  10  21  36  64  95 125 162 215 275 332 399
#     4  10  20  38  60  92 124 163 216 268 329 389
#     4  11  23  42  63  89 129 173 217 274 335 395
#     4  11  20  32  62  95 124 166 212 272 325 389
#     4  11  18  36  59  93 128 160 212 270 329 391
#     4  12  16  28  60  92 126 156 218 264 316 372
#
# _framework density 20.870159999999998
#
# number of rings (size 3 to 8) (size 9 to 14) (size 15 to 20)
#    0.000    1.379    5.517    0.414    1.931    0.552 
#    0.000   15.172    0.000    3.310    0.000    0.000 
#    0.000    0.000    0.000    0.000    0.000    0.000 
#
# Total GULP energy -161567.692984 kJ/mol
# GULP energy per Si atom -5571.299758 kJ/mol
# Density = 2.082266 g / cm^3
# Si number density = 20.870160 Si / 1000 Ang^3
#
#
#
# Elastic Constant Matrix: (Units=GPa)
#
#
# Indices 1 2 3 4 5 6 
#
# 1 43.1779 15.8641 21.4112 0.0000 0.0000 0.0000
# 2 15.8641 38.9594 -2.4732 0.0000 0.0000 0.0000
# 3 21.4112 -2.4732 105.9246 0.0000 0.0000 0.0000
# 4 0.0000 0.0000 0.0000 -44.9416 0.0000 0.0000
# 5 0.0000 0.0000 0.0000 0.0000 25.3665 0.0000
# 6 0.0000 0.0000 0.0000 0.0000 0.0000 27.3523
#
#
#
# Elastic Compliance Matrix: (Units=1/GPa)
#
#
# Indices 1 2 3 4 5 6 
#
# 1 0.031283 -0.013159 -0.006631 0.000000 0.000000 0.000000
# 2 -0.013159 0.031241 0.003389 0.000000 0.000000 0.000000
# 3 -0.006631 0.003389 0.010860 0.000000 0.000000 0.000000
# 4 0.000000 0.000000 0.000000 -0.022251 0.000000 0.000000
# 5 0.000000 0.000000 0.000000 0.000000 0.039422 0.000000
# 6 0.000000 0.000000 0.000000 0.000000 0.000000 0.036560
#
#
# Mechanical properties :
#
#
# Convention : Reuss Voigt Hill
#
# Bulk Modulus (GPa) = 24.64063 28.62956 26.63510
# Shear Modulus (GPa) = 28.82774 11.77276 20.30025
#
# Velocity S-wave (km/s) = 3.72060 2.37765 3.12219
# Velocity P-wave (km/s) = 5.50358 4.61360 5.07813
#
# Compressibility (1/GPa) = 0.04058337
#
# Stress axis : x y z
#
# Youngs Moduli (GPa) = 31.96632 32.00892 92.08003
#
# Poissons Ratio (x) = 0.42121 0.61055
# Poissons Ratio (y) = 0.42065 -0.31210
# Poissons Ratio (z) = 0.21196 -0.10849
#
# Static dielectric constant tensor:
#      x y z
#    x 1.805780 0.000000 0.000000 
#    y 0.000000 1.863370 0.000000 
#    z 0.000000 0.000000 1.800320 
# 
# From -- ./inp_files/52716.got.cif
#   From: 2010.05.17/outbox.cif.g08.bks.cpg/sg22_27_cif.got.tgz:52716.got - 2010.06.03 23:40:54.
