data_PCOD9327023
_publ_section_title
;
Structure prediction by ZEFSAII (Michael W. Deem and Ramdas Pophale) SiO2 
 PCOD9327023
Probable space group: F 2 2 2
;
_chemical_formula_sum "Si O2"
_cell_formula_units_Z 88
_cell_length_a 11.611924
_cell_length_b 15.683604
_cell_length_c 24.670493
_cell_angle_alpha 90.000000
_cell_angle_beta 90.000000
_cell_angle_gamma 90.000000
_cell_volume 4492.911676
_symmetry_space_group_name_H-M "F 2 2 2"
_symmetry_group_IT_number 22
_symmetry_cell_setting 'orthorhombic'
loop_
_space_group_symop_operation_xyz
x,y,z
-x,-y,z
x,-y,-z
-x,y,-z
x,1/2+y,1/2+z
-x,1/2-y,1/2+z
x,1/2-y,1/2-z
-x,1/2+y,1/2-z
1/2+x,y,1/2+z
1/2-x,-y,1/2+z
1/2+x,-y,1/2-z
1/2-x,y,1/2-z
1/2+x,1/2+y,z
1/2-x,1/2-y,z
1/2+x,1/2-y,-z
1/2-x,1/2+y,-z
loop_
_atom_site_type_symbol
_atom_site_label
_atom_site_fract_x
_atom_site_fract_y
_atom_site_fract_z
Si Si1 0.705770 0.838002 0.162636
Si Si2 0.313297 0.659268 0.478723
Si Si3 0.424432 0.615645 0.903032
Si Si4 0.250000 0.021306 0.250000
Si Si5 0.000000 0.500000 0.694898
Si Si6 0.844024 0.000000 0.000000
Si Si7 0.476859 0.196933 0.080107
O O1 0.750000 0.750000 0.188669
O O2 0.796945 0.853679 0.114272
O O3 0.710673 0.917799 0.201296
O O4 0.581930 0.823586 0.136788
O O5 0.250000 0.750000 0.478104
O O6 0.232633 0.577547 0.477378
O O7 0.393272 0.663140 0.532463
O O8 0.400145 0.655964 0.428503
O O9 0.478417 0.577687 0.847853
O O10 0.407935 0.547698 0.950661
O O11 0.486763 0.700426 0.924447
O O12 0.122823 0.984914 0.227749
#
# Coordination Sequence:
#
# PCOD9327023 Si02
#       7
#    16  16  16   8   8   8  16
#     4   9  17  38  63  85 111 159 215 264 317 384
#     4  11  22  37  55  89 135 173 210 265 317 387
#     4  10  21  37  62  89 125 170 212 257 315 394
#     4  10  21  42  64  94 119 158 210 284 329 394
#     4  10  24  41  62  96 126 159 220 270 338 392
#     4  12  22  38  60  92 136 175 216 261 326 383
#     4  10  20  38  58  85 127 166 219 261 317 388
#
# _framework density 19.586407000000001
#
# number of rings (size 3 to 8) (size 9 to 14) (size 15 to 20)
#    0.000    1.818    3.636    0.818    2.545    1.818 
#    6.545    0.000    0.000    0.000    4.727    0.000 
#    0.000    0.000    0.000    0.000    0.000    0.000 
#
# Total GULP energy -122543.505826 kJ/mol
# GULP energy per Si atom -5570.159356 kJ/mol
# Density = 1.954183 g / cm^3
# Si number density = 19.586407 Si / 1000 Ang^3
#
#
#
# Elastic Constant Matrix: (Units=GPa)
#
#
# Indices 1 2 3 4 5 6 
#
# 1 107.2350 38.3380 40.8915 0.0000 0.0000 0.0000
# 2 38.3380 85.3283 20.6867 0.0000 0.0000 0.0000
# 3 40.8915 20.6867 65.2656 0.0000 0.0000 0.0000
# 4 0.0000 0.0000 0.0000 60.4134 0.0000 0.0000
# 5 0.0000 0.0000 0.0000 0.0000 26.7438 0.0000
# 6 0.0000 0.0000 0.0000 0.0000 0.0000 -20.8188
#
#
#
# Elastic Compliance Matrix: (Units=1/GPa)
#
#
# Indices 1 2 3 4 5 6 
#
# 1 0.013617 -0.004387 -0.007141 0.000000 0.000000 0.000000
# 2 -0.004387 0.014108 -0.001723 0.000000 0.000000 0.000000
# 3 -0.007141 -0.001723 0.020342 0.000000 0.000000 0.000000
# 4 0.000000 0.000000 0.000000 0.016553 0.000000 0.000000
# 5 0.000000 0.000000 0.000000 0.000000 0.037392 0.000000
# 6 0.000000 0.000000 0.000000 0.000000 0.000000 -0.048033
#
#
# Mechanical properties :
#
#
# Convention : Reuss Voigt Hill
#
# Bulk Modulus (GPa) = 46.37098 50.85125 48.61112
# Shear Modulus (GPa) = 57.03299 23.79519 40.41409
#
# Velocity S-wave (km/s) = 5.40202 3.48930 4.54737
# Velocity P-wave (km/s) = 7.91427 6.50019 7.24183
#
# Compressibility (1/GPa) = 0.02156521
#
# Stress axis : x y z
#
# Youngs Moduli (GPa) = 73.43943 70.88076 49.15866
#
# Poissons Ratio (x) = 0.31094 0.35104
# Poissons Ratio (y) = 0.32216 0.08471
# Poissons Ratio (z) = 0.52443 0.12215
#
# Static dielectric constant tensor:
#      x y z
#    x 1.754950 0.000000 0.000000 
#    y 0.000000 1.712520 0.000000 
#    z 0.000000 0.000000 1.710230 
# 
# From -- ./inp_files/24566.got.cif
#   From: 2010.05.17/outbox.cif.g08.bks.cpg/sg22_13_cif.got.tgz:24566.got - 2010.06.03 23:40:54.
