data_PCOD9327310
_publ_section_title
;
Structure prediction by ZEFSAII (Michael W. Deem and Ramdas Pophale) SiO2 
 PCOD9327310
Probable space group: F 2 2 2
;
_chemical_formula_sum "Si O2"
_cell_formula_units_Z 88
_cell_length_a 14.965762
_cell_length_b 14.055175
_cell_length_c 25.168770
_cell_angle_alpha 90.000000
_cell_angle_beta 90.000000
_cell_angle_gamma 90.000000
_cell_volume 5294.160261
_symmetry_space_group_name_H-M "F 2 2 2"
_symmetry_group_IT_number 22
_symmetry_cell_setting 'orthorhombic'
loop_
_space_group_symop_operation_xyz
x,y,z
-x,-y,z
x,-y,-z
-x,y,-z
x,1/2+y,1/2+z
-x,1/2-y,1/2+z
x,1/2-y,1/2-z
-x,1/2+y,1/2-z
1/2+x,y,1/2+z
1/2-x,-y,1/2+z
1/2+x,-y,1/2-z
1/2-x,y,1/2-z
1/2+x,1/2+y,z
1/2-x,1/2-y,z
1/2+x,1/2-y,-z
1/2-x,1/2+y,-z
loop_
_atom_site_type_symbol
_atom_site_label
_atom_site_fract_x
_atom_site_fract_y
_atom_site_fract_z
Si Si1 0.500000 0.752861 0.500000
Si Si2 0.000000 0.500000 0.869552
Si Si3 0.140369 0.868300 0.307632
Si Si4 0.931801 0.586446 0.574872
Si Si5 0.348273 0.859620 0.316166
Si Si6 0.383470 0.085691 0.039326
Si Si7 0.785487 0.000000 0.000000
O O1 0.525161 0.819398 0.549487
O O2 0.418283 0.683841 0.515375
O O3 0.934088 0.570191 0.837486
O O4 0.933986 0.436555 0.906179
O O5 0.243725 0.887447 0.323767
O O6 0.130268 0.886870 0.244549
O O7 0.135794 0.754621 0.317682
O O8 0.904758 0.597418 0.636038
O O9 0.845809 0.561583 0.539234
O O10 0.000000 0.500000 0.568114
O O11 0.277139 0.069324 0.035846
O O12 0.410485 0.000000 0.000000
#
# Coordination Sequence:
#
# PCOD9327310 Si02
#       7
#     8   8  16  16  16  16   8
#     4  12  20  38  56  84 108 154 186 228 270 342
#     4  12  17  34  54  92 110 141 174 250 284 312
#     4   9  20  35  60  86 108 141 194 231 281 337
#     4  12  23  38  55  79 119 154 187 225 280 341
#     4   9  20  38  56  82 112 148 187 232 278 331
#     4  10  21  34  56  81 114 135 187 230 276 326
#     4  10  21  41  50  84 114 150 186 227 271 348
#
# _framework density 16.622088000000002
#
# number of rings (size 3 to 8) (size 9 to 14) (size 15 to 20)
#    0.545    1.091    3.636    3.273    1.273    2.182 
#    0.000    0.000    0.000    0.000    0.000    0.000 
#    0.000    0.000    0.000    0.000    0.000    0.000 
#
# Total GULP energy -122520.070280 kJ/mol
# GULP energy per Si atom -5569.094104 kJ/mol
# Density = 1.658425 g / cm^3
# Si number density = 16.622088 Si / 1000 Ang^3
#
#
#
# Elastic Constant Matrix: (Units=GPa)
#
#
# Indices 1 2 3 4 5 6 
#
# 1 99.6692 50.7738 53.1668 0.0000 0.0000 0.0000
# 2 50.7738 91.4453 43.2526 0.0000 0.0000 0.0000
# 3 53.1668 43.2526 88.9075 0.0000 0.0000 0.0000
# 4 0.0000 0.0000 0.0000 20.0222 0.0000 0.0000
# 5 0.0000 0.0000 0.0000 0.0000 55.3773 0.0000
# 6 0.0000 0.0000 0.0000 0.0000 0.0000 -262.9945
#
#
#
# Elastic Compliance Matrix: (Units=1/GPa)
#
#
# Indices 1 2 3 4 5 6 
#
# 1 0.016931 -0.005990 -0.007211 0.000000 0.000000 0.000000
# 2 -0.005990 0.016323 -0.004359 0.000000 0.000000 0.000000
# 3 -0.007211 -0.004359 0.017680 0.000000 0.000000 0.000000
# 4 0.000000 0.000000 0.000000 0.049945 0.000000 0.000000
# 5 0.000000 0.000000 0.000000 0.000000 0.018058 0.000000
# 6 0.000000 0.000000 0.000000 0.000000 0.000000 -0.003802
#
#
# Mechanical properties :
#
#
# Convention : Reuss Voigt Hill
#
# Bulk Modulus (GPa) = 63.23133 63.82316 63.52724
# Shear Modulus (GPa) = 32.14895 -28.66374 1.74260
#
# Velocity S-wave (km/s) = 4.40262 -4.15714 1.02501
# Velocity P-wave (km/s) = 7.99795 3.92906 6.30098
#
# Compressibility (1/GPa) = 0.01581495
#
# Stress axis : x y z
#
# Youngs Moduli (GPa) = 59.06268 61.26243 56.56036
#
# Poissons Ratio (x) = 0.36698 0.40784
# Poissons Ratio (y) = 0.35380 0.24654
# Poissons Ratio (z) = 0.42588 0.26704
#
# Static dielectric constant tensor:
#      x y z
#    x 1.589160 0.000000 0.000000 
#    y 0.000000 1.539540 0.000000 
#    z 0.000000 0.000000 1.564490 
# 
# From -- ./inp_files/48883.got.cif
#   From: 2010.05.17/outbox.cif.g08.bks.cpg/sg22_25_cif.got.tgz:48883.got - 2010.06.03 23:40:54.
