data_PCOD9327238
_publ_section_title
;
Structure prediction by ZEFSAII (Michael W. Deem and Ramdas Pophale) SiO2 
 PCOD9327238
Probable space group: F 2 2 2
;
_chemical_formula_sum "Si O2"
_cell_formula_units_Z 104
_cell_length_a 21.693469
_cell_length_b 8.655977
_cell_length_c 25.823146
_cell_angle_alpha 90.000000
_cell_angle_beta 90.000000
_cell_angle_gamma 90.000000
_cell_volume 4849.023066
_symmetry_space_group_name_H-M "F 2 2 2"
_symmetry_group_IT_number 22
_symmetry_cell_setting 'orthorhombic'
loop_
_space_group_symop_operation_xyz
x,y,z
-x,-y,z
x,-y,-z
-x,y,-z
x,1/2+y,1/2+z
-x,1/2-y,1/2+z
x,1/2-y,1/2-z
-x,1/2+y,1/2-z
1/2+x,y,1/2+z
1/2-x,-y,1/2+z
1/2+x,-y,1/2-z
1/2-x,y,1/2-z
1/2+x,1/2+y,z
1/2-x,1/2-y,z
1/2+x,1/2-y,-z
1/2-x,1/2+y,-z
loop_
_atom_site_type_symbol
_atom_site_label
_atom_site_fract_x
_atom_site_fract_y
_atom_site_fract_z
Si Si1 0.597400 0.272214 0.188319
Si Si2 0.393709 0.374593 0.537421
Si Si3 0.334556 0.872534 0.535412
Si Si4 0.432651 0.431129 0.904908
Si Si5 0.250000 0.750000 0.624803
Si Si6 0.966134 0.344699 0.799086
Si Si7 0.648435 0.976621 0.141011
O O1 0.600623 0.250000 0.250000
O O2 0.604246 0.418550 0.150299
O O3 0.524868 0.238969 0.176229
O O4 0.643678 0.141279 0.168811
O O5 0.426096 0.500000 0.500000
O O6 0.349324 0.273531 0.500573
O O7 0.430978 0.240356 0.568325
O O8 0.359323 0.476606 0.581080
O O9 0.296937 0.832525 0.585979
O O10 0.301309 0.000000 0.500000
O O11 0.396195 0.955285 0.556499
O O12 0.500000 0.500000 0.898386
O O13 0.291594 0.623480 0.653501
O O14 0.942223 0.250000 0.750000
O O15 0.912544 0.386688 0.838764
O O16 0.000000 0.500000 0.778616
#
# Coordination Sequence:
#
# PCOD9327238 Si02
#       7
#    16  16  16  16   8  16  16
#     4   9  20  41  70  95 124 170 217 272 328 400
#     4  10  20  42  62  91 133 171 222 267 329 398
#     4  10  24  41  63  95 121 177 223 270 326 389
#     4  10  23  41  65  96 135 165 217 279 337 396
#     4  12  24  40  65  92 134 172 223 274 328 388
#     4   9  19  39  65  99 125 167 214 262 328 391
#     4  10  22  39  62  98 129 166 221 273 326 387
#
# _framework density 21.447620000000001
#
# number of rings (size 3 to 8) (size 9 to 14) (size 15 to 20)
#    0.000    2.154    1.538    0.000    4.308    7.692 
#    0.000    8.077    0.000    0.923    0.000    0.000 
#    0.000    0.000    0.000    0.000    0.000    0.000 
#
# Total GULP energy -144875.482392 kJ/mol
# GULP energy per Si atom -5572.133938 kJ/mol
# Density = 2.139880 g / cm^3
# Si number density = 21.447620 Si / 1000 Ang^3
#
#
#
# Elastic Constant Matrix: (Units=GPa)
#
#
# Indices 1 2 3 4 5 6 
#
# 1 65.7740 42.4433 35.6947 0.0000 0.0000 0.0000
# 2 42.4433 75.6128 36.4618 0.0000 0.0000 -0.0001
# 3 35.6947 36.4618 100.0983 0.0000 0.0000 0.0000
# 4 0.0000 0.0000 0.0000 44.6860 0.0000 0.0000
# 5 0.0000 0.0000 0.0000 0.0000 41.8492 0.0000
# 6 0.0000 -0.0001 0.0000 0.0000 0.0000 30.8715
#
#
#
# Elastic Compliance Matrix: (Units=1/GPa)
#
#
# Indices 1 2 3 4 5 6 
#
# 1 0.025550 -0.012068 -0.004715 0.000000 0.000000 0.000000
# 2 -0.012068 0.021743 -0.003617 0.000000 0.000000 0.000000
# 3 -0.004715 -0.003617 0.012989 0.000000 0.000000 0.000000
# 4 0.000000 0.000000 0.000000 0.022378 0.000000 0.000000
# 5 0.000000 0.000000 0.000000 0.000000 0.023895 0.000000
# 6 0.000000 0.000000 0.000000 0.000000 0.000000 0.032392
#
#
# Mechanical properties :
#
#
# Convention : Reuss Voigt Hill
#
# Bulk Modulus (GPa) = 51.32845 52.29831 51.81338
# Shear Modulus (GPa) = 26.84675 31.94035 29.39355
#
# Velocity S-wave (km/s) = 3.54183 3.86324 3.70602
# Velocity P-wave (km/s) = 6.38044 6.65857 6.52099
#
# Compressibility (1/GPa) = 0.01948237
#
# Stress axis : x y z
#
# Youngs Moduli (GPa) = 39.13932 45.99085 76.98803
#
# Poissons Ratio (x) = 0.55502 0.36300
# Poissons Ratio (y) = 0.47233 0.27846
# Poissons Ratio (z) = 0.18454 0.16634
#
# Static dielectric constant tensor:
#      x y z
#    x 1.754450 0.000000 0.000000 
#    y 0.000000 1.863880 0.000000 
#    z 0.000000 0.000000 1.847120 
# 
# From -- ./inp_files/53935.got.cif
#   From: 2010.05.17/outbox.cif.g08.bks.cpg/sg22_27_cif.got.tgz:53935.got - 2010.06.03 23:40:54.
