data_PCOD9327341
_publ_section_title
;
Structure prediction by ZEFSAII (Michael W. Deem and Ramdas Pophale) SiO2 
 PCOD9327341
Probable space group: F 2 2 2
;
_chemical_formula_sum "Si O2"
_cell_formula_units_Z 120
_cell_length_a 14.501001
_cell_length_b 20.789770
_cell_length_c 20.434701
_cell_angle_alpha 90.000000
_cell_angle_beta 90.000000
_cell_angle_gamma 90.000000
_cell_volume 6160.499898
_symmetry_space_group_name_H-M "F 2 2 2"
_symmetry_group_IT_number 22
_symmetry_cell_setting 'orthorhombic'
loop_
_space_group_symop_operation_xyz
x,y,z
-x,-y,z
x,-y,-z
-x,y,-z
x,1/2+y,1/2+z
-x,1/2-y,1/2+z
x,1/2-y,1/2-z
-x,1/2+y,1/2-z
1/2+x,y,1/2+z
1/2-x,-y,1/2+z
1/2+x,-y,1/2-z
1/2-x,y,1/2-z
1/2+x,1/2+y,z
1/2-x,1/2-y,z
1/2+x,1/2-y,-z
1/2-x,1/2+y,-z
loop_
_atom_site_type_symbol
_atom_site_label
_atom_site_fract_x
_atom_site_fract_y
_atom_site_fract_z
Si Si1 0.795637 0.890487 0.180732
Si Si2 0.327690 0.199636 0.105446
Si Si3 0.894760 0.856784 0.908511
Si Si4 0.250000 0.413644 0.750000
Si Si5 0.295078 0.184065 0.850643
Si Si6 0.602911 0.484698 0.155823
Si Si7 0.458924 0.286256 0.183676
Si Si8 0.096835 0.771610 0.472878
O O1 0.750000 0.909598 0.250000
O O2 0.711178 0.864991 0.136476
O O3 0.873517 0.835729 0.195452
O O4 0.848744 0.947128 0.143061
O O5 0.250000 0.250000 0.126227
O O6 0.419785 0.230369 0.135884
O O7 0.333300 0.202750 0.027494
O O8 0.788138 0.847526 0.891163
O O9 0.910884 0.933305 0.903412
O O10 0.906698 0.806651 0.968443
O O11 0.960910 0.826105 0.852267
O O12 0.313309 0.366384 0.705872
O O13 0.176029 0.452434 0.706480
O O14 0.250000 0.250000 0.824940
O O15 0.373504 0.202853 0.902028
O O16 0.500000 0.500000 0.182259
O O17 0.487560 0.250000 0.250000
O O18 0.000000 0.795078 0.500000
#
# Coordination Sequence:
#
# PCOD9327341 Si02
#       8
#    16  16  16   8  16  16  16  16
#     4  11  21  38  60  92 133 167 214 274 332 396
#     4  10  21  35  61  89 124 165 200 264 343 383
#     4  10  21  36  58  85 127 165 209 265 314 396
#     4  10  21  38  62  88 125 180 218 276 330 378
#     4   9  20  37  57  86 124 163 212 265 328 395
#     4  11  22  39  59  91 128 177 225 266 319 404
#     4  11  20  33  58  96 129 159 208 272 343 397
#     4  11  21  40  63  93 125 165 209 274 337 401
#
# _framework density 19.478940000000001
#
# number of rings (size 3 to 8) (size 9 to 14) (size 15 to 20)
#    0.000    1.600    4.667    1.400    0.000    4.267 
#    2.400    0.000    0.000   19.600    0.000    3.733 
#    0.000    0.000    0.000    0.000    0.000    0.000 
#
# Total GULP energy -167036.406640 kJ/mol
# GULP energy per Si atom -5567.880221 kJ/mol
# Density = 1.943460 g / cm^3
# Si number density = 19.478940 Si / 1000 Ang^3
#
#
#
# Elastic Constant Matrix: (Units=GPa)
#
#
# Indices 1 2 3 4 5 6 
#
# 1 86.9813 25.6271 10.0528 0.0000 0.0000 0.0000
# 2 25.6271 92.0919 25.6964 0.0000 0.0000 0.0000
# 3 10.0528 25.6964 59.2184 0.0000 0.0000 0.0000
# 4 0.0000 0.0000 0.0000 10.8684 0.0000 0.0000
# 5 0.0000 0.0000 0.0000 0.0000 28.9167 0.0000
# 6 0.0000 0.0000 0.0000 0.0000 0.0000 29.6636
#
#
#
# Elastic Compliance Matrix: (Units=1/GPa)
#
#
# Indices 1 2 3 4 5 6 
#
# 1 0.012549 -0.003297 -0.000700 0.000000 0.000000 0.000000
# 2 -0.003297 0.013221 -0.005177 0.000000 0.000000 0.000000
# 3 -0.000700 -0.005177 0.019252 0.000000 0.000000 0.000000
# 4 0.000000 0.000000 0.000000 0.092010 0.000000 0.000000
# 5 0.000000 0.000000 0.000000 0.000000 0.034582 0.000000
# 6 0.000000 0.000000 0.000000 0.000000 0.000000 0.033711
#
#
# Mechanical properties :
#
#
# Convention : Reuss Voigt Hill
#
# Bulk Modulus (GPa) = 37.48939 40.11601 38.80270
# Shear Modulus (GPa) = 21.49951 25.68410 23.59181
#
# Velocity S-wave (km/s) = 3.32585 3.63513 3.48393
# Velocity P-wave (km/s) = 5.83406 6.18532 6.01226
#
# Compressibility (1/GPa) = 0.02667421
#
# Stress axis : x y z
#
# Youngs Moduli (GPa) = 79.68803 75.63876 51.94283
#
# Poissons Ratio (x) = 0.24937 0.03634
# Poissons Ratio (y) = 0.26272 0.26892
# Poissons Ratio (z) = 0.05576 0.39159
#
# Static dielectric constant tensor:
#      x y z
#    x 1.714050 0.000000 0.000000 
#    y 0.000000 1.738150 0.000000 
#    z 0.000000 0.000000 1.723750 
# 
# From -- ./inp_files/43772.got.cif
#   From: 2010.05.17/outbox.cif.g08.bks.cpg/sg22_22_cif.got.tgz:43772.got - 2010.06.03 23:40:54.
