data_PCOD9327630
_publ_section_title
;
Structure prediction by ZEFSAII (Michael W. Deem and Ramdas Pophale) SiO2 
 PCOD9327630
Probable space group: F 2 2 2
;
_chemical_formula_sum "Si O2"
_cell_formula_units_Z 96
_cell_length_a 10.210199
_cell_length_b 25.026409
_cell_length_c 16.818883
_cell_angle_alpha 90.000000
_cell_angle_beta 90.000000
_cell_angle_gamma 90.000000
_cell_volume 4297.638623
_symmetry_space_group_name_H-M "F 2 2 2"
_symmetry_group_IT_number 22
_symmetry_cell_setting 'orthorhombic'
loop_
_space_group_symop_operation_xyz
x,y,z
-x,-y,z
x,-y,-z
-x,y,-z
x,1/2+y,1/2+z
-x,1/2-y,1/2+z
x,1/2-y,1/2-z
-x,1/2+y,1/2-z
1/2+x,y,1/2+z
1/2-x,-y,1/2+z
1/2+x,-y,1/2-z
1/2-x,y,1/2-z
1/2+x,1/2+y,z
1/2-x,1/2-y,z
1/2+x,1/2-y,-z
1/2-x,1/2+y,-z
loop_
_atom_site_type_symbol
_atom_site_label
_atom_site_fract_x
_atom_site_fract_y
_atom_site_fract_z
Si Si1 0.461934 0.226963 0.335261
Si Si2 0.140005 0.690241 0.962693
Si Si3 0.324007 0.500000 0.500000
Si Si4 0.936304 0.897225 0.199011
Si Si5 0.161808 0.582469 0.869701
Si Si6 0.419114 0.555252 0.070831
Si Si7 0.750000 0.750000 0.898570
O O1 0.423903 0.250000 0.250000
O O2 0.387642 0.258390 0.405809
O O3 0.429557 0.164739 0.325861
O O4 0.616878 0.238835 0.350686
O O5 0.177063 0.638916 0.913156
O O6 0.230209 0.701806 0.038596
O O7 0.000000 0.677632 0.000000
O O8 0.385841 0.462891 0.431223
O O9 0.225963 0.458454 0.544040
O O10 0.928929 0.907655 0.292834
O O11 0.809232 0.927923 0.162811
O O12 0.065484 0.917312 0.154976
O O13 0.500000 0.500000 0.078394
O O14 0.500000 0.585064 0.000000
#
# Coordination Sequence:
#
# PCOD9327630 Si02
#       7
#    16  16   8  16  16  16   8
#     4  11  22  41  62  96 132 170 209 272 328 393
#     4  10  22  41  59  90 131 166 216 261 320 401
#     4  10  21  40  69  90 124 166 223 276 321 388
#     4  11  22  35  67  97 130 164 214 276 338 389
#     4  11  22  39  62  94 128 168 214 272 333 394
#     4   9  17  36  58  93 124 151 202 270 315 371
#     4  10  23  38  65  88 128 174 218 250 319 404
#
# _framework density 22.337847
#
# number of rings (size 3 to 8) (size 9 to 14) (size 15 to 20)
#    0.000    1.833    5.000    1.250    2.333    2.000 
#    0.000    2.083    0.000    0.000    0.000    0.000 
#    0.000    0.000    0.000    0.000    0.000    0.000 
#
# Total GULP energy -133958.739594 kJ/mol
# GULP energy per Si atom -5581.614150 kJ/mol
# Density = 2.228700 g / cm^3
# Si number density = 22.337847 Si / 1000 Ang^3
#
#
#
# Elastic Constant Matrix: (Units=GPa)
#
#
# Indices 1 2 3 4 5 6 
#
# 1 59.0646 9.7244 20.9333 0.0000 0.0000 0.0000
# 2 9.7244 87.3356 53.6471 0.0000 0.0000 0.0000
# 3 20.9333 53.6471 117.6677 0.0000 0.0000 0.0000
# 4 0.0000 0.0000 0.0000 39.0071 0.0000 0.0000
# 5 0.0000 0.0000 0.0000 0.0000 15.8081 0.0000
# 6 0.0000 0.0000 0.0000 0.0000 0.0000 26.2595
#
#
#
# Elastic Compliance Matrix: (Units=1/GPa)
#
#
# Indices 1 2 3 4 5 6 
#
# 1 0.018070 -0.000052 -0.003191 0.000000 0.000000 0.000000
# 2 -0.000052 0.015904 -0.007242 0.000000 0.000000 0.000000
# 3 -0.003191 -0.007242 0.012368 0.000000 0.000000 0.000000
# 4 0.000000 0.000000 0.000000 0.025636 0.000000 0.000000
# 5 0.000000 0.000000 0.000000 0.000000 0.063259 0.000000
# 6 0.000000 0.000000 0.000000 0.000000 0.000000 0.038081
#
#
# Mechanical properties :
#
#
# Convention : Reuss Voigt Hill
#
# Bulk Modulus (GPa) = 39.41240 48.07528 43.74384
# Shear Modulus (GPa) = 24.66142 28.19915 26.43029
#
# Velocity S-wave (km/s) = 3.32628 3.55687 3.44351
# Velocity P-wave (km/s) = 5.69511 6.19976 5.95279
#
# Compressibility (1/GPa) = 0.02537273
#
# Stress axis : x y z
#
# Youngs Moduli (GPa) = 55.34006 62.87615 80.85440
#
# Poissons Ratio (x) = 0.00326 0.25801
# Poissons Ratio (y) = 0.00287 0.58554
# Poissons Ratio (z) = 0.17659 0.45534
#
# Static dielectric constant tensor:
#      x y z
#    x 1.885170 0.000000 0.000000 
#    y 0.000000 1.974130 0.000000 
#    z 0.000000 0.000000 1.490480 
# 
# From -- ./inp_files/36266.got.cif
#   From: 2010.05.17/outbox.cif.g08.bks.cpg/sg22_19_cif.got.tgz:36266.got - 2010.06.03 23:40:54.
