data_PCOD9327124
_publ_section_title
;
Structure prediction by ZEFSAII (Michael W. Deem and Ramdas Pophale) SiO2 
 PCOD9327124
Probable space group: F 2 2 2
;
_chemical_formula_sum "Si O2"
_cell_formula_units_Z 96
_cell_length_a 15.413415
_cell_length_b 22.791739
_cell_length_c 14.295918
_cell_angle_alpha 90.000000
_cell_angle_beta 90.000000
_cell_angle_gamma 90.000000
_cell_volume 5022.135004
_symmetry_space_group_name_H-M "F 2 2 2"
_symmetry_group_IT_number 22
_symmetry_cell_setting 'orthorhombic'
loop_
_space_group_symop_operation_xyz
x,y,z
-x,-y,z
x,-y,-z
-x,y,-z
x,1/2+y,1/2+z
-x,1/2-y,1/2+z
x,1/2-y,1/2-z
-x,1/2+y,1/2-z
1/2+x,y,1/2+z
1/2-x,-y,1/2+z
1/2+x,-y,1/2-z
1/2-x,y,1/2-z
1/2+x,1/2+y,z
1/2-x,1/2-y,z
1/2+x,1/2-y,-z
1/2-x,1/2+y,-z
loop_
_atom_site_type_symbol
_atom_site_label
_atom_site_fract_x
_atom_site_fract_y
_atom_site_fract_z
Si Si1 0.270319 0.133536 0.523605
Si Si2 0.872651 0.721268 0.650306
Si Si3 0.474721 0.386579 0.769538
Si Si4 0.674335 0.398655 0.823226
Si Si5 0.578629 0.156876 0.067502
Si Si6 0.680023 0.962574 0.668677
O O1 0.299951 0.186689 0.591733
O O2 0.312743 0.135060 0.421336
O O3 0.167047 0.135563 0.520543
O O4 0.296842 0.074117 0.576763
O O5 0.845949 0.750000 0.750000
O O6 0.942549 0.670835 0.673702
O O7 0.910774 0.774414 0.590990
O O8 0.577609 0.391857 0.781841
O O9 0.442927 0.375272 0.664318
O O10 0.416758 0.441306 0.804225
O O11 0.750000 0.381517 0.750000
O O12 0.685753 0.468035 0.843425
O O13 0.500000 0.146569 0.000000
O O14 0.750000 0.945537 0.750000
#
# Coordination Sequence:
#
# PCOD9327124 Si02
#       6
#    16  16  16  16  16  16
#     4  11  22  39  64  92 126 168 216 264 315 375
#     4   9  22  38  64  90 119 158 217 266 314 362
#     4  10  21  40  62  89 125 170 212 263 316 371
#     4  11  24  39  61  91 136 171 204 255 325 390
#     4  11  22  37  62  89 124 163 216 260 316 381
#     4  10  20  39  65  90 123 164 218 270 315 368
#
# _framework density 19.115376999999999
#
# number of rings (size 3 to 8) (size 9 to 14) (size 15 to 20)
#    0.000    1.667    1.667    2.500    2.333    4.000 
#    0.000    3.333    0.000    0.000    0.000    0.000 
#    0.000    0.000    0.000    0.000    0.000    0.000 
#
# Total GULP energy -134020.420255 kJ/mol
# GULP energy per Si atom -5584.184177 kJ/mol
# Density = 1.907187 g / cm^3
# Si number density = 19.115377 Si / 1000 Ang^3
#
#
#
# Elastic Constant Matrix: (Units=GPa)
#
#
# Indices 1 2 3 4 5 6 
#
# 1 131.0863 6.2034 20.8630 0.0000 0.0000 0.0000
# 2 6.2034 46.9978 14.2411 0.0000 0.0000 0.0000
# 3 20.8630 14.2411 36.1193 0.0000 0.0000 0.0000
# 4 0.0000 0.0000 0.0000 14.3829 0.0000 0.0000
# 5 0.0000 0.0000 0.0000 0.0000 34.1838 0.0000
# 6 0.0000 0.0000 0.0000 0.0000 0.0000 8.5845
#
#
#
# Elastic Compliance Matrix: (Units=1/GPa)
#
#
# Indices 1 2 3 4 5 6 
#
# 1 0.008408 0.000411 -0.005019 0.000000 0.000000 0.000000
# 2 0.000411 0.024185 -0.009773 0.000000 0.000000 0.000000
# 3 -0.005019 -0.009773 0.034438 0.000000 0.000000 0.000000
# 4 0.000000 0.000000 0.000000 0.069527 0.000000 0.000000
# 5 0.000000 0.000000 0.000000 0.000000 0.029254 0.000000
# 6 0.000000 0.000000 0.000000 0.000000 0.000000 0.116490
#
#
# Mechanical properties :
#
#
# Convention : Reuss Voigt Hill
#
# Bulk Modulus (GPa) = 26.13038 32.97982 29.55510
# Shear Modulus (GPa) = 15.44076 22.95663 19.19870
#
# Velocity S-wave (km/s) = 2.84521 3.46923 3.17260
# Velocity P-wave (km/s) = 4.94905 5.77390 5.37731
#
# Compressibility (1/GPa) = 0.03826964
#
# Stress axis : x y z
#
# Youngs Moduli (GPa) = 118.93662 41.34850 29.03765
#
# Poissons Ratio (x) = -0.01699 0.14573
# Poissons Ratio (y) = -0.04887 0.28378
# Poissons Ratio (z) = 0.59688 0.40409
#
# Static dielectric constant tensor:
#      x y z
#    x 1.654720 0.000000 0.000000 
#    y 0.000000 1.657080 0.000000 
#    z 0.000000 0.000000 1.670450 
# 
# From -- ./inp_files/29365.got.cif
#   From: 2010.05.17/outbox.cif.g08.bks.cpg/sg22_15_cif.got.tgz:29365.got - 2010.06.03 23:40:54.
