data_PCOD9327780
_publ_section_title
;
Structure prediction by ZEFSAII (Michael W. Deem and Ramdas Pophale) SiO2 
 PCOD9327780
Probable space group: F 2 2 2
;
_chemical_formula_sum "Si O2"
_cell_formula_units_Z 112
_cell_length_a 28.975522
_cell_length_b 12.228516
_cell_length_c 15.129899
_cell_angle_alpha 90.000000
_cell_angle_beta 90.000000
_cell_angle_gamma 90.000000
_cell_volume 5360.941321
_symmetry_space_group_name_H-M "F 2 2 2"
_symmetry_group_IT_number 22
_symmetry_cell_setting 'orthorhombic'
loop_
_space_group_symop_operation_xyz
x,y,z
-x,-y,z
x,-y,-z
-x,y,-z
x,1/2+y,1/2+z
-x,1/2-y,1/2+z
x,1/2-y,1/2-z
-x,1/2+y,1/2-z
1/2+x,y,1/2+z
1/2-x,-y,1/2+z
1/2+x,-y,1/2-z
1/2-x,y,1/2-z
1/2+x,1/2+y,z
1/2-x,1/2-y,z
1/2+x,1/2-y,-z
1/2-x,1/2+y,-z
loop_
_atom_site_type_symbol
_atom_site_label
_atom_site_fract_x
_atom_site_fract_y
_atom_site_fract_z
Si Si1 0.366233 0.129491 0.782839
Si Si2 0.550298 0.675623 0.456395
Si Si3 0.353769 0.120320 0.978674
Si Si4 0.703129 0.184274 0.530452
Si Si5 0.550263 0.457341 0.718378
Si Si6 0.069756 0.923983 0.921303
Si Si7 0.673349 0.488002 0.120042
O O1 0.380239 0.250000 0.750000
O O2 0.342756 0.144491 0.877309
O O3 0.410399 0.049752 0.790960
O O4 0.332686 0.069683 0.713774
O O5 0.500000 0.655312 0.500000
O O6 0.591009 0.619589 0.511592
O O7 0.557255 0.635802 0.355232
O O8 0.562000 0.803371 0.457676
O O9 0.334427 0.218906 0.037773
O O10 0.335353 0.000000 0.000000
O O11 0.750000 0.250000 0.517140
O O12 0.704129 0.097080 0.610635
O O13 0.689949 0.104947 0.448484
O O14 0.500000 0.500000 0.695556
O O15 0.549334 0.426370 0.822185
O O16 0.122366 0.965936 0.906122
O O17 0.051128 0.000000 0.000000
#
# Coordination Sequence:
#
# PCOD9327780 Si02
#       7
#    16  16  16  16  16  16  16
#     4  11  23  42  71  97 136 187 231 290 349 418
#     4  12  26  42  69  99 145 191 237 300 359 415
#     4  12  24  43  67 104 136 186 239 281 355 428
#     4  11  23  43  75 104 135 177 229 289 358 427
#     4  11  26  42  61  99 146 183 247 300 355 413
#     4  11  23  44  69  98 133 188 237 291 347 422
#     4  10  21  45  69 103 140 172 224 288 352 409
#
# _framework density 20.891853999999999
#
# number of rings (size 3 to 8) (size 9 to 14) (size 15 to 20)
#    0.000    0.857    5.714    1.286    6.000    1.143 
#    0.000    2.143    0.000    0.857    0.000    0.000 
#    0.000    0.000    0.000    0.000    0.000    0.000 
#
# Total GULP energy -156284.364131 kJ/mol
# GULP energy per Si atom -5581.584433 kJ/mol
# Density = 2.084430 g / cm^3
# Si number density = 20.891854 Si / 1000 Ang^3
#
#
#
# Elastic Constant Matrix: (Units=GPa)
#
#
# Indices 1 2 3 4 5 6 
#
# 1 76.7389 29.2116 3.6469 0.0000 0.0000 0.0000
# 2 29.2116 174.9537 43.2233 0.0000 0.0000 0.0000
# 3 3.6469 43.2233 109.4170 0.0000 0.0000 0.0000
# 4 0.0000 0.0000 0.0000 39.4931 0.0000 0.0000
# 5 0.0000 0.0000 0.0000 0.0000 58.5891 0.0000
# 6 0.0000 0.0000 0.0000 0.0000 0.0000 22.5234
#
#
#
# Elastic Compliance Matrix: (Units=1/GPa)
#
#
# Indices 1 2 3 4 5 6 
#
# 1 0.013941 -0.002452 0.000504 0.000000 0.000000 0.000000
# 2 -0.002452 0.006765 -0.002591 0.000000 0.000000 0.000000
# 3 0.000504 -0.002591 0.010146 0.000000 0.000000 0.000000
# 4 0.000000 0.000000 0.000000 0.025321 0.000000 0.000000
# 5 0.000000 0.000000 0.000000 0.000000 0.017068 0.000000
# 6 0.000000 0.000000 0.000000 0.000000 0.000000 0.044398
#
#
# Mechanical properties :
#
#
# Convention : Reuss Voigt Hill
#
# Bulk Modulus (GPa) = 45.92603 57.03039 51.47821
# Shear Modulus (GPa) = 37.32039 43.12297 40.22168
#
# Velocity S-wave (km/s) = 4.23112 4.54817 4.39251
# Velocity P-wave (km/s) = 6.77498 7.41204 7.10066
#
# Compressibility (1/GPa) = 0.02177414
#
# Stress axis : x y z
#
# Youngs Moduli (GPa) = 71.73242 147.81313 98.56111
#
# Poissons Ratio (x) = 0.36246 -0.04968
# Poissons Ratio (y) = 0.17590 0.25535
# Poissons Ratio (z) = -0.03616 0.38295
#
# Static dielectric constant tensor:
#      x y z
#    x 1.776600 0.000000 0.000000 
#    y 0.000000 1.722690 0.000000 
#    z 0.000000 0.000000 1.800780 
# 
# From -- ./inp_files/33522.got.cif
#   From: 2010.05.17/outbox.cif.g08.bks.cpg/sg22_17_cif.got.tgz:33522.got - 2010.06.03 23:40:54.
