data_PCOD9327106
_publ_section_title
;
Structure prediction by ZEFSAII (Michael W. Deem and Ramdas Pophale) SiO2 
 PCOD9327106
Probable space group: F 2 2 2
;
_chemical_formula_sum "Si O2"
_cell_formula_units_Z 80
_cell_length_a 16.639996
_cell_length_b 9.617309
_cell_length_c 25.181626
_cell_angle_alpha 90.000000
_cell_angle_beta 90.000000
_cell_angle_gamma 90.000000
_cell_volume 4029.865551
_symmetry_space_group_name_H-M "F 2 2 2"
_symmetry_group_IT_number 22
_symmetry_cell_setting 'orthorhombic'
loop_
_space_group_symop_operation_xyz
x,y,z
-x,-y,z
x,-y,-z
-x,y,-z
x,1/2+y,1/2+z
-x,1/2-y,1/2+z
x,1/2-y,1/2-z
-x,1/2+y,1/2-z
1/2+x,y,1/2+z
1/2-x,-y,1/2+z
1/2+x,-y,1/2-z
1/2-x,y,1/2-z
1/2+x,1/2+y,z
1/2-x,1/2-y,z
1/2+x,1/2-y,-z
1/2-x,1/2+y,-z
loop_
_atom_site_type_symbol
_atom_site_label
_atom_site_fract_x
_atom_site_fract_y
_atom_site_fract_z
Si Si1 0.765280 0.057502 0.310608
Si Si2 0.904297 0.524609 0.940217
Si Si3 0.829887 0.799804 0.360515
Si Si4 0.871474 0.766573 0.864630
Si Si5 0.973557 0.154903 0.802572
O O1 0.750000 0.088179 0.250000
O O2 0.842993 0.146829 0.324777
O O3 0.695418 0.113541 0.351317
O O4 0.789044 0.898148 0.316249
O O5 0.873789 0.406677 0.899718
O O6 0.878364 0.678730 0.919276
O O7 0.000000 0.500000 0.940330
O O8 0.874509 0.500000 0.000000
O O9 0.750000 0.750000 0.390695
O O10 0.889628 0.689498 0.332932
O O11 0.958609 0.812181 0.846337
O O12 0.976234 0.250000 0.750000
O O13 0.000000 0.000000 0.785527
#
# Coordination Sequence:
#
# PCOD9327106 Si02
#       5
#    16  16  16  16  16
#     4  10  21  36  62  93 134 175 214 266 329 398
#     4  10  21  43  71  93 123 175 227 279 337 399
#     4  11  25  41  61  94 134 172 224 273 327 392
#     4  10  20  39  61  92 127 169 225 266 323 401
#     4  12  27  39  64  95 138 179 220 268 331 405
#
# _framework density 19.851779000000001
#
# number of rings (size 3 to 8) (size 9 to 14) (size 15 to 20)
#    0.000    1.400    2.000    3.600   11.200    0.000 
#    7.200    0.000    0.000    1.200    0.000    0.000 
#    0.000    0.000    0.000    0.000    0.000    0.000 
#
# Total GULP energy -111335.763679 kJ/mol
# GULP energy per Si atom -5566.788184 kJ/mol
# Density = 1.980660 g / cm^3
# Si number density = 19.851779 Si / 1000 Ang^3
#
#
#
# Elastic Constant Matrix: (Units=GPa)
#
#
# Indices 1 2 3 4 5 6 
#
# 1 100.9274 47.7344 14.0307 0.0000 0.0000 0.0000
# 2 47.7344 115.7622 39.1766 0.0000 0.0000 0.0000
# 3 14.0307 39.1766 107.1729 0.0000 0.0000 0.0000
# 4 0.0000 0.0000 0.0000 3.7697 0.0000 0.0000
# 5 0.0000 0.0000 0.0000 0.0000 17.6159 0.0000
# 6 0.0000 0.0000 0.0000 0.0000 0.0000 14.4788
#
#
#
# Elastic Compliance Matrix: (Units=1/GPa)
#
#
# Indices 1 2 3 4 5 6 
#
# 1 0.012316 -0.005173 0.000279 0.000000 0.000000 0.000000
# 2 -0.005173 0.012030 -0.003720 0.000000 0.000000 0.000000
# 3 0.000279 -0.003720 0.010654 0.000000 0.000000 0.000000
# 4 0.000000 0.000000 0.000000 0.265272 0.000000 0.000000
# 5 0.000000 0.000000 0.000000 0.000000 0.056767 0.000000
# 6 0.000000 0.000000 0.000000 0.000000 0.000000 0.069067
#
#
# Mechanical properties :
#
#
# Convention : Reuss Voigt Hill
#
# Bulk Modulus (GPa) = 56.27071 58.41621 57.34346
# Shear Modulus (GPa) = 11.12943 22.03426 16.58184
#
# Velocity S-wave (km/s) = 2.37032 3.33519 2.89326
# Velocity P-wave (km/s) = 5.99151 6.65743 6.33323
#
# Compressibility (1/GPa) = 0.01777124
#
# Stress axis : x y z
#
# Youngs Moduli (GPa) = 81.19619 83.12242 93.85909
#
# Poissons Ratio (x) = 0.42997 -0.02614
# Poissons Ratio (y) = 0.42000 0.34920
# Poissons Ratio (z) = -0.02261 0.30926
#
# Static dielectric constant tensor:
#      x y z
#    x 1.781460 0.000000 0.000000 
#    y 0.000000 1.844380 0.000000 
#    z 0.000000 0.000000 1.711460 
# 
# From -- ./inp_files/48738.got.cif
#   From: 2010.05.17/outbox.cif.g08.bks.cpg/sg22_25_cif.got.tgz:48738.got - 2010.06.03 23:40:54.
