data_PCOD9327322
_publ_section_title
;
Structure prediction by ZEFSAII (Michael W. Deem and Ramdas Pophale) SiO2 
 PCOD9327322
Probable space group: F 2 2 2
;
_chemical_formula_sum "Si O2"
_cell_formula_units_Z 112
_cell_length_a 21.712329
_cell_length_b 11.555772
_cell_length_c 26.077228
_cell_angle_alpha 90.000000
_cell_angle_beta 90.000000
_cell_angle_gamma 90.000000
_cell_volume 6542.847527
_symmetry_space_group_name_H-M "F 2 2 2"
_symmetry_group_IT_number 22
_symmetry_cell_setting 'orthorhombic'
loop_
_space_group_symop_operation_xyz
x,y,z
-x,-y,z
x,-y,-z
-x,y,-z
x,1/2+y,1/2+z
-x,1/2-y,1/2+z
x,1/2-y,1/2-z
-x,1/2+y,1/2-z
1/2+x,y,1/2+z
1/2-x,-y,1/2+z
1/2+x,-y,1/2-z
1/2-x,y,1/2-z
1/2+x,1/2+y,z
1/2-x,1/2-y,z
1/2+x,1/2-y,-z
1/2-x,1/2+y,-z
loop_
_atom_site_type_symbol
_atom_site_label
_atom_site_fract_x
_atom_site_fract_y
_atom_site_fract_z
Si Si1 0.114244 0.622293 0.763152
Si Si2 0.002425 0.701279 0.443694
Si Si3 0.597368 0.996620 0.555108
Si Si4 0.627742 0.765692 0.811100
Si Si5 0.648860 0.002594 0.337635
Si Si6 0.780533 0.044705 0.303519
Si Si7 0.496776 0.634118 0.654089
O O1 0.137022 0.750000 0.750000
O O2 0.109165 0.559127 0.707488
O O3 0.166150 0.547467 0.791577
O O4 0.054440 0.636406 0.799977
O O5 0.954794 0.595172 0.448581
O O6 0.986687 0.782831 0.395363
O O7 0.000000 0.760641 0.500000
O O8 0.066426 0.630173 0.436828
O O9 0.633498 0.032696 0.605264
O O10 0.630236 0.000000 0.500000
O O11 0.631121 0.750000 0.750000
O O12 0.634285 0.638356 0.833117
O O13 0.684120 0.847599 0.828271
O O14 0.562766 0.825275 0.823879
O O15 0.721819 0.988182 0.329970
O O16 0.750000 0.086125 0.250000
O O17 0.500000 0.500000 0.637819
#
# Coordination Sequence:
#
# PCOD9327322 Si02
#       7
#    16  16  16  16  16  16  16
#     4  11  23  36  51  83 120 155 181 224 286 354
#     4   9  19  36  58  80 108 143 185 230 281 339
#     4   9  18  36  59  85 106 135 191 243 277 323
#     4  12  20  35  54  83 113 145 188 231 277 331
#     4  11  21  35  59  82 108 153 188 232 282 330
#     4  10  21  35  53  77 111 151 193 223 270 338
#     4  12  22  36  54  81 121 145 181 238 286 342
#
# _framework density 17.117927999999999
#
# number of rings (size 3 to 8) (size 9 to 14) (size 15 to 20)
#    0.000    1.429    5.714    2.571    0.000    2.857 
#    2.571    0.000    0.000    1.714    3.714    0.000 
#    0.000    0.000    0.000    0.000    0.000    0.000 
#
# Total GULP energy -155927.312273 kJ/mol
# GULP energy per Si atom -5568.832581 kJ/mol
# Density = 1.707897 g / cm^3
# Si number density = 17.117928 Si / 1000 Ang^3
#
#
#
# Elastic Constant Matrix: (Units=GPa)
#
#
# Indices 1 2 3 4 5 6 
#
# 1 68.8244 4.1733 38.7389 0.0000 0.0000 0.0000
# 2 4.1733 87.7391 17.2627 0.0000 0.0000 0.0000
# 3 38.7389 17.2627 127.8777 0.0000 0.0000 0.0000
# 4 0.0000 0.0000 0.0000 20.9605 0.0000 0.0000
# 5 0.0000 0.0000 0.0000 0.0000 16.3810 0.0000
# 6 0.0000 0.0000 0.0000 0.0000 0.0000 13.4126
#
#
#
# Elastic Compliance Matrix: (Units=1/GPa)
#
#
# Indices 1 2 3 4 5 6 
#
# 1 0.017521 0.000217 -0.005337 0.000000 0.000000 0.000000
# 2 0.000217 0.011711 -0.001647 0.000000 0.000000 0.000000
# 3 -0.005337 -0.001647 0.009659 0.000000 0.000000 0.000000
# 4 0.000000 0.000000 0.000000 0.047709 0.000000 0.000000
# 5 0.000000 0.000000 0.000000 0.000000 0.061046 0.000000
# 6 0.000000 0.000000 0.000000 0.000000 0.000000 0.074557
#
#
# Mechanical properties :
#
#
# Convention : Reuss Voigt Hill
#
# Bulk Modulus (GPa) = 39.43671 44.97677 42.20674
# Shear Modulus (GPa) = 20.47599 25.10190 22.78895
#
# Velocity S-wave (km/s) = 3.46232 3.83353 3.65264
# Velocity P-wave (km/s) = 6.25075 6.77689 6.51913
#
# Compressibility (1/GPa) = 0.02535708
#
# Stress axis : x y z
#
# Youngs Moduli (GPa) = 57.07583 85.38923 103.53055
#
# Poissons Ratio (x) = -0.01850 0.55253
# Poissons Ratio (y) = -0.01237 0.17047
# Poissons Ratio (z) = 0.30461 0.14060
#
# Static dielectric constant tensor:
#      x y z
#    x 1.606790 0.000000 0.000000 
#    y 0.000000 1.592960 0.000000 
#    z 0.000000 0.000000 1.623670 
# 
# From -- ./inp_files/23061.got.cif
#   From: 2010.05.17/outbox.cif.g08.bks.cpg/sg22_12_cif.got.tgz:23061.got - 2010.06.03 23:40:54.
