data_PCOD9327875
_publ_section_title
;
Structure prediction by ZEFSAII (Michael W. Deem and Ramdas Pophale) SiO2 
 PCOD9327875
Probable space group: F 2 2 2
;
_chemical_formula_sum "Si O2"
_cell_formula_units_Z 88
_cell_length_a 11.586883
_cell_length_b 15.915431
_cell_length_c 22.698737
_cell_angle_alpha 90.000000
_cell_angle_beta 90.000000
_cell_angle_gamma 90.000000
_cell_volume 4185.879467
_symmetry_space_group_name_H-M "F 2 2 2"
_symmetry_group_IT_number 22
_symmetry_cell_setting 'orthorhombic'
loop_
_space_group_symop_operation_xyz
x,y,z
-x,-y,z
x,-y,-z
-x,y,-z
x,1/2+y,1/2+z
-x,1/2-y,1/2+z
x,1/2-y,1/2-z
-x,1/2+y,1/2-z
1/2+x,y,1/2+z
1/2-x,-y,1/2+z
1/2+x,-y,1/2-z
1/2-x,y,1/2-z
1/2+x,1/2+y,z
1/2-x,1/2-y,z
1/2+x,1/2-y,-z
1/2-x,1/2+y,-z
loop_
_atom_site_type_symbol
_atom_site_label
_atom_site_fract_x
_atom_site_fract_y
_atom_site_fract_z
Si Si1 0.000000 0.500000 0.288556
Si Si2 0.500000 0.000000 0.000000
Si Si3 0.000000 0.000000 0.000000
Si Si4 0.537110 0.249184 0.883296
Si Si5 0.346729 0.364575 0.558434
Si Si6 0.382993 0.157668 0.227288
Si Si7 0.113500 0.591138 0.387313
Si Si8 0.250000 0.750000 0.959621
O O1 0.956408 0.578359 0.249489
O O2 0.898815 0.476583 0.335232
O O3 0.583024 0.946114 0.958787
O O4 0.072129 0.056200 0.951975
O O5 0.439537 0.202237 0.919956
O O6 0.594600 0.178281 0.841169
O O7 0.469774 0.333672 0.864658
O O8 0.643652 0.280574 0.921391
O O9 0.244050 0.379088 0.604191
O O10 0.291130 0.325702 0.500198
O O11 0.422732 0.250000 0.250000
O O12 0.250000 0.148566 0.250000
#
# Coordination Sequence:
#
# PCOD9327875 Si02
#       8
#     8   4   4  16  16  16  16   8
#     4  11  26  46  76 104 139 195 255 314 374 438
#     4  12  26  44  60 112 152 186 228 296 344 434
#     4  10  22  38  68 104 144 192 242 284 358 460
#     4  12  24  42  75 102 139 197 245 300 365 441
#     4  12  25  43  69 106 153 185 235 291 375 445
#     4  11  25  49  73 103 139 189 257 310 362 437
#     4  11  23  43  69 106 147 189 240 305 371 440
#     4  12  22  42  71 104 145 200 238 288 364 458
#
# _framework density 21.023060999999998
#
# number of rings (size 3 to 8) (size 9 to 14) (size 15 to 20)
#    0.000    0.545    5.455    2.727    0.000    5.091 
#    0.000    0.000    0.000    0.000    0.000    0.000 
#    0.000    0.000    0.000    0.000    0.000    0.000 
#
# Total GULP energy -122742.111089 kJ/mol
# GULP energy per Si atom -5579.186868 kJ/mol
# Density = 2.097521 g / cm^3
# Si number density = 21.023061 Si / 1000 Ang^3
#
#
#
# Elastic Constant Matrix: (Units=GPa)
#
#
# Indices 1 2 3 4 5 6 
#
# 1 126.7893 37.7331 39.3555 0.0000 0.0000 0.0000
# 2 37.7331 106.7200 33.3278 0.0000 0.0000 0.0000
# 3 39.3555 33.3278 85.3017 0.0000 0.0000 0.0000
# 4 0.0000 0.0000 0.0000 -26.7344 0.0000 0.0000
# 5 0.0000 0.0000 0.0000 0.0000 -27.7175 0.0000
# 6 0.0000 0.0000 0.0000 0.0000 0.0000 15.9695
#
#
#
# Elastic Compliance Matrix: (Units=1/GPa)
#
#
# Indices 1 2 3 4 5 6 
#
# 1 0.009681 -0.002310 -0.003564 0.000000 0.000000 0.000000
# 2 -0.002310 0.011224 -0.003319 0.000000 0.000000 0.000000
# 3 -0.003564 -0.003319 0.014664 0.000000 0.000000 0.000000
# 4 0.000000 0.000000 0.000000 -0.037405 0.000000 0.000000
# 5 0.000000 0.000000 0.000000 0.000000 -0.036078 0.000000
# 6 0.000000 0.000000 0.000000 0.000000 0.000000 0.062619
#
#
# Mechanical properties :
#
#
# Convention : Reuss Voigt Hill
#
# Bulk Modulus (GPa) = 58.19953 59.96042 59.07997
# Shear Modulus (GPa) = 102.41972 6.19650 54.30811
#
# Velocity S-wave (km/s) = 6.98739 1.71868 5.08810
# Velocity P-wave (km/s) = 9.63545 5.70278 7.91718
#
# Compressibility (1/GPa) = 0.01718227
#
# Stress axis : x y z
#
# Youngs Moduli (GPa) = 103.29762 89.09757 68.19283
#
# Poissons Ratio (x) = 0.20580 0.24303
# Poissons Ratio (y) = 0.23860 0.22636
# Poissons Ratio (z) = 0.36814 0.29575
#
# Static dielectric constant tensor:
#      x y z
#    x 1.727180 0.000000 0.000000 
#    y 0.000000 1.791210 0.000000 
#    z 0.000000 0.000000 2.029860 
# 
# From -- ./inp_files/42692.got.cif
#   From: 2010.05.17/outbox.cif.g08.bks.cpg/sg22_22_cif.got.tgz:42692.got - 2010.06.03 23:40:54.
