data_PCOD9327570
_publ_section_title
;
Structure prediction by ZEFSAII (Michael W. Deem and Ramdas Pophale) SiO2 
 PCOD9327570
Probable space group: F 2 2 2
;
_chemical_formula_sum "Si O2"
_cell_formula_units_Z 60
_cell_length_a 20.311370
_cell_length_b 12.198049
_cell_length_c 10.790385
_cell_angle_alpha 90.000000
_cell_angle_beta 90.000000
_cell_angle_gamma 90.000000
_cell_volume 2673.415931
_symmetry_space_group_name_H-M "F 2 2 2"
_symmetry_group_IT_number 22
_symmetry_cell_setting 'orthorhombic'
loop_
_space_group_symop_operation_xyz
x,y,z
-x,-y,z
x,-y,-z
-x,y,-z
x,1/2+y,1/2+z
-x,1/2-y,1/2+z
x,1/2-y,1/2-z
-x,1/2+y,1/2-z
1/2+x,y,1/2+z
1/2-x,-y,1/2+z
1/2+x,-y,1/2-z
1/2-x,y,1/2-z
1/2+x,1/2+y,z
1/2-x,1/2-y,z
1/2+x,1/2-y,-z
1/2-x,1/2+y,-z
loop_
_atom_site_type_symbol
_atom_site_label
_atom_site_fract_x
_atom_site_fract_y
_atom_site_fract_z
Si Si1 0.315635 0.322698 0.569149
Si Si2 0.816864 0.561801 0.187373
Si Si3 0.927285 0.250000 0.250000
Si Si4 0.053688 0.872958 0.727978
Si Si5 0.500000 0.500000 0.500000
O O1 0.250000 0.250000 0.584040
O O2 0.306636 0.439379 0.636710
O O3 0.326834 0.354990 0.426897
O O4 0.379552 0.269085 0.633704
O O5 0.750000 0.596986 0.250000
O O6 0.882500 0.560236 0.272092
O O7 0.977762 0.146977 0.227539
O O8 0.077768 0.750000 0.750000
O O9 0.041296 0.923096 0.591406
#
# Coordination Sequence:
#
# PCOD9327570 Si02
#       5
#    16  16   8  16   4
#     4  11  24  41  72  97 138 194 240 315 367 444
#     4  11  24  43  65 101 141 189 247 300 384 438
#     4  10  21  40  61 104 130 170 258 292 359 448
#     4  10  24  38  70 104 137 194 246 303 361 454
#     4  12  20  48  72 104 152 196 244 302 396 420
#
# _framework density 22.443197000000001
#
# number of rings (size 3 to 8) (size 9 to 14) (size 15 to 20)
#    0.800    0.533    0.000    6.800    3.733    0.000 
#    0.000    0.000    0.000    0.800    0.000    0.000 
#    0.000    0.000    0.000    0.000    0.000    0.000 
#
# Total GULP energy -83521.644215 kJ/mol
# GULP energy per Si atom -5568.109614 kJ/mol
# Density = 2.239212 g / cm^3
# Si number density = 22.443197 Si / 1000 Ang^3
#
#
#
# Elastic Constant Matrix: (Units=GPa)
#
#
# Indices 1 2 3 4 5 6 
#
# 1 246.9754 67.9574 63.0862 0.0000 0.0000 0.0000
# 2 67.9574 95.9382 42.3976 0.0000 0.0000 0.0000
# 3 63.0862 42.3976 71.0613 0.0000 0.0000 0.0000
# 4 0.0000 0.0000 0.0000 42.0880 0.0000 0.0000
# 5 0.0000 0.0000 0.0000 0.0000 -1.7916 0.0000
# 6 0.0000 0.0000 0.0000 0.0000 0.0000 110.8806
#
#
#
# Elastic Compliance Matrix: (Units=1/GPa)
#
#
# Indices 1 2 3 4 5 6 
#
# 1 0.005619 -0.002412 -0.003550 0.000000 0.000000 0.000000
# 2 -0.002412 0.015191 -0.006922 0.000000 0.000000 0.000000
# 3 -0.003550 -0.006922 0.021354 0.000000 0.000000 0.000000
# 4 0.000000 0.000000 0.000000 0.023760 0.000000 0.000000
# 5 0.000000 0.000000 0.000000 0.000000 -0.558161 0.000000
# 6 0.000000 0.000000 0.000000 0.000000 0.000000 0.009019
#
#
# Mechanical properties :
#
#
# Convention : Reuss Voigt Hill
#
# Bulk Modulus (GPa) = 60.98902 84.53971 72.76436
# Shear Modulus (GPa) = -11.06230 46.27100 17.60435
#
# Velocity S-wave (km/s) = -2.22255 4.54551 2.80374
# Velocity P-wave (km/s) = 4.54396 8.08078 6.55540
#
# Compressibility (1/GPa) = 0.01639639
#
# Stress axis : x y z
#
# Youngs Moduli (GPa) = 177.95749 65.82913 46.82989
#
# Poissons Ratio (x) = 0.15876 0.16624
# Poissons Ratio (y) = 0.42917 0.32417
# Poissons Ratio (z) = 0.63171 0.45569
#
# Static dielectric constant tensor:
#      x y z
#    x 1.906200 0.000000 0.000000 
#    y 0.000000 1.854410 0.000000 
#    z 0.000000 0.000000 1.772520 
# 
# From -- ./inp_files/17773.got.cif
#   From: 2010.05.17/outbox.cif.g08.bks.cpg/sg22_9_cif.got.tgz:17773.got - 2010.06.03 23:40:54.
