data_PCOD9327503
_publ_section_title
;
Structure prediction by ZEFSAII (Michael W. Deem and Ramdas Pophale) SiO2 
 PCOD9327503
Probable space group: F 2 2 2
;
_chemical_formula_sum "Si O2"
_cell_formula_units_Z 88
_cell_length_a 23.487423
_cell_length_b 11.701975
_cell_length_c 14.817632
_cell_angle_alpha 90.000000
_cell_angle_beta 90.000000
_cell_angle_gamma 90.000000
_cell_volume 4072.614846
_symmetry_space_group_name_H-M "F 2 2 2"
_symmetry_group_IT_number 22
_symmetry_cell_setting 'orthorhombic'
loop_
_space_group_symop_operation_xyz
x,y,z
-x,-y,z
x,-y,-z
-x,y,-z
x,1/2+y,1/2+z
-x,1/2-y,1/2+z
x,1/2-y,1/2-z
-x,1/2+y,1/2-z
1/2+x,y,1/2+z
1/2-x,-y,1/2+z
1/2+x,-y,1/2-z
1/2-x,y,1/2-z
1/2+x,1/2+y,z
1/2-x,1/2-y,z
1/2+x,1/2-y,-z
1/2-x,1/2+y,-z
loop_
_atom_site_type_symbol
_atom_site_label
_atom_site_fract_x
_atom_site_fract_y
_atom_site_fract_z
Si Si1 0.552234 0.677530 0.441296
Si Si2 0.854026 0.500000 0.000000
Si Si3 0.378741 0.651075 0.051929
Si Si4 0.918595 0.750000 0.250000
Si Si5 0.250000 0.990765 0.250000
Si Si6 0.193382 0.825256 0.365436
Si Si7 0.840252 0.412772 0.627822
O O1 0.500000 0.631562 0.500000
O O2 0.604225 0.587234 0.447076
O O3 0.568813 0.794438 0.496474
O O4 0.544966 0.702625 0.334902
O O5 0.814540 0.418302 0.057623
O O6 0.360132 0.743142 0.125542
O O7 0.375217 0.527307 0.097935
O O8 0.333396 0.649195 0.968811
O O9 0.877171 0.658433 0.299897
O O10 0.220940 0.061682 0.171056
O O11 0.199969 0.904706 0.278923
O O12 0.250000 0.750000 0.372825
#
# Coordination Sequence:
#
# PCOD9327503 Si02
#       7
#    16   8  16   8   8  16  16
#     4  10  21  44  69  91 121 164 213 269 333 389
#     4  10  23  40  62  92 128 166 213 266 318 380
#     4   9  21  40  59  84 124 163 210 263 311 376
#     4  10  22  43  62  92 126 156 211 270 322 392
#     4  12  23  33  56  86 124 167 212 253 308 370
#     4  11  22  35  57  87 124 168 211 256 305 380
#     4  10  21  39  57  86 125 164 206 260 310 378
#
# _framework density 21.607738999999999
#
# number of rings (size 3 to 8) (size 9 to 14) (size 15 to 20)
#    0.000    1.818    1.818    1.636    2.545    0.364 
#    0.000   14.545    0.000    0.000    0.000    0.000 
#    0.000    0.000    0.000    0.000    0.000    0.000 
#
# Total GULP energy -122546.516857 kJ/mol
# GULP energy per Si atom -5570.296221 kJ/mol
# Density = 2.155856 g / cm^3
# Si number density = 21.607739 Si / 1000 Ang^3
#
#
#
# Elastic Constant Matrix: (Units=GPa)
#
#
# Indices 1 2 3 4 5 6 
#
# 1 38.4898 3.1095 28.5269 0.0000 0.0000 0.0000
# 2 3.1095 75.0357 26.6161 0.0000 0.0000 0.0000
# 3 28.5269 26.6161 109.8478 0.0000 0.0000 0.0000
# 4 0.0000 0.0000 0.0000 41.6904 0.0000 0.0000
# 5 0.0000 0.0000 0.0000 0.0000 24.2921 0.0000
# 6 0.0000 0.0000 0.0000 0.0000 0.0000 15.9803
#
#
#
# Elastic Compliance Matrix: (Units=1/GPa)
#
#
# Indices 1 2 3 4 5 6 
#
# 1 0.032393 0.001796 -0.008848 0.000000 0.000000 0.000000
# 2 0.001796 0.014680 -0.004023 0.000000 0.000000 0.000000
# 3 -0.008848 -0.004023 0.012376 0.000000 0.000000 0.000000
# 4 0.000000 0.000000 0.000000 0.023986 0.000000 0.000000
# 5 0.000000 0.000000 0.000000 0.000000 0.041166 0.000000
# 6 0.000000 0.000000 0.000000 0.000000 0.000000 0.062577
#
#
# Mechanical properties :
#
#
# Convention : Reuss Voigt Hill
#
# Bulk Modulus (GPa) = 26.81023 37.76424 32.28724
# Shear Modulus (GPa) = 22.54682 27.40061 24.97371
#
# Velocity S-wave (km/s) = 3.23377 3.56489 3.40336
# Velocity P-wave (km/s) = 5.13592 5.87024 5.51531
#
# Compressibility (1/GPa) = 0.03729919
#
# Stress axis : x y z
#
# Youngs Moduli (GPa) = 30.87066 68.12145 80.80157
#
# Poissons Ratio (x) = -0.12234 0.71489
# Poissons Ratio (y) = -0.05544 0.32509
# Poissons Ratio (z) = 0.27313 0.27407
#
# Static dielectric constant tensor:
#      x y z
#    x 1.809250 0.000000 0.000000 
#    y 0.000000 1.837640 0.000000 
#    z 0.000000 0.000000 1.800100 
# 
# From -- ./inp_files/20166.got.cif
#   From: 2010.05.17/outbox.cif.g08.bks.cpg/sg22_11_cif.got.tgz:20166.got - 2010.06.03 23:40:54.
