data_PCOD9327025
_publ_section_title
;
Structure prediction by ZEFSAII (Michael W. Deem and Ramdas Pophale) SiO2 
 PCOD9327025
Probable space group: F 2 2 2
;
_chemical_formula_sum "Si O2"
_cell_formula_units_Z 104
_cell_length_a 28.550358
_cell_length_b 9.516508
_cell_length_c 19.750322
_cell_angle_alpha 90.000000
_cell_angle_beta 90.000000
_cell_angle_gamma 90.000000
_cell_volume 5366.156766
_symmetry_space_group_name_H-M "F 2 2 2"
_symmetry_group_IT_number 22
_symmetry_cell_setting 'orthorhombic'
loop_
_space_group_symop_operation_xyz
x,y,z
-x,-y,z
x,-y,-z
-x,y,-z
x,1/2+y,1/2+z
-x,1/2-y,1/2+z
x,1/2-y,1/2-z
-x,1/2+y,1/2-z
1/2+x,y,1/2+z
1/2-x,-y,1/2+z
1/2+x,-y,1/2-z
1/2-x,y,1/2-z
1/2+x,1/2+y,z
1/2-x,1/2-y,z
1/2+x,1/2-y,-z
1/2-x,1/2+y,-z
loop_
_atom_site_type_symbol
_atom_site_label
_atom_site_fract_x
_atom_site_fract_y
_atom_site_fract_z
Si Si1 0.545087 0.212982 0.958264
Si Si2 0.760436 0.407742 0.330019
Si Si3 0.123862 0.000000 0.500000
Si Si4 0.130677 0.966543 0.141229
Si Si5 0.586320 0.000000 0.500000
Si Si6 0.410375 0.271673 0.324904
Si Si7 0.628646 0.250000 0.250000
Si Si8 0.335554 0.486173 0.646098
O O1 0.554113 0.375634 0.972716
O O2 0.548347 0.192208 0.877659
O O3 0.500000 0.166374 0.000000
O O4 0.590221 0.129902 0.984023
O O5 0.750000 0.403267 0.250000
O O6 0.750000 0.250000 0.357216
O O7 0.813602 0.449559 0.346125
O O8 0.719962 0.512843 0.354791
O O9 0.151200 0.961751 0.431912
O O10 0.106559 0.859585 0.195636
O O11 0.114221 0.125130 0.155047
O O12 0.116746 0.941817 0.063120
O O13 0.428829 0.250000 0.250000
O O14 0.369936 0.390594 0.328246
O O15 0.655411 0.354645 0.302797
#
# Coordination Sequence:
#
# PCOD9327025 Si02
#       8
#    16  16   8  16   8  16   8  16
#     4  10  21  39  66  85 116 152 190 242 305 378
#     4  11  18  32  55  85 121 158 214 254 288 340
#     4  10  23  39  60  90 120 154 200 243 309 364
#     4  11  21  35  59  86 120 163 203 250 293 352
#     4  10  23  39  60  90 120 154 200 243 309 364
#     4  10  20  38  58  87 123 151 192 250 310 353
#     4  12  18  35  62  84 118 156 220 238 286 352
#     4  11  21  35  59  86 120 163 203 250 293 352
#
# _framework density 19.380724000000001
#
# number of rings (size 3 to 8) (size 9 to 14) (size 15 to 20)
#    0.000    1.385    4.615    1.385    0.000    1.231 
#    0.000    1.538    6.769    3.692    0.000    0.000 
#    0.000    0.000    0.000    0.000    0.000    0.000 
#
# Total GULP energy -144822.382209 kJ/mol
# GULP energy per Si atom -5570.091623 kJ/mol
# Density = 1.933661 g / cm^3
# Si number density = 19.380724 Si / 1000 Ang^3
#
#
#
# Elastic Constant Matrix: (Units=GPa)
#
#
# Indices 1 2 3 4 5 6 
#
# 1 70.4207 4.2234 48.8220 0.0000 0.0000 0.0000
# 2 4.2234 71.6910 14.4086 0.0000 0.0000 0.0000
# 3 48.8220 14.4086 157.5600 0.0000 0.0000 0.0000
# 4 0.0000 0.0000 0.0000 26.9330 0.0000 0.0000
# 5 0.0000 0.0000 0.0000 0.0000 24.1173 0.0000
# 6 0.0000 0.0000 0.0000 0.0000 0.0000 12.6631
#
#
#
# Elastic Compliance Matrix: (Units=1/GPa)
#
#
# Indices 1 2 3 4 5 6 
#
# 1 0.018086 0.000062 -0.005610 0.000000 0.000000 0.000000
# 2 0.000062 0.014210 -0.001319 0.000000 0.000000 0.000000
# 3 -0.005610 -0.001319 0.008206 0.000000 0.000000 0.000000
# 4 0.000000 0.000000 0.000000 0.037129 0.000000 0.000000
# 5 0.000000 0.000000 0.000000 0.000000 0.041464 0.000000
# 6 0.000000 0.000000 0.000000 0.000000 0.000000 0.078969
#
#
# Mechanical properties :
#
#
# Convention : Reuss Voigt Hill
#
# Bulk Modulus (GPa) = 37.35712 48.28663 42.82188
# Shear Modulus (GPa) = 22.65312 28.22386 25.43849
#
# Velocity S-wave (km/s) = 3.42255 3.82027 3.62687
# Velocity P-wave (km/s) = 5.91064 6.66544 6.29936
#
# Compressibility (1/GPa) = 0.02676866
#
# Stress axis : x y z
#
# Youngs Moduli (GPa) = 55.29180 70.37230 121.86722
#
# Poissons Ratio (x) = -0.00436 0.68365
# Poissons Ratio (y) = -0.00343 0.16071
# Poissons Ratio (z) = 0.31018 0.09280
#
# Static dielectric constant tensor:
#      x y z
#    x 1.675240 0.000000 0.000000 
#    y 0.000000 1.712260 0.000000 
#    z 0.000000 0.000000 1.726980 
# 
# From -- ./inp_files/45821.got.cif
#   From: 2010.05.17/outbox.cif.g08.bks.cpg/sg22_23_cif.got.tgz:45821.got - 2010.06.03 23:40:54.
