data_PCOD9327370
_publ_section_title
;
Structure prediction by ZEFSAII (Michael W. Deem and Ramdas Pophale) SiO2 
 PCOD9327370
Probable space group: F 2 2 2
;
_chemical_formula_sum "Si O2"
_cell_formula_units_Z 116
_cell_length_a 16.023133
_cell_length_b 16.176963
_cell_length_c 24.458562
_cell_angle_alpha 90.000000
_cell_angle_beta 90.000000
_cell_angle_gamma 90.000000
_cell_volume 6339.796964
_symmetry_space_group_name_H-M "F 2 2 2"
_symmetry_group_IT_number 22
_symmetry_cell_setting 'orthorhombic'
loop_
_space_group_symop_operation_xyz
x,y,z
-x,-y,z
x,-y,-z
-x,y,-z
x,1/2+y,1/2+z
-x,1/2-y,1/2+z
x,1/2-y,1/2-z
-x,1/2+y,1/2-z
1/2+x,y,1/2+z
1/2-x,-y,1/2+z
1/2+x,-y,1/2-z
1/2-x,y,1/2-z
1/2+x,1/2+y,z
1/2-x,1/2-y,z
1/2+x,1/2-y,-z
1/2-x,1/2+y,-z
loop_
_atom_site_type_symbol
_atom_site_label
_atom_site_fract_x
_atom_site_fract_y
_atom_site_fract_z
Si Si1 0.219375 0.472359 0.311142
Si Si2 0.750000 0.250000 0.250000
Si Si3 0.159428 0.788186 0.808341
Si Si4 0.062710 0.922839 0.171188
Si Si5 0.883305 0.502514 0.127320
Si Si6 0.018263 0.889046 0.437465
Si Si7 0.502278 0.738659 0.872474
Si Si8 0.903305 0.857940 0.711326
O O1 0.250000 0.495108 0.250000
O O2 0.171241 0.386186 0.303317
O O3 0.155721 0.541351 0.331945
O O4 0.294604 0.461647 0.354394
O O5 0.813373 0.187816 0.281802
O O6 0.132168 0.750000 0.750000
O O7 0.250000 0.750000 0.819574
O O8 0.093537 0.769222 0.855018
O O9 0.057858 0.876262 0.229650
O O10 0.041238 0.852222 0.127915
O O11 0.000000 0.000000 0.169101
O O12 0.947850 0.571093 0.103900
O O13 0.903857 0.446763 0.180930
O O14 0.895081 0.432289 0.080696
O O15 0.017073 0.792173 0.426192
O O16 0.000000 0.907559 0.500000
O O17 0.544430 0.794963 0.825326
#
# Coordination Sequence:
#
# PCOD9327370 Si02
#       8
#    16   4  16  16  16  16  16  16
#     4  12  22  34  53  88 132 175 199 237 296 384
#     4  12  20  36  48  84 134 170 216 220 284 344
#     4  11  21  33  53  82 127 166 205 243 288 375
#     4  12  23  35  54  83 131 167 210 233 297 381
#     4  10  21  36  61  91 119 155 201 252 322 356
#     4  10  23  44  71  89 114 153 215 284 325 359
#     4  11  23  38  56  87 115 163 208 257 312 359
#     4  11  22  32  55  82 125 169 198 245 280 380
#
# _framework density 18.297115999999999
#
# number of rings (size 3 to 8) (size 9 to 14) (size 15 to 20)
#    0.000    0.966    5.517    3.310    3.862    0.000 
#    0.000    0.000    0.000    7.034    0.000    0.000 
#    0.000    0.000    0.000    0.000    0.000    0.000 
#
# Total GULP energy -161705.898790 kJ/mol
# GULP energy per Si atom -5576.065476 kJ/mol
# Density = 1.825547 g / cm^3
# Si number density = 18.297116 Si / 1000 Ang^3
#
#
#
# Elastic Constant Matrix: (Units=GPa)
#
#
# Indices 1 2 3 4 5 6 
#
# 1 66.5793 20.2150 22.5349 0.0000 0.0000 0.0000
# 2 20.2150 109.8712 26.3858 0.0000 0.0000 0.0000
# 3 22.5349 26.3858 68.2577 0.0000 0.0000 0.0000
# 4 0.0000 0.0000 0.0000 9.5410 0.0000 0.0000
# 5 0.0000 0.0000 0.0000 0.0000 12.0091 0.0000
# 6 0.0000 0.0000 0.0000 0.0000 0.0000 31.4868
#
#
#
# Elastic Compliance Matrix: (Units=1/GPa)
#
#
# Indices 1 2 3 4 5 6 
#
# 1 0.017297 -0.001996 -0.004939 0.000000 0.000000 0.000000
# 2 -0.001996 0.010263 -0.003308 0.000000 0.000000 0.000000
# 3 -0.004939 -0.003308 0.017560 0.000000 0.000000 0.000000
# 4 0.000000 0.000000 0.000000 0.104810 0.000000 0.000000
# 5 0.000000 0.000000 0.000000 0.000000 0.083270 0.000000
# 6 0.000000 0.000000 0.000000 0.000000 0.000000 0.031759
#
#
# Mechanical properties :
#
#
# Convention : Reuss Voigt Hill
#
# Bulk Modulus (GPa) = 40.59542 42.55327 41.57435
# Shear Modulus (GPa) = 17.02657 22.31225 19.66941
#
# Velocity S-wave (km/s) = 3.05382 3.49584 3.28228
# Velocity P-wave (km/s) = 5.88807 6.29300 6.09390
#
# Compressibility (1/GPa) = 0.02463332
#
# Stress axis : x y z
#
# Youngs Moduli (GPa) = 57.81185 97.43381 56.94834
#
# Poissons Ratio (x) = 0.19452 0.28126
# Poissons Ratio (y) = 0.11542 0.18840
# Poissons Ratio (z) = 0.28553 0.32234
#
# Static dielectric constant tensor:
#      x y z
#    x 1.671690 0.000000 0.000000 
#    y 0.000000 1.698180 0.000000 
#    z 0.000000 0.000000 1.601460 
# 
# From -- ./inp_files/49488.got.cif
#   From: 2010.05.17/outbox.cif.g08.bks.cpg/sg22_25_cif.got.tgz:49488.got - 2010.06.03 23:40:54.
