data_PCOD9327398
_publ_section_title
;
Structure prediction by ZEFSAII (Michael W. Deem and Ramdas Pophale) SiO2 
 PCOD9327398
Probable space group: F 2 2 2
;
_chemical_formula_sum "Si O2"
_cell_formula_units_Z 68
_cell_length_a 19.218541
_cell_length_b 26.579070
_cell_length_c 5.093014
_cell_angle_alpha 90.000000
_cell_angle_beta 90.000000
_cell_angle_gamma 90.000000
_cell_volume 2601.567302
_symmetry_space_group_name_H-M "F 2 2 2"
_symmetry_group_IT_number 22
_symmetry_cell_setting 'orthorhombic'
loop_
_space_group_symop_operation_xyz
x,y,z
-x,-y,z
x,-y,-z
-x,y,-z
x,1/2+y,1/2+z
-x,1/2-y,1/2+z
x,1/2-y,1/2-z
-x,1/2+y,1/2-z
1/2+x,y,1/2+z
1/2-x,-y,1/2+z
1/2+x,-y,1/2-z
1/2-x,y,1/2-z
1/2+x,1/2+y,z
1/2-x,1/2-y,z
1/2+x,1/2-y,-z
1/2-x,1/2+y,-z
loop_
_atom_site_type_symbol
_atom_site_label
_atom_site_fract_x
_atom_site_fract_y
_atom_site_fract_z
Si Si1 0.500000 0.500000 0.000000
Si Si2 0.578628 0.191885 0.271518
Si Si3 0.325566 0.808568 0.772114
Si Si4 0.908847 0.912288 0.856250
Si Si5 0.173879 0.443723 0.116894
O O1 0.455035 0.537862 0.176173
O O2 0.548105 0.250000 0.250000
O O3 0.621920 0.183275 0.535660
O O4 0.543382 0.136721 0.276381
O O5 0.633060 0.188704 0.039032
O O6 0.312911 0.750000 0.750000
O O7 0.250000 0.834094 0.750000
O O8 0.845371 0.912729 0.646513
O O9 0.876848 0.922816 0.149841
O O10 0.250000 0.442756 0.250000
O O11 0.165719 0.500000 0.000000
#
# Coordination Sequence:
#
# PCOD9327398 Si02
#       5
#     4  16  16  16  16
#     4  12  28  54  72 106 144 194 268 310 376 446
#     4  10  21  37  59  93 134 179 231 293 356 432
#     4   9  17  31  54  87 134 182 224 272 341 430
#     4  12  26  44  74 103 144 196 243 308 371 446
#     4  12  24  45  71 108 146 188 242 306 379 445
#
# _framework density 26.138089999999998
#
# number of rings (size 3 to 8) (size 9 to 14) (size 15 to 20)
#    0.000    1.176    2.353    4.235    0.000   10.353 
#    0.000    0.000    0.000    7.059    0.000    0.000 
#    0.000    0.000    0.000    0.000    0.000    0.000 
#
# Total GULP energy -94663.780497 kJ/mol
# GULP energy per Si atom -5568.457676 kJ/mol
# Density = 2.607860 g / cm^3
# Si number density = 26.138090 Si / 1000 Ang^3
#
#
#
# Elastic Constant Matrix: (Units=GPa)
#
#
# Indices 1 2 3 4 5 6 
#
# 1 78.9795 14.9211 44.0938 0.0978 -0.0239 -0.0044
# 2 14.9211 275.5984 -6.0708 0.0270 -0.0343 0.0342
# 3 44.0938 -6.0708 242.1726 0.1001 -0.0794 -0.0244
# 4 0.0978 0.0270 0.1001 -3.8954 -0.0250 0.0014
# 5 -0.0239 -0.0343 -0.0794 -0.0250 81.9954 -0.0243
# 6 -0.0044 0.0342 -0.0244 0.0014 -0.0243 -10.6672
#
#
#
# Elastic Compliance Matrix: (Units=1/GPa)
#
#
# Indices 1 2 3 4 5 6 
#
# 1 0.014282 -0.000831 -0.002621 0.000285 0.000001 -0.000003
# 2 -0.000831 0.003679 0.000244 0.000011 0.000002 0.000012
# 3 -0.002621 0.000244 0.004613 0.000054 0.000004 -0.000009
# 4 0.000285 0.000011 0.000054 -0.256705 -0.000078 -0.000035
# 5 0.000001 0.000002 0.000004 -0.000078 0.012196 -0.000028
# 6 -0.000003 0.000012 -0.000009 -0.000035 -0.000028 -0.093746
#
#
# Mechanical properties :
#
#
# Convention : Reuss Voigt Hill
#
# Bulk Modulus (GPa) = 61.89819 78.07098 69.98459
# Shear Modulus (GPa) = -16.45389 49.74032 16.64322
#
# Velocity S-wave (km/s) = -2.51170 4.36705 2.52611
# Velocity P-wave (km/s) = 3.91422 7.44054 5.94486
#
# Compressibility (1/GPa) = 0.01615556
#
# Stress axis : x y z
#
# Youngs Moduli (GPa) = 70.02015 271.82631 216.79543
#
# Poissons Ratio (x) = 0.22588 0.56828
# Poissons Ratio (y) = 0.05819 -0.05279
# Poissons Ratio (z) = 0.18354 -0.06620
#
# Static dielectric constant tensor:
#      x y z
#    x 2.571530 0.000240 -0.000720 
#    y 0.000240 2.239470 0.000220 
#    z -0.000720 0.000220 3.573260 
# 
# From -- ./inp_files/3982.got.cif
#   From: 2010.05.17/outbox.cif.g08.bks.cpg/sg22_2_cif.got.tgz:3982.got - 2010.06.03 23:40:54.
