data_PCOD9327758
_publ_section_title
;
Structure prediction by ZEFSAII (Michael W. Deem and Ramdas Pophale) SiO2 
 PCOD9327758
Probable space group: F 2 2 2
;
_chemical_formula_sum "Si O2"
_cell_formula_units_Z 104
_cell_length_a 15.105773
_cell_length_b 12.343610
_cell_length_c 29.226430
_cell_angle_alpha 90.000000
_cell_angle_beta 90.000000
_cell_angle_gamma 90.000000
_cell_volume 5449.553435
_symmetry_space_group_name_H-M "F 2 2 2"
_symmetry_group_IT_number 22
_symmetry_cell_setting 'orthorhombic'
loop_
_space_group_symop_operation_xyz
x,y,z
-x,-y,z
x,-y,-z
-x,y,-z
x,1/2+y,1/2+z
-x,1/2-y,1/2+z
x,1/2-y,1/2-z
-x,1/2+y,1/2-z
1/2+x,y,1/2+z
1/2-x,-y,1/2+z
1/2+x,-y,1/2-z
1/2-x,y,1/2-z
1/2+x,1/2+y,z
1/2-x,1/2-y,z
1/2+x,1/2-y,-z
1/2-x,1/2+y,-z
loop_
_atom_site_type_symbol
_atom_site_label
_atom_site_fract_x
_atom_site_fract_y
_atom_site_fract_z
Si Si1 0.553119 0.286382 0.316078
Si Si2 0.750000 0.944313 0.250000
Si Si3 0.308489 0.858418 0.110091
Si Si4 0.899339 0.752965 0.381810
Si Si5 0.575398 0.923666 0.730457
Si Si6 0.743516 0.912448 0.357625
Si Si7 0.026027 0.620581 0.053069
O O1 0.615904 0.346421 0.351316
O O2 0.461033 0.252841 0.337553
O O3 0.602137 0.176128 0.301449
O O4 0.533159 0.363965 0.273905
O O5 0.746408 0.894196 0.301925
O O6 0.660692 0.014205 0.251907
O O7 0.250000 0.750000 0.108085
O O8 0.369546 0.868263 0.064540
O O9 0.253247 0.963611 0.125956
O O10 0.827399 0.847935 0.377399
O O11 0.843209 0.642727 0.379851
O O12 0.967213 0.787255 0.421829
O O13 0.500000 0.000000 0.709594
O O14 0.000000 0.500000 0.070685
O O15 0.000000 0.624300 0.000000
#
# Coordination Sequence:
#
# PCOD9327758 Si02
#       7
#    16   8  16  16  16  16  16
#     4  10  22  34  56  79 119 162 219 249 319 353
#     4  12  22  34  58  82 130 172 217 257 296 370
#     4  11  22  40  62  92 125 166 207 260 316 378
#     4  10  22  39  62  89 123 166 199 265 309 389
#     4  11  22  35  52  82 117 163 218 272 304 360
#     4  11  22  38  60  91 130 169 213 254 317 352
#     4  10  21  43  71  97 121 158 206 257 322 391
#
# _framework density 19.084133000000001
#
# number of rings (size 3 to 8) (size 9 to 14) (size 15 to 20)
#    0.000    1.385    3.077    2.769    0.000    3.077 
#    2.769    2.308    0.000    0.923    0.000    0.000 
#    0.000    0.000    0.000    0.000    0.000    0.000 
#
# Total GULP energy -144925.566409 kJ/mol
# GULP energy per Si atom -5574.060247 kJ/mol
# Density = 1.904070 g / cm^3
# Si number density = 19.084133 Si / 1000 Ang^3
#
#
#
# Elastic Constant Matrix: (Units=GPa)
#
#
# Indices 1 2 3 4 5 6 
#
# 1 79.4241 38.9644 7.1822 0.0000 0.0000 0.0000
# 2 38.9644 103.6191 13.6698 0.0000 0.0000 0.0000
# 3 7.1822 13.6698 55.3822 0.0000 0.0000 0.0000
# 4 0.0000 0.0000 0.0000 -52.2530 0.0000 0.0000
# 5 0.0000 0.0000 0.0000 0.0000 20.7546 0.0000
# 6 0.0000 0.0000 0.0000 0.0000 0.0000 22.7352
#
#
#
# Elastic Compliance Matrix: (Units=1/GPa)
#
#
# Indices 1 2 3 4 5 6 
#
# 1 0.015457 -0.005735 -0.000589 0.000000 0.000000 0.000000
# 2 -0.005735 0.012103 -0.002244 0.000000 0.000000 0.000000
# 3 -0.000589 -0.002244 0.018687 0.000000 0.000000 0.000000
# 4 0.000000 0.000000 0.000000 -0.019138 0.000000 0.000000
# 5 0.000000 0.000000 0.000000 0.000000 0.048182 0.000000
# 6 0.000000 0.000000 0.000000 0.000000 0.000000 0.043985
#
#
# Mechanical properties :
#
#
# Convention : Reuss Voigt Hill
#
# Bulk Modulus (GPa) = 34.35010 39.78424 37.06717
# Shear Modulus (GPa) = 34.21959 10.15464 22.18712
#
# Velocity S-wave (km/s) = 4.23908 2.30923 3.41338
# Velocity P-wave (km/s) = 6.48060 5.29170 5.91609
#
# Compressibility (1/GPa) = 0.02911200
#
# Stress axis : x y z
#
# Youngs Moduli (GPa) = 64.69430 82.62281 53.51444
#
# Poissons Ratio (x) = 0.47382 0.03152
# Poissons Ratio (y) = 0.37101 0.12007
# Poissons Ratio (z) = 0.03811 0.18538
#
# Static dielectric constant tensor:
#      x y z
#    x 1.655130 0.000000 0.000000 
#    y 0.000000 1.702010 0.000000 
#    z 0.000000 0.000000 1.698010 
# 
# From -- ./inp_files/56460.got.cif
#   From: 2010.05.17/outbox.cif.g08.bks.cpg/sg22_29_cif.got.tgz:56460.got - 2010.06.03 23:40:54.
