data_PCOD9327015
_publ_section_title
;
Structure prediction by ZEFSAII (Michael W. Deem and Ramdas Pophale) SiO2 
 PCOD9327015
Probable space group: F 2 2 2
;
_chemical_formula_sum "Si O2"
_cell_formula_units_Z 112
_cell_length_a 16.662208
_cell_length_b 14.841193
_cell_length_c 22.139939
_cell_angle_alpha 90.000000
_cell_angle_beta 90.000000
_cell_angle_gamma 90.000000
_cell_volume 5474.920086
_symmetry_space_group_name_H-M "F 2 2 2"
_symmetry_group_IT_number 22
_symmetry_cell_setting 'orthorhombic'
loop_
_space_group_symop_operation_xyz
x,y,z
-x,-y,z
x,-y,-z
-x,y,-z
x,1/2+y,1/2+z
-x,1/2-y,1/2+z
x,1/2-y,1/2-z
-x,1/2+y,1/2-z
1/2+x,y,1/2+z
1/2-x,-y,1/2+z
1/2+x,-y,1/2-z
1/2-x,y,1/2-z
1/2+x,1/2+y,z
1/2-x,1/2-y,z
1/2+x,1/2-y,-z
1/2-x,1/2+y,-z
loop_
_atom_site_type_symbol
_atom_site_label
_atom_site_fract_x
_atom_site_fract_y
_atom_site_fract_z
Si Si1 0.898092 0.595593 0.741447
Si Si2 0.913300 0.882777 0.239777
Si Si3 0.654688 0.243578 0.846810
Si Si4 0.641736 0.163756 0.129988
Si Si5 0.310992 0.629610 0.115463
Si Si6 0.464545 0.586759 0.066966
Si Si7 0.013026 0.714805 0.928339
O O1 0.899030 0.488075 0.751637
O O2 0.862853 0.649102 0.798406
O O3 0.845324 0.608271 0.681831
O O4 0.990307 0.628586 0.735228
O O5 0.873870 0.825950 0.294464
O O6 0.873626 0.840664 0.179650
O O7 0.750000 0.250000 0.855288
O O8 0.604032 0.210656 0.905031
O O9 0.669509 0.263852 0.110942
O O10 0.718016 0.106170 0.108343
O O11 0.552434 0.150547 0.103788
O O12 0.369165 0.580704 0.068518
O O13 0.500000 0.500000 0.100664
O O14 0.488712 0.683653 0.091740
O O15 0.500000 0.587351 0.000000
O O16 0.000000 0.706712 0.000000
#
# Coordination Sequence:
#
# PCOD9327015 Si02
#       7
#    16  16  16  16  16  16  16
#     4  11  21  34  60  89 121 159 195 240 307 371
#     4  10  22  37  60  89 123 158 191 245 314 365
#     4  11  23  41  61  90 123 157 202 254 303 368
#     4  10  20  38  55  83 123 151 200 250 287 356
#     4  10  21  31  57  91 116 158 193 242 300 359
#     4   9  19  36  56  83 120 152 193 249 306 359
#     4  10  21  41  64  83 114 167 204 247 305 356
#
# _framework density 20.45692
#
# number of rings (size 3 to 8) (size 9 to 14) (size 15 to 20)
#    0.000    1.857    1.429    3.429    6.000    3.429 
#    7.714    0.000    0.000    1.714    0.000    0.000 
#    0.000    0.000    0.000    0.000    0.000    0.000 
#
# Total GULP energy -156058.066641 kJ/mol
# GULP energy per Si atom -5573.502380 kJ/mol
# Density = 2.041036 g / cm^3
# Si number density = 20.456920 Si / 1000 Ang^3
#
#
#
# Elastic Constant Matrix: (Units=GPa)
#
#
# Indices 1 2 3 4 5 6 
#
# 1 189.3096 31.9614 51.7034 0.0000 0.0000 0.0000
# 2 31.9614 29.6867 2.3817 0.0000 0.0000 0.0000
# 3 51.7034 2.3817 88.5542 0.0000 0.0000 0.0000
# 4 0.0000 0.0000 0.0000 7.3756 0.0000 0.0000
# 5 0.0000 0.0000 0.0000 0.0000 7.2598 0.0000
# 6 0.0000 0.0000 0.0000 0.0000 0.0000 25.4497
#
#
#
# Elastic Compliance Matrix: (Units=1/GPa)
#
#
# Indices 1 2 3 4 5 6 
#
# 1 0.007839 -0.008090 -0.004359 0.000000 0.000000 0.000000
# 2 -0.008090 0.042106 0.003591 0.000000 0.000000 0.000000
# 3 -0.004359 0.003591 0.013741 0.000000 0.000000 0.000000
# 4 0.000000 0.000000 0.000000 0.135582 0.000000 0.000000
# 5 0.000000 0.000000 0.000000 0.000000 0.137744 0.000000
# 6 0.000000 0.000000 0.000000 0.000000 0.000000 0.039293
#
#
# Mechanical properties :
#
#
# Convention : Reuss Voigt Hill
#
# Bulk Modulus (GPa) = 21.75320 53.29370 37.52345
# Shear Modulus (GPa) = 12.21463 22.78395 17.49929
#
# Velocity S-wave (km/s) = 2.44619 3.34091 2.92793
# Velocity P-wave (km/s) = 4.31685 6.40238 5.46012
#
# Compressibility (1/GPa) = 0.04597024
#
# Stress axis : x y z
#
# Youngs Moduli (GPa) = 127.57270 23.74933 72.77452
#
# Poissons Ratio (x) = 0.19212 0.31723
# Poissons Ratio (y) = 1.03201 -0.26131
# Poissons Ratio (z) = 0.55611 -0.08528
#
# Static dielectric constant tensor:
#      x y z
#    x 1.803270 0.000000 0.000000 
#    y 0.000000 1.784680 0.000000 
#    z 0.000000 0.000000 1.729970 
# 
# From -- ./inp_files/48965.got.cif
#   From: 2010.05.17/outbox.cif.g08.bks.cpg/sg22_25_cif.got.tgz:48965.got - 2010.06.03 23:40:54.
