data_PCOD9327436
_publ_section_title
;
Structure prediction by ZEFSAII (Michael W. Deem and Ramdas Pophale) SiO2 
 PCOD9327436
Probable space group: F 2 2 2
;
_chemical_formula_sum "Si O2"
_cell_formula_units_Z 48
_cell_length_a 11.590783
_cell_length_b 17.574289
_cell_length_c 9.836859
_cell_angle_alpha 90.000000
_cell_angle_beta 90.000000
_cell_angle_gamma 90.000000
_cell_volume 2003.765918
_symmetry_space_group_name_H-M "F 2 2 2"
_symmetry_group_IT_number 22
_symmetry_cell_setting 'orthorhombic'
loop_
_space_group_symop_operation_xyz
x,y,z
-x,-y,z
x,-y,-z
-x,y,-z
x,1/2+y,1/2+z
-x,1/2-y,1/2+z
x,1/2-y,1/2-z
-x,1/2+y,1/2-z
1/2+x,y,1/2+z
1/2-x,-y,1/2+z
1/2+x,-y,1/2-z
1/2-x,y,1/2-z
1/2+x,1/2+y,z
1/2-x,1/2-y,z
1/2+x,1/2-y,-z
1/2-x,1/2+y,-z
loop_
_atom_site_type_symbol
_atom_site_label
_atom_site_fract_x
_atom_site_fract_y
_atom_site_fract_z
Si Si1 0.250000 0.750000 0.560842
Si Si2 0.941971 0.363421 0.647751
Si Si3 0.361128 0.639785 0.345935
Si Si4 0.000000 0.500000 0.815882
O O1 0.166808 0.691022 0.636226
O O2 0.329832 0.696466 0.465811
O O3 0.000000 0.372629 0.500000
O O4 0.038353 0.330348 0.748336
O O5 0.923023 0.445875 0.716800
O O6 0.250000 0.629457 0.250000
O O7 0.414110 0.558567 0.390257
#
# Coordination Sequence:
#
# PCOD9327436 Si02
#       4
#     8  16  16   8
#     4  12  21  42  80  97 140 189 220 298 351 404
#     4  10  21  37  72 103 138 179 240 275 356 415
#     4  10  21  39  73  99 140 185 230 284 354 414
#     4   8  21  42  64 100 143 174 237 284 334 429
#
# _framework density 23.954896000000002
#
# number of rings (size 3 to 8) (size 9 to 14) (size 15 to 20)
#    2.000    0.000    3.333    1.000    0.000    0.000 
#    0.000    3.333   14.667    2.000    0.000    0.000 
#    0.000    0.000    0.000    0.000    0.000    0.000 
#
# Total GULP energy -67054.455283 kJ/mol
# GULP energy per Si atom -5587.871274 kJ/mol
# Density = 2.390037 g / cm^3
# Si number density = 23.954896 Si / 1000 Ang^3
#
#
#
# Elastic Constant Matrix: (Units=GPa)
#
#
# Indices 1 2 3 4 5 6 
#
# 1 125.8712 68.5753 71.4550 0.0000 0.0000 0.0000
# 2 68.5753 200.3772 62.1841 0.0000 0.0000 0.0000
# 3 71.4550 62.1841 82.6153 0.0000 0.0000 0.0000
# 4 0.0000 0.0000 0.0000 37.8971 0.0000 0.0000
# 5 0.0000 0.0000 0.0000 0.0000 51.2624 0.0000
# 6 0.0000 0.0000 0.0000 0.0000 0.0000 57.4227
#
#
#
# Elastic Compliance Matrix: (Units=1/GPa)
#
#
# Indices 1 2 3 4 5 6 
#
# 1 0.015963 -0.001538 -0.012649 0.000000 0.000000 0.000000
# 2 -0.001538 0.006660 -0.003683 0.000000 0.000000 0.000000
# 3 -0.012649 -0.003683 0.025817 0.000000 0.000000 0.000000
# 4 0.000000 0.000000 0.000000 0.026387 0.000000 0.000000
# 5 0.000000 0.000000 0.000000 0.000000 0.019507 0.000000
# 6 0.000000 0.000000 0.000000 0.000000 0.000000 0.017415
#
#
# Mechanical properties :
#
#
# Convention : Reuss Voigt Hill
#
# Bulk Modulus (GPa) = 78.73905 90.36582 84.55243
# Shear Modulus (GPa) = 32.95486 43.09305 38.02395
#
# Velocity S-wave (km/s) = 3.71307 4.24597 3.98843
# Velocity P-wave (km/s) = 7.16405 7.86403 7.52219
#
# Compressibility (1/GPa) = 0.01270018
#
# Stress axis : x y z
#
# Youngs Moduli (GPa) = 62.64410 150.15675 38.73400
#
# Poissons Ratio (x) = 0.23087 0.48997
# Poissons Ratio (y) = 0.09632 0.14265
# Poissons Ratio (z) = 0.79242 0.55301
#
# Static dielectric constant tensor:
#      x y z
#    x 1.920640 0.000000 0.000000 
#    y 0.000000 1.921710 0.000000 
#    z 0.000000 0.000000 2.036990 
# 
# From -- ./inp_files/17633.got.cif
#   From: 2010.05.17/outbox.cif.g08.bks.cpg/sg22_9_cif.got.tgz:17633.got - 2010.06.03 23:40:54.
