data_PCOD9327353
_publ_section_title
;
Structure prediction by ZEFSAII (Michael W. Deem and Ramdas Pophale) SiO2 
 PCOD9327353
Probable space group: F 2 2 2
;
_chemical_formula_sum "Si O2"
_cell_formula_units_Z 88
_cell_length_a 16.303998
_cell_length_b 24.195550
_cell_length_c 11.215740
_cell_angle_alpha 90.000000
_cell_angle_beta 90.000000
_cell_angle_gamma 90.000000
_cell_volume 4424.432208
_symmetry_space_group_name_H-M "F 2 2 2"
_symmetry_group_IT_number 22
_symmetry_cell_setting 'orthorhombic'
loop_
_space_group_symop_operation_xyz
x,y,z
-x,-y,z
x,-y,-z
-x,y,-z
x,1/2+y,1/2+z
-x,1/2-y,1/2+z
x,1/2-y,1/2-z
-x,1/2+y,1/2-z
1/2+x,y,1/2+z
1/2-x,-y,1/2+z
1/2+x,-y,1/2-z
1/2-x,y,1/2-z
1/2+x,1/2+y,z
1/2-x,1/2-y,z
1/2+x,1/2-y,-z
1/2-x,1/2+y,-z
loop_
_atom_site_type_symbol
_atom_site_label
_atom_site_fract_x
_atom_site_fract_y
_atom_site_fract_z
Si Si1 0.179438 0.914906 0.849365
Si Si2 0.344648 0.271631 0.623467
Si Si3 0.596661 0.324383 0.999577
Si Si4 0.344423 0.879560 0.256846
Si Si5 0.590884 0.507716 0.704031
Si Si6 0.225164 0.000000 0.500000
O O1 0.250000 0.905792 0.750000
O O2 0.114267 0.957951 0.792858
O O3 0.139126 0.858204 0.893523
O O4 0.219763 0.948140 0.960428
O O5 0.380470 0.250000 0.750000
O O6 0.250000 0.250000 0.620537
O O7 0.387073 0.241456 0.512570
O O8 0.352395 0.337286 0.644246
O O9 0.637830 0.347514 0.120768
O O10 0.500000 0.334714 0.000000
O O11 0.250000 0.897840 0.250000
O O12 0.403440 0.931808 0.260611
O O13 0.500000 0.500000 0.654259
O O14 0.663745 0.509975 0.608633
#
# Coordination Sequence:
#
# PCOD9327353 Si02
#       6
#    16  16  16  16  16   8
#     4  10  21  37  56  85 125 160 197 240 303 382
#     4   9  17  35  61  88 108 143 211 258 284 339
#     4  11  21  35  61  90 120 150 195 258 311 351
#     4  11  19  36  66  89 112 157 214 259 287 352
#     4  11  22  36  56  89 124 153 197 253 310 358
#     4  10  21  36  55  80 114 164 206 234 295 372
#
# _framework density 19.889558000000001
#
# number of rings (size 3 to 8) (size 9 to 14) (size 15 to 20)
#    0.000    1.636    3.636    5.182    0.000    0.000 
#    0.000    3.636   12.000    0.000    0.000    0.000 
#    0.000    0.000    0.000    0.000    0.000    0.000 
#
# Total GULP energy -122604.092444 kJ/mol
# GULP energy per Si atom -5572.913293 kJ/mol
# Density = 1.984429 g / cm^3
# Si number density = 19.889558 Si / 1000 Ang^3
#
#
#
# Elastic Constant Matrix: (Units=GPa)
#
#
# Indices 1 2 3 4 5 6 
#
# 1 103.5531 28.3534 23.1553 0.0000 0.0000 0.0000
# 2 28.3534 103.5077 36.1783 0.0000 0.0000 0.0000
# 3 23.1553 36.1783 56.3672 0.0000 0.0000 0.0000
# 4 0.0000 0.0000 0.0000 31.9893 0.0000 0.0000
# 5 0.0000 0.0000 0.0000 0.0000 12.0651 0.0000
# 6 0.0000 0.0000 0.0000 0.0000 0.0000 16.9475
#
#
#
# Elastic Compliance Matrix: (Units=1/GPa)
#
#
# Indices 1 2 3 4 5 6 
#
# 1 0.010896 -0.001831 -0.003301 0.000000 0.000000 0.000000
# 2 -0.001831 0.012763 -0.007440 0.000000 0.000000 0.000000
# 3 -0.003301 -0.007440 0.023872 0.000000 0.000000 0.000000
# 4 0.000000 0.000000 0.000000 0.031260 0.000000 0.000000
# 5 0.000000 0.000000 0.000000 0.000000 0.082883 0.000000
# 6 0.000000 0.000000 0.000000 0.000000 0.000000 0.059006
#
#
# Mechanical properties :
#
#
# Convention : Reuss Voigt Hill
#
# Bulk Modulus (GPa) = 44.66661 48.75578 46.71120
# Shear Modulus (GPa) = 19.74052 23.91646 21.82849
#
# Velocity S-wave (km/s) = 3.15383 3.47142 3.31643
# Velocity P-wave (km/s) = 5.98065 6.37449 6.18071
#
# Compressibility (1/GPa) = 0.02238809
#
# Stress axis : x y z
#
# Youngs Moduli (GPa) = 91.77392 78.35170 41.89057
#
# Poissons Ratio (x) = 0.14347 0.13828
# Poissons Ratio (y) = 0.16804 0.31165
# Poissons Ratio (z) = 0.30294 0.58290
#
# Static dielectric constant tensor:
#      x y z
#    x 1.697970 0.000000 0.000000 
#    y 0.000000 1.903390 0.000000 
#    z 0.000000 0.000000 1.724860 
# 
# From -- ./inp_files/20116.got.cif
#   From: 2010.05.17/outbox.cif.g08.bks.cpg/sg22_11_cif.got.tgz:20116.got - 2010.06.03 23:40:54.
