data_PCOD9327451
_publ_section_title
;
Structure prediction by ZEFSAII (Michael W. Deem and Ramdas Pophale) SiO2 
 PCOD9327451
Probable space group: F 2 2 2
;
_chemical_formula_sum "Si O2"
_cell_formula_units_Z 80
_cell_length_a 18.704832
_cell_length_b 8.628674
_cell_length_c 26.334680
_cell_angle_alpha 90.000000
_cell_angle_beta 90.000000
_cell_angle_gamma 90.000000
_cell_volume 4250.361985
_symmetry_space_group_name_H-M "F 2 2 2"
_symmetry_group_IT_number 22
_symmetry_cell_setting 'orthorhombic'
loop_
_space_group_symop_operation_xyz
x,y,z
-x,-y,z
x,-y,-z
-x,y,-z
x,1/2+y,1/2+z
-x,1/2-y,1/2+z
x,1/2-y,1/2-z
-x,1/2+y,1/2-z
1/2+x,y,1/2+z
1/2-x,-y,1/2+z
1/2+x,-y,1/2-z
1/2-x,y,1/2-z
1/2+x,1/2+y,z
1/2-x,1/2-y,z
1/2+x,1/2-y,-z
1/2-x,1/2+y,-z
loop_
_atom_site_type_symbol
_atom_site_label
_atom_site_fract_x
_atom_site_fract_y
_atom_site_fract_z
Si Si1 0.582093 0.811186 1.000000
Si Si2 0.916491 0.685596 0.694629
Si Si3 0.170026 0.186155 0.400469
Si Si4 0.329974 0.686155 0.400469
Si Si5 0.083509 0.685596 0.694629
O O1 0.624081 0.762524 0.050530
O O2 0.500000 0.757937 0.000000
O O3 0.624081 0.762524 0.949470
O O4 0.581000 0.000000 0.000000
O O5 0.896274 0.750000 0.750000
O O6 0.868270 0.754623 0.650312
O O7 0.911010 0.500000 0.694855
O O8 0.000000 0.727896 0.685902
O O9 0.250000 0.250000 0.403985
O O10 0.131730 0.245377 0.349688
O O11 0.171928 0.000000 0.399962
O O12 0.250000 0.750000 0.403985
O O13 0.103726 0.750000 0.750000
#
# Coordination Sequence:
#
# PCOD9327451 Si02
#       5
#    16  16  16  16  16
#     4   9  19  36  59  85 112 147 190 233 280 336
#     4  10  21  38  60  86 115 148 189 235 283 337
#     4  11  22  37  58  84 117 153 190 233 282 336
#     4  11  22  37  58  84 117 153 190 233 282 336
#     4  10  21  38  60  86 115 148 189 235 283 337
#
# _framework density 18.821925
#
# number of rings (size 3 to 8) (size 9 to 14) (size 15 to 20)
#    0.000    1.800    0.000    4.200    0.000    4.800 
#    0.000    7.000    0.000    7.200    0.000    0.000 
#    0.000    0.000    0.000    0.000    0.000    0.000 
#
# Total GULP energy -111792.549853 kJ/mol
# GULP energy per Si atom -5589.627493 kJ/mol
# Density = 1.877909 g / cm^3
# Si number density = 18.821925 Si / 1000 Ang^3
#
#
#
# Elastic Constant Matrix: (Units=GPa)
#
#
# Indices 1 2 3 4 5 6 
#
# 1 179.2343 49.2156 143.7104 0.0000 0.0000 0.0000
# 2 49.2156 51.4082 50.0366 0.0000 -0.0001 0.0000
# 3 143.7104 50.0366 203.6120 0.0000 0.0000 0.0000
# 4 0.0000 0.0000 0.0000 15.3658 0.0000 0.0000
# 5 0.0000 -0.0001 0.0000 0.0000 386.8270 0.0001
# 6 0.0000 0.0000 0.0000 0.0000 0.0001 24.6422
#
#
#
# Elastic Compliance Matrix: (Units=1/GPa)
#
#
# Indices 1 2 3 4 5 6 
#
# 1 0.013724 -0.004877 -0.008488 0.000000 0.000000 0.000000
# 2 -0.004877 0.027301 -0.003267 0.000000 0.000000 0.000000
# 3 -0.008488 -0.003267 0.011705 0.000000 0.000000 0.000000
# 4 0.000000 0.000000 0.000000 0.065080 0.000000 0.000000
# 5 0.000000 0.000000 0.000000 0.000000 0.002585 0.000000
# 6 0.000000 0.000000 0.000000 0.000000 0.000000 0.040581
#
#
# Mechanical properties :
#
#
# Convention : Reuss Voigt Hill
#
# Bulk Modulus (GPa) = 51.37130 102.24219 76.80674
# Shear Modulus (GPa) = 24.90924 98.11980 61.51452
#
# Velocity S-wave (km/s) = 3.64183 7.22798 5.72305
# Velocity P-wave (km/s) = 6.71092 11.13989 9.19602
#
# Compressibility (1/GPa) = 0.01946612
#
# Stress axis : x y z
#
# Youngs Moduli (GPa) = 72.86323 36.62883 85.43338
#
# Poissons Ratio (x) = 0.17865 0.72517
# Poissons Ratio (y) = 0.35538 0.27908
# Poissons Ratio (z) = 0.61847 0.11965
#
# Static dielectric constant tensor:
#      x y z
#    x 1.625170 0.000000 0.000000 
#    y 0.000000 1.630080 0.000000 
#    z 0.000000 0.000000 1.616930 
# 
# From -- ./inp_files/35115.got.cif
#   From: 2010.05.17/outbox.cif.g08.bks.cpg/sg22_18_cif.got.tgz:35115.got - 2010.06.03 23:40:54.
