data_PCOD9327102
_publ_section_title
;
Structure prediction by ZEFSAII (Michael W. Deem and Ramdas Pophale) SiO2 
 PCOD9327102
Probable space group: F 2 2 2
;
_chemical_formula_sum "Si O2"
_cell_formula_units_Z 116
_cell_length_a 9.268174
_cell_length_b 24.107360
_cell_length_c 23.310288
_cell_angle_alpha 90.000000
_cell_angle_beta 90.000000
_cell_angle_gamma 90.000000
_cell_volume 5208.245787
_symmetry_space_group_name_H-M "F 2 2 2"
_symmetry_group_IT_number 22
_symmetry_cell_setting 'orthorhombic'
loop_
_space_group_symop_operation_xyz
x,y,z
-x,-y,z
x,-y,-z
-x,y,-z
x,1/2+y,1/2+z
-x,1/2-y,1/2+z
x,1/2-y,1/2-z
-x,1/2+y,1/2-z
1/2+x,y,1/2+z
1/2-x,-y,1/2+z
1/2+x,-y,1/2-z
1/2-x,y,1/2-z
1/2+x,1/2+y,z
1/2-x,1/2-y,z
1/2+x,1/2-y,-z
1/2-x,1/2+y,-z
loop_
_atom_site_type_symbol
_atom_site_label
_atom_site_fract_x
_atom_site_fract_y
_atom_site_fract_z
Si Si1 0.485385 0.934212 0.936737
Si Si2 0.744972 0.190841 0.099727
Si Si3 0.505195 0.812792 0.315303
Si Si4 0.310729 0.924304 0.414988
Si Si5 0.746337 0.399288 0.849990
Si Si6 0.500000 0.500000 0.000000
Si Si7 0.652368 0.016842 0.298707
Si Si8 0.479269 0.188114 0.183952
O O1 0.637933 0.927008 0.904920
O O2 0.334740 0.915519 0.908243
O O3 0.500000 0.000000 0.943113
O O4 0.500000 0.908158 0.000000
O O5 0.750000 0.250000 0.068571
O O6 0.814425 0.139593 0.065749
O O7 0.590722 0.182353 0.130891
O O8 0.855489 0.194614 0.152374
O O9 0.602853 0.860816 0.344767
O O10 0.465961 0.821032 0.248658
O O11 0.577131 0.751571 0.319235
O O12 0.393191 0.962874 0.460545
O O13 0.370625 0.944048 0.353514
O O14 0.720439 0.458718 0.820519
O O15 0.859776 0.359041 0.819994
O O16 0.750000 0.043209 0.250000
O O17 0.500000 0.000000 0.272450
#
# Coordination Sequence:
#
# PCOD9327102 Si02
#       8
#    16  16  16  16  16   4  16  16
#     4  11  24  43  69  93 124 173 231 289 347 411
#     4  10  22  40  67  97 137 182 229 286 354 409
#     4  10  21  35  64  96 140 183 229 281 328 421
#     4  12  25  46  72 101 142 181 239 295 343 424
#     4  12  23  40  63  94 133 179 232 280 352 421
#     4  12  28  48  78 112 136 192 250 292 356 420
#     4  12  28  43  64 102 145 183 226 284 362 431
#     4  10  20  39  59  98 138 185 231 273 340 414
#
# _framework density 22.272375
#
# number of rings (size 3 to 8) (size 9 to 14) (size 15 to 20)
#    0.000    0.966    3.448    3.724    1.931    4.966 
#    0.000    0.000    1.517    1.655    0.000    0.000 
#    0.000    0.000    0.000    0.000    0.000    0.000 
#
# Total GULP energy -161553.864987 kJ/mol
# GULP energy per Si atom -5570.822931 kJ/mol
# Density = 2.222168 g / cm^3
# Si number density = 22.272375 Si / 1000 Ang^3
#
#
#
# Elastic Constant Matrix: (Units=GPa)
#
#
# Indices 1 2 3 4 5 6 
#
# 1 73.6788 19.8061 8.7467 0.0000 0.0000 0.0000
# 2 19.8061 150.7517 21.5336 0.0000 0.0000 0.0000
# 3 8.7467 21.5336 60.2473 0.0000 0.0000 0.0000
# 4 0.0000 0.0000 0.0000 66.8222 0.0000 0.0000
# 5 0.0000 0.0000 0.0000 0.0000 40.6760 0.0000
# 6 0.0000 0.0000 0.0000 0.0000 0.0000 26.7379
#
#
#
# Elastic Compliance Matrix: (Units=1/GPa)
#
#
# Indices 1 2 3 4 5 6 
#
# 1 0.014192 -0.001655 -0.001469 0.000000 0.000000 0.000000
# 2 -0.001655 0.007183 -0.002327 0.000000 0.000000 0.000000
# 3 -0.001469 -0.002327 0.017643 0.000000 0.000000 0.000000
# 4 0.000000 0.000000 0.000000 0.014965 0.000000 0.000000
# 5 0.000000 0.000000 0.000000 0.000000 0.024585 0.000000
# 6 0.000000 0.000000 0.000000 0.000000 0.000000 0.037400
#
#
# Mechanical properties :
#
#
# Convention : Reuss Voigt Hill
#
# Bulk Modulus (GPa) = 35.56627 42.76118 39.16373
# Shear Modulus (GPa) = 36.69950 42.48666 39.59308
#
# Velocity S-wave (km/s) = 4.06366 4.37234 4.22082
# Velocity P-wave (km/s) = 6.16614 6.68810 6.43242
#
# Compressibility (1/GPa) = 0.02811652
#
# Stress axis : x y z
#
# Youngs Moduli (GPa) = 70.46418 139.21290 56.67875
#
# Poissons Ratio (x) = 0.23036 0.08326
# Poissons Ratio (y) = 0.11660 0.13190
# Poissons Ratio (z) = 0.10350 0.32398
#
# Static dielectric constant tensor:
#      x y z
#    x 1.618790 0.000000 0.000000 
#    y 0.000000 1.715160 0.000000 
#    z 0.000000 0.000000 1.995610 
# 
# From -- ./inp_files/52133.got.cif
#   From: 2010.05.17/outbox.cif.g08.bks.cpg/sg22_27_cif.got.tgz:52133.got - 2010.06.03 23:40:54.
