data_PCOD9327160
_publ_section_title
;
Structure prediction by ZEFSAII (Michael W. Deem and Ramdas Pophale) SiO2 
 PCOD9327160
Probable space group: F 2 2 2
;
_chemical_formula_sum "Si O2"
_cell_formula_units_Z 68
_cell_length_a 5.685235
_cell_length_b 25.048632
_cell_length_c 21.025985
_cell_angle_alpha 90.000000
_cell_angle_beta 90.000000
_cell_angle_gamma 90.000000
_cell_volume 2994.255002
_symmetry_space_group_name_H-M "F 2 2 2"
_symmetry_group_IT_number 22
_symmetry_cell_setting 'orthorhombic'
loop_
_space_group_symop_operation_xyz
x,y,z
-x,-y,z
x,-y,-z
-x,y,-z
x,1/2+y,1/2+z
-x,1/2-y,1/2+z
x,1/2-y,1/2-z
-x,1/2+y,1/2-z
1/2+x,y,1/2+z
1/2-x,-y,1/2+z
1/2+x,-y,1/2-z
1/2-x,y,1/2-z
1/2+x,1/2+y,z
1/2-x,1/2-y,z
1/2+x,1/2-y,-z
1/2-x,1/2+y,-z
loop_
_atom_site_type_symbol
_atom_site_label
_atom_site_fract_x
_atom_site_fract_y
_atom_site_fract_z
Si Si1 0.250000 0.439007 0.750000
Si Si2 0.250000 0.750000 0.250000
Si Si3 0.250000 0.250000 0.962662
Si Si4 0.054781 0.342397 0.299032
Si Si5 0.901149 0.861093 0.929365
Si Si6 0.743891 0.025497 0.109979
O O1 0.455098 0.396878 0.767738
O O2 0.272260 0.473824 0.686852
O O3 0.384416 0.708325 0.205112
O O4 0.248408 0.193079 0.928188
O O5 0.500000 0.251161 0.000000
O O6 0.250000 0.325253 0.250000
O O7 0.095984 0.354792 0.373229
O O8 0.754204 0.912999 0.910960
O O9 0.000000 0.868268 0.000000
O O10 0.500000 0.000000 0.085561
O O11 0.000000 0.000000 0.092211
#
# Coordination Sequence:
#
# PCOD9327160 Si02
#       6
#     8   4   8  16  16  16
#     4   9  22  39  66 100 138 177 244 287 362 428
#     4  10  20  40  60 106 144 182 244 298 376 434
#     4  10  23  48  74 107 141 199 248 304 368 447
#     4  10  21  40  70  98 142 190 240 305 370 432
#     4  10  24  48  72 108 149 193 248 302 372 447
#     4  11  25  43  73 105 142 189 239 297 362 430
#
# _framework density 22.710156000000001
#
# number of rings (size 3 to 8) (size 9 to 14) (size 15 to 20)
#    0.000    1.882    0.000    1.765    6.588    4.235 
#   33.882    1.176    0.000    0.000    0.000    0.000 
#    0.000    0.000    0.000    0.000    0.000    0.000 
#
# Total GULP energy -94770.594373 kJ/mol
# GULP energy per Si atom -5574.740845 kJ/mol
# Density = 2.265847 g / cm^3
# Si number density = 22.710156 Si / 1000 Ang^3
#
#
#
# Elastic Constant Matrix: (Units=GPa)
#
#
# Indices 1 2 3 4 5 6 
#
# 1 114.7281 63.1809 40.5583 0.0000 0.0000 0.0000
# 2 63.1809 140.8268 12.2419 0.0000 0.0000 0.0000
# 3 40.5583 12.2419 140.8009 0.0000 0.0000 0.0000
# 4 0.0000 0.0000 0.0000 39.3575 0.0000 0.0000
# 5 0.0000 0.0000 0.0000 0.0000 3.3396 0.0000
# 6 0.0000 0.0000 0.0000 0.0000 0.0000 -120.3201
#
#
#
# Elastic Compliance Matrix: (Units=1/GPa)
#
#
# Indices 1 2 3 4 5 6 
#
# 1 0.012889 -0.005502 -0.003235 0.000000 0.000000 0.000000
# 2 -0.005502 0.009503 0.000759 0.000000 0.000000 0.000000
# 3 -0.003235 0.000759 0.007968 0.000000 0.000000 0.000000
# 4 0.000000 0.000000 0.000000 0.025408 0.000000 0.000000
# 5 0.000000 0.000000 0.000000 0.000000 0.299441 0.000000
# 6 0.000000 0.000000 0.000000 0.000000 0.000000 -0.008311
#
#
# Mechanical properties :
#
#
# Convention : Reuss Voigt Hill
#
# Bulk Modulus (GPa) = 69.41815 69.81312 69.61564
# Shear Modulus (GPa) = 13.59968 3.16705 8.38336
#
# Velocity S-wave (km/s) = 2.44977 1.18219 1.92340
# Velocity P-wave (km/s) = 6.21572 5.71586 5.97103
#
# Compressibility (1/GPa) = 0.01440545
#
# Stress axis : x y z
#
# Youngs Moduli (GPa) = 77.58281 105.22740 125.50199
#
# Poissons Ratio (x) = 0.57892 0.40594
# Poissons Ratio (y) = 0.42683 -0.09519
# Poissons Ratio (z) = 0.25094 -0.07982
#
# Static dielectric constant tensor:
#      x y z
#    x 2.000110 0.000000 0.000000 
#    y 0.000000 1.817480 0.000000 
#    z 0.000000 0.000000 2.043580 
# 
# From -- ./inp_files/41047.got.cif
#   From: 2010.05.17/outbox.cif.g08.bks.cpg/sg22_21_cif.got.tgz:41047.got - 2010.06.03 23:40:54.
