data_PCOD9327738
_publ_section_title
;
Structure prediction by ZEFSAII (Michael W. Deem and Ramdas Pophale) SiO2 
 PCOD9327738
Probable space group: F 2 2 2
;
_chemical_formula_sum "Si O2"
_cell_formula_units_Z 84
_cell_length_a 10.166886
_cell_length_b 14.739197
_cell_length_c 20.862747
_cell_angle_alpha 90.000000
_cell_angle_beta 90.000000
_cell_angle_gamma 90.000000
_cell_volume 3126.318848
_symmetry_space_group_name_H-M "F 2 2 2"
_symmetry_group_IT_number 22
_symmetry_cell_setting 'orthorhombic'
loop_
_space_group_symop_operation_xyz
x,y,z
-x,-y,z
x,-y,-z
-x,y,-z
x,1/2+y,1/2+z
-x,1/2-y,1/2+z
x,1/2-y,1/2-z
-x,1/2+y,1/2-z
1/2+x,y,1/2+z
1/2-x,-y,1/2+z
1/2+x,-y,1/2-z
1/2-x,y,1/2-z
1/2+x,1/2+y,z
1/2-x,1/2-y,z
1/2+x,1/2-y,-z
1/2-x,1/2+y,-z
loop_
_atom_site_type_symbol
_atom_site_label
_atom_site_fract_x
_atom_site_fract_y
_atom_site_fract_z
Si Si1 0.548707 0.649734 0.761944
Si Si2 0.500000 0.500000 0.000000
Si Si3 0.750000 0.250000 0.581320
Si Si4 0.982851 0.833147 0.901456
Si Si5 0.364742 0.846863 0.031305
Si Si6 0.250000 0.903883 0.750000
Si Si7 0.149627 0.469962 0.853127
O O1 0.593502 0.750000 0.750000
O O2 0.577181 0.630408 0.835657
O O3 0.392108 0.642089 0.750942
O O4 0.619797 0.589708 0.709735
O O5 0.512710 0.581361 0.054490
O O6 0.883041 0.277035 0.616216
O O7 0.721291 0.331672 0.531742
O O8 0.899567 0.751809 0.936296
O O9 0.307092 0.914416 0.084091
O O10 0.500000 0.880969 0.000000
O O11 0.240428 0.954422 0.679983
O O12 0.000000 0.500000 0.870697
#
# Coordination Sequence:
#
# PCOD9327738 Si02
#       7
#    16   4   8  16  16   8  16
#     4  11  23  42  68  92 135 179 217 276 340 409
#     4  12  24  44  68 100 136 172 226 296 328 408
#     4  10  22  40  63  95 126 170 220 272 320 414
#     4  11  24  41  66  99 132 175 223 273 348 396
#     4  10  21  43  65  90 131 174 222 269 337 412
#     4  10  25  38  61 106 126 164 228 282 325 393
#     4  10  23  43  63  96 133 172 220 278 337 395
#
# _framework density 26.868660999999999
#
# number of rings (size 3 to 8) (size 9 to 14) (size 15 to 20)
#    0.000    1.524    4.762    0.286    6.667    4.952 
#    0.000    0.000    0.000    0.000    0.000    0.000 
#    0.000    0.000    0.000    0.000    0.000    0.000 
#
# Total GULP energy -117344.561141 kJ/mol
# GULP energy per Si atom -5587.836245 kJ/mol
# Density = 2.680751 g / cm^3
# Si number density = 26.868661 Si / 1000 Ang^3
#
#
#
# Elastic Constant Matrix: (Units=GPa)
#
#
# Indices 1 2 3 4 5 6 
#
# 1 76.5660 16.5480 22.9342 0.0000 0.0000 0.0000
# 2 16.5480 81.2079 16.5454 0.0000 0.0000 0.0000
# 3 22.9342 16.5454 128.0993 0.0000 0.0000 0.0000
# 4 0.0000 0.0000 0.0000 44.3450 0.0000 0.0000
# 5 0.0000 0.0000 0.0000 0.0000 24.4086 0.0000
# 6 0.0000 0.0000 0.0000 0.0000 0.0000 6.5900
#
#
#
# Elastic Compliance Matrix: (Units=1/GPa)
#
#
# Indices 1 2 3 4 5 6 
#
# 1 0.014260 -0.002450 -0.002237 0.000000 0.000000 0.000000
# 2 -0.002450 0.013068 -0.001249 0.000000 0.000000 0.000000
# 3 -0.002237 -0.001249 0.008368 0.000000 0.000000 0.000000
# 4 0.000000 0.000000 0.000000 0.022550 0.000000 0.000000
# 5 0.000000 0.000000 0.000000 0.000000 0.040969 0.000000
# 6 0.000000 0.000000 0.000000 0.000000 0.000000 0.151745
#
#
# Mechanical properties :
#
#
# Convention : Reuss Voigt Hill
#
# Bulk Modulus (GPa) = 41.97390 44.21427 43.09408
# Shear Modulus (GPa) = 18.46555 30.39176 24.42865
#
# Velocity S-wave (km/s) = 2.62439 3.36687 3.01854
# Velocity P-wave (km/s) = 4.98388 5.62190 5.31248
#
# Compressibility (1/GPa) = 0.02382433
#
# Stress axis : x y z
#
# Youngs Moduli (GPa) = 70.12575 76.52362 119.49976
#
# Poissons Ratio (x) = 0.18749 0.26727
# Poissons Ratio (y) = 0.17182 0.14928
# Poissons Ratio (z) = 0.15684 0.09559
#
# Static dielectric constant tensor:
#      x y z
#    x 2.559160 0.000000 0.000000 
#    y 0.000000 2.087490 0.000000 
#    z 0.000000 0.000000 2.022430 
# 
# From -- ./inp_files/28233.got.cif
#   From: 2010.05.17/outbox.cif.g08.bks.cpg/sg22_15_cif.got.tgz:28233.got - 2010.06.03 23:40:54.
