data_PCOD9327041
_publ_section_title
;
Structure prediction by ZEFSAII (Michael W. Deem and Ramdas Pophale) SiO2 
 PCOD9327041
Probable space group: F 2 2 2
;
_chemical_formula_sum "Si O2"
_cell_formula_units_Z 80
_cell_length_a 28.451925
_cell_length_b 17.594543
_cell_length_c 7.934917
_cell_angle_alpha 90.000000
_cell_angle_beta 90.000000
_cell_angle_gamma 90.000000
_cell_volume 3972.208483
_symmetry_space_group_name_H-M "F 2 2 2"
_symmetry_group_IT_number 22
_symmetry_cell_setting 'orthorhombic'
loop_
_space_group_symop_operation_xyz
x,y,z
-x,-y,z
x,-y,-z
-x,y,-z
x,1/2+y,1/2+z
-x,1/2-y,1/2+z
x,1/2-y,1/2-z
-x,1/2+y,1/2-z
1/2+x,y,1/2+z
1/2-x,-y,1/2+z
1/2+x,-y,1/2-z
1/2-x,y,1/2-z
1/2+x,1/2+y,z
1/2-x,1/2-y,z
1/2+x,1/2-y,-z
1/2-x,1/2+y,-z
loop_
_atom_site_type_symbol
_atom_site_label
_atom_site_fract_x
_atom_site_fract_y
_atom_site_fract_z
Si Si1 0.300862 0.533704 0.685846
Si Si2 0.980205 0.835786 0.191967
Si Si3 0.542013 0.453062 0.328256
Si Si4 0.366397 0.568865 0.120237
Si Si5 0.128332 0.161692 0.192920
O O1 0.299110 0.500000 0.500000
O O2 0.250000 0.559147 0.750000
O O3 0.318764 0.463462 0.800980
O O4 0.337861 0.603132 0.707572
O O5 0.977608 0.750000 0.250000
O O6 0.926298 0.863454 0.209822
O O7 0.015605 0.873641 0.323052
O O8 0.000000 0.844358 0.000000
O O9 0.500000 0.500000 0.229946
O O10 0.548081 0.500000 0.500000
O O11 0.592609 0.432691 0.256375
O O12 0.382291 0.500000 0.000000
O O13 0.361388 0.643447 0.005221
O O14 0.133679 0.250000 0.250000
#
# Coordination Sequence:
#
# PCOD9327041 Si02
#       5
#    16  16  16  16  16
#     4  11  23  43  70  98 130 171 220 281 345 406
#     4  11  24  42  61  91 137 183 226 271 336 404
#     4  11  23  36  58  90 124 166 223 277 319 379
#     4  10  20  38  61  89 125 165 215 265 331 392
#     4  10  22  42  66  93 131 175 221 275 336 397
#
# _framework density 20.139928999999999
#
# number of rings (size 3 to 8) (size 9 to 14) (size 15 to 20)
#    0.000    1.400    2.000    4.800    2.800    2.800 
#    3.600    1.000    0.000    1.200    0.000    0.000 
#    0.000    0.000    0.000    0.000    0.000    0.000 
#
# Total GULP energy -111438.901127 kJ/mol
# GULP energy per Si atom -5571.945056 kJ/mol
# Density = 2.009409 g / cm^3
# Si number density = 20.139929 Si / 1000 Ang^3
#
#
#
# Elastic Constant Matrix: (Units=GPa)
#
#
# Indices 1 2 3 4 5 6 
#
# 1 138.2469 48.7028 49.4136 0.0000 0.0000 0.0000
# 2 48.7028 76.3603 54.2033 0.0000 0.0000 0.0000
# 3 49.4136 54.2033 123.0806 0.0000 0.0000 0.0000
# 4 0.0000 0.0000 0.0000 39.5022 0.0000 0.0000
# 5 0.0000 0.0000 0.0000 0.0000 15.3535 0.0000
# 6 0.0000 0.0000 0.0000 0.0000 0.0000 26.6221
#
#
#
# Elastic Compliance Matrix: (Units=1/GPa)
#
#
# Indices 1 2 3 4 5 6 
#
# 1 0.009562 -0.004908 -0.001677 0.000000 0.000000 0.000000
# 2 -0.004908 0.021570 -0.007529 0.000000 0.000000 0.000000
# 3 -0.001677 -0.007529 0.012114 0.000000 0.000000 0.000000
# 4 0.000000 0.000000 0.000000 0.025315 0.000000 0.000000
# 5 0.000000 0.000000 0.000000 0.000000 0.065132 0.000000
# 6 0.000000 0.000000 0.000000 0.000000 0.000000 0.037563
#
#
# Mechanical properties :
#
#
# Convention : Reuss Voigt Hill
#
# Bulk Modulus (GPa) = 66.58875 71.36969 68.97922
# Shear Modulus (GPa) = 24.45098 28.65343 26.55220
#
# Velocity S-wave (km/s) = 3.48811 3.77598 3.63490
# Velocity P-wave (km/s) = 7.02548 7.38408 7.20701
#
# Compressibility (1/GPa) = 0.01501755
#
# Stress axis : x y z
#
# Youngs Moduli (GPa) = 104.58020 46.35971 82.54971
#
# Poissons Ratio (x) = 0.22753 0.13848
# Poissons Ratio (y) = 0.51327 0.62152
# Poissons Ratio (z) = 0.17543 0.34904
#
# Static dielectric constant tensor:
#      x y z
#    x 1.735490 0.000000 0.000000 
#    y 0.000000 1.890090 0.000000 
#    z 0.000000 0.000000 1.935100 
# 
# From -- ./inp_files/11660.got.cif
#   From: 2010.05.17/outbox.cif.g08.bks.cpg/sg22_6_cif.got.tgz:11660.got - 2010.06.03 23:40:54.
