data_PCOD9327061
_publ_section_title
;
Structure prediction by ZEFSAII (Michael W. Deem and Ramdas Pophale) SiO2 
 PCOD9327061
Probable space group: F 2 2 2
;
_chemical_formula_sum "Si O2"
_cell_formula_units_Z 120
_cell_length_a 12.367675
_cell_length_b 20.782507
_cell_length_c 22.621017
_cell_angle_alpha 90.000000
_cell_angle_beta 90.000000
_cell_angle_gamma 90.000000
_cell_volume 5814.309232
_symmetry_space_group_name_H-M "F 2 2 2"
_symmetry_group_IT_number 22
_symmetry_cell_setting 'orthorhombic'
loop_
_space_group_symop_operation_xyz
x,y,z
-x,-y,z
x,-y,-z
-x,y,-z
x,1/2+y,1/2+z
-x,1/2-y,1/2+z
x,1/2-y,1/2-z
-x,1/2+y,1/2-z
1/2+x,y,1/2+z
1/2-x,-y,1/2+z
1/2+x,-y,1/2-z
1/2-x,y,1/2-z
1/2+x,1/2+y,z
1/2-x,1/2-y,z
1/2+x,1/2-y,-z
1/2-x,1/2+y,-z
loop_
_atom_site_type_symbol
_atom_site_label
_atom_site_fract_x
_atom_site_fract_y
_atom_site_fract_z
Si Si1 0.926972 0.183534 0.378613
Si Si2 0.294564 0.178829 0.989695
Si Si3 0.500000 0.000000 0.270767
Si Si4 0.458990 0.203406 0.697054
Si Si5 0.647292 0.602394 0.722871
Si Si6 0.633601 0.098652 0.655118
Si Si7 0.181659 0.183839 0.368855
Si Si8 0.875499 0.574306 0.484889
O O1 0.897308 0.172336 0.446540
O O2 0.855879 0.133439 0.341161
O O3 0.903909 0.255229 0.354535
O O4 0.053212 0.179757 0.358944
O O5 0.250000 0.250000 0.976928
O O6 0.315455 0.176982 0.059850
O O7 0.204790 0.123150 0.981590
O O8 0.548953 0.054445 0.229787
O O9 0.410935 0.036084 0.311312
O O10 0.501147 0.250000 0.750000
O O11 0.372283 0.159875 0.730613
O O12 0.550627 0.156576 0.671225
O O13 0.750000 0.567356 0.750000
O O14 0.753456 0.127490 0.664870
O O15 0.632138 0.084728 0.585330
O O16 0.250000 0.250000 0.356084
O O17 0.851544 0.500000 0.500000
O O18 0.000000 0.587950 0.500000
#
# Coordination Sequence:
#
# PCOD9327061 Si02
#       8
#    16  16   8  16  16  16  16  16
#     4  11  22  38  62  90 128 168 202 258 334 376
#     4  10  24  36  62  98 129 171 209 265 325 391
#     4  10  22  42  65  90 117 168 224 262 314 372
#     4   9  20  37  59  88 121 161 210 259 317 384
#     4  10  24  40  59  87 123 160 217 268 304 390
#     4  10  20  38  64  88 125 168 201 272 324 366
#     4  10  20  39  61  95 129 156 209 264 319 387
#     4  10  22  39  61  95 130 168 220 265 319 398
#
# _framework density 20.638736000000002
#
# number of rings (size 3 to 8) (size 9 to 14) (size 15 to 20)
#    0.000    2.000    1.333    1.200    3.733    5.067 
#    0.000    8.667    0.000    3.200    0.000    0.000 
#    0.000    0.000    0.000    0.000    0.000    0.000 
#
# Total GULP energy -167233.324896 kJ/mol
# GULP energy per Si atom -5574.444163 kJ/mol
# Density = 2.059176 g / cm^3
# Si number density = 20.638736 Si / 1000 Ang^3
#
#
#
# Elastic Constant Matrix: (Units=GPa)
#
#
# Indices 1 2 3 4 5 6 
#
# 1 60.7135 24.3618 4.7641 0.0000 0.0000 0.0000
# 2 24.3618 92.3125 25.6123 0.0000 0.0000 0.0000
# 3 4.7641 25.6123 45.8583 0.0000 0.0000 0.0000
# 4 0.0000 0.0000 0.0000 -2.1566 0.0000 0.0000
# 5 0.0000 0.0000 0.0000 0.0000 -42.4508 0.0000
# 6 0.0000 0.0000 0.0000 0.0000 0.0000 24.4721
#
#
#
# Elastic Compliance Matrix: (Units=1/GPa)
#
#
# Indices 1 2 3 4 5 6 
#
# 1 0.018456 -0.005134 0.000950 0.000000 0.000000 0.000000
# 2 -0.005134 0.014248 -0.007424 0.000000 0.000000 0.000000
# 3 0.000950 -0.007424 0.025854 0.000000 0.000000 0.000000
# 4 0.000000 0.000000 0.000000 -0.463691 0.000000 0.000000
# 5 0.000000 0.000000 0.000000 0.000000 -0.023557 0.000000
# 6 0.000000 0.000000 0.000000 0.000000 0.000000 0.040863
#
#
# Mechanical properties :
#
#
# Convention : Reuss Voigt Hill
#
# Bulk Modulus (GPa) = 28.29527 34.26231 31.27879
# Shear Modulus (GPa) = -14.17113 5.58268 -4.29423
#
# Velocity S-wave (km/s) = -2.62320 1.64646 -1.44402
# Velocity P-wave (km/s) = 2.13650 4.50016 3.52250
#
# Compressibility (1/GPa) = 0.03534160
#
# Stress axis : x y z
#
# Youngs Moduli (GPa) = 54.18161 70.18738 38.67879
#
# Poissons Ratio (x) = 0.36037 -0.03675
# Poissons Ratio (y) = 0.27819 0.28715
# Poissons Ratio (z) = -0.05148 0.52107
#
# Static dielectric constant tensor:
#      x y z
#    x 1.880760 0.000000 0.000000 
#    y 0.000000 1.772040 0.000000 
#    z 0.000000 0.000000 1.725040 
# 
# From -- ./inp_files/52794.got.cif
#   From: 2010.05.17/outbox.cif.g08.bks.cpg/sg22_27_cif.got.tgz:52794.got - 2010.06.03 23:40:54.
