data_PCOD9327405
_publ_section_title
;
Structure prediction by ZEFSAII (Michael W. Deem and Ramdas Pophale) SiO2 
 PCOD9327405
Probable space group: F 2 2 2
;
_chemical_formula_sum "Si O2"
_cell_formula_units_Z 128
_cell_length_a 12.970309
_cell_length_b 22.201613
_cell_length_c 22.201150
_cell_angle_alpha 90.000000
_cell_angle_beta 90.000000
_cell_angle_gamma 90.000000
_cell_volume 6393.082692
_symmetry_space_group_name_H-M "F 2 2 2"
_symmetry_group_IT_number 22
_symmetry_cell_setting 'orthorhombic'
loop_
_space_group_symop_operation_xyz
x,y,z
-x,-y,z
x,-y,-z
-x,y,-z
x,1/2+y,1/2+z
-x,1/2-y,1/2+z
x,1/2-y,1/2-z
-x,1/2+y,1/2-z
1/2+x,y,1/2+z
1/2-x,-y,1/2+z
1/2+x,-y,1/2-z
1/2-x,y,1/2-z
1/2+x,1/2+y,z
1/2-x,1/2-y,z
1/2+x,1/2-y,-z
1/2-x,1/2+y,-z
loop_
_atom_site_type_symbol
_atom_site_label
_atom_site_fract_x
_atom_site_fract_y
_atom_site_fract_z
Si Si1 0.948349 0.552901 0.620594
Si Si2 0.880379 0.144885 0.901761
Si Si3 0.709881 0.320104 0.685261
Si Si4 0.027823 0.909483 0.679587
Si Si5 0.309675 0.633308 0.039251
Si Si6 0.129104 0.475853 0.751809
Si Si7 0.042270 0.761051 0.067997
Si Si8 0.567359 0.874032 0.939582
O O1 0.861670 0.584960 0.582498
O O2 0.905836 0.525431 0.682298
O O3 0.000000 0.500000 0.582722
O O4 0.042155 0.598902 0.629773
O O5 0.772912 0.148907 0.868151
O O6 0.947408 0.206349 0.898773
O O7 0.856034 0.130038 0.971531
O O8 0.750000 0.340807 0.750000
O O9 0.750000 0.250000 0.681300
O O10 0.594723 0.347983 0.682979
O O11 0.924633 0.916905 0.719289
O O12 0.906021 0.034542 0.708641
O O13 0.984745 0.915821 0.611409
O O14 0.355932 0.697019 0.064474
O O15 0.187779 0.622041 0.042344
O O16 0.250000 0.472534 0.750000
O O17 0.061488 0.693591 0.087762
O O18 0.000000 0.756696 0.000000
O O19 0.500000 0.878652 0.000000
#
# Coordination Sequence:
#
# PCOD9327405 Si02
#       8
#    16  16  16  16  16  16  16  16
#     4  11  22  40  65  90 113 158 212 273 325 384
#     4  10  21  38  61  94 129 162 209 267 323 389
#     4  11  23  38  62  96 132 171 212 263 324 385
#     4  11  23  40  63  91 124 163 222 269 321 402
#     4  10  21  37  60  94 128 161 209 267 324 398
#     4  11  24  44  67  89 118 167 224 275 337 389
#     4   8  17  34  60  89 126 166 207 255 314 393
#     4  11  21  37  59  90 130 171 207 255 327 399
#
# _framework density 20.021640000000001
#
# number of rings (size 3 to 8) (size 9 to 14) (size 15 to 20)
#    0.000    1.625    1.250    4.875    1.750    3.000 
#    0.000    1.250    5.500    0.000    0.000    7.875 
#    0.000    0.000    0.000    0.000    0.000    0.000 
#
# Total GULP energy -178173.446146 kJ/mol
# GULP energy per Si atom -5567.920192 kJ/mol
# Density = 1.997607 g / cm^3
# Si number density = 20.021640 Si / 1000 Ang^3
#
#
#
# Elastic Constant Matrix: (Units=GPa)
#
#
# Indices 1 2 3 4 5 6 
#
# 1 155.1371 53.2997 61.9339 0.0000 0.0000 0.0000
# 2 53.2997 74.6716 29.1364 0.0000 0.0000 0.0000
# 3 61.9339 29.1364 100.8534 0.0000 0.0000 0.0000
# 4 0.0000 0.0000 0.0000 16.1812 0.0000 0.0000
# 5 0.0000 0.0000 0.0000 0.0000 28.5900 0.0000
# 6 0.0000 0.0000 0.0000 0.0000 0.0000 11.5373
#
#
#
# Elastic Compliance Matrix: (Units=1/GPa)
#
#
# Indices 1 2 3 4 5 6 
#
# 1 0.010185 -0.005443 -0.004682 0.000000 0.000000 0.000000
# 2 -0.005443 0.018002 -0.001858 0.000000 0.000000 0.000000
# 3 -0.004682 -0.001858 0.013328 0.000000 0.000000 0.000000
# 4 0.000000 0.000000 0.000000 0.061800 0.000000 0.000000
# 5 0.000000 0.000000 0.000000 0.000000 0.034977 0.000000
# 6 0.000000 0.000000 0.000000 0.000000 0.000000 0.086676
#
#
# Mechanical properties :
#
#
# Convention : Reuss Voigt Hill
#
# Bulk Modulus (GPa) = 56.98672 68.82244 62.90458
# Shear Modulus (GPa) = 19.62443 23.68117 21.65280
#
# Velocity S-wave (km/s) = 3.13415 3.44289 3.29214
# Velocity P-wave (km/s) = 6.45148 7.08895 6.77771
#
# Compressibility (1/GPa) = 0.01754795
#
# Stress axis : x y z
#
# Youngs Moduli (GPa) = 98.18159 55.54857 75.03250
#
# Poissons Ratio (x) = 0.30236 0.35132
# Poissons Ratio (y) = 0.53441 0.13943
# Poissons Ratio (z) = 0.45971 0.10322
#
# Static dielectric constant tensor:
#      x y z
#    x 1.719620 0.000000 0.000000 
#    y 0.000000 1.818210 0.000000 
#    z 0.000000 0.000000 1.712320 
# 
# From -- ./inp_files/48395.got.cif
#   From: 2010.05.17/outbox.cif.g08.bks.cpg/sg22_25_cif.got.tgz:48395.got - 2010.06.03 23:40:54.
