data_PCOD9327278
_publ_section_title
;
Structure prediction by ZEFSAII (Michael W. Deem and Ramdas Pophale) SiO2 
 PCOD9327278
Probable space group: F 2 2 2
;
_chemical_formula_sum "Si O2"
_cell_formula_units_Z 68
_cell_length_a 20.109266
_cell_length_b 18.489468
_cell_length_c 8.269125
_cell_angle_alpha 90.000000
_cell_angle_beta 90.000000
_cell_angle_gamma 90.000000
_cell_volume 3074.540308
_symmetry_space_group_name_H-M "F 2 2 2"
_symmetry_group_IT_number 22
_symmetry_cell_setting 'orthorhombic'
loop_
_space_group_symop_operation_xyz
x,y,z
-x,-y,z
x,-y,-z
-x,y,-z
x,1/2+y,1/2+z
-x,1/2-y,1/2+z
x,1/2-y,1/2-z
-x,1/2+y,1/2-z
1/2+x,y,1/2+z
1/2-x,-y,1/2+z
1/2+x,-y,1/2-z
1/2-x,y,1/2-z
1/2+x,1/2+y,z
1/2-x,1/2-y,z
1/2+x,1/2-y,-z
1/2-x,1/2+y,-z
loop_
_atom_site_type_symbol
_atom_site_label
_atom_site_fract_x
_atom_site_fract_y
_atom_site_fract_z
Si Si1 0.881975 0.916824 0.821636
Si Si2 0.067977 0.695043 0.094454
Si Si3 0.775265 0.500000 0.500000
Si Si4 0.250000 0.388143 0.250000
Si Si5 0.679805 0.288127 0.966999
Si Si6 0.000000 0.000000 0.000000
O O1 0.903992 0.881940 0.654336
O O2 0.949336 0.948421 0.901136
O O3 0.825202 0.976459 0.853894
O O4 0.846002 0.849421 0.909883
O O5 0.059250 0.750000 0.250000
O O6 0.121784 0.730855 0.977938
O O7 0.000000 0.687476 0.000000
O O8 0.736727 0.564736 0.412034
O O9 0.307863 0.333471 0.195559
O O10 0.750000 0.250000 0.011322
#
# Coordination Sequence:
#
# PCOD9327278 Si02
#       6
#    16  16   8   8  16   4
#     4   9  21  40  68  95 131 183 226 287 337 417
#     4  10  23  41  66 102 133 177 224 289 349 406
#     4   9  20  41  66  94 132 183 233 268 343 414
#     4  10  21  40  64  96 135 178 224 280 338 406
#     4  10  22  40  63 101 135 176 223 286 351 400
#     4  10  20  44  70  96 136 192 238 266 358 408
#
# _framework density 22.117128999999998
#
# number of rings (size 3 to 8) (size 9 to 14) (size 15 to 20)
#    0.000    2.353    0.000    0.353    6.588    9.882 
#    8.471    0.588    0.000    0.000    0.000    0.000 
#    0.000    0.000    0.000    0.000    0.000    0.000 
#
# Total GULP energy -94721.986986 kJ/mol
# GULP energy per Si atom -5571.881587 kJ/mol
# Density = 2.206679 g / cm^3
# Si number density = 22.117129 Si / 1000 Ang^3
#
#
#
# Elastic Constant Matrix: (Units=GPa)
#
#
# Indices 1 2 3 4 5 6 
#
# 1 150.6062 61.2555 60.3706 0.0000 0.0000 0.0000
# 2 61.2555 101.5055 46.8055 0.0000 0.0000 -0.0001
# 3 60.3706 46.8055 94.5041 0.0000 0.0000 -0.0002
# 4 0.0000 0.0000 0.0000 19.1212 0.0000 -0.0001
# 5 0.0000 0.0000 0.0000 0.0000 46.9098 0.0001
# 6 0.0000 -0.0001 -0.0002 -0.0001 0.0001 9.4995
#
#
#
# Elastic Compliance Matrix: (Units=1/GPa)
#
#
# Indices 1 2 3 4 5 6 
#
# 1 0.010051 -0.004024 -0.004428 0.000000 0.000000 0.000000
# 2 -0.004024 0.014378 -0.004551 0.000000 0.000000 0.000000
# 3 -0.004428 -0.004551 0.015664 0.000000 0.000000 0.000000
# 4 0.000000 0.000000 0.000000 0.052298 0.000000 0.000001
# 5 0.000000 0.000000 0.000000 0.000000 0.021317 0.000000
# 6 0.000000 0.000000 0.000000 0.000001 0.000000 0.105268
#
#
# Mechanical properties :
#
#
# Convention : Reuss Voigt Hill
#
# Bulk Modulus (GPa) = 70.97960 75.94212 73.46086
# Shear Modulus (GPa) = 20.02568 26.98507 23.50538
#
# Velocity S-wave (km/s) = 3.01231 3.49678 3.26355
# Velocity P-wave (km/s) = 6.65289 7.12139 6.89112
#
# Compressibility (1/GPa) = 0.01408856
#
# Stress axis : x y z
#
# Youngs Moduli (GPa) = 99.48804 69.54885 63.84017
#
# Poissons Ratio (x) = 0.27986 0.28269
# Poissons Ratio (y) = 0.40033 0.29052
# Poissons Ratio (z) = 0.44054 0.31650
#
# Static dielectric constant tensor:
#      x y z
#    x 1.767460 0.000000 0.000000 
#    y 0.000000 1.877840 0.000000 
#    z 0.000000 0.000000 1.887110 
# 
# From -- ./inp_files/11303.got.cif
#   From: 2010.05.17/outbox.cif.g08.bks.cpg/sg22_6_cif.got.tgz:11303.got - 2010.06.03 23:40:54.
