data_PCOD9327116
_publ_section_title
;
Structure prediction by ZEFSAII (Michael W. Deem and Ramdas Pophale) SiO2 
 PCOD9327116
Probable space group: F 2 2 2
;
_chemical_formula_sum "Si O2"
_cell_formula_units_Z 80
_cell_length_a 6.429870
_cell_length_b 28.161161
_cell_length_c 21.395459
_cell_angle_alpha 90.000000
_cell_angle_beta 90.000000
_cell_angle_gamma 90.000000
_cell_volume 3874.131481
_symmetry_space_group_name_H-M "F 2 2 2"
_symmetry_group_IT_number 22
_symmetry_cell_setting 'orthorhombic'
loop_
_space_group_symop_operation_xyz
x,y,z
-x,-y,z
x,-y,-z
-x,y,-z
x,1/2+y,1/2+z
-x,1/2-y,1/2+z
x,1/2-y,1/2-z
-x,1/2+y,1/2-z
1/2+x,y,1/2+z
1/2-x,-y,1/2+z
1/2+x,-y,1/2-z
1/2-x,y,1/2-z
1/2+x,1/2+y,z
1/2-x,1/2-y,z
1/2+x,1/2-y,-z
1/2-x,1/2+y,-z
loop_
_atom_site_type_symbol
_atom_site_label
_atom_site_fract_x
_atom_site_fract_y
_atom_site_fract_z
Si Si1 0.000000 0.412377 0.000000
Si Si2 0.389165 0.692681 0.810385
Si Si3 0.310026 0.894288 0.315152
Si Si4 0.750000 0.250000 0.374755
Si Si5 0.519252 0.336620 0.604933
Si Si6 0.106531 0.051201 0.939823
O O1 0.077507 0.374716 0.052103
O O2 0.842608 0.446056 0.037076
O O3 0.250000 0.702292 0.750000
O O4 0.517011 0.644659 0.799180
O O5 0.565380 0.729943 0.830977
O O6 0.227554 0.685237 0.866725
O O7 0.250000 0.919240 0.250000
O O8 0.398653 0.924789 0.372453
O O9 0.110798 0.866344 0.343274
O O10 0.642267 0.293725 0.412164
O O11 0.000000 0.000000 0.935279
O O12 0.000000 0.076590 0.000000
#
# Coordination Sequence:
#
# PCOD9327116 Si02
#       6
#     8  16  16   8  16  16
#     4  10  22  43  70  94 126 176 224 264 341 408
#     4  11  21  37  60  86 126 175 215 268 331 389
#     4  10  20  39  63  93 130 165 220 272 339 405
#     4  10  24  37  52  96 128 166 233 276 320 390
#     4  10  21  39  60  90 124 175 215 276 326 397
#     4  10  22  41  70  98 129 169 221 280 334 419
#
# _framework density 20.649788000000001
#
# number of rings (size 3 to 8) (size 9 to 14) (size 15 to 20)
#    0.000    1.800    2.000    1.800    0.000    4.000 
#    3.600    1.000    8.800    0.000    0.000    0.000 
#    0.000    0.000    0.000    0.000    0.000    0.000 
#
# Total GULP energy -111502.312022 kJ/mol
# GULP energy per Si atom -5575.115601 kJ/mol
# Density = 2.060279 g / cm^3
# Si number density = 20.649788 Si / 1000 Ang^3
#
#
#
# Elastic Constant Matrix: (Units=GPa)
#
#
# Indices 1 2 3 4 5 6 
#
# 1 101.9187 49.7030 37.1833 0.0000 0.0000 0.0000
# 2 49.7030 98.8047 59.5168 0.0000 0.0000 0.0000
# 3 37.1833 59.5168 117.1893 0.0000 0.0000 0.0000
# 4 0.0000 0.0000 0.0000 8.0071 0.0000 0.0000
# 5 0.0000 0.0000 0.0000 0.0000 23.4297 0.0000
# 6 0.0000 0.0000 0.0000 0.0000 0.0000 33.7440
#
#
#
# Elastic Compliance Matrix: (Units=1/GPa)
#
#
# Indices 1 2 3 4 5 6 
#
# 1 0.013111 -0.005892 -0.001168 0.000000 0.000000 0.000000
# 2 -0.005892 0.017230 -0.006881 0.000000 0.000000 0.000000
# 3 -0.001168 -0.006881 0.012398 0.000000 0.000000 0.000000
# 4 0.000000 0.000000 0.000000 0.124889 0.000000 0.000000
# 5 0.000000 0.000000 0.000000 0.000000 0.042681 0.000000
# 6 0.000000 0.000000 0.000000 0.000000 0.000000 0.029635
#
#
# Mechanical properties :
#
#
# Convention : Reuss Voigt Hill
#
# Bulk Modulus (GPa) = 67.30454 67.85765 67.58110
# Shear Modulus (GPa) = 18.32990 24.47014 21.40002
#
# Velocity S-wave (km/s) = 2.98259 3.44613 3.22270
# Velocity P-wave (km/s) = 6.67272 6.98333 6.82979
#
# Compressibility (1/GPa) = 0.01485784
#
# Stress axis : x y z
#
# Youngs Moduli (GPa) = 76.27087 58.03878 80.65604
#
# Poissons Ratio (x) = 0.34197 0.09418
# Poissons Ratio (y) = 0.44940 0.55499
# Poissons Ratio (z) = 0.08906 0.39936
#
# Static dielectric constant tensor:
#      x y z
#    x 1.787920 0.000000 0.000000 
#    y 0.000000 1.780610 0.000000 
#    z 0.000000 0.000000 1.766490 
# 
# From -- ./inp_files/46649.got.cif
#   From: 2010.05.17/outbox.cif.g08.bks.cpg/sg22_24_cif.got.tgz:46649.got - 2010.06.03 23:40:54.
