data_PCOD9327207
_publ_section_title
;
Structure prediction by ZEFSAII (Michael W. Deem and Ramdas Pophale) SiO2 
 PCOD9327207
Probable space group: F 2 2 2
;
_chemical_formula_sum "Si O2"
_cell_formula_units_Z 88
_cell_length_a 15.568389
_cell_length_b 23.901524
_cell_length_c 10.365750
_cell_angle_alpha 90.000000
_cell_angle_beta 90.000000
_cell_angle_gamma 90.000000
_cell_volume 3857.180816
_symmetry_space_group_name_H-M "F 2 2 2"
_symmetry_group_IT_number 22
_symmetry_cell_setting 'orthorhombic'
loop_
_space_group_symop_operation_xyz
x,y,z
-x,-y,z
x,-y,-z
-x,y,-z
x,1/2+y,1/2+z
-x,1/2-y,1/2+z
x,1/2-y,1/2-z
-x,1/2+y,1/2-z
1/2+x,y,1/2+z
1/2-x,-y,1/2+z
1/2+x,-y,1/2-z
1/2-x,y,1/2-z
1/2+x,1/2+y,z
1/2-x,1/2-y,z
1/2+x,1/2-y,-z
1/2-x,1/2+y,-z
loop_
_atom_site_type_symbol
_atom_site_label
_atom_site_fract_x
_atom_site_fract_y
_atom_site_fract_z
Si Si1 0.583914 0.892120 0.840685
Si Si2 0.343764 0.627640 0.610618
Si Si3 0.672683 0.497528 0.653218
Si Si4 0.955225 0.690449 0.294690
Si Si5 0.750000 0.329631 0.250000
Si Si6 0.193063 0.697469 0.521949
O O1 0.594040 0.959017 0.829879
O O2 0.518120 0.860108 0.746795
O O3 0.676393 0.868478 0.803962
O O4 0.588849 0.875974 0.992314
O O5 0.348512 0.567329 0.676832
O O6 0.374263 0.676705 0.702989
O O7 0.247548 0.642819 0.565266
O O8 0.697021 0.500000 0.500000
O O9 0.750000 0.512203 0.750000
O O10 0.992995 0.750000 0.250000
O O11 0.905567 0.695160 0.431350
O O12 0.797742 0.298917 0.367467
O O13 0.250000 0.750000 0.569374
#
# Coordination Sequence:
#
# PCOD9327207 Si02
#       6
#    16  16  16  16   8  16
#     4  10  23  42  66  97 138 180 229 294 352 428
#     4  10  22  41  67  98 135 177 230 288 357 420
#     4  10  20  40  72 101 132 181 239 298 355 424
#     4  12  24  40  64  99 140 177 232 293 354 417
#     4  10  23  44  62  92 136 188 237 272 350 426
#     4  11  22  40  68  97 137 183 233 291 346 427
#
# _framework density 22.814591
#
# number of rings (size 3 to 8) (size 9 to 14) (size 15 to 20)
#    0.000    1.455    2.727    2.455    0.000    4.364 
#    3.273    2.727    0.000    0.000    0.000    0.000 
#    0.000    0.000    0.000    0.000    0.000    0.000 
#
# Total GULP energy -122654.714422 kJ/mol
# GULP energy per Si atom -5575.214292 kJ/mol
# Density = 2.276266 g / cm^3
# Si number density = 22.814591 Si / 1000 Ang^3
#
#
#
# Elastic Constant Matrix: (Units=GPa)
#
#
# Indices 1 2 3 4 5 6 
#
# 1 103.8765 19.6450 44.1904 0.0000 0.0000 0.0000
# 2 19.6450 127.9346 37.2132 0.0000 0.0000 0.0000
# 3 44.1904 37.2132 86.3387 0.0000 0.0000 0.0000
# 4 0.0000 0.0000 0.0000 17.9540 0.0000 0.0000
# 5 0.0000 0.0000 0.0000 0.0000 21.7236 0.0000
# 6 0.0000 0.0000 0.0000 0.0000 0.0000 -3.1237
#
#
#
# Elastic Compliance Matrix: (Units=1/GPa)
#
#
# Indices 1 2 3 4 5 6 
#
# 1 0.012307 -0.000066 -0.006271 0.000000 0.000000 0.000000
# 2 -0.000066 0.008937 -0.003818 0.000000 0.000000 0.000000
# 3 -0.006271 -0.003818 0.016438 0.000000 0.000000 0.000000
# 4 0.000000 0.000000 0.000000 0.055698 0.000000 0.000000
# 5 0.000000 0.000000 0.000000 0.000000 0.046033 0.000000
# 6 0.000000 0.000000 0.000000 0.000000 0.000000 -0.320138
#
#
# Mechanical properties :
#
#
# Convention : Reuss Voigt Hill
#
# Bulk Modulus (GPa) = 57.56378 57.80520 57.68449
# Shear Modulus (GPa) = -32.33629 21.78421 -5.27604
#
# Velocity S-wave (km/s) = -3.76886 3.09340 -1.52236
# Velocity P-wave (km/s) = 2.51930 6.17663 4.71686
#
# Compressibility (1/GPa) = 0.01737204
#
# Stress axis : x y z
#
# Youngs Moduli (GPa) = 81.25549 111.89080 60.83633
#
# Poissons Ratio (x) = 0.00736 0.38148
# Poissons Ratio (y) = 0.00535 0.23230
# Poissons Ratio (z) = 0.50952 0.42725
#
# Static dielectric constant tensor:
#      x y z
#    x 1.885450 0.000000 0.000000 
#    y 0.000000 1.872060 0.000000 
#    z 0.000000 0.000000 2.030860 
# 
# From -- ./inp_files/19965.got.cif
#   From: 2010.05.17/outbox.cif.g08.bks.cpg/sg22_10_cif.got.tgz:19965.got - 2010.06.03 23:40:54.
