data_PCOD9327726
_publ_section_title
;
Structure prediction by ZEFSAII (Michael W. Deem and Ramdas Pophale) SiO2 
 PCOD9327726
Probable space group: F 2 2 2
;
_chemical_formula_sum "Si O2"
_cell_formula_units_Z 92
_cell_length_a 8.157428
_cell_length_b 20.198043
_cell_length_c 25.639486
_cell_angle_alpha 90.000000
_cell_angle_beta 90.000000
_cell_angle_gamma 90.000000
_cell_volume 4224.466361
_symmetry_space_group_name_H-M "F 2 2 2"
_symmetry_group_IT_number 22
_symmetry_cell_setting 'orthorhombic'
loop_
_space_group_symop_operation_xyz
x,y,z
-x,-y,z
x,-y,-z
-x,y,-z
x,1/2+y,1/2+z
-x,1/2-y,1/2+z
x,1/2-y,1/2-z
-x,1/2+y,1/2-z
1/2+x,y,1/2+z
1/2-x,-y,1/2+z
1/2+x,-y,1/2-z
1/2-x,y,1/2-z
1/2+x,1/2+y,z
1/2-x,1/2-y,z
1/2+x,1/2-y,-z
1/2-x,1/2+y,-z
loop_
_atom_site_type_symbol
_atom_site_label
_atom_site_fract_x
_atom_site_fract_y
_atom_site_fract_z
Si Si1 0.623591 0.824147 0.395828
Si Si2 0.496427 0.306555 0.629894
Si Si3 0.280670 0.092271 0.926861
Si Si4 0.447074 0.572514 0.166691
Si Si5 0.500000 0.500000 0.500000
Si Si6 0.500000 0.353970 0.000000
Si Si7 0.448064 0.329847 0.255656
O O1 0.492460 0.773453 0.369660
O O2 0.811953 0.814673 0.383172
O O3 0.578942 0.895929 0.373654
O O4 0.599570 0.814282 0.456971
O O5 0.379801 0.341131 0.588360
O O6 0.481678 0.339633 0.686396
O O7 0.211676 0.067441 0.870911
O O8 0.128381 0.106098 0.965088
O O9 0.394007 0.044409 0.960483
O O10 0.500000 0.500000 0.184622
O O11 0.455803 0.624036 0.214797
O O12 0.462332 0.250000 0.250000
O O13 0.250000 0.343631 0.250000
#
# Coordination Sequence:
#
# PCOD9327726 Si02
#       7
#    16  16  16  16   4   8  16
#     4  10  21  42  71 104 140 190 234 311 345 439
#     4  11  22  42  72 104 140 181 257 292 361 430
#     4  11  28  44  71 104 145 194 245 297 369 447
#     4  11  25  44  68 106 148 188 236 299 375 437
#     4  12  28  48  72 100 138 198 246 300 372 456
#     4  10  24  42  66 100 143 189 234 292 382 418
#     4  11  20  44  78 104 139 197 240 294 367 433
#
# _framework density 21.777896999999999
#
# number of rings (size 3 to 8) (size 9 to 14) (size 15 to 20)
#    0.000    1.217    3.478    2.087    7.304    6.957 
#    4.696    0.870    0.000    0.000    0.000    0.000 
#    0.000    0.000    0.000    0.000    0.000    0.000 
#
# Total GULP energy -128253.107595 kJ/mol
# GULP energy per Si atom -5576.222069 kJ/mol
# Density = 2.172833 g / cm^3
# Si number density = 21.777897 Si / 1000 Ang^3
#
#
#
# Elastic Constant Matrix: (Units=GPa)
#
#
# Indices 1 2 3 4 5 6 
#
# 1 78.7920 45.8841 45.9450 0.0000 0.0000 0.0000
# 2 45.8841 114.1767 53.1065 0.0000 0.0000 0.0000
# 3 45.9450 53.1065 177.5344 0.0000 0.0000 0.0000
# 4 0.0000 0.0000 0.0000 30.1303 0.0000 0.0000
# 5 0.0000 0.0000 0.0000 0.0000 37.2124 0.0000
# 6 0.0000 0.0000 0.0000 0.0000 0.0000 15.9434
#
#
#
# Elastic Compliance Matrix: (Units=1/GPa)
#
#
# Indices 1 2 3 4 5 6 
#
# 1 0.017733 -0.005799 -0.002855 0.000000 0.000000 0.000000
# 2 -0.005799 0.012070 -0.002110 0.000000 0.000000 0.000000
# 3 -0.002855 -0.002110 0.007003 0.000000 0.000000 0.000000
# 4 0.000000 0.000000 0.000000 0.033189 0.000000 0.000000
# 5 0.000000 0.000000 0.000000 0.000000 0.026873 0.000000
# 6 0.000000 0.000000 0.000000 0.000000 0.000000 0.062722
#
#
# Mechanical properties :
#
#
# Convention : Reuss Voigt Hill
#
# Bulk Modulus (GPa) = 65.44780 73.37493 69.41136
# Shear Modulus (GPa) = 26.85158 31.69505 29.27332
#
# Velocity S-wave (km/s) = 3.51518 3.81908 3.67028
# Velocity P-wave (km/s) = 6.82591 7.29470 7.06419
#
# Compressibility (1/GPa) = 0.01527935
#
# Stress axis : x y z
#
# Youngs Moduli (GPa) = 56.39198 82.85013 142.80353
#
# Poissons Ratio (x) = 0.48041 0.40766
# Poissons Ratio (y) = 0.32699 0.30130
# Poissons Ratio (z) = 0.16098 0.17481
#
# Static dielectric constant tensor:
#      x y z
#    x 1.910500 0.000000 0.000000 
#    y 0.000000 1.843370 0.000000 
#    z 0.000000 0.000000 1.861930 
# 
# From -- ./inp_files/47284.got.cif
#   From: 2010.05.17/outbox.cif.g08.bks.cpg/sg22_24_cif.got.tgz:47284.got - 2010.06.03 23:40:54.
