data_PCOD9327486
_publ_section_title
;
Structure prediction by ZEFSAII (Michael W. Deem and Ramdas Pophale) SiO2 
 PCOD9327486
Probable space group: F 2 2 2
;
_chemical_formula_sum "Si O2"
_cell_formula_units_Z 96
_cell_length_a 12.515064
_cell_length_b 20.665988
_cell_length_c 17.647033
_cell_angle_alpha 90.000000
_cell_angle_beta 90.000000
_cell_angle_gamma 90.000000
_cell_volume 4564.160894
_symmetry_space_group_name_H-M "F 2 2 2"
_symmetry_group_IT_number 22
_symmetry_cell_setting 'orthorhombic'
loop_
_space_group_symop_operation_xyz
x,y,z
-x,-y,z
x,-y,-z
-x,y,-z
x,1/2+y,1/2+z
-x,1/2-y,1/2+z
x,1/2-y,1/2-z
-x,1/2+y,1/2-z
1/2+x,y,1/2+z
1/2-x,-y,1/2+z
1/2+x,-y,1/2-z
1/2-x,y,1/2-z
1/2+x,1/2+y,z
1/2-x,1/2-y,z
1/2+x,1/2-y,-z
1/2-x,1/2+y,-z
loop_
_atom_site_type_symbol
_atom_site_label
_atom_site_fract_x
_atom_site_fract_y
_atom_site_fract_z
Si Si1 0.485539 0.707750 0.147064
Si Si2 0.555469 0.349503 0.307562
Si Si3 0.605450 0.897713 0.540116
Si Si4 0.838201 0.414651 0.816842
Si Si5 0.769052 0.552626 0.841012
Si Si6 0.785182 0.180262 0.913149
O O1 0.430384 0.678615 0.222507
O O2 0.471115 0.784457 0.146275
O O3 0.434376 0.668799 0.078583
O O4 0.611814 0.691816 0.141301
O O5 0.460310 0.401466 0.295714
O O6 0.651999 0.386490 0.347917
O O7 0.500000 0.926931 0.500000
O O8 0.666367 0.938288 0.604842
O O9 0.683820 0.873243 0.474852
O O10 0.750000 0.414924 0.750000
O O11 0.823105 0.483480 0.857687
O O12 0.807859 0.352426 0.865789
O O13 0.750000 0.552089 0.750000
O O14 0.750000 0.250000 0.944016
#
# Coordination Sequence:
#
# PCOD9327486 Si02
#       6
#    16  16  16  16  16  16
#     4  10  21  38  64  98 127 174 222 281 350 394
#     4  11  21  38  66  98 134 166 226 289 340 404
#     4  10  24  45  65  98 134 175 229 280 349 423
#     4  11  23  40  67  96 131 178 227 279 340 411
#     4  11  24  43  66  96 134 180 225 276 347 409
#     4  11  22  40  66  91 128 173 226 281 340 405
#
# _framework density 21.033439000000001
#
# number of rings (size 3 to 8) (size 9 to 14) (size 15 to 20)
#    0.000    1.333    5.000    0.500    2.333    1.000 
#    0.000    6.667    0.000    2.000    0.000    0.000 
#    0.000    0.000    0.000    0.000    0.000    0.000 
#
# Total GULP energy -133856.551843 kJ/mol
# GULP energy per Si atom -5577.356327 kJ/mol
# Density = 2.098557 g / cm^3
# Si number density = 21.033439 Si / 1000 Ang^3
#
#
#
# Elastic Constant Matrix: (Units=GPa)
#
#
# Indices 1 2 3 4 5 6 
#
# 1 65.6162 24.1639 19.9913 0.0000 0.0000 0.0000
# 2 24.1639 120.8574 19.7964 0.0000 0.0000 0.0000
# 3 19.9913 19.7964 50.4000 0.0000 0.0000 0.0000
# 4 0.0000 0.0000 0.0000 -17.8884 0.0000 0.0000
# 5 0.0000 0.0000 0.0000 0.0000 28.7301 0.0000
# 6 0.0000 0.0000 0.0000 0.0000 0.0000 4.2175
#
#
#
# Elastic Compliance Matrix: (Units=1/GPa)
#
#
# Indices 1 2 3 4 5 6 
#
# 1 0.018072 -0.002607 -0.006144 0.000000 0.000000 0.000000
# 2 -0.002607 0.009219 -0.002587 0.000000 0.000000 0.000000
# 3 -0.006144 -0.002587 0.023295 0.000000 0.000000 0.000000
# 4 0.000000 0.000000 0.000000 -0.055902 0.000000 0.000000
# 5 0.000000 0.000000 0.000000 0.000000 0.034807 0.000000
# 6 0.000000 0.000000 0.000000 0.000000 0.000000 0.237109
#
#
# Mechanical properties :
#
#
# Convention : Reuss Voigt Hill
#
# Bulk Modulus (GPa) = 35.83055 40.53076 38.18066
# Shear Modulus (GPa) = 16.74596 14.53998 15.64297
#
# Velocity S-wave (km/s) = 2.82469 2.63207 2.73008
# Velocity P-wave (km/s) = 5.26408 5.34309 5.30373
#
# Compressibility (1/GPa) = 0.02790914
#
# Stress axis : x y z
#
# Youngs Moduli (GPa) = 55.33367 108.46942 42.92825
#
# Poissons Ratio (x) = 0.28276 0.26377
# Poissons Ratio (y) = 0.14425 0.11106
# Poissons Ratio (z) = 0.34000 0.28063
#
# Static dielectric constant tensor:
#      x y z
#    x 1.808150 0.000000 0.000000 
#    y 0.000000 1.737370 0.000000 
#    z 0.000000 0.000000 1.779970 
# 
# From -- ./inp_files/23787.got.cif
#   From: 2010.05.17/outbox.cif.g08.bks.cpg/sg22_12_cif.got.tgz:23787.got - 2010.06.03 23:40:54.
