data_PCOD9327754
_publ_section_title
;
Structure prediction by ZEFSAII (Michael W. Deem and Ramdas Pophale) SiO2 
 PCOD9327754
Probable space group: F 2 2 2
;
_chemical_formula_sum "Si O2"
_cell_formula_units_Z 88
_cell_length_a 25.853537
_cell_length_b 20.154986
_cell_length_c 8.528455
_cell_angle_alpha 90.000000
_cell_angle_beta 90.000000
_cell_angle_gamma 90.000000
_cell_volume 4443.987514
_symmetry_space_group_name_H-M "F 2 2 2"
_symmetry_group_IT_number 22
_symmetry_cell_setting 'orthorhombic'
loop_
_space_group_symop_operation_xyz
x,y,z
-x,-y,z
x,-y,-z
-x,y,-z
x,1/2+y,1/2+z
-x,1/2-y,1/2+z
x,1/2-y,1/2-z
-x,1/2+y,1/2-z
1/2+x,y,1/2+z
1/2-x,-y,1/2+z
1/2+x,-y,1/2-z
1/2-x,y,1/2-z
1/2+x,1/2+y,z
1/2-x,1/2-y,z
1/2+x,1/2-y,-z
1/2-x,1/2+y,-z
loop_
_atom_site_type_symbol
_atom_site_label
_atom_site_fract_x
_atom_site_fract_y
_atom_site_fract_z
Si Si1 0.529601 0.436899 0.335858
Si Si2 0.139128 0.532854 0.263557
Si Si3 0.021469 0.319337 0.331481
Si Si4 0.750000 0.900874 0.750000
Si Si5 0.769638 0.825474 0.079319
Si Si6 0.125704 0.606124 0.594173
O O1 0.500000 0.500000 0.254604
O O2 0.500000 0.431004 0.500000
O O3 0.590627 0.451263 0.348661
O O4 0.519770 0.367577 0.250759
O O5 0.196938 0.557775 0.230047
O O6 0.122825 0.570962 0.424272
O O7 0.141374 0.454412 0.293118
O O8 0.032111 0.250000 0.250000
O O9 0.072577 0.363073 0.349980
O O10 0.000000 0.302206 0.500000
O O11 0.745994 0.860575 0.585182
O O12 0.750000 0.852014 0.250000
O O13 0.750000 0.750000 0.070507
O O14 0.831080 0.836996 0.087247
#
# Coordination Sequence:
#
# PCOD9327754 Si02
#       6
#    16  16  16   8  16  16
#     4  11  23  42  65 101 134 174 227 274 346 412
#     4  10  21  43  70  99 134 175 228 282 339 415
#     4  12  25  43  65  95 132 171 220 279 341 404
#     4  10  23  44  68 102 137 178 228 292 342 398
#     4  10  23  43  65  97 134 182 232 270 338 414
#     4  10  22  41  69  98 128 178 225 273 344 411
#
# _framework density 19.802036000000001
#
# number of rings (size 3 to 8) (size 9 to 14) (size 15 to 20)
#    0.000    1.455    3.636    0.818    3.818    1.818 
#    3.273    0.000    0.000    0.000    0.000    0.000 
#    0.000    0.000    0.000    0.000    0.000    0.000 
#
# Total GULP energy -122708.207190 kJ/mol
# GULP energy per Si atom -5577.645781 kJ/mol
# Density = 1.975697 g / cm^3
# Si number density = 19.802036 Si / 1000 Ang^3
#
#
#
# Elastic Constant Matrix: (Units=GPa)
#
#
# Indices 1 2 3 4 5 6 
#
# 1 156.8333 64.5889 42.0338 0.0000 0.0000 0.0000
# 2 64.5889 108.2374 27.6223 0.0000 0.0000 0.0000
# 3 42.0338 27.6223 97.2658 0.0000 0.0000 0.0000
# 4 0.0000 0.0000 0.0000 -94.5455 0.0000 0.0000
# 5 0.0000 0.0000 0.0000 0.0000 21.6542 0.0000
# 6 0.0000 0.0000 0.0000 0.0000 0.0000 49.7234
#
#
#
# Elastic Compliance Matrix: (Units=1/GPa)
#
#
# Indices 1 2 3 4 5 6 
#
# 1 0.009005 -0.004723 -0.002550 0.000000 0.000000 0.000000
# 2 -0.004723 0.012438 -0.001491 0.000000 0.000000 0.000000
# 3 -0.002550 -0.001491 0.011807 0.000000 0.000000 0.000000
# 4 0.000000 0.000000 0.000000 -0.010577 0.000000 0.000000
# 5 0.000000 0.000000 0.000000 0.000000 0.046180 0.000000
# 6 0.000000 0.000000 0.000000 0.000000 0.000000 0.020111
#
#
# Mechanical properties :
#
#
# Convention : Reuss Voigt Hill
#
# Bulk Modulus (GPa) = 63.60978 70.09183 66.85081
# Shear Modulus (GPa) = 44.74991 10.57251 27.66121
#
# Velocity S-wave (km/s) = 4.75896 2.31316 3.74155
# Velocity P-wave (km/s) = 7.89870 6.52743 7.24558
#
# Compressibility (1/GPa) = 0.01572085
#
# Stress axis : x y z
#
# Youngs Moduli (GPa) = 111.05460 80.40129 84.69761
#
# Poissons Ratio (x) = 0.37970 0.21600
# Poissons Ratio (y) = 0.52446 0.12631
# Poissons Ratio (z) = 0.28321 0.11990
#
# Static dielectric constant tensor:
#      x y z
#    x 1.712600 0.000000 0.000000 
#    y 0.000000 1.706700 0.000000 
#    z 0.000000 0.000000 1.736690 
# 
# From -- ./inp_files/13742.got.cif
#   From: 2010.05.17/outbox.cif.g08.bks.cpg/sg22_7_cif.got.tgz:13742.got - 2010.06.03 23:40:54.
