data_PCOD9327285
_publ_section_title
;
Structure prediction by ZEFSAII (Michael W. Deem and Ramdas Pophale) SiO2 
 PCOD9327285
Probable space group: F 2 2 2
;
_chemical_formula_sum "Si O2"
_cell_formula_units_Z 72
_cell_length_a 30.281637
_cell_length_b 12.186125
_cell_length_c 9.090513
_cell_angle_alpha 90.000000
_cell_angle_beta 90.000000
_cell_angle_gamma 90.000000
_cell_volume 3354.543052
_symmetry_space_group_name_H-M "F 2 2 2"
_symmetry_group_IT_number 22
_symmetry_cell_setting 'orthorhombic'
loop_
_space_group_symop_operation_xyz
x,y,z
-x,-y,z
x,-y,-z
-x,y,-z
x,1/2+y,1/2+z
-x,1/2-y,1/2+z
x,1/2-y,1/2-z
-x,1/2+y,1/2-z
1/2+x,y,1/2+z
1/2-x,-y,1/2+z
1/2+x,-y,1/2-z
1/2-x,y,1/2-z
1/2+x,1/2+y,z
1/2-x,1/2-y,z
1/2+x,1/2-y,-z
1/2-x,1/2+y,-z
loop_
_atom_site_type_symbol
_atom_site_label
_atom_site_fract_x
_atom_site_fract_y
_atom_site_fract_z
Si Si1 0.787121 0.086532 0.872098
Si Si2 0.640041 0.572567 0.750606
Si Si3 0.949728 0.523144 0.325383
Si Si4 0.157892 0.738336 0.010779
Si Si5 0.590340 0.750000 0.250000
O O1 0.750000 0.090111 0.750000
O O2 0.831829 0.032360 0.803318
O O3 0.799659 0.205758 0.935793
O O4 0.774309 0.000000 0.000000
O O5 0.588584 0.542571 0.738923
O O6 0.661549 0.628860 0.607493
O O7 0.643162 0.664800 0.877775
O O8 0.944274 0.500000 0.500000
O O9 0.939239 0.649008 0.297281
O O10 0.000000 0.500000 0.283114
O O11 0.121626 0.720318 0.886654
#
# Coordination Sequence:
#
# PCOD9327285 Si02
#       5
#    16  16  16  16   8
#     4  10  21  42  69  98 139 181 234 290 352 416
#     4  10  20  45  68  97 141 188 220 290 355 402
#     4  11  23  44  72 104 145 185 232 293 347 407
#     4  10  22  39  72  98 136 181 232 278 349 420
#     4  12  22  42  69 104 130 184 235 278 346 416
#
# _framework density 21.463431
#
# number of rings (size 3 to 8) (size 9 to 14) (size 15 to 20)
#    0.000    1.556    4.444    0.667    0.000    4.444 
#    0.000   15.000    0.000    0.000    0.000    0.000 
#    0.000    0.000    0.000    0.000    0.000    0.000 
#
# Total GULP energy -100707.576518 kJ/mol
# GULP energy per Si atom -5594.865362 kJ/mol
# Density = 2.141458 g / cm^3
# Si number density = 21.463431 Si / 1000 Ang^3
#
#
#
# Elastic Constant Matrix: (Units=GPa)
#
#
# Indices 1 2 3 4 5 6 
#
# 1 131.5139 47.0884 62.9091 0.0000 0.0000 0.0000
# 2 47.0884 98.7503 56.6943 0.0000 0.0000 0.0000
# 3 62.9091 56.6943 114.9718 0.0000 0.0000 0.0000
# 4 0.0000 0.0000 0.0000 6.0576 0.0000 0.0000
# 5 0.0000 0.0000 0.0000 0.0000-6631.0969 0.0000
# 6 0.0000 0.0000 0.0000 0.0000 0.0000 -12.7388
#
#
#
# Elastic Compliance Matrix: (Units=1/GPa)
#
#
# Indices 1 2 3 4 5 6 
#
# 1 0.010701 -0.002429 -0.004658 0.000000 0.000000 0.000000
# 2 -0.002429 0.014677 -0.005908 0.000000 0.000000 0.000000
# 3 -0.004658 -0.005908 0.014160 0.000000 0.000000 0.000000
# 4 0.000000 0.000000 0.000000 0.165082 0.000000 0.000000
# 5 0.000000 0.000000 0.000000 0.000000 -0.000151 0.000000
# 6 0.000000 0.000000 0.000000 0.000000 0.000000 -0.078500
#
#
# Mechanical properties :
#
#
# Convention : Reuss Voigt Hill
#
# Bulk Modulus (GPa) = 73.81076 75.40218 74.60647
# Shear Modulus (GPa) = 31.95389 -1315.65268 -641.84939
#
# Velocity S-wave (km/s) = 3.86263 -24.78517 -17.31163
# Velocity P-wave (km/s) = 7.37272 27.99761 19.09855
#
# Compressibility (1/GPa) = 0.01354816
#
# Stress axis : x y z
#
# Youngs Moduli (GPa) = 93.44547 68.13471 70.62174
#
# Poissons Ratio (x) = 0.16548 0.32894
# Poissons Ratio (y) = 0.22696 0.41726
# Poissons Ratio (z) = 0.43525 0.40257
#
# Static dielectric constant tensor:
#      x y z
#    x 1.738100 0.000000 0.000000 
#    y 0.000000 18.679740 0.000000 
#    z 0.000000 0.000000 1.835840 
# 
# From -- ./inp_files/14495.got.cif
#   From: 2010.05.17/outbox.cif.g08.bks.cpg/sg22_8_cif.got.tgz:14495.got - 2010.06.03 23:40:54.
