data_PCOD9327982
_publ_section_title
;
Structure prediction by ZEFSAII (Michael W. Deem and Ramdas Pophale) SiO2 
 PCOD9327982
Probable space group: F 2 2 2
;
_chemical_formula_sum "Si O2"
_cell_formula_units_Z 64
_cell_length_a 9.106530
_cell_length_b 17.657104
_cell_length_c 15.318800
_cell_angle_alpha 90.000000
_cell_angle_beta 90.000000
_cell_angle_gamma 90.000000
_cell_volume 2463.185639
_symmetry_space_group_name_H-M "F 2 2 2"
_symmetry_group_IT_number 22
_symmetry_cell_setting 'orthorhombic'
loop_
_space_group_symop_operation_xyz
x,y,z
-x,-y,z
x,-y,-z
-x,y,-z
x,1/2+y,1/2+z
-x,1/2-y,1/2+z
x,1/2-y,1/2-z
-x,1/2+y,1/2-z
1/2+x,y,1/2+z
1/2-x,-y,1/2+z
1/2+x,-y,1/2-z
1/2-x,y,1/2-z
1/2+x,1/2+y,z
1/2-x,1/2-y,z
1/2+x,1/2-y,-z
1/2-x,1/2+y,-z
loop_
_atom_site_type_symbol
_atom_site_label
_atom_site_fract_x
_atom_site_fract_y
_atom_site_fract_z
Si Si1 0.825410 0.992685 0.845808
Si Si2 0.821523 0.174545 0.154837
Si Si3 0.575409 0.257315 0.595808
Si Si4 0.928477 0.424545 0.904837
O O1 0.750000 0.999440 0.750000
O O2 0.743431 0.055529 0.903379
O O3 0.794693 0.908227 0.883395
O O4 0.000000 0.000000 0.841677
O O5 0.750000 0.170454 0.250000
O O6 0.750000 0.250000 0.113337
O O7 0.993432 0.194471 0.153380
O O8 0.500000 0.250559 0.500000
O O9 0.750000 0.250000 0.591676
O O10 0.544692 0.341772 0.633394
O O11 0.000000 0.500000 0.863338
O O12 0.000000 0.420455 0.000000
#
# Coordination Sequence:
#
# PCOD9327982 Si02
#       4
#    16  16  16  16
#     4  11  23  41  66  95 128 168 214 264 319 380
#     4  10  22  41  64  93 129 167 211 264 319 378
#     4  11  23  41  66  95 128 168 214 264 319 380
#     4  10  22  41  64  93 129 167 211 264 319 378
#
# _framework density 25.982614000000002
#
# number of rings (size 3 to 8) (size 9 to 14) (size 15 to 20)
#    0.000    1.500    0.000    4.500    0.000    8.000 
#    0.000    5.000    0.000    0.000    0.000    0.000 
#    0.000    0.000    0.000    0.000    0.000    0.000 
#
# Total GULP energy -89517.520037 kJ/mol
# GULP energy per Si atom -5594.845002 kJ/mol
# Density = 2.592348 g / cm^3
# Si number density = 25.982614 Si / 1000 Ang^3
#
#
#
# Elastic Constant Matrix: (Units=GPa)
#
#
# Indices 1 2 3 4 5 6 
#
# 1 214.1374 17.9521 73.1402 0.0000 0.0000 0.0000
# 2 17.9521 127.8596 33.8217 0.0000 0.0000 0.0000
# 3 73.1402 33.8217 94.2119 0.0000 0.0000 0.0000
# 4 0.0000 0.0000 0.0000 7.9731 0.0000 0.0000
# 5 0.0000 0.0000 0.0000 0.0000 30.4099 0.0000
# 6 0.0000 0.0000 0.0000 0.0000 0.0000 43.3994
#
#
#
# Elastic Compliance Matrix: (Units=1/GPa)
#
#
# Indices 1 2 3 4 5 6 
#
# 1 0.006379 0.000458 -0.005117 0.000000 0.000000 0.000000
# 2 0.000458 0.008675 -0.003470 0.000000 0.000000 0.000000
# 3 -0.005117 -0.003470 0.015832 0.000000 0.000000 0.000000
# 4 0.000000 0.000000 0.000000 0.125422 0.000000 0.000000
# 5 0.000000 0.000000 0.000000 0.000000 0.032884 0.000000
# 6 0.000000 0.000000 0.000000 0.000000 0.000000 0.023042
#
#
# Mechanical properties :
#
#
# Convention : Reuss Voigt Hill
#
# Bulk Modulus (GPa) = 68.35727 76.22633 72.29180
# Shear Modulus (GPa) = 21.42545 37.10945 29.26745
#
# Velocity S-wave (km/s) = 2.87471 3.78331 3.35987
# Velocity P-wave (km/s) = 6.11429 6.96317 6.55249
#
# Compressibility (1/GPa) = 0.01462902
#
# Stress axis : x y z
#
# Youngs Moduli (GPa) = 156.75990 115.27939 63.16220
#
# Poissons Ratio (x) = -0.05278 0.32319
# Poissons Ratio (y) = -0.07177 0.21915
# Poissons Ratio (z) = 0.80210 0.39997
#
# Static dielectric constant tensor:
#      x y z
#    x 2.162610 0.000000 0.000000 
#    y 0.000000 2.023700 0.000000 
#    z 0.000000 0.000000 2.009290 
# 
# From -- ./inp_files/41510.got.cif
#   From: 2010.05.17/outbox.cif.g08.bks.cpg/sg22_21_cif.got.tgz:41510.got - 2010.06.03 23:40:54.
