data_PCOD9327895
_publ_section_title
;
Structure prediction by ZEFSAII (Michael W. Deem and Ramdas Pophale) SiO2 
 PCOD9327895
Probable space group: F 2 2 2
;
_chemical_formula_sum "Si O2"
_cell_formula_units_Z 84
_cell_length_a 22.514195
_cell_length_b 16.074168
_cell_length_c 11.461770
_cell_angle_alpha 90.000000
_cell_angle_beta 90.000000
_cell_angle_gamma 90.000000
_cell_volume 4147.979637
_symmetry_space_group_name_H-M "F 2 2 2"
_symmetry_group_IT_number 22
_symmetry_cell_setting 'orthorhombic'
loop_
_space_group_symop_operation_xyz
x,y,z
-x,-y,z
x,-y,-z
-x,y,-z
x,1/2+y,1/2+z
-x,1/2-y,1/2+z
x,1/2-y,1/2-z
-x,1/2+y,1/2-z
1/2+x,y,1/2+z
1/2-x,-y,1/2+z
1/2+x,-y,1/2-z
1/2-x,y,1/2-z
1/2+x,1/2+y,z
1/2-x,1/2-y,z
1/2+x,1/2-y,-z
1/2-x,1/2+y,-z
loop_
_atom_site_type_symbol
_atom_site_label
_atom_site_fract_x
_atom_site_fract_y
_atom_site_fract_z
Si Si1 0.053061 0.178181 0.911642
Si Si2 0.852578 0.092467 0.948160
Si Si3 0.385352 0.154408 0.209461
Si Si4 0.477904 0.138665 0.841083
Si Si5 0.500000 0.000000 0.000000
Si Si6 0.272724 0.059498 0.116455
O O1 0.041012 0.130710 0.791842
O O2 0.049438 0.276068 0.887145
O O3 0.115697 0.153932 0.963929
O O4 0.000000 0.157175 0.000000
O O5 0.887666 0.100111 0.827366
O O6 0.784598 0.113333 0.920114
O O7 0.854834 0.000000 0.000000
O O8 0.374331 0.250000 0.250000
O O9 0.450591 0.150699 0.153497
O O10 0.331651 0.113840 0.137161
O O11 0.462135 0.059269 0.916889
O O12 0.250000 0.026782 0.250000
O O13 0.281192 0.000000 0.000000
#
# Coordination Sequence:
#
# PCOD9327895 Si02
#       6
#    16  16  16  16   4  16
#     4  11  20  41  63  89 137 180 219 281 326 405
#     4  10  22  39  65  95 129 170 233 277 326 403
#     4  11  21  41  67  98 132 177 227 280 341 408
#     4  11  24  39  62  96 140 178 220 276 344 405
#     4  12  28  40  58 100 142 172 220 278 358 416
#     4   9  21  41  68 101 134 177 229 291 338 404
#
# _framework density 20.250823
#
# number of rings (size 3 to 8) (size 9 to 14) (size 15 to 20)
#    0.000    1.524    4.762    0.000    4.000    3.810 
#    0.000    0.000    0.000    0.000    0.000    0.000 
#    0.000    0.000    0.000    0.000    0.000    0.000 
#
# Total GULP energy -117117.691145 kJ/mol
# GULP energy per Si atom -5577.032912 kJ/mol
# Density = 2.020473 g / cm^3
# Si number density = 20.250823 Si / 1000 Ang^3
#
#
#
# Elastic Constant Matrix: (Units=GPa)
#
#
# Indices 1 2 3 4 5 6 
#
# 1 107.2063 39.7179 42.8146 0.0000 0.0000 0.0000
# 2 39.7179 81.7917 52.1628 0.0000 0.0000 0.0000
# 3 42.8146 52.1628 146.5077 0.0000 0.0000 0.0000
# 4 0.0000 0.0000 0.0000 40.4724 0.0000 0.0000
# 5 0.0000 0.0000 0.0000 0.0000 2.7310 0.0000
# 6 0.0000 0.0000 0.0000 0.0000 0.0000 -5.1821
#
#
#
# Elastic Compliance Matrix: (Units=1/GPa)
#
#
# Indices 1 2 3 4 5 6 
#
# 1 0.011734 -0.004543 -0.001812 0.000000 0.000000 0.000000
# 2 -0.004543 0.017577 -0.004930 0.000000 0.000000 0.000000
# 3 -0.001812 -0.004930 0.009110 0.000000 0.000000 0.000000
# 4 0.000000 0.000000 0.000000 0.024708 0.000000 0.000000
# 5 0.000000 0.000000 0.000000 0.000000 0.366171 0.000000
# 6 0.000000 0.000000 0.000000 0.000000 0.000000 -0.192972
#
#
# Mechanical properties :
#
#
# Convention : Reuss Voigt Hill
#
# Bulk Modulus (GPa) = 63.08554 67.21070 65.14812
# Shear Modulus (GPa) = 18.92631 20.99162 19.95897
#
# Velocity S-wave (km/s) = 3.06043 3.22309 3.14281
# Velocity P-wave (km/s) = 6.61120 6.86384 6.73870
#
# Compressibility (1/GPa) = 0.01585149
#
# Stress axis : x y z
#
# Youngs Moduli (GPa) = 85.21976 56.89412 109.76369
#
# Poissons Ratio (x) = 0.25845 0.19887
# Poissons Ratio (y) = 0.38713 0.54118
# Poissons Ratio (z) = 0.15440 0.28051
#
# Static dielectric constant tensor:
#      x y z
#    x 1.701080 0.000000 0.000000 
#    y 0.000000 1.734800 0.000000 
#    z 0.000000 0.000000 1.813000 
# 
# From -- ./inp_files/22545.got.cif
#   From: 2010.05.17/outbox.cif.g08.bks.cpg/sg22_12_cif.got.tgz:22545.got - 2010.06.03 23:40:54.
