data_PCOD9327487
_publ_section_title
;
Structure prediction by ZEFSAII (Michael W. Deem and Ramdas Pophale) SiO2 
 PCOD9327487
Probable space group: F 2 2 2
;
_chemical_formula_sum "Si O2"
_cell_formula_units_Z 92
_cell_length_a 21.259695
_cell_length_b 9.490729
_cell_length_c 21.194085
_cell_angle_alpha 90.000000
_cell_angle_beta 90.000000
_cell_angle_gamma 90.000000
_cell_volume 4276.330612
_symmetry_space_group_name_H-M "F 2 2 2"
_symmetry_group_IT_number 22
_symmetry_cell_setting 'orthorhombic'
loop_
_space_group_symop_operation_xyz
x,y,z
-x,-y,z
x,-y,-z
-x,y,-z
x,1/2+y,1/2+z
-x,1/2-y,1/2+z
x,1/2-y,1/2-z
-x,1/2+y,1/2-z
1/2+x,y,1/2+z
1/2-x,-y,1/2+z
1/2+x,-y,1/2-z
1/2-x,y,1/2-z
1/2+x,1/2+y,z
1/2-x,1/2-y,z
1/2+x,1/2-y,-z
1/2-x,1/2+y,-z
loop_
_atom_site_type_symbol
_atom_site_label
_atom_site_fract_x
_atom_site_fract_y
_atom_site_fract_z
Si Si1 0.907656 0.500000 0.500000
Si Si2 0.319631 0.763145 0.622827
Si Si3 0.448714 0.618937 0.873385
Si Si4 0.609676 0.487258 0.411851
Si Si5 0.319862 0.233952 0.526412
Si Si6 0.470315 0.149602 0.806820
Si Si7 0.000000 0.000000 0.500000
O O1 0.944267 0.597471 0.449615
O O2 0.865869 0.605248 0.543534
O O3 0.250000 0.750000 0.651730
O O4 0.374907 0.867025 0.647777
O O5 0.348124 0.607005 0.618418
O O6 0.311763 0.798325 0.548206
O O7 0.500000 0.500000 0.854698
O O8 0.478533 0.759495 0.844874
O O9 0.646526 0.379997 0.457512
O O10 0.582921 0.390044 0.356478
O O11 0.551175 0.557541 0.449885
O O12 0.250000 0.250000 0.553945
O O13 0.449454 0.250000 0.750000
O O14 0.500000 0.000000 0.786252
#
# Coordination Sequence:
#
# PCOD9327487 Si02
#       7
#     8  16  16  16  16  16   4
#     4  10  23  35  56  97 144 177 218 282 348 421
#     4  10  21  38  64  98 143 182 224 272 349 439
#     4  11  22  41  66 100 136 180 223 288 349 416
#     4  12  22  39  66 101 139 181 225 286 348 423
#     4  10  22  34  57  92 142 186 219 264 344 428
#     4  12  26  46  71 101 134 185 242 298 353 414
#     4  12  20  34  68 104 136 164 226 274 346 416
#
# _framework density 21.513770999999998
#
# number of rings (size 3 to 8) (size 9 to 14) (size 15 to 20)
#    0.000    1.043    4.348    1.826    9.739    1.391 
#    0.000    0.000    0.000    1.043    0.000    0.000 
#    0.000    0.000    0.000    0.000    0.000    0.000 
#
# Total GULP energy -128043.747994 kJ/mol
# GULP energy per Si atom -5567.119478 kJ/mol
# Density = 2.146480 g / cm^3
# Si number density = 21.513771 Si / 1000 Ang^3
#
#
#
# Elastic Constant Matrix: (Units=GPa)
#
#
# Indices 1 2 3 4 5 6 
#
# 1 153.1925 55.7667 15.8536 0.0000 0.0000 0.0000
# 2 55.7667 125.1652 23.5186 0.0000 0.0000 0.0000
# 3 15.8536 23.5186 56.1586 0.0000 0.0000 0.0000
# 4 0.0000 0.0000 0.0000 25.4457 0.0000 0.0000
# 5 0.0000 0.0000 0.0000 0.0000 -32.3352 0.0000
# 6 0.0000 0.0000 0.0000 0.0000 0.0000 33.2114
#
#
#
# Elastic Compliance Matrix: (Units=1/GPa)
#
#
# Indices 1 2 3 4 5 6 
#
# 1 0.007825 -0.003334 -0.000813 0.000000 0.000000 0.000000
# 2 -0.003334 0.010092 -0.003285 0.000000 0.000000 0.000000
# 3 -0.000813 -0.003285 0.019412 0.000000 0.000000 0.000000
# 4 0.000000 0.000000 0.000000 0.039299 0.000000 0.000000
# 5 0.000000 0.000000 0.000000 0.000000 -0.030926 0.000000
# 6 0.000000 0.000000 0.000000 0.000000 0.000000 0.030110
#
#
# Mechanical properties :
#
#
# Convention : Reuss Voigt Hill
#
# Bulk Modulus (GPa) = 44.51287 58.31045 51.41166
# Shear Modulus (GPa) = 50.93425 21.22289 36.07857
#
# Velocity S-wave (km/s) = 4.87099 3.14423 4.09956
# Velocity P-wave (km/s) = 7.23676 6.35171 6.80863
#
# Compressibility (1/GPa) = 0.02246541
#
# Stress axis : x y z
#
# Youngs Moduli (GPa) = 127.78763 99.08711 51.51440
#
# Poissons Ratio (x) = 0.33034 0.04188
# Poissons Ratio (y) = 0.42602 0.16924
# Poissons Ratio (z) = 0.10389 0.32553
#
# Static dielectric constant tensor:
#      x y z
#    x 1.905180 0.000000 0.000000 
#    y 0.000000 1.863390 0.000000 
#    z 0.000000 0.000000 1.809830 
# 
# From -- ./inp_files/53883.got.cif
#   From: 2010.05.17/outbox.cif.g08.bks.cpg/sg22_27_cif.got.tgz:53883.got - 2010.06.03 23:40:54.
