data_PCOD9327953
_publ_section_title
;
Structure prediction by ZEFSAII (Michael W. Deem and Ramdas Pophale) SiO2 
 PCOD9327953
Probable space group: F 2 2 2
;
_chemical_formula_sum "Si O2"
_cell_formula_units_Z 92
_cell_length_a 23.657396
_cell_length_b 20.883560
_cell_length_c 9.139386
_cell_angle_alpha 90.000000
_cell_angle_beta 90.000000
_cell_angle_gamma 90.000000
_cell_volume 4515.319583
_symmetry_space_group_name_H-M "F 2 2 2"
_symmetry_group_IT_number 22
_symmetry_cell_setting 'orthorhombic'
loop_
_space_group_symop_operation_xyz
x,y,z
-x,-y,z
x,-y,-z
-x,y,-z
x,1/2+y,1/2+z
-x,1/2-y,1/2+z
x,1/2-y,1/2-z
-x,1/2+y,1/2-z
1/2+x,y,1/2+z
1/2-x,-y,1/2+z
1/2+x,-y,1/2-z
1/2-x,y,1/2-z
1/2+x,1/2+y,z
1/2-x,1/2-y,z
1/2+x,1/2-y,-z
1/2-x,1/2+y,-z
loop_
_atom_site_type_symbol
_atom_site_label
_atom_site_fract_x
_atom_site_fract_y
_atom_site_fract_z
Si Si1 0.466536 0.836214 0.643853
Si Si2 0.250000 0.750000 0.250000
Si Si3 0.822973 0.827977 0.517625
Si Si4 0.865824 0.750000 0.250000
Si Si5 0.419359 0.672961 0.272923
Si Si6 0.888306 0.077451 0.000040
Si Si7 0.236507 0.932885 0.918569
O O1 0.500000 0.811392 0.500000
O O2 0.410109 0.796841 0.671054
O O3 0.512766 0.834418 0.770861
O O4 0.441180 0.904737 0.602814
O O5 0.210103 0.791298 0.354516
O O6 0.829485 0.785617 0.372281
O O7 0.884910 0.843502 0.581315
O O8 0.785195 0.888693 0.482731
O O9 0.409395 0.750000 0.250000
O O10 0.398416 0.622616 0.145257
O O11 0.826064 0.096347 0.941334
O O12 0.887326 0.000000 0.000000
O O13 0.250000 0.942571 0.750000
O O14 0.237174 0.000000 0.000000
#
# Coordination Sequence:
#
# PCOD9327953 Si02
#       7
#    16   4  16   8  16  16  16
#     4  10  22  40  68 100 139 184 237 290 363 425
#     4  12  28  40  72  96 142 178 236 282 362 422
#     4  12  27  43  69 103 143 184 234 297 358 435
#     4  12  26  42  68 102 145 183 238 300 360 434
#     4  11  22  42  67 104 141 188 239 290 359 434
#     4  10  23  43  72 101 141 186 249 296 358 445
#     4  11  27  46  71  99 137 186 236 296 364 430
#
# _framework density 20.375081000000002
#
# number of rings (size 3 to 8) (size 9 to 14) (size 15 to 20)
#    0.000    1.043    1.739    4.174   10.957    3.130 
#    0.000    0.000    0.000    0.000    0.000    0.000 
#    0.000    0.000    0.000    0.000    0.000    0.000 
#
# Total GULP energy -128370.891343 kJ/mol
# GULP energy per Si atom -5581.343102 kJ/mol
# Density = 2.032871 g / cm^3
# Si number density = 20.375081 Si / 1000 Ang^3
#
#
#
# Elastic Constant Matrix: (Units=GPa)
#
#
# Indices 1 2 3 4 5 6 
#
# 1 110.5331 54.6980 29.8992 0.0002 0.0000 0.0001
# 2 54.6980 107.2510 48.5627 0.0002 -0.0001 0.0001
# 3 29.8992 48.5627 72.4038 0.0005 -0.0002 0.0002
# 4 0.0002 0.0002 0.0005 164.1450 -0.0003 0.0000
# 5 0.0000 -0.0001 -0.0002 -0.0003 22.7585 0.0000
# 6 0.0001 0.0001 0.0002 0.0000 0.0000 38.7942
#
#
#
# Elastic Compliance Matrix: (Units=1/GPa)
#
#
# Indices 1 2 3 4 5 6 
#
# 1 0.012178 -0.005649 -0.001240 0.000000 0.000000 0.000000
# 2 -0.005649 0.016011 -0.008406 0.000000 0.000000 0.000000
# 3 -0.001240 -0.008406 0.019962 0.000000 0.000000 0.000000
# 4 0.000000 0.000000 0.000000 0.006092 0.000000 0.000000
# 5 0.000000 0.000000 0.000000 0.000000 0.043940 0.000000
# 6 0.000000 0.000000 0.000000 0.000000 0.000000 0.025777
#
#
# Mechanical properties :
#
#
# Convention : Reuss Voigt Hill
#
# Bulk Modulus (GPa) = 56.94682 61.83419 59.39050
# Shear Modulus (GPa) = 31.17124 55.60808 43.38966
#
# Velocity S-wave (km/s) = 3.91560 5.22986 4.61971
# Velocity P-wave (km/s) = 6.96078 8.17817 7.59391
#
# Compressibility (1/GPa) = 0.01756024
#
# Stress axis : x y z
#
# Youngs Moduli (GPa) = 82.11469 62.45531 50.09612
#
# Poissons Ratio (x) = 0.35284 0.06211
# Poissons Ratio (y) = 0.46390 0.42112
# Poissons Ratio (z) = 0.10180 0.52501
#
# Static dielectric constant tensor:
#      x y z
#    x 1.633690 0.000000 0.000000 
#    y 0.000000 1.749710 0.000000 
#    z 0.000000 0.000000 1.738480 
# 
# From -- ./inp_files/13792.got.cif
#   From: 2010.05.17/outbox.cif.g08.bks.cpg/sg22_7_cif.got.tgz:13792.got - 2010.06.03 23:40:54.
