data_PCOD9327876
_publ_section_title
;
Structure prediction by ZEFSAII (Michael W. Deem and Ramdas Pophale) SiO2 
 PCOD9327876
Probable space group: F 2 2 2
;
_chemical_formula_sum "Si O2"
_cell_formula_units_Z 64
_cell_length_a 7.493448
_cell_length_b 22.928131
_cell_length_c 16.641597
_cell_angle_alpha 90.000000
_cell_angle_beta 90.000000
_cell_angle_gamma 90.000000
_cell_volume 2859.205385
_symmetry_space_group_name_H-M "F 2 2 2"
_symmetry_group_IT_number 22
_symmetry_cell_setting 'orthorhombic'
loop_
_space_group_symop_operation_xyz
x,y,z
-x,-y,z
x,-y,-z
-x,y,-z
x,1/2+y,1/2+z
-x,1/2-y,1/2+z
x,1/2-y,1/2-z
-x,1/2+y,1/2-z
1/2+x,y,1/2+z
1/2-x,-y,1/2+z
1/2+x,-y,1/2-z
1/2-x,y,1/2-z
1/2+x,1/2+y,z
1/2-x,1/2-y,z
1/2+x,1/2-y,-z
1/2-x,1/2+y,-z
loop_
_atom_site_type_symbol
_atom_site_label
_atom_site_fract_x
_atom_site_fract_y
_atom_site_fract_z
Si Si1 0.714544 0.395897 0.507657
Si Si2 0.823167 0.619889 0.831790
Si Si3 0.350625 0.449967 0.334205
Si Si4 0.750000 0.250000 0.125200
Si Si5 0.000000 0.297947 0.500000
O O1 0.500000 0.385878 0.500000
O O2 0.757413 0.408350 0.413337
O O3 0.746016 0.442094 0.579324
O O4 0.836074 0.339710 0.525864
O O5 0.750000 0.592988 0.750000
O O6 0.774399 0.687867 0.833579
O O7 0.034129 0.609583 0.828924
O O8 0.500000 0.500000 0.342462
O O9 0.250000 0.456946 0.250000
O O10 0.924148 0.241436 0.070372
#
# Coordination Sequence:
#
# PCOD9327876 Si02
#       5
#    16  16  16   8   8
#     4   9  22  43  69  97 139 186 227 296 347 427
#     4  10  22  42  68  99 144 182 233 285 352 415
#     4  11  25  45  72 100 137 182 235 304 367 428
#     4  10  23  38  70  98 151 188 237 296 346 420
#     4  10  22  38  68 105 137 192 246 276 358 410
#
# _framework density 22.383842000000001
#
# number of rings (size 3 to 8) (size 9 to 14) (size 15 to 20)
#    0.000    2.000    0.000    1.125   21.000    4.500 
#    0.000    0.000    0.000    0.000    0.000    0.000 
#    0.000    0.000    0.000    0.000    0.000    0.000 
#
# Total GULP energy -89152.470979 kJ/mol
# GULP energy per Si atom -5572.029436 kJ/mol
# Density = 2.233290 g / cm^3
# Si number density = 22.383842 Si / 1000 Ang^3
#
#
#
# Elastic Constant Matrix: (Units=GPa)
#
#
# Indices 1 2 3 4 5 6 
#
# 1 44.3617 6.9534 35.1354 0.0000 0.0000 0.0000
# 2 6.9534 62.2159 57.6140 0.0000 0.0000 0.0000
# 3 35.1354 57.6140 237.7994 0.0000 0.0000 0.0000
# 4 0.0000 0.0000 0.0000 12.2976 0.0000 0.0000
# 5 0.0000 0.0000 0.0000 0.0000 30.8513 0.0000
# 6 0.0000 0.0000 0.0000 0.0000 0.0000 53.8207
#
#
#
# Elastic Compliance Matrix: (Units=1/GPa)
#
#
# Indices 1 2 3 4 5 6 
#
# 1 0.025562 0.000826 -0.003977 0.000000 0.000000 0.000000
# 2 0.000826 0.020749 -0.005149 0.000000 0.000000 0.000000
# 3 -0.003977 -0.005149 0.006040 0.000000 0.000000 0.000000
# 4 0.000000 0.000000 0.000000 0.081317 0.000000 0.000000
# 5 0.000000 0.000000 0.000000 0.000000 0.032414 0.000000
# 6 0.000000 0.000000 0.000000 0.000000 0.000000 0.018580
#
#
# Mechanical properties :
#
#
# Convention : Reuss Voigt Hill
#
# Bulk Modulus (GPa) = 27.97096 60.42029 44.19562
# Shear Modulus (GPa) = 23.45437 35.70551 29.57994
#
# Velocity S-wave (km/s) = 3.24053 3.99826 3.63917
# Velocity P-wave (km/s) = 5.15020 6.95458 6.11926
#
# Compressibility (1/GPa) = 0.03575137
#
# Stress axis : x y z
#
# Youngs Moduli (GPa) = 39.11999 48.19509 165.55310
#
# Poissons Ratio (x) = -0.03980 0.65840
# Poissons Ratio (y) = -0.03231 0.85245
# Poissons Ratio (z) = 0.15558 0.24816
#
# Static dielectric constant tensor:
#      x y z
#    x 1.861820 0.000000 0.000000 
#    y 0.000000 1.847700 0.000000 
#    z 0.000000 0.000000 1.941660 
# 
# From -- ./inp_files/34948.got.cif
#   From: 2010.05.17/outbox.cif.g08.bks.cpg/sg22_18_cif.got.tgz:34948.got - 2010.06.03 23:40:54.
