data_PCOD9327426
_publ_section_title
;
Structure prediction by ZEFSAII (Michael W. Deem and Ramdas Pophale) SiO2 
 PCOD9327426
Probable space group: F 2 2 2
;
_chemical_formula_sum "Si O2"
_cell_formula_units_Z 88
_cell_length_a 10.503330
_cell_length_b 30.681544
_cell_length_c 12.038344
_cell_angle_alpha 90.000000
_cell_angle_beta 90.000000
_cell_angle_gamma 90.000000
_cell_volume 3879.457254
_symmetry_space_group_name_H-M "F 2 2 2"
_symmetry_group_IT_number 22
_symmetry_cell_setting 'orthorhombic'
loop_
_space_group_symop_operation_xyz
x,y,z
-x,-y,z
x,-y,-z
-x,y,-z
x,1/2+y,1/2+z
-x,1/2-y,1/2+z
x,1/2-y,1/2-z
-x,1/2+y,1/2-z
1/2+x,y,1/2+z
1/2-x,-y,1/2+z
1/2+x,-y,1/2-z
1/2-x,y,1/2-z
1/2+x,1/2+y,z
1/2-x,1/2-y,z
1/2+x,1/2-y,-z
1/2-x,1/2+y,-z
loop_
_atom_site_type_symbol
_atom_site_label
_atom_site_fract_x
_atom_site_fract_y
_atom_site_fract_z
Si Si1 0.946217 0.683974 0.834402
Si Si2 0.000000 0.258214 0.500000
Si Si3 0.163971 0.826472 0.093788
Si Si4 0.322619 0.049564 0.967644
Si Si5 0.559722 0.408901 0.662580
Si Si6 0.563428 0.075400 0.390809
O O1 0.895089 0.691006 0.709984
O O2 0.815599 0.670692 0.898261
O O3 0.999712 0.726054 0.895212
O O4 0.041866 0.643221 0.837338
O O5 0.118751 0.291397 0.504358
O O6 0.104648 0.874366 0.085488
O O7 0.437210 0.070771 0.899359
O O8 0.199986 0.052286 0.888114
O O9 0.322440 0.075780 0.086138
O O10 0.347014 0.000000 0.000000
O O11 0.533225 0.425061 0.787901
O O12 0.500000 0.056722 0.500000
#
# Coordination Sequence:
#
# PCOD9327426 Si02
#       6
#    16   8  16  16  16  16
#     4  10  21  37  63  89 115 165 211 254 317 381
#     4  12  20  32  60  92 118 152 206 264 314 368
#     4  10  21  39  60  85 124 160 209 262 309 383
#     4  11  23  43  68  99 129 165 221 277 329 387
#     4  10  21  43  70  93 127 170 220 269 322 393
#     4  11  23  43  66  93 132 178 212 263 335 398
#
# _framework density 22.683584
#
# number of rings (size 3 to 8) (size 9 to 14) (size 15 to 20)
#    0.000    1.455    2.727    3.818    0.000    2.545 
#    9.818    0.000    0.000    8.727    0.000    0.000 
#    0.000    0.000    0.000    0.000    0.000    0.000 
#
# Total GULP energy -122844.714633 kJ/mol
# GULP energy per Si atom -5583.850665 kJ/mol
# Density = 2.263196 g / cm^3
# Si number density = 22.683584 Si / 1000 Ang^3
#
#
#
# Elastic Constant Matrix: (Units=GPa)
#
#
# Indices 1 2 3 4 5 6 
#
# 1 28.9286 -10.6952 15.0857 0.0000 0.0000 0.0000
# 2 -10.6952 80.2064 10.6185 0.0000 0.0000 0.0000
# 3 15.0857 10.6185 79.0374 0.0000 0.0000 0.0000
# 4 0.0000 0.0000 0.0000 3.6065 0.0000 0.0000
# 5 0.0000 0.0000 0.0000 0.0000 25.7105 0.0000
# 6 0.0000 0.0000 0.0000 0.0000 0.0000 -188.9087
#
#
#
# Elastic Compliance Matrix: (Units=1/GPa)
#
#
# Indices 1 2 3 4 5 6 
#
# 1 0.041676 0.006730 -0.008859 0.000000 0.000000 0.000000
# 2 0.006730 0.013780 -0.003136 0.000000 0.000000 0.000000
# 3 -0.008859 -0.003136 0.014764 0.000000 0.000000 0.000000
# 4 0.000000 0.000000 0.000000 0.277280 0.000000 0.000000
# 5 0.000000 0.000000 0.000000 0.000000 0.038895 0.000000
# 6 0.000000 0.000000 0.000000 0.000000 0.000000 -0.005294
#
#
# Mechanical properties :
#
#
# Convention : Reuss Voigt Hill
#
# Bulk Modulus (GPa) = 16.75284 24.24337 20.49811
# Shear Modulus (GPa) = 12.14985 -20.37410 -4.11213
#
# Velocity S-wave (km/s) = 2.31686 -3.00023 -1.34787
# Velocity P-wave (km/s) = 3.81558 1.13622 2.57562
#
# Compressibility (1/GPa) = 0.05969136
#
# Stress axis : x y z
#
# Youngs Moduli (GPa) = 23.99482 72.56667 67.73047
#
# Poissons Ratio (x) = -0.48838 0.60001
# Poissons Ratio (y) = -0.16149 0.21240
# Poissons Ratio (z) = 0.21256 0.22756
#
# Static dielectric constant tensor:
#      x y z
#    x 1.954820 0.000000 0.000000 
#    y 0.000000 1.828140 0.000000 
#    z 0.000000 0.000000 1.916200 
# 
# From -- ./inp_files/18398.got.cif
#   From: 2010.05.17/outbox.cif.g08.bks.cpg/sg22_10_cif.got.tgz:18398.got - 2010.06.03 23:40:54.
