data_PCOD9327930
_publ_section_title
;
Structure prediction by ZEFSAII (Michael W. Deem and Ramdas Pophale) SiO2 
 PCOD9327930
Probable space group: F 2 2 2
;
_chemical_formula_sum "Si O2"
_cell_formula_units_Z 112
_cell_length_a 24.739816
_cell_length_b 13.933682
_cell_length_c 15.749913
_cell_angle_alpha 90.000000
_cell_angle_beta 90.000000
_cell_angle_gamma 90.000000
_cell_volume 5429.258490
_symmetry_space_group_name_H-M "F 2 2 2"
_symmetry_group_IT_number 22
_symmetry_cell_setting 'orthorhombic'
loop_
_space_group_symop_operation_xyz
x,y,z
-x,-y,z
x,-y,-z
-x,y,-z
x,1/2+y,1/2+z
-x,1/2-y,1/2+z
x,1/2-y,1/2-z
-x,1/2+y,1/2-z
1/2+x,y,1/2+z
1/2-x,-y,1/2+z
1/2+x,-y,1/2-z
1/2-x,y,1/2-z
1/2+x,1/2+y,z
1/2-x,1/2-y,z
1/2+x,1/2-y,-z
1/2-x,1/2+y,-z
loop_
_atom_site_type_symbol
_atom_site_label
_atom_site_fract_x
_atom_site_fract_y
_atom_site_fract_z
Si Si1 0.697505 0.015772 0.198820
Si Si2 0.203745 0.674326 0.899220
Si Si3 0.915183 0.310582 0.835520
Si Si4 0.309254 0.708919 0.400796
Si Si5 0.908873 0.814211 0.831431
Si Si6 0.410430 0.966486 0.717393
Si Si7 0.521295 0.835030 0.412289
O O1 0.750000 0.045382 0.250000
O O2 0.676827 0.111968 0.151926
O O3 0.714353 0.934159 0.131284
O O4 0.654370 0.966992 0.263893
O O5 0.250000 0.750000 0.875031
O O6 0.147887 0.700110 0.853492
O O7 0.195613 0.681233 0.000294
O O8 0.928395 0.250000 0.750000
O O9 0.930434 0.417804 0.805691
O O10 0.942939 0.261358 0.915638
O O11 0.250000 0.750000 0.374947
O O12 0.356205 0.788825 0.387658
O O13 0.900774 0.750000 0.750000
O O14 0.966692 0.793745 0.871456
O O15 0.917830 0.923327 0.803045
O O16 0.441635 0.908817 0.642380
O O17 0.500000 0.877940 0.500000
#
# Coordination Sequence:
#
# PCOD9327930 Si02
#       7
#    16  16  16  16  16  16  16
#     4  11  23  40  68  96 131 180 224 273 345 415
#     4  10  23  38  64  96 132 173 221 277 347 408
#     4   9  20  40  64  91 132 169 218 280 332 412
#     4  11  24  43  63  95 136 173 224 287 338 418
#     4  12  23  40  67  92 123 178 225 269 341 406
#     4  10  22  40  63  99 125 171 229 278 327 413
#     4  11  24  42  66  95 135 172 217 286 354 404
#
# _framework density 20.628969000000001
#
# number of rings (size 3 to 8) (size 9 to 14) (size 15 to 20)
#    0.000    1.429    1.429    3.857    6.000    1.143 
#    0.000    0.000    0.000    0.857    0.000    0.000 
#    0.000    0.000    0.000    0.000    0.000    0.000 
#
# Total GULP energy -155911.502650 kJ/mol
# GULP energy per Si atom -5568.267952 kJ/mol
# Density = 2.058202 g / cm^3
# Si number density = 20.628969 Si / 1000 Ang^3
#
#
#
# Elastic Constant Matrix: (Units=GPa)
#
#
# Indices 1 2 3 4 5 6 
#
# 1 61.7380 20.5332 4.2692 0.0000 0.0000 0.0000
# 2 20.5332 116.0429 21.1292 0.0000 0.0000 0.0000
# 3 4.2692 21.1292 58.5992 0.0000 0.0000 0.0000
# 4 0.0000 0.0000 0.0000 13.3430 0.0000 0.0000
# 5 0.0000 0.0000 0.0000 0.0000 37.8503 0.0000
# 6 0.0000 0.0000 0.0000 0.0000 0.0000 2.3093
#
#
#
# Elastic Compliance Matrix: (Units=1/GPa)
#
#
# Indices 1 2 3 4 5 6 
#
# 1 0.017212 -0.003015 -0.000167 0.000000 0.000000 0.000000
# 2 -0.003015 0.009751 -0.003296 0.000000 0.000000 0.000000
# 3 -0.000167 -0.003296 0.018266 0.000000 0.000000 0.000000
# 4 0.000000 0.000000 0.000000 0.074945 0.000000 0.000000
# 5 0.000000 0.000000 0.000000 0.000000 0.026420 0.000000
# 6 0.000000 0.000000 0.000000 0.000000 0.000000 0.433033
#
#
# Mechanical properties :
#
#
# Convention : Reuss Voigt Hill
#
# Bulk Modulus (GPa) = 30.98639 36.47149 33.72894
# Shear Modulus (GPa) = 8.28718 23.39710 15.84214
#
# Velocity S-wave (km/s) = 2.00648 3.37142 2.77421
# Velocity P-wave (km/s) = 4.51900 5.73354 5.16211
#
# Compressibility (1/GPa) = 0.03227224
#
# Stress axis : x y z
#
# Youngs Moduli (GPa) = 58.09965 102.55125 54.74716
#
# Poissons Ratio (x) = 0.30921 0.00913
# Poissons Ratio (y) = 0.17518 0.18047
# Poissons Ratio (z) = 0.00969 0.33804
#
# Static dielectric constant tensor:
#      x y z
#    x 1.787030 0.000000 0.000000 
#    y 0.000000 1.787560 0.000000 
#    z 0.000000 0.000000 1.924560 
# 
# From -- ./inp_files/32506.got.cif
#   From: 2010.05.17/outbox.cif.g08.bks.cpg/sg22_17_cif.got.tgz:32506.got - 2010.06.03 23:40:54.
