data_PCOD9327867
_publ_section_title
;
Structure prediction by ZEFSAII (Michael W. Deem and Ramdas Pophale) SiO2 
 PCOD9327867
Probable space group: F 2 2 2
;
_chemical_formula_sum "Si O2"
_cell_formula_units_Z 116
_cell_length_a 25.050250
_cell_length_b 24.386930
_cell_length_c 9.371992
_cell_angle_alpha 90.000000
_cell_angle_beta 90.000000
_cell_angle_gamma 90.000000
_cell_volume 5725.337666
_symmetry_space_group_name_H-M "F 2 2 2"
_symmetry_group_IT_number 22
_symmetry_cell_setting 'orthorhombic'
loop_
_space_group_symop_operation_xyz
x,y,z
-x,-y,z
x,-y,-z
-x,y,-z
x,1/2+y,1/2+z
-x,1/2-y,1/2+z
x,1/2-y,1/2-z
-x,1/2+y,1/2-z
1/2+x,y,1/2+z
1/2-x,-y,1/2+z
1/2+x,-y,1/2-z
1/2-x,y,1/2-z
1/2+x,1/2+y,z
1/2-x,1/2-y,z
1/2+x,1/2-y,-z
1/2-x,1/2+y,-z
loop_
_atom_site_type_symbol
_atom_site_label
_atom_site_fract_x
_atom_site_fract_y
_atom_site_fract_z
Si Si1 0.284678 0.646171 0.940329
Si Si2 0.558138 0.305298 0.663717
Si Si3 0.131344 0.402732 0.230190
Si Si4 0.441087 0.935941 0.518594
Si Si5 0.355832 0.614270 0.200033
Si Si6 0.750000 0.250000 0.750000
Si Si7 0.559580 0.193426 0.167729
Si Si8 0.306382 0.938765 0.027619
O O1 0.317454 0.607745 0.829941
O O2 0.276832 0.705011 0.860590
O O3 0.317464 0.646811 0.089588
O O4 0.231666 0.611782 0.980371
O O5 0.562955 0.250000 0.750000
O O6 0.607681 0.343741 0.693157
O O7 0.499702 0.330511 0.699583
O O8 0.559147 0.292891 0.497753
O O9 0.085202 0.427861 0.327358
O O10 0.145297 0.434823 0.086551
O O11 0.500000 0.910287 0.500000
O O12 0.398797 0.914891 0.402326
O O13 0.446178 0.000000 0.500000
O O14 0.391528 0.654604 0.295092
O O15 0.324699 0.573942 0.309719
O O16 0.564704 0.250000 0.250000
O O17 0.282869 0.000000 0.000000
#
# Coordination Sequence:
#
# PCOD9327867 Si02
#       8
#    16  16  16  16  16   4  16  16
#     4  11  27  42  71  96 132 180 222 291 348 416
#     4  10  22  38  64  94 130 174 218 266 324 415
#     4  11  22  41  67  94 125 180 221 269 348 399
#     4  10  22  40  63  95 133 173 219 271 330 400
#     4  11  24  43  66 100 131 175 225 279 349 397
#     4  12  24  52  70 100 140 172 246 274 364 440
#     4  10  22  39  61  97 134 168 215 270 334 400
#     4  12  25  46  69  98 135 175 239 295 353 418
#
# _framework density 20.260812999999999
#
# number of rings (size 3 to 8) (size 9 to 14) (size 15 to 20)
#    0.000    1.241    2.759    2.069    4.828    5.517 
#    0.000    0.690    0.000    3.310    0.000    0.000 
#    0.000    0.000    0.000    0.000    0.000    0.000 
#
# Total GULP energy -161731.409681 kJ/mol
# GULP energy per Si atom -5576.945161 kJ/mol
# Density = 2.021470 g / cm^3
# Si number density = 20.260813 Si / 1000 Ang^3
#
#
#
# Elastic Constant Matrix: (Units=GPa)
#
#
# Indices 1 2 3 4 5 6 
#
# 1 75.0747 25.2862 39.6351 -0.0001 0.0001 0.0001
# 2 25.2862 72.7057 38.2922 0.0001 -0.0002 0.0000
# 3 39.6351 38.2922 124.4406 0.0004 0.0001 0.0002
# 4 -0.0001 0.0001 0.0004 33.0770 -0.0002 -0.0002
# 5 0.0001 -0.0002 0.0001 -0.0002 38.2230 -0.0002
# 6 0.0001 0.0000 0.0002 -0.0002 -0.0002 22.8730
#
#
#
# Elastic Compliance Matrix: (Units=1/GPa)
#
#
# Indices 1 2 3 4 5 6 
#
# 1 0.016768 -0.003603 -0.004232 0.000000 0.000000 0.000000
# 2 -0.003603 0.017188 -0.004142 0.000000 0.000000 0.000000
# 3 -0.004232 -0.004142 0.010658 0.000000 0.000000 0.000000
# 4 0.000000 0.000000 0.000000 0.030232 0.000000 0.000000
# 5 0.000000 0.000000 0.000000 0.000000 0.026162 0.000000
# 6 0.000000 0.000000 0.000000 0.000000 0.000000 0.043720
#
#
# Mechanical properties :
#
#
# Convention : Reuss Voigt Hill
#
# Bulk Modulus (GPa) = 48.39871 53.18309 50.79090
# Shear Modulus (GPa) = 28.47884 30.10177 29.29031
#
# Velocity S-wave (km/s) = 3.75322 3.85868 3.80631
# Velocity P-wave (km/s) = 6.53620 6.79402 6.66636
#
# Compressibility (1/GPa) = 0.02066171
#
# Stress axis : x y z
#
# Youngs Moduli (GPa) = 59.63815 58.17893 93.82338
#
# Poissons Ratio (x) = 0.20960 0.39706
# Poissons Ratio (y) = 0.21486 0.38858
# Poissons Ratio (z) = 0.25239 0.24095
#
# Static dielectric constant tensor:
#      x y z
#    x 1.796060 0.000000 0.000000 
#    y 0.000000 1.696000 0.000000 
#    z 0.000000 0.000000 1.716340 
# 
# From -- ./inp_files/14988.got.cif
#   From: 2010.05.17/outbox.cif.g08.bks.cpg/sg22_8_cif.got.tgz:14988.got - 2010.06.03 23:40:54.
