data_PCOD9327807
_publ_section_title
;
Structure prediction by ZEFSAII (Michael W. Deem and Ramdas Pophale) SiO2 
 PCOD9327807
Probable space group: F 2 2 2
;
_chemical_formula_sum "Si O2"
_cell_formula_units_Z 80
_cell_length_a 31.938281
_cell_length_b 5.095034
_cell_length_c 25.418229
_cell_angle_alpha 90.000000
_cell_angle_beta 90.000000
_cell_angle_gamma 90.000000
_cell_volume 4136.222685
_symmetry_space_group_name_H-M "F 2 2 2"
_symmetry_group_IT_number 22
_symmetry_cell_setting 'orthorhombic'
loop_
_space_group_symop_operation_xyz
x,y,z
-x,-y,z
x,-y,-z
-x,y,-z
x,1/2+y,1/2+z
-x,1/2-y,1/2+z
x,1/2-y,1/2-z
-x,1/2+y,1/2-z
1/2+x,y,1/2+z
1/2-x,-y,1/2+z
1/2+x,-y,1/2-z
1/2-x,y,1/2-z
1/2+x,1/2+y,z
1/2-x,1/2-y,z
1/2+x,1/2-y,-z
1/2-x,1/2+y,-z
loop_
_atom_site_type_symbol
_atom_site_label
_atom_site_fract_x
_atom_site_fract_y
_atom_site_fract_z
Si Si1 0.066605 0.412316 0.631923
Si Si2 0.578731 0.751655 0.034943
Si Si3 0.000000 0.500000 0.077819
Si Si4 0.148349 0.222479 0.686802
Si Si5 0.000000 0.500000 0.285825
Si Si6 0.297433 0.775490 0.686426
O O1 0.087231 0.630198 0.593212
O O2 0.104546 0.256932 0.657978
O O3 0.039534 0.556045 0.676731
O O4 0.033137 0.200173 0.607004
O O5 0.530238 0.817920 0.044278
O O6 0.585898 0.500000 0.000000
O O7 0.595594 0.000000 0.000000
O O8 0.141702 0.250000 0.750000
O O9 0.181062 0.451625 0.672890
O O10 0.171065 0.954910 0.671399
O O11 0.990800 0.250000 0.250000
O O12 0.294800 0.750000 0.750000
O O13 0.250000 0.750000 0.666268
#
# Coordination Sequence:
#
# PCOD9327807 Si02
#       6
#    16  16   8  16   8  16
#     4  12  26  40  58  85 121 159 210 249 298 349
#     4  12  26  40  63  84 108 152 206 261 318 355
#     4  12  24  40  59  82 112 157 196 253 303 340
#     4  10  22  36  57  84 120 162 197 240 288 350
#     4  12  27  40  56  76 115 171 216 247 280 344
#     4   9  18  35  58  84 113 152 198 241 292 348
#
# _framework density 19.34132
#
# number of rings (size 3 to 8) (size 9 to 14) (size 15 to 20)
#    0.000    1.000    4.000    2.100    5.600    4.800 
#    0.000    0.000    0.000    0.000    0.000    0.000 
#    0.000    4.800    1.200    0.000    0.000    0.000 
#
# Total GULP energy -111460.928396 kJ/mol
# GULP energy per Si atom -5573.046420 kJ/mol
# Density = 1.929730 g / cm^3
# Si number density = 19.341320 Si / 1000 Ang^3
#
#
#
# Elastic Constant Matrix: (Units=GPa)
#
#
# Indices 1 2 3 4 5 6 
#
# 1 79.4227 6.2187 21.7461 0.0052 0.0029 0.0047
# 2 6.2187 98.2678 36.3894 0.0286 0.0091 0.0189
# 3 21.7461 36.3894 70.9330 0.0095 0.0066 0.0050
# 4 0.0052 0.0286 0.0095 12.8867 0.0073 0.0057
# 5 0.0029 0.0091 0.0066 0.0073 5.3372 0.0006
# 6 0.0047 0.0189 0.0050 0.0057 0.0006 1.8838
#
#
#
# Elastic Compliance Matrix: (Units=1/GPa)
#
#
# Indices 1 2 3 4 5 6 
#
# 1 0.013803 0.000856 -0.004671 -0.000004 -0.000003 -0.000031
# 2 0.000856 0.012616 -0.006735 -0.000023 -0.000014 -0.000111
# 3 -0.004671 -0.006735 0.018985 0.000003 -0.000010 0.000029
# 4 -0.000004 -0.000023 0.000003 0.077599 -0.000105 -0.000235
# 5 -0.000003 -0.000014 -0.000010 -0.000105 0.187364 -0.000055
# 6 -0.000031 -0.000111 0.000029 -0.000235 -0.000055 0.530856
#
#
# Mechanical properties :
#
#
# Convention : Reuss Voigt Hill
#
# Bulk Modulus (GPa) = 41.14386 41.92575 41.53481
# Shear Modulus (GPa) = 5.74434 16.30616 11.02525
#
# Velocity S-wave (km/s) = 1.72523 2.90672 2.39013
# Velocity P-wave (km/s) = 5.02865 5.74362 5.39799
#
# Compressibility (1/GPa) = 0.02430496
#
# Stress axis : x y z
#
# Youngs Moduli (GPa) = 72.44967 79.26432 52.67409
#
# Poissons Ratio (x) = -0.06786 0.24603
# Poissons Ratio (y) = -0.06203 0.35474
# Poissons Ratio (z) = 0.33839 0.53381
#
# Static dielectric constant tensor:
#      x y z
#    x 1.635810 -0.000010 -0.000010 
#    y -0.000010 1.760680 -0.000020 
#    z -0.000010 -0.000020 1.799200 
# 
# From -- ./inp_files/50619.got.cif
#   From: 2010.05.17/outbox.cif.g08.bks.cpg/sg22_26_cif.got.tgz:50619.got - 2010.06.03 23:40:54.
