data_PCOD9327519
_publ_section_title
;
Structure prediction by ZEFSAII (Michael W. Deem and Ramdas Pophale) SiO2 
 PCOD9327519
Probable space group: F 2 2 2
;
_chemical_formula_sum "Si O2"
_cell_formula_units_Z 64
_cell_length_a 14.177174
_cell_length_b 27.043324
_cell_length_c 7.972460
_cell_angle_alpha 90.000000
_cell_angle_beta 90.000000
_cell_angle_gamma 90.000000
_cell_volume 3056.624501
_symmetry_space_group_name_H-M "F 2 2 2"
_symmetry_group_IT_number 22
_symmetry_cell_setting 'orthorhombic'
loop_
_space_group_symop_operation_xyz
x,y,z
-x,-y,z
x,-y,-z
-x,y,-z
x,1/2+y,1/2+z
-x,1/2-y,1/2+z
x,1/2-y,1/2-z
-x,1/2+y,1/2-z
1/2+x,y,1/2+z
1/2-x,-y,1/2+z
1/2+x,-y,1/2-z
1/2-x,y,1/2-z
1/2+x,1/2+y,z
1/2-x,1/2-y,z
1/2+x,1/2-y,-z
1/2-x,1/2+y,-z
loop_
_atom_site_type_symbol
_atom_site_label
_atom_site_fract_x
_atom_site_fract_y
_atom_site_fract_z
Si Si1 0.081410 0.110151 0.627540
Si Si2 0.420888 0.201780 0.639523
Si Si3 0.267441 0.854289 0.560810
Si Si4 0.889521 0.054826 0.045752
O O1 0.047127 0.155527 0.744975
O O2 0.169879 0.131313 0.526269
O O3 0.115752 0.068237 0.757174
O O4 0.000000 0.094143 0.500000
O O5 0.500000 0.210543 0.500000
O O6 0.407817 0.250000 0.750000
O O7 0.324833 0.185178 0.548599
O O8 0.250000 0.837857 0.750000
O O9 0.332148 0.903584 0.554296
O O10 0.000000 0.058320 0.000000
O O11 0.856615 0.000000 0.000000
#
# Coordination Sequence:
#
# PCOD9327519 Si02
#       4
#    16  16  16  16
#     4  11  22  41  65  92 126 166 207 261 316 367
#     4  11  23  41  64  94 126 163 207 255 311 376
#     4  11  23  40  64  93 127 166 206 260 314 369
#     4  10  21  39  62  92 127 165 210 258 310 374
#
# _framework density 20.938127999999999
#
# number of rings (size 3 to 8) (size 9 to 14) (size 15 to 20)
#    0.000    1.250    0.000    9.750    0.000    4.000 
#    0.000    8.750    0.000    0.000    0.000    0.000 
#    0.000    0.000    0.000    0.000    0.000    0.000 
#
# Total GULP energy -89555.199993 kJ/mol
# GULP energy per Si atom -5597.200000 kJ/mol
# Density = 2.089047 g / cm^3
# Si number density = 20.938128 Si / 1000 Ang^3
#
#
#
# Elastic Constant Matrix: (Units=GPa)
#
#
# Indices 1 2 3 4 5 6 
#
# 1 84.3898 12.0918 24.0951 0.0000 0.0000 0.0000
# 2 12.0918 124.0341 46.4625 0.0000 0.0000 0.0000
# 3 24.0951 46.4625 125.6468 0.0000 0.0000 0.0000
# 4 0.0000 0.0000 0.0000 12.2511 0.0000 0.0000
# 5 0.0000 0.0000 0.0000 0.0000 43.5204 0.0000
# 6 0.0000 0.0000 0.0000 0.0000 0.0000 12.1704
#
#
#
# Elastic Compliance Matrix: (Units=1/GPa)
#
#
# Indices 1 2 3 4 5 6 
#
# 1 0.012551 -0.000374 -0.002269 0.000000 0.000000 0.000000
# 2 -0.000374 0.009370 -0.003393 0.000000 0.000000 0.000000
# 3 -0.002269 -0.003393 0.009649 0.000000 0.000000 0.000000
# 4 0.000000 0.000000 0.000000 0.081625 0.000000 0.000000
# 5 0.000000 0.000000 0.000000 0.000000 0.022978 0.000000
# 6 0.000000 0.000000 0.000000 0.000000 0.000000 0.082167
#
#
# Mechanical properties :
#
#
# Convention : Reuss Voigt Hill
#
# Bulk Modulus (GPa) = 51.28646 55.48550 53.38598
# Shear Modulus (GPa) = 21.10506 30.34980 25.72743
#
# Velocity S-wave (km/s) = 3.17830 3.81136 3.50914
# Velocity P-wave (km/s) = 6.16573 6.77686 6.47851
#
# Compressibility (1/GPa) = 0.01949832
#
# Stress axis : x y z
#
# Youngs Moduli (GPa) = 79.67438 106.72603 103.64175
#
# Poissons Ratio (x) = 0.03989 0.23513
# Poissons Ratio (y) = 0.02978 0.35167
# Poissons Ratio (z) = 0.18076 0.36214
#
# Static dielectric constant tensor:
#      x y z
#    x 1.737350 0.000000 0.000000 
#    y 0.000000 1.742120 0.000000 
#    z 0.000000 0.000000 1.749580 
# 
# From -- ./inp_files/8538.got.cif
#   From: 2010.05.17/outbox.cif.g08.bks.cpg/sg22_5_cif.got.tgz:8538.got - 2010.06.03 23:40:54.
