data_PCOD9327058
_publ_section_title
;
Structure prediction by ZEFSAII (Michael W. Deem and Ramdas Pophale) SiO2 
 PCOD9327058
Probable space group: F 2 2 2
;
_chemical_formula_sum "Si O2"
_cell_formula_units_Z 68
_cell_length_a 20.821675
_cell_length_b 26.211380
_cell_length_c 5.237234
_cell_angle_alpha 90.000000
_cell_angle_beta 90.000000
_cell_angle_gamma 90.000000
_cell_volume 2858.298153
_symmetry_space_group_name_H-M "F 2 2 2"
_symmetry_group_IT_number 22
_symmetry_cell_setting 'orthorhombic'
loop_
_space_group_symop_operation_xyz
x,y,z
-x,-y,z
x,-y,-z
-x,y,-z
x,1/2+y,1/2+z
-x,1/2-y,1/2+z
x,1/2-y,1/2-z
-x,1/2+y,1/2-z
1/2+x,y,1/2+z
1/2-x,-y,1/2+z
1/2+x,-y,1/2-z
1/2-x,y,1/2-z
1/2+x,1/2+y,z
1/2-x,1/2-y,z
1/2+x,1/2-y,-z
1/2-x,1/2+y,-z
loop_
_atom_site_type_symbol
_atom_site_label
_atom_site_fract_x
_atom_site_fract_y
_atom_site_fract_z
Si Si1 0.177849 0.416637 0.739888
Si Si2 0.850424 0.803737 0.746988
Si Si3 0.000000 0.000000 0.000000
Si Si4 0.062921 0.306069 0.250244
Si Si5 0.589496 0.579430 0.263791
O O1 0.250000 0.440025 0.750000
O O2 0.186171 0.355967 0.776147
O O3 0.142807 0.421329 0.465564
O O4 0.128282 0.429646 0.971107
O O5 0.815347 0.750000 0.750000
O O6 0.895839 0.802200 0.503109
O O7 0.894064 0.805792 0.997828
O O8 0.042295 0.035006 0.183842
O O9 0.026771 0.250000 0.250000
O O10 0.047100 0.367200 0.239017
#
# Coordination Sequence:
#
# PCOD9327058 Si02
#       5
#    16  16   4  16  16
#     4  10  20  38  63  95 132 167 213 272 337 401
#     4   8  14  25  47  83 126 168 203 245 313 397
#     4  12  28  50  72  94 132 182 244 290 332 402
#     4   8  14  29  53  83 122 162 209 265 320 384
#     4  10  23  40  65  95 127 175 222 273 331 392
#
# _framework density 23.790378
#
# number of rings (size 3 to 8) (size 9 to 14) (size 15 to 20)
#    0.000    2.824    0.000    0.706    0.000    3.294 
#    0.000    2.353    0.000   28.235    0.000    0.000 
#    0.000    0.000    0.000    0.235    0.000    0.471 
#
# Total GULP energy -94635.999515 kJ/mol
# GULP energy per Si atom -5566.823501 kJ/mol
# Density = 2.373623 g / cm^3
# Si number density = 23.790378 Si / 1000 Ang^3
#
#
#
# Elastic Constant Matrix: (Units=GPa)
#
#
# Indices 1 2 3 4 5 6 
#
# 1 87.0515 54.8783 43.7987 0.0423 -0.0029 -0.0238
# 2 54.8783 139.8535 5.2267 0.0386 -0.0542 -0.0345
# 3 43.7987 5.2267 179.3008 0.0536 -0.0344 -0.0140
# 4 0.0423 0.0386 0.0536 27.7912 -0.0151 -0.0288
# 5 -0.0029 -0.0542 -0.0344 -0.0151 -7.3887 0.0503
# 6 -0.0238 -0.0345 -0.0140 -0.0288 0.0503 5.0261
#
#
#
# Elastic Compliance Matrix: (Units=1/GPa)
#
#
# Indices 1 2 3 4 5 6 
#
# 1 0.017926 -0.006878 -0.004178 -0.000010 0.000063 0.000025
# 2 -0.006878 0.009797 0.001394 -0.000006 -0.000075 0.000039
# 3 -0.004178 0.001394 0.006557 -0.000008 -0.000039 0.000008
# 4 -0.000010 -0.000006 -0.000008 0.035983 -0.000072 0.000207
# 5 0.000063 -0.000075 -0.000039 -0.000072 -0.135331 0.001354
# 6 0.000025 0.000039 0.000008 0.000207 0.001354 0.198948
#
#
# Mechanical properties :
#
#
# Convention : Reuss Voigt Hill
#
# Bulk Modulus (GPa) = 66.85982 68.22371 67.54177
# Shear Modulus (GPa) = 31.60801 25.23919 28.42360
#
# Velocity S-wave (km/s) = 3.64896 3.26068 3.46027
# Velocity P-wave (km/s) = 6.77628 6.55098 6.66458
#
# Compressibility (1/GPa) = 0.01495667
#
# Stress axis : x y z
#
# Youngs Moduli (GPa) = 55.78636 102.07172 152.50393
#
# Poissons Ratio (x) = 0.70203 0.63720
# Poissons Ratio (y) = 0.38369 -0.21266
# Poissons Ratio (z) = 0.23309 -0.14234
#
# Static dielectric constant tensor:
#      x y z
#    x 1.891430 0.000000 0.000020 
#    y 0.000000 1.996520 -0.000020 
#    z 0.000020 -0.000020 1.837780 
# 
# From -- ./inp_files/3773.got.cif
#   From: 2010.05.17/outbox.cif.g08.bks.cpg/sg22_2_cif.got.tgz:3773.got - 2010.06.03 23:40:54.
