data_PCOD9327513
_publ_section_title
;
Structure prediction by ZEFSAII (Michael W. Deem and Ramdas Pophale) SiO2 
 PCOD9327513
Probable space group: F 2 2 2
;
_chemical_formula_sum "Si O2"
_cell_formula_units_Z 88
_cell_length_a 16.034070
_cell_length_b 29.193881
_cell_length_c 9.069514
_cell_angle_alpha 90.000000
_cell_angle_beta 90.000000
_cell_angle_gamma 90.000000
_cell_volume 4245.409860
_symmetry_space_group_name_H-M "F 2 2 2"
_symmetry_group_IT_number 22
_symmetry_cell_setting 'orthorhombic'
loop_
_space_group_symop_operation_xyz
x,y,z
-x,-y,z
x,-y,-z
-x,y,-z
x,1/2+y,1/2+z
-x,1/2-y,1/2+z
x,1/2-y,1/2-z
-x,1/2+y,1/2-z
1/2+x,y,1/2+z
1/2-x,-y,1/2+z
1/2+x,-y,1/2-z
1/2-x,y,1/2-z
1/2+x,1/2+y,z
1/2-x,1/2-y,z
1/2+x,1/2-y,-z
1/2-x,1/2+y,-z
loop_
_atom_site_type_symbol
_atom_site_label
_atom_site_fract_x
_atom_site_fract_y
_atom_site_fract_z
Si Si1 0.223465 0.000000 0.500000
Si Si2 0.905933 0.151494 0.949789
Si Si3 0.901767 0.073697 0.469976
Si Si4 0.912347 0.245747 0.577031
Si Si5 0.166845 0.155549 0.352295
Si Si6 0.174840 0.921641 0.162373
O O1 0.155444 0.036779 0.441033
O O2 0.284274 0.031891 0.596904
O O3 0.880709 0.204655 0.978334
O O4 0.901719 0.146211 0.774346
O O5 0.856335 0.112263 0.035971
O O6 0.000000 0.147743 0.000000
O O7 0.856806 0.120176 0.521264
O O8 0.889350 0.067154 0.293772
O O9 0.000000 0.071992 0.500000
O O10 0.932856 0.250000 0.750000
O O11 0.844408 0.205611 0.577529
O O12 0.000000 0.233696 0.500000
O O13 0.250000 0.151676 0.250000
O O14 0.250000 0.897713 0.250000
#
# Coordination Sequence:
#
# PCOD9327513 Si02
#       6
#     8  16  16  16  16  16
#     4  10  23  42  61  84 122 158 192 248 311 372
#     4  10  21  39  61  87 123 163 205 248 301 365
#     4  11  23  41  67  96 123 155 205 256 305 370
#     4   9  20  37  59  88 123 165 209 253 301 360
#     4  11  22  37  62  93 128 164 203 251 308 366
#     4  10  22  42  64  88 119 156 199 250 309 366
#
# _framework density 20.728270999999999
#
# number of rings (size 3 to 8) (size 9 to 14) (size 15 to 20)
#    0.000    1.818    0.000    4.091    0.000   12.727 
#    0.000    4.091    0.000    3.273    0.000    0.000 
#    0.000    0.000    0.000    0.000    0.000    0.000 
#
# Total GULP energy -122484.706243 kJ/mol
# GULP energy per Si atom -5567.486647 kJ/mol
# Density = 2.068109 g / cm^3
# Si number density = 20.728271 Si / 1000 Ang^3
#
#
#
# Elastic Constant Matrix: (Units=GPa)
#
#
# Indices 1 2 3 4 5 6 
#
# 1 108.3216 59.3047 38.2892 0.0000 0.0000 0.0000
# 2 59.3047 133.3946 62.0561 0.0000 0.0000 0.0000
# 3 38.2892 62.0561 62.5032 0.0000 0.0000 0.0000
# 4 0.0000 0.0000 0.0000 27.4155 0.0000 0.0000
# 5 0.0000 0.0000 0.0000 0.0000 31.1873 0.0000
# 6 0.0000 0.0000 0.0000 0.0000 0.0000 54.3190
#
#
#
# Elastic Compliance Matrix: (Units=1/GPa)
#
#
# Indices 1 2 3 4 5 6 
#
# 1 0.012730 -0.003776 -0.004050 0.000000 0.000000 0.000000
# 2 -0.003776 0.015051 -0.012630 0.000000 0.000000 0.000000
# 3 -0.004050 -0.012630 0.031020 0.000000 0.000000 0.000000
# 4 0.000000 0.000000 0.000000 0.036476 0.000000 0.000000
# 5 0.000000 0.000000 0.000000 0.000000 0.032064 0.000000
# 6 0.000000 0.000000 0.000000 0.000000 0.000000 0.018410
#
#
# Mechanical properties :
#
#
# Convention : Reuss Voigt Hill
#
# Bulk Modulus (GPa) = 55.89829 69.27993 62.58911
# Shear Modulus (GPa) = 25.95705 32.22231 29.08968
#
# Velocity S-wave (km/s) = 3.54256 3.94700 3.75024
# Velocity P-wave (km/s) = 6.61503 7.36663 7.00093
#
# Compressibility (1/GPa) = 0.01788963
#
# Stress axis : x y z
#
# Youngs Moduli (GPa) = 78.55173 66.44174 32.23726
#
# Poissons Ratio (x) = 0.25086 0.13056
# Poissons Ratio (y) = 0.29658 0.40716
# Poissons Ratio (z) = 0.31813 0.83917
#
# Static dielectric constant tensor:
#      x y z
#    x 1.795330 0.000000 0.000000 
#    y 0.000000 1.834790 0.000000 
#    z 0.000000 0.000000 -1.424370 
# 
# From -- ./inp_files/11798.got.cif
#   From: 2010.05.17/outbox.cif.g08.bks.cpg/sg22_6_cif.got.tgz:11798.got - 2010.06.03 23:40:54.
