data_PCOD9327359
_publ_section_title
;
Structure prediction by ZEFSAII (Michael W. Deem and Ramdas Pophale) SiO2 
 PCOD9327359
Probable space group: F 2 2 2
;
_chemical_formula_sum "Si O2"
_cell_formula_units_Z 96
_cell_length_a 13.958066
_cell_length_b 20.732718
_cell_length_c 15.168216
_cell_angle_alpha 90.000000
_cell_angle_beta 90.000000
_cell_angle_gamma 90.000000
_cell_volume 4389.509494
_symmetry_space_group_name_H-M "F 2 2 2"
_symmetry_group_IT_number 22
_symmetry_cell_setting 'orthorhombic'
loop_
_space_group_symop_operation_xyz
x,y,z
-x,-y,z
x,-y,-z
-x,y,-z
x,1/2+y,1/2+z
-x,1/2-y,1/2+z
x,1/2-y,1/2-z
-x,1/2+y,1/2-z
1/2+x,y,1/2+z
1/2-x,-y,1/2+z
1/2+x,-y,1/2-z
1/2-x,y,1/2-z
1/2+x,1/2+y,z
1/2-x,1/2-y,z
1/2+x,1/2-y,-z
1/2-x,1/2+y,-z
loop_
_atom_site_type_symbol
_atom_site_label
_atom_site_fract_x
_atom_site_fract_y
_atom_site_fract_z
Si Si1 0.134363 0.174990 0.067059
Si Si2 0.135274 0.409037 0.750000
Si Si3 0.959858 0.326439 0.750000
Si Si4 0.365759 0.940064 0.441947
Si Si5 0.865759 0.940064 0.558053
Si Si6 0.365637 0.174990 0.067059
O O1 0.089716 0.150916 0.159368
O O2 0.250000 0.173135 0.075861
O O3 0.107559 0.250000 0.051586
O O4 0.106914 0.127526 0.987485
O O5 0.250000 0.397129 0.750000
O O6 0.107744 0.444813 0.660102
O O7 0.107744 0.444813 0.839898
O O8 0.071012 0.345060 0.750000
O O9 0.946618 0.250000 0.750000
O O10 0.910284 0.349084 0.840632
O O11 0.250000 0.940812 0.443260
O O12 0.397850 0.000000 0.500000
O O13 0.893086 0.872474 0.512515
O O14 0.897850 0.000000 0.500000
#
# Coordination Sequence:
#
# PCOD9327359 Si02
#       6
#    16  16  16  16  16  16
#     4   9  18  35  59  85 113 147 189 235 280 327
#     4  10  22  39  56  79 112 148 188 230 278 338
#     4  10  21  36  57  86 116 148 188 234 282 330
#     4   9  19  37  60  84 113 150 188 230 281 334
#     4   9  19  37  60  84 113 150 188 230 281 334
#     4   9  18  35  59  85 113 147 189 235 280 327
#
# _framework density 21.870325000000001
#
# number of rings (size 3 to 8) (size 9 to 14) (size 15 to 20)
#    0.000    2.667    0.000    0.500    0.000    6.333 
#    0.000   16.667    0.000    0.000    0.000    0.000 
#    0.000    0.000    0.000    0.000    0.000    0.000 
#
# Total GULP energy -134042.408513 kJ/mol
# GULP energy per Si atom -5585.100355 kJ/mol
# Density = 2.182055 g / cm^3
# Si number density = 21.870325 Si / 1000 Ang^3
#
#
#
# Elastic Constant Matrix: (Units=GPa)
#
#
# Indices 1 2 3 4 5 6 
#
# 1 85.7995 7.5851 29.9497 0.0000 0.0000 0.0000
# 2 7.5851 86.8686 82.3868 0.0000 0.0000 0.0000
# 3 29.9497 82.3868 227.3226 0.0000 0.0000 0.0000
# 4 0.0000 0.0000 0.0000 21.3577 0.0000 0.0000
# 5 0.0000 0.0000 0.0000 0.0000 2.2744 0.0000
# 6 0.0000 0.0000 0.0000 0.0000 0.0000 1.1426
#
#
#
# Elastic Compliance Matrix: (Units=1/GPa)
#
#
# Indices 1 2 3 4 5 6 
#
# 1 0.012245 0.000702 -0.001868 0.000000 0.000000 0.000000
# 2 0.000702 0.017581 -0.006464 0.000000 0.000000 0.000000
# 3 -0.001868 -0.006464 0.006988 0.000000 0.000000 0.000000
# 4 0.000000 0.000000 0.000000 0.046822 0.000000 0.000000
# 5 0.000000 0.000000 0.000000 0.000000 0.439685 0.000000
# 6 0.000000 0.000000 0.000000 0.000000 0.000000 0.875169
#
#
# Mechanical properties :
#
#
# Convention : Reuss Voigt Hill
#
# Bulk Modulus (GPa) = 46.39448 71.09267 58.74357
# Shear Modulus (GPa) = 3.51881 23.62621 13.57251
#
# Velocity S-wave (km/s) = 1.26982 3.29034 2.49387
# Velocity P-wave (km/s) = 4.83833 6.85654 5.93387
#
# Compressibility (1/GPa) = 0.02155429
#
# Stress axis : x y z
#
# Youngs Moduli (GPa) = 81.66620 56.87917 143.10399
#
# Poissons Ratio (x) = -0.03994 0.26729
# Poissons Ratio (y) = -0.05735 0.92507
# Poissons Ratio (z) = 0.15253 0.36768
#
# Static dielectric constant tensor:
#      x y z
#    x 1.782780 0.000000 0.000000 
#    y 0.000000 1.759390 0.000000 
#    z 0.000000 0.000000 1.802400 
# 
# From -- ./inp_files/29353.got.cif
#   From: 2010.05.17/outbox.cif.g08.bks.cpg/sg22_15_cif.got.tgz:29353.got - 2010.06.03 23:40:54.
