data_PCOD9327878
_publ_section_title
;
Structure prediction by ZEFSAII (Michael W. Deem and Ramdas Pophale) SiO2 
 PCOD9327878
Probable space group: F 2 2 2
;
_chemical_formula_sum "Si O2"
_cell_formula_units_Z 72
_cell_length_a 8.186608
_cell_length_b 14.862645
_cell_length_c 26.355822
_cell_angle_alpha 90.000000
_cell_angle_beta 90.000000
_cell_angle_gamma 90.000000
_cell_volume 3206.835377
_symmetry_space_group_name_H-M "F 2 2 2"
_symmetry_group_IT_number 22
_symmetry_cell_setting 'orthorhombic'
loop_
_space_group_symop_operation_xyz
x,y,z
-x,-y,z
x,-y,-z
-x,y,-z
x,1/2+y,1/2+z
-x,1/2-y,1/2+z
x,1/2-y,1/2-z
-x,1/2+y,1/2-z
1/2+x,y,1/2+z
1/2-x,-y,1/2+z
1/2+x,-y,1/2-z
1/2-x,y,1/2-z
1/2+x,1/2+y,z
1/2-x,1/2-y,z
1/2+x,1/2-y,-z
1/2-x,1/2+y,-z
loop_
_atom_site_type_symbol
_atom_site_label
_atom_site_fract_x
_atom_site_fract_y
_atom_site_fract_z
Si Si1 0.441463 0.151991 0.764741
Si Si2 0.630657 0.170554 0.957078
Si Si3 0.122401 0.329106 0.877706
Si Si4 0.685902 0.001228 0.410685
Si Si5 0.000000 0.500000 0.310688
O O1 0.504316 0.250000 0.750000
O O2 0.250000 0.148930 0.750000
O O3 0.447654 0.134433 0.824622
O O4 0.520219 0.082328 0.726868
O O5 0.750000 0.250000 0.975150
O O6 0.526043 0.209576 0.910195
O O7 0.719831 0.081289 0.936203
O O8 0.500000 0.147597 0.000000
O O9 0.250000 0.250000 0.865363
O O10 0.212685 0.405855 0.911271
O O11 0.650403 0.994982 0.350099
O O12 0.500000 0.000000 0.432252
#
# Coordination Sequence:
#
# PCOD9327878 Si02
#       5
#    16  16  16  16   8
#     4  11  20  37  67 103 148 204 241 282 353 425
#     4  12  29  51  75 105 140 189 247 312 378 435
#     4  12  23  43  74 106 152 195 247 296 356 435
#     4  10  23  45  73 107 146 189 235 301 358 434
#     4  10  22  38  70 109 153 192 238 290 362 418
#
# _framework density 22.452041000000001
#
# number of rings (size 3 to 8) (size 9 to 14) (size 15 to 20)
#    0.667    0.222    4.444    2.667    6.222    1.778 
#    0.000    1.111    0.000    0.000    0.000    0.000 
#    0.000    0.000    0.000    0.000    0.000    0.000 
#
# Total GULP energy -100538.765132 kJ/mol
# GULP energy per Si atom -5585.486952 kJ/mol
# Density = 2.240094 g / cm^3
# Si number density = 22.452041 Si / 1000 Ang^3
#
#
#
# Elastic Constant Matrix: (Units=GPa)
#
#
# Indices 1 2 3 4 5 6 
#
# 1 70.1911 24.5930 40.2872 0.0000 0.0000 0.0000
# 2 24.5930 113.4276 23.4193 0.0000 0.0000 0.0000
# 3 40.2872 23.4193 109.9744 0.0000 0.0000 0.0000
# 4 0.0000 0.0000 0.0000 80.6226 0.0000 0.0000
# 5 0.0000 0.0000 0.0000 0.0000 23.9186 0.0000
# 6 0.0000 0.0000 0.0000 0.0000 0.0000 30.2409
#
#
#
# Elastic Compliance Matrix: (Units=1/GPa)
#
#
# Indices 1 2 3 4 5 6 
#
# 1 0.018844 -0.002783 -0.006311 0.000000 0.000000 0.000000
# 2 -0.002783 0.009633 -0.001032 0.000000 0.000000 0.000000
# 3 -0.006311 -0.001032 0.011625 0.000000 0.000000 0.000000
# 4 0.000000 0.000000 0.000000 0.012403 0.000000 0.000000
# 5 0.000000 0.000000 0.000000 0.000000 0.041808 0.000000
# 6 0.000000 0.000000 0.000000 0.000000 0.000000 0.033068
#
#
# Mechanical properties :
#
#
# Convention : Reuss Voigt Hill
#
# Bulk Modulus (GPa) = 50.37611 52.24356 51.30983
# Shear Modulus (GPa) = 32.41537 40.64265 36.52901
#
# Velocity S-wave (km/s) = 3.80381 4.25926 4.03796
# Velocity P-wave (km/s) = 6.46358 6.89259 6.68153
#
# Compressibility (1/GPa) = 0.01985068
#
# Stress axis : x y z
#
# Youngs Moduli (GPa) = 53.06771 103.81424 86.02501
#
# Poissons Ratio (x) = 0.28889 0.54286
# Poissons Ratio (y) = 0.14767 0.08877
# Poissons Ratio (z) = 0.33489 0.10712
#
# Static dielectric constant tensor:
#      x y z
#    x 1.822210 0.000000 0.000000 
#    y 0.000000 1.763100 0.000000 
#    z 0.000000 0.000000 1.856010 
# 
# From -- ./inp_files/51689.got.cif
#   From: 2010.05.17/outbox.cif.g08.bks.cpg/sg22_26_cif.got.tgz:51689.got - 2010.06.03 23:40:54.
