data_PCOD9327853
_publ_section_title
;
Structure prediction by ZEFSAII (Michael W. Deem and Ramdas Pophale) SiO2 
 PCOD9327853
Probable space group: F 2 2 2
;
_chemical_formula_sum "Si O2"
_cell_formula_units_Z 128
_cell_length_a 23.201690
_cell_length_b 24.801252
_cell_length_c 10.026213
_cell_angle_alpha 90.000000
_cell_angle_beta 90.000000
_cell_angle_gamma 90.000000
_cell_volume 5769.393377
_symmetry_space_group_name_H-M "F 2 2 2"
_symmetry_group_IT_number 22
_symmetry_cell_setting 'orthorhombic'
loop_
_space_group_symop_operation_xyz
x,y,z
-x,-y,z
x,-y,-z
-x,y,-z
x,1/2+y,1/2+z
-x,1/2-y,1/2+z
x,1/2-y,1/2-z
-x,1/2+y,1/2-z
1/2+x,y,1/2+z
1/2-x,-y,1/2+z
1/2+x,-y,1/2-z
1/2-x,y,1/2-z
1/2+x,1/2+y,z
1/2-x,1/2-y,z
1/2+x,1/2-y,-z
1/2-x,1/2+y,-z
loop_
_atom_site_type_symbol
_atom_site_label
_atom_site_fract_x
_atom_site_fract_y
_atom_site_fract_z
Si Si1 0.710426 0.851271 0.616077
Si Si2 0.595297 0.204139 0.441838
Si Si3 0.579744 0.325800 0.475059
Si Si4 0.644659 0.953083 0.714705
Si Si5 0.913646 0.648769 0.286283
Si Si6 0.465848 0.613250 0.239679
Si Si7 0.682600 0.901078 0.972929
Si Si8 0.318790 0.932606 0.739995
O O1 0.750000 0.842518 0.750000
O O2 0.663747 0.805036 0.587493
O O3 0.672484 0.905515 0.629232
O O4 0.757581 0.869775 0.508227
O O5 0.576441 0.265388 0.421047
O O6 0.581720 0.191631 0.596218
O O7 0.560862 0.160745 0.353033
O O8 0.582158 0.327891 0.636081
O O9 0.536946 0.363044 0.389585
O O10 0.639537 0.353529 0.432132
O O11 0.577430 0.937434 0.730276
O O12 0.679487 0.943765 0.853934
O O13 0.658552 0.013223 0.671336
O O14 0.853143 0.618972 0.312777
O O15 0.967451 0.607392 0.298353
O O16 0.661578 0.930324 0.105006
O O17 0.250000 0.931955 0.750000
#
# Coordination Sequence:
#
# PCOD9327853 Si02
#       8
#    16  16  16  16  16  16  16  16
#     4   9  18  35  56  83 119 152 191 245 293 342
#     4  11  22  38  60  87 117 155 199 242 291 350
#     4  10  22  38  59  87 117 153 198 244 292 348
#     4   9  19  35  57  83 110 144 192 243 286 340
#     4  11  24  39  58  86 121 155 191 241 296 352
#     4  10  22  40  59  85 117 150 196 246 291 349
#     4   9  18  34  53  80 114 146 190 241 286 341
#     4  11  21  35  57  82 112 153 192 232 291 353
#
# _framework density 22.186043000000002
#
# number of rings (size 3 to 8) (size 9 to 14) (size 15 to 20)
#    0.000    2.000    0.000    4.500    0.000    4.000 
#    0.000    8.125    0.000    9.750    0.000    0.000 
#    0.000    0.000    0.000    0.000    0.000    0.000 
#
# Total GULP energy -178489.524561 kJ/mol
# GULP energy per Si atom -5577.797643 kJ/mol
# Density = 2.213555 g / cm^3
# Si number density = 22.186043 Si / 1000 Ang^3
#
#
#
# Elastic Constant Matrix: (Units=GPa)
#
#
# Indices 1 2 3 4 5 6 
#
# 1 106.9689 22.4809 -11.4996 0.0000 0.0000 0.0000
# 2 22.4809 50.3324 -1.6594 0.0001 0.0000 0.0000
# 3 -11.4996 -1.6594 63.6924 0.0003 -0.0002 -0.0001
# 4 0.0000 0.0001 0.0003 18.4318 -0.0001 -0.0001
# 5 0.0000 0.0000 -0.0002 -0.0001 26.9202 0.0000
# 6 0.0000 0.0000 -0.0001 -0.0001 0.0000 -10.2649
#
#
#
# Elastic Compliance Matrix: (Units=1/GPa)
#
#
# Indices 1 2 3 4 5 6 
#
# 1 0.010514 -0.004638 0.001778 0.000000 0.000000 0.000000
# 2 -0.004638 0.021931 -0.000266 0.000000 0.000000 0.000000
# 3 0.001778 -0.000266 0.016014 0.000000 0.000000 0.000000
# 4 0.000000 0.000000 0.000000 0.054254 0.000000 0.000000
# 5 0.000000 0.000000 0.000000 0.000000 0.037147 0.000000
# 6 0.000000 0.000000 0.000000 0.000000 0.000000 -0.097420
#
#
# Mechanical properties :
#
#
# Convention : Reuss Voigt Hill
#
# Bulk Modulus (GPa) = 23.69261 26.62637 25.15949
# Shear Modulus (GPa) = 79.66632 21.12887 50.39760
#
# Velocity S-wave (km/s) = 5.99885 3.08936 4.77129
# Velocity P-wave (km/s) = 7.66054 4.97524 6.45898
#
# Compressibility (1/GPa) = 0.04220725
#
# Stress axis : x y z
#
# Youngs Moduli (GPa) = 95.10906 45.59854 62.44359
#
# Poissons Ratio (x) = 0.21147 -0.11099
# Poissons Ratio (y) = 0.44107 0.01661
# Poissons Ratio (z) = -0.16906 0.01213
#
# Static dielectric constant tensor:
#      x y z
#    x 1.910120 0.000000 0.000000 
#    y 0.000000 1.773960 0.000000 
#    z 0.000000 0.000000 1.890160 
# 
# From -- ./inp_files/24069.got.cif
#   From: 2010.05.17/outbox.cif.g08.bks.cpg/sg22_13_cif.got.tgz:24069.got - 2010.06.03 23:40:54.
