data_PCOD9327357
_publ_section_title
;
Structure prediction by ZEFSAII (Michael W. Deem and Ramdas Pophale) SiO2 
 PCOD9327357
Probable space group: F 2 2 2
;
_chemical_formula_sum "Si O2"
_cell_formula_units_Z 112
_cell_length_a 28.488761
_cell_length_b 12.034972
_cell_length_c 15.699793
_cell_angle_alpha 90.000000
_cell_angle_beta 90.000000
_cell_angle_gamma 90.000000
_cell_volume 5382.853651
_symmetry_space_group_name_H-M "F 2 2 2"
_symmetry_group_IT_number 22
_symmetry_cell_setting 'orthorhombic'
loop_
_space_group_symop_operation_xyz
x,y,z
-x,-y,z
x,-y,-z
-x,y,-z
x,1/2+y,1/2+z
-x,1/2-y,1/2+z
x,1/2-y,1/2-z
-x,1/2+y,1/2-z
1/2+x,y,1/2+z
1/2-x,-y,1/2+z
1/2+x,-y,1/2-z
1/2-x,y,1/2-z
1/2+x,1/2+y,z
1/2-x,1/2-y,z
1/2+x,1/2-y,-z
1/2-x,1/2+y,-z
loop_
_atom_site_type_symbol
_atom_site_label
_atom_site_fract_x
_atom_site_fract_y
_atom_site_fract_z
Si Si1 0.352429 0.125501 0.782863
Si Si2 0.551726 0.673321 0.461842
Si Si3 0.354266 0.126197 0.970754
Si Si4 0.704998 0.180765 0.511769
Si Si5 0.554240 0.480414 0.693638
Si Si6 0.102219 0.824997 0.823435
Si Si7 0.680898 0.503463 0.127489
O O1 0.357084 0.250000 0.750000
O O2 0.332322 0.131603 0.877617
O O3 0.404191 0.068863 0.789771
O O4 0.319784 0.052960 0.720022
O O5 0.500000 0.689867 0.500000
O O6 0.591333 0.662023 0.533459
O O7 0.555364 0.563180 0.403464
O O8 0.571630 0.764537 0.395709
O O9 0.331050 0.218870 0.031397
O O10 0.349362 0.000000 0.000000
O O11 0.750000 0.250000 0.482985
O O12 0.716314 0.096872 0.589994
O O13 0.683552 0.098889 0.439519
O O14 0.500000 0.500000 0.710213
O O15 0.566989 0.384145 0.759177
O O16 0.129305 0.750000 0.750000
O O17 0.134234 0.919134 0.867854
#
# Coordination Sequence:
#
# PCOD9327357 Si02
#       7
#    16  16  16  16  16  16  16
#     4  11  22  40  66  98 132 180 227 275 345 401
#     4  11  22  37  61  95 135 182 235 283 337 405
#     4  12  24  41  67 100 136 182 230 286 338 409
#     4  11  25  45  74 101 132 175 226 280 354 419
#     4  10  21  36  56  90 136 180 234 287 339 394
#     4   9  20  40  64  92 129 185 229 280 340 407
#     4  10  22  45  71  97 136 175 219 277 342 409
#
# _framework density 20.806808
#
# number of rings (size 3 to 8) (size 9 to 14) (size 15 to 20)
#    0.000    1.429    4.286    0.857    2.000    2.857 
#    0.000    1.429    3.143    0.857    0.000    0.000 
#    0.000    0.000    0.000    0.000    0.000    0.000 
#
# Total GULP energy -155881.131612 kJ/mol
# GULP energy per Si atom -5567.183272 kJ/mol
# Density = 2.075945 g / cm^3
# Si number density = 20.806808 Si / 1000 Ang^3
#
#
#
# Elastic Constant Matrix: (Units=GPa)
#
#
# Indices 1 2 3 4 5 6 
#
# 1 61.1332 29.3766 15.6471 0.0000 0.0000 0.0000
# 2 29.3766 124.5569 46.8317 0.0000 0.0000 0.0000
# 3 15.6471 46.8317 112.9907 0.0000 0.0000 0.0000
# 4 0.0000 0.0000 0.0000 40.2378 0.0000 0.0000
# 5 0.0000 0.0000 0.0000 0.0000 10.2950 0.0000
# 6 0.0000 0.0000 0.0000 0.0000 0.0000 16.8866
#
#
#
# Elastic Compliance Matrix: (Units=1/GPa)
#
#
# Indices 1 2 3 4 5 6 
#
# 1 0.018524 -0.004033 -0.000894 0.000000 0.000000 0.000000
# 2 -0.004033 0.010389 -0.003747 0.000000 0.000000 0.000000
# 3 -0.000894 -0.003747 0.010527 0.000000 0.000000 0.000000
# 4 0.000000 0.000000 0.000000 0.024852 0.000000 0.000000
# 5 0.000000 0.000000 0.000000 0.000000 0.097134 0.000000
# 6 0.000000 0.000000 0.000000 0.000000 0.000000 0.059218
#
#
# Mechanical properties :
#
#
# Convention : Reuss Voigt Hill
#
# Bulk Modulus (GPa) = 45.26473 53.59907 49.43190
# Shear Modulus (GPa) = 20.37845 27.27225 23.82535
#
# Velocity S-wave (km/s) = 3.13295 3.62434 3.38757
# Velocity P-wave (km/s) = 5.90671 6.58261 6.25379
#
# Compressibility (1/GPa) = 0.02209226
#
# Stress axis : x y z
#
# Youngs Moduli (GPa) = 53.98271 96.25982 94.99198
#
# Poissons Ratio (x) = 0.38821 0.08490
# Poissons Ratio (y) = 0.21771 0.35596
# Poissons Ratio (z) = 0.04825 0.36071
#
# Static dielectric constant tensor:
#      x y z
#    x 1.779840 0.000000 0.000000 
#    y 0.000000 1.863540 0.000000 
#    z 0.000000 0.000000 1.810020 
# 
# From -- ./inp_files/33521.got.cif
#   From: 2010.05.17/outbox.cif.g08.bks.cpg/sg22_17_cif.got.tgz:33521.got - 2010.06.03 23:40:54.
