data_PCOD9327605
_publ_section_title
;
Structure prediction by ZEFSAII (Michael W. Deem and Ramdas Pophale) SiO2 
 PCOD9327605
Probable space group: F 2 2 2
;
_chemical_formula_sum "Si O2"
_cell_formula_units_Z 100
_cell_length_a 29.323663
_cell_length_b 9.158429
_cell_length_c 19.600429
_cell_angle_alpha 90.000000
_cell_angle_beta 90.000000
_cell_angle_gamma 90.000000
_cell_volume 5263.865450
_symmetry_space_group_name_H-M "F 2 2 2"
_symmetry_group_IT_number 22
_symmetry_cell_setting 'orthorhombic'
loop_
_space_group_symop_operation_xyz
x,y,z
-x,-y,z
x,-y,-z
-x,y,-z
x,1/2+y,1/2+z
-x,1/2-y,1/2+z
x,1/2-y,1/2-z
-x,1/2+y,1/2-z
1/2+x,y,1/2+z
1/2-x,-y,1/2+z
1/2+x,-y,1/2-z
1/2-x,y,1/2-z
1/2+x,1/2+y,z
1/2-x,1/2-y,z
1/2+x,1/2-y,-z
1/2-x,1/2+y,-z
loop_
_atom_site_type_symbol
_atom_site_label
_atom_site_fract_x
_atom_site_fract_y
_atom_site_fract_z
Si Si1 0.070685 0.176859 0.410431
Si Si2 0.605996 0.643522 0.834437
Si Si3 0.867561 0.042066 0.319584
Si Si4 0.142395 0.097057 0.063824
Si Si5 0.696568 0.214281 0.825781
Si Si6 0.000000 0.000000 0.500000
Si Si7 0.001750 0.669157 0.319627
O O1 0.106300 0.274228 0.453728
O O2 0.039142 0.286606 0.368089
O O3 0.096856 0.062565 0.360430
O O4 0.034145 0.093616 0.455049
O O5 0.634848 0.791464 0.845630
O O6 0.616320 0.572256 0.759287
O O7 0.617351 0.521369 0.888935
O O8 0.553804 0.697978 0.841580
O O9 0.820362 0.953419 0.331231
O O10 0.176649 0.183985 0.114153
O O11 0.159753 0.000000 0.000000
O O12 0.677352 0.250000 0.750000
O O13 0.750000 0.250000 0.824467
O O14 0.993794 0.750000 0.250000
O O15 0.000000 0.500000 0.306369
#
# Coordination Sequence:
#
# PCOD9327605 Si02
#       7
#    16  16  16  16  16   4  16
#     4  11  26  39  60  82 130 176 223 267 323 374
#     4  11  21  38  61  93 129 162 216 262 325 374
#     4  10  21  40  65  92 123 164 206 274 318 385
#     4  11  25  43  65  90 131 172 210 260 333 403
#     4  10  21  43  74 100 125 161 210 265 330 398
#     4  12  28  40  54  88 124 176 232 272 308 388
#     4  12  23  35  57  89 122 163 217 274 305 365
#
# _framework density 18.997444999999999
#
# number of rings (size 3 to 8) (size 9 to 14) (size 15 to 20)
#    0.000    1.120    4.800    1.920    5.600    0.000 
#    0.000    2.400    0.000    0.000    0.000    0.000 
#    0.000    0.000    0.000    0.000    0.000    0.000 
#
# Total GULP energy -139326.445781 kJ/mol
# GULP energy per Si atom -5573.057831 kJ/mol
# Density = 1.895421 g / cm^3
# Si number density = 18.997445 Si / 1000 Ang^3
#
#
#
# Elastic Constant Matrix: (Units=GPa)
#
#
# Indices 1 2 3 4 5 6 
#
# 1 81.0208 37.5686 18.6343 0.0000 0.0000 0.0000
# 2 37.5686 142.4930 41.5942 0.0000 0.0000 0.0000
# 3 18.6343 41.5942 60.6149 0.0000 0.0000 0.0000
# 4 0.0000 0.0000 0.0000 66.7977 0.0000 0.0000
# 5 0.0000 0.0000 0.0000 0.0000 19.4982 0.0000
# 6 0.0000 0.0000 0.0000 0.0000 0.0000 32.2455
#
#
#
# Elastic Compliance Matrix: (Units=1/GPa)
#
#
# Indices 1 2 3 4 5 6 
#
# 1 0.014306 -0.003111 -0.002263 0.000000 0.000000 0.000000
# 2 -0.003111 0.009452 -0.005530 0.000000 0.000000 0.000000
# 3 -0.002263 -0.005530 0.020988 0.000000 0.000000 0.000000
# 4 0.000000 0.000000 0.000000 0.014971 0.000000 0.000000
# 5 0.000000 0.000000 0.000000 0.000000 0.051287 0.000000
# 6 0.000000 0.000000 0.000000 0.000000 0.000000 0.031012
#
#
# Mechanical properties :
#
#
# Convention : Reuss Voigt Hill
#
# Bulk Modulus (GPa) = 43.59586 53.30255 48.44920
# Shear Modulus (GPa) = 29.15982 36.13040 32.64511
#
# Velocity S-wave (km/s) = 3.92207 4.36576 4.14985
# Velocity P-wave (km/s) = 6.59608 7.31654 6.96563
#
# Compressibility (1/GPa) = 0.02293796
#
# Stress axis : x y z
#
# Youngs Moduli (GPa) = 69.90277 105.79427 47.64663
#
# Poissons Ratio (x) = 0.32914 0.10782
# Poissons Ratio (y) = 0.21748 0.26348
# Poissons Ratio (z) = 0.15819 0.58502
#
# Static dielectric constant tensor:
#      x y z
#    x 1.647590 0.000000 0.000000 
#    y 0.000000 1.680280 0.000000 
#    z 0.000000 0.000000 1.629970 
# 
# From -- ./inp_files/46032.got.cif
#   From: 2010.05.17/outbox.cif.g08.bks.cpg/sg22_24_cif.got.tgz:46032.got - 2010.06.03 23:40:54.
