data_PCOD9327328
_publ_section_title
;
Structure prediction by ZEFSAII (Michael W. Deem and Ramdas Pophale) SiO2 
 PCOD9327328
Probable space group: F 2 2 2
;
_chemical_formula_sum "Si O2"
_cell_formula_units_Z 116
_cell_length_a 15.089254
_cell_length_b 17.933617
_cell_length_c 22.461202
_cell_angle_alpha 90.000000
_cell_angle_beta 90.000000
_cell_angle_gamma 90.000000
_cell_volume 6078.111367
_symmetry_space_group_name_H-M "F 2 2 2"
_symmetry_group_IT_number 22
_symmetry_cell_setting 'orthorhombic'
loop_
_space_group_symop_operation_xyz
x,y,z
-x,-y,z
x,-y,-z
-x,y,-z
x,1/2+y,1/2+z
-x,1/2-y,1/2+z
x,1/2-y,1/2-z
-x,1/2+y,1/2-z
1/2+x,y,1/2+z
1/2-x,-y,1/2+z
1/2+x,-y,1/2-z
1/2-x,y,1/2-z
1/2+x,1/2+y,z
1/2-x,1/2-y,z
1/2+x,1/2-y,-z
1/2-x,1/2+y,-z
loop_
_atom_site_type_symbol
_atom_site_label
_atom_site_fract_x
_atom_site_fract_y
_atom_site_fract_z
Si Si1 0.750000 0.750000 0.750000
Si Si2 0.102140 0.118951 0.987025
Si Si3 0.423892 0.440134 0.732684
Si Si4 0.722423 0.506526 0.651369
Si Si5 0.911912 0.049125 0.139750
Si Si6 0.144288 0.839354 0.352066
Si Si7 0.399726 0.792753 0.018442
Si Si8 0.287313 0.426314 0.464190
O O1 0.806791 0.798921 0.702956
O O2 0.109403 0.097723 0.917676
O O3 0.113105 0.206817 0.999191
O O4 0.181185 0.080235 0.023740
O O5 0.000000 0.097695 0.000000
O O6 0.500000 0.500000 0.734344
O O7 0.335069 0.483875 0.710994
O O8 0.418693 0.405377 0.798334
O O9 0.437374 0.379982 0.680851
O O10 0.827350 0.497520 0.654141
O O11 0.704704 0.590803 0.626200
O O12 0.690805 0.445400 0.604283
O O13 0.000000 0.000000 0.130600
O O14 0.117203 0.795251 0.410331
O O15 0.500000 0.813471 0.000000
O O16 0.334189 0.851942 0.987859
O O17 0.317746 0.500000 0.500000
#
# Coordination Sequence:
#
# PCOD9327328 Si02
#       8
#     4  16  16  16  16  16  16  16
#     4  12  24  36  68  96 128 172 196 262 344 396
#     4  11  25  40  58  89 128 160 203 259 310 381
#     4   9  21  37  56  87 116 156 198 254 304 360
#     4  10  21  35  55  87 116 152 203 257 297 364
#     4  11  20  35  61  86 122 154 199 255 312 369
#     4  10  23  36  60  89 121 164 204 256 322 370
#     4  11  26  40  57  87 129 169 208 255 312 377
#     4  12  21  37  62  87 113 166 203 252 313 357
#
# _framework density 19.084876000000001
#
# number of rings (size 3 to 8) (size 9 to 14) (size 15 to 20)
#    0.828    0.552    2.759    2.483    7.724    0.276 
#    0.000    0.000    0.000    0.000    0.000    0.000 
#    0.000    2.207    0.000    0.000    0.000    0.000 
#
# Total GULP energy -161448.141518 kJ/mol
# GULP energy per Si atom -5567.177294 kJ/mol
# Density = 1.904144 g / cm^3
# Si number density = 19.084876 Si / 1000 Ang^3
#
#
#
# Elastic Constant Matrix: (Units=GPa)
#
#
# Indices 1 2 3 4 5 6 
#
# 1 82.9209 16.1495 22.7757 0.0000 0.0000 0.0000
# 2 16.1495 55.4224 21.4234 0.0000 0.0000 0.0000
# 3 22.7757 21.4234 86.4376 0.0000 0.0000 0.0000
# 4 0.0000 0.0000 0.0000 67.0743 0.0000 0.0000
# 5 0.0000 0.0000 0.0000 0.0000 23.5679 0.0000
# 6 0.0000 0.0000 0.0000 0.0000 0.0000 18.5393
#
#
#
# Elastic Compliance Matrix: (Units=1/GPa)
#
#
# Indices 1 2 3 4 5 6 
#
# 1 0.013384 -0.002805 -0.002831 0.000000 0.000000 0.000000
# 2 -0.002805 0.020543 -0.004352 0.000000 0.000000 0.000000
# 3 -0.002831 -0.004352 0.013394 0.000000 0.000000 0.000000
# 4 0.000000 0.000000 0.000000 0.014909 0.000000 0.000000
# 5 0.000000 0.000000 0.000000 0.000000 0.042431 0.000000
# 6 0.000000 0.000000 0.000000 0.000000 0.000000 0.053939
#
#
# Mechanical properties :
#
#
# Convention : Reuss Voigt Hill
#
# Bulk Modulus (GPa) = 36.57302 38.38646 37.47974
# Shear Modulus (GPa) = 26.63944 32.79845 29.71895
#
# Velocity S-wave (km/s) = 3.74015 4.15005 3.95042
# Velocity P-wave (km/s) = 6.15277 6.56666 6.36308
#
# Compressibility (1/GPa) = 0.02734256
#
# Stress axis : x y z
#
# Youngs Moduli (GPa) = 74.71768 48.67808 74.66169
#
# Poissons Ratio (x) = 0.13657 0.21138
# Poissons Ratio (y) = 0.20962 0.32495
# Poissons Ratio (z) = 0.21154 0.21186
#
# Static dielectric constant tensor:
#      x y z
#    x 1.683630 0.000000 0.000000 
#    y 0.000000 1.679480 0.000000 
#    z 0.000000 0.000000 1.740270 
# 
# From -- ./inp_files/49063.got.cif
#   From: 2010.05.17/outbox.cif.g08.bks.cpg/sg22_25_cif.got.tgz:49063.got - 2010.06.03 23:40:54.
