data_PCOD9327602
_publ_section_title
;
Structure prediction by ZEFSAII (Michael W. Deem and Ramdas Pophale) SiO2 
 PCOD9327602
Probable space group: F 2 2 2
;
_chemical_formula_sum "Si O2"
_cell_formula_units_Z 80
_cell_length_a 5.677783
_cell_length_b 29.379043
_cell_length_c 21.328485
_cell_angle_alpha 90.000000
_cell_angle_beta 90.000000
_cell_angle_gamma 90.000000
_cell_volume 3557.758319
_symmetry_space_group_name_H-M "F 2 2 2"
_symmetry_group_IT_number 22
_symmetry_cell_setting 'orthorhombic'
loop_
_space_group_symop_operation_xyz
x,y,z
-x,-y,z
x,-y,-z
-x,y,-z
x,1/2+y,1/2+z
-x,1/2-y,1/2+z
x,1/2-y,1/2-z
-x,1/2+y,1/2-z
1/2+x,y,1/2+z
1/2-x,-y,1/2+z
1/2+x,-y,1/2-z
1/2-x,y,1/2-z
1/2+x,1/2+y,z
1/2-x,1/2-y,z
1/2+x,1/2-y,-z
1/2-x,1/2+y,-z
loop_
_atom_site_type_symbol
_atom_site_label
_atom_site_fract_x
_atom_site_fract_y
_atom_site_fract_z
Si Si1 0.963692 0.085142 0.145014
Si Si2 0.308328 0.889275 0.953368
Si Si3 0.750000 0.619860 0.250000
Si Si4 0.750000 0.474600 0.250000
Si Si5 0.250000 0.750000 0.397480
Si Si6 0.500000 0.309030 0.000000
Si Si7 0.094887 0.340735 0.842766
O O1 0.780346 0.053085 0.183072
O O2 0.845948 0.134908 0.148236
O O3 0.090958 0.081468 0.077021
O O4 0.172272 0.087072 0.194687
O O5 0.443318 0.866946 0.895104
O O6 0.500000 0.912046 0.000000
O O7 0.209692 0.844576 0.988217
O O8 0.535116 0.649158 0.277437
O O9 0.500000 0.500000 0.255293
O O10 0.431397 0.776872 0.442423
O O11 0.119016 0.787904 0.356938
#
# Coordination Sequence:
#
# PCOD9327602 Si02
#       7
#    16  16   8   8   8   8  16
#     4  11  22  43  70  99 147 181 237 303 377 466
#     4  11  21  39  65  99 135 194 240 299 372 436
#     4  10  21  40  65  87 132 194 239 290 364 442
#     4  12  27  46  80 120 150 187 243 328 392 473
#     4  12  22  36  59  88 140 183 250 316 354 420
#     4  12  22  40  56  96 135 172 257 314 358 412
#     4  11  22  38  63  88 136 191 242 302 362 431
#
# _framework density 22.486070000000002
#
# number of rings (size 3 to 8) (size 9 to 14) (size 15 to 20)
#    0.000    0.800    6.000    1.800    2.800    0.000 
#    0.000    3.000    0.000    0.000    0.000   10.500 
#    0.000    0.000    0.000    0.000    0.000    0.000 
#
# Total GULP energy -111489.633623 kJ/mol
# GULP energy per Si atom -5574.481681 kJ/mol
# Density = 2.243489 g / cm^3
# Si number density = 22.486070 Si / 1000 Ang^3
#
#
#
# Elastic Constant Matrix: (Units=GPa)
#
#
# Indices 1 2 3 4 5 6 
#
# 1 92.9548 32.7121 42.1455 0.0000 0.0000 0.0000
# 2 32.7121 63.5077 36.7774 0.0000 0.0000 0.0000
# 3 42.1455 36.7774 94.6231 0.0000 0.0000 0.0000
# 4 0.0000 0.0000 0.0000 18.4556 0.0000 0.0000
# 5 0.0000 0.0000 0.0000 0.0000 61.7713 0.0000
# 6 0.0000 0.0000 0.0000 0.0000 0.0000 10.5423
#
#
#
# Elastic Compliance Matrix: (Units=1/GPa)
#
#
# Indices 1 2 3 4 5 6 
#
# 1 0.014543 -0.004826 -0.004602 0.000000 0.000000 0.000000
# 2 -0.004826 0.021921 -0.006371 0.000000 0.000000 0.000000
# 3 -0.004602 -0.006371 0.015094 0.000000 0.000000 0.000000
# 4 0.000000 0.000000 0.000000 0.054184 0.000000 0.000000
# 5 0.000000 0.000000 0.000000 0.000000 0.016189 0.000000
# 6 0.000000 0.000000 0.000000 0.000000 0.000000 0.094856
#
#
# Mechanical properties :
#
#
# Convention : Reuss Voigt Hill
#
# Bulk Modulus (GPa) = 50.09703 52.70616 51.40160
# Shear Modulus (GPa) = 19.60506 27.45056 23.52781
#
# Velocity S-wave (km/s) = 2.95596 3.49776 3.23821
# Velocity P-wave (km/s) = 5.82904 6.30894 6.07374
#
# Compressibility (1/GPa) = 0.01996126
#
# Stress axis : x y z
#
# Youngs Moduli (GPa) = 68.76358 45.61806 66.25177
#
# Poissons Ratio (x) = 0.22015 0.30487
# Poissons Ratio (y) = 0.33185 0.42207
# Poissons Ratio (z) = 0.31642 0.29062
#
# Static dielectric constant tensor:
#      x y z
#    x 2.053730 0.000000 0.000000 
#    y 0.000000 1.818420 0.000000 
#    z 0.000000 0.000000 1.942790 
# 
# From -- ./inp_files/46658.got.cif
#   From: 2010.05.17/outbox.cif.g08.bks.cpg/sg22_24_cif.got.tgz:46658.got - 2010.06.03 23:40:54.
