data_PCOD9327650
_publ_section_title
;
Structure prediction by ZEFSAII (Michael W. Deem and Ramdas Pophale) SiO2 
 PCOD9327650
Probable space group: F 2 2 2
;
_chemical_formula_sum "Si O2"
_cell_formula_units_Z 112
_cell_length_a 13.127223
_cell_length_b 26.661083
_cell_length_c 13.428124
_cell_angle_alpha 90.000000
_cell_angle_beta 90.000000
_cell_angle_gamma 90.000000
_cell_volume 4699.655164
_symmetry_space_group_name_H-M "F 2 2 2"
_symmetry_group_IT_number 22
_symmetry_cell_setting 'orthorhombic'
loop_
_space_group_symop_operation_xyz
x,y,z
-x,-y,z
x,-y,-z
-x,y,-z
x,1/2+y,1/2+z
-x,1/2-y,1/2+z
x,1/2-y,1/2-z
-x,1/2+y,1/2-z
1/2+x,y,1/2+z
1/2-x,-y,1/2+z
1/2+x,-y,1/2-z
1/2-x,y,1/2-z
1/2+x,1/2+y,z
1/2-x,1/2-y,z
1/2+x,1/2-y,-z
1/2-x,1/2+y,-z
loop_
_atom_site_type_symbol
_atom_site_label
_atom_site_fract_x
_atom_site_fract_y
_atom_site_fract_z
Si Si1 0.449030 0.865672 0.236348
Si Si2 0.138716 0.918479 0.795959
Si Si3 0.421229 0.274886 0.854610
Si Si4 0.294347 0.443114 0.986745
Si Si5 0.390847 0.133471 0.973417
Si Si6 0.360863 0.238340 0.069388
Si Si7 0.368217 0.530166 0.220323
O O1 0.567693 0.874406 0.257217
O O2 0.409314 0.833845 0.329005
O O3 0.412761 0.841230 0.133776
O O4 0.409177 0.922019 0.223100
O O5 0.250000 0.913111 0.750000
O O6 0.149544 0.923778 0.914522
O O7 0.094675 0.973452 0.765568
O O8 0.387740 0.250000 0.750000
O O9 0.366517 0.262593 0.958091
O O10 0.540456 0.259687 0.872900
O O11 0.251657 0.500000 0.000000
O O12 0.202549 0.404536 0.969941
O O13 0.370248 0.451769 0.894584
O O14 0.371580 0.178873 0.049690
O O15 0.500000 0.108718 0.000000
O O16 0.250000 0.250000 0.113353
O O17 0.250000 0.526331 0.250000
#
# Coordination Sequence:
#
# PCOD9327650 Si02
#       7
#    16  16  16  16  16  16  16
#     4  12  24  40  71  96 129 182 216 273 335 396
#     4  10  23  42  63  97 140 174 217 268 321 393
#     4  11  24  47  64  99 134 166 223 281 333 398
#     4  10  23  41  65  97 134 177 217 271 328 395
#     4  12  23  44  68  96 132 171 228 278 326 394
#     4  11  26  45  69  96 132 173 220 284 335 398
#     4  10  21  41  64  98 140 169 220 271 320 391
#
# _framework density 23.831534999999999
#
# number of rings (size 3 to 8) (size 9 to 14) (size 15 to 20)
#    0.000    1.143    4.286    1.286    4.000    2.571 
#    2.571    2.143    0.000    0.000    0.000    0.000 
#    0.000    0.000    0.000    0.000    0.000    0.000 
#
# Total GULP energy -156452.915734 kJ/mol
# GULP energy per Si atom -5587.604133 kJ/mol
# Density = 2.377729 g / cm^3
# Si number density = 23.831535 Si / 1000 Ang^3
#
#
#
# Elastic Constant Matrix: (Units=GPa)
#
#
# Indices 1 2 3 4 5 6 
#
# 1 41.6595 6.3882 -21.9247 0.0000 0.0000 0.0000
# 2 6.3882 77.2087 1.2464 0.0000 0.0000 0.0000
# 3 -21.9247 1.2464 76.7825 0.0000 0.0000 0.0000
# 4 0.0000 0.0000 0.0000 23.3762 0.0000 0.0000
# 5 0.0000 0.0000 0.0000 0.0000 11.0078 0.0000
# 6 0.0000 0.0000 0.0000 0.0000 0.0000 30.5819
#
#
#
# Elastic Compliance Matrix: (Units=1/GPa)
#
#
# Indices 1 2 3 4 5 6 
#
# 1 0.028728 -0.002510 0.008244 0.000000 0.000000 0.000000
# 2 -0.002510 0.013175 -0.000931 0.000000 0.000000 0.000000
# 3 0.008244 -0.000931 0.015393 0.000000 0.000000 0.000000
# 4 0.000000 0.000000 0.000000 0.042779 0.000000 0.000000
# 5 0.000000 0.000000 0.000000 0.000000 0.090845 0.000000
# 6 0.000000 0.000000 0.000000 0.000000 0.000000 0.032699
#
#
# Mechanical properties :
#
#
# Convention : Reuss Voigt Hill
#
# Bulk Modulus (GPa) = 14.94739 18.56339 16.75539
# Shear Modulus (GPa) = 21.15849 26.98921 24.07385
#
# Velocity S-wave (km/s) = 2.98289 3.36891 3.18176
# Velocity P-wave (km/s) = 4.26019 4.78948 4.53257
#
# Compressibility (1/GPa) = 0.06690131
#
# Stress axis : x y z
#
# Youngs Moduli (GPa) = 34.80976 75.90359 64.96524
#
# Poissons Ratio (x) = 0.19052 -0.53555
# Poissons Ratio (y) = 0.08737 0.06046
# Poissons Ratio (z) = -0.28696 0.07063
#
# Static dielectric constant tensor:
#      x y z
#    x 1.907460 0.000000 0.000000 
#    y 0.000000 1.965770 0.000000 
#    z 0.000000 0.000000 1.958940 
# 
# From -- ./inp_files/29637.got.cif
#   From: 2010.05.17/outbox.cif.g08.bks.cpg/sg22_15_cif.got.tgz:29637.got - 2010.06.03 23:40:54.
