data_PCOD9327695
_publ_section_title
;
Structure prediction by ZEFSAII (Michael W. Deem and Ramdas Pophale) SiO2 
 PCOD9327695
Probable space group: F 2 2 2
;
_chemical_formula_sum "Si O2"
_cell_formula_units_Z 104
_cell_length_a 20.947269
_cell_length_b 17.263382
_cell_length_c 14.586862
_cell_angle_alpha 90.000000
_cell_angle_beta 90.000000
_cell_angle_gamma 90.000000
_cell_volume 5274.911344
_symmetry_space_group_name_H-M "F 2 2 2"
_symmetry_group_IT_number 22
_symmetry_cell_setting 'orthorhombic'
loop_
_space_group_symop_operation_xyz
x,y,z
-x,-y,z
x,-y,-z
-x,y,-z
x,1/2+y,1/2+z
-x,1/2-y,1/2+z
x,1/2-y,1/2-z
-x,1/2+y,1/2-z
1/2+x,y,1/2+z
1/2-x,-y,1/2+z
1/2+x,-y,1/2-z
1/2-x,y,1/2-z
1/2+x,1/2+y,z
1/2-x,1/2-y,z
1/2+x,1/2-y,-z
1/2-x,1/2+y,-z
loop_
_atom_site_type_symbol
_atom_site_label
_atom_site_fract_x
_atom_site_fract_y
_atom_site_fract_z
Si Si1 0.146126 0.477178 0.596253
Si Si2 0.000000 0.242106 0.500000
Si Si3 0.588060 0.250000 0.250000
Si Si4 0.750000 0.750000 0.438854
Si Si5 0.897977 0.487032 0.804130
Si Si6 0.233976 0.420675 0.143209
Si Si7 0.133563 0.202117 0.936653
Si Si8 0.013101 0.625583 0.169517
O O1 0.111783 0.500000 0.500000
O O2 0.116376 0.495032 0.696615
O O3 0.211798 0.526838 0.595897
O O4 0.152782 0.384923 0.589781
O O5 0.064635 0.291450 0.513388
O O6 0.999170 0.184981 0.587589
O O7 0.628097 0.250429 0.342400
O O8 0.542330 0.324226 0.248067
O O9 0.761657 0.831103 0.386460
O O10 0.812574 0.736852 0.499427
O O11 0.835724 0.459947 0.859892
O O12 0.933004 0.560811 0.849939
O O13 0.949140 0.418370 0.805186
O O14 0.250000 0.422183 0.250000
#
# Coordination Sequence:
#
# PCOD9327695 Si02
#       8
#    16   8   8   8  16  16  16  16
#     4  11  22  43  63  94 134 165 216 265 318 400
#     4  10  24  43  65  98 136 164 222 282 318 394
#     4  10  22  43  62  92 135 168 214 268 314 401
#     4  12  23  43  68  98 130 172 226 269 329 394
#     4  10  22  41  66  94 125 175 211 266 334 388
#     4  10  23  43  65  94 132 168 218 272 326 387
#     4  11  24  43  66  99 131 177 216 266 340 382
#     4  10  21  42  65  95 127 165 220 263 330 386
#
# _framework density 19.715972000000001
#
# number of rings (size 3 to 8) (size 9 to 14) (size 15 to 20)
#    0.000    1.538    3.077    1.154    0.000    6.462 
#   11.077    0.000    0.000    0.000    0.000    0.000 
#    0.000    0.000    0.000    0.000    0.000    0.000 
#
# Total GULP energy -145007.160416 kJ/mol
# GULP energy per Si atom -5577.198478 kJ/mol
# Density = 1.967110 g / cm^3
# Si number density = 19.715972 Si / 1000 Ang^3
#
#
#
# Elastic Constant Matrix: (Units=GPa)
#
#
# Indices 1 2 3 4 5 6 
#
# 1 103.3990 50.1337 15.9966 0.0000 0.0000 0.0000
# 2 50.1337 122.8151 15.6412 0.0000 0.0000 0.0000
# 3 15.9966 15.6412 67.2452 0.0000 0.0000 0.0000
# 4 0.0000 0.0000 0.0000 15.3455 0.0000 0.0000
# 5 0.0000 0.0000 0.0000 0.0000 12.3200 0.0000
# 6 0.0000 0.0000 0.0000 0.0000 0.0000 23.0276
#
#
#
# Elastic Compliance Matrix: (Units=1/GPa)
#
#
# Indices 1 2 3 4 5 6 
#
# 1 0.012267 -0.004777 -0.001807 0.000000 0.000000 0.000000
# 2 -0.004777 0.010251 -0.001248 0.000000 0.000000 0.000000
# 3 -0.001807 -0.001248 0.015591 0.000000 0.000000 0.000000
# 4 0.000000 0.000000 0.000000 0.065166 0.000000 0.000000
# 5 0.000000 0.000000 0.000000 0.000000 0.081169 0.000000
# 6 0.000000 0.000000 0.000000 0.000000 0.000000 0.043426
#
#
# Mechanical properties :
#
#
# Convention : Reuss Voigt Hill
#
# Bulk Modulus (GPa) = 44.55341 50.77803 47.66572
# Shear Modulus (GPa) = 19.91902 24.25116 22.08509
#
# Velocity S-wave (km/s) = 3.18197 3.51098 3.35051
# Velocity P-wave (km/s) = 6.01220 6.49974 6.26072
#
# Compressibility (1/GPa) = 0.02244497
#
# Stress axis : x y z
#
# Youngs Moduli (GPa) = 81.51840 97.54756 64.13925
#
# Poissons Ratio (x) = 0.46602 0.11590
# Poissons Ratio (y) = 0.38945 0.08005
# Poissons Ratio (z) = 0.14730 0.12174
#
# Static dielectric constant tensor:
#      x y z
#    x 1.707510 0.000000 0.000000 
#    y 0.000000 1.701790 0.000000 
#    z 0.000000 0.000000 1.715450 
# 
# From -- ./inp_files/31722.got.cif
#   From: 2010.05.17/outbox.cif.g08.bks.cpg/sg22_16_cif.got.tgz:31722.got - 2010.06.03 23:40:54.
