data_PCOD9327882
_publ_section_title
;
Structure prediction by ZEFSAII (Michael W. Deem and Ramdas Pophale) SiO2 
 PCOD9327882
Probable space group: F 2 2 2
;
_chemical_formula_sum "Si O2"
_cell_formula_units_Z 88
_cell_length_a 26.391287
_cell_length_b 30.071466
_cell_length_c 5.067787
_cell_angle_alpha 90.000000
_cell_angle_beta 90.000000
_cell_angle_gamma 90.000000
_cell_volume 4021.920885
_symmetry_space_group_name_H-M "F 2 2 2"
_symmetry_group_IT_number 22
_symmetry_cell_setting 'orthorhombic'
loop_
_space_group_symop_operation_xyz
x,y,z
-x,-y,z
x,-y,-z
-x,y,-z
x,1/2+y,1/2+z
-x,1/2-y,1/2+z
x,1/2-y,1/2-z
-x,1/2+y,1/2-z
1/2+x,y,1/2+z
1/2-x,-y,1/2+z
1/2+x,-y,1/2-z
1/2-x,y,1/2-z
1/2+x,1/2+y,z
1/2-x,1/2-y,z
1/2+x,1/2-y,-z
1/2-x,1/2+y,-z
loop_
_atom_site_type_symbol
_atom_site_label
_atom_site_fract_x
_atom_site_fract_y
_atom_site_fract_z
Si Si1 0.250000 0.471089 0.250000
Si Si2 0.250000 0.323979 0.250000
Si Si3 0.388636 0.383875 0.964798
Si Si4 0.000000 0.398737 0.500000
Si Si5 0.000000 0.662579 0.000000
Si Si6 0.823693 0.750000 0.250000
Si Si7 0.595503 0.205665 0.126711
Si Si8 0.678553 0.895564 0.030459
O O1 0.232299 0.500000 0.500000
O O2 0.293867 0.439515 0.365423
O O3 0.210365 0.289166 0.377154
O O4 0.279237 0.356464 0.451820
O O5 0.395844 0.333887 0.839428
O O6 0.348338 0.402516 0.750269
O O7 0.440189 0.413944 0.998996
O O8 0.363272 0.381662 0.251909
O O9 0.004646 0.369065 0.754981
O O10 0.949249 0.688955 0.057601
O O11 0.856794 0.776114 0.465048
O O12 0.573151 0.250000 0.250000
#
# Coordination Sequence:
#
# PCOD9327882 Si02
#       8
#     8   8  16   8   8   8  16  16
#     4  11  24  45  72 109 138 167 212 261 328 403
#     4  10  22  39  58  82 122 170 228 265 328 372
#     4  11  22  41  62  93 124 170 217 269 331 386
#     4  10  22  39  62  88 123 160 219 276 321 398
#     4  10  24  37  56  78 112 168 222 292 348 376
#     4  11  22  40  52  82 118 172 224 283 320 384
#     4  11  24  34  56  77 120 163 228 281 335 385
#     4  11  23  42  69  93 131 170 209 266 323 399
#
# _framework density 21.880091
#
# number of rings (size 3 to 8) (size 9 to 14) (size 15 to 20)
#    0.000    1.273    1.818    4.364    6.364    2.909 
#    3.273    0.909    0.000    0.000    0.000    9.545 
#    0.000    0.000    0.000    0.000    0.000    0.000 
#
# Total GULP energy -122636.511280 kJ/mol
# GULP energy per Si atom -5574.386876 kJ/mol
# Density = 2.183029 g / cm^3
# Si number density = 21.880091 Si / 1000 Ang^3
#
#
#
# Elastic Constant Matrix: (Units=GPa)
#
#
# Indices 1 2 3 4 5 6 
#
# 1 111.2424 15.9179 18.2696 -0.0273 -0.0057 -0.0942
# 2 15.9179 64.8055 1.3483 0.0409 -0.0236 -0.0881
# 3 18.2696 1.3483 75.3478 0.0058 0.0766 -0.4436
# 4 -0.0273 0.0409 0.0058 21.7048 0.0663 -0.2464
# 5 -0.0057 -0.0236 0.0766 0.0663 44.0176 0.2289
# 6 -0.0942 -0.0881 -0.4436 -0.2464 0.2289 -13.6452
#
#
#
# Elastic Compliance Matrix: (Units=1/GPa)
#
#
# Indices 1 2 3 4 5 6 
#
# 1 0.009703 -0.002335 -0.002311 0.000017 0.000004 0.000023
# 2 -0.002335 0.015998 0.000279 -0.000034 0.000008 -0.000096
# 3 -0.002311 0.000279 0.013825 -0.000012 -0.000022 -0.000435
# 4 0.000017 -0.000034 -0.000012 0.046064 -0.000065 -0.000833
# 5 0.000004 0.000008 -0.000022 -0.000065 0.022716 0.000383
# 6 0.000023 -0.000096 -0.000435 -0.000833 0.000383 -0.073250
#
#
# Mechanical properties :
#
#
# Convention : Reuss Voigt Hill
#
# Bulk Modulus (GPa) = 32.47514 35.82971 34.15242
# Shear Modulus (GPa) = 92.50076 24.80610 58.65343
#
# Velocity S-wave (km/s) = 6.50907 3.37074 5.18314
# Velocity P-wave (km/s) = 8.44779 5.61785 7.17375
#
# Compressibility (1/GPa) = 0.03079279
#
# Stress axis : x y z
#
# Youngs Moduli (GPa) = 103.06020 62.50597 72.33509
#
# Poissons Ratio (x) = 0.14597 0.16715
# Poissons Ratio (y) = 0.24067 -0.02021
# Poissons Ratio (z) = 0.23815 -0.01746
#
# Static dielectric constant tensor:
#      x y z
#    x 1.968450 0.000240 -0.000030 
#    y 0.000240 1.797180 0.000070 
#    z -0.000030 0.000070 1.809660 
# 
# From -- ./inp_files/5778.got.cif
#   From: 2010.05.17/outbox.cif.g08.bks.cpg/sg22_3_cif.got.tgz:5778.got - 2010.06.03 23:40:54.
