data_PCOD9327314
_publ_section_title
;
Structure prediction by ZEFSAII (Michael W. Deem and Ramdas Pophale) SiO2 
 PCOD9327314
Probable space group: F 2 2 2
;
_chemical_formula_sum "Si O2"
_cell_formula_units_Z 120
_cell_length_a 12.140775
_cell_length_b 25.600138
_cell_length_c 19.102768
_cell_angle_alpha 90.000000
_cell_angle_beta 90.000000
_cell_angle_gamma 90.000000
_cell_volume 5937.245654
_symmetry_space_group_name_H-M "F 2 2 2"
_symmetry_group_IT_number 22
_symmetry_cell_setting 'orthorhombic'
loop_
_space_group_symop_operation_xyz
x,y,z
-x,-y,z
x,-y,-z
-x,y,-z
x,1/2+y,1/2+z
-x,1/2-y,1/2+z
x,1/2-y,1/2-z
-x,1/2+y,1/2-z
1/2+x,y,1/2+z
1/2-x,-y,1/2+z
1/2+x,-y,1/2-z
1/2-x,y,1/2-z
1/2+x,1/2+y,z
1/2-x,1/2-y,z
1/2+x,1/2-y,-z
1/2-x,1/2+y,-z
loop_
_atom_site_type_symbol
_atom_site_label
_atom_site_fract_x
_atom_site_fract_y
_atom_site_fract_z
Si Si1 0.500000 0.363998 0.000000
Si Si2 0.815650 0.058810 0.354369
Si Si3 0.369693 0.903564 0.000065
Si Si4 0.965096 0.443840 0.622320
Si Si5 0.207401 0.438593 0.150922
Si Si6 0.713666 0.191763 0.463923
Si Si7 0.831662 0.343798 0.309522
Si Si8 0.489849 0.599539 0.735866
O O1 0.509794 0.400889 0.068194
O O2 0.607530 0.328585 0.994345
O O3 0.823612 0.059355 0.438272
O O4 0.721008 0.098643 0.328479
O O5 0.928809 0.083799 0.326484
O O6 0.805626 0.999576 0.329292
O O7 0.310520 0.848758 0.017513
O O8 0.500000 0.897831 0.000000
O O9 0.341705 0.926163 0.924791
O O10 0.836803 0.431684 0.636113
O O11 0.000000 0.500000 0.593327
O O12 0.006917 0.441311 0.701587
O O13 0.134326 0.404542 0.205881
O O14 0.750000 0.250000 0.480189
O O15 0.679355 0.187025 0.381890
O O16 0.750000 0.322290 0.250000
O O17 0.952581 0.350443 0.274206
#
# Coordination Sequence:
#
# PCOD9327314 Si02
#       8
#     8  16  16  16  16  16  16  16
#     4  12  25  46  66 100 124 170 227 282 346 402
#     4  10  21  34  57  88 131 178 217 258 307 381
#     4  11  23  40  61  92 126 168 221 278 335 398
#     4  12  25  39  62  90 137 182 222 263 319 405
#     4  12  23  35  58  95 132 180 221 258 326 388
#     4  11  25  46  72  93 122 164 222 295 352 400
#     4   9  20  40  64  92 128 166 216 270 322 394
#     4  11  21  37  56  90 135 178 217 257 306 386
#
# _framework density 20.211390999999999
#
# number of rings (size 3 to 8) (size 9 to 14) (size 15 to 20)
#    0.000    1.067    4.000    3.000    2.800    4.000 
#    0.000    0.000    0.000    0.000    0.000    0.933 
#    0.000    0.000    0.000    0.000    0.000    0.000 
#
# Total GULP energy -167361.419458 kJ/mol
# GULP energy per Si atom -5578.713982 kJ/mol
# Density = 2.016539 g / cm^3
# Si number density = 20.211391 Si / 1000 Ang^3
#
#
#
# Elastic Constant Matrix: (Units=GPa)
#
#
# Indices 1 2 3 4 5 6 
#
# 1 108.3834 21.9684 6.1132 0.0000 0.0000 0.0000
# 2 21.9684 69.4903 14.1643 0.0000 0.0000 0.0000
# 3 6.1132 14.1643 97.2732 0.0000 0.0000 0.0000
# 4 0.0000 0.0000 0.0000 29.0196 0.0000 0.0000
# 5 0.0000 0.0000 0.0000 0.0000 21.0984 0.0000
# 6 0.0000 0.0000 0.0000 0.0000 0.0000 10.9884
#
#
#
# Elastic Compliance Matrix: (Units=1/GPa)
#
#
# Indices 1 2 3 4 5 6 
#
# 1 0.009861 -0.003083 -0.000171 0.000000 0.000000 0.000000
# 2 -0.003083 0.015794 -0.002106 0.000000 0.000000 0.000000
# 3 -0.000171 -0.002106 0.010598 0.000000 0.000000 0.000000
# 4 0.000000 0.000000 0.000000 0.034460 0.000000 0.000000
# 5 0.000000 0.000000 0.000000 0.000000 0.047397 0.000000
# 6 0.000000 0.000000 0.000000 0.000000 0.000000 0.091005
#
#
# Mechanical properties :
#
#
# Convention : Reuss Voigt Hill
#
# Bulk Modulus (GPa) = 39.16370 39.95987 39.56178
# Shear Modulus (GPa) = 21.89665 27.74798 24.82231
#
# Velocity S-wave (km/s) = 3.29505 3.70927 3.50828
# Velocity P-wave (km/s) = 5.82199 6.17728 6.00226
#
# Compressibility (1/GPa) = 0.02553385
#
# Stress axis : x y z
#
# Youngs Moduli (GPa) = 101.41000 63.31390 94.35967
#
# Poissons Ratio (x) = 0.19517 0.01612
# Poissons Ratio (y) = 0.31261 0.19874
# Poissons Ratio (z) = 0.01733 0.13335
#
# Static dielectric constant tensor:
#      x y z
#    x 1.783710 0.000000 0.000000 
#    y 0.000000 1.707540 0.000000 
#    z 0.000000 0.000000 1.740060 
# 
# From -- ./inp_files/42939.got.cif
#   From: 2010.05.17/outbox.cif.g08.bks.cpg/sg22_22_cif.got.tgz:42939.got - 2010.06.03 23:40:54.
