data_PCOD9327122
_publ_section_title
;
Structure prediction by ZEFSAII (Michael W. Deem and Ramdas Pophale) SiO2 
 PCOD9327122
Probable space group: F 2 2 2
;
_chemical_formula_sum "Si O2"
_cell_formula_units_Z 80
_cell_length_a 5.871118
_cell_length_b 26.360069
_cell_length_c 25.020604
_cell_angle_alpha 90.000000
_cell_angle_beta 90.000000
_cell_angle_gamma 90.000000
_cell_volume 3872.265628
_symmetry_space_group_name_H-M "F 2 2 2"
_symmetry_group_IT_number 22
_symmetry_cell_setting 'orthorhombic'
loop_
_space_group_symop_operation_xyz
x,y,z
-x,-y,z
x,-y,-z
-x,y,-z
x,1/2+y,1/2+z
-x,1/2-y,1/2+z
x,1/2-y,1/2-z
-x,1/2+y,1/2-z
1/2+x,y,1/2+z
1/2-x,-y,1/2+z
1/2+x,-y,1/2-z
1/2-x,y,1/2-z
1/2+x,1/2+y,z
1/2-x,1/2-y,z
1/2+x,1/2-y,-z
1/2-x,1/2+y,-z
loop_
_atom_site_type_symbol
_atom_site_label
_atom_site_fract_x
_atom_site_fract_y
_atom_site_fract_z
Si Si1 0.830259 0.039752 0.805850
Si Si2 0.515986 0.097594 0.882058
Si Si3 0.144318 0.194909 0.113158
Si Si4 0.000000 0.661961 0.500000
Si Si5 0.500000 0.894885 0.000000
Si Si6 0.629128 0.137909 0.305052
O O1 0.750000 0.016081 0.750000
O O2 0.634154 0.055788 0.845570
O O3 0.956847 0.092225 0.791447
O O4 0.000000 0.000000 0.832221
O O5 0.672702 0.148590 0.885651
O O6 0.292409 0.114510 0.850578
O O7 0.492615 0.078402 0.942525
O O8 0.250000 0.250000 0.116303
O O9 0.012200 0.191110 0.056539
O O10 0.991839 0.183909 0.164946
O O11 0.249986 0.633881 0.498877
O O12 0.750000 0.152064 0.250000
#
# Coordination Sequence:
#
# PCOD9327122 Si02
#       6
#    16  16  16   8   8  16
#     4  11  23  38  66 102 124 161 220 284 341 404
#     4  10  22  40  63  95 130 174 220 270 336 405
#     4  10  23  39  61  96 131 173 228 281 333 393
#     4  10  20  39  64  98 131 173 235 291 326 388
#     4  10  20  41  68  95 136 185 219 274 343 404
#     4  11  21  41  65  88 134 173 216 270 338 407
#
# _framework density 20.659737
#
# number of rings (size 3 to 8) (size 9 to 14) (size 15 to 20)
#    0.000    1.600    4.000    0.600    0.000    4.000 
#    0.000    3.000    0.000    3.600    0.000    0.000 
#    0.000    0.000    0.000    0.000    0.000    0.000 
#
# Total GULP energy -111531.231091 kJ/mol
# GULP energy per Si atom -5576.561555 kJ/mol
# Density = 2.061271 g / cm^3
# Si number density = 20.659737 Si / 1000 Ang^3
#
#
#
# Elastic Constant Matrix: (Units=GPa)
#
#
# Indices 1 2 3 4 5 6 
#
# 1 79.2664 9.8712 22.3542 0.0000 0.0000 0.0000
# 2 9.8712 44.3939 3.8541 0.0000 0.0000 0.0000
# 3 22.3542 3.8541 126.2880 0.0000 0.0000 0.0000
# 4 0.0000 0.0000 0.0000 16.5193 0.0000 0.0000
# 5 0.0000 0.0000 0.0000 0.0000 41.6302 0.0000
# 6 0.0000 0.0000 0.0000 0.0000 0.0000 27.9122
#
#
#
# Elastic Compliance Matrix: (Units=1/GPa)
#
#
# Indices 1 2 3 4 5 6 
#
# 1 0.013624 -0.002827 -0.002325 0.000000 0.000000 0.000000
# 2 -0.002827 0.023172 -0.000207 0.000000 0.000000 0.000000
# 3 -0.002325 -0.000207 0.008336 0.000000 0.000000 0.000000
# 4 0.000000 0.000000 0.000000 0.060535 0.000000 0.000000
# 5 0.000000 0.000000 0.000000 0.000000 0.024021 0.000000
# 6 0.000000 0.000000 0.000000 0.000000 0.000000 0.035827
#
#
# Mechanical properties :
#
#
# Convention : Reuss Voigt Hill
#
# Bulk Modulus (GPa) = 29.05837 35.78969 32.42403
# Shear Modulus (GPa) = 26.63759 31.47025 29.05392
#
# Velocity S-wave (km/s) = 3.59464 3.90714 3.75414
# Velocity P-wave (km/s) = 5.59682 6.14128 5.87536
#
# Compressibility (1/GPa) = 0.03441349
#
# Stress axis : x y z
#
# Youngs Moduli (GPa) = 73.40239 43.15504 119.95723
#
# Poissons Ratio (x) = 0.12202 0.27893
# Poissons Ratio (y) = 0.20754 0.02479
# Poissons Ratio (z) = 0.17068 0.00892
#
# Static dielectric constant tensor:
#      x y z
#    x 1.822320 0.000000 0.000000 
#    y 0.000000 1.694330 0.000000 
#    z 0.000000 0.000000 1.731240 
# 
# From -- ./inp_files/46643.got.cif
#   From: 2010.05.17/outbox.cif.g08.bks.cpg/sg22_24_cif.got.tgz:46643.got - 2010.06.03 23:40:54.
