data_PCOD9327053
_publ_section_title
;
Structure prediction by ZEFSAII (Michael W. Deem and Ramdas Pophale) SiO2 
 PCOD9327053
Probable space group: F 2 2 2
;
_chemical_formula_sum "Si O2"
_cell_formula_units_Z 80
_cell_length_a 15.277504
_cell_length_b 26.247533
_cell_length_c 8.682101
_cell_angle_alpha 90.000000
_cell_angle_beta 90.000000
_cell_angle_gamma 90.000000
_cell_volume 3481.494635
_symmetry_space_group_name_H-M "F 2 2 2"
_symmetry_group_IT_number 22
_symmetry_cell_setting 'orthorhombic'
loop_
_space_group_symop_operation_xyz
x,y,z
-x,-y,z
x,-y,-z
-x,y,-z
x,1/2+y,1/2+z
-x,1/2-y,1/2+z
x,1/2-y,1/2-z
-x,1/2+y,1/2-z
1/2+x,y,1/2+z
1/2-x,-y,1/2+z
1/2+x,-y,1/2-z
1/2-x,y,1/2-z
1/2+x,1/2+y,z
1/2-x,1/2-y,z
1/2+x,1/2-y,-z
1/2-x,1/2+y,-z
loop_
_atom_site_type_symbol
_atom_site_label
_atom_site_fract_x
_atom_site_fract_y
_atom_site_fract_z
Si Si1 0.145732 0.949857 0.082128
Si Si2 0.352642 0.448715 0.574524
Si Si3 0.905536 0.652823 0.428419
Si Si4 0.833205 0.347636 0.873864
Si Si5 0.400200 0.743490 0.433991
O O1 0.249243 0.958809 0.097206
O O2 0.109766 0.939874 0.254034
O O3 0.137826 0.900018 0.977290
O O4 0.107784 0.000000 0.000000
O O5 0.390724 0.500000 0.500000
O O6 0.351473 0.400347 0.461911
O O7 0.911367 0.659682 0.247170
O O8 0.863219 0.703405 0.498577
O O9 0.000000 0.649779 0.500000
O O10 0.750000 0.347483 0.750000
O O11 0.842546 0.302729 0.998272
O O12 0.500000 0.738255 0.500000
O O13 0.401444 0.750000 0.250000
#
# Coordination Sequence:
#
# PCOD9327053 Si02
#       5
#    16  16  16  16  16
#     4  10  20  38  63  93 131 171 221 269 330 397
#     4  10  21  37  64  94 129 173 214 270 336 395
#     4  11  23  41  64  92 130 177 220 269 339 399
#     4  12  24  43  69 103 134 174 230 283 330 395
#     4  11  24  45  70  96 135 185 227 276 345 412
#
# _framework density 22.978636000000002
#
# number of rings (size 3 to 8) (size 9 to 14) (size 15 to 20)
#    0.000    1.200    2.000    5.400    2.800    2.000 
#    0.000    1.000    0.000    4.200    0.000    0.000 
#    0.000    0.000    0.000    0.000    0.000    0.000 
#
# Total GULP energy -111638.424890 kJ/mol
# GULP energy per Si atom -5581.921245 kJ/mol
# Density = 2.292634 g / cm^3
# Si number density = 22.978636 Si / 1000 Ang^3
#
#
#
# Elastic Constant Matrix: (Units=GPa)
#
#
# Indices 1 2 3 4 5 6 
#
# 1 53.9581 11.5528 22.0977 0.0000 0.0000 0.0000
# 2 11.5528 204.5754 96.0248 0.0000 0.0000 0.0000
# 3 22.0977 96.0248 219.1481 0.0000 0.0000 0.0000
# 4 0.0000 0.0000 0.0000 27.9913 0.0000 0.0000
# 5 0.0000 0.0000 0.0000 0.0000 22.6120 0.0000
# 6 0.0000 0.0000 0.0000 0.0000 0.0000 8.3611
#
#
#
# Elastic Compliance Matrix: (Units=1/GPa)
#
#
# Indices 1 2 3 4 5 6 
#
# 1 0.019339 -0.000223 -0.001853 0.000000 0.000000 0.000000
# 2 -0.000223 0.006156 -0.002675 0.000000 0.000000 0.000000
# 3 -0.001853 -0.002675 0.005922 0.000000 0.000000 0.000000
# 4 0.000000 0.000000 0.000000 0.035725 0.000000 0.000000
# 5 0.000000 0.000000 0.000000 0.000000 0.044224 0.000000
# 6 0.000000 0.000000 0.000000 0.000000 0.000000 0.119601
#
#
# Mechanical properties :
#
#
# Convention : Reuss Voigt Hill
#
# Bulk Modulus (GPa) = 45.62617 81.89247 63.75932
# Shear Modulus (GPa) = 20.17960 34.99331 27.58646
#
# Velocity S-wave (km/s) = 2.96664 3.90662 3.46862
# Velocity P-wave (km/s) = 5.62438 7.48764 6.62187
#
# Compressibility (1/GPa) = 0.02191724
#
# Stress axis : x y z
#
# Youngs Moduli (GPa) = 51.70842 162.43226 168.85918
#
# Poissons Ratio (x) = 0.03615 0.31282
# Poissons Ratio (y) = 0.01151 0.45172
# Poissons Ratio (z) = 0.09579 0.43453
#
# Static dielectric constant tensor:
#      x y z
#    x 1.983250 0.000000 0.000000 
#    y 0.000000 1.871520 0.000000 
#    z 0.000000 0.000000 1.896130 
# 
# From -- ./inp_files/11602.got.cif
#   From: 2010.05.17/outbox.cif.g08.bks.cpg/sg22_6_cif.got.tgz:11602.got - 2010.06.03 23:40:54.
