data_PCOD9327123
_publ_section_title
;
Structure prediction by ZEFSAII (Michael W. Deem and Ramdas Pophale) SiO2 
 PCOD9327123
Probable space group: F 2 2 2
;
_chemical_formula_sum "Si O2"
_cell_formula_units_Z 112
_cell_length_a 31.972693
_cell_length_b 5.847524
_cell_length_c 25.717794
_cell_angle_alpha 90.000000
_cell_angle_beta 90.000000
_cell_angle_gamma 90.000000
_cell_volume 4808.226790
_symmetry_space_group_name_H-M "F 2 2 2"
_symmetry_group_IT_number 22
_symmetry_cell_setting 'orthorhombic'
loop_
_space_group_symop_operation_xyz
x,y,z
-x,-y,z
x,-y,-z
-x,y,-z
x,1/2+y,1/2+z
-x,1/2-y,1/2+z
x,1/2-y,1/2-z
-x,1/2+y,1/2-z
1/2+x,y,1/2+z
1/2-x,-y,1/2+z
1/2+x,-y,1/2-z
1/2-x,y,1/2-z
1/2+x,1/2+y,z
1/2-x,1/2-y,z
1/2+x,1/2-y,-z
1/2-x,1/2+y,-z
loop_
_atom_site_type_symbol
_atom_site_label
_atom_site_fract_x
_atom_site_fract_y
_atom_site_fract_z
Si Si1 0.772292 0.005196 0.171600
Si Si2 0.378587 0.314859 0.453646
Si Si3 0.711477 0.084489 0.557302
Si Si4 0.861916 0.441795 0.293958
Si Si5 0.954113 0.021833 0.917227
Si Si6 0.905837 0.364295 0.131601
Si Si7 0.557926 0.240440 0.805719
O O1 0.750000 0.250000 0.186807
O O2 0.814721 0.974876 0.204668
O O3 0.750000 0.750000 0.175829
O O4 0.786631 0.052525 0.111394
O O5 0.378621 0.500000 0.500000
O O6 0.335117 0.181446 0.451302
O O7 0.420145 0.159088 0.451097
O O8 0.381471 0.443518 0.398916
O O9 0.750000 0.250000 0.567716
O O10 0.722440 0.000000 0.500000
O O11 0.866849 0.250000 0.250000
O O12 0.872514 0.310679 0.346927
O O13 0.898193 0.630233 0.294166
O O14 0.958230 0.140907 0.859214
O O15 0.936019 0.770908 0.906715
O O16 0.000000 0.000000 0.939657
O O17 0.932635 0.481385 0.177101
O O18 0.534465 0.250000 0.750000
#
# Coordination Sequence:
#
# PCOD9327123 Si02
#       7
#    16  16  16  16  16  16  16
#     4  11  27  44  67 100 148 192 248 313 379 454
#     4  11  26  43  73 104 139 190 243 304 372 451
#     4  11  24  43  71 108 140 183 235 303 382 453
#     4  11  23  40  69  95 133 195 240 303 363 442
#     4  10  24  46  68 101 147 188 240 301 373 447
#     4  10  22  42  71  96 142 178 237 301 360 443
#     4  10  20  39  65 104 133 184 240 294 369 437
#
# _framework density 23.293410999999999
#
# number of rings (size 3 to 8) (size 9 to 14) (size 15 to 20)
#    0.000    1.429    1.429    3.429   10.000    2.571 
#    2.571    2.857    0.000    0.000    0.000    0.000 
#    0.000    0.000    0.000    0.000    0.000    0.000 
#
# Total GULP energy -156192.450775 kJ/mol
# GULP energy per Si atom -5578.301813 kJ/mol
# Density = 2.324039 g / cm^3
# Si number density = 23.293411 Si / 1000 Ang^3
#
#
#
# Elastic Constant Matrix: (Units=GPa)
#
#
# Indices 1 2 3 4 5 6 
#
# 1 134.7518 37.4684 5.6063 -0.0056 -0.0023 -0.0041
# 2 37.4684 83.2694 4.0733 -0.0154 -0.0058 -0.0092
# 3 5.6063 4.0733 74.0795 -0.0015 -0.0012 0.0002
# 4 -0.0056 -0.0154 -0.0015 30.0444 -0.0012 -0.0002
# 5 -0.0023 -0.0058 -0.0012 -0.0012 7.4859 0.0006
# 6 -0.0041 -0.0092 0.0002 -0.0002 0.0006 -28.5805
#
#
#
# Elastic Compliance Matrix: (Units=1/GPa)
#
#
# Indices 1 2 3 4 5 6 
#
# 1 0.008496 -0.003802 -0.000434 0.000000 0.000000 0.000000
# 2 -0.003802 0.013743 -0.000468 0.000006 0.000009 -0.000004
# 3 -0.000434 -0.000468 0.013558 0.000000 0.000002 0.000000
# 4 0.000000 0.000006 0.000000 0.033284 0.000005 0.000000
# 5 0.000000 0.000009 0.000002 0.000005 0.133584 0.000003
# 6 0.000000 -0.000004 0.000000 0.000000 0.000003 -0.034989
#
#
# Mechanical properties :
#
#
# Convention : Reuss Voigt Hill
#
# Bulk Modulus (GPa) = 37.89421 42.93296 40.41358
# Shear Modulus (GPa) = 26.89911 18.12014 22.50962
#
# Velocity S-wave (km/s) = 3.40191 2.79213 3.11199
# Velocity P-wave (km/s) = 5.63331 5.37271 5.50455
#
# Compressibility (1/GPa) = 0.02638926
#
# Stress axis : x y z
#
# Youngs Moduli (GPa) = 117.69962 72.76554 73.75943
#
# Poissons Ratio (x) = 0.27664 0.03201
# Poissons Ratio (y) = 0.44747 0.03451
# Poissons Ratio (z) = 0.05108 0.03405
#
# Static dielectric constant tensor:
#      x y z
#    x 1.773560 0.000000 0.000000 
#    y 0.000000 1.866030 0.000000 
#    z 0.000000 0.000000 1.958190 
# 
# From -- ./inp_files/57363.got.cif
#   From: 2010.05.17/outbox.cif.g08.bks.cpg/sg22_29_cif.got.tgz:57363.got - 2010.06.03 23:40:54.
