data_PCOD9327121
_publ_section_title
;
Structure prediction by ZEFSAII (Michael W. Deem and Ramdas Pophale) SiO2 
 PCOD9327121
Probable space group: F 2 2 2
;
_chemical_formula_sum "Si O2"
_cell_formula_units_Z 112
_cell_length_a 15.267353
_cell_length_b 13.893654
_cell_length_c 24.613599
_cell_angle_alpha 90.000000
_cell_angle_beta 90.000000
_cell_angle_gamma 90.000000
_cell_volume 5221.019885
_symmetry_space_group_name_H-M "F 2 2 2"
_symmetry_group_IT_number 22
_symmetry_cell_setting 'orthorhombic'
loop_
_space_group_symop_operation_xyz
x,y,z
-x,-y,z
x,-y,-z
-x,y,-z
x,1/2+y,1/2+z
-x,1/2-y,1/2+z
x,1/2-y,1/2-z
-x,1/2+y,1/2-z
1/2+x,y,1/2+z
1/2-x,-y,1/2+z
1/2+x,-y,1/2-z
1/2-x,y,1/2-z
1/2+x,1/2+y,z
1/2-x,1/2-y,z
1/2+x,1/2-y,-z
1/2-x,1/2+y,-z
loop_
_atom_site_type_symbol
_atom_site_label
_atom_site_fract_x
_atom_site_fract_y
_atom_site_fract_z
Si Si1 0.750000 0.078416 0.250000
Si Si2 0.746551 0.637336 0.531591
Si Si3 0.500000 0.000000 0.618666
Si Si4 0.070567 0.367001 0.710086
Si Si5 0.313368 0.570292 0.660089
Si Si6 0.078195 0.061292 0.578488
Si Si7 0.511382 0.835945 0.180073
Si Si8 0.175014 0.556448 0.578310
O O1 0.705772 0.006351 0.206960
O O2 0.826605 0.140358 0.222800
O O3 0.750000 0.750000 0.546888
O O4 0.643993 0.610770 0.536851
O O5 0.797761 0.556567 0.567830
O O6 0.786021 0.616388 0.472130
O O7 0.441816 0.060833 0.660621
O O8 0.570187 0.058790 0.583369
O O9 0.022873 0.270413 0.691246
O O10 0.024290 0.393844 0.767235
O O11 0.363091 0.513332 0.612475
O O12 0.383892 0.650221 0.677517
O O13 0.221097 0.596922 0.632667
O O14 0.034842 0.128915 0.624719
O O15 0.000000 0.000000 0.554827
#
# Coordination Sequence:
#
# PCOD9327121 Si02
#       8
#     8  16   8  16  16  16  16  16
#     4  12  20  37  68  95 134 188 230 264 343 407
#     4  10  23  43  71  98 133 172 231 290 359 413
#     4  12  24  43  72  96 134 184 227 272 362 412
#     4  11  24  38  61 102 136 182 224 278 333 411
#     4  10  20  39  64  92 129 180 217 275 337 408
#     4   9  19  38  66  93 130 174 218 282 336 405
#     4  10  22  38  59  97 144 166 228 280 330 399
#     4  10  24  44  69  98 132 175 232 289 344 422
#
# _framework density 21.451747000000001
#
# number of rings (size 3 to 8) (size 9 to 14) (size 15 to 20)
#    0.000    1.714    2.857    0.857    3.000    3.429 
#    0.000   12.143   12.571    0.000    0.000    0.000 
#    0.000    0.000    0.000    0.000    0.000    0.000 
#
# Total GULP energy -156214.467855 kJ/mol
# GULP energy per Si atom -5579.088138 kJ/mol
# Density = 2.140292 g / cm^3
# Si number density = 21.451747 Si / 1000 Ang^3
#
#
#
# Elastic Constant Matrix: (Units=GPa)
#
#
# Indices 1 2 3 4 5 6 
#
# 1 159.4967 27.4255 39.7928 0.0000 0.0000 0.0000
# 2 27.4255 53.8773 8.3587 0.0000 0.0000 0.0000
# 3 39.7928 8.3587 82.1194 0.0000 0.0000 0.0000
# 4 0.0000 0.0000 0.0000 8.5100 0.0000 0.0000
# 5 0.0000 0.0000 0.0000 0.0000 32.9633 0.0000
# 6 0.0000 0.0000 0.0000 0.0000 0.0000 27.6495
#
#
#
# Elastic Compliance Matrix: (Units=1/GPa)
#
#
# Indices 1 2 3 4 5 6 
#
# 1 0.007698 -0.003393 -0.003385 0.000000 0.000000 0.000000
# 2 -0.003393 0.020354 -0.000428 0.000000 0.000000 0.000000
# 3 -0.003385 -0.000428 0.013861 0.000000 0.000000 0.000000
# 4 0.000000 0.000000 0.000000 0.117509 0.000000 0.000000
# 5 0.000000 0.000000 0.000000 0.000000 0.030337 0.000000
# 6 0.000000 0.000000 0.000000 0.000000 0.000000 0.036167
#
#
# Mechanical properties :
#
#
# Convention : Reuss Voigt Hill
#
# Bulk Modulus (GPa) = 36.36095 49.62752 42.99423
# Shear Modulus (GPa) = 20.03972 28.48564 24.26268
#
# Velocity S-wave (km/s) = 3.05975 3.64798 3.36674
# Velocity P-wave (km/s) = 5.42859 6.39753 5.93288
#
# Compressibility (1/GPa) = 0.02750203
#
# Stress axis : x y z
#
# Youngs Moduli (GPa) = 129.91003 49.12965 72.14476
#
# Poissons Ratio (x) = 0.16671 0.24419
# Poissons Ratio (y) = 0.44082 0.03084
# Poissons Ratio (z) = 0.43970 0.02100
#
# Static dielectric constant tensor:
#      x y z
#    x 1.829540 0.000000 0.000000 
#    y 0.000000 1.772330 0.000000 
#    z 0.000000 0.000000 1.848420 
# 
# From -- ./inp_files/53250.got.cif
#   From: 2010.05.17/outbox.cif.g08.bks.cpg/sg22_27_cif.got.tgz:53250.got - 2010.06.03 23:40:54.
