data_PCOD9327528
_publ_section_title
;
Structure prediction by ZEFSAII (Michael W. Deem and Ramdas Pophale) SiO2 
 PCOD9327528
Probable space group: F 2 2 2
;
_chemical_formula_sum "Si O2"
_cell_formula_units_Z 56
_cell_length_a 7.106871
_cell_length_b 12.622426
_cell_length_c 26.052780
_cell_angle_alpha 90.000000
_cell_angle_beta 90.000000
_cell_angle_gamma 90.000000
_cell_volume 2337.089466
_symmetry_space_group_name_H-M "F 2 2 2"
_symmetry_group_IT_number 22
_symmetry_cell_setting 'orthorhombic'
loop_
_space_group_symop_operation_xyz
x,y,z
-x,-y,z
x,-y,-z
-x,y,-z
x,1/2+y,1/2+z
-x,1/2-y,1/2+z
x,1/2-y,1/2-z
-x,1/2+y,1/2-z
1/2+x,y,1/2+z
1/2-x,-y,1/2+z
1/2+x,-y,1/2-z
1/2-x,y,1/2-z
1/2+x,1/2+y,z
1/2-x,1/2-y,z
1/2+x,1/2-y,-z
1/2-x,1/2+y,-z
loop_
_atom_site_type_symbol
_atom_site_label
_atom_site_fract_x
_atom_site_fract_y
_atom_site_fract_z
Si Si1 0.025059 0.766427 0.330712
Si Si2 0.034763 0.775388 0.058467
Si Si3 0.744954 0.432907 0.805614
Si Si4 0.500000 0.500000 0.894342
O O1 0.250000 0.750000 0.325232
O O2 0.955593 0.778103 0.390356
O O3 0.944718 0.874369 0.308442
O O4 0.909469 0.665195 0.308331
O O5 0.250000 0.750000 0.064922
O O6 0.994559 0.898120 0.069578
O O7 0.000000 0.743774 0.000000
O O8 0.750000 0.486384 0.750000
O O9 0.678288 0.499955 0.855078
#
# Coordination Sequence:
#
# PCOD9327528 Si02
#       4
#    16  16  16   8
#     4   9  19  38  64  95 128 166 222 274 332 403
#     4  10  22  40  68  94 123 173 214 269 345 396
#     4  10  21  39  63  91 131 176 215 272 335 393
#     4  10  23  44  62  96 140 166 219 284 324 406
#
# _framework density 23.961428000000002
#
# number of rings (size 3 to 8) (size 9 to 14) (size 15 to 20)
#    0.000    2.286    0.000    2.143    8.000    2.286 
#   15.429    0.000    0.000    0.000    0.000    0.000 
#    0.000    0.000    0.000    0.000    0.000    0.000 
#
# Total GULP energy -78074.032403 kJ/mol
# GULP energy per Si atom -5576.716600 kJ/mol
# Density = 2.390689 g / cm^3
# Si number density = 23.961428 Si / 1000 Ang^3
#
#
#
# Elastic Constant Matrix: (Units=GPa)
#
#
# Indices 1 2 3 4 5 6 
#
# 1 149.2234 -2.4891 9.9245 0.0000 0.0000 0.0000
# 2 -2.4891 25.0949 -13.3390 0.0000 0.0000 0.0000
# 3 9.9245 -13.3390 152.7364 0.0000 0.0000 0.0000
# 4 0.0000 0.0000 0.0000 22.0278 0.0000 0.0000
# 5 0.0000 0.0000 0.0000 0.0000 45.7791 0.0000
# 6 0.0000 0.0000 0.0000 0.0000 0.0000 32.7338
#
#
#
# Elastic Compliance Matrix: (Units=1/GPa)
#
#
# Indices 1 2 3 4 5 6 
#
# 1 0.006735 0.000457 -0.000398 0.000000 0.000000 0.000000
# 2 0.000457 0.041820 0.003623 0.000000 0.000000 0.000000
# 3 -0.000398 0.003623 0.006889 0.000000 0.000000 0.000000
# 4 0.000000 0.000000 0.000000 0.045397 0.000000 0.000000
# 5 0.000000 0.000000 0.000000 0.000000 0.021844 0.000000
# 6 0.000000 0.000000 0.000000 0.000000 0.000000 0.030549
#
#
# Mechanical properties :
#
#
# Convention : Reuss Voigt Hill
#
# Bulk Modulus (GPa) = 15.92171 35.02752 25.47461
# Shear Modulus (GPa) = 29.97454 42.30533 36.13994
#
# Velocity S-wave (km/s) = 3.54071 4.20641 3.88784
# Velocity P-wave (km/s) = 4.83474 6.18401 5.55052
#
# Compressibility (1/GPa) = 0.06280734
#
# Stress axis : x y z
#
# Youngs Moduli (GPa) = 148.46850 23.91222 145.14960
#
# Poissons Ratio (x) = -0.01092 0.05774
# Poissons Ratio (y) = -0.06779 -0.52582
# Poissons Ratio (z) = 0.05906 -0.08662
#
# Static dielectric constant tensor:
#      x y z
#    x 1.980150 0.000000 0.000000 
#    y 0.000000 1.907690 0.000000 
#    z 0.000000 0.000000 2.071300 
# 
# From -- ./inp_files/46942.got.cif
#   From: 2010.05.17/outbox.cif.g08.bks.cpg/sg22_24_cif.got.tgz:46942.got - 2010.06.03 23:40:54.
