data_PCOD9327374
_publ_section_title
;
Structure prediction by ZEFSAII (Michael W. Deem and Ramdas Pophale) SiO2 
 PCOD9327374
Probable space group: F 2 2 2
;
_chemical_formula_sum "Si O2"
_cell_formula_units_Z 104
_cell_length_a 22.609879
_cell_length_b 26.580643
_cell_length_c 8.674832
_cell_angle_alpha 90.000000
_cell_angle_beta 90.000000
_cell_angle_gamma 90.000000
_cell_volume 5213.444968
_symmetry_space_group_name_H-M "F 2 2 2"
_symmetry_group_IT_number 22
_symmetry_cell_setting 'orthorhombic'
loop_
_space_group_symop_operation_xyz
x,y,z
-x,-y,z
x,-y,-z
-x,y,-z
x,1/2+y,1/2+z
-x,1/2-y,1/2+z
x,1/2-y,1/2-z
-x,1/2+y,1/2-z
1/2+x,y,1/2+z
1/2-x,-y,1/2+z
1/2+x,-y,1/2-z
1/2-x,y,1/2-z
1/2+x,1/2+y,z
1/2-x,1/2-y,z
1/2+x,1/2-y,-z
1/2-x,1/2+y,-z
loop_
_atom_site_type_symbol
_atom_site_label
_atom_site_fract_x
_atom_site_fract_y
_atom_site_fract_z
Si Si1 0.684829 0.265998 0.571719
Si Si2 0.592156 0.449121 0.922699
Si Si3 0.407988 0.708506 0.132531
Si Si4 0.500000 0.871213 0.500000
Si Si5 0.794854 0.621138 0.985946
Si Si6 0.809878 0.974784 0.332012
Si Si7 0.832457 0.883202 0.834735
O O1 0.685254 0.250000 0.750000
O O2 0.750000 0.250000 0.507976
O O3 0.628635 0.238157 0.497479
O O4 0.680967 0.325580 0.543500
O O5 0.539369 0.408867 0.893121
O O6 0.634773 0.468540 0.784699
O O7 0.568715 0.500000 0.000000
O O8 0.631070 0.419008 0.051056
O O9 0.431481 0.750000 0.250000
O O10 0.358565 0.671751 0.200902
O O11 0.456374 0.667850 0.082933
O O12 0.827365 0.596101 0.837895
O O13 0.728950 0.626500 0.920235
O O14 0.795315 0.582550 0.123983
O O15 0.750000 0.996340 0.250000
O O16 0.819930 0.000000 0.500000
#
# Coordination Sequence:
#
# PCOD9327374 Si02
#       7
#    16  16  16   8  16  16  16
#     4  11  24  35  62  99 143 178 220 270 349 419
#     4  11  23  46  72  95 132 182 236 291 352 421
#     4  11  22  44  63  93 129 175 229 287 337 406
#     4  10  27  44  72  98 124 180 247 292 348 412
#     4  11  22  36  59  98 142 178 217 271 338 432
#     4  12  26  40  66 105 145 179 223 291 372 439
#     4  10  21  36  63  94 134 179 225 267 339 417
#
# _framework density 19.948422999999998
#
# number of rings (size 3 to 8) (size 9 to 14) (size 15 to 20)
#    0.000    1.077    4.615    1.615    8.615    0.923 
#    0.000    0.000    0.000   13.846    0.000    0.000 
#    0.000    0.000    0.000    0.000    0.000    0.000 
#
# Total GULP energy -144873.327858 kJ/mol
# GULP energy per Si atom -5572.051071 kJ/mol
# Density = 1.990302 g / cm^3
# Si number density = 19.948423 Si / 1000 Ang^3
#
#
#
# Elastic Constant Matrix: (Units=GPa)
#
#
# Indices 1 2 3 4 5 6 
#
# 1 83.2771 41.6073 46.0405 -0.0001 -0.0002 0.0001
# 2 41.6073 133.7879 56.8631 0.0001 -0.0005 0.0000
# 3 46.0405 56.8631 94.1722 -0.0001 0.0001 0.0003
# 4 -0.0001 0.0001 -0.0001 35.8320 0.0003 0.0001
# 5 -0.0002 -0.0005 0.0001 0.0003 -71.2691 -0.0005
# 6 0.0001 0.0000 0.0003 0.0001 -0.0005 32.6507
#
#
#
# Elastic Compliance Matrix: (Units=1/GPa)
#
#
# Indices 1 2 3 4 5 6 
#
# 1 0.016992 -0.002359 -0.006883 0.000000 0.000000 0.000000
# 2 -0.002359 0.010383 -0.005116 0.000000 0.000000 0.000000
# 3 -0.006883 -0.005116 0.017073 0.000000 0.000000 0.000000
# 4 0.000000 0.000000 0.000000 0.027908 0.000000 0.000000
# 5 0.000000 0.000000 0.000000 0.000000 -0.014031 0.000000
# 6 0.000000 0.000000 0.000000 0.000000 0.000000 0.030627
#
#
# Mechanical properties :
#
#
# Convention : Reuss Voigt Hill
#
# Bulk Modulus (GPa) = 63.56517 66.69544 65.13031
# Shear Modulus (GPa) = 40.67987 10.55781 25.61884
#
# Velocity S-wave (km/s) = 4.52071 2.30305 3.58754
# Velocity P-wave (km/s) = 7.69305 6.37013 7.06263
#
# Compressibility (1/GPa) = 0.01573189
#
# Stress axis : x y z
#
# Youngs Moduli (GPa) = 58.85120 96.31569 58.57219
#
# Poissons Ratio (x) = 0.22721 0.40315
# Poissons Ratio (y) = 0.13883 0.29965
# Poissons Ratio (z) = 0.40507 0.49274
#
# Static dielectric constant tensor:
#      x y z
#    x 1.782120 0.000000 0.000000 
#    y 0.000000 2.382780 0.000000 
#    z 0.000000 0.000000 1.726210 
# 
# From -- ./inp_files/14063.got.cif
#   From: 2010.05.17/outbox.cif.g08.bks.cpg/sg22_8_cif.got.tgz:14063.got - 2010.06.03 23:40:54.
