data_PCOD9327637
_publ_section_title
;
Structure prediction by ZEFSAII (Michael W. Deem and Ramdas Pophale) SiO2 
 PCOD9327637
Probable space group: F 2 2 2
;
_chemical_formula_sum "Si O2"
_cell_formula_units_Z 104
_cell_length_a 27.675560
_cell_length_b 20.499185
_cell_length_c 9.479193
_cell_angle_alpha 90.000000
_cell_angle_beta 90.000000
_cell_angle_gamma 90.000000
_cell_volume 5377.796671
_symmetry_space_group_name_H-M "F 2 2 2"
_symmetry_group_IT_number 22
_symmetry_cell_setting 'orthorhombic'
loop_
_space_group_symop_operation_xyz
x,y,z
-x,-y,z
x,-y,-z
-x,y,-z
x,1/2+y,1/2+z
-x,1/2-y,1/2+z
x,1/2-y,1/2-z
-x,1/2+y,1/2-z
1/2+x,y,1/2+z
1/2-x,-y,1/2+z
1/2+x,-y,1/2-z
1/2-x,y,1/2-z
1/2+x,1/2+y,z
1/2-x,1/2-y,z
1/2+x,1/2-y,-z
1/2-x,1/2+y,-z
loop_
_atom_site_type_symbol
_atom_site_label
_atom_site_fract_x
_atom_site_fract_y
_atom_site_fract_z
Si Si1 0.354958 0.357987 0.996205
Si Si2 0.205476 0.541117 0.355699
Si Si3 0.000000 0.149448 0.000000
Si Si4 0.383661 0.546974 0.762740
Si Si5 0.085053 0.748843 0.582129
Si Si6 0.936408 0.069128 0.181377
Si Si7 0.941806 0.395155 0.999619
O O1 0.308656 0.387477 0.917318
O O2 0.396876 0.390441 0.903412
O O3 0.363696 0.391485 0.149258
O O4 0.366719 0.281998 0.012341
O O5 0.213806 0.500000 0.500000
O O6 0.250000 0.542739 0.250000
O O7 0.161112 0.504398 0.273501
O O8 0.985277 0.102481 0.128806
O O9 0.042686 0.197259 0.048107
O O10 0.426296 0.507045 0.842165
O O11 0.408793 0.568898 0.617651
O O12 0.090812 0.750000 0.750000
O O13 0.069208 0.818688 0.523436
O O14 0.927777 0.081434 0.345581
O O15 0.000000 0.406674 0.000000
#
# Coordination Sequence:
#
# PCOD9327637 Si02
#       7
#    16  16   8  16  16  16  16
#     4   9  20  38  58  86 117 154 202 248 298 368
#     4   9  19  37  65  96 124 151 193 249 322 395
#     4  10  22  34  53  74 111 164 228 248 286 346
#     4  10  21  41  57  87 124 156 198 254 313 361
#     4  11  20  36  57  76 115 171 208 249 290 346
#     4  10  22  36  53  79 113 158 202 258 298 349
#     4  12  24  37  54  84 125 168 216 256 285 345
#
# _framework density 19.338775999999999
#
# number of rings (size 3 to 8) (size 9 to 14) (size 15 to 20)
#    0.000    1.846    2.308    2.769    2.154    5.538 
#    2.769    0.000    0.000    0.000    0.000   34.462 
#    0.000    0.000    0.000    0.000    0.000    0.000 
#
# Total GULP energy -144864.664680 kJ/mol
# GULP energy per Si atom -5571.717872 kJ/mol
# Density = 1.929476 g / cm^3
# Si number density = 19.338776 Si / 1000 Ang^3
#
#
#
# Elastic Constant Matrix: (Units=GPa)
#
#
# Indices 1 2 3 4 5 6 
#
# 1 83.5783 43.8818 55.5022 0.0000 0.0000 0.0000
# 2 43.8818 64.0908 21.1013 0.0000 0.0000 0.0000
# 3 55.5022 21.1013 111.0032 -0.0001 0.0000 0.0000
# 4 0.0000 0.0000 -0.0001 42.4504 0.0000 0.0000
# 5 0.0000 0.0000 0.0000 0.0000 40.4385 0.0000
# 6 0.0000 0.0000 0.0000 0.0000 0.0000 13.6679
#
#
#
# Elastic Compliance Matrix: (Units=1/GPa)
#
#
# Indices 1 2 3 4 5 6 
#
# 1 0.026784 -0.014859 -0.010568 0.000000 0.000000 0.000000
# 2 -0.014859 0.024888 0.002699 0.000000 0.000000 0.000000
# 3 -0.010568 0.002699 0.013780 0.000000 0.000000 0.000000
# 4 0.000000 0.000000 0.000000 0.023557 0.000000 0.000000
# 5 0.000000 0.000000 0.000000 0.000000 0.024729 0.000000
# 6 0.000000 0.000000 0.000000 0.000000 0.000000 0.073164
#
#
# Mechanical properties :
#
#
# Convention : Reuss Voigt Hill
#
# Bulk Modulus (GPa) = 50.01139 55.51589 52.76364
# Shear Modulus (GPa) = 20.91841 28.52383 24.72112
#
# Velocity S-wave (km/s) = 3.29246 3.84468 3.57924
# Velocity P-wave (km/s) = 6.35378 6.96262 6.66516
#
# Compressibility (1/GPa) = 0.01999545
#
# Stress axis : x y z
#
# Youngs Moduli (GPa) = 37.33542 40.17952 72.57110
#
# Poissons Ratio (x) = 0.59704 0.76690
# Poissons Ratio (y) = 0.55478 -0.19584
# Poissons Ratio (z) = 0.39454 -0.10843
#
# Static dielectric constant tensor:
#      x y z
#    x 1.716670 0.000000 0.000000 
#    y 0.000000 1.729650 0.000000 
#    z 0.000000 0.000000 1.703250 
# 
# From -- ./inp_files/15623.got.cif
#   From: 2010.05.17/outbox.cif.g08.bks.cpg/sg22_8_cif.got.tgz:15623.got - 2010.06.03 23:40:54.
