data_PCOD9327679
_publ_section_title
;
Structure prediction by ZEFSAII (Michael W. Deem and Ramdas Pophale) SiO2 
 PCOD9327679
Probable space group: F 2 2 2
;
_chemical_formula_sum "Si O2"
_cell_formula_units_Z 80
_cell_length_a 11.834123
_cell_length_b 14.509056
_cell_length_c 20.328583
_cell_angle_alpha 90.000000
_cell_angle_beta 90.000000
_cell_angle_gamma 90.000000
_cell_volume 3490.457409
_symmetry_space_group_name_H-M "F 2 2 2"
_symmetry_group_IT_number 22
_symmetry_cell_setting 'orthorhombic'
loop_
_space_group_symop_operation_xyz
x,y,z
-x,-y,z
x,-y,-z
-x,y,-z
x,1/2+y,1/2+z
-x,1/2-y,1/2+z
x,1/2-y,1/2-z
-x,1/2+y,1/2-z
1/2+x,y,1/2+z
1/2-x,-y,1/2+z
1/2+x,-y,1/2-z
1/2-x,y,1/2-z
1/2+x,1/2+y,z
1/2-x,1/2-y,z
1/2+x,1/2-y,-z
1/2-x,1/2+y,-z
loop_
_atom_site_type_symbol
_atom_site_label
_atom_site_fract_x
_atom_site_fract_y
_atom_site_fract_z
Si Si1 0.367098 0.277686 0.117782
Si Si2 0.728411 0.645187 0.850447
Si Si3 0.135177 0.604473 0.492731
Si Si4 0.488157 0.098337 0.866978
Si Si5 0.983226 0.143422 0.226743
O O1 0.250000 0.250000 0.152325
O O2 0.448071 0.188565 0.104469
O O3 0.435212 0.347913 0.164301
O O4 0.329012 0.329939 0.052000
O O5 0.750000 0.750000 0.830758
O O6 0.670733 0.641763 0.922041
O O7 0.853808 0.607653 0.858315
O O8 0.636722 0.605506 0.799348
O O9 0.178525 0.500000 0.500000
O O10 0.000000 0.602024 0.500000
O O11 0.532219 0.095293 0.791228
O O12 0.500000 0.000000 0.901658
O O13 0.968243 0.250000 0.250000
#
# Coordination Sequence:
#
# PCOD9327679 Si02
#       5
#    16  16  16  16  16
#     4  11  24  44  69  96 149 188 232 292 366 413
#     4  12  21  43  74  94 134 185 233 287 349 414
#     4  11  24  42  68 103 134 179 241 289 346 423
#     4  11  26  43  69 108 140 180 237 290 355 422
#     4  10  21  41  69  99 135 185 235 280 340 425
#
# _framework density 22.919630999999999
#
# number of rings (size 3 to 8) (size 9 to 14) (size 15 to 20)
#    0.000    1.000    6.000    1.200    2.800    5.200 
#    3.600    0.000    0.000    0.000    0.000    0.000 
#    0.000    0.000    0.000    0.000    0.000    0.000 
#
# Total GULP energy -111691.013492 kJ/mol
# GULP energy per Si atom -5584.550675 kJ/mol
# Density = 2.286747 g / cm^3
# Si number density = 22.919631 Si / 1000 Ang^3
#
#
#
# Elastic Constant Matrix: (Units=GPa)
#
#
# Indices 1 2 3 4 5 6 
#
# 1 94.4305 1.1358 -3.1922 0.0000 0.0000 0.0000
# 2 1.1358 84.6741 4.9983 0.0000 0.0000 0.0000
# 3 -3.1922 4.9983 93.9736 0.0000 0.0000 0.0000
# 4 0.0000 0.0000 0.0000 8.4045 0.0000 0.0000
# 5 0.0000 0.0000 0.0000 0.0000 13.6282 0.0000
# 6 0.0000 0.0000 0.0000 0.0000 0.0000 21.0003
#
#
#
# Elastic Compliance Matrix: (Units=1/GPa)
#
#
# Indices 1 2 3 4 5 6 
#
# 1 0.010604 -0.000164 0.000369 0.000000 0.000000 0.000000
# 2 -0.000164 0.011850 -0.000636 0.000000 0.000000 0.000000
# 3 0.000369 -0.000636 0.010688 0.000000 0.000000 0.000000
# 4 0.000000 0.000000 0.000000 0.118984 0.000000 0.000000
# 5 0.000000 0.000000 0.000000 0.000000 0.073377 0.000000
# 6 0.000000 0.000000 0.000000 0.000000 0.000000 0.047618
#
#
# Mechanical properties :
#
#
# Convention : Reuss Voigt Hill
#
# Bulk Modulus (GPa) = 30.97916 30.99578 30.98747
# Shear Modulus (GPa) = 17.55972 26.61569 22.08770
#
# Velocity S-wave (km/s) = 2.77093 3.41143 3.10772
# Velocity P-wave (km/s) = 4.87680 5.39167 5.14069
#
# Compressibility (1/GPa) = 0.03227976
#
# Stress axis : x y z
#
# Youngs Moduli (GPa) = 94.30188 84.39019 93.56606
#
# Poissons Ratio (x) = 0.01384 -0.03452
# Poissons Ratio (y) = 0.01547 0.05949
# Poissons Ratio (z) = -0.03479 0.05366
#
# Static dielectric constant tensor:
#      x y z
#    x 1.911900 0.000000 0.000000 
#    y 0.000000 1.929090 0.000000 
#    z 0.000000 0.000000 1.927140 
# 
# From -- ./inp_files/47958.got.cif
#   From: 2010.05.17/outbox.cif.g08.bks.cpg/sg22_24_cif.got.tgz:47958.got - 2010.06.03 23:40:54.
