data_PCOD9327012
_publ_section_title
;
Structure prediction by ZEFSAII (Michael W. Deem and Ramdas Pophale) SiO2 
 PCOD9327012
Probable space group: F 2 2 2
;
_chemical_formula_sum "Si O2"
_cell_formula_units_Z 72
_cell_length_a 13.997074
_cell_length_b 8.791819
_cell_length_c 25.276071
_cell_angle_alpha 90.000000
_cell_angle_beta 90.000000
_cell_angle_gamma 90.000000
_cell_volume 3110.466754
_symmetry_space_group_name_H-M "F 2 2 2"
_symmetry_group_IT_number 22
_symmetry_cell_setting 'orthorhombic'
loop_
_space_group_symop_operation_xyz
x,y,z
-x,-y,z
x,-y,-z
-x,y,-z
x,1/2+y,1/2+z
-x,1/2-y,1/2+z
x,1/2-y,1/2-z
-x,1/2+y,1/2-z
1/2+x,y,1/2+z
1/2-x,-y,1/2+z
1/2+x,-y,1/2-z
1/2-x,y,1/2-z
1/2+x,1/2+y,z
1/2-x,1/2-y,z
1/2+x,1/2-y,-z
1/2-x,1/2+y,-z
loop_
_atom_site_type_symbol
_atom_site_label
_atom_site_fract_x
_atom_site_fract_y
_atom_site_fract_z
Si Si1 0.000000 0.500000 0.915248
Si Si2 0.831611 0.524743 0.337314
Si Si3 0.128323 0.617252 0.822381
Si Si4 0.500000 0.000000 0.730728
Si Si5 0.188565 0.400871 0.453762
Si Si6 0.500000 0.250986 0.500000
O O1 0.082348 0.555998 0.876176
O O2 0.967580 0.637545 0.952682
O O3 0.855666 0.704128 0.330412
O O4 0.725156 0.520755 0.313791
O O5 0.916762 0.435938 0.307983
O O6 0.826361 0.503009 0.400323
O O7 0.059503 0.598338 0.772674
O O8 0.236375 0.500000 0.500000
O O9 0.250000 0.250000 0.441764
O O10 0.087335 0.345136 0.476942
#
# Coordination Sequence:
#
# PCOD9327012 Si02
#       6
#     8  16  16   8  16   8
#     4  10  20  37  72 102 133 186 236 282 342 424
#     4  11  22  43  67  96 135 179 228 291 352 423
#     4  10  21  43  66  95 128 181 235 282 350 419
#     4  11  24  35  69  95 125 168 239 290 348 406
#     4  12  27  44  71 104 143 187 235 288 358 425
#     4  11  23  40  66 100 146 182 232 286 344 414
#
# _framework density 23.147649999999999
#
# number of rings (size 3 to 8) (size 9 to 14) (size 15 to 20)
#    0.000    1.111    4.444    1.667    9.333    1.778 
#    0.000    0.000    0.000   10.667    0.000    0.000 
#    0.000    0.000    0.000    0.000    0.000    0.000 
#
# Total GULP energy -100639.525726 kJ/mol
# GULP energy per Si atom -5591.084763 kJ/mol
# Density = 2.309497 g / cm^3
# Si number density = 23.147650 Si / 1000 Ang^3
#
#
#
# Elastic Constant Matrix: (Units=GPa)
#
#
# Indices 1 2 3 4 5 6 
#
# 1 130.0738 13.6352 42.7531 0.0000 0.0000 0.0000
# 2 13.6352 22.7920 25.0451 0.0000 0.0000 0.0000
# 3 42.7531 25.0451 175.4252 0.0000 0.0000 0.0000
# 4 0.0000 0.0000 0.0000 34.2168 0.0000 0.0000
# 5 0.0000 0.0000 0.0000 0.0000 23.4721 0.0000
# 6 0.0000 0.0000 0.0000 0.0000 0.0000 25.0437
#
#
#
# Elastic Compliance Matrix: (Units=1/GPa)
#
#
# Indices 1 2 3 4 5 6 
#
# 1 0.008569 -0.003358 -0.001609 0.000000 0.000000 0.000000
# 2 -0.003358 0.053355 -0.006799 0.000000 0.000000 0.000000
# 3 -0.001609 -0.006799 0.007063 0.000000 0.000000 0.000000
# 4 0.000000 0.000000 0.000000 0.029225 0.000000 0.000000
# 5 0.000000 0.000000 0.000000 0.000000 0.042604 0.000000
# 6 0.000000 0.000000 0.000000 0.000000 0.000000 0.039930
#
#
# Mechanical properties :
#
#
# Convention : Reuss Voigt Hill
#
# Bulk Modulus (GPa) = 21.99979 54.57310 38.28644
# Shear Modulus (GPa) = 22.78623 33.00369 27.89496
#
# Velocity S-wave (km/s) = 3.14090 3.78006 3.47520
# Velocity P-wave (km/s) = 4.76218 6.53292 5.71653
#
# Compressibility (1/GPa) = 0.04545499
#
# Stress axis : x y z
#
# Youngs Moduli (GPa) = 116.70256 18.74227 141.57891
#
# Poissons Ratio (x) = 0.06294 0.22778
# Poissons Ratio (y) = 0.39193 0.96259
# Poissons Ratio (z) = 0.18776 0.12743
#
# Static dielectric constant tensor:
#      x y z
#    x 1.908930 0.000000 0.000000 
#    y 0.000000 1.893150 0.000000 
#    z 0.000000 0.000000 1.884910 
# 
# From -- ./inp_files/53054.got.cif
#   From: 2010.05.17/outbox.cif.g08.bks.cpg/sg22_27_cif.got.tgz:53054.got - 2010.06.03 23:40:54.
