data_PCOD9327889
_publ_section_title
;
Structure prediction by ZEFSAII (Michael W. Deem and Ramdas Pophale) SiO2 
 PCOD9327889
Probable space group: F 2 2 2
;
_chemical_formula_sum "Si O2"
_cell_formula_units_Z 44
_cell_length_a 15.522648
_cell_length_b 11.610801
_cell_length_c 10.295579
_cell_angle_alpha 90.000000
_cell_angle_beta 90.000000
_cell_angle_gamma 90.000000
_cell_volume 1855.576084
_symmetry_space_group_name_H-M "F 2 2 2"
_symmetry_group_IT_number 22
_symmetry_cell_setting 'orthorhombic'
loop_
_space_group_symop_operation_xyz
x,y,z
-x,-y,z
x,-y,-z
-x,y,-z
x,1/2+y,1/2+z
-x,1/2-y,1/2+z
x,1/2-y,1/2-z
-x,1/2+y,1/2-z
1/2+x,y,1/2+z
1/2-x,-y,1/2+z
1/2+x,-y,1/2-z
1/2-x,y,1/2-z
1/2+x,1/2+y,z
1/2-x,1/2-y,z
1/2+x,1/2-y,-z
1/2-x,1/2+y,-z
loop_
_atom_site_type_symbol
_atom_site_label
_atom_site_fract_x
_atom_site_fract_y
_atom_site_fract_z
Si Si1 0.596696 0.446069 0.125516
Si Si2 0.250000 0.250000 0.250000
Si Si3 0.522284 0.250000 0.250000
Si Si4 0.880524 0.079308 0.627997
O O1 0.500000 0.500000 0.124072
O O2 0.579877 0.311601 0.140348
O O3 0.637653 0.489142 0.256746
O O4 0.641000 0.500000 0.000000
O O5 0.193502 0.173114 0.348619
O O6 0.464441 0.155337 0.173233
O O7 0.888678 0.000000 0.500000
#
# Coordination Sequence:
#
# PCOD9327889 Si02
#       4
#    16   4   8  16
#     4   9  19  34  57  91 124 151 185 235 303 372
#     4  10  24  44  60  80 124 166 208 268 296 324
#     4   9  20  37  62  93 128 153 184 248 312 365
#     4  10  22  39  62  87 116 161 209 247 297 359
#
# _framework density 23.712312000000001
#
# number of rings (size 3 to 8) (size 9 to 14) (size 15 to 20)
#    0.000    2.545    0.000    0.000    0.000   22.545 
#    0.000    5.455    0.000    2.182    0.000    0.000 
#    0.000    0.000    0.000    0.000    0.000    0.000 
#
# Total GULP energy -61308.331483 kJ/mol
# GULP energy per Si atom -5573.484680 kJ/mol
# Density = 2.365834 g / cm^3
# Si number density = 23.712312 Si / 1000 Ang^3
#
#
#
# Elastic Constant Matrix: (Units=GPa)
#
#
# Indices 1 2 3 4 5 6 
#
# 1 41.5050 41.1866 28.5699 0.0000 0.0000 0.0000
# 2 41.1866 158.8387 94.5724 0.0000 0.0000 0.0000
# 3 28.5699 94.5724 228.1120 0.0000 0.0000 0.0000
# 4 0.0000 0.0000 0.0000 38.4692 0.0000 0.0000
# 5 0.0000 0.0000 0.0000 0.0000 12.7772 0.0000
# 6 0.0000 0.0000 0.0000 0.0000 0.0000 31.3935
#
#
#
# Elastic Compliance Matrix: (Units=1/GPa)
#
#
# Indices 1 2 3 4 5 6 
#
# 1 0.032541 -0.007981 -0.000767 0.000000 0.000000 0.000000
# 2 -0.007981 0.010317 -0.003278 0.000000 0.000000 0.000000
# 3 -0.000767 -0.003278 0.005839 0.000000 0.000000 0.000000
# 4 0.000000 0.000000 0.000000 0.025995 0.000000 0.000000
# 5 0.000000 0.000000 0.000000 0.000000 0.078265 0.000000
# 6 0.000000 0.000000 0.000000 0.000000 0.000000 0.031854
#
#
# Mechanical properties :
#
#
# Convention : Reuss Voigt Hill
#
# Bulk Modulus (GPa) = 40.57538 84.12371 62.34955
# Shear Modulus (GPa) = 23.03336 34.13643 28.58489
#
# Velocity S-wave (km/s) = 3.12006 3.79833 3.47578
# Velocity P-wave (km/s) = 5.48893 7.40204 6.51608
#
# Compressibility (1/GPa) = 0.02464549
#
# Stress axis : x y z
#
# Youngs Moduli (GPa) = 30.73008 96.93000 171.27229
#
# Poissons Ratio (x) = 0.77364 0.13130
# Poissons Ratio (y) = 0.24527 0.56135
# Poissons Ratio (z) = 0.02356 0.31769
#
# Static dielectric constant tensor:
#      x y z
#    x 1.989140 0.000000 0.000000 
#    y 0.000000 1.946620 0.000000 
#    z 0.000000 0.000000 1.975500 
# 
# From -- ./inp_files/16708.got.cif
#   From: 2010.05.17/outbox.cif.g08.bks.cpg/sg22_9_cif.got.tgz:16708.got - 2010.06.03 23:40:54.
