data_PCOD9327554
_publ_section_title
;
Structure prediction by ZEFSAII (Michael W. Deem and Ramdas Pophale) SiO2 
 PCOD9327554
Probable space group: F 2 2 2
;
_chemical_formula_sum "Si O2"
_cell_formula_units_Z 72
_cell_length_a 8.597860
_cell_length_b 15.897892
_cell_length_c 24.886776
_cell_angle_alpha 90.000000
_cell_angle_beta 90.000000
_cell_angle_gamma 90.000000
_cell_volume 3401.719898
_symmetry_space_group_name_H-M "F 2 2 2"
_symmetry_group_IT_number 22
_symmetry_cell_setting 'orthorhombic'
loop_
_space_group_symop_operation_xyz
x,y,z
-x,-y,z
x,-y,-z
-x,y,-z
x,1/2+y,1/2+z
-x,1/2-y,1/2+z
x,1/2-y,1/2-z
-x,1/2+y,1/2-z
1/2+x,y,1/2+z
1/2-x,-y,1/2+z
1/2+x,-y,1/2-z
1/2-x,y,1/2-z
1/2+x,1/2+y,z
1/2-x,1/2-y,z
1/2+x,1/2-y,-z
1/2-x,1/2+y,-z
loop_
_atom_site_type_symbol
_atom_site_label
_atom_site_fract_x
_atom_site_fract_y
_atom_site_fract_z
Si Si1 0.500000 0.814881 0.500000
Si Si2 0.500146 0.250000 0.750000
Si Si3 0.164747 0.095137 0.091578
Si Si4 0.250000 0.750000 0.842537
Si Si5 0.750000 0.250000 0.419400
Si Si6 0.250000 0.895401 0.250000
Si Si7 0.313216 0.576811 0.132974
O O1 0.380364 0.873809 0.532436
O O2 0.400710 0.761931 0.457330
O O3 0.604437 0.257132 0.802879
O O4 0.395623 0.167341 0.754606
O O5 0.261094 0.167862 0.120479
O O6 0.997729 0.089597 0.122562
O O7 0.234517 0.002364 0.096480
O O8 0.760714 0.165944 0.383661
O O9 0.274006 0.944520 0.305416
#
# Coordination Sequence:
#
# PCOD9327554 Si02
#       7
#     8   8  16   8   8   8  16
#     4  10  22  41  68  91 124 168 216 267 326 375
#     4  10  22  34  66  92 130 170 210 260 316 386
#     4  10  22  41  63  95 125 166 215 267 314 378
#     4  11  21  40  59  96 131 168 209 265 324 368
#     4  10  21  39  67  94 121 165 213 268 322 378
#     4  11  20  40  62  95 126 176 208 253 314 397
#     4  10  22  39  66  92 125 165 219 255 315 383
#
# _framework density 21.165763999999999
#
# number of rings (size 3 to 8) (size 9 to 14) (size 15 to 20)
#    0.000    1.778    2.222    2.000    3.111    8.889 
#    0.000    0.000    0.000    8.000    0.000    0.000 
#    0.000    0.000    0.000    0.000    0.000    0.000 
#
# Total GULP energy -100586.374935 kJ/mol
# GULP energy per Si atom -5588.131941 kJ/mol
# Density = 2.111759 g / cm^3
# Si number density = 21.165764 Si / 1000 Ang^3
#
#
#
# Elastic Constant Matrix: (Units=GPa)
#
#
# Indices 1 2 3 4 5 6 
#
# 1 29.5472 6.5073 4.8012 0.0000 0.0000 0.0000
# 2 6.5073 130.7202 29.5194 0.0000 0.0000 0.0000
# 3 4.8012 29.5194 94.8787 0.0000 0.0000 0.0000
# 4 0.0000 0.0000 0.0000 15.7336 0.0000 0.0000
# 5 0.0000 0.0000 0.0000 0.0000 -1.6582 0.0000
# 6 0.0000 0.0000 0.0000 0.0000 0.0000 55.3768
#
#
#
# Elastic Compliance Matrix: (Units=1/GPa)
#
#
# Indices 1 2 3 4 5 6 
#
# 1 0.034367 -0.001418 -0.001298 0.000000 0.000000 0.000000
# 2 -0.001418 0.008287 -0.002506 0.000000 0.000000 0.000000
# 3 -0.001298 -0.002506 0.011385 0.000000 0.000000 0.000000
# 4 0.000000 0.000000 0.000000 0.063558 0.000000 0.000000
# 5 0.000000 0.000000 0.000000 0.000000 -0.603050 0.000000
# 6 0.000000 0.000000 0.000000 0.000000 0.000000 0.018058
#
#
# Mechanical properties :
#
#
# Convention : Reuss Voigt Hill
#
# Bulk Modulus (GPa) = 22.93854 37.42245 30.18049
# Shear Modulus (GPa) = -11.30152 28.17832 8.43840
#
# Velocity S-wave (km/s) = -2.31325 3.65268 1.99887
# Velocity P-wave (km/s) = 1.93035 5.95890 4.42915
#
# Compressibility (1/GPa) = 0.04359476
#
# Stress axis : x y z
#
# Youngs Moduli (GPa) = 29.09746 120.67818 87.83277
#
# Poissons Ratio (x) = 0.17109 0.11401
# Poissons Ratio (y) = 0.04125 0.22015
# Poissons Ratio (z) = 0.03777 0.30247
#
# Static dielectric constant tensor:
#      x y z
#    x 1.777630 0.000000 0.000000 
#    y 0.000000 1.769820 0.000000 
#    z 0.000000 0.000000 1.739360 
# 
# From -- ./inp_files/10199.got.cif
#   From: 2010.05.17/outbox.cif.g08.bks.cpg/sg22_6_cif.got.tgz:10199.got - 2010.06.03 23:40:54.
