data_PCOD9327634
_publ_section_title
;
Structure prediction by ZEFSAII (Michael W. Deem and Ramdas Pophale) SiO2 
 PCOD9327634
Probable space group: F 2 2 2
;
_chemical_formula_sum "Si O2"
_cell_formula_units_Z 96
_cell_length_a 9.054483
_cell_length_b 26.483840
_cell_length_c 18.844860
_cell_angle_alpha 90.000000
_cell_angle_beta 90.000000
_cell_angle_gamma 90.000000
_cell_volume 4518.949921
_symmetry_space_group_name_H-M "F 2 2 2"
_symmetry_group_IT_number 22
_symmetry_cell_setting 'orthorhombic'
loop_
_space_group_symop_operation_xyz
x,y,z
-x,-y,z
x,-y,-z
-x,y,-z
x,1/2+y,1/2+z
-x,1/2-y,1/2+z
x,1/2-y,1/2-z
-x,1/2+y,1/2-z
1/2+x,y,1/2+z
1/2-x,-y,1/2+z
1/2+x,-y,1/2-z
1/2-x,y,1/2-z
1/2+x,1/2+y,z
1/2-x,1/2-y,z
1/2+x,1/2-y,-z
1/2-x,1/2+y,-z
loop_
_atom_site_type_symbol
_atom_site_label
_atom_site_fract_x
_atom_site_fract_y
_atom_site_fract_z
Si Si1 0.093369 0.451603 0.211199
Si Si2 0.606419 0.277135 0.563744
Si Si3 0.669336 0.444621 0.027999
Si Si4 0.945100 0.892382 0.837868
Si Si5 0.402454 0.775907 0.325883
Si Si6 0.270161 0.117733 0.094410
O O1 0.250000 0.463699 0.250000
O O2 0.991889 0.420233 0.265988
O O3 0.137084 0.419837 0.142846
O O4 0.000000 0.500000 0.191241
O O5 0.500000 0.290607 0.500000
O O6 0.750000 0.250000 0.533275
O O7 0.473354 0.239724 0.381827
O O8 0.660191 0.327599 0.601488
O O9 0.653322 0.428520 0.110598
O O10 0.721214 0.500000 0.000000
O O11 0.500000 0.442788 0.000000
O O12 0.760974 0.402376 0.985943
O O13 0.102075 0.883126 0.877343
O O14 0.883120 0.836394 0.823258
O O15 0.438524 0.750000 0.250000
O O16 0.250000 0.750000 0.348728
#
# Coordination Sequence:
#
# PCOD9327634 Si02
#       6
#    16  16  16  16  16  16
#     4  10  23  43  70  99 137 180 235 285 353 423
#     4  12  26  43  70  98 139 180 228 282 350 419
#     4   9  20  36  65  95 126 170 231 276 330 406
#     4  10  21  40  71  95 132 184 230 279 344 425
#     4  11  25  45  67 101 138 175 234 289 345 421
#     4  10  22  43  62  99 131 180 226 281 345 419
#
# _framework density 21.243872
#
# number of rings (size 3 to 8) (size 9 to 14) (size 15 to 20)
#    0.000    1.667    1.667    1.500   11.667    0.333 
#    9.000    0.000    0.000    0.000    0.000    0.000 
#    0.000    0.000    0.000    0.000    0.000    0.000 
#
# Total GULP energy -134080.748430 kJ/mol
# GULP energy per Si atom -5586.697851 kJ/mol
# Density = 2.119552 g / cm^3
# Si number density = 21.243872 Si / 1000 Ang^3
#
#
#
# Elastic Constant Matrix: (Units=GPa)
#
#
# Indices 1 2 3 4 5 6 
#
# 1 51.1852 38.3258 24.0953 0.0000 0.0000 0.0000
# 2 38.3258 125.6224 14.8105 0.0000 0.0000 0.0000
# 3 24.0953 14.8105 73.0945 0.0000 0.0000 0.0000
# 4 0.0000 0.0000 0.0000 0.3369 0.0000 0.0000
# 5 0.0000 0.0000 0.0000 0.0000 20.3749 0.0000
# 6 0.0000 0.0000 0.0000 0.0000 0.0000 -7.9424
#
#
#
# Elastic Compliance Matrix: (Units=1/GPa)
#
#
# Indices 1 2 3 4 5 6 
#
# 1 0.029307 -0.007993 -0.008041 0.000000 0.000000 0.000000
# 2 -0.007993 0.010335 0.000541 0.000000 0.000000 0.000000
# 3 -0.008041 0.000541 0.016222 0.000000 0.000000 0.000000
# 4 0.000000 0.000000 0.000000 2.968397 0.000000 0.000000
# 5 0.000000 0.000000 0.000000 0.000000 0.049080 0.000000
# 6 0.000000 0.000000 0.000000 0.000000 0.000000 -0.125906
#
#
# Mechanical properties :
#
#
# Convention : Reuss Voigt Hill
#
# Bulk Modulus (GPa) = 40.19773 44.92947 42.56360
# Shear Modulus (GPa) = 1.67408 14.06525 7.86966
#
# Velocity S-wave (km/s) = 0.88867 2.57589 1.92678
# Velocity P-wave (km/s) = 4.47394 5.48108 5.00292
#
# Compressibility (1/GPa) = 0.02487703
#
# Stress axis : x y z
#
# Youngs Moduli (GPa) = 34.12100 96.75626 61.64402
#
# Poissons Ratio (x) = 0.77340 0.49571
# Poissons Ratio (y) = 0.27274 -0.03334
# Poissons Ratio (z) = 0.27438 -0.05233
#
# Static dielectric constant tensor:
#      x y z
#    x 1.774420 0.000000 0.000000 
#    y 0.000000 1.729310 0.000000 
#    z 0.000000 0.000000 1.878150 
# 
# From -- ./inp_files/36243.got.cif
#   From: 2010.05.17/outbox.cif.g08.bks.cpg/sg22_19_cif.got.tgz:36243.got - 2010.06.03 23:40:54.
