data_PCOD9327580
_publ_section_title
;
Structure prediction by ZEFSAII (Michael W. Deem and Ramdas Pophale) SiO2 
 PCOD9327580
Probable space group: F 2 2 2
;
_chemical_formula_sum "Si O2"
_cell_formula_units_Z 64
_cell_length_a 14.075776
_cell_length_b 33.558243
_cell_length_c 5.395128
_cell_angle_alpha 90.000000
_cell_angle_beta 90.000000
_cell_angle_gamma 90.000000
_cell_volume 2548.433552
_symmetry_space_group_name_H-M "F 2 2 2"
_symmetry_group_IT_number 22
_symmetry_cell_setting 'orthorhombic'
loop_
_space_group_symop_operation_xyz
x,y,z
-x,-y,z
x,-y,-z
-x,y,-z
x,1/2+y,1/2+z
-x,1/2-y,1/2+z
x,1/2-y,1/2-z
-x,1/2+y,1/2-z
1/2+x,y,1/2+z
1/2-x,-y,1/2+z
1/2+x,-y,1/2-z
1/2-x,y,1/2-z
1/2+x,1/2+y,z
1/2-x,1/2-y,z
1/2+x,1/2-y,-z
1/2-x,1/2+y,-z
loop_
_atom_site_type_symbol
_atom_site_label
_atom_site_fract_x
_atom_site_fract_y
_atom_site_fract_z
Si Si1 0.363939 0.105447 0.539485
Si Si2 0.114152 0.774594 0.503123
Si Si3 0.607416 0.017234 0.258445
Si Si4 0.150304 0.636340 0.975815
O O1 0.388787 0.063655 0.671852
O O2 0.250826 0.113245 0.505954
O O3 0.398297 0.114961 0.260934
O O4 0.397785 0.134992 0.753847
O O5 0.133812 0.750000 0.750000
O O6 0.165141 0.816787 0.549331
O O7 0.000000 0.782456 0.500000
O O8 0.136869 0.750000 0.250000
O O9 0.500000 0.000000 0.258619
O O10 0.657201 0.000000 0.500000
O O11 0.644567 0.000000 0.000000
#
# Coordination Sequence:
#
# PCOD9327580 Si02
#       4
#    16  16  16  16
#     4  10  21  40  62  89 133 159 215 265 324 393
#     4  10  21  40  64  92 131 172 217 266 317 388
#     4  10  21  40  63  91 126 166 218 270 328 389
#     4  10  21  40  62  95 127 171 209 264 331 382
#
# _framework density 25.113468000000001
#
# number of rings (size 3 to 8) (size 9 to 14) (size 15 to 20)
#    0.000    2.000    0.000    3.000    0.000    0.000 
#   13.500   25.000    0.000    0.000    0.000    0.000 
#    0.000    0.000    0.000    0.000    0.000    0.000 
#
# Total GULP energy -89197.218102 kJ/mol
# GULP energy per Si atom -5574.826131 kJ/mol
# Density = 2.505631 g / cm^3
# Si number density = 25.113468 Si / 1000 Ang^3
#
#
#
# Elastic Constant Matrix: (Units=GPa)
#
#
# Indices 1 2 3 4 5 6 
#
# 1 152.1794 23.6969 18.4165 -0.0002 0.0003 -0.0019
# 2 23.6969 185.4583 71.0110 0.0000 0.0003 -0.0005
# 3 18.4165 71.0110 301.0593 -0.0008 0.0035 -0.0037
# 4 -0.0002 0.0000 -0.0008 54.9786 -0.0003 0.0009
# 5 0.0003 0.0003 0.0035 -0.0003 -61.2582 0.0024
# 6 -0.0019 -0.0005 -0.0037 0.0009 0.0024 -209.7420
#
#
#
# Elastic Compliance Matrix: (Units=1/GPa)
#
#
# Indices 1 2 3 4 5 6 
#
# 1 0.006719 -0.000771 -0.000229 0.000000 0.000000 0.000000
# 2 -0.000771 0.006016 -0.001372 0.000000 0.000000 0.000000
# 3 -0.000229 -0.001372 0.003659 0.000000 0.000000 0.000000
# 4 0.000000 0.000000 0.000000 0.018189 0.000000 0.000000
# 5 0.000000 0.000000 0.000000 0.000000 -0.016324 0.000000
# 6 0.000000 0.000000 0.000000 0.000000 0.000000 -0.004768
#
#
# Mechanical properties :
#
#
# Convention : Reuss Voigt Hill
#
# Bulk Modulus (GPa) = 85.83393 96.10508 90.96950
# Shear Modulus (GPa) = 226.06345 -8.16614 108.94866
#
# Velocity S-wave (km/s) = 9.49801 -1.80520 6.59369
# Velocity P-wave (km/s) = 12.43124 5.83150 9.70933
#
# Compressibility (1/GPa) = 0.01165040
#
# Stress axis : x y z
#
# Youngs Moduli (GPa) = 148.83278 166.22936 273.28433
#
# Poissons Ratio (x) = 0.12812 0.06264
# Poissons Ratio (y) = 0.11471 0.37489
# Poissons Ratio (z) = 0.03412 0.22803
#
# Static dielectric constant tensor:
#      x y z
#    x 1.907240 0.000000 0.000000 
#    y 0.000000 2.326440 0.000000 
#    z 0.000000 0.000000 2.198250 
# 
# From -- ./inp_files/2869.got.cif
#   From: 2010.05.17/outbox.cif.g08.bks.cpg/sg22_2_cif.got.tgz:2869.got - 2010.06.03 23:40:54.
