data_PCOD9327936
_publ_section_title
;
Structure prediction by ZEFSAII (Michael W. Deem and Ramdas Pophale) SiO2 
 PCOD9327936
Probable space group: F 2 2 2
;
_chemical_formula_sum "Si O2"
_cell_formula_units_Z 84
_cell_length_a 25.836468
_cell_length_b 19.946154
_cell_length_c 8.138963
_cell_angle_alpha 90.000000
_cell_angle_beta 90.000000
_cell_angle_gamma 90.000000
_cell_volume 4194.318294
_symmetry_space_group_name_H-M "F 2 2 2"
_symmetry_group_IT_number 22
_symmetry_cell_setting 'orthorhombic'
loop_
_space_group_symop_operation_xyz
x,y,z
-x,-y,z
x,-y,-z
-x,y,-z
x,1/2+y,1/2+z
-x,1/2-y,1/2+z
x,1/2-y,1/2-z
-x,1/2+y,1/2-z
1/2+x,y,1/2+z
1/2-x,-y,1/2+z
1/2+x,-y,1/2-z
1/2-x,y,1/2-z
1/2+x,1/2+y,z
1/2-x,1/2-y,z
1/2+x,1/2-y,-z
1/2-x,1/2+y,-z
loop_
_atom_site_type_symbol
_atom_site_label
_atom_site_fract_x
_atom_site_fract_y
_atom_site_fract_z
Si Si1 0.806904 0.581156 0.187406
Si Si2 0.691698 0.431366 0.299663
Si Si3 0.000000 0.000000 0.500000
Si Si4 0.505815 0.901114 0.699550
Si Si5 0.609170 0.323353 0.179797
Si Si6 0.601290 0.173180 0.704782
O O1 0.750000 0.600636 0.250000
O O2 0.819384 0.507371 0.263301
O O3 0.849748 0.637005 0.215987
O O4 0.806366 0.569312 0.994756
O O5 0.750000 0.412702 0.250000
O O6 0.648369 0.379226 0.245954
O O7 0.022279 0.050081 0.645613
O O8 0.500000 0.922514 0.500000
O O9 0.549751 0.844745 0.707563
O O10 0.449473 0.871429 0.739255
O O11 0.619892 0.250000 0.250000
O O12 0.614375 0.324911 0.985910
O O13 0.591916 0.250000 0.750000
#
# Coordination Sequence:
#
# PCOD9327936 Si02
#       6
#    16  16   4  16  16  16
#     4  10  22  40  64  93 126 165 212 264 326 384
#     4  10  22  40  64  93 126 165 212 264 326 384
#     4  12  26  40  76  94 136 172 220 268 324 388
#     4  10  26  44  65 102 135 170 216 267 325 386
#     4  11  24  42  65  92 130 170 215 266 319 387
#     4  11  24  42  65  92 130 170 215 266 319 387
#
# _framework density 20.027092
#
# number of rings (size 3 to 8) (size 9 to 14) (size 15 to 20)
#    0.000    1.524    0.000    3.143    8.000    3.048 
#    0.000    3.810    0.000    0.000    0.000    0.000 
#    0.000    0.000    0.000    0.000    0.000    0.000 
#
# Total GULP energy -116956.316029 kJ/mol
# GULP energy per Si atom -5569.348382 kJ/mol
# Density = 1.998151 g / cm^3
# Si number density = 20.027092 Si / 1000 Ang^3
#
#
#
# Elastic Constant Matrix: (Units=GPa)
#
#
# Indices 1 2 3 4 5 6 
#
# 1 68.9877 31.0857 10.6369 -0.0001 0.0000 0.0000
# 2 31.0857 66.4815 13.3269 0.0003 0.0000 -0.0001
# 3 10.6369 13.3269 83.9308 0.0008 -0.0002 -0.0001
# 4 -0.0001 0.0003 0.0008 17.9486 -0.0001 -0.0001
# 5 0.0000 0.0000 -0.0002 -0.0001 26.4435 0.0000
# 6 0.0000 -0.0001 -0.0001 -0.0001 0.0000 16.1391
#
#
#
# Elastic Compliance Matrix: (Units=1/GPa)
#
#
# Indices 1 2 3 4 5 6 
#
# 1 0.018446 -0.008424 -0.001000 0.000000 0.000000 0.000000
# 2 -0.008424 0.019384 -0.002010 0.000000 0.000000 0.000000
# 3 -0.001000 -0.002010 0.012360 -0.000001 0.000000 0.000000
# 4 0.000000 0.000000 -0.000001 0.055715 0.000000 0.000000
# 5 0.000000 0.000000 0.000000 0.000000 0.037816 0.000000
# 6 0.000000 0.000000 0.000000 0.000000 0.000000 0.061961
#
#
# Mechanical properties :
#
#
# Convention : Reuss Voigt Hill
#
# Bulk Modulus (GPa) = 36.60227 36.61098 36.60663
# Shear Modulus (GPa) = 21.03859 23.06294 22.05076
#
# Velocity S-wave (km/s) = 3.24467 3.39719 3.32180
# Velocity P-wave (km/s) = 5.68799 5.80588 5.74724
#
# Compressibility (1/GPa) = 0.02732071
#
# Stress axis : x y z
#
# Youngs Moduli (GPa) = 54.21369 51.58936 80.90290
#
# Poissons Ratio (x) = 0.43461 0.08090
# Poissons Ratio (y) = 0.45672 0.16263
# Poissons Ratio (z) = 0.05421 0.10370
#
# Static dielectric constant tensor:
#      x y z
#    x 1.710860 0.000000 0.000000 
#    y 0.000000 1.631750 0.000000 
#    z 0.000000 0.000000 1.738190 
# 
# From -- ./inp_files/13673.got.cif
#   From: 2010.05.17/outbox.cif.g08.bks.cpg/sg22_7_cif.got.tgz:13673.got - 2010.06.03 23:40:54.
