data_PCOD9327271
_publ_section_title
;
Structure prediction by ZEFSAII (Michael W. Deem and Ramdas Pophale) SiO2 
 PCOD9327271
Probable space group: F 2 2 2
;
_chemical_formula_sum "Si O2"
_cell_formula_units_Z 56
_cell_length_a 13.689109
_cell_length_b 22.349861
_cell_length_c 9.152808
_cell_angle_alpha 90.000000
_cell_angle_beta 90.000000
_cell_angle_gamma 90.000000
_cell_volume 2800.298709
_symmetry_space_group_name_H-M "F 2 2 2"
_symmetry_group_IT_number 22
_symmetry_cell_setting 'orthorhombic'
loop_
_space_group_symop_operation_xyz
x,y,z
-x,-y,z
x,-y,-z
-x,y,-z
x,1/2+y,1/2+z
-x,1/2-y,1/2+z
x,1/2-y,1/2-z
-x,1/2+y,1/2-z
1/2+x,y,1/2+z
1/2-x,-y,1/2+z
1/2+x,-y,1/2-z
1/2-x,y,1/2-z
1/2+x,1/2+y,z
1/2-x,1/2-y,z
1/2+x,1/2-y,-z
1/2-x,1/2+y,-z
loop_
_atom_site_type_symbol
_atom_site_label
_atom_site_fract_x
_atom_site_fract_y
_atom_site_fract_z
Si Si1 0.750000 0.750000 0.750000
Si Si2 0.250000 0.250000 0.250000
Si Si3 0.000000 0.500000 0.736553
Si Si4 0.500000 0.413218 0.500000
Si Si5 0.691763 0.336453 0.505096
Si Si6 0.806624 0.554088 0.402297
O O1 0.694203 0.704586 0.639819
O O2 0.308320 0.292237 0.358023
O O3 0.969616 0.550004 0.854924
O O4 0.915359 0.468390 0.641332
O O5 0.595641 0.374957 0.526239
O O6 0.784144 0.382828 0.517005
O O7 0.764630 0.500000 0.500000
O O8 0.750000 0.558274 0.250000
#
# Coordination Sequence:
#
# PCOD9327271 Si02
#       6
#     4   4   8   8  16  16
#     4  10  28  44  70  94 128 188 240 276 338 390
#     4  10  20  44  66  86 128 180 228 268 346 382
#     4  11  23  40  62 108 134 180 212 272 360 424
#     4  11  22  40  68  98 140 170 227 280 340 412
#     4  11  23  44  67  96 132 181 225 287 332 400
#     4  12  24  42  67 101 138 173 219 282 346 416
#
# _framework density 19.997865000000001
#
# number of rings (size 3 to 8) (size 9 to 14) (size 15 to 20)
#    0.000    0.857    4.286    2.143    6.000    1.143 
#    0.000    0.000    0.000    0.000    0.000    0.000 
#    0.000    0.000    0.000    0.000    0.000    0.000 
#
# Total GULP energy -78020.711775 kJ/mol
# GULP energy per Si atom -5572.907984 kJ/mol
# Density = 1.995235 g / cm^3
# Si number density = 19.997865 Si / 1000 Ang^3
#
#
#
# Elastic Constant Matrix: (Units=GPa)
#
#
# Indices 1 2 3 4 5 6 
#
# 1 101.8934 46.9170 16.5056 0.0000 0.0000 0.0000
# 2 46.9170 139.9561 51.9615 0.0000 0.0000 0.0000
# 3 16.5056 51.9615 108.0376 0.0000 0.0000 0.0000
# 4 0.0000 0.0000 0.0000 36.0142 0.0000 0.0000
# 5 0.0000 0.0000 0.0000 0.0000 7.3553 0.0000
# 6 0.0000 0.0000 0.0000 0.0000 0.0000 43.5774
#
#
#
# Elastic Compliance Matrix: (Units=1/GPa)
#
#
# Indices 1 2 3 4 5 6 
#
# 1 0.011607 -0.003935 0.000119 0.000000 0.000000 0.000000
# 2 -0.003935 0.010033 -0.004224 0.000000 0.000000 0.000000
# 3 0.000119 -0.004224 0.011269 0.000000 0.000000 0.000000
# 4 0.000000 0.000000 0.000000 0.027767 0.000000 0.000000
# 5 0.000000 0.000000 0.000000 0.000000 0.135957 0.000000
# 6 0.000000 0.000000 0.000000 0.000000 0.000000 0.022948
#
#
# Mechanical properties :
#
#
# Convention : Reuss Voigt Hill
#
# Bulk Modulus (GPa) = 59.42098 64.51724 61.96911
# Shear Modulus (GPa) = 20.72373 33.02290 26.87332
#
# Velocity S-wave (km/s) = 3.22265 4.06805 3.66978
# Velocity P-wave (km/s) = 6.60496 7.37547 7.00082
#
# Compressibility (1/GPa) = 0.01682907
#
# Stress axis : x y z
#
# Youngs Moduli (GPa) = 86.15620 99.67554 88.73616
#
# Poissons Ratio (x) = 0.39225 -0.01060
# Poissons Ratio (y) = 0.33905 0.37482
# Poissons Ratio (z) = -0.01029 0.42103
#
# Static dielectric constant tensor:
#      x y z
#    x 1.581420 0.000000 0.000000 
#    y 0.000000 1.778660 0.000000 
#    z 0.000000 0.000000 1.716700 
# 
# From -- ./inp_files/9610.got.cif
#   From: 2010.05.17/outbox.cif.g08.bks.cpg/sg22_5_cif.got.tgz:9610.got - 2010.06.03 23:40:54.
