data_PCOD9327225
_publ_section_title
;
Structure prediction by ZEFSAII (Michael W. Deem and Ramdas Pophale) SiO2 
 PCOD9327225
Probable space group: F 2 2 2
;
_chemical_formula_sum "Si O2"
_cell_formula_units_Z 92
_cell_length_a 21.807025
_cell_length_b 19.969078
_cell_length_c 9.153461
_cell_angle_alpha 90.000000
_cell_angle_beta 90.000000
_cell_angle_gamma 90.000000
_cell_volume 3986.022724
_symmetry_space_group_name_H-M "F 2 2 2"
_symmetry_group_IT_number 22
_symmetry_cell_setting 'orthorhombic'
loop_
_space_group_symop_operation_xyz
x,y,z
-x,-y,z
x,-y,-z
-x,y,-z
x,1/2+y,1/2+z
-x,1/2-y,1/2+z
x,1/2-y,1/2-z
-x,1/2+y,1/2-z
1/2+x,y,1/2+z
1/2-x,-y,1/2+z
1/2+x,-y,1/2-z
1/2-x,y,1/2-z
1/2+x,1/2+y,z
1/2-x,1/2-y,z
1/2+x,1/2-y,-z
1/2-x,1/2+y,-z
loop_
_atom_site_type_symbol
_atom_site_label
_atom_site_fract_x
_atom_site_fract_y
_atom_site_fract_z
Si Si1 0.250000 0.250000 0.250000
Si Si2 0.643271 0.364470 0.986688
Si Si3 0.926773 0.889121 0.311760
Si Si4 0.620719 0.500000 0.500000
Si Si5 0.727191 0.598504 0.599473
Si Si6 0.536158 0.318665 0.157133
Si Si7 0.659648 0.794191 0.020774
O O1 0.291973 0.202232 0.153454
O O2 0.709839 0.396221 0.009291
O O3 0.592712 0.367829 0.115362
O O4 0.614688 0.387790 0.834521
O O5 0.649018 0.283891 0.988025
O O6 0.921104 0.961971 0.382615
O O7 0.899503 0.834408 0.426046
O O8 0.991462 0.861474 0.259485
O O9 0.669954 0.556400 0.545241
O O10 0.750000 0.569663 0.750000
O O11 0.696257 0.672268 0.611875
O O12 0.550888 0.250000 0.250000
O O13 0.500000 0.304437 0.000000
#
# Coordination Sequence:
#
# PCOD9327225 Si02
#       7
#     4  16  16   8  16  16  16
#     4  12  16  32  58  96 132 176 208 258 352 412
#     4  11  21  36  66 102 140 176 215 287 355 424
#     4  10  20  41  65  98 134 181 239 278 337 408
#     4  10  26  42  70  95 129 190 242 290 332 398
#     4  11  25  39  59  97 139 181 227 282 344 411
#     4  10  22  39  67 106 144 183 223 285 355 421
#     4  11  19  34  63  99 138 177 213 280 353 423
#
# _framework density 23.080652000000001
#
# number of rings (size 3 to 8) (size 9 to 14) (size 15 to 20)
#    0.000    1.391    3.478    2.087    4.870    2.087 
#    0.000    0.000    0.000    2.087    0.000    0.000 
#    0.000    0.000    0.000    0.000    0.000    0.000 
#
# Total GULP energy -128356.129125 kJ/mol
# GULP energy per Si atom -5580.701266 kJ/mol
# Density = 2.302812 g / cm^3
# Si number density = 23.080652 Si / 1000 Ang^3
#
#
#
# Elastic Constant Matrix: (Units=GPa)
#
#
# Indices 1 2 3 4 5 6 
#
# 1 74.2590 25.8094 29.7017 -0.0001 0.0001 0.0000
# 2 25.8094 82.8730 24.0112 0.0000 0.0001 0.0000
# 3 29.7017 24.0112 41.1708 -0.0001 0.0001 0.0001
# 4 -0.0001 0.0000 -0.0001 22.5267 0.0001 0.0000
# 5 0.0001 0.0001 0.0001 0.0001 26.1890 -0.0001
# 6 0.0000 0.0000 0.0001 0.0000 -0.0001 8.7963
#
#
#
# Elastic Compliance Matrix: (Units=1/GPa)
#
#
# Indices 1 2 3 4 5 6 
#
# 1 0.019310 -0.002380 -0.012543 0.000000 0.000000 0.000000
# 2 -0.002380 0.014813 -0.006923 0.000000 0.000000 0.000000
# 3 -0.012543 -0.006923 0.037375 0.000000 0.000000 0.000000
# 4 0.000000 0.000000 0.000000 0.044392 0.000000 0.000000
# 5 0.000000 0.000000 0.000000 0.000000 0.038184 0.000000
# 6 0.000000 0.000000 0.000000 0.000000 0.000000 0.113685
#
#
# Mechanical properties :
#
#
# Convention : Reuss Voigt Hill
#
# Bulk Modulus (GPa) = 35.96044 39.70525 37.83285
# Shear Modulus (GPa) = 15.58993 19.42109 17.50551
#
# Velocity S-wave (km/s) = 2.60177 2.90391 2.75698
# Velocity P-wave (km/s) = 4.96385 5.33702 5.15381
#
# Compressibility (1/GPa) = 0.02780833
#
# Stress axis : x y z
#
# Youngs Moduli (GPa) = 51.78551 67.50608 26.75559
#
# Poissons Ratio (x) = 0.16064 0.33560
# Poissons Ratio (y) = 0.12323 0.18522
# Poissons Ratio (z) = 0.64956 0.46732
#
# Static dielectric constant tensor:
#      x y z
#    x 1.981390 0.000000 0.000000 
#    y 0.000000 1.948680 0.000000 
#    z 0.000000 0.000000 1.985170 
# 
# From -- ./inp_files/13779.got.cif
#   From: 2010.05.17/outbox.cif.g08.bks.cpg/sg22_7_cif.got.tgz:13779.got - 2010.06.03 23:40:54.
