data_PCOD9327165
_publ_section_title
;
Structure prediction by ZEFSAII (Michael W. Deem and Ramdas Pophale) SiO2 
 PCOD9327165
Probable space group: F 2 2 2
;
_chemical_formula_sum "Si O2"
_cell_formula_units_Z 80
_cell_length_a 11.603476
_cell_length_b 27.030977
_cell_length_c 11.603480
_cell_angle_alpha 90.000000
_cell_angle_beta 90.000000
_cell_angle_gamma 90.000000
_cell_volume 3639.469711
_symmetry_space_group_name_H-M "F 2 2 2"
_symmetry_group_IT_number 22
_symmetry_cell_setting 'orthorhombic'
loop_
_space_group_symop_operation_xyz
x,y,z
-x,-y,z
x,-y,-z
-x,y,-z
x,1/2+y,1/2+z
-x,1/2-y,1/2+z
x,1/2-y,1/2-z
-x,1/2+y,1/2-z
1/2+x,y,1/2+z
1/2-x,-y,1/2+z
1/2+x,-y,1/2-z
1/2-x,y,1/2-z
1/2+x,1/2+y,z
1/2-x,1/2-y,z
1/2+x,1/2-y,-z
1/2-x,1/2+y,-z
loop_
_atom_site_type_symbol
_atom_site_label
_atom_site_fract_x
_atom_site_fract_y
_atom_site_fract_z
Si Si1 0.941235 0.750000 0.250000
Si Si2 0.828108 0.583142 0.408419
Si Si3 0.591581 0.916858 0.671892
Si Si4 0.750000 0.250000 0.441235
Si Si5 0.000000 0.258681 0.500000
Si Si6 0.750000 1.000000 0.750000
Si Si7 0.250000 0.167886 0.750000
Si Si8 0.250000 0.167886 0.250000
O O1 0.021012 0.741748 0.360846
O O2 0.861624 0.798298 0.264297
O O3 0.849619 0.582104 0.544570
O O4 0.758732 0.536202 0.359699
O O5 0.767173 0.632030 0.360109
O O6 0.955430 0.582104 0.349619
O O7 0.640301 0.963798 0.741268
O O8 0.639891 0.867970 0.732826
O O9 0.639154 0.241748 0.521012
O O10 0.764297 0.201702 0.361624
#
# Coordination Sequence:
#
# PCOD9327165 Si02
#       8
#     8  16  16   8   8   8   8   8
#     4  11  26  45  70 100 146 192 242 290 360 414
#     4  10  22  39  68  96 129 175 230 292 361 433
#     4  10  22  39  68  96 129 175 230 292 361 433
#     4  11  26  45  70 100 146 192 242 290 360 414
#     4  12  28  48  72 104 140 202 252 300 352 424
#     4  10  20  40  60  96 128 160 224 284 356 428
#     4  10  24  42  64 104 138 184 234 298 352 428
#     4  10  24  42  64 104 138 184 234 298 352 428
#
# _framework density 21.981223
#
# number of rings (size 3 to 8) (size 9 to 14) (size 15 to 20)
#    0.000    1.600    0.000    3.600   11.200    1.600 
#    0.000    0.000    0.000   40.800    0.000    0.000 
#    0.000    0.000    0.000    0.000    0.000    0.000 
#
# Total GULP energy -111461.559203 kJ/mol
# GULP energy per Si atom -5573.077960 kJ/mol
# Density = 2.193119 g / cm^3
# Si number density = 21.981223 Si / 1000 Ang^3
#
#
#
# Elastic Constant Matrix: (Units=GPa)
#
#
# Indices 1 2 3 4 5 6 
#
# 1 106.6831 35.0735 34.8601 0.0000 0.0000 0.0000
# 2 35.0735 140.6138 35.0732 0.0000 0.0000 0.0000
# 3 34.8601 35.0732 106.6843 0.0000 0.0000 0.0000
# 4 0.0000 0.0000 0.0000 10.0851 0.0000 0.0000
# 5 0.0000 0.0000 0.0000 0.0000 44.2794 0.0000
# 6 0.0000 0.0000 0.0000 0.0000 0.0000 10.0822
#
#
#
# Elastic Compliance Matrix: (Units=1/GPa)
#
#
# Indices 1 2 3 4 5 6 
#
# 1 0.010992 -0.002011 -0.002931 0.000000 0.000000 0.000000
# 2 -0.002011 0.008115 -0.002011 0.000000 0.000000 0.000000
# 3 -0.002931 -0.002011 0.010992 0.000000 0.000000 0.000000
# 4 0.000000 0.000000 0.000000 0.099156 0.000000 0.000000
# 5 0.000000 0.000000 0.000000 0.000000 0.022584 0.000000
# 6 0.000000 0.000000 0.000000 0.000000 0.000000 0.099185
#
#
# Mechanical properties :
#
#
# Convention : Reuss Voigt Hill
#
# Bulk Modulus (GPa) = 61.74897 62.66607 62.20752
# Shear Modulus (GPa) = 18.49614 29.48763 23.99189
#
# Velocity S-wave (km/s) = 2.90393 3.66661 3.30733
# Velocity P-wave (km/s) = 6.27665 6.81881 6.55334
#
# Compressibility (1/GPa) = 0.01619460
#
# Stress axis : x y z
#
# Youngs Moduli (GPa) = 90.97277 123.23202 90.97400
#
# Poissons Ratio (x) = 0.24780 0.26662
# Poissons Ratio (y) = 0.18293 0.18292
# Poissons Ratio (z) = 0.26662 0.24779
#
# Static dielectric constant tensor:
#      x y z
#    x 1.811310 0.000000 0.000000 
#    y 0.000000 1.834880 0.000000 
#    z 0.000000 0.000000 1.811300 
# 
# From -- ./inp_files/18374.got.cif
#   From: 2010.05.17/outbox.cif.g08.bks.cpg/sg22_10_cif.got.tgz:18374.got - 2010.06.03 23:40:54.
