data_PCOD9327562
_publ_section_title
;
Structure prediction by ZEFSAII (Michael W. Deem and Ramdas Pophale) SiO2 
 PCOD9327562
Probable space group: F 2 2 2
;
_chemical_formula_sum "Si O2"
_cell_formula_units_Z 88
_cell_length_a 13.336417
_cell_length_b 21.782626
_cell_length_c 12.242459
_cell_angle_alpha 90.000000
_cell_angle_beta 90.000000
_cell_angle_gamma 90.000000
_cell_volume 3556.461073
_symmetry_space_group_name_H-M "F 2 2 2"
_symmetry_group_IT_number 22
_symmetry_cell_setting 'orthorhombic'
loop_
_space_group_symop_operation_xyz
x,y,z
-x,-y,z
x,-y,-z
-x,y,-z
x,1/2+y,1/2+z
-x,1/2-y,1/2+z
x,1/2-y,1/2-z
-x,1/2+y,1/2-z
1/2+x,y,1/2+z
1/2-x,-y,1/2+z
1/2+x,-y,1/2-z
1/2-x,y,1/2-z
1/2+x,1/2+y,z
1/2-x,1/2-y,z
1/2+x,1/2-y,-z
1/2-x,1/2+y,-z
loop_
_atom_site_type_symbol
_atom_site_label
_atom_site_fract_x
_atom_site_fract_y
_atom_site_fract_z
Si Si1 0.646630 0.145772 0.186884
Si Si2 0.605118 0.871660 0.473642
Si Si3 0.575403 0.878407 0.226013
Si Si4 0.663463 0.000000 0.500000
Si Si5 0.355185 0.002080 0.876022
Si Si6 0.805328 0.688511 0.032049
O O1 0.750000 0.161921 0.250000
O O2 0.537424 0.146788 0.242933
O O3 0.649071 0.072517 0.159702
O O4 0.631057 0.188415 0.079252
O O5 0.500000 0.839743 0.500000
O O6 0.622407 0.870209 0.344234
O O7 0.600596 0.940049 0.522389
O O8 0.710573 0.848750 0.516434
O O9 0.632985 0.843020 0.128761
O O10 0.587211 0.950526 0.192772
O O11 0.738213 0.014989 0.601036
O O12 0.395450 0.000000 0.000000
O O13 0.750000 0.750000 0.069225
#
# Coordination Sequence:
#
# PCOD9327562 Si02
#       6
#    16  16  16   8  16  16
#     4  12  26  45  73 107 147 191 241 306 380 451
#     4  12  26  45  69 106 147 189 237 302 380 450
#     4  12  26  43  76 108 145 191 248 302 371 462
#     4  10  21  40  67  98 150 182 233 288 367 436
#     4  10  21  39  71 105 146 185 236 293 360 449
#     4  12  27  49  72  98 138 191 254 320 371 438
#
# _framework density 24.743697999999998
#
# number of rings (size 3 to 8) (size 9 to 14) (size 15 to 20)
#    0.545    0.000    5.455    3.000    2.545    5.455 
#    0.000    1.818    0.000    0.000    0.000    0.000 
#    0.000    0.000    0.000    0.000    0.000    0.000 
#
# Total GULP energy -122797.610661 kJ/mol
# GULP energy per Si atom -5581.709575 kJ/mol
# Density = 2.468738 g / cm^3
# Si number density = 24.743698 Si / 1000 Ang^3
#
#
#
# Elastic Constant Matrix: (Units=GPa)
#
#
# Indices 1 2 3 4 5 6 
#
# 1 121.9212 3.7897 2.6457 0.0000 0.0000 0.0000
# 2 3.7897 62.2406 -3.2895 0.0000 0.0000 0.0000
# 3 2.6457 -3.2895 109.9890 0.0000 0.0000 0.0000
# 4 0.0000 0.0000 0.0000 4.8096 0.0000 0.0000
# 5 0.0000 0.0000 0.0000 0.0000 40.0296 0.0000
# 6 0.0000 0.0000 0.0000 0.0000 0.0000 12.9307
#
#
#
# Elastic Compliance Matrix: (Units=1/GPa)
#
#
# Indices 1 2 3 4 5 6 
#
# 1 0.008223 -0.000512 -0.000213 0.000000 0.000000 0.000000
# 2 -0.000512 0.016124 0.000495 0.000000 0.000000 0.000000
# 3 -0.000213 0.000495 0.009112 0.000000 0.000000 0.000000
# 4 0.000000 0.000000 0.000000 0.207918 0.000000 0.000000
# 5 0.000000 0.000000 0.000000 0.000000 0.024982 0.000000
# 6 0.000000 0.000000 0.000000 0.000000 0.000000 0.077336
#
#
# Mechanical properties :
#
#
# Convention : Reuss Voigt Hill
#
# Bulk Modulus (GPa) = 30.30544 33.38248 31.84396
# Shear Modulus (GPa) = 14.07841 30.95429 22.51635
#
# Velocity S-wave (km/s) = 2.38790 3.54078 3.01987
# Velocity P-wave (km/s) = 4.45837 5.49880 5.00569
#
# Compressibility (1/GPa) = 0.03299737
#
# Stress axis : x y z
#
# Youngs Moduli (GPa) = 121.61672 62.01934 109.74854
#
# Poissons Ratio (x) = 0.03175 0.02339
# Poissons Ratio (y) = 0.06226 -0.05428
# Poissons Ratio (z) = 0.02592 -0.03067
#
# Static dielectric constant tensor:
#      x y z
#    x 2.002340 0.000000 0.000000 
#    y 0.000000 1.972550 0.000000 
#    z 0.000000 0.000000 1.975820 
# 
# From -- ./inp_files/19964.got.cif
#   From: 2010.05.17/outbox.cif.g08.bks.cpg/sg22_10_cif.got.tgz:19964.got - 2010.06.03 23:40:54.
