data_PCOD9327643
_publ_section_title
;
Structure prediction by ZEFSAII (Michael W. Deem and Ramdas Pophale) SiO2 
 PCOD9327643
Probable space group: F 2 2 2
;
_chemical_formula_sum "Si O2"
_cell_formula_units_Z 64
_cell_length_a 14.900754
_cell_length_b 14.027921
_cell_length_c 16.238330
_cell_angle_alpha 90.000000
_cell_angle_beta 90.000000
_cell_angle_gamma 90.000000
_cell_volume 3394.242909
_symmetry_space_group_name_H-M "F 2 2 2"
_symmetry_group_IT_number 22
_symmetry_cell_setting 'orthorhombic'
loop_
_space_group_symop_operation_xyz
x,y,z
-x,-y,z
x,-y,-z
-x,y,-z
x,1/2+y,1/2+z
-x,1/2-y,1/2+z
x,1/2-y,1/2-z
-x,1/2+y,1/2-z
1/2+x,y,1/2+z
1/2-x,-y,1/2+z
1/2+x,-y,1/2-z
1/2-x,y,1/2-z
1/2+x,1/2+y,z
1/2-x,1/2-y,z
1/2+x,1/2-y,-z
1/2-x,1/2+y,-z
loop_
_atom_site_type_symbol
_atom_site_label
_atom_site_fract_x
_atom_site_fract_y
_atom_site_fract_z
Si Si1 0.493150 0.604828 0.865730
Si Si2 0.622539 0.079879 0.932194
Si Si3 0.717103 0.859404 0.338894
Si Si4 0.500000 0.500000 0.289118
Si Si5 0.500000 0.254404 0.500000
O O1 0.500000 0.500000 0.905757
O O2 0.388816 0.630167 0.849442
O O3 0.534043 0.581671 0.774978
O O4 0.530806 0.685889 0.925170
O O5 0.726578 0.090508 0.910392
O O6 0.572249 0.047334 0.848984
O O7 0.577762 0.176803 0.965561
O O8 0.607314 0.000000 0.000000
O O9 0.750000 0.896895 0.250000
O O10 0.750000 0.750000 0.341192
#
# Coordination Sequence:
#
# PCOD9327643 Si02
#       5
#    16  16  16   8   8
#     4  10  23  40  64  90 129 162 214 264 327 369
#     4  12  23  40  62  93 129 165 212 269 324 383
#     4  11  21  38  65  93 118 166 221 263 311 386
#     4  10  21  41  62  90 122 172 206 263 321 390
#     4  12  22  38  62  90 126 166 212 260 322 382
#
# _framework density 18.855457000000001
#
# number of rings (size 3 to 8) (size 9 to 14) (size 15 to 20)
#    0.750    0.250    7.500    0.375    0.000    3.000 
#    0.000    0.000    0.000    0.000    0.000    0.000 
#    0.000    0.000    0.000    0.000    0.000    0.000 
#
# Total GULP energy -89145.068761 kJ/mol
# GULP energy per Si atom -5571.566798 kJ/mol
# Density = 1.881254 g / cm^3
# Si number density = 18.855457 Si / 1000 Ang^3
#
#
#
# Elastic Constant Matrix: (Units=GPa)
#
#
# Indices 1 2 3 4 5 6 
#
# 1 52.6740 16.9180 15.1308 0.0000 0.0000 0.0000
# 2 16.9180 109.4271 56.9117 0.0000 0.0000 0.0000
# 3 15.1308 56.9117 133.7905 0.0000 0.0000 0.0000
# 4 0.0000 0.0000 0.0000 33.7049 0.0000 0.0000
# 5 0.0000 0.0000 0.0000 0.0000 14.7124 0.0000
# 6 0.0000 0.0000 0.0000 0.0000 0.0000 21.9999
#
#
#
# Elastic Compliance Matrix: (Units=1/GPa)
#
#
# Indices 1 2 3 4 5 6 
#
# 1 0.020131 -0.002476 -0.001223 0.000000 0.000000 0.000000
# 2 -0.002476 0.012039 -0.004841 0.000000 0.000000 0.000000
# 3 -0.001223 -0.004841 0.009672 0.000000 0.000000 0.000000
# 4 0.000000 0.000000 0.000000 0.029669 0.000000 0.000000
# 5 0.000000 0.000000 0.000000 0.000000 0.067970 0.000000
# 6 0.000000 0.000000 0.000000 0.000000 0.000000 0.045455
#
#
# Mechanical properties :
#
#
# Convention : Reuss Voigt Hill
#
# Bulk Modulus (GPa) = 40.38580 52.64584 46.51582
# Shear Modulus (GPa) = 23.77875 27.87884 25.82879
#
# Velocity S-wave (km/s) = 3.55506 3.84937 3.70514
# Velocity P-wave (km/s) = 6.19002 6.90929 6.55952
#
# Compressibility (1/GPa) = 0.02476118
#
# Stress axis : x y z
#
# Youngs Moduli (GPa) = 49.67359 83.06221 103.39046
#
# Poissons Ratio (x) = 0.20567 0.12649
# Poissons Ratio (y) = 0.12300 0.50053
# Poissons Ratio (z) = 0.06077 0.40212
#
# Static dielectric constant tensor:
#      x y z
#    x 1.629450 0.000000 0.000000 
#    y 0.000000 1.682940 0.000000 
#    z 0.000000 0.000000 1.692650 
# 
# From -- ./inp_files/29020.got.cif
#   From: 2010.05.17/outbox.cif.g08.bks.cpg/sg22_15_cif.got.tgz:29020.got - 2010.06.03 23:40:54.
