data_PCOD9327835
_publ_section_title
;
Structure prediction by ZEFSAII (Michael W. Deem and Ramdas Pophale) SiO2 
 PCOD9327835
Probable space group: F 2 2 2
;
_chemical_formula_sum "Si O2"
_cell_formula_units_Z 68
_cell_length_a 9.075338
_cell_length_b 19.717160
_cell_length_c 18.303637
_cell_angle_alpha 90.000000
_cell_angle_beta 90.000000
_cell_angle_gamma 90.000000
_cell_volume 3275.250817
_symmetry_space_group_name_H-M "F 2 2 2"
_symmetry_group_IT_number 22
_symmetry_cell_setting 'orthorhombic'
loop_
_space_group_symop_operation_xyz
x,y,z
-x,-y,z
x,-y,-z
-x,y,-z
x,1/2+y,1/2+z
-x,1/2-y,1/2+z
x,1/2-y,1/2-z
-x,1/2+y,1/2-z
1/2+x,y,1/2+z
1/2-x,-y,1/2+z
1/2+x,-y,1/2-z
1/2-x,y,1/2-z
1/2+x,1/2+y,z
1/2-x,1/2-y,z
1/2+x,1/2-y,-z
1/2-x,1/2+y,-z
loop_
_atom_site_type_symbol
_atom_site_label
_atom_site_fract_x
_atom_site_fract_y
_atom_site_fract_z
Si Si1 0.500000 0.500000 0.000000
Si Si2 0.500000 0.000000 0.846897
Si Si3 0.920866 0.771216 0.920634
Si Si4 0.250000 0.534023 0.750000
Si Si5 0.928559 0.642446 0.079951
Si Si6 0.609640 0.890793 0.385692
O O1 0.587816 0.549037 0.055310
O O2 0.641325 0.988966 0.796962
O O3 0.533219 0.068493 0.889717
O O4 0.750000 0.750000 0.927067
O O5 0.999078 0.707305 0.881391
O O6 0.966781 0.842376 0.883845
O O7 0.000000 0.778145 0.000000
O O8 0.344529 0.579259 0.806944
O O9 0.752916 0.649585 0.084969
O O10 0.000000 0.642861 0.000000
#
# Coordination Sequence:
#
# PCOD9327835 Si02
#       6
#     4   8  16   8  16  16
#     4  12  26  36  74 102 136 172 238 284 330 404
#     4  10  22  40  60  90 124 178 220 268 331 415
#     4  11  22  39  65  98 135 169 221 287 344 398
#     4  10  24  42  65  90 145 176 220 278 348 398
#     4  10  22  37  65  91 129 166 217 280 331 396
#     4  11  24  42  64 100 132 183 219 285 339 407
#
# _framework density 20.761769000000001
#
# number of rings (size 3 to 8) (size 9 to 14) (size 15 to 20)
#    0.000    1.412    1.176    4.588    6.588    1.882 
#    0.000    9.412    0.000    5.647    0.000    0.000 
#    0.000    0.000    0.000    0.000    0.000    0.000 
#
# Total GULP energy -94827.241792 kJ/mol
# GULP energy per Si atom -5578.073047 kJ/mol
# Density = 2.071451 g / cm^3
# Si number density = 20.761769 Si / 1000 Ang^3
#
#
#
# Elastic Constant Matrix: (Units=GPa)
#
#
# Indices 1 2 3 4 5 6 
#
# 1 123.1481 37.2249 14.9684 0.0000 0.0000 0.0000
# 2 37.2249 97.9737 18.6575 0.0000 0.0000 0.0000
# 3 14.9684 18.6575 66.1120 0.0000 0.0000 0.0000
# 4 0.0000 0.0000 0.0000 -9.5638 0.0000 0.0000
# 5 0.0000 0.0000 0.0000 0.0000 29.8657 0.0000
# 6 0.0000 0.0000 0.0000 0.0000 0.0000 30.8304
#
#
#
# Elastic Compliance Matrix: (Units=1/GPa)
#
#
# Indices 1 2 3 4 5 6 
#
# 1 0.009258 -0.003296 -0.001166 0.000000 0.000000 0.000000
# 2 -0.003296 0.011960 -0.002629 0.000000 0.000000 0.000000
# 3 -0.001166 -0.002629 0.016132 0.000000 0.000000 0.000000
# 4 0.000000 0.000000 0.000000 -0.104561 0.000000 0.000000
# 5 0.000000 0.000000 0.000000 0.000000 0.033483 0.000000
# 6 0.000000 0.000000 0.000000 0.000000 0.000000 0.032436
#
#
# Mechanical properties :
#
#
# Convention : Reuss Voigt Hill
#
# Bulk Modulus (GPa) = 43.16240 47.65947 45.41094
# Shear Modulus (GPa) = 242.58379 24.65199 133.61789
#
# Velocity S-wave (km/s) = 10.82106 3.44957 8.03103
# Velocity P-wave (km/s) = 13.30269 6.23468 10.38828
#
# Compressibility (1/GPa) = 0.02316831
#
# Stress axis : x y z
#
# Youngs Moduli (GPa) = 108.01214 83.61478 61.98941
#
# Poissons Ratio (x) = 0.27556 0.07229
# Poissons Ratio (y) = 0.35596 0.16297
# Poissons Ratio (z) = 0.12595 0.21982
#
# Static dielectric constant tensor:
#      x y z
#    x 1.613780 0.000000 0.000000 
#    y 0.000000 1.799870 0.000000 
#    z 0.000000 0.000000 1.765930 
# 
# From -- ./inp_files/11290.got.cif
#   From: 2010.05.17/outbox.cif.g08.bks.cpg/sg22_6_cif.got.tgz:11290.got - 2010.06.03 23:40:54.
