data_PCOD9327237
_publ_section_title
;
Structure prediction by ZEFSAII (Michael W. Deem and Ramdas Pophale) SiO2 
 PCOD9327237
Probable space group: F 2 2 2
;
_chemical_formula_sum "Si O2"
_cell_formula_units_Z 56
_cell_length_a 14.772926
_cell_length_b 13.990999
_cell_length_c 11.555243
_cell_angle_alpha 90.000000
_cell_angle_beta 90.000000
_cell_angle_gamma 90.000000
_cell_volume 2388.329983
_symmetry_space_group_name_H-M "F 2 2 2"
_symmetry_group_IT_number 22
_symmetry_cell_setting 'orthorhombic'
loop_
_space_group_symop_operation_xyz
x,y,z
-x,-y,z
x,-y,-z
-x,y,-z
x,1/2+y,1/2+z
-x,1/2-y,1/2+z
x,1/2-y,1/2-z
-x,1/2+y,1/2-z
1/2+x,y,1/2+z
1/2-x,-y,1/2+z
1/2+x,-y,1/2-z
1/2-x,y,1/2-z
1/2+x,1/2+y,z
1/2-x,1/2-y,z
1/2+x,1/2-y,-z
1/2-x,1/2+y,-z
loop_
_atom_site_type_symbol
_atom_site_label
_atom_site_fract_x
_atom_site_fract_y
_atom_site_fract_z
Si Si1 0.928994 0.750000 0.250000
Si Si2 0.855439 0.247455 0.497760
Si Si3 0.438829 0.588366 0.343877
Si Si4 0.402653 0.945683 0.393401
O O1 0.871229 0.738610 0.366165
O O2 0.993396 0.661140 0.221286
O O3 0.750000 0.250000 0.469680
O O4 0.894675 0.148877 0.446527
O O5 0.904139 0.336190 0.434951
O O6 0.500000 0.500000 0.379374
O O7 0.371122 0.555013 0.240240
O O8 0.500000 0.000000 0.386901
O O9 0.352720 0.000000 0.500000
#
# Coordination Sequence:
#
# PCOD9327237 Si02
#       4
#     8  16  16  16
#     4  12  23  44  73  98 148 206 244 284 365 462
#     4  12  26  45  72 111 151 185 241 318 371 416
#     4  11  24  44  78 107 141 192 254 298 356 447
#     4  10  20  41  74 102 134 192 249 278 348 455
#
# _framework density 23.447347000000001
#
# number of rings (size 3 to 8) (size 9 to 14) (size 15 to 20)
#    0.000    0.857    2.857    6.429    0.000    4.571 
#    5.143    0.000    0.000    0.000    0.000    0.000 
#    0.000    0.000    0.000    0.000    0.000    0.000 
#
# Total GULP energy -78237.401844 kJ/mol
# GULP energy per Si atom -5588.385846 kJ/mol
# Density = 2.339398 g / cm^3
# Si number density = 23.447347 Si / 1000 Ang^3
#
#
#
# Elastic Constant Matrix: (Units=GPa)
#
#
# Indices 1 2 3 4 5 6 
#
# 1 95.1749 59.1275 27.6259 0.0000 0.0000 0.0000
# 2 59.1275 155.9790 53.4115 0.0000 0.0000 0.0000
# 3 27.6259 53.4115 181.2051 0.0000 0.0000 0.0000
# 4 0.0000 0.0000 0.0000 43.4262 0.0000 0.0000
# 5 0.0000 0.0000 0.0000 0.0000 8.2906 0.0000
# 6 0.0000 0.0000 0.0000 0.0000 0.0000 9.0268
#
#
#
# Elastic Compliance Matrix: (Units=1/GPa)
#
#
# Indices 1 2 3 4 5 6 
#
# 1 0.013807 -0.005020 -0.000625 0.000000 0.000000 0.000000
# 2 -0.005020 0.008956 -0.001875 0.000000 0.000000 0.000000
# 3 -0.000625 -0.001875 0.006166 0.000000 0.000000 0.000000
# 4 0.000000 0.000000 0.000000 0.023028 0.000000 0.000000
# 5 0.000000 0.000000 0.000000 0.000000 0.120619 0.000000
# 6 0.000000 0.000000 0.000000 0.000000 0.000000 0.110781
#
#
# Mechanical properties :
#
#
# Convention : Reuss Voigt Hill
#
# Bulk Modulus (GPa) = 71.99362 79.18764 75.59063
# Shear Modulus (GPa) = 16.50025 31.62834 24.06429
#
# Velocity S-wave (km/s) = 2.65564 3.67673 3.20709
# Velocity P-wave (km/s) = 6.33832 7.20211 6.78397
#
# Compressibility (1/GPa) = 0.01389012
#
# Stress axis : x y z
#
# Youngs Moduli (GPa) = 72.42710 111.65894 162.16723
#
# Poissons Ratio (x) = 0.56050 0.10141
# Poissons Ratio (y) = 0.36356 0.30398
# Poissons Ratio (z) = 0.04529 0.20931
#
# Static dielectric constant tensor:
#      x y z
#    x 1.872100 0.000000 0.000000 
#    y 0.000000 1.898990 0.000000 
#    z 0.000000 0.000000 2.033600 
# 
# From -- ./inp_files/19051.got.cif
#   From: 2010.05.17/outbox.cif.g08.bks.cpg/sg22_10_cif.got.tgz:19051.got - 2010.06.03 23:40:54.
