data_PCOD9327336
_publ_section_title
;
Structure prediction by ZEFSAII (Michael W. Deem and Ramdas Pophale) SiO2 
 PCOD9327336
Probable space group: F 2 2 2
;
_chemical_formula_sum "Si O2"
_cell_formula_units_Z 88
_cell_length_a 38.008628
_cell_length_b 5.409835
_cell_length_c 21.489823
_cell_angle_alpha 90.000000
_cell_angle_beta 90.000000
_cell_angle_gamma 90.000000
_cell_volume 4418.746131
_symmetry_space_group_name_H-M "F 2 2 2"
_symmetry_group_IT_number 22
_symmetry_cell_setting 'orthorhombic'
loop_
_space_group_symop_operation_xyz
x,y,z
-x,-y,z
x,-y,-z
-x,y,-z
x,1/2+y,1/2+z
-x,1/2-y,1/2+z
x,1/2-y,1/2-z
-x,1/2+y,1/2-z
1/2+x,y,1/2+z
1/2-x,-y,1/2+z
1/2+x,-y,1/2-z
1/2-x,y,1/2-z
1/2+x,1/2+y,z
1/2-x,1/2-y,z
1/2+x,1/2-y,-z
1/2-x,1/2+y,-z
loop_
_atom_site_type_symbol
_atom_site_label
_atom_site_fract_x
_atom_site_fract_y
_atom_site_fract_z
Si Si1 0.959536 0.998646 0.575575
Si Si2 0.581454 0.996442 0.424617
Si Si3 0.182561 0.750000 0.250000
Si Si4 0.713386 0.850043 0.178863
Si Si5 0.158196 0.492109 0.632900
Si Si6 0.289826 0.249224 0.540578
O O1 0.938441 0.750473 0.593666
O O2 0.960263 0.000000 0.500000
O O3 0.940446 0.252823 0.593635
O O4 0.000000 0.000000 0.596963
O O5 0.619860 0.976489 0.394774
O O6 0.584847 0.000000 0.500000
O O7 0.208086 0.631115 0.198095
O O8 0.157769 0.590501 0.294838
O O9 0.711020 0.750000 0.250000
O O10 0.750000 0.750000 0.153115
O O11 0.682394 0.738250 0.137357
O O12 0.178941 0.298096 0.589102
O O13 0.294054 0.500000 0.500000
O O14 0.250000 0.250000 0.568050
O O15 0.290721 0.000000 0.500000
#
# Coordination Sequence:
#
# PCOD9327336 Si02
#       6
#    16  16   8  16  16  16
#     4   9  18  35  59  89 124 157 193 238 294 364
#     4  10  21  35  58  91 126 162 193 238 303 370
#     4  10  24  41  60  86 118 158 214 272 330 356
#     4   9  21  38  58  83 112 153 212 267 319 360
#     4  11  24  37  60  86 124 158 209 257 315 366
#     4  10  24  41  59  84 118 165 213 255 308 371
#
# _framework density 19.915151000000002
#
# number of rings (size 3 to 8) (size 9 to 14) (size 15 to 20)
#    0.000    2.182    0.000    1.091    7.636   10.182 
#    0.000    0.000    0.000    0.000    0.000    2.545 
#    0.000    0.000    0.000    0.000    0.000    0.000 
#
# Total GULP energy -122622.771008 kJ/mol
# GULP energy per Si atom -5573.762319 kJ/mol
# Density = 1.986982 g / cm^3
# Si number density = 19.915151 Si / 1000 Ang^3
#
#
#
# Elastic Constant Matrix: (Units=GPa)
#
#
# Indices 1 2 3 4 5 6 
#
# 1 202.7867 91.6661 50.7112 0.0017 0.0081 -0.0019
# 2 91.6661 151.7536 42.0304 0.0008 0.0340 -0.0072
# 3 50.7112 42.0304 48.8974 0.0011 0.0061 -0.0013
# 4 0.0017 0.0008 0.0011 28.8185 0.0112 -0.0031
# 5 0.0081 0.0340 0.0061 0.0112 39.3879 -0.0018
# 6 -0.0019 -0.0072 -0.0013 -0.0031 -0.0018 23.0829
#
#
#
# Elastic Compliance Matrix: (Units=1/GPa)
#
#
# Indices 1 2 3 4 5 6 
#
# 1 0.007680 -0.003193 -0.005220 0.000000 0.000002 -0.000001
# 2 -0.003193 0.009976 -0.005263 0.000000 -0.000007 0.000003
# 3 -0.005220 -0.005263 0.030389 -0.000001 0.000001 0.000000
# 4 0.000000 0.000000 -0.000001 0.034700 -0.000010 0.000005
# 5 0.000002 -0.000007 0.000001 -0.000010 0.025388 0.000002
# 6 -0.000001 0.000003 0.000000 0.000005 0.000002 0.043322
#
#
# Mechanical properties :
#
#
# Convention : Reuss Voigt Hill
#
# Bulk Modulus (GPa) = 48.32879 85.80589 67.06734
# Shear Modulus (GPa) = 26.92402 32.85986 29.89194
#
# Velocity S-wave (km/s) = 3.68086 4.06642 3.87843
# Velocity P-wave (km/s) = 6.51038 8.07632 7.33525
#
# Compressibility (1/GPa) = 0.02069160
#
# Stress axis : x y z
#
# Youngs Moduli (GPa) = 130.20446 100.23664 32.90648
#
# Poissons Ratio (x) = 0.32010 0.17178
# Poissons Ratio (y) = 0.41579 0.17320
# Poissons Ratio (z) = 0.67969 0.52760
#
# Static dielectric constant tensor:
#      x y z
#    x 1.680070 0.000000 0.000000 
#    y 0.000000 1.777530 0.000020 
#    z 0.000000 0.000020 1.737460 
# 
# From -- ./inp_files/50666.got.cif
#   From: 2010.05.17/outbox.cif.g08.bks.cpg/sg22_26_cif.got.tgz:50666.got - 2010.06.03 23:40:54.
