data_PCOD9327526
_publ_section_title
;
Structure prediction by ZEFSAII (Michael W. Deem and Ramdas Pophale) SiO2 
 PCOD9327526
Probable space group: F 2 2 2
;
_chemical_formula_sum "Si O2"
_cell_formula_units_Z 68
_cell_length_a 11.989089
_cell_length_b 16.934815
_cell_length_c 17.285982
_cell_angle_alpha 90.000000
_cell_angle_beta 90.000000
_cell_angle_gamma 90.000000
_cell_volume 3509.624857
_symmetry_space_group_name_H-M "F 2 2 2"
_symmetry_group_IT_number 22
_symmetry_cell_setting 'orthorhombic'
loop_
_space_group_symop_operation_xyz
x,y,z
-x,-y,z
x,-y,-z
-x,y,-z
x,1/2+y,1/2+z
-x,1/2-y,1/2+z
x,1/2-y,1/2-z
-x,1/2+y,1/2-z
1/2+x,y,1/2+z
1/2-x,-y,1/2+z
1/2+x,-y,1/2-z
1/2-x,y,1/2-z
1/2+x,1/2+y,z
1/2-x,1/2-y,z
1/2+x,1/2-y,-z
1/2-x,1/2+y,-z
loop_
_atom_site_type_symbol
_atom_site_label
_atom_site_fract_x
_atom_site_fract_y
_atom_site_fract_z
Si Si1 0.023488 0.693397 0.875196
Si Si2 0.184312 0.165968 0.511652
Si Si3 0.500000 0.000000 0.621602
Si Si4 0.040945 0.658072 0.299158
Si Si5 0.250000 0.250000 0.750000
Si Si6 0.312151 0.000000 0.500000
O O1 0.913954 0.671050 0.924477
O O2 0.009455 0.663322 0.787254
O O3 0.025458 0.787627 0.860248
O O4 0.126757 0.666087 0.926589
O O5 0.250000 0.250000 0.518100
O O6 0.246238 0.081227 0.520359
O O7 0.541343 0.929444 0.673457
O O8 0.604180 0.023802 0.568771
O O9 0.164998 0.695216 0.296903
#
# Coordination Sequence:
#
# PCOD9327526 Si02
#       6
#    16  16   8  16   4   8
#     4   9  22  39  61  90 120 158 212 253 301 376
#     4  11  22  40  63  86 123 168 200 255 318 369
#     4  11  24  42  58  91 126 154 204 273 310 356
#     4  10  21  39  63  91 123 159 207 263 301 375
#     4   8  20  36  64  92 114 166 212 230 316 400
#     4  11  26  39  62  90 122 163 214 247 318 394
#
# _framework density 19.37529
#
# number of rings (size 3 to 8) (size 9 to 14) (size 15 to 20)
#    0.000    2.118    0.000    2.824   13.176    7.529 
#    0.000    7.059    0.000    0.000    0.000    0.000 
#    0.000    0.000    0.000    0.000    0.000    0.000 
#
# Total GULP energy -94772.857708 kJ/mol
# GULP energy per Si atom -5574.873983 kJ/mol
# Density = 1.933119 g / cm^3
# Si number density = 19.375290 Si / 1000 Ang^3
#
#
#
# Elastic Constant Matrix: (Units=GPa)
#
#
# Indices 1 2 3 4 5 6 
#
# 1 69.5219 41.8326 18.4202 0.0000 0.0000 0.0000
# 2 41.8326 124.0513 30.2329 0.0000 0.0000 0.0000
# 3 18.4202 30.2329 68.9922 0.0000 0.0000 0.0000
# 4 0.0000 0.0000 0.0000 23.8257 0.0000 0.0000
# 5 0.0000 0.0000 0.0000 0.0000 2.3396 0.0000
# 6 0.0000 0.0000 0.0000 0.0000 0.0000 23.2956
#
#
#
# Elastic Compliance Matrix: (Units=1/GPa)
#
#
# Indices 1 2 3 4 5 6 
#
# 1 0.018410 -0.005609 -0.002457 0.000000 0.000000 0.000000
# 2 -0.005609 0.010734 -0.003206 0.000000 0.000000 0.000000
# 3 -0.002457 -0.003206 0.016555 0.000000 0.000000 0.000000
# 4 0.000000 0.000000 0.000000 0.041972 0.000000 0.000000
# 5 0.000000 0.000000 0.000000 0.000000 0.427432 0.000000
# 6 0.000000 0.000000 0.000000 0.000000 0.000000 0.042927
#
#
# Mechanical properties :
#
#
# Convention : Reuss Voigt Hill
#
# Bulk Modulus (GPa) = 43.18868 49.28187 46.23528
# Shear Modulus (GPa) = 8.49916 21.36415 14.93166
#
# Velocity S-wave (km/s) = 2.09669 3.32422 2.77908
# Velocity P-wave (km/s) = 5.31041 6.34228 5.84915
#
# Compressibility (1/GPa) = 0.02315421
#
# Stress axis : x y z
#
# Youngs Moduli (GPa) = 54.31734 93.16034 60.40325
#
# Poissons Ratio (x) = 0.52258 0.14843
# Poissons Ratio (y) = 0.30469 0.19366
# Poissons Ratio (z) = 0.13347 0.29868
#
# Static dielectric constant tensor:
#      x y z
#    x 1.686480 0.000000 0.000000 
#    y 0.000000 1.675970 0.000000 
#    z 0.000000 0.000000 1.689930 
# 
# From -- ./inp_files/35901.got.cif
#   From: 2010.05.17/outbox.cif.g08.bks.cpg/sg22_18_cif.got.tgz:35901.got - 2010.06.03 23:40:54.
