data_PCOD9327483
_publ_section_title
;
Structure prediction by ZEFSAII (Michael W. Deem and Ramdas Pophale) SiO2 
 PCOD9327483
Probable space group: F 2 2 2
;
_chemical_formula_sum "Si O2"
_cell_formula_units_Z 116
_cell_length_a 18.611667
_cell_length_b 13.210439
_cell_length_c 24.636330
_cell_angle_alpha 90.000000
_cell_angle_beta 90.000000
_cell_angle_gamma 90.000000
_cell_volume 6057.292368
_symmetry_space_group_name_H-M "F 2 2 2"
_symmetry_group_IT_number 22
_symmetry_cell_setting 'orthorhombic'
loop_
_space_group_symop_operation_xyz
x,y,z
-x,-y,z
x,-y,-z
-x,y,-z
x,1/2+y,1/2+z
-x,1/2-y,1/2+z
x,1/2-y,1/2-z
-x,1/2+y,1/2-z
1/2+x,y,1/2+z
1/2-x,-y,1/2+z
1/2+x,-y,1/2-z
1/2-x,y,1/2-z
1/2+x,1/2+y,z
1/2-x,1/2-y,z
1/2+x,1/2-y,-z
1/2-x,1/2+y,-z
loop_
_atom_site_type_symbol
_atom_site_label
_atom_site_fract_x
_atom_site_fract_y
_atom_site_fract_z
Si Si1 0.186759 0.620400 0.654861
Si Si2 0.386204 0.217762 0.074169
Si Si3 0.075375 0.445020 0.683564
Si Si4 0.750000 0.750000 0.250000
Si Si5 0.678489 0.685444 0.544469
Si Si6 0.670432 0.012294 0.888824
Si Si7 0.563073 0.415805 0.304990
Si Si8 0.541633 0.243377 0.387748
O O1 0.154918 0.703522 0.613432
O O2 0.133162 0.528925 0.667505
O O3 0.203635 0.679504 0.710431
O O4 0.258499 0.570416 0.630619
O O5 0.383539 0.101782 0.094290
O O6 0.469117 0.253323 0.076627
O O7 0.344611 0.209071 0.017203
O O8 0.088104 0.397879 0.743204
O O9 0.063745 0.363506 0.636913
O O10 0.000000 0.500000 0.689020
O O11 0.750000 0.750000 0.557293
O O12 0.687714 0.568248 0.563316
O O13 0.609237 0.719471 0.578261
O O14 0.631354 0.954382 0.839613
O O15 0.500000 0.500000 0.305968
O O16 0.532535 0.318059 0.336135
#
# Coordination Sequence:
#
# PCOD9327483 Si02
#       8
#    16  16  16   4  16  16  16  16
#     4  12  24  40  66  98 140 170 229 271 340 406
#     4  12  23  42  66  97 129 170 224 280 335 404
#     4  11  23  39  62  92 131 177 210 264 334 402
#     4  12  24  40  68 104 134 184 214 300 330 396
#     4  11  25  43  68  91 130 175 221 280 338 398
#     4  11  22  42  65  97 130 167 219 278 334 398
#     4  10  21  38  64  93 129 167 217 269 328 400
#     4  11  23  43  65  95 131 171 225 276 335 405
#
# _framework density 19.150469999999999
#
# number of rings (size 3 to 8) (size 9 to 14) (size 15 to 20)
#    0.000    0.828    4.138    3.724    0.000    0.000 
#    0.000    3.448    0.000    2.483    0.000    0.000 
#    0.000    0.000    0.000    0.000    0.000    0.000 
#
# Total GULP energy -161908.352416 kJ/mol
# GULP energy per Si atom -5583.046635 kJ/mol
# Density = 1.910688 g / cm^3
# Si number density = 19.150470 Si / 1000 Ang^3
#
#
#
# Elastic Constant Matrix: (Units=GPa)
#
#
# Indices 1 2 3 4 5 6 
#
# 1 103.9067 43.2762 31.0572 0.0000 0.0000 0.0000
# 2 43.2762 99.4633 33.2588 0.0000 0.0000 0.0000
# 3 31.0572 33.2588 87.0964 0.0000 0.0000 0.0000
# 4 0.0000 0.0000 0.0000 20.7058 0.0000 0.0000
# 5 0.0000 0.0000 0.0000 0.0000 26.6944 0.0000
# 6 0.0000 0.0000 0.0000 0.0000 0.0000 42.6624
#
#
#
# Elastic Compliance Matrix: (Units=1/GPa)
#
#
# Indices 1 2 3 4 5 6 
#
# 1 0.012277 -0.004445 -0.002680 0.000000 0.000000 0.000000
# 2 -0.004445 0.013135 -0.003431 0.000000 0.000000 0.000000
# 3 -0.002680 -0.003431 0.013747 0.000000 0.000000 0.000000
# 4 0.000000 0.000000 0.000000 0.048296 0.000000 0.000000
# 5 0.000000 0.000000 0.000000 0.000000 0.037461 0.000000
# 6 0.000000 0.000000 0.000000 0.000000 0.000000 0.023440
#
#
# Mechanical properties :
#
#
# Convention : Reuss Voigt Hill
#
# Bulk Modulus (GPa) = 55.41157 56.18341 55.79749
# Shear Modulus (GPa) = 28.49268 30.20412 29.34840
#
# Velocity S-wave (km/s) = 3.86143 3.97571 3.91898
# Velocity P-wave (km/s) = 6.99131 7.10469 7.04823
#
# Compressibility (1/GPa) = 0.01804677
#
# Stress axis : x y z
#
# Youngs Moduli (GPa) = 81.45629 76.13090 72.74165
#
# Poissons Ratio (x) = 0.33842 0.19496
# Poissons Ratio (y) = 0.36210 0.24956
# Poissons Ratio (z) = 0.21831 0.26118
#
# Static dielectric constant tensor:
#      x y z
#    x 1.652340 0.000000 0.000000 
#    y 0.000000 1.647110 0.000000 
#    z 0.000000 0.000000 1.709270 
# 
# From -- ./inp_files/21846.got.cif
#   From: 2010.05.17/outbox.cif.g08.bks.cpg/sg22_11_cif.got.tgz:21846.got - 2010.06.03 23:40:54.
