data_PCOD9327773
_publ_section_title
;
Structure prediction by ZEFSAII (Michael W. Deem and Ramdas Pophale) SiO2 
 PCOD9327773
Probable space group: F 2 2 2
;
_chemical_formula_sum "Si O2"
_cell_formula_units_Z 36
_cell_length_a 24.968076
_cell_length_b 7.609052
_cell_length_c 6.976569
_cell_angle_alpha 90.000000
_cell_angle_beta 90.000000
_cell_angle_gamma 90.000000
_cell_volume 1325.432220
_symmetry_space_group_name_H-M "F 2 2 2"
_symmetry_group_IT_number 22
_symmetry_cell_setting 'orthorhombic'
loop_
_space_group_symop_operation_xyz
x,y,z
-x,-y,z
x,-y,-z
-x,y,-z
x,1/2+y,1/2+z
-x,1/2-y,1/2+z
x,1/2-y,1/2-z
-x,1/2+y,1/2-z
1/2+x,y,1/2+z
1/2-x,-y,1/2+z
1/2+x,-y,1/2-z
1/2-x,y,1/2-z
1/2+x,1/2+y,z
1/2-x,1/2-y,z
1/2+x,1/2-y,-z
1/2-x,1/2+y,-z
loop_
_atom_site_type_symbol
_atom_site_label
_atom_site_fract_x
_atom_site_fract_y
_atom_site_fract_z
Si Si1 0.191172 0.204812 0.473686
Si Si2 0.000000 0.000000 0.500000
Si Si3 0.576185 0.801295 0.478181
O O1 0.193302 0.250000 0.250000
O O2 0.250000 0.250000 0.550849
O O3 0.137914 0.299863 0.545949
O O4 0.182021 0.000000 0.500000
O O5 0.042393 0.145508 0.578741
O O6 0.574333 0.750000 0.250000
O O7 0.556539 0.000000 0.500000
#
# Coordination Sequence:
#
# PCOD9327773 Si02
#       3
#    16   4  16
#     4  10  21  44  70 104 140 183 233 292 353 421
#     4  12  26  44  70 102 144 188 238 292 348 430
#     4  11  26  46  70 104 142 188 238 292 355 420
#
# _framework density 27.160952999999999
#
# number of rings (size 3 to 8) (size 9 to 14) (size 15 to 20)
#    0.000    1.333    2.222    2.000    6.222    0.000 
#    0.000   17.778    0.000    0.000    0.000    0.000 
#    0.000    0.000    0.000    0.000    0.000    0.000 
#
# Total GULP energy -50346.730420 kJ/mol
# GULP energy per Si atom -5594.081158 kJ/mol
# Density = 2.709913 g / cm^3
# Si number density = 27.160953 Si / 1000 Ang^3
#
#
#
# Elastic Constant Matrix: (Units=GPa)
#
#
# Indices 1 2 3 4 5 6 
#
# 1 293.9635 79.7434 -9.1086 0.0000 0.0000 0.0000
# 2 79.7434 300.0253 37.8025 0.0000 0.0000 0.0000
# 3 -9.1086 37.8025 162.5566 0.0000 0.0000 0.0000
# 4 0.0000 0.0000 0.0000 48.1132 0.0000 0.0000
# 5 0.0000 0.0000 0.0000 0.0000 -18.6923 0.0000
# 6 0.0000 0.0000 0.0000 0.0000 0.0000 51.3795
#
#
#
# Elastic Compliance Matrix: (Units=1/GPa)
#
#
# Indices 1 2 3 4 5 6 
#
# 1 0.003698 -0.001039 0.000449 0.000000 0.000000 0.000000
# 2 -0.001039 0.003726 -0.000925 0.000000 0.000000 0.000000
# 3 0.000449 -0.000925 0.006392 0.000000 0.000000 0.000000
# 4 0.000000 0.000000 0.000000 0.020784 0.000000 0.000000
# 5 0.000000 0.000000 0.000000 0.000000 -0.053498 0.000000
# 6 0.000000 0.000000 0.000000 0.000000 0.000000 0.019463
#
#
# Mechanical properties :
#
#
# Convention : Reuss Voigt Hill
#
# Bulk Modulus (GPa) = 92.72078 108.15777 100.43927
# Shear Modulus (GPa) = 695.41031 59.36728 377.38880
#
# Velocity S-wave (km/s) = 16.01839 4.68028 11.80030
# Velocity P-wave (km/s) = 19.39923 8.31350 14.92388
#
# Compressibility (1/GPa) = 0.01078507
#
# Stress axis : x y z
#
# Youngs Moduli (GPa) = 270.44302 268.39819 156.44827
#
# Poissons Ratio (x) = 0.27896 -0.07023
# Poissons Ratio (y) = 0.28109 0.14466
# Poissons Ratio (z) = -0.12140 0.24818
#
# Static dielectric constant tensor:
#      x y z
#    x 2.234710 0.000000 0.000000 
#    y 0.000000 2.023430 0.000000 
#    z 0.000000 0.000000 2.421050 
# 
# From -- ./inp_files/754.got.cif
#   From: 2010.05.17/outbox.cif.g08.bks.cpg/sg22_1_cif.got.tgz:754.got - 2010.06.03 23:40:54.
