data_PCOD9327713
_publ_section_title
;
Structure prediction by ZEFSAII (Michael W. Deem and Ramdas Pophale) SiO2 
 PCOD9327713
Probable space group: F 2 2 2
;
_chemical_formula_sum "Si O2"
_cell_formula_units_Z 84
_cell_length_a 7.546505
_cell_length_b 19.788302
_cell_length_c 25.298271
_cell_angle_alpha 90.000000
_cell_angle_beta 90.000000
_cell_angle_gamma 90.000000
_cell_volume 3777.854560
_symmetry_space_group_name_H-M "F 2 2 2"
_symmetry_group_IT_number 22
_symmetry_cell_setting 'orthorhombic'
loop_
_space_group_symop_operation_xyz
x,y,z
-x,-y,z
x,-y,-z
-x,y,-z
x,1/2+y,1/2+z
-x,1/2-y,1/2+z
x,1/2-y,1/2-z
-x,1/2+y,1/2-z
1/2+x,y,1/2+z
1/2-x,-y,1/2+z
1/2+x,-y,1/2-z
1/2-x,y,1/2-z
1/2+x,1/2+y,z
1/2-x,1/2-y,z
1/2+x,1/2-y,-z
1/2-x,1/2+y,-z
loop_
_atom_site_type_symbol
_atom_site_label
_atom_site_fract_x
_atom_site_fract_y
_atom_site_fract_z
Si Si1 0.000000 0.000000 0.500000
Si Si2 0.251562 0.922858 0.578360
Si Si3 0.500000 0.651580 0.000000
Si Si4 0.250000 0.250000 0.936512
Si Si5 0.000000 0.500000 0.643930
Si Si6 0.826834 0.617887 0.698626
Si Si7 0.991311 0.676872 0.143520
Si Si8 0.005082 0.250000 0.250000
O O1 0.883809 0.951307 0.463979
O O2 0.417795 0.891899 0.547244
O O3 0.157252 0.867079 0.614787
O O4 0.324392 0.986571 0.610601
O O5 0.339392 0.694764 0.025209
O O6 0.086854 0.273189 0.898558
O O7 0.027230 0.430429 0.674786
O O8 0.750000 0.581183 0.750000
O O9 0.660805 0.632235 0.661136
O O10 0.901404 0.689896 0.719066
O O11 0.919067 0.710172 0.198452
#
# Coordination Sequence:
#
# PCOD9327713 Si02
#       8
#     4  16   8   8   8  16  16   8
#     4  12  24  48  70 100 138 188 240 302 356 428
#     4  12  26  44  70  99 140 185 244 292 362 423
#     4  12  26  44  64 102 137 187 234 300 356 431
#     4  12  22  41  70  96 148 175 236 296 366 424
#     4  12  26  43  65 100 142 187 236 295 344 432
#     4  10  21  42  68  99 142 186 230 287 357 418
#     4  11  21  41  73 103 136 187 233 293 359 432
#     4  10  21  44  73 106 145 189 230 293 364 437
#
# _framework density 22.234842
#
# number of rings (size 3 to 8) (size 9 to 14) (size 15 to 20)
#    0.000    0.762    1.905    7.714    0.000    3.048 
#    0.000    0.952    0.000    0.000    0.000    0.000 
#    0.000    0.000    0.000    0.000    0.000    0.000 
#
# Total GULP energy -117291.493967 kJ/mol
# GULP energy per Si atom -5585.309237 kJ/mol
# Density = 2.218423 g / cm^3
# Si number density = 22.234842 Si / 1000 Ang^3
#
#
#
# Elastic Constant Matrix: (Units=GPa)
#
#
# Indices 1 2 3 4 5 6 
#
# 1 72.6238 42.5241 24.9565 0.0000 0.0000 0.0000
# 2 42.5241 99.3041 47.3490 0.0000 0.0000 0.0000
# 3 24.9565 47.3490 100.1808 0.0000 0.0000 0.0000
# 4 0.0000 0.0000 0.0000 17.2984 0.0000 0.0000
# 5 0.0000 0.0000 0.0000 0.0000 21.6121 0.0000
# 6 0.0000 0.0000 0.0000 0.0000 0.0000 44.3606
#
#
#
# Elastic Compliance Matrix: (Units=1/GPa)
#
#
# Indices 1 2 3 4 5 6 
#
# 1 0.018473 -0.007379 -0.001114 0.000000 0.000000 0.000000
# 2 -0.007379 0.015947 -0.005699 0.000000 0.000000 0.000000
# 3 -0.001114 -0.005699 0.012953 0.000000 0.000000 0.000000
# 4 0.000000 0.000000 0.000000 0.057809 0.000000 0.000000
# 5 0.000000 0.000000 0.000000 0.000000 0.046270 0.000000
# 6 0.000000 0.000000 0.000000 0.000000 0.000000 0.022543
#
#
# Mechanical properties :
#
#
# Convention : Reuss Voigt Hill
#
# Bulk Modulus (GPa) = 52.66311 55.75200 54.20756
# Shear Modulus (GPa) = 23.95660 27.13948 25.54804
#
# Velocity S-wave (km/s) = 3.28599 3.49748 3.39338
# Velocity P-wave (km/s) = 6.17522 6.43726 6.30760
#
# Compressibility (1/GPa) = 0.01898862
#
# Stress axis : x y z
#
# Youngs Moduli (GPa) = 54.13175 62.70602 77.20176
#
# Poissons Ratio (x) = 0.46274 0.08602
# Poissons Ratio (y) = 0.39946 0.43997
# Poissons Ratio (z) = 0.06032 0.35736
#
# Static dielectric constant tensor:
#      x y z
#    x 1.816800 0.000000 0.000000 
#    y 0.000000 1.777880 0.000000 
#    z 0.000000 0.000000 1.880760 
# 
# From -- ./inp_files/12616.got.cif
#   From: 2010.05.17/outbox.cif.g08.bks.cpg/sg22_7_cif.got.tgz:12616.got - 2010.06.03 23:40:54.
