data_PCOD9327402
_publ_section_title
;
Structure prediction by ZEFSAII (Michael W. Deem and Ramdas Pophale) SiO2 
 PCOD9327402
Probable space group: F 2 2 2
;
_chemical_formula_sum "Si O2"
_cell_formula_units_Z 116
_cell_length_a 17.120691
_cell_length_b 11.165850
_cell_length_c 31.328506
_cell_angle_alpha 90.000000
_cell_angle_beta 90.000000
_cell_angle_gamma 90.000000
_cell_volume 5988.978624
_symmetry_space_group_name_H-M "F 2 2 2"
_symmetry_group_IT_number 22
_symmetry_cell_setting 'orthorhombic'
loop_
_space_group_symop_operation_xyz
x,y,z
-x,-y,z
x,-y,-z
-x,y,-z
x,1/2+y,1/2+z
-x,1/2-y,1/2+z
x,1/2-y,1/2-z
-x,1/2+y,1/2-z
1/2+x,y,1/2+z
1/2-x,-y,1/2+z
1/2+x,-y,1/2-z
1/2-x,y,1/2-z
1/2+x,1/2+y,z
1/2-x,1/2-y,z
1/2+x,1/2-y,-z
1/2-x,1/2+y,-z
loop_
_atom_site_type_symbol
_atom_site_label
_atom_site_fract_x
_atom_site_fract_y
_atom_site_fract_z
Si Si1 0.510169 0.355975 0.950178
Si Si2 0.651131 0.478059 0.833279
Si Si3 0.082386 0.711294 0.372486
Si Si4 0.750000 0.750000 0.250000
Si Si5 0.840958 0.260618 0.601899
Si Si6 0.953443 0.617494 0.153801
Si Si7 0.701434 0.140496 0.181961
Si Si8 0.128164 0.941439 0.734760
O O1 0.500000 0.500000 0.944573
O O2 0.440988 0.296582 0.921971
O O3 0.593881 0.306828 0.932432
O O4 0.500000 0.329325 0.000000
O O5 0.597772 0.578906 0.855029
O O6 0.657718 0.360560 0.861210
O O7 0.735326 0.542794 0.831965
O O8 0.622409 0.448360 0.785476
O O9 0.151202 0.799670 0.356178
O O10 0.005764 0.766221 0.351421
O O11 0.804988 0.841997 0.274830
O O12 0.750000 0.250000 0.587523
O O13 0.876725 0.141939 0.625039
O O14 0.939605 0.601066 0.203974
O O15 0.000000 0.500000 0.138363
O O16 0.750000 0.250000 0.200930
O O17 0.650336 0.071759 0.216701
#
# Coordination Sequence:
#
# PCOD9327402 Si02
#       8
#    16  16  16   4  16  16  16  16
#     4  10  21  45  75  97 132 168 209 266 348 421
#     4  11  22  39  62  91 129 173 232 269 325 379
#     4  10  22  42  62  94 125 168 217 271 335 400
#     4  12  24  40  54  80 116 168 238 286 320 356
#     4  11  24  41  71 100 131 169 221 277 325 397
#     4  11  24  42  57  88 131 181 220 267 331 374
#     4  10  21  37  60  86 125 171 218 274 323 384
#     4  12  23  39  57  84 126 178 231 269 322 371
#
# _framework density 19.368912000000002
#
# number of rings (size 3 to 8) (size 9 to 14) (size 15 to 20)
#    0.000    1.241    4.138    1.655    1.931    3.862 
#    9.931    2.069    0.000    6.621    0.000    0.000 
#    0.000    0.000    0.000    0.000    0.000    0.000 
#
# Total GULP energy -161767.907883 kJ/mol
# GULP energy per Si atom -5578.203720 kJ/mol
# Density = 1.932483 g / cm^3
# Si number density = 19.368912 Si / 1000 Ang^3
#
#
#
# Elastic Constant Matrix: (Units=GPa)
#
#
# Indices 1 2 3 4 5 6 
#
# 1 82.0658 25.8399 48.7987 0.0000 0.0000 0.0000
# 2 25.8399 86.0112 40.0806 0.0000 0.0000 0.0000
# 3 48.7987 40.0806 149.5886 0.0000 0.0000 0.0000
# 4 0.0000 0.0000 0.0000 21.1990 0.0000 0.0000
# 5 0.0000 0.0000 0.0000 0.0000 17.7147 0.0000
# 6 0.0000 0.0000 0.0000 0.0000 0.0000 40.5735
#
#
#
# Elastic Compliance Matrix: (Units=1/GPa)
#
#
# Indices 1 2 3 4 5 6 
#
# 1 0.015629 -0.002650 -0.004388 0.000000 0.000000 0.000000
# 2 -0.002650 0.013735 -0.002815 0.000000 0.000000 0.000000
# 3 -0.004388 -0.002815 0.008871 0.000000 0.000000 0.000000
# 4 0.000000 0.000000 0.000000 0.047172 0.000000 0.000000
# 5 0.000000 0.000000 0.000000 0.000000 0.056450 0.000000
# 6 0.000000 0.000000 0.000000 0.000000 0.000000 0.024647
#
#
# Mechanical properties :
#
#
# Convention : Reuss Voigt Hill
#
# Bulk Modulus (GPa) = 53.97726 60.78933 57.38329
# Shear Modulus (GPa) = 25.98916 29.42720 27.70818
#
# Velocity S-wave (km/s) = 3.66703 3.90205 3.78636
# Velocity P-wave (km/s) = 6.77185 7.19406 6.98614
#
# Compressibility (1/GPa) = 0.01852632
#
# Stress axis : x y z
#
# Youngs Moduli (GPa) = 63.98207 72.80874 112.72754
#
# Poissons Ratio (x) = 0.19298 0.49470
# Poissons Ratio (y) = 0.16958 0.31737
# Poissons Ratio (z) = 0.28078 0.20499
#
# Static dielectric constant tensor:
#      x y z
#    x 1.790090 0.000000 0.000000 
#    y 0.000000 1.731040 0.000000 
#    z 0.000000 0.000000 1.656760 
# 
# From -- ./inp_files/56830.got.cif
#   From: 2010.05.17/outbox.cif.g08.bks.cpg/sg22_29_cif.got.tgz:56830.got - 2010.06.03 23:40:54.
