data_PCOD9327131
_publ_section_title
;
Structure prediction by ZEFSAII (Michael W. Deem and Ramdas Pophale) SiO2 
 PCOD9327131
Probable space group: F 2 2 2
;
_chemical_formula_sum "Si O2"
_cell_formula_units_Z 88
_cell_length_a 20.009067
_cell_length_b 13.185359
_cell_length_c 16.470068
_cell_angle_alpha 90.000000
_cell_angle_beta 90.000000
_cell_angle_gamma 90.000000
_cell_volume 4345.244210
_symmetry_space_group_name_H-M "F 2 2 2"
_symmetry_group_IT_number 22
_symmetry_cell_setting 'orthorhombic'
loop_
_space_group_symop_operation_xyz
x,y,z
-x,-y,z
x,-y,-z
-x,y,-z
x,1/2+y,1/2+z
-x,1/2-y,1/2+z
x,1/2-y,1/2-z
-x,1/2+y,1/2-z
1/2+x,y,1/2+z
1/2-x,-y,1/2+z
1/2+x,-y,1/2-z
1/2-x,y,1/2-z
1/2+x,1/2+y,z
1/2-x,1/2-y,z
1/2+x,1/2-y,-z
1/2-x,1/2+y,-z
loop_
_atom_site_type_symbol
_atom_site_label
_atom_site_fract_x
_atom_site_fract_y
_atom_site_fract_z
Si Si1 0.257256 0.583139 0.057799
Si Si2 0.652960 0.842463 0.812190
Si Si3 0.114062 0.472200 0.661744
Si Si4 0.613121 0.715742 0.157337
Si Si5 0.750000 0.750000 0.428678
Si Si6 0.030538 0.774127 0.152615
O O1 0.211564 0.625867 0.128863
O O2 0.324709 0.547609 0.100810
O O3 0.273361 0.335291 0.009457
O O4 0.222737 0.500000 0.000000
O O5 0.669891 0.750000 0.750000
O O6 0.633553 0.935184 0.752888
O O7 0.592356 0.799453 0.867569
O O8 0.105865 0.592895 0.657866
O O9 0.055126 0.390829 0.640634
O O10 0.612900 0.750000 0.250000
O O11 0.682235 0.761489 0.122950
O O12 0.542358 0.748996 0.117347
O O13 0.025615 0.750000 0.250000
#
# Coordination Sequence:
#
# PCOD9327131 Si02
#       6
#    16  16  16  16   8  16
#     4  12  24  39  60  92 129 158 205 256 312 363
#     4   9  20  39  67  91 114 161 213 259 295 362
#     4  10  20  39  66  91 115 158 207 253 302 363
#     4  11  23  38  60  91 124 161 200 248 312 373
#     4  12  25  40  57  84 130 166 194 252 317 370
#     4   8  18  38  64  93 114 150 213 265 292 346
#
# _framework density 20.252026999999998
#
# number of rings (size 3 to 8) (size 9 to 14) (size 15 to 20)
#    0.000    2.182    1.818    3.545    2.545    4.364 
#    0.000    3.636    0.000    1.091    0.000    0.000 
#    0.000    0.000    0.000    0.000    0.000    0.000 
#
# Total GULP energy -122468.879969 kJ/mol
# GULP energy per Si atom -5566.767271 kJ/mol
# Density = 2.020593 g / cm^3
# Si number density = 20.252027 Si / 1000 Ang^3
#
#
#
# Elastic Constant Matrix: (Units=GPa)
#
#
# Indices 1 2 3 4 5 6 
#
# 1 146.9990 25.4036 43.6418 0.0000 0.0000 0.0000
# 2 25.4036 56.1779 15.2333 0.0000 0.0000 0.0000
# 3 43.6418 15.2333 50.3812 0.0000 0.0000 0.0000
# 4 0.0000 0.0000 0.0000 30.6570 0.0000 0.0000
# 5 0.0000 0.0000 0.0000 0.0000 83.4012 0.0000
# 6 0.0000 0.0000 0.0000 0.0000 0.0000 19.3408
#
#
#
# Elastic Compliance Matrix: (Units=1/GPa)
#
#
# Indices 1 2 3 4 5 6 
#
# 1 0.009407 -0.002227 -0.007475 0.000000 0.000000 0.000000
# 2 -0.002227 0.019918 -0.004093 0.000000 0.000000 0.000000
# 3 -0.007475 -0.004093 0.027562 0.000000 0.000000 0.000000
# 4 0.000000 0.000000 0.000000 0.032619 0.000000 0.000000
# 5 0.000000 0.000000 0.000000 0.000000 0.011990 0.000000
# 6 0.000000 0.000000 0.000000 0.000000 0.000000 0.051704
#
#
# Mechanical properties :
#
#
# Convention : Reuss Voigt Hill
#
# Bulk Modulus (GPa) = 34.13525 46.90173 40.51849
# Shear Modulus (GPa) = 26.23909 37.96507 32.10208
#
# Velocity S-wave (km/s) = 3.60339 4.33440 3.98569
# Velocity P-wave (km/s) = 5.84845 6.94684 6.42118
#
# Compressibility (1/GPa) = 0.02929523
#
# Stress axis : x y z
#
# Youngs Moduli (GPa) = 106.30518 50.20704 36.28229
#
# Poissons Ratio (x) = 0.11180 0.27122
# Poissons Ratio (y) = 0.23672 0.14852
# Poissons Ratio (z) = 0.79466 0.20552
#
# Static dielectric constant tensor:
#      x y z
#    x 1.788970 0.000000 0.000000 
#    y 0.000000 1.579140 0.000000 
#    z 0.000000 0.000000 1.609050 
# 
# From -- ./inp_files/38798.got.cif
#   From: 2010.05.17/outbox.cif.g08.bks.cpg/sg22_20_cif.got.tgz:38798.got - 2010.06.03 23:40:54.
