data_PCOD9327287
_publ_section_title
;
Structure prediction by ZEFSAII (Michael W. Deem and Ramdas Pophale) SiO2 
 PCOD9327287
Probable space group: F 2 2 2
;
_chemical_formula_sum "Si O2"
_cell_formula_units_Z 104
_cell_length_a 19.353562
_cell_length_b 27.686179
_cell_length_c 9.365036
_cell_angle_alpha 90.000000
_cell_angle_beta 90.000000
_cell_angle_gamma 90.000000
_cell_volume 5018.031482
_symmetry_space_group_name_H-M "F 2 2 2"
_symmetry_group_IT_number 22
_symmetry_cell_setting 'orthorhombic'
loop_
_space_group_symop_operation_xyz
x,y,z
-x,-y,z
x,-y,-z
-x,y,-z
x,1/2+y,1/2+z
-x,1/2-y,1/2+z
x,1/2-y,1/2-z
-x,1/2+y,1/2-z
1/2+x,y,1/2+z
1/2-x,-y,1/2+z
1/2+x,-y,1/2-z
1/2-x,y,1/2-z
1/2+x,1/2+y,z
1/2-x,1/2-y,z
1/2+x,1/2-y,-z
1/2-x,1/2+y,-z
loop_
_atom_site_type_symbol
_atom_site_label
_atom_site_fract_x
_atom_site_fract_y
_atom_site_fract_z
Si Si1 0.325221 0.959404 0.683210
Si Si2 0.579048 0.799376 0.007271
Si Si3 0.168446 0.167887 0.766519
Si Si4 0.000000 0.609370 0.500000
Si Si5 0.893859 0.860947 0.233338
Si Si6 0.321484 0.718556 0.932392
Si Si7 0.868012 0.562888 0.631677
O O1 0.250000 0.961431 0.750000
O O2 0.367663 0.915251 0.746702
O O3 0.324365 0.945345 0.514518
O O4 0.361040 0.011247 0.705650
O O5 0.620270 0.811640 0.860583
O O6 0.500000 0.784161 0.000000
O O7 0.581048 0.844550 0.113134
O O8 0.620449 0.758197 0.089442
O O9 0.250000 0.176118 0.750000
O O10 0.156662 0.110521 0.785692
O O11 0.157511 0.195380 0.915242
O O12 0.044870 0.639525 0.614746
O O13 0.054823 0.575933 0.417999
O O14 0.832014 0.826038 0.176083
O O15 0.250000 0.750000 0.931782
#
# Coordination Sequence:
#
# PCOD9327287 Si02
#       7
#    16  16  16   8  16  16  16
#     4  10  22  40  66 100 132 168 231 285 345 412
#     4  12  29  43  67 104 146 183 236 299 360 416
#     4  12  24  46  70 100 140 186 236 289 354 431
#     4  10  20  45  74  96 138 178 244 272 363 424
#     4  11  26  44  72 100 138 183 230 302 346 428
#     4  12  26  47  69 101 133 189 247 287 356 429
#     4  10  22  41  71 100 130 182 223 288 349 428
#
# _framework density 20.725259000000001
#
# number of rings (size 3 to 8) (size 9 to 14) (size 15 to 20)
#    0.000    0.923    4.615    2.308    5.385    6.769 
#    0.000    0.000    0.000    0.923    0.000    0.000 
#    0.000    0.000    0.000    0.000    0.000    0.000 
#
# Total GULP energy -145152.379894 kJ/mol
# GULP energy per Si atom -5582.783842 kJ/mol
# Density = 2.067809 g / cm^3
# Si number density = 20.725259 Si / 1000 Ang^3
#
#
#
# Elastic Constant Matrix: (Units=GPa)
#
#
# Indices 1 2 3 4 5 6 
#
# 1 123.8964 12.9691 39.9622 0.0000 0.0000 0.0000
# 2 12.9691 84.2524 11.3720 0.0000 0.0000 0.0000
# 3 39.9622 11.3720 52.7000 0.0001 -0.0001 0.0001
# 4 0.0000 0.0000 0.0001 22.6501 0.0000 0.0000
# 5 0.0000 0.0000 -0.0001 0.0000 14.7085 0.0000
# 6 0.0000 0.0000 0.0001 0.0000 0.0000 24.0954
#
#
#
# Elastic Compliance Matrix: (Units=1/GPa)
#
#
# Indices 1 2 3 4 5 6 
#
# 1 0.010711 -0.000569 -0.007999 0.000000 0.000000 0.000000
# 2 -0.000569 0.012255 -0.002213 0.000000 0.000000 0.000000
# 3 -0.007999 -0.002213 0.025519 0.000000 0.000000 0.000000
# 4 0.000000 0.000000 0.000000 0.044150 0.000000 0.000000
# 5 0.000000 0.000000 0.000000 0.000000 0.067988 0.000000
# 6 0.000000 0.000000 0.000000 0.000000 0.000000 0.041502
#
#
# Mechanical properties :
#
#
# Convention : Reuss Voigt Hill
#
# Bulk Modulus (GPa) = 37.14394 43.27283 40.20839
# Shear Modulus (GPa) = 21.49044 25.39382 23.44213
#
# Velocity S-wave (km/s) = 3.22362 3.50417 3.36682
# Velocity P-wave (km/s) = 5.64062 6.10712 5.87850
#
# Compressibility (1/GPa) = 0.02692229
#
# Stress axis : x y z
#
# Youngs Moduli (GPa) = 93.36231 81.59663 39.18690
#
# Poissons Ratio (x) = 0.04643 0.31347
# Poissons Ratio (y) = 0.05313 0.08672
# Poissons Ratio (z) = 0.74683 0.18058
#
# Static dielectric constant tensor:
#      x y z
#    x 1.388250 0.000000 0.000000 
#    y 0.000000 1.754320 0.000000 
#    z 0.000000 0.000000 1.846610 
# 
# From -- ./inp_files/12934.got.cif
#   From: 2010.05.17/outbox.cif.g08.bks.cpg/sg22_7_cif.got.tgz:12934.got - 2010.06.03 23:40:54.
