data_PCOD9327753
_publ_section_title
;
Structure prediction by ZEFSAII (Michael W. Deem and Ramdas Pophale) SiO2 
 PCOD9327753
Probable space group: F 2 2 2
;
_chemical_formula_sum "Si O2"
_cell_formula_units_Z 88
_cell_length_a 25.792744
_cell_length_b 13.199740
_cell_length_c 13.271227
_cell_angle_alpha 90.000000
_cell_angle_beta 90.000000
_cell_angle_gamma 90.000000
_cell_volume 4518.288961
_symmetry_space_group_name_H-M "F 2 2 2"
_symmetry_group_IT_number 22
_symmetry_cell_setting 'orthorhombic'
loop_
_space_group_symop_operation_xyz
x,y,z
-x,-y,z
x,-y,-z
-x,y,-z
x,1/2+y,1/2+z
-x,1/2-y,1/2+z
x,1/2-y,1/2-z
-x,1/2+y,1/2-z
1/2+x,y,1/2+z
1/2-x,-y,1/2+z
1/2+x,-y,1/2-z
1/2-x,y,1/2-z
1/2+x,1/2+y,z
1/2-x,1/2-y,z
1/2+x,1/2-y,-z
1/2-x,1/2+y,-z
loop_
_atom_site_type_symbol
_atom_site_label
_atom_site_fract_x
_atom_site_fract_y
_atom_site_fract_z
Si Si1 0.942455 0.459108 0.202912
Si Si2 0.721688 0.500000 0.500000
Si Si3 0.292301 0.494633 0.178756
Si Si4 0.371074 0.360570 0.291296
Si Si5 0.871611 0.141623 0.467599
Si Si6 0.125966 0.671177 0.334949
O O1 0.913369 0.558530 0.242327
O O2 0.914283 0.417874 0.100613
O O3 0.927501 0.373554 0.286527
O O4 0.000000 0.500000 0.185305
O O5 0.760326 0.455233 0.583246
O O6 0.683124 0.416916 0.450167
O O7 0.250000 0.546901 0.250000
O O8 0.318402 0.405983 0.244465
O O9 0.335345 0.577590 0.150678
O O10 0.380189 0.250000 0.250000
O O11 0.374975 0.361812 0.412124
O O12 0.876423 0.257487 0.431964
O O13 0.146123 0.750000 0.250000
#
# Coordination Sequence:
#
# PCOD9327753 Si02
#       6
#    16   8  16  16  16  16
#     4  10  21  43  70  93 123 164 213 279 333 398
#     4  12  22  38  63  90 131 176 228 266 320 388
#     4  11  22  40  57  87 129 174 218 273 320 381
#     4  11  24  40  58  91 135 167 214 273 329 388
#     4  11  21  42  62  95 129 168 221 268 320 402
#     4   9  21  38  64  92 124 163 216 270 324 390
#
# _framework density 19.476400999999999
#
# number of rings (size 3 to 8) (size 9 to 14) (size 15 to 20)
#    0.000    1.455    3.636    2.182    2.545    6.545 
#    0.000    0.000    0.000    1.091    0.000    0.000 
#    0.000    0.000    0.000    0.000    0.000    0.000 
#
# Total GULP energy -122528.746223 kJ/mol
# GULP energy per Si atom -5569.488465 kJ/mol
# Density = 1.943207 g / cm^3
# Si number density = 19.476401 Si / 1000 Ang^3
#
#
#
# Elastic Constant Matrix: (Units=GPa)
#
#
# Indices 1 2 3 4 5 6 
#
# 1 117.0002 40.4930 50.6706 0.0000 0.0000 0.0000
# 2 40.4930 133.4396 44.8291 0.0000 0.0000 0.0000
# 3 50.6706 44.8291 79.4149 0.0000 0.0000 0.0000
# 4 0.0000 0.0000 0.0000 37.5261 0.0000 0.0000
# 5 0.0000 0.0000 0.0000 0.0000 21.5479 0.0000
# 6 0.0000 0.0000 0.0000 0.0000 0.0000 9.4867
#
#
#
# Elastic Compliance Matrix: (Units=1/GPa)
#
#
# Indices 1 2 3 4 5 6 
#
# 1 0.011996 -0.001319 -0.006909 0.000000 0.000000 0.000000
# 2 -0.001319 0.009393 -0.004461 0.000000 0.000000 0.000000
# 3 -0.006909 -0.004461 0.019519 0.000000 0.000000 0.000000
# 4 0.000000 0.000000 0.000000 0.026648 0.000000 0.000000
# 5 0.000000 0.000000 0.000000 0.000000 0.046408 0.000000
# 6 0.000000 0.000000 0.000000 0.000000 0.000000 0.105411
#
#
# Mechanical properties :
#
#
# Convention : Reuss Voigt Hill
#
# Bulk Modulus (GPa) = 64.39430 66.87111 65.63271
# Shear Modulus (GPa) = 20.00572 26.63626 23.32099
#
# Velocity S-wave (km/s) = 3.20844 3.70214 3.46410
# Velocity P-wave (km/s) = 6.84543 7.25834 7.05491
#
# Compressibility (1/GPa) = 0.01552932
#
# Stress axis : x y z
#
# Youngs Moduli (GPa) = 83.36253 106.46428 51.23327
#
# Poissons Ratio (x) = 0.14043 0.35399
# Poissons Ratio (y) = 0.10995 0.22853
# Poissons Ratio (z) = 0.57598 0.47489
#
# Static dielectric constant tensor:
#      x y z
#    x 1.728400 0.000000 0.000000 
#    y 0.000000 1.700780 0.000000 
#    z 0.000000 0.000000 1.744980 
# 
# From -- ./inp_files/33102.got.cif
#   From: 2010.05.17/outbox.cif.g08.bks.cpg/sg22_17_cif.got.tgz:33102.got - 2010.06.03 23:40:54.
