data_PCOD9327946
_publ_section_title
;
Structure prediction by ZEFSAII (Michael W. Deem and Ramdas Pophale) SiO2 
 PCOD9327946
Probable space group: F 2 2 2
;
_chemical_formula_sum "Si O2"
_cell_formula_units_Z 68
_cell_length_a 9.372955
_cell_length_b 18.131043
_cell_length_c 18.735137
_cell_angle_alpha 90.000000
_cell_angle_beta 90.000000
_cell_angle_gamma 90.000000
_cell_volume 3183.876350
_symmetry_space_group_name_H-M "F 2 2 2"
_symmetry_group_IT_number 22
_symmetry_cell_setting 'orthorhombic'
loop_
_space_group_symop_operation_xyz
x,y,z
-x,-y,z
x,-y,-z
-x,y,-z
x,1/2+y,1/2+z
-x,1/2-y,1/2+z
x,1/2-y,1/2-z
-x,1/2+y,1/2-z
1/2+x,y,1/2+z
1/2-x,-y,1/2+z
1/2+x,-y,1/2-z
1/2-x,y,1/2-z
1/2+x,1/2+y,z
1/2-x,1/2-y,z
1/2+x,1/2-y,-z
1/2-x,1/2+y,-z
loop_
_atom_site_type_symbol
_atom_site_label
_atom_site_fract_x
_atom_site_fract_y
_atom_site_fract_z
Si Si1 0.750000 0.750000 0.026704
Si Si2 0.000000 0.000000 0.500000
Si Si3 0.081891 0.424004 0.352876
Si Si4 0.088758 0.162459 0.737584
Si Si5 0.885366 0.884753 0.386919
Si Si6 0.500000 0.848507 0.500000
O O1 0.832059 0.691056 0.076347
O O2 0.634061 0.704254 0.982215
O O3 0.083228 0.055571 0.448095
O O4 0.252179 0.420041 0.344426
O O5 0.000000 0.500000 0.340720
O O6 0.014069 0.367362 0.298441
O O7 0.046362 0.397201 0.433131
O O8 0.090794 0.250000 0.750000
O O9 0.250000 0.134854 0.750000
O O10 0.019499 0.134984 0.663168
#
# Coordination Sequence:
#
# PCOD9327946 Si02
#       6
#     8   4  16  16  16   8
#     4  10  22  42  73 100 139 194 230 300 342 438
#     4  12  30  44  74 110 152 192 230 316 358 436
#     4  11  26  41  70 100 140 188 227 295 346 424
#     4  11  26  46  74 107 141 184 239 295 353 431
#     4  11  26  46  71 104 146 191 240 290 370 423
#     4  10  22  40  66 100 138 176 244 278 352 410
#
# _framework density 21.357613000000001
#
# number of rings (size 3 to 8) (size 9 to 14) (size 15 to 20)
#    0.000    1.176    0.000    4.588   11.529    4.706 
#    0.000    0.000    0.000    0.000    0.000    0.000 
#    0.000    0.000    0.000    0.000    0.000    0.000 
#
# Total GULP energy -95047.325722 kJ/mol
# GULP energy per Si atom -5591.019160 kJ/mol
# Density = 2.130900 g / cm^3
# Si number density = 21.357613 Si / 1000 Ang^3
#
#
#
# Elastic Constant Matrix: (Units=GPa)
#
#
# Indices 1 2 3 4 5 6 
#
# 1 155.5703 36.1824 36.8095 0.0000 0.0000 0.0000
# 2 36.1824 99.3852 20.7033 0.0000 0.0000 0.0000
# 3 36.8095 20.7033 74.7166 0.0000 0.0000 0.0000
# 4 0.0000 0.0000 0.0000 32.9479 0.0000 0.0000
# 5 0.0000 0.0000 0.0000 0.0000 46.7987 0.0000
# 6 0.0000 0.0000 0.0000 0.0000 0.0000 63.3182
#
#
#
# Elastic Compliance Matrix: (Units=1/GPa)
#
#
# Indices 1 2 3 4 5 6 
#
# 1 0.007679 -0.002131 -0.003193 0.000000 0.000000 0.000000
# 2 -0.002131 0.011269 -0.002073 0.000000 0.000000 0.000000
# 3 -0.003193 -0.002073 0.015531 0.000000 0.000000 0.000000
# 4 0.000000 0.000000 0.000000 0.030351 0.000000 0.000000
# 5 0.000000 0.000000 0.000000 0.000000 0.021368 0.000000
# 6 0.000000 0.000000 0.000000 0.000000 0.000000 0.015793
#
#
# Mechanical properties :
#
#
# Convention : Reuss Voigt Hill
#
# Bulk Modulus (GPa) = 50.79499 57.45138 54.12319
# Shear Modulus (GPa) = 40.53620 44.34477 42.44048
#
# Velocity S-wave (km/s) = 4.36130 4.56158 4.46257
# Velocity P-wave (km/s) = 7.01398 7.39609 7.20757
#
# Compressibility (1/GPa) = 0.01968698
#
# Stress axis : x y z
#
# Youngs Moduli (GPa) = 130.22707 88.73635 64.38641
#
# Poissons Ratio (x) = 0.18905 0.20557
# Poissons Ratio (y) = 0.27745 0.13348
# Poissons Ratio (z) = 0.41578 0.18395
#
# Static dielectric constant tensor:
#      x y z
#    x 1.796760 0.000000 0.000000 
#    y 0.000000 1.771440 0.000000 
#    z 0.000000 0.000000 1.759600 
# 
# From -- ./inp_files/11305.got.cif
#   From: 2010.05.17/outbox.cif.g08.bks.cpg/sg22_6_cif.got.tgz:11305.got - 2010.06.03 23:40:54.
