data_PCOD9327898
_publ_section_title
;
Structure prediction by ZEFSAII (Michael W. Deem and Ramdas Pophale) SiO2 
 PCOD9327898
Probable space group: F 2 2 2
;
_chemical_formula_sum "Si O2"
_cell_formula_units_Z 120
_cell_length_a 20.585307
_cell_length_b 12.790772
_cell_length_c 22.630312
_cell_angle_alpha 90.000000
_cell_angle_beta 90.000000
_cell_angle_gamma 90.000000
_cell_volume 5958.605695
_symmetry_space_group_name_H-M "F 2 2 2"
_symmetry_group_IT_number 22
_symmetry_cell_setting 'orthorhombic'
loop_
_space_group_symop_operation_xyz
x,y,z
-x,-y,z
x,-y,-z
-x,y,-z
x,1/2+y,1/2+z
-x,1/2-y,1/2+z
x,1/2-y,1/2-z
-x,1/2+y,1/2-z
1/2+x,y,1/2+z
1/2-x,-y,1/2+z
1/2+x,-y,1/2-z
1/2-x,y,1/2-z
1/2+x,1/2+y,z
1/2-x,1/2-y,z
1/2+x,1/2-y,-z
1/2-x,1/2+y,-z
loop_
_atom_site_type_symbol
_atom_site_label
_atom_site_fract_x
_atom_site_fract_y
_atom_site_fract_z
Si Si1 0.446043 0.088850 0.363745
Si Si2 0.768041 0.871334 0.622890
Si Si3 0.750000 0.974844 0.750000
Si Si4 0.464778 0.093317 0.154055
Si Si5 0.364994 0.638364 0.751839
Si Si6 0.897358 0.444871 0.058961
Si Si7 0.641464 0.054884 0.436609
Si Si8 0.460316 0.255880 0.916630
O O1 0.419219 0.137591 0.303551
O O2 0.477219 0.167148 0.412908
O O3 0.500000 0.000000 0.351479
O O4 0.385638 0.029842 0.391391
O O5 0.750000 0.750000 0.621152
O O6 0.759745 0.909692 0.690100
O O7 0.839431 0.899510 0.599143
O O8 0.715649 0.924012 0.579458
O O9 0.686510 0.046610 0.741594
O O10 0.403658 0.128961 0.190808
O O11 0.517827 0.183307 0.140125
O O12 0.500000 0.000000 0.189063
O O13 0.436360 0.032862 0.096257
O O14 0.330628 0.750000 0.750000
O O15 0.940712 0.342402 0.042400
O O16 0.873023 0.500000 0.000000
O O17 0.598485 0.160615 0.424596
O O18 0.632635 0.000000 0.500000
#
# Coordination Sequence:
#
# PCOD9327898 Si02
#       8
#    16  16   8  16  16  16  16  16
#     4  10  22  39  65  97 134 172 215 270 329 396
#     4  12  24  48  68  98 130 174 230 276 338 388
#     4  12  26  44  72  94 128 170 224 294 324 400
#     4  10  22  39  65  97 134 172 215 270 329 396
#     4  12  22  42  64  96 130 175 217 273 340 389
#     4  11  24  42  69  96 134 178 218 276 326 390
#     4  11  24  42  69  96 134 178 218 276 326 390
#     4  10  22  43  64  97 130 172 224 259 326 401
#
# _framework density 20.138939000000001
#
# number of rings (size 3 to 8) (size 9 to 14) (size 15 to 20)
#    0.000    1.067    5.333    1.200    0.000    6.933 
#    0.000    1.333    0.000    0.000    0.000    0.000 
#    0.000    0.000    0.000    0.000    0.000    0.000 
#
# Total GULP energy -167042.633128 kJ/mol
# GULP energy per Si atom -5568.087771 kJ/mol
# Density = 2.009310 g / cm^3
# Si number density = 20.138939 Si / 1000 Ang^3
#
#
#
# Elastic Constant Matrix: (Units=GPa)
#
#
# Indices 1 2 3 4 5 6 
#
# 1 105.4008 36.7622 32.6626 0.0000 0.0000 0.0000
# 2 36.7622 112.5771 43.6236 0.0000 0.0000 0.0000
# 3 32.6626 43.6236 85.2879 0.0000 0.0000 0.0000
# 4 0.0000 0.0000 0.0000 8.5279 0.0000 0.0000
# 5 0.0000 0.0000 0.0000 0.0000 25.3388 0.0000
# 6 0.0000 0.0000 0.0000 0.0000 0.0000 28.3710
#
#
#
# Elastic Compliance Matrix: (Units=1/GPa)
#
#
# Indices 1 2 3 4 5 6 
#
# 1 0.011308 -0.002512 -0.003045 0.000000 0.000000 0.000000
# 2 -0.002512 0.011637 -0.004990 0.000000 0.000000 0.000000
# 3 -0.003045 -0.004990 0.015444 0.000000 0.000000 0.000000
# 4 0.000000 0.000000 0.000000 0.117263 0.000000 0.000000
# 5 0.000000 0.000000 0.000000 0.000000 0.039465 0.000000
# 6 0.000000 0.000000 0.000000 0.000000 0.000000 0.035247
#
#
# Mechanical properties :
#
#
# Convention : Reuss Voigt Hill
#
# Bulk Modulus (GPa) = 57.82835 58.81808 58.32322
# Shear Modulus (GPa) = 19.43841 25.12869 22.28355
#
# Velocity S-wave (km/s) = 3.11016 3.53621 3.33000
# Velocity P-wave (km/s) = 6.45558 6.77809 6.61880
#
# Compressibility (1/GPa) = 0.01729256
#
# Stress axis : x y z
#
# Youngs Moduli (GPa) = 88.43587 85.93412 64.75200
#
# Poissons Ratio (x) = 0.21590 0.19719
# Poissons Ratio (y) = 0.22219 0.32311
# Poissons Ratio (z) = 0.26932 0.42880
#
# Static dielectric constant tensor:
#      x y z
#    x 1.696800 0.000000 0.000000 
#    y 0.000000 1.744750 0.000000 
#    z 0.000000 0.000000 1.737180 
# 
# From -- ./inp_files/50009.got.cif
#   From: 2010.05.17/outbox.cif.g08.bks.cpg/sg22_26_cif.got.tgz:50009.got - 2010.06.03 23:40:54.
