data_PCOD9327861
_publ_section_title
;
Structure prediction by ZEFSAII (Michael W. Deem and Ramdas Pophale) SiO2 
 PCOD9327861
Probable space group: F 2 2 2
;
_chemical_formula_sum "Si O2"
_cell_formula_units_Z 84
_cell_length_a 9.873196
_cell_length_b 17.918574
_cell_length_c 23.767674
_cell_angle_alpha 90.000000
_cell_angle_beta 90.000000
_cell_angle_gamma 90.000000
_cell_volume 4204.824608
_symmetry_space_group_name_H-M "F 2 2 2"
_symmetry_group_IT_number 22
_symmetry_cell_setting 'orthorhombic'
loop_
_space_group_symop_operation_xyz
x,y,z
-x,-y,z
x,-y,-z
-x,y,-z
x,1/2+y,1/2+z
-x,1/2-y,1/2+z
x,1/2-y,1/2-z
-x,1/2+y,1/2-z
1/2+x,y,1/2+z
1/2-x,-y,1/2+z
1/2+x,-y,1/2-z
1/2-x,y,1/2-z
1/2+x,1/2+y,z
1/2-x,1/2-y,z
1/2+x,1/2-y,-z
1/2-x,1/2+y,-z
loop_
_atom_site_type_symbol
_atom_site_label
_atom_site_fract_x
_atom_site_fract_y
_atom_site_fract_z
Si Si1 0.833849 0.824338 0.636856
Si Si2 0.125535 0.140682 0.341311
Si Si3 0.000000 0.500000 0.775932
Si Si4 0.645696 0.593492 0.070630
Si Si5 0.154965 0.585800 0.439971
Si Si6 0.250000 0.750000 0.750000
Si Si7 0.750000 0.092494 0.250000
O O1 0.750000 0.750000 0.626670
O O2 0.781797 0.884352 0.592981
O O3 0.791322 0.856241 0.697816
O O4 0.994538 0.819747 0.632088
O O5 0.246063 0.126108 0.385685
O O6 0.168656 0.194582 0.290643
O O7 0.073589 0.062139 0.314782
O O8 0.118027 0.459602 0.740264
O O9 0.653966 0.503363 0.067703
O O10 0.489682 0.613282 0.084428
O O11 0.665259 0.612040 0.004663
#
# Coordination Sequence:
#
# PCOD9327861 Si02
#       7
#    16  16   8  16  16   4   8
#     4  11  25  39  58  90 127 171 209 258 316 383
#     4  11  25  42  65  93 132 171 221 268 325 391
#     4  10  22  40  64  97 118 169 224 264 314 392
#     4   9  19  41  68  97 128 165 209 264 321 385
#     4   9  20  39  68  99 128 162 211 264 320 380
#     4  12  30  44  62  98 140 178 214 274 342 396
#     4  10  22  38  62  86 124 158 210 266 317 367
#
# _framework density 19.977050999999999
#
# number of rings (size 3 to 8) (size 9 to 14) (size 15 to 20)
#    0.000    1.905    0.000    4.286    8.000    3.810 
#    1.714    1.905    0.000    0.000    0.000    0.000 
#    0.000    0.000    0.000    0.000    0.000    0.000 
#
# Total GULP energy -117222.849422 kJ/mol
# GULP energy per Si atom -5582.040449 kJ/mol
# Density = 1.993158 g / cm^3
# Si number density = 19.977051 Si / 1000 Ang^3
#
#
#
# Elastic Constant Matrix: (Units=GPa)
#
#
# Indices 1 2 3 4 5 6 
#
# 1 145.0326 18.6621 59.8570 0.0000 0.0000 0.0000
# 2 18.6621 50.1298 12.1408 0.0000 0.0000 0.0000
# 3 59.8570 12.1408 68.3346 0.0000 0.0000 0.0000
# 4 0.0000 0.0000 0.0000 29.1662 0.0000 0.0000
# 5 0.0000 0.0000 0.0000 0.0000 18.5166 0.0000
# 6 0.0000 0.0000 0.0000 0.0000 0.0000 161.8902
#
#
#
# Elastic Compliance Matrix: (Units=1/GPa)
#
#
# Indices 1 2 3 4 5 6 
#
# 1 0.010958 -0.001834 -0.009273 0.000000 0.000000 0.000000
# 2 -0.001834 0.021152 -0.002152 0.000000 0.000000 0.000000
# 3 -0.009273 -0.002152 0.023139 0.000000 0.000000 0.000000
# 4 0.000000 0.000000 0.000000 0.034286 0.000000 0.000000
# 5 0.000000 0.000000 0.000000 0.000000 0.054006 0.000000
# 6 0.000000 0.000000 0.000000 0.000000 0.000000 0.006177
#
#
# Mechanical properties :
#
#
# Convention : Reuss Voigt Hill
#
# Bulk Modulus (GPa) = 34.80435 49.42407 42.11421
# Shear Modulus (GPa) = 26.90905 53.43707 40.17306
#
# Velocity S-wave (km/s) = 3.67413 5.17758 4.48924
# Velocity P-wave (km/s) = 5.95474 7.78057 6.92806
#
# Compressibility (1/GPa) = 0.02873204
#
# Stress axis : x y z
#
# Youngs Moduli (GPa) = 91.25825 47.27692 43.21800
#
# Poissons Ratio (x) = 0.08669 0.40075
# Poissons Ratio (y) = 0.16733 0.09300
# Poissons Ratio (z) = 0.84621 0.10173
#
# Static dielectric constant tensor:
#      x y z
#    x 1.696730 0.000000 0.000000 
#    y 0.000000 1.731790 0.000000 
#    z 0.000000 0.000000 1.637230 
# 
# From -- ./inp_files/47223.got.cif
#   From: 2010.05.17/outbox.cif.g08.bks.cpg/sg22_24_cif.got.tgz:47223.got - 2010.06.03 23:40:54.
