data_PCOD9327214
_publ_section_title
;
Structure prediction by ZEFSAII (Michael W. Deem and Ramdas Pophale) SiO2 
 PCOD9327214
Probable space group: F 2 2 2
;
_chemical_formula_sum "Si O2"
_cell_formula_units_Z 92
_cell_length_a 17.061377
_cell_length_b 26.632452
_cell_length_c 8.973100
_cell_angle_alpha 90.000000
_cell_angle_beta 90.000000
_cell_angle_gamma 90.000000
_cell_volume 4077.253744
_symmetry_space_group_name_H-M "F 2 2 2"
_symmetry_group_IT_number 22
_symmetry_cell_setting 'orthorhombic'
loop_
_space_group_symop_operation_xyz
x,y,z
-x,-y,z
x,-y,-z
-x,y,-z
x,1/2+y,1/2+z
-x,1/2-y,1/2+z
x,1/2-y,1/2-z
-x,1/2+y,1/2-z
1/2+x,y,1/2+z
1/2-x,-y,1/2+z
1/2+x,-y,1/2-z
1/2-x,y,1/2-z
1/2+x,1/2+y,z
1/2-x,1/2-y,z
1/2+x,1/2-y,-z
1/2-x,1/2+y,-z
loop_
_atom_site_type_symbol
_atom_site_label
_atom_site_fract_x
_atom_site_fract_y
_atom_site_fract_z
Si Si1 0.540596 0.646409 0.650568
Si Si2 0.580789 0.090471 0.449119
Si Si3 0.242770 0.550103 0.573721
Si Si4 0.956652 0.250000 0.250000
Si Si5 0.785801 0.640129 0.892338
Si Si6 0.144276 0.698168 0.503916
Si Si7 0.250000 0.750000 0.750000
O O1 0.500000 0.628056 0.500000
O O2 0.560755 0.605470 0.777684
O O3 0.499421 0.697968 0.707128
O O4 0.629488 0.663188 0.617493
O O5 0.500000 0.066718 0.500000
O O6 0.655852 0.058945 0.502069
O O7 0.597433 0.145520 0.524206
O O8 0.276318 0.500000 0.500000
O O9 0.250000 0.545175 0.750000
O O10 0.286698 0.600878 0.526215
O O11 0.909151 0.267308 0.398503
O O12 0.750000 0.610288 0.750000
O O13 0.719826 0.681729 0.908129
O O14 0.188570 0.719234 0.647643
#
# Coordination Sequence:
#
# PCOD9327214 Si02
#       7
#    16  16  16   8  16  16   4
#     4  11  24  39  66  92 133 185 228 280 341 405
#     4  10  24  43  63  93 138 176 219 273 354 421
#     4  11  25  43  75 106 130 165 219 287 348 422
#     4  10  20  41  57  90 125 183 226 288 332 389
#     4  11  20  43  68  91 129 172 226 275 346 406
#     4  10  23  36  58  88 125 172 228 283 334 396
#     4  12  24  30  58  92 130 166 244 302 332 386
#
# _framework density 22.564208000000001
#
# number of rings (size 3 to 8) (size 9 to 14) (size 15 to 20)
#    0.000    1.391    5.217    1.565    7.304    5.217 
#    0.000    1.739    0.000    0.522    0.000    0.000 
#    0.000    0.000    0.000    0.000    0.000    0.000 
#
# Total GULP energy -128181.413635 kJ/mol
# GULP energy per Si atom -5573.104941 kJ/mol
# Density = 2.251285 g / cm^3
# Si number density = 22.564208 Si / 1000 Ang^3
#
#
#
# Elastic Constant Matrix: (Units=GPa)
#
#
# Indices 1 2 3 4 5 6 
#
# 1 59.2064 -12.7393 4.4387 0.0000 0.0000 0.0000
# 2 -12.7393 52.2095 29.5672 0.0000 0.0000 0.0000
# 3 4.4387 29.5672 145.2482 0.0000 0.0000 0.0000
# 4 0.0000 0.0000 0.0000 14.0093 0.0000 0.0000
# 5 0.0000 0.0000 0.0000 0.0000 29.6745 0.0000
# 6 0.0000 0.0000 0.0000 0.0000 0.0000 -3.9563
#
#
#
# Elastic Compliance Matrix: (Units=1/GPa)
#
#
# Indices 1 2 3 4 5 6 
#
# 1 0.018168 0.005366 -0.001648 0.000000 0.000000 0.000000
# 2 0.005366 0.023234 -0.004894 0.000000 0.000000 0.000000
# 3 -0.001648 -0.004894 0.007931 0.000000 0.000000 0.000000
# 4 0.000000 0.000000 0.000000 0.071381 0.000000 0.000000
# 5 0.000000 0.000000 0.000000 0.000000 0.033699 0.000000
# 6 0.000000 0.000000 0.000000 0.000000 0.000000 -0.252761
#
#
# Mechanical properties :
#
#
# Convention : Reuss Voigt Hill
#
# Bulk Modulus (GPa) = 21.28398 33.24414 27.26406
# Shear Modulus (GPa) = -62.23924 23.63866 -19.30029
#
# Velocity S-wave (km/s) = -5.25767 3.24020 -2.92781
# Velocity P-wave (km/s) = 5.23491 5.36318 0.82443
#
# Compressibility (1/GPa) = 0.04698370
#
# Stress axis : x y z
#
# Youngs Moduli (GPa) = 55.04123 43.03980 126.08304
#
# Poissons Ratio (x) = -0.23096 0.20773
# Poissons Ratio (y) = -0.29536 0.61700
# Poissons Ratio (z) = 0.09068 0.21062
#
# Static dielectric constant tensor:
#      x y z
#    x 1.841920 0.000000 0.000000 
#    y 0.000000 1.862340 0.000000 
#    z 0.000000 0.000000 1.814990 
# 
# From -- ./inp_files/12889.got.cif
#   From: 2010.05.17/outbox.cif.g08.bks.cpg/sg22_7_cif.got.tgz:12889.got - 2010.06.03 23:40:54.
