data_PCOD9327668
_publ_section_title
;
Structure prediction by ZEFSAII (Michael W. Deem and Ramdas Pophale) SiO2 
 PCOD9327668
Probable space group: F 2 2 2
;
_chemical_formula_sum "Si O2"
_cell_formula_units_Z 36
_cell_length_a 7.527131
_cell_length_b 13.487518
_cell_length_c 12.990352
_cell_angle_alpha 90.000000
_cell_angle_beta 90.000000
_cell_angle_gamma 90.000000
_cell_volume 1318.810606
_symmetry_space_group_name_H-M "F 2 2 2"
_symmetry_group_IT_number 22
_symmetry_cell_setting 'orthorhombic'
loop_
_space_group_symop_operation_xyz
x,y,z
-x,-y,z
x,-y,-z
-x,y,-z
x,1/2+y,1/2+z
-x,1/2-y,1/2+z
x,1/2-y,1/2-z
-x,1/2+y,1/2-z
1/2+x,y,1/2+z
1/2-x,-y,1/2+z
1/2+x,-y,1/2-z
1/2-x,y,1/2-z
1/2+x,1/2+y,z
1/2-x,1/2-y,z
1/2+x,1/2-y,-z
1/2-x,1/2+y,-z
loop_
_atom_site_type_symbol
_atom_site_label
_atom_site_fract_x
_atom_site_fract_y
_atom_site_fract_z
Si Si1 0.528308 0.616970 0.830181
Si Si2 0.250000 0.250000 0.250000
Si Si3 0.403285 0.109868 0.904047
O O1 0.500000 0.500000 0.827184
O O2 0.346193 0.676008 0.832123
O O3 0.573924 0.647909 0.711684
O O4 0.689942 0.622790 0.910957
O O5 0.500000 0.000000 0.899852
O O6 0.500000 0.159291 0.000000
#
# Coordination Sequence:
#
# PCOD9327668 Si02
#       3
#    16   4  16
#     4  10  21  41  68 101 145 188 234 295 360 433
#     4  12  24  42  68 106 144 192 236 282 376 438
#     4   9  18  37  66 101 139 186 240 293 355 423
#
# _framework density 27.297325000000001
#
# number of rings (size 3 to 8) (size 9 to 14) (size 15 to 20)
#    0.000    2.222    0.000    5.333    0.000    3.556 
#    0.000   20.000    0.000    5.333    0.000    0.000 
#    0.000    0.000    0.000    0.000    0.000    0.000 
#
# Total GULP energy -50105.056570 kJ/mol
# GULP energy per Si atom -5567.228508 kJ/mol
# Density = 2.723520 g / cm^3
# Si number density = 27.297325 Si / 1000 Ang^3
#
#
#
# Elastic Constant Matrix: (Units=GPa)
#
#
# Indices 1 2 3 4 5 6 
#
# 1 180.0860 78.1900 82.5268 0.0000 0.0000 0.0000
# 2 78.1900 168.5453 25.0389 0.0000 0.0000 0.0000
# 3 82.5268 25.0389 139.4206 0.0000 0.0000 0.0000
# 4 0.0000 0.0000 0.0000 32.0996 0.0000 0.0000
# 5 0.0000 0.0000 0.0000 0.0000 145.7130 0.0000
# 6 0.0000 0.0000 0.0000 0.0000 0.0000 53.2182
#
#
#
# Elastic Compliance Matrix: (Units=1/GPa)
#
#
# Indices 1 2 3 4 5 6 
#
# 1 0.009367 -0.003618 -0.004895 0.000000 0.000000 0.000000
# 2 -0.003618 0.007493 0.000796 0.000000 0.000000 0.000000
# 3 -0.004895 0.000796 0.009927 0.000000 0.000000 0.000000
# 4 0.000000 0.000000 0.000000 0.031153 0.000000 0.000000
# 5 0.000000 0.000000 0.000000 0.000000 0.006863 0.000000
# 6 0.000000 0.000000 0.000000 0.000000 0.000000 0.018791
#
#
# Mechanical properties :
#
#
# Convention : Reuss Voigt Hill
#
# Bulk Modulus (GPa) = 88.08048 95.50704 91.79376
# Shear Modulus (GPa) = 48.63233 66.35922 57.49577
#
# Velocity S-wave (km/s) = 4.22545 4.93584 4.59440
# Velocity P-wave (km/s) = 7.49287 8.21870 7.86416
#
# Compressibility (1/GPa) = 0.01135325
#
# Stress axis : x y z
#
# Youngs Moduli (GPa) = 106.75802 133.45016 100.73615
#
# Poissons Ratio (x) = 0.48286 0.49308
# Poissons Ratio (y) = 0.38628 -0.08019
# Poissons Ratio (z) = 0.52255 -0.10623
#
# Static dielectric constant tensor:
#      x y z
#    x 3.182630 0.000000 0.000000 
#    y 0.000000 2.117300 0.000000 
#    z 0.000000 0.000000 2.123500 
# 
# From -- ./inp_files/8829.got.cif
#   From: 2010.05.17/outbox.cif.g08.bks.cpg/sg22_5_cif.got.tgz:8829.got - 2010.06.03 23:40:54.
