data_PCOD9327880
_publ_section_title
;
Structure prediction by ZEFSAII (Michael W. Deem and Ramdas Pophale) SiO2 
 PCOD9327880
Probable space group: F 2 2 2
;
_chemical_formula_sum "Si O2"
_cell_formula_units_Z 120
_cell_length_a 14.105524
_cell_length_b 15.083144
_cell_length_c 30.335805
_cell_angle_alpha 90.000000
_cell_angle_beta 90.000000
_cell_angle_gamma 90.000000
_cell_volume 6454.113902
_symmetry_space_group_name_H-M "F 2 2 2"
_symmetry_group_IT_number 22
_symmetry_cell_setting 'orthorhombic'
loop_
_space_group_symop_operation_xyz
x,y,z
-x,-y,z
x,-y,-z
-x,y,-z
x,1/2+y,1/2+z
-x,1/2-y,1/2+z
x,1/2-y,1/2-z
-x,1/2+y,1/2-z
1/2+x,y,1/2+z
1/2-x,-y,1/2+z
1/2+x,-y,1/2-z
1/2-x,y,1/2-z
1/2+x,1/2+y,z
1/2-x,1/2-y,z
1/2+x,1/2-y,-z
1/2-x,1/2+y,-z
loop_
_atom_site_type_symbol
_atom_site_label
_atom_site_fract_x
_atom_site_fract_y
_atom_site_fract_z
Si Si1 0.747051 0.500000 0.500000
Si Si2 0.952568 0.185627 0.544199
Si Si3 0.308831 0.091146 0.849748
Si Si4 0.388845 0.483955 0.425824
Si Si5 0.916803 0.425643 0.334959
Si Si6 0.635696 0.352419 0.256064
Si Si7 0.610131 0.239514 0.396902
Si Si8 0.664791 0.681422 0.993954
O O1 0.678501 0.467863 0.460798
O O2 0.811663 0.416302 0.509306
O O3 0.874605 0.118958 0.562516
O O4 0.914120 0.277642 0.525735
O O5 0.000000 0.145024 0.500000
O O6 0.026372 0.200666 0.582930
O O7 0.198096 0.061663 0.844250
O O8 0.367802 0.108037 0.804973
O O9 0.320240 0.186303 0.875160
O O10 0.358338 0.016203 0.878503
O O11 0.500000 0.500000 0.432401
O O12 0.915560 0.406465 0.282518
O O13 0.928628 0.333454 0.362410
O O14 0.000000 0.500000 0.344837
O O15 0.605605 0.250000 0.250000
O O16 0.750000 0.352107 0.250000
O O17 0.643515 0.188365 0.441460
O O18 0.750000 0.750000 0.999685
#
# Coordination Sequence:
#
# PCOD9327880 Si02
#       8
#     8  16  16  16  16  16  16  16
#     4  12  23  36  57  82 120 174 213 250 322 385
#     4  10  22  39  55  84 124 159 206 273 312 355
#     4  11  22  38  65  92 119 161 212 260 319 383
#     4  12  22  35  57  89 118 152 216 273 307 355
#     4  11  23  39  60  92 130 159 195 259 324 390
#     4   9  18  37  63  88 113 150 197 257 318 376
#     4  11  21  38  61  86 120 162 214 262 313 367
#     4  11  22  38  57  83 120 167 213 258 313 375
#
# _framework density 18.592791999999999
#
# number of rings (size 3 to 8) (size 9 to 14) (size 15 to 20)
#    0.000    1.200    4.000    3.800    0.000    2.667 
#    0.000    2.333    0.000    0.000    0.000    0.000 
#    0.000    0.000    0.000    0.000    0.000    0.000 
#
# Total GULP energy -167045.286556 kJ/mol
# GULP energy per Si atom -5568.176219 kJ/mol
# Density = 1.855047 g / cm^3
# Si number density = 18.592792 Si / 1000 Ang^3
#
#
#
# Elastic Constant Matrix: (Units=GPa)
#
#
# Indices 1 2 3 4 5 6 
#
# 1 66.0696 47.4530 24.6377 0.0000 0.0000 0.0000
# 2 47.4530 113.3640 44.4818 0.0000 0.0000 0.0000
# 3 24.6377 44.4818 99.5134 0.0000 0.0000 0.0000
# 4 0.0000 0.0000 0.0000 -67.5299 0.0000 0.0000
# 5 0.0000 0.0000 0.0000 0.0000 21.9945 0.0000
# 6 0.0000 0.0000 0.0000 0.0000 0.0000 36.7763
#
#
#
# Elastic Compliance Matrix: (Units=1/GPa)
#
#
# Indices 1 2 3 4 5 6 
#
# 1 0.021851 -0.008518 -0.001602 0.000000 0.000000 0.000000
# 2 -0.008518 0.014018 -0.004157 0.000000 0.000000 0.000000
# 3 -0.001602 -0.004157 0.012304 0.000000 0.000000 0.000000
# 4 0.000000 0.000000 0.000000 -0.014808 0.000000 0.000000
# 5 0.000000 0.000000 0.000000 0.000000 0.045466 0.000000
# 6 0.000000 0.000000 0.000000 0.000000 0.000000 0.027191
#
#
# Mechanical properties :
#
#
# Convention : Reuss Voigt Hill
#
# Bulk Modulus (GPa) = 50.97393 56.89911 53.93652
# Shear Modulus (GPa) = 35.43210 9.07316 22.25263
#
# Velocity S-wave (km/s) = 4.37016 2.21145 3.46329
# Velocity P-wave (km/s) = 7.27598 6.09835 6.71304
#
# Compressibility (1/GPa) = 0.01961787
#
# Stress axis : x y z
#
# Youngs Moduli (GPa) = 45.76491 71.33842 81.27581
#
# Poissons Ratio (x) = 0.60764 0.13024
# Poissons Ratio (y) = 0.38981 0.33786
# Poissons Ratio (z) = 0.07334 0.29655
#
# Static dielectric constant tensor:
#      x y z
#    x 1.834410 0.000000 0.000000 
#    y 0.000000 1.682470 0.000000 
#    z 0.000000 0.000000 1.680120 
# 
# From -- ./inp_files/56561.got.cif
#   From: 2010.05.17/outbox.cif.g08.bks.cpg/sg22_29_cif.got.tgz:56561.got - 2010.06.03 23:40:54.
