data_PCOD9327938
_publ_section_title
;
Structure prediction by ZEFSAII (Michael W. Deem and Ramdas Pophale) SiO2 
 PCOD9327938
Probable space group: F 2 2 2
;
_chemical_formula_sum "Si O2"
_cell_formula_units_Z 96
_cell_length_a 22.694675
_cell_length_b 21.596275
_cell_length_c 10.150508
_cell_angle_alpha 90.000000
_cell_angle_beta 90.000000
_cell_angle_gamma 90.000000
_cell_volume 4974.971471
_symmetry_space_group_name_H-M "F 2 2 2"
_symmetry_group_IT_number 22
_symmetry_cell_setting 'orthorhombic'
loop_
_space_group_symop_operation_xyz
x,y,z
-x,-y,z
x,-y,-z
-x,y,-z
x,1/2+y,1/2+z
-x,1/2-y,1/2+z
x,1/2-y,1/2-z
-x,1/2+y,1/2-z
1/2+x,y,1/2+z
1/2-x,-y,1/2+z
1/2+x,-y,1/2-z
1/2-x,y,1/2-z
1/2+x,1/2+y,z
1/2-x,1/2-y,z
1/2+x,1/2-y,-z
1/2-x,1/2+y,-z
loop_
_atom_site_type_symbol
_atom_site_label
_atom_site_fract_x
_atom_site_fract_y
_atom_site_fract_z
Si Si1 0.500000 0.314746 0.000000
Si Si2 0.650274 0.151685 0.206341
Si Si3 0.311520 0.282100 0.463647
Si Si4 0.870847 0.843909 0.002226
Si Si5 0.179896 0.106288 0.265105
Si Si6 0.696921 0.021199 0.144587
Si Si7 0.953370 0.250000 0.250000
O O1 0.440428 0.354243 0.998133
O O2 0.507192 0.272667 0.129356
O O3 0.693031 0.191418 0.112081
O O4 0.660775 0.145010 0.362565
O O5 0.657168 0.082907 0.146617
O O6 0.589812 0.192795 0.206826
O O7 0.250000 0.250000 0.423366
O O8 0.359769 0.228322 0.465917
O O9 0.329905 0.337256 0.366183
O O10 0.844259 0.880904 0.121566
O O11 0.250000 0.102527 0.250000
O O12 0.160002 0.039177 0.313122
O O13 0.750000 0.031424 0.250000
O O14 0.720100 0.000000 0.000000
#
# Coordination Sequence:
#
# PCOD9327938 Si02
#       7
#     8  16  16  16  16  16   8
#     4  10  22  40  64  95 127 158 214 264 330 374
#     4  11  23  40  60  88 127 161 208 251 311 379
#     4  12  22  37  59  91 132 162 201 255 315 383
#     4  11  24  39  63  97 120 166 208 265 326 373
#     4  11  24  41  57  92 130 167 209 249 315 382
#     4  11  26  41  60  87 128 177 213 247 308 389
#     4  10  22  42  63  98 119 160 206 268 326 372
#
# _framework density 19.296593999999999
#
# number of rings (size 3 to 8) (size 9 to 14) (size 15 to 20)
#    0.000    1.000    6.667    0.500    9.333    0.667 
#    0.000    0.000    0.000    8.000    0.000    0.000 
#    0.000    0.000    0.000    0.000    0.000    0.000 
#
# Total GULP energy -133835.914957 kJ/mol
# GULP energy per Si atom -5576.496457 kJ/mol
# Density = 1.925267 g / cm^3
# Si number density = 19.296594 Si / 1000 Ang^3
#
#
#
# Elastic Constant Matrix: (Units=GPa)
#
#
# Indices 1 2 3 4 5 6 
#
# 1 41.5188 -1.8617 3.8988 0.0000 0.0000 0.0000
# 2 -1.8617 92.9516 -0.1170 0.0000 0.0000 0.0000
# 3 3.8988 -0.1170 94.1946 0.0000 0.0000 0.0000
# 4 0.0000 0.0000 0.0000 16.8275 0.0000 0.0000
# 5 0.0000 0.0000 0.0000 0.0000 28.1078 0.0000
# 6 0.0000 0.0000 0.0000 0.0000 0.0000 15.3972
#
#
#
# Elastic Compliance Matrix: (Units=1/GPa)
#
#
# Indices 1 2 3 4 5 6 
#
# 1 0.024201 0.000483 -0.001001 0.000000 0.000000 0.000000
# 2 0.000483 0.010768 -0.000007 0.000000 0.000000 0.000000
# 3 -0.001001 -0.000007 0.010658 0.000000 0.000000 0.000000
# 4 0.000000 0.000000 0.000000 0.059426 0.000000 0.000000
# 5 0.000000 0.000000 0.000000 0.000000 0.035577 0.000000
# 6 0.000000 0.000000 0.000000 0.000000 0.000000 0.064947
#
#
# Mechanical properties :
#
#
# Convention : Reuss Voigt Hill
#
# Bulk Modulus (GPa) = 22.43242 25.83390 24.13316
# Shear Modulus (GPa) = 22.57484 27.18284 24.87884
#
# Velocity S-wave (km/s) = 3.42407 3.75732 3.59456
# Velocity P-wave (km/s) = 5.22328 5.67804 5.45540
#
# Compressibility (1/GPa) = 0.04457833
#
# Stress axis : x y z
#
# Youngs Moduli (GPa) = 41.32031 92.86809 93.82845
#
# Poissons Ratio (x) = -0.04490 0.09393
# Poissons Ratio (y) = -0.01998 0.00062
# Poissons Ratio (z) = 0.04137 0.00062
#
# Static dielectric constant tensor:
#      x y z
#    x 1.667460 0.000000 0.000000 
#    y 0.000000 1.716300 0.000000 
#    z 0.000000 0.000000 1.725390 
# 
# From -- ./inp_files/13945.got.cif
#   From: 2010.05.17/outbox.cif.g08.bks.cpg/sg22_7_cif.got.tgz:13945.got - 2010.06.03 23:40:54.
