data_PCOD9327911
_publ_section_title
;
Structure prediction by ZEFSAII (Michael W. Deem and Ramdas Pophale) SiO2 
 PCOD9327911
Probable space group: F 2 2 2
;
_chemical_formula_sum "Si O2"
_cell_formula_units_Z 68
_cell_length_a 5.098964
_cell_length_b 27.254075
_cell_length_c 21.272689
_cell_angle_alpha 90.000000
_cell_angle_beta 90.000000
_cell_angle_gamma 90.000000
_cell_volume 2956.213414
_symmetry_space_group_name_H-M "F 2 2 2"
_symmetry_group_IT_number 22
_symmetry_cell_setting 'orthorhombic'
loop_
_space_group_symop_operation_xyz
x,y,z
-x,-y,z
x,-y,-z
-x,y,-z
x,1/2+y,1/2+z
-x,1/2-y,1/2+z
x,1/2-y,1/2-z
-x,1/2+y,1/2-z
1/2+x,y,1/2+z
1/2-x,-y,1/2+z
1/2+x,-y,1/2-z
1/2-x,y,1/2-z
1/2+x,1/2+y,z
1/2-x,1/2-y,z
1/2+x,1/2-y,-z
1/2-x,1/2+y,-z
loop_
_atom_site_type_symbol
_atom_site_label
_atom_site_fract_x
_atom_site_fract_y
_atom_site_fract_z
Si Si1 0.000000 0.500000 0.500000
Si Si2 0.750000 0.382950 0.250000
Si Si3 0.768034 0.146423 0.109266
Si Si4 0.345734 0.959493 0.690744
Si Si5 0.204967 0.915772 0.576656
Si Si6 0.750000 0.250000 0.044372
O O1 0.199431 0.539917 0.532606
O O2 0.695567 0.354192 0.315716
O O3 0.511924 0.416601 0.223752
O O4 0.542747 0.119388 0.068022
O O5 0.794469 0.201778 0.086070
O O6 0.036135 0.116746 0.093087
O O7 0.250000 0.989717 0.750000
O O8 0.129886 0.940231 0.643887
O O9 0.500000 0.000000 0.650992
O O10 0.500000 0.242296 0.000000
#
# Coordination Sequence:
#
# PCOD9327911 Si02
#       6
#     4   8  16  16  16   8
#     4  12  28  46  68 106 152 210 240 288 352 428
#     4  10  22  39  68  98 138 172 228 297 368 414
#     4  11  26  47  74 104 138 182 237 306 361 423
#     4  11  19  35  60  95 139 187 230 278 344 428
#     4  11  26  43  68 105 146 188 239 291 347 424
#     4  12  28  51  78 103 136 188 242 294 362 432
#
# _framework density 23.002399
#
# number of rings (size 3 to 8) (size 9 to 14) (size 15 to 20)
#    0.000    0.941    4.706    1.412    4.941    2.353 
#    0.000    0.000    0.000    4.235    0.000    0.000 
#    0.000    0.000    0.000    0.000    0.000    0.000 
#
# Total GULP energy -94731.202138 kJ/mol
# GULP energy per Si atom -5572.423655 kJ/mol
# Density = 2.295004 g / cm^3
# Si number density = 23.002399 Si / 1000 Ang^3
#
#
#
# Elastic Constant Matrix: (Units=GPa)
#
#
# Indices 1 2 3 4 5 6 
#
# 1 98.9363 13.1235 7.2369 0.0000 0.0000 0.0000
# 2 13.1235 136.6797 52.3955 0.0000 0.0000 0.0000
# 3 7.2369 52.3955 82.8302 0.0000 0.0000 0.0000
# 4 0.0000 0.0000 0.0000 15.3486 0.0000 0.0000
# 5 0.0000 0.0000 0.0000 0.0000 18.1674 0.0000
# 6 0.0000 0.0000 0.0000 0.0000 0.0000 28.8616
#
#
#
# Elastic Compliance Matrix: (Units=1/GPa)
#
#
# Indices 1 2 3 4 5 6 
#
# 1 0.010246 -0.000846 -0.000360 0.000000 0.000000 0.000000
# 2 -0.000846 0.009728 -0.006080 0.000000 0.000000 0.000000
# 3 -0.000360 -0.006080 0.015950 0.000000 0.000000 0.000000
# 4 0.000000 0.000000 0.000000 0.065153 0.000000 0.000000
# 5 0.000000 0.000000 0.000000 0.000000 0.055044 0.000000
# 6 0.000000 0.000000 0.000000 0.000000 0.000000 0.034648
#
#
# Mechanical properties :
#
#
# Convention : Reuss Voigt Hill
#
# Bulk Modulus (GPa) = 46.83189 51.55089 49.19139
# Shear Modulus (GPa) = 23.53403 28.85488 26.19446
#
# Velocity S-wave (km/s) = 3.20208 3.54563 3.37823
# Velocity P-wave (km/s) = 5.83737 6.26273 6.05379
#
# Compressibility (1/GPa) = 0.02135297
#
# Stress axis : x y z
#
# Youngs Moduli (GPa) = 97.59869 102.79333 62.69486
#
# Poissons Ratio (x) = 0.08693 0.02259
# Poissons Ratio (y) = 0.08254 0.38118
# Poissons Ratio (z) = 0.03516 0.62497
#
# Static dielectric constant tensor:
#      x y z
#    x 2.111560 0.000000 0.000000 
#    y 0.000000 1.815250 0.000000 
#    z 0.000000 0.000000 1.991130 
# 
# From -- ./inp_files/5405.got.cif
#   From: 2010.05.17/outbox.cif.g08.bks.cpg/sg22_3_cif.got.tgz:5405.got - 2010.06.03 23:40:54.
