data_PCOD9327052
_publ_section_title
;
Structure prediction by ZEFSAII (Michael W. Deem and Ramdas Pophale) SiO2 
 PCOD9327052
Probable space group: F 2 2 2
;
_chemical_formula_sum "Si O2"
_cell_formula_units_Z 104
_cell_length_a 10.943772
_cell_length_b 16.070991
_cell_length_c 30.136281
_cell_angle_alpha 90.000000
_cell_angle_beta 90.000000
_cell_angle_gamma 90.000000
_cell_volume 5300.286569
_symmetry_space_group_name_H-M "F 2 2 2"
_symmetry_group_IT_number 22
_symmetry_cell_setting 'orthorhombic'
loop_
_space_group_symop_operation_xyz
x,y,z
-x,-y,z
x,-y,-z
-x,y,-z
x,1/2+y,1/2+z
-x,1/2-y,1/2+z
x,1/2-y,1/2-z
-x,1/2+y,1/2-z
1/2+x,y,1/2+z
1/2-x,-y,1/2+z
1/2+x,-y,1/2-z
1/2-x,y,1/2-z
1/2+x,1/2+y,z
1/2-x,1/2-y,z
1/2+x,1/2-y,-z
1/2-x,1/2+y,-z
loop_
_atom_site_type_symbol
_atom_site_label
_atom_site_fract_x
_atom_site_fract_y
_atom_site_fract_z
Si Si1 0.515038 0.302191 0.795637
Si Si2 0.850500 0.416314 0.090532
Si Si3 0.343394 0.811606 0.167746
Si Si4 0.359899 0.606005 0.597373
Si Si5 0.112582 0.940687 0.255719
Si Si6 0.644369 0.680364 0.500120
Si Si7 0.250000 0.750000 0.839605
O O1 0.503807 0.250000 0.750000
O O2 0.457417 0.249760 0.836084
O O3 0.437874 0.385025 0.785450
O O4 0.656155 0.301496 0.808525
O O5 0.788864 0.349462 0.123175
O O6 0.811136 0.510816 0.100409
O O7 0.841228 0.386706 0.039839
O O8 0.993965 0.405162 0.103025
O O9 0.250000 0.750000 0.191734
O O10 0.375162 0.884464 0.200826
O O11 0.337494 0.637403 0.547397
O O12 0.307654 0.676532 0.629917
O O13 0.250000 0.975910 0.250000
O O14 0.000000 0.000000 0.264560
O O15 0.500000 0.709408 0.500000
O O16 0.750000 0.750000 0.505855
#
# Coordination Sequence:
#
# PCOD9327052 Si02
#       7
#    16  16  16  16  16  16   8
#     4  10  23  39  62  89 121 167 214 260 326 385
#     4  10  21  36  60  95 122 161 216 261 300 384
#     4  11  21  39  65  87 122 169 210 255 319 382
#     4  10  21  36  61  92 129 163 205 262 318 370
#     4  11  25  42  65  91 129 168 217 271 328 384
#     4  10  20  38  63  92 127 165 208 254 317 383
#     4  12  21  40  64  92 132 166 210 266 329 388
#
# _framework density 19.621580999999999
#
# number of rings (size 3 to 8) (size 9 to 14) (size 15 to 20)
#    0.000    1.538    3.846    1.154    2.154    5.538 
#    0.000    0.000    0.000    3.692    0.000    0.000 
#    0.000    0.000    0.000    0.000    0.000    0.000 
#
# Total GULP energy -144773.387187 kJ/mol
# GULP energy per Si atom -5568.207199 kJ/mol
# Density = 1.957692 g / cm^3
# Si number density = 19.621581 Si / 1000 Ang^3
#
#
#
# Elastic Constant Matrix: (Units=GPa)
#
#
# Indices 1 2 3 4 5 6 
#
# 1 104.5842 51.8695 21.9797 0.0000 0.0000 0.0000
# 2 51.8695 104.3799 23.1727 0.0000 0.0000 0.0000
# 3 21.9797 23.1727 57.8948 0.0000 0.0000 0.0000
# 4 0.0000 0.0000 0.0000 2.7980 0.0000 0.0000
# 5 0.0000 0.0000 0.0000 0.0000 45.2029 0.0000
# 6 0.0000 0.0000 0.0000 0.0000 0.0000 37.0621
#
#
#
# Elastic Compliance Matrix: (Units=1/GPa)
#
#
# Indices 1 2 3 4 5 6 
#
# 1 0.013032 -0.005902 -0.002585 0.000000 0.000000 0.000000
# 2 -0.005902 0.013188 -0.003038 0.000000 0.000000 0.000000
# 3 -0.002585 -0.003038 0.019470 0.000000 0.000000 0.000000
# 4 0.000000 0.000000 0.000000 0.357398 0.000000 0.000000
# 5 0.000000 0.000000 0.000000 0.000000 0.022122 0.000000
# 6 0.000000 0.000000 0.000000 0.000000 0.000000 0.026982
#
#
# Mechanical properties :
#
#
# Convention : Reuss Voigt Hill
#
# Bulk Modulus (GPa) = 44.17021 51.21140 47.69081
# Shear Modulus (GPa) = 10.35648 28.33506 19.34577
#
# Velocity S-wave (km/s) = 2.29991 3.80422 3.14338
# Velocity P-wave (km/s) = 5.44175 6.74184 6.12638
#
# Compressibility (1/GPa) = 0.02263969
#
# Stress axis : x y z
#
# Youngs Moduli (GPa) = 76.73277 75.82810 51.36088
#
# Poissons Ratio (x) = 0.44755 0.13278
# Poissons Ratio (y) = 0.45289 0.15602
# Poissons Ratio (z) = 0.19838 0.23034
#
# Static dielectric constant tensor:
#      x y z
#    x 1.805320 0.000000 0.000000 
#    y 0.000000 1.717700 0.000000 
#    z 0.000000 0.000000 1.690070 
# 
# From -- ./inp_files/56110.got.cif
#   From: 2010.05.17/outbox.cif.g08.bks.cpg/sg22_29_cif.got.tgz:56110.got - 2010.06.03 23:40:54.
