data_PCOD9327640
_publ_section_title
;
Structure prediction by ZEFSAII (Michael W. Deem and Ramdas Pophale) SiO2 
 PCOD9327640
Probable space group: F 2 2 2
;
_chemical_formula_sum "Si O2"
_cell_formula_units_Z 104
_cell_length_a 22.747142
_cell_length_b 8.378886
_cell_length_c 24.893466
_cell_angle_alpha 90.000000
_cell_angle_beta 90.000000
_cell_angle_gamma 90.000000
_cell_volume 4744.587818
_symmetry_space_group_name_H-M "F 2 2 2"
_symmetry_group_IT_number 22
_symmetry_cell_setting 'orthorhombic'
loop_
_space_group_symop_operation_xyz
x,y,z
-x,-y,z
x,-y,-z
-x,y,-z
x,1/2+y,1/2+z
-x,1/2-y,1/2+z
x,1/2-y,1/2-z
-x,1/2+y,1/2-z
1/2+x,y,1/2+z
1/2-x,-y,1/2+z
1/2+x,-y,1/2-z
1/2-x,y,1/2-z
1/2+x,1/2+y,z
1/2-x,1/2-y,z
1/2+x,1/2-y,-z
1/2-x,1/2+y,-z
loop_
_atom_site_type_symbol
_atom_site_label
_atom_site_fract_x
_atom_site_fract_y
_atom_site_fract_z
Si Si1 0.141819 0.188940 0.306524
Si Si2 0.985342 0.320542 0.668684
Si Si3 0.312760 0.750722 0.392743
Si Si4 0.836350 0.384974 0.922008
Si Si5 0.972525 0.673758 0.057320
Si Si6 0.394797 0.681718 0.305768
Si Si7 0.750000 0.250000 0.491225
O O1 0.168916 0.250000 0.250000
O O2 0.173609 0.205698 0.364724
O O3 0.079497 0.278168 0.311852
O O4 0.125557 0.001073 0.306736
O O5 0.035340 0.201647 0.690314
O O6 0.000000 0.500000 0.684423
O O7 0.987104 0.295725 0.604505
O O8 0.250000 0.750000 0.361834
O O9 0.329166 0.572793 0.411603
O O10 0.365675 0.788662 0.353252
O O11 0.293643 0.838446 0.447960
O O12 0.902340 0.348437 0.941981
O O13 0.791802 0.341759 0.968540
O O14 0.000000 0.500000 0.071272
O O15 0.000000 0.718062 0.000000
O O16 0.373590 0.750000 0.250000
#
# Coordination Sequence:
#
# PCOD9327640 Si02
#       7
#    16  16  16  16  16  16   8
#     4  10  21  41  64  91 125 159 207 259 316 381
#     4  11  22  38  58  92 129 165 201 249 320 388
#     4   9  22  38  62  86 116 158 207 262 297 363
#     4  10  21  41  61  91 123 161 214 253 316 384
#     4  10  22  35  66  92 126 169 209 270 320 378
#     4  11  22  39  64  91 124 163 205 259 312 383
#     4  10  22  38  64  84 122 166 202 256 302 374
#
# _framework density 21.919711
#
# number of rings (size 3 to 8) (size 9 to 14) (size 15 to 20)
#    0.462    1.385    0.000    5.077    6.462    0.615 
#    8.308    0.385    0.000    0.000    0.000    0.000 
#    0.000    0.000    0.000    0.000    0.000    0.000 
#
# Total GULP energy -145001.056692 kJ/mol
# GULP energy per Si atom -5576.963719 kJ/mol
# Density = 2.186982 g / cm^3
# Si number density = 21.919711 Si / 1000 Ang^3
#
#
#
# Elastic Constant Matrix: (Units=GPa)
#
#
# Indices 1 2 3 4 5 6 
#
# 1 71.1738 11.7469 40.4923 0.0000 0.0000 0.0000
# 2 11.7469 39.1759 24.0334 0.0000 0.0000 0.0000
# 3 40.4923 24.0334 156.3572 0.0000 0.0000 0.0000
# 4 0.0000 0.0000 0.0000 28.8896 0.0000 0.0000
# 5 0.0000 0.0000 0.0000 0.0000 -8.9376 0.0000
# 6 0.0000 0.0000 0.0000 0.0000 0.0000 20.2166
#
#
#
# Elastic Compliance Matrix: (Units=1/GPa)
#
#
# Indices 1 2 3 4 5 6 
#
# 1 0.016715 -0.002602 -0.003929 0.000000 0.000000 0.000000
# 2 -0.002602 0.028588 -0.003721 0.000000 0.000000 0.000000
# 3 -0.003929 -0.003721 0.007985 0.000000 0.000000 0.000000
# 4 0.000000 0.000000 0.000000 0.034615 0.000000 0.000000
# 5 0.000000 0.000000 0.000000 0.000000 -0.111887 0.000000
# 6 0.000000 0.000000 0.000000 0.000000 0.000000 0.049464
#
#
# Mechanical properties :
#
#
# Convention : Reuss Voigt Hill
#
# Bulk Modulus (GPa) = 30.50072 46.58358 38.54215
# Shear Modulus (GPa) = 87.85710 20.72933 54.29321
#
# Velocity S-wave (km/s) = 6.33785 3.07855 4.98226
# Velocity P-wave (km/s) = 8.21600 5.82535 7.12171
#
# Compressibility (1/GPa) = 0.03278611
#
# Stress axis : x y z
#
# Youngs Moduli (GPa) = 59.82775 34.97916 125.23592
#
# Poissons Ratio (x) = 0.09101 0.49202
# Poissons Ratio (y) = 0.15565 0.46594
# Poissons Ratio (z) = 0.23505 0.13014
#
# Static dielectric constant tensor:
#      x y z
#    x 1.801040 0.000000 0.000000 
#    y 0.000000 1.830200 0.000000 
#    z 0.000000 0.000000 1.877600 
# 
# From -- ./inp_files/54166.got.cif
#   From: 2010.05.17/outbox.cif.g08.bks.cpg/sg22_28_cif.got.tgz:54166.got - 2010.06.03 23:40:54.
