data_PCOD9327186
_publ_section_title
;
Structure prediction by ZEFSAII (Michael W. Deem and Ramdas Pophale) SiO2 
 PCOD9327186
Probable space group: F 2 2 2
;
_chemical_formula_sum "Si O2"
_cell_formula_units_Z 84
_cell_length_a 11.001546
_cell_length_b 16.233618
_cell_length_c 22.203508
_cell_angle_alpha 90.000000
_cell_angle_beta 90.000000
_cell_angle_gamma 90.000000
_cell_volume 3965.433184
_symmetry_space_group_name_H-M "F 2 2 2"
_symmetry_group_IT_number 22
_symmetry_cell_setting 'orthorhombic'
loop_
_space_group_symop_operation_xyz
x,y,z
-x,-y,z
x,-y,-z
-x,y,-z
x,1/2+y,1/2+z
-x,1/2-y,1/2+z
x,1/2-y,1/2-z
-x,1/2+y,1/2-z
1/2+x,y,1/2+z
1/2-x,-y,1/2+z
1/2+x,-y,1/2-z
1/2-x,y,1/2-z
1/2+x,1/2+y,z
1/2-x,1/2-y,z
1/2+x,1/2-y,-z
1/2-x,1/2+y,-z
loop_
_atom_site_type_symbol
_atom_site_label
_atom_site_fract_x
_atom_site_fract_y
_atom_site_fract_z
Si Si1 0.508663 0.861640 0.581641
Si Si2 0.000000 0.789454 0.500000
Si Si3 0.219475 0.344239 0.925807
Si Si4 0.625753 0.957414 0.820262
Si Si5 0.250000 0.910144 0.750000
Si Si6 0.000000 0.500000 0.500000
Si Si7 0.489093 0.159874 0.724810
O O1 0.467288 0.774002 0.554062
O O2 0.647441 0.877376 0.559630
O O3 0.515508 0.853426 0.653240
O O4 0.439717 0.936745 0.549411
O O5 0.882867 0.839638 0.522375
O O6 0.250000 0.250000 0.908363
O O7 0.168227 0.394166 0.870026
O O8 0.592416 0.907473 0.759360
O O9 0.500000 0.000000 0.839717
O O10 0.722214 0.028538 0.805564
O O11 0.370883 0.857701 0.741929
O O12 0.454971 0.250000 0.750000
#
# Coordination Sequence:
#
# PCOD9327186 Si02
#       7
#    16   8  16  16   8   4  16
#     4  10  22  39  65  87 125 168 220 268 320 394
#     4   9  20  41  57  90 121 158 222 278 303 386
#     4  10  20  40  65  87 123 168 219 264 329 387
#     4  10  22  38  58  96 128 158 202 263 332 393
#     4  10  23  38  59  98 134 162 198 262 341 390
#     4  10  24  40  56  94 118 172 226 258 322 370
#     4  11  22  40  66  94 130 169 214 265 328 406
#
# _framework density 21.183059
#
# number of rings (size 3 to 8) (size 9 to 14) (size 15 to 20)
#    0.000    1.905    0.000    3.714    6.667    0.000 
#    3.429   22.857    0.000    0.000    0.000    0.000 
#    0.000    0.000    0.000    0.000    0.000    0.000 
#
# Total GULP energy -117119.837307 kJ/mol
# GULP energy per Si atom -5577.135110 kJ/mol
# Density = 2.113485 g / cm^3
# Si number density = 21.183059 Si / 1000 Ang^3
#
#
#
# Elastic Constant Matrix: (Units=GPa)
#
#
# Indices 1 2 3 4 5 6 
#
# 1 49.8214 17.6992 16.0801 0.0000 0.0000 0.0000
# 2 17.6992 61.3460 29.5821 0.0000 0.0000 0.0000
# 3 16.0801 29.5821 139.0470 0.0000 0.0000 0.0000
# 4 0.0000 0.0000 0.0000 28.3644 0.0000 0.0000
# 5 0.0000 0.0000 0.0000 0.0000 13.8299 0.0000
# 6 0.0000 0.0000 0.0000 0.0000 0.0000 4.2368
#
#
#
# Elastic Compliance Matrix: (Units=1/GPa)
#
#
# Indices 1 2 3 4 5 6 
#
# 1 0.022594 -0.005860 -0.001366 0.000000 0.000000 0.000000
# 2 -0.005860 0.019684 -0.003510 0.000000 0.000000 0.000000
# 3 -0.001366 -0.003510 0.008097 0.000000 0.000000 0.000000
# 4 0.000000 0.000000 0.000000 0.035255 0.000000 0.000000
# 5 0.000000 0.000000 0.000000 0.000000 0.072307 0.000000
# 6 0.000000 0.000000 0.000000 0.000000 0.000000 0.236027
#
#
# Mechanical properties :
#
#
# Convention : Reuss Voigt Hill
#
# Bulk Modulus (GPa) = 34.59894 41.88192 38.24043
# Shear Modulus (GPa) = 11.76274 21.74309 16.75291
#
# Velocity S-wave (km/s) = 2.35902 3.20728 2.81528
# Velocity P-wave (km/s) = 4.87737 5.79050 5.35344
#
# Compressibility (1/GPa) = 0.02890262
#
# Stress axis : x y z
#
# Youngs Moduli (GPa) = 44.25871 50.80191 123.50880
#
# Poissons Ratio (x) = 0.29770 0.16874
# Poissons Ratio (y) = 0.25935 0.43353
# Poissons Ratio (z) = 0.06047 0.17832
#
# Static dielectric constant tensor:
#      x y z
#    x 1.823010 0.000000 0.000000 
#    y 0.000000 1.798260 0.000000 
#    z 0.000000 0.000000 1.756050 
# 
# From -- ./inp_files/36048.got.cif
#   From: 2010.05.17/outbox.cif.g08.bks.cpg/sg22_19_cif.got.tgz:36048.got - 2010.06.03 23:40:54.
