data_PCOD9327775
_publ_section_title
;
Structure prediction by ZEFSAII (Michael W. Deem and Ramdas Pophale) SiO2 
 PCOD9327775
Probable space group: F 2 2 2
;
_chemical_formula_sum "Si O2"
_cell_formula_units_Z 112
_cell_length_a 13.878911
_cell_length_b 12.733144
_cell_length_c 28.736746
_cell_angle_alpha 90.000000
_cell_angle_beta 90.000000
_cell_angle_gamma 90.000000
_cell_volume 5078.420179
_symmetry_space_group_name_H-M "F 2 2 2"
_symmetry_group_IT_number 22
_symmetry_cell_setting 'orthorhombic'
loop_
_space_group_symop_operation_xyz
x,y,z
-x,-y,z
x,-y,-z
-x,y,-z
x,1/2+y,1/2+z
-x,1/2-y,1/2+z
x,1/2-y,1/2-z
-x,1/2+y,1/2-z
1/2+x,y,1/2+z
1/2-x,-y,1/2+z
1/2+x,-y,1/2-z
1/2-x,y,1/2-z
1/2+x,1/2+y,z
1/2-x,1/2-y,z
1/2+x,1/2-y,-z
1/2-x,1/2+y,-z
loop_
_atom_site_type_symbol
_atom_site_label
_atom_site_fract_x
_atom_site_fract_y
_atom_site_fract_z
Si Si1 0.482957 0.381977 0.120605
Si Si2 0.215918 0.420974 0.198489
Si Si3 0.467658 0.795168 0.798622
Si Si4 0.679464 0.842354 0.811609
Si Si5 0.895376 0.522026 0.945530
Si Si6 0.272623 0.630213 0.902772
Si Si7 0.356524 0.261373 0.584429
O O1 0.500000 0.500000 0.139084
O O2 0.471455 0.294719 0.161627
O O3 0.386642 0.387978 0.088969
O O4 0.576940 0.339140 0.092884
O O5 0.250000 0.388568 0.250000
O O6 0.105769 0.387444 0.189391
O O7 0.227123 0.545891 0.195398
O O8 0.269016 0.373936 0.153829
O O9 0.431726 0.750000 0.750000
O O10 0.574697 0.837518 0.789278
O O11 0.750000 0.750000 0.797000
O O12 0.659774 0.818577 0.865748
O O13 0.806307 0.455634 0.921738
O O14 0.900893 0.647977 0.945402
O O15 0.000000 0.500000 0.922978
O O16 0.891031 0.500000 0.000000
O O17 0.250000 0.750000 0.917662
O O18 0.250000 0.250000 0.564920
#
# Coordination Sequence:
#
# PCOD9327775 Si02
#       7
#    16  16  16  16  16  16  16
#     4  11  24  40  68 101 131 183 234 283 352 423
#     4  12  26  40  66  96 138 183 233 286 342 408
#     4  11  25  41  60  93 138 175 237 288 346 398
#     4  10  24  42  66  96 127 184 231 289 342 417
#     4  11  25  44  73 106 135 179 233 289 349 426
#     4  12  24  43  69  98 139 182 223 287 355 415
#     4  10  21  44  70  96 138 176 226 287 351 419
#
# _framework density 22.054102
#
# number of rings (size 3 to 8) (size 9 to 14) (size 15 to 20)
#    0.000    1.000    2.857    3.000    8.000    1.714 
#    0.000    0.000    0.000    3.000    0.000    0.000 
#    0.000    0.000    0.000    0.000    0.000    0.000 
#
# Total GULP energy -156195.304525 kJ/mol
# GULP energy per Si atom -5578.403733 kJ/mol
# Density = 2.200391 g / cm^3
# Si number density = 22.054102 Si / 1000 Ang^3
#
#
#
# Elastic Constant Matrix: (Units=GPa)
#
#
# Indices 1 2 3 4 5 6 
#
# 1 121.8451 23.2457 -10.6526 0.0000 0.0000 0.0000
# 2 23.2457 112.6526 -1.5324 0.0000 0.0000 0.0000
# 3 -10.6526 -1.5324 37.6977 0.0000 0.0000 0.0000
# 4 0.0000 0.0000 0.0000 20.1719 0.0000 0.0000
# 5 0.0000 0.0000 0.0000 0.0000 21.7545 0.0000
# 6 0.0000 0.0000 0.0000 0.0000 0.0000 24.0209
#
#
#
# Elastic Compliance Matrix: (Units=1/GPa)
#
#
# Indices 1 2 3 4 5 6 
#
# 1 0.008756 -0.001774 0.002402 0.000000 0.000000 0.000000
# 2 -0.001774 0.009241 -0.000126 0.000000 0.000000 0.000000
# 3 0.002402 -0.000126 0.027200 0.000000 0.000000 0.000000
# 4 0.000000 0.000000 0.000000 0.049574 0.000000 0.000000
# 5 0.000000 0.000000 0.000000 0.000000 0.045968 0.000000
# 6 0.000000 0.000000 0.000000 0.000000 0.000000 0.041630
#
#
# Mechanical properties :
#
#
# Convention : Reuss Voigt Hill
#
# Bulk Modulus (GPa) = 21.64410 32.70188 27.17299
# Shear Modulus (GPa) = 25.41102 30.59844 28.00473
#
# Velocity S-wave (km/s) = 3.39811 3.72886 3.56732
# Velocity P-wave (km/s) = 5.02311 5.77922 5.41438
#
# Compressibility (1/GPa) = 0.04620196
#
# Stress axis : x y z
#
# Youngs Moduli (GPa) = 114.21261 108.21096 36.76409
#
# Poissons Ratio (x) = 0.19197 -0.08831
# Poissons Ratio (y) = 0.20262 0.00462
# Poissons Ratio (z) = -0.27434 0.01360
#
# Static dielectric constant tensor:
#      x y z
#    x 1.903950 0.000000 0.000000 
#    y 0.000000 1.840520 0.000000 
#    z 0.000000 0.000000 1.929180 
# 
# From -- ./inp_files/56450.got.cif
#   From: 2010.05.17/outbox.cif.g08.bks.cpg/sg22_29_cif.got.tgz:56450.got - 2010.06.03 23:40:54.
