data_PCOD9327809
_publ_section_title
;
Structure prediction by ZEFSAII (Michael W. Deem and Ramdas Pophale) SiO2 
 PCOD9327809
Probable space group: F 2 2 2
;
_chemical_formula_sum "Si O2"
_cell_formula_units_Z 104
_cell_length_a 26.156955
_cell_length_b 9.432546
_cell_length_c 19.731676
_cell_angle_alpha 90.000000
_cell_angle_beta 90.000000
_cell_angle_gamma 90.000000
_cell_volume 4868.330935
_symmetry_space_group_name_H-M "F 2 2 2"
_symmetry_group_IT_number 22
_symmetry_cell_setting 'orthorhombic'
loop_
_space_group_symop_operation_xyz
x,y,z
-x,-y,z
x,-y,-z
-x,y,-z
x,1/2+y,1/2+z
-x,1/2-y,1/2+z
x,1/2-y,1/2-z
-x,1/2+y,1/2-z
1/2+x,y,1/2+z
1/2-x,-y,1/2+z
1/2+x,-y,1/2-z
1/2-x,y,1/2-z
1/2+x,1/2+y,z
1/2-x,1/2-y,z
1/2+x,1/2-y,-z
1/2-x,1/2+y,-z
loop_
_atom_site_type_symbol
_atom_site_label
_atom_site_fract_x
_atom_site_fract_y
_atom_site_fract_z
Si Si1 0.898054 0.737469 0.179167
Si Si2 0.049209 0.180209 0.959373
Si Si3 0.096534 0.750000 0.250000
Si Si4 0.211888 0.377970 0.447568
Si Si5 0.509489 0.646285 0.661921
Si Si6 0.369579 0.148951 0.034137
Si Si7 0.127565 0.037177 0.866992
O O1 0.868164 0.750000 0.250000
O O2 0.954133 0.676617 0.191578
O O3 0.873701 0.651474 0.116199
O O4 0.903100 0.899918 0.157603
O O5 0.095205 0.082742 0.932941
O O6 0.026000 0.235126 0.889497
O O7 0.076407 0.302294 0.003401
O O8 0.000000 0.133066 0.000000
O O9 0.126591 0.839183 0.191178
O O10 0.056446 0.641596 0.214453
O O11 0.231481 0.500000 0.500000
O O12 0.250000 0.250000 0.423883
O O13 0.169745 0.275718 0.482749
O O14 0.182164 0.470031 0.390033
O O15 0.500000 0.500000 0.623654
O O16 0.355660 0.000000 0.000000
#
# Coordination Sequence:
#
# PCOD9327809 Si02
#       7
#    16  16   8  16  16  16  16
#     4  11  22  39  58  88 135 192 246 274 318 411
#     4  11  22  37  59  97 143 186 227 283 330 406
#     4  10  22  36  60  92 143 188 229 282 314 412
#     4  11  23  46  73 106 131 167 228 304 380 437
#     4  11  21  33  53  85 136 196 239 268 318 386
#     4  11  23  41  65 100 140 185 235 291 350 415
#     4  10  24  43  64 101 138 185 239 284 353 416
#
# _framework density 21.362556999999999
#
# number of rings (size 3 to 8) (size 9 to 14) (size 15 to 20)
#    0.000    1.231    3.846    2.308    0.000    3.077 
#    5.538    0.000    0.000    7.385    0.000    0.000 
#    0.000    0.000    0.000    0.000    0.000    0.000 
#
# Total GULP energy -144738.714344 kJ/mol
# GULP energy per Si atom -5566.873629 kJ/mol
# Density = 2.131394 g / cm^3
# Si number density = 21.362557 Si / 1000 Ang^3
#
#
#
# Elastic Constant Matrix: (Units=GPa)
#
#
# Indices 1 2 3 4 5 6 
#
# 1 82.8904 42.4982 28.5511 0.0000 0.0000 0.0000
# 2 42.4982 121.4024 54.6009 0.0000 0.0000 0.0000
# 3 28.5511 54.6009 122.3078 0.0000 0.0000 0.0000
# 4 0.0000 0.0000 0.0000 20.9297 0.0000 0.0000
# 5 0.0000 0.0000 0.0000 0.0000 11.1341 0.0000
# 6 0.0000 0.0000 0.0000 0.0000 0.0000 72.2319
#
#
#
# Elastic Compliance Matrix: (Units=1/GPa)
#
#
# Indices 1 2 3 4 5 6 
#
# 1 0.014903 -0.004570 -0.001439 0.000000 0.000000 0.000000
# 2 -0.004570 0.011708 -0.004160 0.000000 0.000000 0.000000
# 3 -0.001439 -0.004160 0.010369 0.000000 0.000000 0.000000
# 4 0.000000 0.000000 0.000000 0.047779 0.000000 0.000000
# 5 0.000000 0.000000 0.000000 0.000000 0.089814 0.000000
# 6 0.000000 0.000000 0.000000 0.000000 0.000000 0.013844
#
#
# Mechanical properties :
#
#
# Convention : Reuss Voigt Hill
#
# Bulk Modulus (GPa) = 60.08675 64.21121 62.14898
# Shear Modulus (GPa) = 23.33169 34.25585 28.79377
#
# Velocity S-wave (km/s) = 3.30840 4.00877 3.67531
# Velocity P-wave (km/s) = 6.54081 7.17984 6.86776
#
# Compressibility (1/GPa) = 0.01664261
#
# Stress axis : x y z
#
# Youngs Moduli (GPa) = 67.10235 85.41445 96.44146
#
# Poissons Ratio (x) = 0.39032 0.13876
# Poissons Ratio (y) = 0.30664 0.40118
# Poissons Ratio (z) = 0.09655 0.35531
#
# Static dielectric constant tensor:
#      x y z
#    x 1.939200 0.000000 0.000000 
#    y 0.000000 1.867440 0.000000 
#    z 0.000000 0.000000 1.809080 
# 
# From -- ./inp_files/45779.got.cif
#   From: 2010.05.17/outbox.cif.g08.bks.cpg/sg22_23_cif.got.tgz:45779.got - 2010.06.03 23:40:54.
