data_PCOD9327933
_publ_section_title
;
Structure prediction by ZEFSAII (Michael W. Deem and Ramdas Pophale) SiO2 
 PCOD9327933
Probable space group: F 2 2 2
;
_chemical_formula_sum "Si O2"
_cell_formula_units_Z 80
_cell_length_a 9.777803
_cell_length_b 16.315200
_cell_length_c 23.662731
_cell_angle_alpha 90.000000
_cell_angle_beta 90.000000
_cell_angle_gamma 90.000000
_cell_volume 3774.840028
_symmetry_space_group_name_H-M "F 2 2 2"
_symmetry_group_IT_number 22
_symmetry_cell_setting 'orthorhombic'
loop_
_space_group_symop_operation_xyz
x,y,z
-x,-y,z
x,-y,-z
-x,y,-z
x,1/2+y,1/2+z
-x,1/2-y,1/2+z
x,1/2-y,1/2-z
-x,1/2+y,1/2-z
1/2+x,y,1/2+z
1/2-x,-y,1/2+z
1/2+x,-y,1/2-z
1/2-x,y,1/2-z
1/2+x,1/2+y,z
1/2-x,1/2-y,z
1/2+x,1/2-y,-z
1/2-x,1/2+y,-z
loop_
_atom_site_type_symbol
_atom_site_label
_atom_site_fract_x
_atom_site_fract_y
_atom_site_fract_z
Si Si1 0.757231 0.101871 0.379327
Si Si2 0.498239 0.204661 0.932556
Si Si3 0.689299 0.550063 0.444464
Si Si4 0.144541 0.988192 0.793201
Si Si5 0.448205 0.119734 0.401660
O O1 0.856263 0.174044 0.402323
O O2 0.609816 0.105774 0.410604
O O3 0.828613 0.017689 0.396818
O O4 0.707006 0.075322 0.316316
O O5 0.596775 0.127095 0.931915
O O6 0.559672 0.282334 0.899975
O O7 0.500000 0.227271 0.000000
O O8 0.654153 0.500000 0.500000
O O9 0.844656 0.583314 0.447502
O O10 0.250000 0.950095 0.750000
O O11 0.102828 0.928713 0.845604
O O12 0.000000 0.000000 0.762810
#
# Coordination Sequence:
#
# PCOD9327933 Si02
#       5
#    16  16  16  16  16
#     4  10  22  40  64  90 127 167 216 264 309 387
#     4  12  24  38  59  94 141 174 208 258 319 376
#     4  11  22  38  56  85 126 170 218 254 298 373
#     4   9  20  42  71  98 122 164 219 273 330 383
#     4  10  24  40  61  94 127 166 215 261 323 383
#
# _framework density 21.192951999999998
#
# number of rings (size 3 to 8) (size 9 to 14) (size 15 to 20)
#    0.000    1.600    2.000    3.600    2.800    5.600 
#    0.000    0.000    0.000   38.400    0.000    0.000 
#    0.000    0.000    0.000    0.000    0.000    0.000 
#
# Total GULP energy -111359.192368 kJ/mol
# GULP energy per Si atom -5567.959618 kJ/mol
# Density = 2.114472 g / cm^3
# Si number density = 21.192952 Si / 1000 Ang^3
#
#
#
# Elastic Constant Matrix: (Units=GPa)
#
#
# Indices 1 2 3 4 5 6 
#
# 1 118.1759 54.2958 44.3748 0.0000 0.0000 0.0000
# 2 54.2958 129.2431 15.1129 0.0000 0.0000 0.0000
# 3 44.3748 15.1129 47.0121 0.0000 0.0000 0.0000
# 4 0.0000 0.0000 0.0000 1.0962 0.0000 0.0000
# 5 0.0000 0.0000 0.0000 0.0000 24.4184 0.0000
# 6 0.0000 0.0000 0.0000 0.0000 0.0000 43.0904
#
#
#
# Elastic Compliance Matrix: (Units=1/GPa)
#
#
# Indices 1 2 3 4 5 6 
#
# 1 0.015771 -0.005076 -0.013255 0.000000 0.000000 0.000000
# 2 -0.005076 0.009673 0.001681 0.000000 0.000000 0.000000
# 3 -0.013255 0.001681 0.033242 0.000000 0.000000 0.000000
# 4 0.000000 0.000000 0.000000 0.912213 0.000000 0.000000
# 5 0.000000 0.000000 0.000000 0.000000 0.040953 0.000000
# 6 0.000000 0.000000 0.000000 0.000000 0.000000 0.023207
#
#
# Mechanical properties :
#
#
# Convention : Reuss Voigt Hill
#
# Bulk Modulus (GPa) = 39.38891 57.99978 48.69435
# Shear Modulus (GPa) = 4.64331 25.76419 15.20375
#
# Velocity S-wave (km/s) = 1.48180 3.49047 2.68133
# Velocity P-wave (km/s) = 4.64261 6.60843 5.71074
#
# Compressibility (1/GPa) = 0.02538786
#
# Stress axis : x y z
#
# Youngs Moduli (GPa) = 63.40746 103.38013 30.08271
#
# Poissons Ratio (x) = 0.52471 0.39874
# Poissons Ratio (y) = 0.32183 -0.05058
# Poissons Ratio (z) = 0.84044 -0.17381
#
# Static dielectric constant tensor:
#      x y z
#    x 1.883810 0.000000 0.000000 
#    y 0.000000 1.831470 0.000000 
#    z 0.000000 0.000000 1.990680 
# 
# From -- ./inp_files/11633.got.cif
#   From: 2010.05.17/outbox.cif.g08.bks.cpg/sg22_6_cif.got.tgz:11633.got - 2010.06.03 23:40:54.
