data_PCOD9327101
_publ_section_title
;
Structure prediction by ZEFSAII (Michael W. Deem and Ramdas Pophale) SiO2 
 PCOD9327101
Probable space group: F 2 2 2
;
_chemical_formula_sum "Si O2"
_cell_formula_units_Z 96
_cell_length_a 11.447073
_cell_length_b 22.217577
_cell_length_c 16.619429
_cell_angle_alpha 90.000000
_cell_angle_beta 90.000000
_cell_angle_gamma 90.000000
_cell_volume 4226.756653
_symmetry_space_group_name_H-M "F 2 2 2"
_symmetry_group_IT_number 22
_symmetry_cell_setting 'orthorhombic'
loop_
_space_group_symop_operation_xyz
x,y,z
-x,-y,z
x,-y,-z
-x,y,-z
x,1/2+y,1/2+z
-x,1/2-y,1/2+z
x,1/2-y,1/2-z
-x,1/2+y,1/2-z
1/2+x,y,1/2+z
1/2-x,-y,1/2+z
1/2+x,-y,1/2-z
1/2-x,y,1/2-z
1/2+x,1/2+y,z
1/2-x,1/2-y,z
1/2+x,1/2-y,-z
1/2-x,1/2+y,-z
loop_
_atom_site_type_symbol
_atom_site_label
_atom_site_fract_x
_atom_site_fract_y
_atom_site_fract_z
Si Si1 0.000000 0.783981 0.500000
Si Si2 0.104679 0.591033 0.622729
Si Si3 0.127499 0.033751 0.635765
Si Si4 0.610813 0.821700 0.602932
Si Si5 0.250000 0.944740 0.750000
Si Si6 0.750000 0.867531 0.750000
Si Si7 0.285678 0.000000 0.500000
Si Si8 0.230198 0.819872 0.550725
O O1 0.050534 0.739911 0.429843
O O2 0.094774 0.826182 0.539466
O O3 0.123587 0.577640 0.716579
O O4 0.130495 0.538726 0.558575
O O5 0.211291 0.637864 0.613913
O O6 0.986371 0.626051 0.603151
O O7 0.160504 0.090450 0.695609
O O8 0.194769 0.041962 0.550502
O O9 0.209226 0.983286 0.675162
O O10 0.000000 0.000000 0.629155
O O11 0.675746 0.826989 0.687816
O O12 0.704629 0.831192 0.532965
O O13 0.250000 0.750000 0.571486
#
# Coordination Sequence:
#
# PCOD9327101 Si02
#       8
#     8  16  16  16   8   8   8  16
#     4  10  22  44  72  94 130 170 232 298 350 418
#     4  11  20  42  66  97 137 178 233 287 336 427
#     4  10  20  39  57  87 140 185 227 282 339 415
#     4  11  21  41  71  98 135 171 228 295 345 411
#     4   9  22  36  55  88 132 184 219 267 354 410
#     4  11  24  38  65 102 140 186 231 285 362 416
#     4  10  23  38  67 102 130 183 249 276 342 424
#     4  10  20  41  69  94 122 174 230 285 351 401
#
# _framework density 22.712451000000001
#
# number of rings (size 3 to 8) (size 9 to 14) (size 15 to 20)
#    0.000    1.667    3.333    2.250    0.000    0.000 
#   15.000   16.667    0.000    0.000    0.000    0.000 
#    0.000    0.000    0.000    0.000    0.000    0.000 
#
# Total GULP energy -133646.243207 kJ/mol
# GULP energy per Si atom -5568.593467 kJ/mol
# Density = 2.266076 g / cm^3
# Si number density = 22.712451 Si / 1000 Ang^3
#
#
#
# Elastic Constant Matrix: (Units=GPa)
#
#
# Indices 1 2 3 4 5 6 
#
# 1 94.2619 10.4820 4.2747 0.0000 0.0000 0.0000
# 2 10.4820 56.4256 8.2870 0.0000 0.0000 0.0000
# 3 4.2747 8.2870 54.4045 0.0000 0.0000 0.0000
# 4 0.0000 0.0000 0.0000 19.9182 0.0000 0.0000
# 5 0.0000 0.0000 0.0000 0.0000 -18.4768 0.0000
# 6 0.0000 0.0000 0.0000 0.0000 0.0000 -108.0654
#
#
#
# Elastic Compliance Matrix: (Units=1/GPa)
#
#
# Indices 1 2 3 4 5 6 
#
# 1 0.010849 -0.001933 -0.000558 0.000000 0.000000 0.000000
# 2 -0.001933 0.018473 -0.002662 0.000000 0.000000 0.000000
# 3 -0.000558 -0.002662 0.018830 0.000000 0.000000 0.000000
# 4 0.000000 0.000000 0.000000 0.050205 0.000000 0.000000
# 5 0.000000 0.000000 0.000000 0.000000 -0.054122 0.000000
# 6 0.000000 0.000000 0.000000 0.000000 0.000000 -0.009254
#
#
# Mechanical properties :
#
#
# Convention : Reuss Voigt Hill
#
# Bulk Modulus (GPa) = 26.42339 27.90882 27.16610
# Shear Modulus (GPa) = 86.35124 -9.18824 38.58150
#
# Velocity S-wave (km/s) = 6.17267 -2.01352 4.12599
# Velocity P-wave (km/s) = 7.90327 2.62848 5.88942
#
# Compressibility (1/GPa) = 0.03784526
#
# Stress axis : x y z
#
# Youngs Moduli (GPa) = 92.17406 54.13435 53.10637
#
# Poissons Ratio (x) = 0.10467 0.02963
# Poissons Ratio (y) = 0.17821 0.14136
# Poissons Ratio (z) = 0.05143 0.14410
#
# Static dielectric constant tensor:
#      x y z
#    x 1.925140 0.000000 0.000000 
#    y 0.000000 2.198280 0.000000 
#    z 0.000000 0.000000 2.148090 
# 
# From -- ./inp_files/36278.got.cif
#   From: 2010.05.17/outbox.cif.g08.bks.cpg/sg22_19_cif.got.tgz:36278.got - 2010.06.03 23:40:54.
