data_PCOD9327644
_publ_section_title
;
Structure prediction by ZEFSAII (Michael W. Deem and Ramdas Pophale) SiO2 
 PCOD9327644
Probable space group: F 2 2 2
;
_chemical_formula_sum "Si O2"
_cell_formula_units_Z 88
_cell_length_a 15.030882
_cell_length_b 29.635335
_cell_length_c 8.983302
_cell_angle_alpha 90.000000
_cell_angle_beta 90.000000
_cell_angle_gamma 90.000000
_cell_volume 4001.568966
_symmetry_space_group_name_H-M "F 2 2 2"
_symmetry_group_IT_number 22
_symmetry_cell_setting 'orthorhombic'
loop_
_space_group_symop_operation_xyz
x,y,z
-x,-y,z
x,-y,-z
-x,y,-z
x,1/2+y,1/2+z
-x,1/2-y,1/2+z
x,1/2-y,1/2-z
-x,1/2+y,1/2-z
1/2+x,y,1/2+z
1/2-x,-y,1/2+z
1/2+x,-y,1/2-z
1/2-x,y,1/2-z
1/2+x,1/2+y,z
1/2-x,1/2-y,z
1/2+x,1/2-y,-z
1/2-x,1/2+y,-z
loop_
_atom_site_type_symbol
_atom_site_label
_atom_site_fract_x
_atom_site_fract_y
_atom_site_fract_z
Si Si1 0.155084 0.393371 0.075308
Si Si2 0.586178 0.020734 0.336936
Si Si3 0.250000 0.534325 0.750000
Si Si4 0.257062 0.300067 0.499070
Si Si5 0.531551 0.608632 0.720467
Si Si6 0.896924 0.797748 0.774966
O O1 0.227493 0.431776 0.113052
O O2 0.072291 0.399808 0.188409
O O3 0.204459 0.344522 0.082377
O O4 0.100291 0.397296 0.919689
O O5 0.669290 0.000090 0.256898
O O6 0.500000 0.000000 0.257232
O O7 0.590363 0.000000 0.500000
O O8 0.571210 0.073901 0.338898
O O9 0.250000 0.250000 0.427096
O O10 0.160799 0.306020 0.576476
O O11 0.325596 0.296175 0.639057
O O12 0.538544 0.660686 0.759561
O O13 0.944478 0.750000 0.750000
#
# Coordination Sequence:
#
# PCOD9327644 Si02
#       6
#    16  16   8  16  16  16
#     4  10  22  39  62  88 126 163 211 260 315 378
#     4  11  26  45  63  88 127 163 210 270 324 382
#     4  12  26  42  61  92 119 164 214 264 320 384
#     4   8  15  31  57  90 121 157 203 257 308 374
#     4  10  21  41  63  90 123 168 209 264 312 378
#     4   8  15  30  59  92 121 152 204 257 308 372
#
# _framework density 21.991375000000001
#
# number of rings (size 3 to 8) (size 9 to 14) (size 15 to 20)
#    0.000    2.364    1.818    1.091    5.091    1.455 
#    0.000    2.273    0.000    4.364    0.000    0.000 
#    0.000    0.000    0.000    0.000    0.000    0.000 
#
# Total GULP energy -122562.150438 kJ/mol
# GULP energy per Si atom -5571.006838 kJ/mol
# Density = 2.194132 g / cm^3
# Si number density = 21.991375 Si / 1000 Ang^3
#
#
#
# Elastic Constant Matrix: (Units=GPa)
#
#
# Indices 1 2 3 4 5 6 
#
# 1 77.3964 35.6406 1.7796 0.0000 0.0000 0.0000
# 2 35.6406 165.6078 21.5975 0.0000 0.0000 0.0000
# 3 1.7796 21.5975 31.9532 0.0000 0.0000 0.0000
# 4 0.0000 0.0000 0.0000 11.8424 0.0000 0.0000
# 5 0.0000 0.0000 0.0000 0.0000 5.4463 0.0000
# 6 0.0000 0.0000 0.0000 0.0000 0.0000 57.7813
#
#
#
# Elastic Compliance Matrix: (Units=1/GPa)
#
#
# Indices 1 2 3 4 5 6 
#
# 1 0.014400 -0.003284 0.001418 0.000000 0.000000 0.000000
# 2 -0.003284 0.007371 -0.004799 0.000000 0.000000 0.000000
# 3 0.001418 -0.004799 0.034461 0.000000 0.000000 0.000000
# 4 0.000000 0.000000 0.000000 0.084442 0.000000 0.000000
# 5 0.000000 0.000000 0.000000 0.000000 0.183610 0.000000
# 6 0.000000 0.000000 0.000000 0.000000 0.000000 0.017307
#
#
# Mechanical properties :
#
#
# Convention : Reuss Voigt Hill
#
# Bulk Modulus (GPa) = 23.30960 43.66584 33.48772
# Shear Modulus (GPa) = 13.54198 29.40998 21.47598
#
# Velocity S-wave (km/s) = 2.48420 3.66094 3.12839
# Velocity P-wave (km/s) = 4.34174 6.14564 5.32070
#
# Compressibility (1/GPa) = 0.04290078
#
# Stress axis : x y z
#
# Youngs Moduli (GPa) = 69.44374 135.66703 29.01856
#
# Poissons Ratio (x) = 0.44552 -0.04114
# Poissons Ratio (y) = 0.22805 0.13927
# Poissons Ratio (z) = -0.09845 0.65110
#
# Static dielectric constant tensor:
#      x y z
#    x 1.921130 0.000000 0.000000 
#    y 0.000000 1.851160 0.000000 
#    z 0.000000 0.000000 1.842670 
# 
# From -- ./inp_files/20126.got.cif
#   From: 2010.05.17/outbox.cif.g08.bks.cpg/sg22_11_cif.got.tgz:20126.got - 2010.06.03 23:40:54.
