data_PCOD9327305
_publ_section_title
;
Structure prediction by ZEFSAII (Michael W. Deem and Ramdas Pophale) SiO2 
 PCOD9327305
Probable space group: F 2 2 2
;
_chemical_formula_sum "Si O2"
_cell_formula_units_Z 116
_cell_length_a 10.725961
_cell_length_b 28.217693
_cell_length_c 19.571706
_cell_angle_alpha 90.000000
_cell_angle_beta 90.000000
_cell_angle_gamma 90.000000
_cell_volume 5923.609228
_symmetry_space_group_name_H-M "F 2 2 2"
_symmetry_group_IT_number 22
_symmetry_cell_setting 'orthorhombic'
loop_
_space_group_symop_operation_xyz
x,y,z
-x,-y,z
x,-y,-z
-x,y,-z
x,1/2+y,1/2+z
-x,1/2-y,1/2+z
x,1/2-y,1/2-z
-x,1/2+y,1/2-z
1/2+x,y,1/2+z
1/2-x,-y,1/2+z
1/2+x,-y,1/2-z
1/2-x,y,1/2-z
1/2+x,1/2+y,z
1/2-x,1/2-y,z
1/2+x,1/2-y,-z
1/2-x,1/2+y,-z
loop_
_atom_site_type_symbol
_atom_site_label
_atom_site_fract_x
_atom_site_fract_y
_atom_site_fract_z
Si Si1 0.374511 0.948904 0.535412
Si Si2 0.250000 0.250000 0.750000
Si Si3 0.892149 0.372486 0.810320
Si Si4 0.537526 0.217288 0.150010
Si Si5 0.895943 0.103325 0.835489
Si Si6 0.469722 0.815298 0.419425
Si Si7 0.879064 0.392022 0.955584
Si Si8 0.792553 0.803180 0.527917
O O1 0.500000 0.927739 0.500000
O O2 0.393337 0.943818 0.617708
O O3 0.242787 0.922569 0.525454
O O4 0.364125 0.000000 0.500000
O O5 0.344343 0.221679 0.799143
O O6 0.945543 0.396397 0.741780
O O7 0.743209 0.377350 0.820218
O O8 0.930122 0.398815 0.879393
O O9 0.939566 0.318428 0.816634
O O10 0.496550 0.270019 0.127714
O O11 0.589318 0.198491 0.077688
O O12 0.964488 0.140850 0.883860
O O13 0.500000 0.808292 0.500000
O O14 0.320886 0.821227 0.424703
O O15 0.825680 0.338526 0.967321
O O16 0.000000 0.400624 0.000000
O O17 0.750000 0.750000 0.507229
#
# Coordination Sequence:
#
# PCOD9327305 Si02
#       8
#    16   4  16  16  16  16  16  16
#     4  10  22  43  71  94 116 153 204 264 327 400
#     4  12  20  40  48  74 120 172 230 268 302 360
#     4  10  22  36  57  84 123 165 197 250 315 376
#     4  11  22  34  52  79 118 175 219 254 307 349
#     4  10  21  40  59  87 118 154 201 256 324 383
#     4  11  21  35  56  82 118 163 223 273 299 357
#     4  11  21  38  63  96 129 163 213 264 320 384
#     4  10  21  34  53  86 122 171 220 261 299 350
#
# _framework density 19.582656
#
# number of rings (size 3 to 8) (size 9 to 14) (size 15 to 20)
#    0.000    1.517    3.448    3.724    3.862    0.828 
#    0.000    1.379    0.000   13.241    0.000    0.000 
#    0.000    0.000    0.000    0.000    0.000    0.000 
#
# Total GULP energy -161514.100138 kJ/mol
# GULP energy per Si atom -5569.451729 kJ/mol
# Density = 1.953809 g / cm^3
# Si number density = 19.582656 Si / 1000 Ang^3
#
#
#
# Elastic Constant Matrix: (Units=GPa)
#
#
# Indices 1 2 3 4 5 6 
#
# 1 63.0315 27.9067 39.1381 0.0000 0.0000 0.0000
# 2 27.9067 76.8948 61.9231 0.0000 0.0000 0.0000
# 3 39.1381 61.9231 157.1815 0.0000 0.0000 0.0000
# 4 0.0000 0.0000 0.0000 17.9752 0.0000 0.0000
# 5 0.0000 0.0000 0.0000 0.0000 25.9154 0.0000
# 6 0.0000 0.0000 0.0000 0.0000 0.0000 24.8829
#
#
#
# Elastic Compliance Matrix: (Units=1/GPa)
#
#
# Indices 1 2 3 4 5 6 
#
# 1 0.019875 -0.004727 -0.003086 0.000000 0.000000 0.000000
# 2 -0.004727 0.020172 -0.006770 0.000000 0.000000 0.000000
# 3 -0.003086 -0.006770 0.009798 0.000000 0.000000 0.000000
# 4 0.000000 0.000000 0.000000 0.055632 0.000000 0.000000
# 5 0.000000 0.000000 0.000000 0.000000 0.038587 0.000000
# 6 0.000000 0.000000 0.000000 0.000000 0.000000 0.040188
#
#
# Mechanical properties :
#
#
# Convention : Reuss Voigt Hill
#
# Bulk Modulus (GPa) = 48.36288 61.67152 55.01720
# Shear Modulus (GPa) = 22.69512 24.96402 23.82957
#
# Velocity S-wave (km/s) = 3.40801 3.57431 3.49215
# Velocity P-wave (km/s) = 6.34322 6.97105 6.66454
#
# Compressibility (1/GPa) = 0.02067701
#
# Stress axis : x y z
#
# Youngs Moduli (GPa) = 50.31566 49.57303 102.06548
#
# Poissons Ratio (x) = 0.23436 0.31501
# Poissons Ratio (y) = 0.23787 0.69097
# Poissons Ratio (z) = 0.15529 0.33560
#
# Static dielectric constant tensor:
#      x y z
#    x 1.786720 0.000000 0.000000 
#    y 0.000000 1.727730 0.000000 
#    z 0.000000 0.000000 1.829200 
# 
# From -- ./inp_files/36476.got.cif
#   From: 2010.05.17/outbox.cif.g08.bks.cpg/sg22_19_cif.got.tgz:36476.got - 2010.06.03 23:40:54.
