data_PCOD9327440
_publ_section_title
;
Structure prediction by ZEFSAII (Michael W. Deem and Ramdas Pophale) SiO2 
 PCOD9327440
Probable space group: F 2 2 2
;
_chemical_formula_sum "Si O2"
_cell_formula_units_Z 64
_cell_length_a 5.292819
_cell_length_b 14.716745
_cell_length_c 35.259868
_cell_angle_alpha 90.000000
_cell_angle_beta 90.000000
_cell_angle_gamma 90.000000
_cell_volume 2746.499280
_symmetry_space_group_name_H-M "F 2 2 2"
_symmetry_group_IT_number 22
_symmetry_cell_setting 'orthorhombic'
loop_
_space_group_symop_operation_xyz
x,y,z
-x,-y,z
x,-y,-z
-x,y,-z
x,1/2+y,1/2+z
-x,1/2-y,1/2+z
x,1/2-y,1/2-z
-x,1/2+y,1/2-z
1/2+x,y,1/2+z
1/2-x,-y,1/2+z
1/2+x,-y,1/2-z
1/2-x,y,1/2-z
1/2+x,1/2+y,z
1/2-x,1/2-y,z
1/2+x,1/2-y,-z
1/2-x,1/2+y,-z
loop_
_atom_site_type_symbol
_atom_site_label
_atom_site_fract_x
_atom_site_fract_y
_atom_site_fract_z
Si Si1 0.755953 0.897549 0.983421
Si Si2 0.771535 0.141191 0.645922
Si Si3 0.492995 0.391755 0.270606
Si Si4 0.760489 0.139114 0.103900
O O1 0.791683 0.896466 0.938472
O O2 0.500000 0.856806 0.000000
O O3 0.000000 0.849594 0.000000
O O4 0.754756 0.000000 0.000000
O O5 0.750000 0.250000 0.645487
O O6 0.912754 0.119326 0.685601
O O7 0.488788 0.111037 0.632840
O O8 0.981391 0.109317 0.616344
O O9 0.500000 0.500000 0.264108
O O10 0.250000 0.351977 0.250000
O O11 0.750000 0.357398 0.250000
O O12 0.750000 0.250000 0.103201
#
# Coordination Sequence:
#
# PCOD9327440 Si02
#       4
#    16  16  16  16
#     4  10  21  38  56  82 118 150 194 256 296 364
#     4  10  21  39  60  90 122 156 204 249 299 365
#     4  10  21  39  61  88 125 161 202 249 303 361
#     4  10  21  38  60  84 119 159 199 249 305 361
#
# _framework density 23.302389999999999
#
# number of rings (size 3 to 8) (size 9 to 14) (size 15 to 20)
#    0.000    2.000    0.000    3.000    0.000    1.500 
#   13.500    1.250    0.000    0.000    0.000    0.000 
#    0.000    0.000    0.000    0.000    0.000    0.000 
#
# Total GULP energy -89190.951198 kJ/mol
# GULP energy per Si atom -5574.434450 kJ/mol
# Density = 2.324935 g / cm^3
# Si number density = 23.302390 Si / 1000 Ang^3
#
#
#
# Elastic Constant Matrix: (Units=GPa)
#
#
# Indices 1 2 3 4 5 6 
#
# 1 234.3907 20.5975 61.2628 0.0000 0.0000 0.0000
# 2 20.5975 94.7213 1.0025 0.0000 0.0000 0.0000
# 3 61.2628 1.0025 129.7915 0.0000 0.0000 0.0000
# 4 0.0000 0.0000 0.0000 49.4288 0.0000 0.0000
# 5 0.0000 0.0000 0.0000 0.0000 48.8965 0.0000
# 6 0.0000 0.0000 0.0000 0.0000 0.0000 -35.6805
#
#
#
# Elastic Compliance Matrix: (Units=1/GPa)
#
#
# Indices 1 2 3 4 5 6 
#
# 1 0.004970 -0.001056 -0.002338 0.000000 0.000000 0.000000
# 2 -0.001056 0.010783 0.000415 0.000000 0.000000 0.000000
# 3 -0.002338 0.000415 0.008805 0.000000 0.000000 0.000000
# 4 0.000000 0.000000 0.000000 0.020231 0.000000 0.000000
# 5 0.000000 0.000000 0.000000 0.000000 0.020451 0.000000
# 6 0.000000 0.000000 0.000000 0.000000 0.000000 -0.028027
#
#
# Mechanical properties :
#
#
# Convention : Reuss Voigt Hill
#
# Bulk Modulus (GPa) = 53.76262 69.40324 61.58293
# Shear Modulus (GPa) = 101.27379 37.59836 69.43608
#
# Velocity S-wave (km/s) = 6.59962 4.02119 5.46466
# Velocity P-wave (km/s) = 9.01084 7.16997 8.14259
#
# Compressibility (1/GPa) = 0.01860028
#
# Stress axis : x y z
#
# Youngs Moduli (GPa) = 201.19815 92.74260 113.57267
#
# Poissons Ratio (x) = 0.09794 0.26551
# Poissons Ratio (y) = 0.21248 -0.04715
# Poissons Ratio (z) = 0.47037 -0.03850
#
# Static dielectric constant tensor:
#      x y z
#    x 1.888570 0.000000 0.000000 
#    y 0.000000 1.844380 0.000000 
#    z 0.000000 0.000000 2.195800 
# 
# From -- ./inp_files/2849.got.cif
#   From: 2010.05.17/outbox.cif.g08.bks.cpg/sg22_2_cif.got.tgz:2849.got - 2010.06.03 23:40:54.
