data_PCOD9327114
_publ_section_title
;
Structure prediction by ZEFSAII (Michael W. Deem and Ramdas Pophale) SiO2 
 PCOD9327114
Probable space group: F 2 2 2
;
_chemical_formula_sum "Si O2"
_cell_formula_units_Z 72
_cell_length_a 13.082331
_cell_length_b 12.701691
_cell_length_c 18.377592
_cell_angle_alpha 90.000000
_cell_angle_beta 90.000000
_cell_angle_gamma 90.000000
_cell_volume 3053.762671
_symmetry_space_group_name_H-M "F 2 2 2"
_symmetry_group_IT_number 22
_symmetry_cell_setting 'orthorhombic'
loop_
_space_group_symop_operation_xyz
x,y,z
-x,-y,z
x,-y,-z
-x,y,-z
x,1/2+y,1/2+z
-x,1/2-y,1/2+z
x,1/2-y,1/2-z
-x,1/2+y,1/2-z
1/2+x,y,1/2+z
1/2-x,-y,1/2+z
1/2+x,-y,1/2-z
1/2-x,y,1/2-z
1/2+x,1/2+y,z
1/2-x,1/2-y,z
1/2+x,1/2-y,-z
1/2-x,1/2+y,-z
loop_
_atom_site_type_symbol
_atom_site_label
_atom_site_fract_x
_atom_site_fract_y
_atom_site_fract_z
Si Si1 0.750000 0.479065 0.750000
Si Si2 0.699701 0.865948 0.880190
Si Si3 0.476387 0.189084 0.085723
Si Si4 0.763929 0.377348 0.954624
Si Si5 0.416269 0.407250 0.152723
O O1 0.732326 0.557301 0.683175
O O2 0.651926 0.410940 0.773959
O O3 0.750000 0.750000 0.870253
O O4 0.577758 0.861902 0.883069
O O5 0.730648 0.904745 0.960711
O O6 0.462288 0.293947 0.133570
O O7 0.500000 0.216302 0.000000
O O8 0.666171 0.419042 0.912196
O O9 0.750000 0.250000 0.954075
O O10 0.875668 0.384272 0.917044
O O11 0.500000 0.500000 0.153499
#
# Coordination Sequence:
#
# PCOD9327114 Si02
#       5
#     8  16  16  16  16
#     4  12  27  38  53  92 138 166 194 250 319 380
#     4  10  20  39  63  88 121 165 213 257 310 384
#     4   9  19  40  70  92 112 158 220 270 312 367
#     4   8  18  39  66  90 113 154 217 272 309 365
#     4  11  24  41  62  95 130 164 209 268 330 382
#
# _framework density 23.577470000000002
#
# number of rings (size 3 to 8) (size 9 to 14) (size 15 to 20)
#    0.000    2.222    0.000    3.000    0.000    4.889 
#    0.000   11.667    0.000    4.000    0.000    0.000 
#    0.000    0.000    0.000    0.000    0.000    0.000 
#
# Total GULP energy -100703.824098 kJ/mol
# GULP energy per Si atom -5594.656894 kJ/mol
# Density = 2.352381 g / cm^3
# Si number density = 23.577470 Si / 1000 Ang^3
#
#
#
# Elastic Constant Matrix: (Units=GPa)
#
#
# Indices 1 2 3 4 5 6 
#
# 1 118.0617 22.8845 34.1038 0.0000 0.0000 0.0000
# 2 22.8845 74.6393 41.7216 0.0000 0.0000 0.0000
# 3 34.1038 41.7216 103.0874 0.0000 0.0000 0.0000
# 4 0.0000 0.0000 0.0000 16.6257 0.0000 0.0000
# 5 0.0000 0.0000 0.0000 0.0000 40.0027 0.0000
# 6 0.0000 0.0000 0.0000 0.0000 0.0000 33.7011
#
#
#
# Elastic Compliance Matrix: (Units=1/GPa)
#
#
# Indices 1 2 3 4 5 6 
#
# 1 0.009492 -0.001493 -0.002536 0.000000 0.000000 0.000000
# 2 -0.001493 0.017550 -0.006609 0.000000 0.000000 0.000000
# 3 -0.002536 -0.006609 0.013214 0.000000 0.000000 0.000000
# 4 0.000000 0.000000 0.000000 0.060148 0.000000 0.000000
# 5 0.000000 0.000000 0.000000 0.000000 0.024998 0.000000
# 6 0.000000 0.000000 0.000000 0.000000 0.000000 0.029673
#
#
# Mechanical properties :
#
#
# Convention : Reuss Voigt Hill
#
# Bulk Modulus (GPa) = 52.68519 54.80092 53.74305
# Shear Modulus (GPa) = 27.37075 31.20448 29.28762
#
# Velocity S-wave (km/s) = 3.41087 3.64192 3.52829
# Velocity P-wave (km/s) = 6.15680 6.40142 6.28030
#
# Compressibility (1/GPa) = 0.01898067
#
# Stress axis : x y z
#
# Youngs Moduli (GPa) = 105.35113 56.98129 75.67581
#
# Poissons Ratio (x) = 0.08505 0.19192
# Poissons Ratio (y) = 0.15725 0.50013
# Poissons Ratio (z) = 0.26718 0.37658
#
# Static dielectric constant tensor:
#      x y z
#    x 1.900840 0.000000 0.000000 
#    y 0.000000 1.965740 0.000000 
#    z 0.000000 0.000000 1.879270 
# 
# From -- ./inp_files/35884.got.cif
#   From: 2010.05.17/outbox.cif.g08.bks.cpg/sg22_18_cif.got.tgz:35884.got - 2010.06.03 23:40:54.
