data_PCOD9327608
_publ_section_title
;
Structure prediction by ZEFSAII (Michael W. Deem and Ramdas Pophale) SiO2 
 PCOD9327608
Probable space group: F 2 2 2
;
_chemical_formula_sum "Si O2"
_cell_formula_units_Z 116
_cell_length_a 27.398147
_cell_length_b 22.018529
_cell_length_c 9.212968
_cell_angle_alpha 90.000000
_cell_angle_beta 90.000000
_cell_angle_gamma 90.000000
_cell_volume 5557.878592
_symmetry_space_group_name_H-M "F 2 2 2"
_symmetry_group_IT_number 22
_symmetry_cell_setting 'orthorhombic'
loop_
_space_group_symop_operation_xyz
x,y,z
-x,-y,z
x,-y,-z
-x,y,-z
x,1/2+y,1/2+z
-x,1/2-y,1/2+z
x,1/2-y,1/2-z
-x,1/2+y,1/2-z
1/2+x,y,1/2+z
1/2-x,-y,1/2+z
1/2+x,-y,1/2-z
1/2-x,y,1/2-z
1/2+x,1/2+y,z
1/2-x,1/2-y,z
1/2+x,1/2-y,-z
1/2-x,1/2+y,-z
loop_
_atom_site_type_symbol
_atom_site_label
_atom_site_fract_x
_atom_site_fract_y
_atom_site_fract_z
Si Si1 0.548723 0.266722 0.582808
Si Si2 0.153516 0.447187 0.900286
Si Si3 0.427459 0.095079 0.126443
Si Si4 0.500000 0.500000 0.500000
Si Si5 0.283160 0.884479 0.606787
Si Si6 0.874335 0.533334 0.354964
Si Si7 0.341404 0.761075 0.575149
Si Si8 0.285652 0.839333 0.123632
O O1 0.500000 0.246811 0.500000
O O2 0.543731 0.250000 0.750000
O O3 0.552828 0.339536 0.584797
O O4 0.601713 0.242260 0.530106
O O5 0.127164 0.484814 0.774593
O O6 0.176211 0.388888 0.819056
O O7 0.179874 0.500000 0.000000
O O8 0.117307 0.417714 0.017686
O O9 0.406973 0.088022 0.289759
O O10 0.467049 0.043623 0.097296
O O11 0.250000 0.875265 0.750000
O O12 0.319824 0.940242 0.623822
O O13 0.315841 0.826018 0.565685
O O14 0.244731 0.885223 0.478326
O O15 0.891114 0.500000 0.500000
O O16 0.339757 0.750000 0.750000
O O17 0.310615 0.712243 0.478107
O O18 0.250000 0.816578 0.250000
#
# Coordination Sequence:
#
# PCOD9327608 Si02
#       8
#    16  16  16   4  16  16  16  16
#     4  11  24  46  75 105 134 179 236 295 363 427
#     4  10  21  40  65  94 140 180 224 270 338 410
#     4  11  21  43  71  99 131 182 230 274 342 434
#     4  12  20  40  78 100 116 180 242 270 332 432
#     4  12  24  40  66  96 133 190 237 268 336 424
#     4  11  23  40  63 100 142 176 219 287 352 396
#     4  11  23  44  69  91 137 181 233 286 341 421
#     4  12  25  40  62 101 137 180 234 284 337 405
#
# _framework density 20.871272000000001
#
# number of rings (size 3 to 8) (size 9 to 14) (size 15 to 20)
#    0.000    0.828    5.517    4.552    0.000    4.414 
#    2.483    4.483    0.000    0.000    0.000    0.000 
#    0.000    0.000    0.000    0.000    0.000    0.000 
#
# Total GULP energy -161781.552440 kJ/mol
# GULP energy per Si atom -5578.674222 kJ/mol
# Density = 2.082377 g / cm^3
# Si number density = 20.871272 Si / 1000 Ang^3
#
#
#
# Elastic Constant Matrix: (Units=GPa)
#
#
# Indices 1 2 3 4 5 6 
#
# 1 87.7402 15.2870 16.8937 0.0000 0.0001 0.0000
# 2 15.2870 65.0507 -3.3150 0.0000 0.0006 0.0000
# 3 16.8937 -3.3150 76.3801 -0.0001 0.0010 0.0000
# 4 0.0000 0.0000 -0.0001 19.2074 0.0007 0.0000
# 5 0.0001 0.0006 0.0010 0.0007 110.8607 -0.0004
# 6 0.0000 0.0000 0.0000 0.0000 -0.0004 38.2642
#
#
#
# Elastic Compliance Matrix: (Units=1/GPa)
#
#
# Indices 1 2 3 4 5 6 
#
# 1 0.012492 -0.003083 -0.002897 0.000000 0.000000 0.000000
# 2 -0.003083 0.016168 0.001384 0.000000 0.000000 0.000000
# 3 -0.002897 0.001384 0.013793 0.000000 0.000000 0.000000
# 4 0.000000 0.000000 0.000000 0.052063 0.000000 0.000000
# 5 0.000000 0.000000 0.000000 0.000000 0.009020 0.000000
# 6 0.000000 0.000000 0.000000 0.000000 0.000000 0.026134
#
#
# Mechanical properties :
#
#
# Convention : Reuss Voigt Hill
#
# Bulk Modulus (GPa) = 30.06602 31.87806 30.97204
# Shear Modulus (GPa) = 33.34434 47.02015 40.18224
#
# Velocity S-wave (km/s) = 4.00136 4.75158 4.39252
# Velocity P-wave (km/s) = 5.98202 6.73871 6.37161
#
# Compressibility (1/GPa) = 0.03326014
#
# Stress axis : x y z
#
# Youngs Moduli (GPa) = 80.04954 61.85162 72.49958
#
# Poissons Ratio (x) = 0.19071 0.21002
# Poissons Ratio (y) = 0.24682 -0.10031
# Poissons Ratio (z) = 0.23189 -0.08558
#
# Static dielectric constant tensor:
#      x y z
#    x 1.791520 0.000000 0.000000 
#    y 0.000000 1.809070 0.000000 
#    z 0.000000 0.000000 1.759510 
# 
# From -- ./inp_files/15736.got.cif
#   From: 2010.05.17/outbox.cif.g08.bks.cpg/sg22_8_cif.got.tgz:15736.got - 2010.06.03 23:40:54.
