data_PCOD9327549
_publ_section_title
;
Structure prediction by ZEFSAII (Michael W. Deem and Ramdas Pophale) SiO2 
 PCOD9327549
Probable space group: F 2 2 2
;
_chemical_formula_sum "Si O2"
_cell_formula_units_Z 64
_cell_length_a 14.723157
_cell_length_b 13.376162
_cell_length_c 14.047819
_cell_angle_alpha 90.000000
_cell_angle_beta 90.000000
_cell_angle_gamma 90.000000
_cell_volume 2766.568107
_symmetry_space_group_name_H-M "F 2 2 2"
_symmetry_group_IT_number 22
_symmetry_cell_setting 'orthorhombic'
loop_
_space_group_symop_operation_xyz
x,y,z
-x,-y,z
x,-y,-z
-x,y,-z
x,1/2+y,1/2+z
-x,1/2-y,1/2+z
x,1/2-y,1/2-z
-x,1/2+y,1/2-z
1/2+x,y,1/2+z
1/2-x,-y,1/2+z
1/2+x,-y,1/2-z
1/2-x,y,1/2-z
1/2+x,1/2+y,z
1/2-x,1/2-y,z
1/2+x,1/2-y,-z
1/2-x,1/2+y,-z
loop_
_atom_site_type_symbol
_atom_site_label
_atom_site_fract_x
_atom_site_fract_y
_atom_site_fract_z
Si Si1 0.348262 0.122101 0.092437
Si Si2 0.750000 0.250000 0.250000
Si Si3 0.916054 0.441583 0.399789
Si Si4 0.750000 0.250000 0.750000
Si Si5 0.500000 0.245462 0.500000
Si Si6 0.786776 0.589368 0.887164
O O1 0.307278 0.179560 0.181033
O O2 0.435931 0.181867 0.059544
O O3 0.353766 0.004635 0.116385
O O4 0.284408 0.123361 0.997547
O O5 0.809311 0.318969 0.180564
O O6 0.905400 0.500000 0.500000
O O7 0.946490 0.330320 0.429645
O O8 0.815414 0.443260 0.357000
O O9 0.000000 0.500000 0.349989
#
# Coordination Sequence:
#
# PCOD9327549 Si02
#       6
#    16   4  16   4   8  16
#     4  11  24  42  72 104 146 186 254 303 387 438
#     4  12  24  40  70  96 148 192 258 300 376 458
#     4   9  18  36  66  95 135 188 249 293 365 440
#     4  12  24  40  74 116 144 194 240 320 364 470
#     4  10  21  39  66 106 138 188 230 314 362 442
#     4  11  23  44  69  98 139 204 245 308 370 472
#
# _framework density 23.133354000000001
#
# number of rings (size 3 to 8) (size 9 to 14) (size 15 to 20)
#    0.000    1.750    2.500    4.500    3.500    2.000 
#    0.000    5.000    0.000    0.000    0.000    0.000 
#    0.000    0.000    0.000    0.000    0.000    0.000 
#
# Total GULP energy -89419.033651 kJ/mol
# GULP energy per Si atom -5588.689603 kJ/mol
# Density = 2.308070 g / cm^3
# Si number density = 23.133354 Si / 1000 Ang^3
#
#
#
# Elastic Constant Matrix: (Units=GPa)
#
#
# Indices 1 2 3 4 5 6 
#
# 1 95.0215 68.6299 15.9311 0.0000 0.0000 0.0000
# 2 68.6299 199.1281 71.9241 0.0000 0.0000 0.0000
# 3 15.9311 71.9241 117.0997 0.0000 0.0000 0.0000
# 4 0.0000 0.0000 0.0000 52.0950 0.0000 0.0000
# 5 0.0000 0.0000 0.0000 0.0000 13.5044 0.0000
# 6 0.0000 0.0000 0.0000 0.0000 0.0000 36.0487
#
#
#
# Elastic Compliance Matrix: (Units=1/GPa)
#
#
# Indices 1 2 3 4 5 6 
#
# 1 0.014183 -0.005386 0.001379 0.000000 0.000000 0.000000
# 2 -0.005386 0.008499 -0.004487 0.000000 0.000000 0.000000
# 3 0.001379 -0.004487 0.011108 0.000000 0.000000 0.000000
# 4 0.000000 0.000000 0.000000 0.019196 0.000000 0.000000
# 5 0.000000 0.000000 0.000000 0.000000 0.074050 0.000000
# 6 0.000000 0.000000 0.000000 0.000000 0.000000 0.027740
#
#
# Mechanical properties :
#
#
# Convention : Reuss Voigt Hill
#
# Bulk Modulus (GPa) = 59.52164 80.46881 69.99523
# Shear Modulus (GPa) = 28.19025 37.31391 32.75208
#
# Velocity S-wave (km/s) = 3.49463 4.02056 3.76679
# Velocity P-wave (km/s) = 6.48605 7.51089 7.01721
#
# Compressibility (1/GPa) = 0.01680061
#
# Stress axis : x y z
#
# Youngs Moduli (GPa) = 70.50704 117.65950 90.02171
#
# Poissons Ratio (x) = 0.63373 -0.12411
# Poissons Ratio (y) = 0.37976 0.40397
# Poissons Ratio (z) = -0.09721 0.52799
#
# Static dielectric constant tensor:
#      x y z
#    x 1.939720 0.000000 0.000000 
#    y 0.000000 1.903380 0.000000 
#    z 0.000000 0.000000 1.877670 
# 
# From -- ./inp_files/20906.got.cif
#   From: 2010.05.17/outbox.cif.g08.bks.cpg/sg22_11_cif.got.tgz:20906.got - 2010.06.03 23:40:54.
