data_PCOD9327505
_publ_section_title
;
Structure prediction by ZEFSAII (Michael W. Deem and Ramdas Pophale) SiO2 
 PCOD9327505
Probable space group: F 2 2 2
;
_chemical_formula_sum "Si O2"
_cell_formula_units_Z 64
_cell_length_a 5.397071
_cell_length_b 19.546331
_cell_length_c 28.179845
_cell_angle_alpha 90.000000
_cell_angle_beta 90.000000
_cell_angle_gamma 90.000000
_cell_volume 2972.774591
_symmetry_space_group_name_H-M "F 2 2 2"
_symmetry_group_IT_number 22
_symmetry_cell_setting 'orthorhombic'
loop_
_space_group_symop_operation_xyz
x,y,z
-x,-y,z
x,-y,-z
-x,y,-z
x,1/2+y,1/2+z
-x,1/2-y,1/2+z
x,1/2-y,1/2-z
-x,1/2+y,1/2-z
1/2+x,y,1/2+z
1/2-x,-y,1/2+z
1/2+x,-y,1/2-z
1/2-x,y,1/2-z
1/2+x,1/2+y,z
1/2-x,1/2-y,z
1/2+x,1/2-y,-z
1/2-x,1/2+y,-z
loop_
_atom_site_type_symbol
_atom_site_label
_atom_site_fract_x
_atom_site_fract_y
_atom_site_fract_z
Si Si1 0.499418 0.077498 0.218717
Si Si2 0.257846 0.028417 0.445118
Si Si3 0.378656 0.322674 0.450222
Si Si4 0.490007 0.792973 0.151098
O O1 0.750000 0.085067 0.250000
O O2 0.491126 0.137766 0.180630
O O3 0.250000 0.083703 0.250000
O O4 0.500000 0.000000 0.198923
O O5 0.282228 0.109898 0.441731
O O6 0.500000 0.000000 0.420335
O O7 0.258570 0.000000 0.500000
O O8 0.000000 0.000000 0.425394
O O9 0.500000 0.339591 0.500000
O O10 0.250000 0.250000 0.456695
O O11 0.547470 0.312896 0.404170
O O12 0.750000 0.750000 0.154167
O O13 0.250000 0.750000 0.166949
#
# Coordination Sequence:
#
# PCOD9327505 Si02
#       4
#    16  16  16  16
#     4  10  22  43  71  99 132 169 210 264 334 393
#     4  10  21  39  59  85 115 156 216 271 305 375
#     4  11  24  41  64  92 132 180 217 271 321 378
#     4  11  25  43  64 100 133 170 222 265 322 388
#
# _framework density 21.528708000000002
#
# number of rings (size 3 to 8) (size 9 to 14) (size 15 to 20)
#    0.000    1.500    2.500    2.250    3.500    8.000 
#    0.000    3.750    0.000    0.000    0.000    0.000 
#    0.000    0.000    0.000    0.000    0.000    0.000 
#
# Total GULP energy -89327.305902 kJ/mol
# GULP energy per Si atom -5582.956619 kJ/mol
# Density = 2.147971 g / cm^3
# Si number density = 21.528708 Si / 1000 Ang^3
#
#
#
# Elastic Constant Matrix: (Units=GPa)
#
#
# Indices 1 2 3 4 5 6 
#
# 1 160.7638 59.0554 28.3047 0.0000 0.0000 0.0000
# 2 59.0554 178.7705 43.6393 0.0000 0.0000 0.0000
# 3 28.3047 43.6393 75.2163 0.0000 0.0000 0.0000
# 4 0.0000 0.0000 0.0000 69.8202 0.0000 0.0000
# 5 0.0000 0.0000 0.0000 0.0000 -3.5933 0.0000
# 6 0.0000 0.0000 0.0000 0.0000 0.0000 24.6777
#
#
#
# Elastic Compliance Matrix: (Units=1/GPa)
#
#
# Indices 1 2 3 4 5 6 
#
# 1 0.007232 -0.002009 -0.001556 0.000000 0.000000 0.000000
# 2 -0.002009 0.007075 -0.003349 0.000000 0.000000 0.000000
# 3 -0.001556 -0.003349 0.015823 0.000000 0.000000 0.000000
# 4 0.000000 0.000000 0.000000 0.014322 0.000000 0.000000
# 5 0.000000 0.000000 0.000000 0.000000 -0.278292 0.000000
# 6 0.000000 0.000000 0.000000 0.000000 0.000000 0.040522
#
#
# Mechanical properties :
#
#
# Convention : Reuss Voigt Hill
#
# Bulk Modulus (GPa) = 61.33850 75.19439 68.26645
# Shear Modulus (GPa) = -28.72662 37.09765 4.18552
#
# Velocity S-wave (km/s) = -3.65682 4.15561 1.39584
# Velocity P-wave (km/s) = 3.27468 7.61767 5.86312
#
# Compressibility (1/GPa) = 0.01630298
#
# Stress axis : x y z
#
# Youngs Moduli (GPa) = 138.26762 141.34332 63.19799
#
# Poissons Ratio (x) = 0.28401 0.09832
# Poissons Ratio (y) = 0.27783 0.21163
# Poissons Ratio (z) = 0.21512 0.47331
#
# Static dielectric constant tensor:
#      x y z
#    x 1.802540 0.000000 0.000000 
#    y 0.000000 1.679520 0.000000 
#    z 0.000000 0.000000 1.757260 
# 
# From -- ./inp_files/2852.got.cif
#   From: 2010.05.17/outbox.cif.g08.bks.cpg/sg22_2_cif.got.tgz:2852.got - 2010.06.03 23:40:54.
