data_PCOD9327016
_publ_section_title
;
Structure prediction by ZEFSAII (Michael W. Deem and Ramdas Pophale) SiO2 
 PCOD9327016
Probable space group: F 2 2 2
;
_chemical_formula_sum "Si O2"
_cell_formula_units_Z 88
_cell_length_a 23.543601
_cell_length_b 18.798658
_cell_length_c 9.320666
_cell_angle_alpha 90.000000
_cell_angle_beta 90.000000
_cell_angle_gamma 90.000000
_cell_volume 4125.215886
_symmetry_space_group_name_H-M "F 2 2 2"
_symmetry_group_IT_number 22
_symmetry_cell_setting 'orthorhombic'
loop_
_space_group_symop_operation_xyz
x,y,z
-x,-y,z
x,-y,-z
-x,y,-z
x,1/2+y,1/2+z
-x,1/2-y,1/2+z
x,1/2-y,1/2-z
-x,1/2+y,1/2-z
1/2+x,y,1/2+z
1/2-x,-y,1/2+z
1/2+x,-y,1/2-z
1/2-x,y,1/2-z
1/2+x,1/2+y,z
1/2-x,1/2-y,z
1/2+x,1/2-y,-z
1/2-x,1/2+y,-z
loop_
_atom_site_type_symbol
_atom_site_label
_atom_site_fract_x
_atom_site_fract_y
_atom_site_fract_z
Si Si1 0.057389 0.122204 0.441294
Si Si2 0.285020 0.000000 0.500000
Si Si3 0.750000 0.100574 0.250000
Si Si4 0.887362 0.035354 0.809413
Si Si5 0.376718 0.631022 0.272165
Si Si6 0.933728 0.654647 0.489384
Si Si7 0.064599 0.750000 0.750000
O O1 0.096334 0.074693 0.337666
O O2 0.095769 0.145401 0.574812
O O3 0.035341 0.188369 0.344026
O O4 0.000000 0.086236 0.500000
O O5 0.251388 0.948427 0.393751
O O6 0.326640 0.957357 0.609718
O O7 0.690692 0.141464 0.239701
O O8 0.889307 0.952319 0.768628
O O9 0.927701 0.074511 0.926217
O O10 0.406883 0.669714 0.141611
O O11 0.903878 0.703857 0.369888
O O12 0.000000 0.671289 0.500000
#
# Coordination Sequence:
#
# PCOD9327016 Si02
#       7
#    16   8   8  16  16  16   8
#     4  11  24  39  62  93 124 166 210 263 314 374
#     4  10  20  38  59  92 129 174 204 252 306 378
#     4  10  22  36  62  93 126 169 210 252 302 384
#     4  10  20  38  55  93 131 154 201 243 322 380
#     4  11  22  38  61  97 124 164 207 253 321 380
#     4  11  21  37  62  86 124 164 210 258 316 375
#     4  10  24  42  60  83 116 167 224 268 306 368
#
# _framework density 21.332217
#
# number of rings (size 3 to 8) (size 9 to 14) (size 15 to 20)
#    0.000    1.455    3.636    3.273    5.091    5.091 
#    0.000    0.000    0.000    3.273    0.000    0.000 
#    0.000    0.000    0.000    0.000    0.000    0.000 
#
# Total GULP energy -122608.554720 kJ/mol
# GULP energy per Si atom -5573.116124 kJ/mol
# Density = 2.128366 g / cm^3
# Si number density = 21.332217 Si / 1000 Ang^3
#
#
#
# Elastic Constant Matrix: (Units=GPa)
#
#
# Indices 1 2 3 4 5 6 
#
# 1 122.6529 2.5519 59.7860 0.0000 0.0000 0.0000
# 2 2.5519 53.1857 13.5652 0.0000 0.0000 0.0000
# 3 59.7860 13.5652 169.8509 0.0000 0.0000 0.0000
# 4 0.0000 0.0000 0.0000 39.7602 0.0000 0.0000
# 5 0.0000 0.0000 0.0000 0.0000 33.5921 0.0000
# 6 0.0000 0.0000 0.0000 0.0000 0.0000 7.0211
#
#
#
# Elastic Compliance Matrix: (Units=1/GPa)
#
#
# Indices 1 2 3 4 5 6 
#
# 1 0.009851 0.000420 -0.003501 0.000000 0.000000 0.000000
# 2 0.000420 0.019211 -0.001682 0.000000 0.000000 0.000000
# 3 -0.003501 -0.001682 0.007254 0.000000 0.000000 0.000000
# 4 0.000000 0.000000 0.000000 0.025151 0.000000 0.000000
# 5 0.000000 0.000000 0.000000 0.000000 0.029769 0.000000
# 6 0.000000 0.000000 0.000000 0.000000 0.000000 0.142427
#
#
# Mechanical properties :
#
#
# Convention : Reuss Voigt Hill
#
# Bulk Modulus (GPa) = 37.32716 55.27728 46.30222
# Shear Modulus (GPa) = 19.83191 34.06043 26.94617
#
# Velocity S-wave (km/s) = 3.05236 4.00017 3.55796
# Velocity P-wave (km/s) = 5.47344 6.87779 6.21540
#
# Compressibility (1/GPa) = 0.02679015
#
# Stress axis : x y z
#
# Youngs Moduli (GPa) = 101.51392 52.05369 137.85148
#
# Poissons Ratio (x) = -0.02188 0.48262
# Poissons Ratio (y) = -0.04266 0.23190
# Poissons Ratio (z) = 0.35540 0.08757
#
# Static dielectric constant tensor:
#      x y z
#    x 1.751590 0.000000 0.000000 
#    y 0.000000 1.879490 0.000000 
#    z 0.000000 0.000000 1.791060 
# 
# From -- ./inp_files/13773.got.cif
#   From: 2010.05.17/outbox.cif.g08.bks.cpg/sg22_7_cif.got.tgz:13773.got - 2010.06.03 23:40:54.
