data_PCOD9327542
_publ_section_title
;
Structure prediction by ZEFSAII (Michael W. Deem and Ramdas Pophale) SiO2 
 PCOD9327542
Probable space group: F 2 2 2
;
_chemical_formula_sum "Si O2"
_cell_formula_units_Z 104
_cell_length_a 19.000065
_cell_length_b 32.817529
_cell_length_c 8.399811
_cell_angle_alpha 90.000000
_cell_angle_beta 90.000000
_cell_angle_gamma 90.000000
_cell_volume 5237.577699
_symmetry_space_group_name_H-M "F 2 2 2"
_symmetry_group_IT_number 22
_symmetry_cell_setting 'orthorhombic'
loop_
_space_group_symop_operation_xyz
x,y,z
-x,-y,z
x,-y,-z
-x,y,-z
x,1/2+y,1/2+z
-x,1/2-y,1/2+z
x,1/2-y,1/2-z
-x,1/2+y,1/2-z
1/2+x,y,1/2+z
1/2-x,-y,1/2+z
1/2+x,-y,1/2-z
1/2-x,y,1/2-z
1/2+x,1/2+y,z
1/2-x,1/2-y,z
1/2+x,1/2-y,-z
1/2-x,1/2+y,-z
loop_
_atom_site_type_symbol
_atom_site_label
_atom_site_fract_x
_atom_site_fract_y
_atom_site_fract_z
Si Si1 0.926213 0.749392 0.061808
Si Si2 0.386006 0.160819 0.455932
Si Si3 0.820858 0.815682 0.362299
Si Si4 0.971202 0.046383 0.672450
Si Si5 0.756729 0.880530 0.565507
Si Si6 0.306004 0.461327 0.385824
Si Si7 0.000000 0.592892 0.500000
O O1 0.937728 0.750000 0.250000
O O2 0.912873 0.794577 0.990711
O O3 0.853775 0.723908 0.054310
O O4 0.000000 0.731896 0.000000
O O5 0.375497 0.166702 0.266893
O O6 0.312029 0.145492 0.521189
O O7 0.435528 0.123871 0.498944
O O8 0.750000 0.808563 0.250000
O O9 0.814107 0.849121 0.499498
O O10 0.885807 0.047977 0.671189
O O11 0.997541 0.067706 0.834984
O O12 0.000000 0.062599 0.500000
O O13 0.000000 0.000000 0.679287
O O14 0.750000 0.889536 0.750000
O O15 0.771802 0.922130 0.472002
O O16 0.312639 0.500000 0.500000
O O17 0.250000 0.472069 0.250000
#
# Coordination Sequence:
#
# PCOD9327542 Si02
#       7
#    16  16  16  16  16  16   8
#     4  10  21  39  65  93 133 174 221 280 342 406
#     4  10  22  41  61  96 132 172 226 280 343 421
#     4   9  20  42  64  89 129 181 227 276 343 409
#     4  11  25  47  69 103 141 183 231 290 346 436
#     4  11  24  40  63  98 132 172 228 282 336 407
#     4  12  25  46  72 100 140 177 227 286 353 417
#     4  12  23  40  74  98 134 186 224 284 361 412
#
# _framework density 19.856507000000001
#
# number of rings (size 3 to 8) (size 9 to 14) (size 15 to 20)
#    0.000    1.385    2.308    3.923    2.154   10.769 
#    0.000    2.308    0.000    0.000    0.000    0.000 
#    0.000    0.000    0.000    0.000    0.000    0.000 
#
# Total GULP energy -144840.601010 kJ/mol
# GULP energy per Si atom -5570.792347 kJ/mol
# Density = 1.981131 g / cm^3
# Si number density = 19.856507 Si / 1000 Ang^3
#
#
#
# Elastic Constant Matrix: (Units=GPa)
#
#
# Indices 1 2 3 4 5 6 
#
# 1 64.6635 13.2782 25.4151 0.0000 -0.0001 0.0000
# 2 13.2782 84.3374 43.0074 0.0000 0.0000 0.0000
# 3 25.4151 43.0074 84.0700 0.0000 -0.0001 0.0000
# 4 0.0000 0.0000 0.0000 25.2725 0.0000 0.0000
# 5 -0.0001 0.0000 -0.0001 0.0000 20.7979 0.0000
# 6 0.0000 0.0000 0.0000 0.0000 0.0000 31.3762
#
#
#
# Elastic Compliance Matrix: (Units=1/GPa)
#
#
# Indices 1 2 3 4 5 6 
#
# 1 0.017550 -0.000078 -0.005266 0.000000 0.000000 0.000000
# 2 -0.000078 0.016042 -0.008183 0.000000 0.000000 0.000000
# 3 -0.005266 -0.008183 0.017673 0.000000 0.000000 0.000000
# 4 0.000000 0.000000 0.000000 0.039569 0.000000 0.000000
# 5 0.000000 0.000000 0.000000 0.000000 0.048082 0.000000
# 6 0.000000 0.000000 0.000000 0.000000 0.000000 0.031871
#
#
# Mechanical properties :
#
#
# Convention : Reuss Voigt Hill
#
# Bulk Modulus (GPa) = 41.30191 44.05248 42.67720
# Shear Modulus (GPa) = 24.28225 25.58067 24.93146
#
# Velocity S-wave (km/s) = 3.50077 3.59315 3.54726
# Velocity P-wave (km/s) = 6.09802 6.28076 6.19006
#
# Compressibility (1/GPa) = 0.02421195
#
# Stress axis : x y z
#
# Youngs Moduli (GPa) = 56.97912 62.33487 56.58355
#
# Poissons Ratio (x) = 0.00486 0.29795
# Poissons Ratio (y) = 0.00444 0.46303
# Poissons Ratio (z) = 0.30004 0.51010
#
# Static dielectric constant tensor:
#      x y z
#    x 1.821630 0.000000 0.000000 
#    y 0.000000 1.780670 0.000000 
#    z 0.000000 0.000000 1.723380 
# 
# From -- ./inp_files/13074.got.cif
#   From: 2010.05.17/outbox.cif.g08.bks.cpg/sg22_7_cif.got.tgz:13074.got - 2010.06.03 23:40:54.
