data_PCOD9327133
_publ_section_title
;
Structure prediction by ZEFSAII (Michael W. Deem and Ramdas Pophale) SiO2 
 PCOD9327133
Probable space group: F 2 2 2
;
_chemical_formula_sum "Si O2"
_cell_formula_units_Z 96
_cell_length_a 28.537883
_cell_length_b 9.232333
_cell_length_c 16.268525
_cell_angle_alpha 90.000000
_cell_angle_beta 90.000000
_cell_angle_gamma 90.000000
_cell_volume 4286.288438
_symmetry_space_group_name_H-M "F 2 2 2"
_symmetry_group_IT_number 22
_symmetry_cell_setting 'orthorhombic'
loop_
_space_group_symop_operation_xyz
x,y,z
-x,-y,z
x,-y,-z
-x,y,-z
x,1/2+y,1/2+z
-x,1/2-y,1/2+z
x,1/2-y,1/2-z
-x,1/2+y,1/2-z
1/2+x,y,1/2+z
1/2-x,-y,1/2+z
1/2+x,-y,1/2-z
1/2-x,y,1/2-z
1/2+x,1/2+y,z
1/2-x,1/2-y,z
1/2+x,1/2-y,-z
1/2-x,1/2+y,-z
loop_
_atom_site_type_symbol
_atom_site_label
_atom_site_fract_x
_atom_site_fract_y
_atom_site_fract_z
Si Si1 0.355858 0.959379 0.594599
Si Si2 0.584005 0.200446 0.347155
Si Si3 0.245065 0.580481 0.414584
Si Si4 0.335605 0.372819 0.679120
Si Si5 0.010544 0.169498 0.337715
Si Si6 0.885834 0.323941 0.838113
O O1 0.355354 0.787445 0.608330
O O2 0.362291 0.000000 0.500000
O O3 0.399956 0.035127 0.641320
O O4 0.305247 0.026451 0.618432
O O5 0.582581 0.250000 0.250000
O O6 0.629678 0.283701 0.382246
O O7 0.533933 0.251873 0.380493
O O8 0.253740 0.500000 0.500000
O O9 0.250000 0.750000 0.433619
O O10 0.286228 0.565399 0.349320
O O11 0.326822 0.250000 0.750000
O O12 0.365974 0.519080 0.684033
O O13 0.014161 0.250000 0.250000
O O14 0.062050 0.173385 0.376679
O O15 0.000000 0.000000 0.324518
O O16 0.888568 0.250000 0.750000
#
# Coordination Sequence:
#
# PCOD9327133 Si02
#       6
#    16  16  16  16  16  16
#     4  11  26  46  68 100 137 181 232 290 349 413
#     4  10  20  39  66  97 134 173 225 271 338 408
#     4  11  26  45  70  93 130 180 236 277 351 426
#     4  11  23  40  66 100 134 175 220 287 353 397
#     4  10  21  35  64  99 133 179 224 277 335 413
#     4  11  24  41  66 101 140 175 233 285 336 416
#
# _framework density 22.396998
#
# number of rings (size 3 to 8) (size 9 to 14) (size 15 to 20)
#    0.000    1.333    3.333    2.000   11.667    1.000 
#    0.000    2.500    0.000    1.000    0.000    0.000 
#    0.000    0.000    0.000    0.000    0.000    0.000 
#
# Total GULP energy -133672.067008 kJ/mol
# GULP energy per Si atom -5569.669459 kJ/mol
# Density = 2.234602 g / cm^3
# Si number density = 22.396998 Si / 1000 Ang^3
#
#
#
# Elastic Constant Matrix: (Units=GPa)
#
#
# Indices 1 2 3 4 5 6 
#
# 1 173.6953 55.4641 28.4105 0.0000 0.0000 0.0000
# 2 55.4641 129.5307 6.7278 0.0000 0.0000 0.0000
# 3 28.4105 6.7278 32.9481 0.0000 0.0000 0.0000
# 4 0.0000 0.0000 0.0000 34.8606 0.0000 0.0000
# 5 0.0000 0.0000 0.0000 0.0000 13.6333 0.0000
# 6 0.0000 0.0000 0.0000 0.0000 0.0000 33.1206
#
#
#
# Elastic Compliance Matrix: (Units=1/GPa)
#
#
# Indices 1 2 3 4 5 6 
#
# 1 0.007695 -0.002982 -0.006026 0.000000 0.000000 0.000000
# 2 -0.002982 0.008958 0.000742 0.000000 0.000000 0.000000
# 3 -0.006026 0.000742 0.035396 0.000000 0.000000 0.000000
# 4 0.000000 0.000000 0.000000 0.028686 0.000000 0.000000
# 5 0.000000 0.000000 0.000000 0.000000 0.073350 0.000000
# 6 0.000000 0.000000 0.000000 0.000000 0.000000 0.030193
#
#
# Mechanical properties :
#
#
# Convention : Reuss Voigt Hill
#
# Bulk Modulus (GPa) = 28.15585 57.48655 42.82120
# Shear Modulus (GPa) = 23.51291 32.69435 28.10363
#
# Velocity S-wave (km/s) = 3.24361 3.82483 3.54615
# Velocity P-wave (km/s) = 5.16010 6.72522 5.99396
#
# Compressibility (1/GPa) = 0.03551659
#
# Stress axis : x y z
#
# Youngs Moduli (GPa) = 129.95225 111.62586 28.25193
#
# Poissons Ratio (x) = 0.33287 0.17026
# Poissons Ratio (y) = 0.38752 -0.02096
# Poissons Ratio (z) = 0.78315 -0.08283
#
# Static dielectric constant tensor:
#      x y z
#    x 1.951460 0.000000 0.000000 
#    y 0.000000 1.916180 0.000000 
#    z 0.000000 0.000000 1.894990 
# 
# From -- ./inp_files/45713.got.cif
#   From: 2010.05.17/outbox.cif.g08.bks.cpg/sg22_23_cif.got.tgz:45713.got - 2010.06.03 23:40:54.
