data_PCOD9327598
_publ_section_title
;
Structure prediction by ZEFSAII (Michael W. Deem and Ramdas Pophale) SiO2 
 PCOD9327598
Probable space group: F 2 2 2
;
_chemical_formula_sum "Si O2"
_cell_formula_units_Z 112
_cell_length_a 29.427756
_cell_length_b 12.142084
_cell_length_c 15.303948
_cell_angle_alpha 90.000000
_cell_angle_beta 90.000000
_cell_angle_gamma 90.000000
_cell_volume 5468.319242
_symmetry_space_group_name_H-M "F 2 2 2"
_symmetry_group_IT_number 22
_symmetry_cell_setting 'orthorhombic'
loop_
_space_group_symop_operation_xyz
x,y,z
-x,-y,z
x,-y,-z
-x,y,-z
x,1/2+y,1/2+z
-x,1/2-y,1/2+z
x,1/2-y,1/2-z
-x,1/2+y,1/2-z
1/2+x,y,1/2+z
1/2-x,-y,1/2+z
1/2+x,-y,1/2-z
1/2-x,y,1/2-z
1/2+x,1/2+y,z
1/2-x,1/2-y,z
1/2+x,1/2-y,-z
1/2-x,1/2+y,-z
loop_
_atom_site_type_symbol
_atom_site_label
_atom_site_fract_x
_atom_site_fract_y
_atom_site_fract_z
Si Si1 0.548261 0.939054 0.082874
Si Si2 0.324146 0.251568 0.146447
Si Si3 0.427868 0.722951 0.854316
Si Si4 0.857307 0.879952 0.758333
Si Si5 0.054899 0.996720 0.775997
Si Si6 0.807704 0.504166 0.100558
Si Si7 0.296257 0.507239 0.899715
O O1 0.543661 0.806424 0.084788
O O2 0.500000 0.000000 0.087656
O O3 0.569693 0.958085 0.177992
O O4 0.570804 0.000000 0.000000
O O5 0.326304 0.250000 0.250000
O O6 0.376358 0.257440 0.116716
O O7 0.305550 0.134060 0.119928
O O8 0.298720 0.362735 0.121309
O O9 0.435546 0.750000 0.750000
O O10 0.435009 0.592477 0.851037
O O11 0.849170 0.750000 0.750000
O O12 0.910629 0.901015 0.783283
O O13 0.828174 0.939762 0.834153
O O14 0.839245 0.939379 0.669268
O O15 0.000000 0.000000 0.774916
O O16 0.755463 0.463924 0.107816
O O17 0.822532 0.500000 0.000000
O O18 0.311107 0.500000 0.000000
#
# Coordination Sequence:
#
# PCOD9327598 Si02
#       7
#    16  16  16  16  16  16  16
#     4   9  18  32  55  91 127 154 203 267 334 381
#     4  11  20  39  68  93 123 169 226 269 317 386
#     4   9  17  33  59  85 121 162 203 268 320 376
#     4  12  26  45  66  98 138 177 221 276 338 398
#     4  10  21  40  64  89 121 173 226 262 325 398
#     4  11  25  42  67 102 132 173 223 271 330 401
#     4  11  25  44  66  96 137 177 218 270 337 396
#
# _framework density 20.481615000000001
#
# number of rings (size 3 to 8) (size 9 to 14) (size 15 to 20)
#    0.000    1.571    2.857    2.571    2.000    6.857 
#    0.000    0.000    0.000    0.429    0.000    0.000 
#    0.000    0.000    0.000    0.000    0.000    0.000 
#
# Total GULP energy -155894.859819 kJ/mol
# GULP energy per Si atom -5567.673565 kJ/mol
# Density = 2.043500 g / cm^3
# Si number density = 20.481615 Si / 1000 Ang^3
#
#
#
# Elastic Constant Matrix: (Units=GPa)
#
#
# Indices 1 2 3 4 5 6 
#
# 1 101.1938 39.2692 49.8379 0.0000 0.0000 0.0000
# 2 39.2692 140.2513 47.3615 0.0000 0.0000 0.0000
# 3 49.8379 47.3615 69.9848 0.0000 0.0000 0.0000
# 4 0.0000 0.0000 0.0000 75.1333 0.0000 0.0000
# 5 0.0000 0.0000 0.0000 0.0000 -7.5712 0.0000
# 6 0.0000 0.0000 0.0000 0.0000 0.0000 15.7625
#
#
#
# Elastic Compliance Matrix: (Units=1/GPa)
#
#
# Indices 1 2 3 4 5 6 
#
# 1 0.015286 -0.000783 -0.010356 0.000000 0.000000 0.000000
# 2 -0.000783 0.009282 -0.005724 0.000000 0.000000 0.000000
# 3 -0.010356 -0.005724 0.025537 0.000000 0.000000 0.000000
# 4 0.000000 0.000000 0.000000 0.013310 0.000000 0.000000
# 5 0.000000 0.000000 0.000000 0.000000 -0.132080 0.000000
# 6 0.000000 0.000000 0.000000 0.000000 0.000000 0.063442
#
#
# Mechanical properties :
#
#
# Convention : Reuss Voigt Hill
#
# Bulk Modulus (GPa) = 61.05060 64.92968 62.99014
# Shear Modulus (GPa) = 147.22122 28.32902 87.77512
#
# Velocity S-wave (km/s) = 8.48739 3.72310 6.55352
# Velocity P-wave (km/s) = 11.22140 7.08888 9.38542
#
# Compressibility (1/GPa) = 0.01637985
#
# Stress axis : x y z
#
# Youngs Moduli (GPa) = 65.41924 107.73247 39.15876
#
# Poissons Ratio (x) = 0.08435 0.40552
# Poissons Ratio (y) = 0.05122 0.22415
# Poissons Ratio (z) = 0.67746 0.61667
#
# Static dielectric constant tensor:
#      x y z
#    x 1.778070 0.000000 0.000000 
#    y 0.000000 1.760390 0.000000 
#    z 0.000000 0.000000 1.785480 
# 
# From -- ./inp_files/33517.got.cif
#   From: 2010.05.17/outbox.cif.g08.bks.cpg/sg22_17_cif.got.tgz:33517.got - 2010.06.03 23:40:54.
