data_PCOD9327343
_publ_section_title
;
Structure prediction by ZEFSAII (Michael W. Deem and Ramdas Pophale) SiO2 
 PCOD9327343
Probable space group: F 2 2 2
;
_chemical_formula_sum "Si O2"
_cell_formula_units_Z 64
_cell_length_a 7.306190
_cell_length_b 23.889677
_cell_length_c 13.442265
_cell_angle_alpha 90.000000
_cell_angle_beta 90.000000
_cell_angle_gamma 90.000000
_cell_volume 2346.246797
_symmetry_space_group_name_H-M "F 2 2 2"
_symmetry_group_IT_number 22
_symmetry_cell_setting 'orthorhombic'
loop_
_space_group_symop_operation_xyz
x,y,z
-x,-y,z
x,-y,-z
-x,y,-z
x,1/2+y,1/2+z
-x,1/2-y,1/2+z
x,1/2-y,1/2-z
-x,1/2+y,1/2-z
1/2+x,y,1/2+z
1/2-x,-y,1/2+z
1/2+x,-y,1/2-z
1/2-x,y,1/2-z
1/2+x,1/2+y,z
1/2-x,1/2-y,z
1/2+x,1/2-y,-z
1/2-x,1/2+y,-z
loop_
_atom_site_type_symbol
_atom_site_label
_atom_site_fract_x
_atom_site_fract_y
_atom_site_fract_z
Si Si1 0.070806 0.435157 0.607723
Si Si2 0.258086 0.161522 0.131401
Si Si3 0.013673 0.566881 0.162629
Si Si4 0.043457 0.744747 0.370074
O O1 0.012604 0.416428 0.719950
O O2 0.000000 0.500000 0.609948
O O3 0.000000 0.415565 0.500000
O O4 0.288068 0.422686 0.614804
O O5 0.250000 0.168806 0.250000
O O6 0.344843 0.100085 0.114182
O O7 0.415208 0.204296 0.097595
O O8 0.936964 0.687907 0.397754
O O9 0.000000 0.500000 0.156885
O O10 0.053245 0.750000 0.250000
O O11 0.250000 0.750000 0.405762
#
# Coordination Sequence:
#
# PCOD9327343 Si02
#       4
#    16  16  16  16
#     4   9  20  39  59  85 137 190 244 297 353 440
#     4   9  18  30  53  87 133 165 222 297 346 429
#     4  10  21  35  61  96 131 188 238 296 368 433
#     4   8  15  30  50  83 127 170 214 288 370 407
#
# _framework density 27.277607
#
# number of rings (size 3 to 8) (size 9 to 14) (size 15 to 20)
#    0.000    3.000    0.000    1.500    7.000    8.000 
#    0.000    2.500    0.000    0.000    0.000    0.000 
#  112.500    0.000    3.000    0.000    0.000    0.000 
#
# Total GULP energy -89430.559192 kJ/mol
# GULP energy per Si atom -5589.409949 kJ/mol
# Density = 2.721552 g / cm^3
# Si number density = 27.277607 Si / 1000 Ang^3
#
#
#
# Elastic Constant Matrix: (Units=GPa)
#
#
# Indices 1 2 3 4 5 6 
#
# 1 270.7273 102.2938 83.5436 0.0000 0.0000 0.0000
# 2 102.2938 170.8578 45.7026 0.0000 0.0000 0.0000
# 3 83.5436 45.7026 207.6753 0.0000 0.0000 0.0000
# 4 0.0000 0.0000 0.0000 -54.2444 0.0000 0.0000
# 5 0.0000 0.0000 0.0000 0.0000 34.2401 0.0000
# 6 0.0000 0.0000 0.0000 0.0000 0.0000 46.6974
#
#
#
# Elastic Compliance Matrix: (Units=1/GPa)
#
#
# Indices 1 2 3 4 5 6 
#
# 1 0.005172 -0.002699 -0.001487 0.000000 0.000000 0.000000
# 2 -0.002699 0.007627 -0.000593 0.000000 0.000000 0.000000
# 3 -0.001487 -0.000593 0.005544 0.000000 0.000000 0.000000
# 4 0.000000 0.000000 0.000000 -0.018435 0.000000 0.000000
# 5 0.000000 0.000000 0.000000 0.000000 0.029206 0.000000
# 6 0.000000 0.000000 0.000000 0.000000 0.000000 0.021414
#
#
# Mechanical properties :
#
#
# Convention : Reuss Voigt Hill
#
# Bulk Modulus (GPa) = 113.81346 123.59338 118.70342
# Shear Modulus (GPa) = 79.34709 33.18665 56.26687
#
# Velocity S-wave (km/s) = 5.39925 3.49180 4.54668
# Velocity P-wave (km/s) = 8.98242 7.85269 8.43649
#
# Compressibility (1/GPa) = 0.00878631
#
# Stress axis : x y z
#
# Youngs Moduli (GPa) = 193.33435 131.10772 180.38315
#
# Poissons Ratio (x) = 0.35387 0.26819
# Poissons Ratio (y) = 0.52182 0.10692
# Poissons Ratio (z) = 0.28744 0.07771
#
# Static dielectric constant tensor:
#      x y z
#    x 2.412830 0.000000 0.000000 
#    y 0.000000 2.171070 0.000000 
#    z 0.000000 0.000000 2.101620 
# 
# From -- ./inp_files/47074.got.cif
#   From: 2010.05.17/outbox.cif.g08.bks.cpg/sg22_24_cif.got.tgz:47074.got - 2010.06.03 23:40:54.
