data_PCOD9327074
_publ_section_title
;
Structure prediction by ZEFSAII (Michael W. Deem and Ramdas Pophale) SiO2 
 PCOD9327074
Probable space group: F 2 2 2
;
_chemical_formula_sum "Si O2"
_cell_formula_units_Z 104
_cell_length_a 21.273931
_cell_length_b 9.677425
_cell_length_c 24.676170
_cell_angle_alpha 90.000000
_cell_angle_beta 90.000000
_cell_angle_gamma 90.000000
_cell_volume 5080.252685
_symmetry_space_group_name_H-M "F 2 2 2"
_symmetry_group_IT_number 22
_symmetry_cell_setting 'orthorhombic'
loop_
_space_group_symop_operation_xyz
x,y,z
-x,-y,z
x,-y,-z
-x,y,-z
x,1/2+y,1/2+z
-x,1/2-y,1/2+z
x,1/2-y,1/2-z
-x,1/2+y,1/2-z
1/2+x,y,1/2+z
1/2-x,-y,1/2+z
1/2+x,-y,1/2-z
1/2-x,y,1/2-z
1/2+x,1/2+y,z
1/2-x,1/2-y,z
1/2+x,1/2-y,-z
1/2-x,1/2+y,-z
loop_
_atom_site_type_symbol
_atom_site_label
_atom_site_fract_x
_atom_site_fract_y
_atom_site_fract_z
Si Si1 0.686353 0.841353 0.942728
Si Si2 0.996472 0.665403 0.659454
Si Si3 0.969153 0.650129 0.939889
Si Si4 0.868173 0.741959 0.328355
Si Si5 0.400436 0.250000 0.750000
Si Si6 0.321963 0.476373 0.247436
Si Si7 0.192476 0.656297 0.927869
O O1 0.750000 0.750000 0.925837
O O2 0.608358 0.839588 0.934414
O O3 0.702702 0.993788 0.921120
O O4 0.685910 0.825891 0.007934
O O5 0.991004 0.730046 0.600210
O O6 0.940901 0.719290 0.696892
O O7 0.000000 0.500000 0.658400
O O8 0.059691 0.723717 0.685709
O O9 0.000000 0.500000 0.923238
O O10 0.000000 0.670506 0.000000
O O11 0.836905 0.598033 0.309872
O O12 0.837156 0.861755 0.292754
O O13 0.862882 0.786065 0.390728
O O14 0.361076 0.387831 0.741569
O O15 0.250000 0.512840 0.250000
O O16 0.250000 0.750000 0.908791
#
# Coordination Sequence:
#
# PCOD9327074 Si02
#       7
#    16  16  16  16   8  16  16
#     4  10  22  41  63 102 139 180 234 292 351 414
#     4  12  27  44  68 100 136 183 228 283 343 405
#     4  11  24  46  73 103 141 187 240 287 349 419
#     4  11  22  42  68  97 129 176 229 270 343 414
#     4  12  27  46  64 100 137 170 222 284 346 402
#     4  11  24  44  68  96 133 172 221 281 346 415
#     4  10  20  38  65  95 135 178 221 282 342 417
#
# _framework density 20.471422
#
# number of rings (size 3 to 8) (size 9 to 14) (size 15 to 20)
#    0.000    1.077    1.538    6.692    4.308    1.538 
#    2.769    3.077    0.000    0.000    0.000    0.000 
#    0.000    0.000    0.000    0.000    0.000    0.000 
#
# Total GULP energy -144848.963929 kJ/mol
# GULP energy per Si atom -5571.113997 kJ/mol
# Density = 2.042483 g / cm^3
# Si number density = 20.471422 Si / 1000 Ang^3
#
#
#
# Elastic Constant Matrix: (Units=GPa)
#
#
# Indices 1 2 3 4 5 6 
#
# 1 141.5190 52.8153 37.1105 0.0000 0.0000 0.0000
# 2 52.8153 126.2425 66.2815 0.0000 0.0000 0.0000
# 3 37.1105 66.2815 54.6338 0.0000 0.0000 0.0000
# 4 0.0000 0.0000 0.0000 70.8097 0.0000 0.0000
# 5 0.0000 0.0000 0.0000 0.0000 23.9924 0.0000
# 6 0.0000 0.0000 0.0000 0.0000 0.0000 39.1210
#
#
#
# Elastic Compliance Matrix: (Units=1/GPa)
#
#
# Indices 1 2 3 4 5 6 
#
# 1 0.008697 -0.001479 -0.004113 0.000000 0.000000 0.000000
# 2 -0.001479 0.022071 -0.025772 0.000000 0.000000 0.000000
# 3 -0.004113 -0.025772 0.052364 0.000000 0.000000 0.000000
# 4 0.000000 0.000000 0.000000 0.014122 0.000000 0.000000
# 5 0.000000 0.000000 0.000000 0.000000 0.041680 0.000000
# 6 0.000000 0.000000 0.000000 0.000000 0.000000 0.025562
#
#
# Mechanical properties :
#
#
# Convention : Reuss Voigt Hill
#
# Bulk Modulus (GPa) = 49.01058 70.53445 59.77251
# Shear Modulus (GPa) = 21.36522 37.86384 29.61453
#
# Velocity S-wave (km/s) = 3.23408 4.30536 3.80758
# Velocity P-wave (km/s) = 6.15943 7.69706 6.97077
#
# Compressibility (1/GPa) = 0.02040376
#
# Stress axis : x y z
#
# Youngs Moduli (GPa) = 114.98626 45.30810 19.09705
#
# Poissons Ratio (x) = 0.06700 0.07855
# Poissons Ratio (y) = 0.17004 0.49217
# Poissons Ratio (z) = 0.47296 1.16768
#
# Static dielectric constant tensor:
#      x y z
#    x 1.735220 0.000000 0.000000 
#    y 0.000000 1.690170 0.000000 
#    z 0.000000 0.000000 1.725590 
# 
# From -- ./inp_files/53937.got.cif
#   From: 2010.05.17/outbox.cif.g08.bks.cpg/sg22_27_cif.got.tgz:53937.got - 2010.06.03 23:40:54.
