data_PCOD9327294
_publ_section_title
;
Structure prediction by ZEFSAII (Michael W. Deem and Ramdas Pophale) SiO2 
 PCOD9327294
Probable space group: F 2 2 2
;
_chemical_formula_sum "Si O2"
_cell_formula_units_Z 60
_cell_length_a 9.654012
_cell_length_b 23.571145
_cell_length_c 9.870621
_cell_angle_alpha 90.000000
_cell_angle_beta 90.000000
_cell_angle_gamma 90.000000
_cell_volume 2246.120184
_symmetry_space_group_name_H-M "F 2 2 2"
_symmetry_group_IT_number 22
_symmetry_cell_setting 'orthorhombic'
loop_
_space_group_symop_operation_xyz
x,y,z
-x,-y,z
x,-y,-z
-x,y,-z
x,1/2+y,1/2+z
-x,1/2-y,1/2+z
x,1/2-y,1/2-z
-x,1/2+y,1/2-z
1/2+x,y,1/2+z
1/2-x,-y,1/2+z
1/2+x,-y,1/2-z
1/2-x,y,1/2-z
1/2+x,1/2+y,z
1/2-x,1/2-y,z
1/2+x,1/2-y,-z
1/2-x,1/2+y,-z
loop_
_atom_site_type_symbol
_atom_site_label
_atom_site_fract_x
_atom_site_fract_y
_atom_site_fract_z
Si Si1 0.500000 0.837247 0.500000
Si Si2 0.250000 0.750000 0.250000
Si Si3 0.198047 0.827410 0.476281
Si Si4 0.090227 0.111570 0.278956
Si Si5 0.336959 0.954549 0.117868
O O1 0.353761 0.804614 0.505561
O O2 0.484591 0.872131 0.639338
O O3 0.160389 0.791846 0.343748
O O4 0.108210 0.837051 0.611233
O O5 0.217061 0.892943 0.431694
O O6 0.250000 0.096343 0.250000
O O7 0.995349 0.062400 0.343040
O O8 0.250000 0.970101 0.250000
O O9 0.316227 0.000000 0.000000
#
# Coordination Sequence:
#
# PCOD9327294 Si02
#       5
#     8   4  16  16  16
#     4  10  20  48  79 118 172 216 287 358 414 522
#     4  12  24  52  82 120 178 228 284 384 418 514
#     4  11  24  47  81 118 166 222 291 347 434 509
#     4  10  23  46  85 118 173 221 292 356 425 524
#     4  12  26  52  86 123 170 229 284 357 433 520
#
# _framework density 26.712727000000001
#
# number of rings (size 3 to 8) (size 9 to 14) (size 15 to 20)
#    0.000    1.067    4.000    0.800    0.000    5.333 
#    9.600    6.667    8.800    0.000    0.000    0.000 
#    0.000    0.000    0.000    0.000    0.000    0.000 
#
# Total GULP energy -83917.875614 kJ/mol
# GULP energy per Si atom -5594.525041 kJ/mol
# Density = 2.665193 g / cm^3
# Si number density = 26.712727 Si / 1000 Ang^3
#
#
#
# Elastic Constant Matrix: (Units=GPa)
#
#
# Indices 1 2 3 4 5 6 
#
# 1 202.4899 32.5965 76.7528 0.0000 0.0000 0.0000
# 2 32.5965 122.9264 102.0344 0.0000 0.0000 0.0000
# 3 76.7528 102.0344 254.0794 0.0000 0.0000 0.0000
# 4 0.0000 0.0000 0.0000 64.1849 0.0000 0.0000
# 5 0.0000 0.0000 0.0000 0.0000 64.6858 0.0000
# 6 0.0000 0.0000 0.0000 0.0000 0.0000 26.9613
#
#
#
# Elastic Compliance Matrix: (Units=1/GPa)
#
#
# Indices 1 2 3 4 5 6 
#
# 1 0.005578 -0.000121 -0.001637 0.000000 0.000000 0.000000
# 2 -0.000121 0.012205 -0.004865 0.000000 0.000000 0.000000
# 3 -0.001637 -0.004865 0.006384 0.000000 0.000000 0.000000
# 4 0.000000 0.000000 0.000000 0.015580 0.000000 0.000000
# 5 0.000000 0.000000 0.000000 0.000000 0.015459 0.000000
# 6 0.000000 0.000000 0.000000 0.000000 0.000000 0.037090
#
#
# Mechanical properties :
#
#
# Convention : Reuss Voigt Hill
#
# Bulk Modulus (GPa) = 91.55251 111.36258 101.45754
# Shear Modulus (GPa) = 45.79506 55.70720 50.75113
#
# Velocity S-wave (km/s) = 4.14497 4.57159 4.36350
# Velocity P-wave (km/s) = 7.56671 8.34538 7.96557
#
# Compressibility (1/GPa) = 0.01092269
#
# Stress axis : x y z
#
# Youngs Moduli (GPa) = 179.26590 81.93338 156.64560
#
# Poissons Ratio (x) = 0.00989 0.25637
# Poissons Ratio (y) = 0.02164 0.76206
# Poissons Ratio (z) = 0.29339 0.39860
#
# Static dielectric constant tensor:
#      x y z
#    x 2.226570 0.000000 0.000000 
#    y 0.000000 2.171860 0.000000 
#    z 0.000000 0.000000 2.129560 
# 
# From -- ./inp_files/17807.got.cif
#   From: 2010.05.17/outbox.cif.g08.bks.cpg/sg22_9_cif.got.tgz:17807.got - 2010.06.03 23:40:54.
