data_PCOD9327719
_publ_section_title
;
Structure prediction by ZEFSAII (Michael W. Deem and Ramdas Pophale) SiO2 
 PCOD9327719
Probable space group: F 2 2 2
;
_chemical_formula_sum "Si O2"
_cell_formula_units_Z 116
_cell_length_a 9.362697
_cell_length_b 21.930227
_cell_length_c 25.514874
_cell_angle_alpha 90.000000
_cell_angle_beta 90.000000
_cell_angle_gamma 90.000000
_cell_volume 5238.868819
_symmetry_space_group_name_H-M "F 2 2 2"
_symmetry_group_IT_number 22
_symmetry_cell_setting 'orthorhombic'
loop_
_space_group_symop_operation_xyz
x,y,z
-x,-y,z
x,-y,-z
-x,y,-z
x,1/2+y,1/2+z
-x,1/2-y,1/2+z
x,1/2-y,1/2-z
-x,1/2+y,1/2-z
1/2+x,y,1/2+z
1/2-x,-y,1/2+z
1/2+x,-y,1/2-z
1/2-x,y,1/2-z
1/2+x,1/2+y,z
1/2-x,1/2-y,z
1/2+x,1/2-y,-z
1/2-x,1/2+y,-z
loop_
_atom_site_type_symbol
_atom_site_label
_atom_site_fract_x
_atom_site_fract_y
_atom_site_fract_z
Si Si1 0.325166 0.144062 0.697709
Si Si2 0.805961 0.573975 0.086259
Si Si3 0.477456 0.584187 0.057077
Si Si4 0.910402 0.322651 0.757865
Si Si5 0.368817 0.209301 0.589015
Si Si6 0.163498 0.017546 0.848684
Si Si7 0.114773 0.796415 0.627205
Si Si8 0.000000 0.000000 0.500000
O O1 0.250000 0.168796 0.750000
O O2 0.490384 0.146160 0.715108
O O3 0.310455 0.183081 0.644929
O O4 0.283535 0.074546 0.685597
O O5 0.636498 0.584816 0.078878
O O6 0.787876 0.531596 0.138958
O O7 0.859332 0.643058 0.093452
O O8 0.896508 0.539831 0.039878
O O9 0.414213 0.651525 0.056012
O O10 0.373348 0.545935 0.093943
O O11 0.500000 0.560378 0.000000
O O12 0.916969 0.250000 0.750000
O O13 0.750000 0.344546 0.750000
O O14 0.945712 0.325968 0.818973
O O15 0.250000 0.250000 0.562257
O O16 0.500758 0.252118 0.601712
O O17 0.000000 0.000000 0.830212
O O18 0.250000 0.750000 0.637963
#
# Coordination Sequence:
#
# PCOD9327719 Si02
#       8
#    16  16  16  16  16  16  16   4
#     4  11  23  40  64  97 135 184 230 283 339 404
#     4  11  25  45  72  95 136 181 228 298 351 425
#     4  10  21  42  69  96 129 177 227 277 349 419
#     4  11  21  34  63  94 134 179 229 268 331 416
#     4  11  23  39  65  98 142 175 220 286 342 418
#     4   9  22  43  68  92 131 177 233 280 341 411
#     4  12  22  42  66  99 139 184 223 282 360 419
#     4  12  28  48  74 104 132 176 256 296 364 428
#
# _framework density 22.142184
#
# number of rings (size 3 to 8) (size 9 to 14) (size 15 to 20)
#    0.000    1.241    4.138    1.655    3.862    6.345 
#    6.207    0.000    0.000    0.000    0.000    0.000 
#    0.000    0.000    0.000    0.000    0.000    0.000 
#
# Total GULP energy -161730.037067 kJ/mol
# GULP energy per Si atom -5576.897830 kJ/mol
# Density = 2.209179 g / cm^3
# Si number density = 22.142184 Si / 1000 Ang^3
#
#
#
# Elastic Constant Matrix: (Units=GPa)
#
#
# Indices 1 2 3 4 5 6 
#
# 1 46.7051 23.1201 -8.8081 0.0000 0.0000 0.0000
# 2 23.1201 141.4925 17.2686 0.0000 0.0000 0.0000
# 3 -8.8081 17.2686 46.8734 0.0000 0.0000 0.0000
# 4 0.0000 0.0000 0.0000 9.6261 0.0000 0.0000
# 5 0.0000 0.0000 0.0000 0.0000 10.6313 0.0000
# 6 0.0000 0.0000 0.0000 0.0000 0.0000 -19.6214
#
#
#
# Elastic Compliance Matrix: (Units=1/GPa)
#
#
# Indices 1 2 3 4 5 6 
#
# 1 0.025059 -0.004889 0.006510 0.000000 0.000000 0.000000
# 2 -0.004889 0.008354 -0.003996 0.000000 0.000000 0.000000
# 3 0.006510 -0.003996 0.024030 0.000000 0.000000 0.000000
# 4 0.000000 0.000000 0.000000 0.103885 0.000000 0.000000
# 5 0.000000 0.000000 0.000000 0.000000 0.094062 0.000000
# 6 0.000000 0.000000 0.000000 0.000000 0.000000 -0.050965
#
#
# Mechanical properties :
#
#
# Convention : Reuss Voigt Hill
#
# Bulk Modulus (GPa) = 18.97832 33.13690 26.05761
# Shear Modulus (GPa) = 22.05174 13.69323 17.87248
#
# Velocity S-wave (km/s) = 3.15924 2.48951 2.84415
# Velocity P-wave (km/s) = 4.67947 4.82302 4.75179
#
# Compressibility (1/GPa) = 0.05269169
#
# Stress axis : x y z
#
# Youngs Moduli (GPa) = 39.90595 119.70073 41.61508
#
# Poissons Ratio (x) = 0.58524 -0.27092
# Poissons Ratio (y) = 0.19511 0.16631
# Poissons Ratio (z) = -0.25979 0.47838
#
# Static dielectric constant tensor:
#      x y z
#    x 1.823230 0.000000 0.000000 
#    y 0.000000 1.885330 0.000000 
#    z 0.000000 0.000000 1.862280 
# 
# From -- ./inp_files/52130.got.cif
#   From: 2010.05.17/outbox.cif.g08.bks.cpg/sg22_27_cif.got.tgz:52130.got - 2010.06.03 23:40:54.
