data_PCOD9327553
_publ_section_title
;
Structure prediction by ZEFSAII (Michael W. Deem and Ramdas Pophale) SiO2 
 PCOD9327553
Probable space group: F 2 2 2
;
_chemical_formula_sum "Si O2"
_cell_formula_units_Z 120
_cell_length_a 26.211716
_cell_length_b 18.418123
_cell_length_c 11.257417
_cell_angle_alpha 90.000000
_cell_angle_beta 90.000000
_cell_angle_gamma 90.000000
_cell_volume 5434.750065
_symmetry_space_group_name_H-M "F 2 2 2"
_symmetry_group_IT_number 22
_symmetry_cell_setting 'orthorhombic'
loop_
_space_group_symop_operation_xyz
x,y,z
-x,-y,z
x,-y,-z
-x,y,-z
x,1/2+y,1/2+z
-x,1/2-y,1/2+z
x,1/2-y,1/2-z
-x,1/2+y,1/2-z
1/2+x,y,1/2+z
1/2-x,-y,1/2+z
1/2+x,-y,1/2-z
1/2-x,y,1/2-z
1/2+x,1/2+y,z
1/2-x,1/2-y,z
1/2+x,1/2-y,-z
1/2-x,1/2+y,-z
loop_
_atom_site_type_symbol
_atom_site_label
_atom_site_fract_x
_atom_site_fract_y
_atom_site_fract_z
Si Si1 0.704114 0.658680 0.963805
Si Si2 0.644120 0.946578 0.384790
Si Si3 0.083337 0.222980 0.386506
Si Si4 0.678674 0.824581 0.972287
Si Si5 0.500000 0.118308 0.000000
Si Si6 0.032347 0.571824 0.242017
Si Si7 0.539449 0.371367 0.905262
Si Si8 0.150938 0.922810 0.249724
O O1 0.687988 0.740843 0.933784
O O2 0.763480 0.651005 0.995898
O O3 0.687239 0.615433 0.846439
O O4 0.674542 0.624641 0.075827
O O5 0.586073 0.922118 0.370781
O O6 0.647562 0.000000 0.500000
O O7 0.662201 0.991396 0.269478
O O8 0.085232 0.250000 0.250000
O O9 0.136972 0.187102 0.424648
O O10 0.065419 0.297590 0.451460
O O11 0.041111 0.166461 0.430116
O O12 0.658067 0.879964 0.872321
O O13 0.530458 0.074309 0.099795
O O14 0.090591 0.579808 0.283213
O O15 0.000000 0.500000 0.276223
O O16 0.999148 0.637756 0.295639
O O17 0.500000 0.403165 0.000000
#
# Coordination Sequence:
#
# PCOD9327553 Si02
#       8
#    16  16  16  16   8  16  16  16
#     4  10  22  42  72 105 137 179 246 313 371 437
#     4  10  21  39  66  97 141 180 229 297 361 438
#     4  12  25  44  68  99 142 185 242 308 375 444
#     4  11  23  43  73 101 136 186 246 309 374 441
#     4  12  25  46  66 100 143 192 246 296 358 448
#     4  12  25  41  67 101 143 196 235 286 365 445
#     4  12  23  37  65 103 136 180 234 290 356 435
#     4  11  22  39  70 103 146 184 238 301 372 439
#
# _framework density 22.080134000000001
#
# number of rings (size 3 to 8) (size 9 to 14) (size 15 to 20)
#    0.000    0.800    6.000    2.600    0.000    1.067 
#    2.400    1.333   26.400    0.000    0.000    0.000 
#    0.000    0.000    0.000    0.000    0.000    0.000 
#
# Total GULP energy -167274.081734 kJ/mol
# GULP energy per Si atom -5575.802724 kJ/mol
# Density = 2.202988 g / cm^3
# Si number density = 22.080134 Si / 1000 Ang^3
#
#
#
# Elastic Constant Matrix: (Units=GPa)
#
#
# Indices 1 2 3 4 5 6 
#
# 1 132.6066 25.3192 35.2932 0.0000 0.0000 0.0000
# 2 25.3192 66.3379 16.7326 0.0000 0.0000 0.0000
# 3 35.2932 16.7326 81.9252 0.0000 0.0000 0.0000
# 4 0.0000 0.0000 0.0000 43.2253 0.0000 0.0000
# 5 0.0000 0.0000 0.0000 0.0000 25.6322 0.0000
# 6 0.0000 0.0000 0.0000 0.0000 0.0000 26.3954
#
#
#
# Elastic Compliance Matrix: (Units=1/GPa)
#
#
# Indices 1 2 3 4 5 6 
#
# 1 0.008913 -0.002566 -0.003316 0.000000 0.000000 0.000000
# 2 -0.002566 0.016632 -0.002292 0.000000 0.000000 0.000000
# 3 -0.003316 -0.002292 0.014103 0.000000 0.000000 0.000000
# 4 0.000000 0.000000 0.000000 0.023135 0.000000 0.000000
# 5 0.000000 0.000000 0.000000 0.000000 0.039013 0.000000
# 6 0.000000 0.000000 0.000000 0.000000 0.000000 0.037885
#
#
# Mechanical properties :
#
#
# Convention : Reuss Voigt Hill
#
# Bulk Modulus (GPa) = 42.91556 48.39551 45.65554
# Shear Modulus (GPa) = 30.52602 32.61890 31.57246
#
# Velocity S-wave (km/s) = 3.72225 3.84773 3.78551
# Velocity P-wave (km/s) = 6.16052 6.45800 6.31101
#
# Compressibility (1/GPa) = 0.02330157
#
# Stress axis : x y z
#
# Youngs Moduli (GPa) = 112.18945 60.12657 70.90800
#
# Poissons Ratio (x) = 0.15426 0.23512
# Poissons Ratio (y) = 0.28784 0.16249
# Poissons Ratio (z) = 0.37201 0.13779
#
# Static dielectric constant tensor:
#      x y z
#    x 1.809700 0.000000 0.000000 
#    y 0.000000 1.875510 0.000000 
#    z 0.000000 0.000000 1.909880 
# 
# From -- ./inp_files/24013.got.cif
#   From: 2010.05.17/outbox.cif.g08.bks.cpg/sg22_13_cif.got.tgz:24013.got - 2010.06.03 23:40:54.
