data_PCOD9327646
_publ_section_title
;
Structure prediction by ZEFSAII (Michael W. Deem and Ramdas Pophale) SiO2 
 PCOD9327646
Probable space group: F 2 2 2
;
_chemical_formula_sum "Si O2"
_cell_formula_units_Z 88
_cell_length_a 21.493906
_cell_length_b 5.500366
_cell_length_c 31.255064
_cell_angle_alpha 90.000000
_cell_angle_beta 90.000000
_cell_angle_gamma 90.000000
_cell_volume 3695.109618
_symmetry_space_group_name_H-M "F 2 2 2"
_symmetry_group_IT_number 22
_symmetry_cell_setting 'orthorhombic'
loop_
_space_group_symop_operation_xyz
x,y,z
-x,-y,z
x,-y,-z
-x,y,-z
x,1/2+y,1/2+z
-x,1/2-y,1/2+z
x,1/2-y,1/2-z
-x,1/2+y,1/2-z
1/2+x,y,1/2+z
1/2-x,-y,1/2+z
1/2+x,-y,1/2-z
1/2-x,y,1/2-z
1/2+x,1/2+y,z
1/2-x,1/2-y,z
1/2+x,1/2-y,-z
1/2-x,1/2+y,-z
loop_
_atom_site_type_symbol
_atom_site_label
_atom_site_fract_x
_atom_site_fract_y
_atom_site_fract_z
Si Si1 0.250000 0.250000 0.072483
Si Si2 0.139668 0.287378 0.795672
Si Si3 0.049417 0.687017 0.611223
Si Si4 0.625310 0.518545 0.451627
Si Si5 0.672784 0.870047 0.613865
Si Si6 0.561657 0.216235 0.704233
O O1 0.313313 0.194265 0.047058
O O2 0.266325 0.478802 0.102078
O O3 0.173418 0.250000 0.750000
O O4 0.174812 0.262525 0.840629
O O5 0.109991 0.557425 0.796139
O O6 0.091979 0.054448 0.795223
O O7 0.069192 0.895691 0.578890
O O8 0.116064 0.560798 0.618888
O O9 0.026425 0.748697 0.659125
O O10 0.000000 0.500000 0.592246
O O11 0.603708 0.500000 0.500000
O O12 0.651906 0.284710 0.427238
O O13 0.528126 0.250000 0.750000
#
# Coordination Sequence:
#
# PCOD9327646 Si02
#       6
#     8  16  16  16  16  16
#     4  10  24  38  68  97 130 164 227 308 362 410
#     4   9  17  33  63  94 132 185 227 279 348 421
#     4  10  22  41  63  96 141 182 225 282 342 426
#     4  11  24  42  68  98 129 176 232 290 362 417
#     4  10  21  41  63  97 134 175 226 290 356 416
#     4   9  17  34  59  95 133 181 231 283 341 408
#
# _framework density 23.815263000000002
#
# number of rings (size 3 to 8) (size 9 to 14) (size 15 to 20)
#    0.000    2.182    1.818    0.545    2.545    2.909 
#    0.000   10.000    0.000    3.273    0.000    0.000 
#    0.000    0.000    0.000    0.000    0.000    0.000 
#
# Total GULP energy -122770.888297 kJ/mol
# GULP energy per Si atom -5580.494923 kJ/mol
# Density = 2.376106 g / cm^3
# Si number density = 23.815263 Si / 1000 Ang^3
#
#
#
# Elastic Constant Matrix: (Units=GPa)
#
#
# Indices 1 2 3 4 5 6 
#
# 1 70.9496 31.7676 21.1811 -0.0001 0.0003 -0.0010
# 2 31.7676 106.3402 41.8352 -0.0011 -0.0076 -0.0126
# 3 21.1811 41.8352 204.4524 0.0034 0.0024 0.0016
# 4 -0.0001 -0.0011 0.0034 17.6030 -0.0014 0.0021
# 5 0.0003 -0.0076 0.0024 -0.0014 -21.6864 -0.0005
# 6 -0.0010 -0.0126 0.0016 0.0021 -0.0005 46.0416
#
#
#
# Elastic Compliance Matrix: (Units=1/GPa)
#
#
# Indices 1 2 3 4 5 6 
#
# 1 0.016378 -0.004595 -0.000756 0.000000 0.000002 -0.000001
# 2 -0.004595 0.011516 -0.001880 0.000001 -0.000004 0.000003
# 3 -0.000756 -0.001880 0.005354 -0.000001 0.000001 -0.000001
# 4 0.000000 0.000001 -0.000001 0.056808 -0.000004 -0.000003
# 5 0.000002 -0.000004 0.000001 -0.000004 -0.046112 -0.000001
# 6 -0.000001 0.000003 -0.000001 -0.000003 -0.000001 0.021719
#
#
# Mechanical properties :
#
#
# Convention : Reuss Voigt Hill
#
# Bulk Modulus (GPa) = 53.23558 63.47889 58.35723
# Shear Modulus (GPa) = 57.87727 27.52219 42.69973
#
# Velocity S-wave (km/s) = 4.93511 3.40318 4.23893
# Velocity P-wave (km/s) = 7.40783 6.49267 6.96529
#
# Compressibility (1/GPa) = 0.01878443
#
# Stress axis : x y z
#
# Youngs Moduli (GPa) = 61.05836 86.83383 186.76714
#
# Poissons Ratio (x) = 0.39900 0.14129
# Poissons Ratio (y) = 0.28056 0.35120
# Poissons Ratio (z) = 0.04619 0.16328
#
# Static dielectric constant tensor:
#      x y z
#    x 1.952390 0.000000 0.000000 
#    y 0.000000 2.000710 0.000000 
#    z 0.000000 0.000000 1.905580 
# 
# From -- ./inp_files/57107.got.cif
#   From: 2010.05.17/outbox.cif.g08.bks.cpg/sg22_29_cif.got.tgz:57107.got - 2010.06.03 23:40:54.
