data_PCOD9327229
_publ_section_title
;
Structure prediction by ZEFSAII (Michael W. Deem and Ramdas Pophale) SiO2 
 PCOD9327229
Probable space group: F 2 2 2
;
_chemical_formula_sum "Si O2"
_cell_formula_units_Z 64
_cell_length_a 12.803997
_cell_length_b 8.355318
_cell_length_c 25.681648
_cell_angle_alpha 90.000000
_cell_angle_beta 90.000000
_cell_angle_gamma 90.000000
_cell_volume 2747.460368
_symmetry_space_group_name_H-M "F 2 2 2"
_symmetry_group_IT_number 22
_symmetry_cell_setting 'orthorhombic'
loop_
_space_group_symop_operation_xyz
x,y,z
-x,-y,z
x,-y,-z
-x,y,-z
x,1/2+y,1/2+z
-x,1/2-y,1/2+z
x,1/2-y,1/2-z
-x,1/2+y,1/2-z
1/2+x,y,1/2+z
1/2-x,-y,1/2+z
1/2+x,-y,1/2-z
1/2-x,y,1/2-z
1/2+x,1/2+y,z
1/2-x,1/2-y,z
1/2+x,1/2-y,-z
1/2-x,1/2+y,-z
loop_
_atom_site_type_symbol
_atom_site_label
_atom_site_fract_x
_atom_site_fract_y
_atom_site_fract_z
Si Si1 0.128242 0.801421 0.306446
Si Si2 0.498382 0.226524 0.408049
Si Si3 0.833758 0.453495 0.443620
Si Si4 0.319765 0.411080 0.365843
O O1 0.088052 0.750000 0.250000
O O2 0.250000 0.750000 0.308459
O O3 0.056751 0.722063 0.351594
O O4 0.135892 0.992588 0.316635
O O5 0.417058 0.087269 0.424407
O O6 0.418290 0.369888 0.401869
O O7 0.596464 0.206680 0.446518
O O8 0.793176 0.500000 0.500000
O O9 0.748118 0.464896 0.399361
O O10 0.250000 0.250000 0.355627
#
# Coordination Sequence:
#
# PCOD9327229 Si02
#       4
#    16  16  16  16
#     4  11  23  44  69  99 141 187 232 297 372 410
#     4  10  20  41  67  96 140 180 234 284 348 426
#     4  10  21  43  69 102 147 187 226 300 364 413
#     4  10  22  44  69 100 141 183 239 290 349 428
#
# _framework density 23.294239000000001
#
# number of rings (size 3 to 8) (size 9 to 14) (size 15 to 20)
#    0.000    1.750    2.500    2.250    0.000    0.000 
#   27.000    2.500    0.000    0.000    0.000    0.000 
#    0.000    0.000    0.000    0.000    0.000    0.000 
#
# Total GULP energy -89119.830940 kJ/mol
# GULP energy per Si atom -5569.989434 kJ/mol
# Density = 2.324122 g / cm^3
# Si number density = 23.294239 Si / 1000 Ang^3
#
#
#
# Elastic Constant Matrix: (Units=GPa)
#
#
# Indices 1 2 3 4 5 6 
#
# 1 59.5201 19.4959 6.7516 0.0000 0.0000 0.0000
# 2 19.4959 89.2002 12.4052 0.0000 0.0000 0.0000
# 3 6.7516 12.4052 103.0711 0.0000 0.0000 0.0000
# 4 0.0000 0.0000 0.0000 23.1602 0.0000 0.0000
# 5 0.0000 0.0000 0.0000 0.0000 26.3566 0.0000
# 6 0.0000 0.0000 0.0000 0.0000 0.0000 51.9791
#
#
#
# Elastic Compliance Matrix: (Units=1/GPa)
#
#
# Indices 1 2 3 4 5 6 
#
# 1 0.018149 -0.003866 -0.000724 0.000000 0.000000 0.000000
# 2 -0.003866 0.012225 -0.001218 0.000000 0.000000 0.000000
# 3 -0.000724 -0.001218 0.009896 0.000000 0.000000 0.000000
# 4 0.000000 0.000000 0.000000 0.043177 0.000000 0.000000
# 5 0.000000 0.000000 0.000000 0.000000 0.037941 0.000000
# 6 0.000000 0.000000 0.000000 0.000000 0.000000 0.019239
#
#
# Mechanical properties :
#
#
# Convention : Reuss Voigt Hill
#
# Bulk Modulus (GPa) = 34.89795 36.56631 35.73213
# Shear Modulus (GPa) = 30.90327 34.50843 32.70585
#
# Velocity S-wave (km/s) = 3.64627 3.85309 3.75111
# Velocity P-wave (km/s) = 5.72197 5.96043 5.84242
#
# Compressibility (1/GPa) = 0.02865497
#
# Stress axis : x y z
#
# Youngs Moduli (GPa) = 55.09795 81.79853 101.05043
#
# Poissons Ratio (x) = 0.31625 0.07312
# Poissons Ratio (y) = 0.21302 0.12309
# Poissons Ratio (z) = 0.03987 0.09964
#
# Static dielectric constant tensor:
#      x y z
#    x 1.901580 0.000000 0.000000 
#    y 0.000000 2.305310 0.000000 
#    z 0.000000 0.000000 1.827130 
# 
# From -- ./inp_files/9809.got.cif
#   From: 2010.05.17/outbox.cif.g08.bks.cpg/sg22_5_cif.got.tgz:9809.got - 2010.06.03 23:40:54.
