data_PCOD9327540
_publ_section_title
;
Structure prediction by ZEFSAII (Michael W. Deem and Ramdas Pophale) SiO2 
 PCOD9327540
Probable space group: F 2 2 2
;
_chemical_formula_sum "Si O2"
_cell_formula_units_Z 68
_cell_length_a 14.619587
_cell_length_b 5.560996
_cell_length_c 36.701614
_cell_angle_alpha 90.000000
_cell_angle_beta 90.000000
_cell_angle_gamma 90.000000
_cell_volume 2983.821577
_symmetry_space_group_name_H-M "F 2 2 2"
_symmetry_group_IT_number 22
_symmetry_cell_setting 'orthorhombic'
loop_
_space_group_symop_operation_xyz
x,y,z
-x,-y,z
x,-y,-z
-x,y,-z
x,1/2+y,1/2+z
-x,1/2-y,1/2+z
x,1/2-y,1/2-z
-x,1/2+y,1/2-z
1/2+x,y,1/2+z
1/2-x,-y,1/2+z
1/2+x,-y,1/2-z
1/2-x,y,1/2-z
1/2+x,1/2+y,z
1/2-x,1/2-y,z
1/2+x,1/2-y,-z
1/2-x,1/2+y,-z
loop_
_atom_site_type_symbol
_atom_site_label
_atom_site_fract_x
_atom_site_fract_y
_atom_site_fract_z
Si Si1 0.397660 0.891919 0.962817
Si Si2 0.143425 0.993181 0.145630
Si Si3 0.889406 0.998999 0.768774
Si Si4 0.000000 0.000000 0.000000
Si Si5 0.149422 0.509719 0.883303
O O1 0.427595 0.624441 0.972657
O O2 0.344443 0.953005 0.926610
O O3 0.500000 0.000000 0.958441
O O4 0.356655 0.000000 0.000000
O O5 0.103296 0.247402 0.131958
O O6 0.249299 0.001405 0.133512
O O7 0.137060 0.988607 0.189005
O O8 0.106399 0.745864 0.128023
O O9 0.858285 0.750000 0.750000
O O10 0.858655 0.250000 0.750000
O O11 0.000000 0.000000 0.766829
#
# Coordination Sequence:
#
# PCOD9327540 Si02
#       5
#    16  16  16   4  16
#     4   9  20  36  60  89 116 160 207 255 303 358
#     4  10  22  40  58  89 125 158 200 245 301 371
#     4  10  21  39  65  90 119 155 199 250 302 361
#     4   8  18  36  60  90 120 148 222 258 310 356
#     4  10  22  39  58  85 127 161 199 246 303 364
#
# _framework density 22.789567000000002
#
# number of rings (size 3 to 8) (size 9 to 14) (size 15 to 20)
#    0.000    2.588    0.000    1.412    6.588    1.882 
#    0.000   18.824    0.000    0.000    0.000    0.000 
#    0.000    0.000    0.000    0.000    0.000    0.000 
#
# Total GULP energy -94805.870631 kJ/mol
# GULP energy per Si atom -5576.815919 kJ/mol
# Density = 2.273770 g / cm^3
# Si number density = 22.789567 Si / 1000 Ang^3
#
#
#
# Elastic Constant Matrix: (Units=GPa)
#
#
# Indices 1 2 3 4 5 6 
#
# 1 72.2568 18.0597 9.1972 0.0000 0.0000 0.0000
# 2 18.0597 223.7707 113.3401 0.0000 0.0000 0.0000
# 3 9.1972 113.3401 215.7629 0.0000 0.0000 0.0000
# 4 0.0000 0.0000 0.0000 78.9181 0.0000 0.0000
# 5 0.0000 0.0000 0.0000 0.0000 39.4821 0.0000
# 6 0.0000 0.0000 0.0000 0.0000 0.0000 3.4032
#
#
#
# Elastic Compliance Matrix: (Units=1/GPa)
#
#
# Indices 1 2 3 4 5 6 
#
# 1 0.014124 -0.001138 -0.000004 0.000000 0.000000 0.000000
# 2 -0.001138 0.006181 -0.003198 0.000000 0.000000 0.000000
# 3 -0.000004 -0.003198 0.006315 0.000000 0.000000 0.000000
# 4 0.000000 0.000000 0.000000 0.012671 0.000000 0.000000
# 5 0.000000 0.000000 0.000000 0.000000 0.025328 0.000000
# 6 0.000000 0.000000 0.000000 0.000000 0.000000 0.293841
#
#
# Mechanical properties :
#
#
# Convention : Reuss Voigt Hill
#
# Bulk Modulus (GPa) = 55.74344 88.10938 71.92641
# Shear Modulus (GPa) = 13.40048 49.10691 31.25370
#
# Velocity S-wave (km/s) = 2.42752 4.64702 3.70726
# Velocity P-wave (km/s) = 5.68949 8.21822 7.06786
#
# Compressibility (1/GPa) = 0.01793933
#
# Stress axis : x y z
#
# Youngs Moduli (GPa) = 70.79929 161.79828 158.35602
#
# Poissons Ratio (x) = 0.18407 0.00071
# Poissons Ratio (y) = 0.08055 0.50644
# Poissons Ratio (z) = 0.00032 0.51745
#
# Static dielectric constant tensor:
#      x y z
#    x 1.772900 0.000000 0.000000 
#    y 0.000000 2.721710 0.000000 
#    z 0.000000 0.000000 1.732780 
# 
# From -- ./inp_files/3964.got.cif
#   From: 2010.05.17/outbox.cif.g08.bks.cpg/sg22_2_cif.got.tgz:3964.got - 2010.06.03 23:40:54.
