data_PCOD9327394
_publ_section_title
;
Structure prediction by ZEFSAII (Michael W. Deem and Ramdas Pophale) SiO2 
 PCOD9327394
Probable space group: F 2 2 2
;
_chemical_formula_sum "Si O2"
_cell_formula_units_Z 80
_cell_length_a 26.126747
_cell_length_b 8.741677
_cell_length_c 16.367728
_cell_angle_alpha 90.000000
_cell_angle_beta 90.000000
_cell_angle_gamma 90.000000
_cell_volume 3738.251314
_symmetry_space_group_name_H-M "F 2 2 2"
_symmetry_group_IT_number 22
_symmetry_cell_setting 'orthorhombic'
loop_
_space_group_symop_operation_xyz
x,y,z
-x,-y,z
x,-y,-z
-x,y,-z
x,1/2+y,1/2+z
-x,1/2-y,1/2+z
x,1/2-y,1/2-z
-x,1/2+y,1/2-z
1/2+x,y,1/2+z
1/2-x,-y,1/2+z
1/2+x,-y,1/2-z
1/2-x,y,1/2-z
1/2+x,1/2+y,z
1/2-x,1/2-y,z
1/2+x,1/2-y,-z
1/2-x,1/2+y,-z
loop_
_atom_site_type_symbol
_atom_site_label
_atom_site_fract_x
_atom_site_fract_y
_atom_site_fract_z
Si Si1 0.000000 0.500000 0.331758
Si Si2 0.082384 0.266340 0.349558
Si Si3 0.760755 0.929040 0.585143
Si Si4 0.182344 0.901440 0.801465
Si Si5 0.128566 0.953837 0.352468
Si Si6 0.569199 0.250000 0.250000
O O1 0.963493 0.623382 0.377364
O O2 0.963970 0.396327 0.274750
O O3 0.076378 0.250000 0.250000
O O4 0.137427 0.347172 0.362926
O O5 0.090631 0.091692 0.377837
O O6 0.750000 0.750000 0.591265
O O7 0.821718 0.948110 0.592039
O O8 0.743098 0.000000 0.500000
O O9 0.729610 0.018496 0.655222
O O10 0.195669 0.750000 0.750000
O O11 0.153567 0.008057 0.736437
O O12 0.100006 0.797607 0.331525
#
# Coordination Sequence:
#
# PCOD9327394 Si02
#       6
#     8  16  16  16  16   8
#     4  12  18  30  54  90 128 154 202 272 340 370
#     4   9  18  32  55  88 122 164 199 258 330 370
#     4  12  28  42  63  98 133 178 220 270 327 395
#     4   9  20  40  66  89 126 176 215 259 321 385
#     4  10  21  37  59  89 126 166 212 263 322 386
#     4  12  18  32  55  90 128 155 208 266 322 388
#
# _framework density 21.400382
#
# number of rings (size 3 to 8) (size 9 to 14) (size 15 to 20)
#    0.000    2.000    5.000    1.800    5.600    4.000 
#    0.000    0.000    0.000    0.000    0.000   11.200 
#    0.000    0.000    0.000    0.000    0.000    0.000 
#
# Total GULP energy -111565.161357 kJ/mol
# GULP energy per Si atom -5578.258068 kJ/mol
# Density = 2.135167 g / cm^3
# Si number density = 21.400382 Si / 1000 Ang^3
#
#
#
# Elastic Constant Matrix: (Units=GPa)
#
#
# Indices 1 2 3 4 5 6 
#
# 1 114.9058 59.6430 15.1950 0.0000 0.0000 0.0000
# 2 59.6430 136.8195 30.8754 0.0000 0.0000 0.0000
# 3 15.1950 30.8754 35.9739 0.0000 0.0000 0.0000
# 4 0.0000 0.0000 0.0000 12.7700 0.0000 0.0000
# 5 0.0000 0.0000 0.0000 0.0000 4.8895 0.0000
# 6 0.0000 0.0000 0.0000 0.0000 0.0000 68.1029
#
#
#
# Elastic Compliance Matrix: (Units=1/GPa)
#
#
# Indices 1 2 3 4 5 6 
#
# 1 0.011261 -0.004757 -0.000674 0.000000 0.000000 0.000000
# 2 -0.004757 0.011074 -0.007495 0.000000 0.000000 0.000000
# 3 -0.000674 -0.007495 0.034515 0.000000 0.000000 0.000000
# 4 0.000000 0.000000 0.000000 0.078309 0.000000 0.000000
# 5 0.000000 0.000000 0.000000 0.000000 0.204518 0.000000
# 6 0.000000 0.000000 0.000000 0.000000 0.000000 0.014684
#
#
# Mechanical properties :
#
#
# Convention : Reuss Voigt Hill
#
# Bulk Modulus (GPa) = 32.25953 55.45845 43.85899
# Shear Modulus (GPa) = 12.80260 29.28486 21.04373
#
# Velocity S-wave (km/s) = 2.44855 3.70324 3.13922
# Velocity P-wave (km/s) = 4.80634 6.65254 5.80332
#
# Compressibility (1/GPa) = 0.03099859
#
# Stress axis : x y z
#
# Youngs Moduli (GPa) = 88.80210 90.30191 28.97252
#
# Poissons Ratio (x) = 0.42956 0.01952
# Poissons Ratio (y) = 0.42242 0.21716
# Poissons Ratio (z) = 0.05983 0.67683
#
# Static dielectric constant tensor:
#      x y z
#    x 1.868490 0.000000 0.000000 
#    y 0.000000 1.826240 0.000000 
#    z 0.000000 0.000000 1.755470 
# 
# From -- ./inp_files/40295.got.cif
#   From: 2010.05.17/outbox.cif.g08.bks.cpg/sg22_21_cif.got.tgz:40295.got - 2010.06.03 23:40:54.
