data_PCOD9327062
_publ_section_title
;
Structure prediction by ZEFSAII (Michael W. Deem and Ramdas Pophale) SiO2 
 PCOD9327062
Probable space group: F 2 2 2
;
_chemical_formula_sum "Si O2"
_cell_formula_units_Z 120
_cell_length_a 19.619874
_cell_length_b 13.345044
_cell_length_c 23.217913
_cell_angle_alpha 90.000000
_cell_angle_beta 90.000000
_cell_angle_gamma 90.000000
_cell_volume 6079.101624
_symmetry_space_group_name_H-M "F 2 2 2"
_symmetry_group_IT_number 22
_symmetry_cell_setting 'orthorhombic'
loop_
_space_group_symop_operation_xyz
x,y,z
-x,-y,z
x,-y,-z
-x,y,-z
x,1/2+y,1/2+z
-x,1/2-y,1/2+z
x,1/2-y,1/2-z
-x,1/2+y,1/2-z
1/2+x,y,1/2+z
1/2-x,-y,1/2+z
1/2+x,-y,1/2-z
1/2-x,y,1/2-z
1/2+x,1/2+y,z
1/2-x,1/2-y,z
1/2+x,1/2-y,-z
1/2-x,1/2+y,-z
loop_
_atom_site_type_symbol
_atom_site_label
_atom_site_fract_x
_atom_site_fract_y
_atom_site_fract_z
Si Si1 0.864892 0.044569 0.935760
Si Si2 0.473117 0.299320 0.583162
Si Si3 0.895728 0.532981 0.848319
Si Si4 0.063068 0.886248 0.148498
Si Si5 0.678059 0.267973 0.317305
Si Si6 0.704988 0.438212 0.559168
Si Si7 0.500000 0.000000 0.245877
Si Si8 0.888770 0.230340 0.528095
O O1 0.783471 0.045234 0.921811
O O2 0.885072 0.159670 0.945251
O O3 0.911014 0.980003 0.890796
O O4 0.872929 0.000000 0.000000
O O5 0.449687 0.396078 0.618291
O O6 0.484401 0.195255 0.617167
O O7 0.545199 0.324317 0.554859
O O8 0.411857 0.271847 0.538686
O O9 0.846654 0.619098 0.823472
O O10 0.848503 0.471319 0.891752
O O11 0.936778 0.476859 0.797340
O O12 0.127509 0.815690 0.159775
O O13 0.029274 0.918809 0.208851
O O14 0.682720 0.250000 0.250000
O O15 0.750000 0.250000 0.346963
O O16 0.695041 0.500000 0.500000
O O17 0.680828 0.327153 0.541292
#
# Coordination Sequence:
#
# PCOD9327062 Si02
#       8
#    16  16  16  16  16  16   8  16
#     4  11  23  40  63  92 128 165 205 255 316 385
#     4  10  22  37  64  87 124 160 203 262 309 371
#     4  11  22  41  59  95 124 163 210 257 317 370
#     4  11  22  41  59  95 124 163 210 257 317 370
#     4  10  20  38  64  90 121 156 208 269 313 361
#     4  11  23  40  63  92 128 165 205 255 316 385
#     4  12  24  38  62  88 126 170 208 256 306 374
#     4  11  21  40  58  93 124 166 204 248 313 382
#
# _framework density 19.739758999999999
#
# number of rings (size 3 to 8) (size 9 to 14) (size 15 to 20)
#    0.000    1.200    4.000    2.800    0.000    0.000 
#    0.000    1.333    0.000    0.000    0.000    3.733 
#    0.000    0.000    0.000    0.000    0.000    0.000 
#
# Total GULP energy -167197.523454 kJ/mol
# GULP energy per Si atom -5573.250782 kJ/mol
# Density = 1.969483 g / cm^3
# Si number density = 19.739759 Si / 1000 Ang^3
#
#
#
# Elastic Constant Matrix: (Units=GPa)
#
#
# Indices 1 2 3 4 5 6 
#
# 1 81.8227 23.0927 37.3282 0.0000 0.0000 0.0000
# 2 23.0927 65.4935 22.8313 0.0000 0.0000 0.0000
# 3 37.3282 22.8313 96.0900 0.0000 0.0000 0.0000
# 4 0.0000 0.0000 0.0000 20.4352 0.0000 0.0000
# 5 0.0000 0.0000 0.0000 0.0000 -5.4543 0.0000
# 6 0.0000 0.0000 0.0000 0.0000 0.0000 -1.3144
#
#
#
# Elastic Compliance Matrix: (Units=1/GPa)
#
#
# Indices 1 2 3 4 5 6 
#
# 1 0.015636 -0.003702 -0.005195 0.000000 0.000000 0.000000
# 2 -0.003702 0.017524 -0.002726 0.000000 0.000000 0.000000
# 3 -0.005195 -0.002726 0.013072 0.000000 0.000000 0.000000
# 4 0.000000 0.000000 0.000000 0.048935 0.000000 0.000000
# 5 0.000000 0.000000 0.000000 0.000000 -0.183341 0.000000
# 6 0.000000 0.000000 0.000000 0.000000 0.000000 -0.760784
#
#
# Mechanical properties :
#
#
# Convention : Reuss Voigt Hill
#
# Bulk Modulus (GPa) = 43.50103 45.54565 44.52334
# Shear Modulus (GPa) = -6.11210 13.41023 3.64906
#
# Velocity S-wave (km/s) = -1.76155 2.60926 1.36110
# Velocity P-wave (km/s) = 4.23647 5.67458 5.00742
#
# Compressibility (1/GPa) = 0.02298796
#
# Stress axis : x y z
#
# Youngs Moduli (GPa) = 63.95387 57.06370 76.49683
#
# Poissons Ratio (x) = 0.21127 0.39737
# Poissons Ratio (y) = 0.23679 0.20849
# Poissons Ratio (z) = 0.33221 0.15553
#
# Static dielectric constant tensor:
#      x y z
#    x 1.796720 0.000000 0.000000 
#    y 0.000000 1.767330 0.000000 
#    z 0.000000 0.000000 1.739750 
# 
# From -- ./inp_files/50021.got.cif
#   From: 2010.05.17/outbox.cif.g08.bks.cpg/sg22_26_cif.got.tgz:50021.got - 2010.06.03 23:40:54.
