data_PCOD9327663
_publ_section_title
;
Structure prediction by ZEFSAII (Michael W. Deem and Ramdas Pophale) SiO2 
 PCOD9327663
Probable space group: F 2 2 2
;
_chemical_formula_sum "Si O2"
_cell_formula_units_Z 100
_cell_length_a 30.075742
_cell_length_b 8.026094
_cell_length_c 19.223629
_cell_angle_alpha 90.000000
_cell_angle_beta 90.000000
_cell_angle_gamma 90.000000
_cell_volume 4640.405884
_symmetry_space_group_name_H-M "F 2 2 2"
_symmetry_group_IT_number 22
_symmetry_cell_setting 'orthorhombic'
loop_
_space_group_symop_operation_xyz
x,y,z
-x,-y,z
x,-y,-z
-x,y,-z
x,1/2+y,1/2+z
-x,1/2-y,1/2+z
x,1/2-y,1/2-z
-x,1/2+y,1/2-z
1/2+x,y,1/2+z
1/2-x,-y,1/2+z
1/2+x,-y,1/2-z
1/2-x,y,1/2-z
1/2+x,1/2+y,z
1/2-x,1/2-y,z
1/2+x,1/2-y,-z
1/2-x,1/2+y,-z
loop_
_atom_site_type_symbol
_atom_site_label
_atom_site_fract_x
_atom_site_fract_y
_atom_site_fract_z
Si Si1 0.856130 0.192546 0.521350
Si Si2 0.368819 0.927375 0.288197
Si Si3 0.173774 0.911603 0.664582
Si Si4 0.250000 0.250000 0.250000
Si Si5 0.543212 0.612148 0.189475
Si Si6 0.455262 0.811323 0.530642
Si Si7 0.696742 0.273695 0.106550
O O1 0.842906 0.204995 0.602419
O O2 0.907700 0.234772 0.511513
O O3 0.824131 0.296173 0.470093
O O4 0.849726 0.000000 0.500000
O O5 0.375238 0.750000 0.250000
O O6 0.326828 0.903443 0.340405
O O7 0.358551 0.063248 0.229271
O O8 0.414559 0.989241 0.320400
O O9 0.219450 0.856249 0.698952
O O10 0.179595 0.095660 0.633873
O O11 0.500000 0.500000 0.204879
O O12 0.548277 0.750000 0.250000
O O13 0.538611 0.692708 0.113506
O O14 0.500000 0.731214 0.500000
O O15 0.453806 0.000000 0.500000
O O16 0.750000 0.250000 0.105966
#
# Coordination Sequence:
#
# PCOD9327663 Si02
#       7
#    16  16  16   4  16  16  16
#     4  10  23  43  64  93 133 168 223 279 333 399
#     4  10  22  42  69  94 132 176 226 275 342 401
#     4  10  23  40  60  94 132 170 220 279 327 412
#     4  12  24  36  62  92 140 168 216 268 356 392
#     4  12  25  44  69 104 140 174 230 287 350 416
#     4  11  23  45  68  94 131 174 225 273 336 416
#     4  10  21  41  67  93 129 179 230 274 338 402
#
# _framework density 21.549838999999999
#
# number of rings (size 3 to 8) (size 9 to 14) (size 15 to 20)
#    0.000    1.440    1.600    3.360    4.480    2.560 
#    8.640    0.000    0.000    0.000    0.000    0.000 
#    0.000    0.000    0.000    0.000    0.000    0.000 
#
# Total GULP energy -139634.351915 kJ/mol
# GULP energy per Si atom -5585.374077 kJ/mol
# Density = 2.150079 g / cm^3
# Si number density = 21.549839 Si / 1000 Ang^3
#
#
#
# Elastic Constant Matrix: (Units=GPa)
#
#
# Indices 1 2 3 4 5 6 
#
# 1 160.4770 6.9768 66.8289 0.0000 0.0000 0.0000
# 2 6.9768 38.7494 28.7953 0.0000 0.0000 0.0000
# 3 66.8289 28.7953 157.3353 0.0000 0.0000 0.0000
# 4 0.0000 0.0000 0.0000 11.2638 0.0000 0.0000
# 5 0.0000 0.0000 0.0000 0.0000 33.2703 0.0000
# 6 0.0000 0.0000 0.0000 0.0000 0.0000 48.4428
#
#
#
# Elastic Compliance Matrix: (Units=1/GPa)
#
#
# Indices 1 2 3 4 5 6 
#
# 1 0.007618 0.001196 -0.003455 0.000000 0.000000 0.000000
# 2 0.001196 0.030057 -0.006009 0.000000 0.000000 0.000000
# 3 -0.003455 -0.006009 0.008923 0.000000 0.000000 0.000000
# 4 0.000000 0.000000 0.000000 0.088780 0.000000 0.000000
# 5 0.000000 0.000000 0.000000 0.000000 0.030057 0.000000
# 6 0.000000 0.000000 0.000000 0.000000 0.000000 0.020643
#
#
# Mechanical properties :
#
#
# Convention : Reuss Voigt Hill
#
# Bulk Modulus (GPa) = 33.26441 62.41817 47.84129
# Shear Modulus (GPa) = 23.51462 35.52611 29.52037
#
# Velocity S-wave (km/s) = 3.30688 4.06465 3.70518
# Velocity P-wave (km/s) = 5.48180 7.14534 6.36812
#
# Compressibility (1/GPa) = 0.03006216
#
# Stress axis : x y z
#
# Youngs Moduli (GPa) = 131.26654 33.27032 112.07065
#
# Poissons Ratio (x) = -0.03978 0.38716
# Poissons Ratio (y) = -0.15694 0.67341
# Poissons Ratio (z) = 0.45348 0.19991
#
# Static dielectric constant tensor:
#      x y z
#    x 1.807440 0.000000 0.000000 
#    y 0.000000 1.794960 0.000000 
#    z 0.000000 0.000000 1.824350 
# 
# From -- ./inp_files/45797.got.cif
#   From: 2010.05.17/outbox.cif.g08.bks.cpg/sg22_23_cif.got.tgz:45797.got - 2010.06.03 23:40:54.
