data_PCOD9327428
_publ_section_title
;
Structure prediction by ZEFSAII (Michael W. Deem and Ramdas Pophale) SiO2 
 PCOD9327428
Probable space group: F 2 2 2
;
_chemical_formula_sum "Si O2"
_cell_formula_units_Z 104
_cell_length_a 17.486507
_cell_length_b 19.342343
_cell_length_c 16.155001
_cell_angle_alpha 90.000000
_cell_angle_beta 90.000000
_cell_angle_gamma 90.000000
_cell_volume 5464.106251
_symmetry_space_group_name_H-M "F 2 2 2"
_symmetry_group_IT_number 22
_symmetry_cell_setting 'orthorhombic'
loop_
_space_group_symop_operation_xyz
x,y,z
-x,-y,z
x,-y,-z
-x,y,-z
x,1/2+y,1/2+z
-x,1/2-y,1/2+z
x,1/2-y,1/2-z
-x,1/2+y,1/2-z
1/2+x,y,1/2+z
1/2-x,-y,1/2+z
1/2+x,-y,1/2-z
1/2-x,y,1/2-z
1/2+x,1/2+y,z
1/2-x,1/2-y,z
1/2+x,1/2-y,-z
1/2-x,1/2+y,-z
loop_
_atom_site_type_symbol
_atom_site_label
_atom_site_fract_x
_atom_site_fract_y
_atom_site_fract_z
Si Si1 0.653666 0.565309 0.116221
Si Si2 0.688729 0.368297 0.048234
Si Si3 0.922586 0.461785 0.257242
Si Si4 0.250000 0.250000 0.060391
Si Si5 0.897623 0.213558 0.837620
Si Si6 0.219433 0.025791 0.658090
Si Si7 0.929486 0.193178 0.178264
O O1 0.611663 0.500532 0.160169
O O2 0.628356 0.633550 0.164839
O O3 0.742797 0.546158 0.129705
O O4 0.642816 0.585018 0.019752
O O5 0.745005 0.417274 0.098948
O O6 0.633672 0.322837 0.107513
O O7 0.740604 0.316967 0.995627
O O8 0.869294 0.472743 0.177217
O O9 0.934942 0.381470 0.276943
O O10 0.000000 0.500000 0.240651
O O11 0.169848 0.250058 0.110246
O O12 0.897102 0.250000 0.750000
O O13 0.987798 0.212409 0.861913
O O14 0.250000 0.042000 0.750000
O O15 0.910657 0.250000 0.250000
#
# Coordination Sequence:
#
# PCOD9327428 Si02
#       7
#    16  16  16   8  16  16  16
#     4  10  21  39  65  97 125 163 215 279 322 389
#     4  11  23  41  64  96 131 171 219 267 334 390
#     4  11  22  42  65  99 127 170 219 273 330 387
#     4  10  25  36  59  92 126 170 212 268 323 394
#     4  10  22  43  63  91 127 170 219 269 333 387
#     4  10  21  37  64  94 127 165 215 264 320 392
#     4  11  24  41  65  92 130 174 218 271 326 394
#
# _framework density 19.033304999999999
#
# number of rings (size 3 to 8) (size 9 to 14) (size 15 to 20)
#    0.000    1.538    4.615    0.692    2.154    9.846 
#    0.000    0.769    0.000    1.846    0.000    0.000 
#    0.000    0.000    0.000    0.000    0.000    0.000 
#
# Total GULP energy -144808.544871 kJ/mol
# GULP energy per Si atom -5569.559418 kJ/mol
# Density = 1.898998 g / cm^3
# Si number density = 19.033305 Si / 1000 Ang^3
#
#
#
# Elastic Constant Matrix: (Units=GPa)
#
#
# Indices 1 2 3 4 5 6 
#
# 1 128.1759 43.3098 51.3165 0.0000 0.0000 0.0000
# 2 43.3098 106.8181 53.0085 0.0000 0.0000 0.0000
# 3 51.3165 53.0085 88.6240 0.0000 0.0000 0.0000
# 4 0.0000 0.0000 0.0000 39.5668 0.0000 0.0000
# 5 0.0000 0.0000 0.0000 0.0000 12.7494 0.0000
# 6 0.0000 0.0000 0.0000 0.0000 0.0000 14.6762
#
#
#
# Elastic Compliance Matrix: (Units=1/GPa)
#
#
# Indices 1 2 3 4 5 6 
#
# 1 0.010380 -0.001743 -0.004967 0.000000 0.000000 0.000000
# 2 -0.001743 0.013606 -0.007129 0.000000 0.000000 0.000000
# 3 -0.004967 -0.007129 0.018424 0.000000 0.000000 0.000000
# 4 0.000000 0.000000 0.000000 0.025274 0.000000 0.000000
# 5 0.000000 0.000000 0.000000 0.000000 0.078435 0.000000
# 6 0.000000 0.000000 0.000000 0.000000 0.000000 0.068138
#
#
# Mechanical properties :
#
#
# Convention : Reuss Voigt Hill
#
# Bulk Modulus (GPa) = 67.88612 68.76531 68.32571
# Shear Modulus (GPa) = 20.25559 25.13068 22.69313
#
# Velocity S-wave (km/s) = 3.26577 3.63761 3.45669
# Velocity P-wave (km/s) = 7.06858 7.33828 7.20469
#
# Compressibility (1/GPa) = 0.01473055
#
# Stress axis : x y z
#
# Youngs Moduli (GPa) = 96.34278 73.49567 54.27740
#
# Poissons Ratio (x) = 0.12813 0.26962
# Poissons Ratio (y) = 0.16796 0.38693
# Poissons Ratio (z) = 0.47857 0.52394
#
# Static dielectric constant tensor:
#      x y z
#    x 1.841900 0.000000 0.000000 
#    y 0.000000 1.674800 0.000000 
#    z 0.000000 0.000000 1.680770 
# 
# From -- ./inp_files/30794.got.cif
#   From: 2010.05.17/outbox.cif.g08.bks.cpg/sg22_16_cif.got.tgz:30794.got - 2010.06.03 23:40:54.
