data_PCOD9327210
_publ_section_title
;
Structure prediction by ZEFSAII (Michael W. Deem and Ramdas Pophale) SiO2 
 PCOD9327210
Probable space group: F 2 2 2
;
_chemical_formula_sum "Si O2"
_cell_formula_units_Z 56
_cell_length_a 8.846835
_cell_length_b 13.429433
_cell_length_c 16.784096
_cell_angle_alpha 90.000000
_cell_angle_beta 90.000000
_cell_angle_gamma 90.000000
_cell_volume 1994.084507
_symmetry_space_group_name_H-M "F 2 2 2"
_symmetry_group_IT_number 22
_symmetry_cell_setting 'orthorhombic'
loop_
_space_group_symop_operation_xyz
x,y,z
-x,-y,z
x,-y,-z
-x,y,-z
x,1/2+y,1/2+z
-x,1/2-y,1/2+z
x,1/2-y,1/2-z
-x,1/2+y,1/2-z
1/2+x,y,1/2+z
1/2-x,-y,1/2+z
1/2+x,-y,1/2-z
1/2-x,y,1/2-z
1/2+x,1/2+y,z
1/2-x,1/2-y,z
1/2+x,1/2-y,-z
1/2-x,1/2+y,-z
loop_
_atom_site_type_symbol
_atom_site_label
_atom_site_fract_x
_atom_site_fract_y
_atom_site_fract_z
Si Si1 0.950197 0.339290 0.385823
Si Si2 0.000000 0.661140 0.000000
Si Si3 0.250000 0.411140 0.750000
Si Si4 0.500000 0.000000 0.500000
Si Si5 0.700197 0.589290 0.364177
Si Si6 0.250000 0.750000 0.750000
O O1 0.864183 0.348830 0.303452
O O2 0.899012 0.428088 0.445392
O O3 0.929854 0.238088 0.434936
O O4 0.125000 0.375000 0.375000
O O5 0.114182 0.598830 0.946548
O O6 0.320146 0.488088 0.684936
O O7 0.649012 0.678088 0.304608
#
# Coordination Sequence:
#
# PCOD9327210 Si02
#       6
#    16   8   8   4  16   4
#     4  11  22  45  78 114 155 211 262 336 389 488
#     4  11  24  45  86 113 161 210 266 327 414 465
#     4  11  24  45  86 113 161 210 266 327 414 465
#     4  10  20  40  72  94 154 198 246 310 402 432
#     4  11  22  45  78 114 155 211 262 336 389 488
#     4  10  20  40  72  94 154 198 246 310 402 432
#
# _framework density 28.083061000000001
#
# number of rings (size 3 to 8) (size 9 to 14) (size 15 to 20)
#    0.000    1.143    5.714    0.000    0.000    0.000 
#    0.000   25.714   12.571    0.000    0.000    0.000 
#    0.000    0.000    0.000    0.000    0.000    0.000 
#
# Total GULP energy -78517.500094 kJ/mol
# GULP energy per Si atom -5608.392864 kJ/mol
# Density = 2.801914 g / cm^3
# Si number density = 28.083061 Si / 1000 Ang^3
#
#
#
# Elastic Constant Matrix: (Units=GPa)
#
#
# Indices 1 2 3 4 5 6 
#
# 1 145.4806 42.7087 137.5810 0.0000 0.0000 0.0000
# 2 42.7087 121.0009 84.8843 0.0000 0.0000 0.0000
# 3 137.5810 84.8843 274.3516 0.0000 0.0000 0.0000
# 4 0.0000 0.0000 0.0000 55.2569 0.0000 0.0000
# 5 0.0000 0.0000 0.0000 0.0000 87.8555 0.0000
# 6 0.0000 0.0000 0.0000 0.0000 0.0000 10.8875
#
#
#
# Elastic Compliance Matrix: (Units=1/GPa)
#
#
# Indices 1 2 3 4 5 6 
#
# 1 0.013074 -0.000019 -0.006550 0.000000 0.000000 0.000000
# 2 -0.000019 0.010555 -0.003256 0.000000 0.000000 0.000000
# 3 -0.006550 -0.003256 0.007937 0.000000 0.000000 0.000000
# 4 0.000000 0.000000 0.000000 0.018097 0.000000 0.000000
# 5 0.000000 0.000000 0.000000 0.000000 0.011382 0.000000
# 6 0.000000 0.000000 0.000000 0.000000 0.000000 0.091849
#
#
# Mechanical properties :
#
#
# Convention : Reuss Voigt Hill
#
# Bulk Modulus (GPa) = 83.92774 119.02013 101.47394
# Shear Modulus (GPa) = 28.32562 49.17724 38.75143
#
# Velocity S-wave (km/s) = 3.17935 4.18920 3.71871
# Velocity P-wave (km/s) = 6.59000 8.11620 7.39259
#
# Compressibility (1/GPa) = 0.01191501
#
# Stress axis : x y z
#
# Youngs Moduli (GPa) = 76.48674 94.73751 125.98829
#
# Poissons Ratio (x) = 0.00185 0.82527
# Poissons Ratio (y) = 0.00149 0.41023
# Poissons Ratio (z) = 0.50102 0.30847
#
# Static dielectric constant tensor:
#      x y z
#    x 2.285300 0.000000 0.000000 
#    y 0.000000 2.253100 0.000000 
#    z 0.000000 0.000000 2.276170 
# 
# From -- ./inp_files/34734.got.cif
#   From: 2010.05.17/outbox.cif.g08.bks.cpg/sg22_18_cif.got.tgz:34734.got - 2010.06.03 23:40:54.
