data_PCOD9327152
_publ_section_title
;
Structure prediction by ZEFSAII (Michael W. Deem and Ramdas Pophale) SiO2 
 PCOD9327152
Probable space group: F 2 2 2
;
_chemical_formula_sum "Si O2"
_cell_formula_units_Z 76
_cell_length_a 14.129572
_cell_length_b 11.002991
_cell_length_c 28.239792
_cell_angle_alpha 90.000000
_cell_angle_beta 90.000000
_cell_angle_gamma 90.000000
_cell_volume 4390.371375
_symmetry_space_group_name_H-M "F 2 2 2"
_symmetry_group_IT_number 22
_symmetry_cell_setting 'orthorhombic'
loop_
_space_group_symop_operation_xyz
x,y,z
-x,-y,z
x,-y,-z
-x,y,-z
x,1/2+y,1/2+z
-x,1/2-y,1/2+z
x,1/2-y,1/2-z
-x,1/2+y,1/2-z
1/2+x,y,1/2+z
1/2-x,-y,1/2+z
1/2+x,-y,1/2-z
1/2-x,y,1/2-z
1/2+x,1/2+y,z
1/2-x,1/2-y,z
1/2+x,1/2-y,-z
1/2-x,1/2+y,-z
loop_
_atom_site_type_symbol
_atom_site_label
_atom_site_fract_x
_atom_site_fract_y
_atom_site_fract_z
Si Si1 0.000000 0.000000 0.500000
Si Si2 0.750000 0.052730 0.250000
Si Si3 0.960958 0.120842 0.877640
Si Si4 0.043035 0.128143 0.773099
Si Si5 0.431433 0.607492 0.591778
Si Si6 0.248853 0.889227 0.658261
O O1 0.935265 0.922106 0.464192
O O2 0.769133 0.972725 0.296659
O O3 0.845776 0.123101 0.237525
O O4 0.965225 0.253689 0.901074
O O5 0.852615 0.091770 0.863643
O O6 0.019308 0.132529 0.828612
O O7 0.000000 0.000000 0.903319
O O8 0.001238 0.250000 0.750000
O O9 0.000000 0.000000 0.755284
O O10 0.500000 0.500000 0.611774
O O11 0.331743 0.596620 0.618484
O O12 0.250000 0.750000 0.674940
#
# Coordination Sequence:
#
# PCOD9327152 Si02
#       6
#     4   8  16  16  16  16
#     4   8  20  44  66 100 106 148 206 264 308 390
#     4  12  22  36  54  88 129 164 213 254 275 370
#     4  10  20  40  56  86 121 157 195 251 306 361
#     4  11  25  37  53  81 123 163 211 255 292 343
#     4   9  21  39  70  84 120 150 202 253 315 369
#     4  10  21  35  60  89 119 168 202 247 301 358
#
# _framework density 17.310608999999999
#
# number of rings (size 3 to 8) (size 9 to 14) (size 15 to 20)
#    0.632    1.263    4.211    0.632    8.842    0.000 
#    0.000    1.579   13.895    0.000    0.000    0.000 
#    0.000    0.000    0.000    0.000    0.000    0.000 
#
# Total GULP energy -105777.784861 kJ/mol
# GULP energy per Si atom -5567.251835 kJ/mol
# Density = 1.727121 g / cm^3
# Si number density = 17.310609 Si / 1000 Ang^3
#
#
#
# Elastic Constant Matrix: (Units=GPa)
#
#
# Indices 1 2 3 4 5 6 
#
# 1 99.5600 51.0291 32.0490 0.0000 0.0000 0.0000
# 2 51.0291 144.9396 61.8161 0.0000 0.0000 0.0000
# 3 32.0490 61.8161 89.5412 0.0000 0.0000 0.0000
# 4 0.0000 0.0000 0.0000 40.9046 0.0000 0.0000
# 5 0.0000 0.0000 0.0000 0.0000 20.3935 0.0000
# 6 0.0000 0.0000 0.0000 0.0000 0.0000 26.7103
#
#
#
# Elastic Compliance Matrix: (Units=1/GPa)
#
#
# Indices 1 2 3 4 5 6 
#
# 1 0.012513 -0.003537 -0.002037 0.000000 0.000000 0.000000
# 2 -0.003537 0.010778 -0.006175 0.000000 0.000000 0.000000
# 3 -0.002037 -0.006175 0.016160 0.000000 0.000000 0.000000
# 4 0.000000 0.000000 0.000000 0.024447 0.000000 0.000000
# 5 0.000000 0.000000 0.000000 0.000000 0.049035 0.000000
# 6 0.000000 0.000000 0.000000 0.000000 0.000000 0.037439
#
#
# Mechanical properties :
#
#
# Convention : Reuss Voigt Hill
#
# Bulk Modulus (GPa) = 62.68161 69.31438 65.99800
# Shear Modulus (GPa) = 27.90378 30.21145 29.05761
#
# Velocity S-wave (km/s) = 4.01926 4.18216 4.10152
# Velocity P-wave (km/s) = 7.60446 7.96549 7.78707
#
# Compressibility (1/GPa) = 0.01595364
#
# Stress axis : x y z
#
# Youngs Moduli (GPa) = 79.91959 92.78008 61.88034
#
# Poissons Ratio (x) = 0.32812 0.12605
# Poissons Ratio (y) = 0.28264 0.38212
# Poissons Ratio (z) = 0.16280 0.57292
#
# Static dielectric constant tensor:
#      x y z
#    x 1.599800 0.000000 0.000000 
#    y 0.000000 1.648290 0.000000 
#    z 0.000000 0.000000 1.558570 
# 
# From -- ./inp_files/28308.got.cif
#   From: 2010.05.17/outbox.cif.g08.bks.cpg/sg22_15_cif.got.tgz:28308.got - 2010.06.03 23:40:54.
