data_PCOD9327870
_publ_section_title
;
Structure prediction by ZEFSAII (Michael W. Deem and Ramdas Pophale) SiO2 
 PCOD9327870
Probable space group: F 2 2 2
;
_chemical_formula_sum "Si O2"
_cell_formula_units_Z 88
_cell_length_a 7.576381
_cell_length_b 18.582678
_cell_length_c 28.254351
_cell_angle_alpha 90.000000
_cell_angle_beta 90.000000
_cell_angle_gamma 90.000000
_cell_volume 3977.914496
_symmetry_space_group_name_H-M "F 2 2 2"
_symmetry_group_IT_number 22
_symmetry_cell_setting 'orthorhombic'
loop_
_space_group_symop_operation_xyz
x,y,z
-x,-y,z
x,-y,-z
-x,y,-z
x,1/2+y,1/2+z
-x,1/2-y,1/2+z
x,1/2-y,1/2-z
-x,1/2+y,1/2-z
1/2+x,y,1/2+z
1/2-x,-y,1/2+z
1/2+x,-y,1/2-z
1/2-x,y,1/2-z
1/2+x,1/2+y,z
1/2-x,1/2-y,z
1/2+x,1/2-y,-z
1/2-x,1/2+y,-z
loop_
_atom_site_type_symbol
_atom_site_label
_atom_site_fract_x
_atom_site_fract_y
_atom_site_fract_z
Si Si1 0.250000 0.750000 0.452056
Si Si2 0.452510 0.367578 0.903533
Si Si3 0.028647 0.329395 0.697189
Si Si4 0.942345 0.081287 0.396282
Si Si5 0.542402 0.663380 0.698754
Si Si6 0.220462 0.331116 0.046180
O O1 0.388271 0.786615 0.417230
O O2 0.209543 0.812411 0.490600
O O3 0.528482 0.369295 0.850379
O O4 0.269020 0.410908 0.903603
O O5 0.609149 0.379212 0.940630
O O6 0.243214 0.331706 0.697815
O O7 0.978414 0.358777 0.748851
O O8 0.977716 0.245478 0.692779
O O9 0.996730 0.111329 0.344507
O O10 0.053067 0.130575 0.432044
O O11 0.000000 0.000000 0.401957
O O12 0.250000 0.250000 0.066812
#
# Coordination Sequence:
#
# PCOD9327870 Si02
#       6
#     8  16  16  16  16  16
#     4  10  22  38  66 101 123 162 218 284 340 384
#     4  11  20  37  63  88 129 167 212 278 331 389
#     4   8  14  27  58  90 112 158 209 268 328 375
#     4  11  24  40  62  92 136 181 215 270 349 416
#     4   8  14  29  54  88 123 152 211 262 321 393
#     4  10  23  38  63  97 126 161 229 274 328 406
#
# _framework density 22.122143999999999
#
# number of rings (size 3 to 8) (size 9 to 14) (size 15 to 20)
#    0.545    1.818    0.000    6.000    2.545    0.727 
#    0.000    2.727   16.000    5.455    0.000    0.000 
#    0.000    0.000    0.000    0.000    0.000    0.000 
#
# Total GULP energy -122639.821475 kJ/mol
# GULP energy per Si atom -5574.537340 kJ/mol
# Density = 2.207179 g / cm^3
# Si number density = 22.122144 Si / 1000 Ang^3
#
#
#
# Elastic Constant Matrix: (Units=GPa)
#
#
# Indices 1 2 3 4 5 6 
#
# 1 95.1632 32.4798 29.3087 0.0000 0.0000 0.0000
# 2 32.4798 76.4445 40.7761 0.0000 0.0000 0.0000
# 3 29.3087 40.7761 137.6271 0.0000 0.0000 0.0000
# 4 0.0000 0.0000 0.0000 -31.4280 0.0000 0.0000
# 5 0.0000 0.0000 0.0000 0.0000 -2.3191 0.0000
# 6 0.0000 0.0000 0.0000 0.0000 0.0000 10.3209
#
#
#
# Elastic Compliance Matrix: (Units=1/GPa)
#
#
# Indices 1 2 3 4 5 6 
#
# 1 0.012481 -0.004614 -0.001291 0.000000 0.000000 0.000000
# 2 -0.004614 0.017243 -0.004126 0.000000 0.000000 0.000000
# 3 -0.001291 -0.004126 0.008763 0.000000 0.000000 0.000000
# 4 0.000000 0.000000 0.000000 -0.031819 0.000000 0.000000
# 5 0.000000 0.000000 0.000000 0.000000 -0.431201 0.000000
# 6 0.000000 0.000000 0.000000 0.000000 0.000000 0.096891
#
#
# Mechanical properties :
#
#
# Convention : Reuss Voigt Hill
#
# Bulk Modulus (GPa) = 54.27511 57.15155 55.71333
# Shear Modulus (GPa) = -16.58718 9.09276 -3.74721
#
# Velocity S-wave (km/s) = -2.74122 2.02958 -1.30290
# Velocity P-wave (km/s) = 3.81687 5.60204 4.79330
#
# Compressibility (1/GPa) = 0.01842465
#
# Stress axis : x y z
#
# Youngs Moduli (GPa) = 80.12381 57.99528 114.11172
#
# Poissons Ratio (x) = 0.26761 0.14729
# Poissons Ratio (y) = 0.36972 0.47083
# Poissons Ratio (z) = 0.10342 0.23929
#
# Static dielectric constant tensor:
#      x y z
#    x 1.941110 0.000000 0.000000 
#    y 0.000000 1.764320 0.000000 
#    z 0.000000 0.000000 1.851750 
# 
# From -- ./inp_files/55515.got.cif
#   From: 2010.05.17/outbox.cif.g08.bks.cpg/sg22_28_cif.got.tgz:55515.got - 2010.06.03 23:40:54.
