data_PCOD9327046
_publ_section_title
;
Structure prediction by ZEFSAII (Michael W. Deem and Ramdas Pophale) SiO2 
 PCOD9327046
Probable space group: F 2 2 2
;
_chemical_formula_sum "Si O2"
_cell_formula_units_Z 84
_cell_length_a 20.570986
_cell_length_b 17.947495
_cell_length_c 11.886014
_cell_angle_alpha 90.000000
_cell_angle_beta 90.000000
_cell_angle_gamma 90.000000
_cell_volume 4388.288655
_symmetry_space_group_name_H-M "F 2 2 2"
_symmetry_group_IT_number 22
_symmetry_cell_setting 'orthorhombic'
loop_
_space_group_symop_operation_xyz
x,y,z
-x,-y,z
x,-y,-z
-x,y,-z
x,1/2+y,1/2+z
-x,1/2-y,1/2+z
x,1/2-y,1/2-z
-x,1/2+y,1/2-z
1/2+x,y,1/2+z
1/2-x,-y,1/2+z
1/2+x,-y,1/2-z
1/2-x,y,1/2-z
1/2+x,1/2+y,z
1/2-x,1/2-y,z
1/2+x,1/2-y,-z
1/2-x,1/2+y,-z
loop_
_atom_site_type_symbol
_atom_site_label
_atom_site_fract_x
_atom_site_fract_y
_atom_site_fract_z
Si Si1 0.501856 0.336860 0.251988
Si Si2 0.059258 0.542674 0.118178
Si Si3 0.750000 0.750000 0.250000
Si Si4 0.917340 0.416806 0.448037
Si Si5 0.322913 0.021561 0.721871
Si Si6 0.138071 0.354751 0.333888
O O1 0.518877 0.250000 0.250000
O O2 0.533720 0.373893 0.363410
O O3 0.532069 0.381878 0.142999
O O4 0.423151 0.342638 0.250404
O O5 0.128069 0.535348 0.175952
O O6 0.000000 0.500000 0.182222
O O7 0.063493 0.500000 0.000000
O O8 0.801513 0.701120 0.321862
O O9 0.933248 0.500000 0.500000
O O10 0.851530 0.430848 0.379410
O O11 0.898572 0.360141 0.546659
O O12 0.250000 0.039601 0.750000
O O13 0.331719 0.935598 0.689321
#
# Coordination Sequence:
#
# PCOD9327046 Si02
#       6
#    16  16   4  16  16  16
#     4  11  22  41  63  96 127 159 207 268 315 364
#     4  10  21  39  62  89 127 162 206 256 317 366
#     4  12  24  40  56  88 138 160 192 260 320 380
#     4   9  22  40  67  90 118 167 217 253 309 372
#     4  10  20  38  62  90 121 161 215 256 298 375
#     4  11  21  39  59  87 123 168 202 252 308 381
#
# _framework density 19.141859
#
# number of rings (size 3 to 8) (size 9 to 14) (size 15 to 20)
#    0.000    1.714    3.810    0.571    0.000    4.571 
#   10.286    1.905    0.000    5.143    0.000    0.000 
#    0.000    0.000    0.000    0.000    0.000    0.000 
#
# Total GULP energy -116935.055623 kJ/mol
# GULP energy per Si atom -5568.335982 kJ/mol
# Density = 1.909829 g / cm^3
# Si number density = 19.141859 Si / 1000 Ang^3
#
#
#
# Elastic Constant Matrix: (Units=GPa)
#
#
# Indices 1 2 3 4 5 6 
#
# 1 172.0891 28.5624 43.3726 0.0000 0.0000 0.0000
# 2 28.5624 83.0832 25.0997 0.0000 0.0000 0.0000
# 3 43.3726 25.0997 86.2131 0.0000 0.0000 0.0000
# 4 0.0000 0.0000 0.0000 -70.9484 0.0000 0.0000
# 5 0.0000 0.0000 0.0000 0.0000 3.7131 0.0000
# 6 0.0000 0.0000 0.0000 0.0000 0.0000 22.2757
#
#
#
# Elastic Compliance Matrix: (Units=1/GPa)
#
#
# Indices 1 2 3 4 5 6 
#
# 1 0.006807 -0.001431 -0.003008 0.000000 0.000000 0.000000
# 2 -0.001431 0.013498 -0.003210 0.000000 0.000000 0.000000
# 3 -0.003008 -0.003210 0.014047 0.000000 0.000000 0.000000
# 4 0.000000 0.000000 0.000000 -0.014095 0.000000 0.000000
# 5 0.000000 0.000000 0.000000 0.000000 0.269318 0.000000
# 6 0.000000 0.000000 0.000000 0.000000 0.000000 0.044892
#
#
# Mechanical properties :
#
#
# Convention : Reuss Voigt Hill
#
# Bulk Modulus (GPa) = 52.48247 59.49500 55.98874
# Shear Modulus (GPa) = 14.04042 7.29811 10.66926
#
# Velocity S-wave (km/s) = 2.71125 1.95472 2.36345
# Velocity P-wave (km/s) = 6.10560 6.02023 6.06306
#
# Compressibility (1/GPa) = 0.01905398
#
# Stress axis : x y z
#
# Youngs Moduli (GPa) = 146.91789 74.08595 71.19138
#
# Poissons Ratio (x) = 0.10604 0.21411
# Poissons Ratio (y) = 0.21029 0.22850
# Poissons Ratio (z) = 0.44186 0.23779
#
# Static dielectric constant tensor:
#      x y z
#    x 1.688380 0.000000 0.000000 
#    y 0.000000 1.745890 0.000000 
#    z 0.000000 0.000000 1.755280 
# 
# From -- ./inp_files/22750.got.cif
#   From: 2010.05.17/outbox.cif.g08.bks.cpg/sg22_12_cif.got.tgz:22750.got - 2010.06.03 23:40:54.
