data_PCOD9327620
_publ_section_title
;
Structure prediction by ZEFSAII (Michael W. Deem and Ramdas Pophale) SiO2 
 PCOD9327620
Probable space group: F 2 2 2
;
_chemical_formula_sum "Si O2"
_cell_formula_units_Z 92
_cell_length_a 16.913768
_cell_length_b 19.864372
_cell_length_c 11.987434
_cell_angle_alpha 90.000000
_cell_angle_beta 90.000000
_cell_angle_gamma 90.000000
_cell_volume 4027.554612
_symmetry_space_group_name_H-M "F 2 2 2"
_symmetry_group_IT_number 22
_symmetry_cell_setting 'orthorhombic'
loop_
_space_group_symop_operation_xyz
x,y,z
-x,-y,z
x,-y,-z
-x,y,-z
x,1/2+y,1/2+z
-x,1/2-y,1/2+z
x,1/2-y,1/2-z
-x,1/2+y,1/2-z
1/2+x,y,1/2+z
1/2-x,-y,1/2+z
1/2+x,-y,1/2-z
1/2-x,y,1/2-z
1/2+x,1/2+y,z
1/2-x,1/2-y,z
1/2+x,1/2-y,-z
1/2-x,1/2+y,-z
loop_
_atom_site_type_symbol
_atom_site_label
_atom_site_fract_x
_atom_site_fract_y
_atom_site_fract_z
Si Si1 0.571324 0.548784 0.843395
Si Si2 0.189063 0.970625 0.336689
Si Si3 0.195056 0.500000 0.500000
Si Si4 0.496194 0.172635 0.788538
Si Si5 0.750000 0.250000 0.250000
Si Si6 0.350101 0.666910 0.432285
Si Si7 0.674072 0.821577 0.187191
O O1 0.500000 0.500000 0.875376
O O2 0.614542 0.512117 0.738306
O O3 0.635683 0.552774 0.942642
O O4 0.545111 0.621528 0.799021
O O5 0.250000 0.937355 0.250000
O O6 0.245384 0.022075 0.401714
O O7 0.165037 0.912605 0.421034
O O8 0.496862 0.250000 0.750000
O O9 0.442341 0.173470 0.899640
O O10 0.586371 0.147388 0.800412
O O11 0.695853 0.294076 0.333521
O O12 0.320464 0.688832 0.553895
O O13 0.668069 0.750000 0.250000
O O14 0.750000 0.853715 0.250000
#
# Coordination Sequence:
#
# PCOD9327620 Si02
#       7
#    16  16   8  16   4  16  16
#     4  10  22  41  65  97 138 175 232 296 353 434
#     4   9  20  39  61  92 126 168 226 282 340 420
#     4  10  21  40  67  94 132 178 224 282 353 422
#     4  10  22  43  69  96 135 186 242 302 361 438
#     4  12  20  32  66 100 134 176 240 302 358 432
#     4  11  21  37  64  96 134 177 237 291 358 432
#     4  10  22  41  59  92 139 182 231 294 365 445
#
# _framework density 22.842645000000001
#
# number of rings (size 3 to 8) (size 9 to 14) (size 15 to 20)
#    0.000    1.913    1.739    1.826    0.000    2.783 
#    0.000   10.870    0.000    0.000    0.000    0.000 
#    0.000    0.000    0.000    0.000    0.000    0.000 
#
# Total GULP energy -128147.909697 kJ/mol
# GULP energy per Si atom -5571.648248 kJ/mol
# Density = 2.279065 g / cm^3
# Si number density = 22.842645 Si / 1000 Ang^3
#
#
#
# Elastic Constant Matrix: (Units=GPa)
#
#
# Indices 1 2 3 4 5 6 
#
# 1 180.0813 35.0849 81.0503 0.0000 0.0000 0.0000
# 2 35.0849 79.2034 44.8899 0.0000 0.0000 0.0000
# 3 81.0503 44.8899 163.4531 0.0000 0.0000 0.0000
# 4 0.0000 0.0000 0.0000 32.8508 0.0000 0.0000
# 5 0.0000 0.0000 0.0000 0.0000 46.1942 0.0000
# 6 0.0000 0.0000 0.0000 0.0000 0.0000 7.6630
#
#
#
# Elastic Compliance Matrix: (Units=1/GPa)
#
#
# Indices 1 2 3 4 5 6 
#
# 1 0.007276 -0.001395 -0.003225 0.000000 0.000000 0.000000
# 2 -0.001395 0.015221 -0.003488 0.000000 0.000000 0.000000
# 3 -0.003225 -0.003488 0.008675 0.000000 0.000000 0.000000
# 4 0.000000 0.000000 0.000000 0.030441 0.000000 0.000000
# 5 0.000000 0.000000 0.000000 0.000000 0.021648 0.000000
# 6 0.000000 0.000000 0.000000 0.000000 0.000000 0.130497
#
#
# Mechanical properties :
#
#
# Convention : Reuss Voigt Hill
#
# Bulk Modulus (GPa) = 66.86640 82.75424 74.81032
# Shear Modulus (GPa) = 21.28023 34.78912 28.03468
#
# Velocity S-wave (km/s) = 3.05553 3.90678 3.50708
# Velocity P-wave (km/s) = 6.46409 7.52710 7.01576
#
# Compressibility (1/GPa) = 0.01495520
#
# Stress axis : x y z
#
# Youngs Moduli (GPa) = 137.43166 65.69923 115.27366
#
# Poissons Ratio (x) = 0.09168 0.37174
# Poissons Ratio (y) = 0.19179 0.40210
# Poissons Ratio (z) = 0.44319 0.22917
#
# Static dielectric constant tensor:
#      x y z
#    x 1.938200 0.000000 0.000000 
#    y 0.000000 1.840720 0.000000 
#    z 0.000000 0.000000 1.887720 
# 
# From -- ./inp_files/21437.got.cif
#   From: 2010.05.17/outbox.cif.g08.bks.cpg/sg22_11_cif.got.tgz:21437.got - 2010.06.03 23:40:54.
