data_PCOD9327950
_publ_section_title
;
Structure prediction by ZEFSAII (Michael W. Deem and Ramdas Pophale) SiO2 
 PCOD9327950
Probable space group: F 2 2 2
;
_chemical_formula_sum "Si O2"
_cell_formula_units_Z 64
_cell_length_a 10.953891
_cell_length_b 8.097886
_cell_length_c 32.333672
_cell_angle_alpha 90.000000
_cell_angle_beta 90.000000
_cell_angle_gamma 90.000000
_cell_volume 2868.105366
_symmetry_space_group_name_H-M "F 2 2 2"
_symmetry_group_IT_number 22
_symmetry_cell_setting 'orthorhombic'
loop_
_space_group_symop_operation_xyz
x,y,z
-x,-y,z
x,-y,-z
-x,y,-z
x,1/2+y,1/2+z
-x,1/2-y,1/2+z
x,1/2-y,1/2-z
-x,1/2+y,1/2-z
1/2+x,y,1/2+z
1/2-x,-y,1/2+z
1/2+x,-y,1/2-z
1/2-x,y,1/2-z
1/2+x,1/2+y,z
1/2-x,1/2-y,z
1/2+x,1/2-y,-z
1/2-x,1/2+y,-z
loop_
_atom_site_type_symbol
_atom_site_label
_atom_site_fract_x
_atom_site_fract_y
_atom_site_fract_z
Si Si1 0.364327 0.074357 0.772374
Si Si2 0.250000 0.750000 0.506317
Si Si3 0.099347 0.856811 0.363807
Si Si4 0.000000 0.500000 0.616198
Si Si5 0.772015 0.027915 0.063206
O O1 0.374020 0.250000 0.750000
O O2 0.250000 0.984994 0.750000
O O3 0.334799 0.101843 0.820596
O O4 0.500000 0.000000 0.769416
O O5 0.299884 0.610916 0.537065
O O6 0.327691 0.851352 0.472351
O O7 0.043367 0.670876 0.361841
O O8 0.184260 0.887485 0.403455
O O9 0.000000 0.000000 0.367338
O O10 0.884279 0.451951 0.588121
#
# Coordination Sequence:
#
# PCOD9327950 Si02
#       5
#    16   8  16   8  16
#     4  10  25  44  72 106 144 183 234 291 359 428
#     4  10  22  40  66  92 140 176 238 294 342 408
#     4  11  25  46  68 101 139 185 231 282 352 424
#     4  12  24  41  74  96 138 184 232 284 352 419
#     4  11  23  44  63 101 134 185 234 289 350 411
#
# _framework density 22.314381999999998
#
# number of rings (size 3 to 8) (size 9 to 14) (size 15 to 20)
#    0.000    1.250    2.500    1.500    8.750    2.500 
#    4.500    6.250    0.000    0.000    0.000    0.000 
#    0.000    0.000    0.000    0.000    0.000    0.000 
#
# Total GULP energy -89081.329164 kJ/mol
# GULP energy per Si atom -5567.583073 kJ/mol
# Density = 2.226359 g / cm^3
# Si number density = 22.314382 Si / 1000 Ang^3
#
#
#
# Elastic Constant Matrix: (Units=GPa)
#
#
# Indices 1 2 3 4 5 6 
#
# 1 101.2222 42.5118 47.7636 0.0000 0.0000 0.0000
# 2 42.5118 102.6209 64.0031 0.0000 0.0000 0.0000
# 3 47.7636 64.0031 171.3705 0.0000 0.0000 0.0000
# 4 0.0000 0.0000 0.0000 13.0908 0.0000 0.0000
# 5 0.0000 0.0000 0.0000 0.0000 -26.6474 0.0000
# 6 0.0000 0.0000 0.0000 0.0000 0.0000 39.8980
#
#
#
# Elastic Compliance Matrix: (Units=1/GPa)
#
#
# Indices 1 2 3 4 5 6 
#
# 1 0.012473 -0.003909 -0.002016 0.000000 0.000000 0.000000
# 2 -0.003909 0.013929 -0.004113 0.000000 0.000000 0.000000
# 3 -0.002016 -0.004113 0.007933 0.000000 0.000000 0.000000
# 4 0.000000 0.000000 0.000000 0.076389 0.000000 0.000000
# 5 0.000000 0.000000 0.000000 0.000000 -0.037527 0.000000
# 6 0.000000 0.000000 0.000000 0.000000 0.000000 0.025064
#
#
# Mechanical properties :
#
#
# Convention : Reuss Voigt Hill
#
# Bulk Modulus (GPa) = 70.13398 75.97450 73.05424
# Shear Modulus (GPa) = 40.62063 19.99730 30.30897
#
# Velocity S-wave (km/s) = 4.27122 2.99684 3.68947
# Velocity P-wave (km/s) = 7.47145 6.78940 7.13858
#
# Compressibility (1/GPa) = 0.01425842
#
# Stress axis : x y z
#
# Youngs Moduli (GPa) = 80.17619 71.79231 126.05227
#
# Poissons Ratio (x) = 0.28066 0.25415
# Poissons Ratio (y) = 0.31344 0.51840
# Poissons Ratio (z) = 0.16165 0.29525
#
# Static dielectric constant tensor:
#      x y z
#    x 1.958690 0.000000 0.000000 
#    y 0.000000 2.041540 0.000000 
#    z 0.000000 0.000000 1.825150 
# 
# From -- ./inp_files/55818.got.cif
#   From: 2010.05.17/outbox.cif.g08.bks.cpg/sg22_28_cif.got.tgz:55818.got - 2010.06.03 23:40:54.
