data_PCOD9327193
_publ_section_title
;
Structure prediction by ZEFSAII (Michael W. Deem and Ramdas Pophale) SiO2 
 PCOD9327193
Probable space group: F 2 2 2
;
_chemical_formula_sum "Si O2"
_cell_formula_units_Z 88
_cell_length_a 18.897192
_cell_length_b 7.674094
_cell_length_c 29.075093
_cell_angle_alpha 90.000000
_cell_angle_beta 90.000000
_cell_angle_gamma 90.000000
_cell_volume 4216.435903
_symmetry_space_group_name_H-M "F 2 2 2"
_symmetry_group_IT_number 22
_symmetry_cell_setting 'orthorhombic'
loop_
_space_group_symop_operation_xyz
x,y,z
-x,-y,z
x,-y,-z
-x,y,-z
x,1/2+y,1/2+z
-x,1/2-y,1/2+z
x,1/2-y,1/2-z
-x,1/2+y,1/2-z
1/2+x,y,1/2+z
1/2-x,-y,1/2+z
1/2+x,-y,1/2-z
1/2-x,y,1/2-z
1/2+x,1/2+y,z
1/2-x,1/2-y,z
1/2+x,1/2-y,-z
1/2-x,1/2+y,-z
loop_
_atom_site_type_symbol
_atom_site_label
_atom_site_fract_x
_atom_site_fract_y
_atom_site_fract_z
Si Si1 0.329194 0.701393 0.108597
Si Si2 0.910170 0.689058 0.976155
Si Si3 0.448783 0.682968 0.179828
Si Si4 0.500000 0.000000 0.756942
Si Si5 0.526748 0.196565 0.904926
Si Si6 0.830667 0.180261 0.937281
O O1 0.250000 0.750000 0.118594
O O2 0.360312 0.824161 0.068607
O O3 0.375487 0.717044 0.154398
O O4 0.332862 0.509450 0.085841
O O5 0.984229 0.748239 0.952026
O O6 0.918353 0.500000 0.000000
O O7 0.866544 0.806579 0.012130
O O8 0.483155 0.840005 0.209607
O O9 0.440060 0.525962 0.216888
O O10 0.500751 0.680098 0.135814
O O11 0.610629 0.210137 0.909044
O O12 0.500000 0.000000 0.896025
O O13 0.750000 0.250000 0.938411
#
# Coordination Sequence:
#
# PCOD9327193 Si02
#       6
#    16  16  16   8  16  16
#     4  11  25  43  62  95 143 182 225 284 347 414
#     4  11  22  40  64  91 134 187 240 288 336 396
#     4  10  22  40  69  95 129 165 220 270 348 403
#     4  10  20  40  66  98 120 158 208 280 328 424
#     4  11  22  40  68  95 128 179 229 285 339 407
#     4  12  25  39  64  95 136 188 240 284 339 400
#
# _framework density 20.870705999999998
#
# number of rings (size 3 to 8) (size 9 to 14) (size 15 to 20)
#    0.000    1.091    2.727    3.818    2.545    2.182 
#    0.000    5.455    0.000    2.182    0.000    3.818 
#    0.000    0.000    0.000    0.000    0.000    0.000 
#
# Total GULP energy -122554.420763 kJ/mol
# GULP energy per Si atom -5570.655489 kJ/mol
# Density = 2.082320 g / cm^3
# Si number density = 20.870706 Si / 1000 Ang^3
#
#
#
# Elastic Constant Matrix: (Units=GPa)
#
#
# Indices 1 2 3 4 5 6 
#
# 1 179.6940 55.8598 60.1923 0.0000 0.0000 -0.0001
# 2 55.8598 120.5144 63.3395 -0.0001 0.0000 -0.0002
# 3 60.1923 63.3395 154.0367 0.0000 0.0000 0.0000
# 4 0.0000 -0.0001 0.0000 27.9016 0.0000 0.0000
# 5 0.0000 0.0000 0.0000 0.0000 13.0521 0.0000
# 6 -0.0001 -0.0002 0.0000 0.0000 0.0000 19.9365
#
#
#
# Elastic Compliance Matrix: (Units=1/GPa)
#
#
# Indices 1 2 3 4 5 6 
#
# 1 0.006853 -0.002257 -0.001750 0.000000 0.000000 0.000000
# 2 -0.002257 0.011329 -0.003776 0.000000 0.000000 0.000000
# 3 -0.001750 -0.003776 0.008729 0.000000 0.000000 0.000000
# 4 0.000000 0.000000 0.000000 0.035840 0.000000 0.000000
# 5 0.000000 0.000000 0.000000 0.000000 0.076616 0.000000
# 6 0.000000 0.000000 0.000000 0.000000 0.000000 0.050159
#
#
# Mechanical properties :
#
#
# Convention : Reuss Voigt Hill
#
# Bulk Modulus (GPa) = 88.15274 90.33649 89.24462
# Shear Modulus (GPa) = 23.93805 30.50160 27.21983
#
# Velocity S-wave (km/s) = 3.39037 3.82705 3.61531
# Velocity P-wave (km/s) = 7.59311 7.93134 7.76407
#
# Compressibility (1/GPa) = 0.01134395
#
# Stress axis : x y z
#
# Youngs Moduli (GPa) = 145.92870 88.27264 114.56550
#
# Poissons Ratio (x) = 0.19920 0.20048
# Poissons Ratio (y) = 0.32930 0.43265
# Poissons Ratio (z) = 0.25536 0.33336
#
# Static dielectric constant tensor:
#      x y z
#    x 1.768930 0.000000 0.000000 
#    y 0.000000 1.917370 0.000000 
#    z 0.000000 0.000000 1.787310 
# 
# From -- ./inp_files/56754.got.cif
#   From: 2010.05.17/outbox.cif.g08.bks.cpg/sg22_29_cif.got.tgz:56754.got - 2010.06.03 23:40:54.
