data_PCOD9327566
_publ_section_title
;
Structure prediction by ZEFSAII (Michael W. Deem and Ramdas Pophale) SiO2 
 PCOD9327566
Probable space group: F 2 2 2
;
_chemical_formula_sum "Si O2"
_cell_formula_units_Z 72
_cell_length_a 15.575617
_cell_length_b 16.730304
_cell_length_c 14.063873
_cell_angle_alpha 90.000000
_cell_angle_beta 90.000000
_cell_angle_gamma 90.000000
_cell_volume 3664.831637
_symmetry_space_group_name_H-M "F 2 2 2"
_symmetry_group_IT_number 22
_symmetry_cell_setting 'orthorhombic'
loop_
_space_group_symop_operation_xyz
x,y,z
-x,-y,z
x,-y,-z
-x,y,-z
x,1/2+y,1/2+z
-x,1/2-y,1/2+z
x,1/2-y,1/2-z
-x,1/2+y,1/2-z
1/2+x,y,1/2+z
1/2-x,-y,1/2+z
1/2+x,-y,1/2-z
1/2-x,y,1/2-z
1/2+x,1/2+y,z
1/2-x,1/2-y,z
1/2+x,1/2-y,-z
1/2-x,1/2+y,-z
loop_
_atom_site_type_symbol
_atom_site_label
_atom_site_fract_x
_atom_site_fract_y
_atom_site_fract_z
Si Si1 0.832457 0.000000 0.000000
Si Si2 0.450030 0.120391 0.401538
Si Si3 0.528932 0.090773 0.206141
Si Si4 0.421565 0.204727 0.075388
Si Si5 0.168100 0.082004 0.550094
O O1 0.768491 0.061650 0.053320
O O2 0.886084 0.953226 0.080028
O O3 0.500000 0.122815 0.500000
O O4 0.518282 0.108875 0.317355
O O5 0.402586 0.205601 0.391260
O O6 0.460137 0.150116 0.158220
O O7 0.618292 0.098412 0.148444
O O8 0.500000 0.000000 0.191663
O O9 0.500000 0.209234 0.000000
O O10 0.348688 0.155650 0.020595
O O11 0.131125 0.000000 0.500000
#
# Coordination Sequence:
#
# PCOD9327566 Si02
#       5
#     8  16  16  16  16
#     4  10  21  40  59  86 134 164 202 248 329 372
#     4  11  23  38  55  88 130 169 198 253 323 383
#     4  11  18  34  63  87 114 156 212 257 297 368
#     4   9  19  35  61  90 119 155 214 264 307 368
#     4   9  19  37  61  91 112 155 212 260 305 358
#
# _framework density 19.646196
#
# number of rings (size 3 to 8) (size 9 to 14) (size 15 to 20)
#    0.667    1.333    2.222    2.333    0.000    0.889 
#    0.000   10.000    0.000    5.333    0.000   18.667 
#    0.000    0.000    0.000    0.000    0.000    0.000 
#
# Total GULP energy -100245.658440 kJ/mol
# GULP energy per Si atom -5569.203247 kJ/mol
# Density = 1.960148 g / cm^3
# Si number density = 19.646196 Si / 1000 Ang^3
#
#
#
# Elastic Constant Matrix: (Units=GPa)
#
#
# Indices 1 2 3 4 5 6 
#
# 1 47.5999 28.3345 32.9471 0.0000 0.0000 0.0000
# 2 28.3345 119.1405 24.9446 0.0000 0.0000 0.0000
# 3 32.9471 24.9446 128.3304 0.0000 0.0000 0.0000
# 4 0.0000 0.0000 0.0000 17.2274 0.0000 0.0000
# 5 0.0000 0.0000 0.0000 0.0000 15.4449 0.0000
# 6 0.0000 0.0000 0.0000 0.0000 0.0000 22.5631
#
#
#
# Elastic Compliance Matrix: (Units=1/GPa)
#
#
# Indices 1 2 3 4 5 6 
#
# 1 0.028626 -0.005493 -0.006282 0.000000 0.000000 0.000000
# 2 -0.005493 0.009803 -0.000495 0.000000 0.000000 0.000000
# 3 -0.006282 -0.000495 0.009501 0.000000 0.000000 0.000000
# 4 0.000000 0.000000 0.000000 0.058047 0.000000 0.000000
# 5 0.000000 0.000000 0.000000 0.000000 0.064746 0.000000
# 6 0.000000 0.000000 0.000000 0.000000 0.000000 0.044320
#
#
# Mechanical properties :
#
#
# Convention : Reuss Voigt Hill
#
# Bulk Modulus (GPa) = 42.75096 51.94702 47.34899
# Shear Modulus (GPa) = 20.21170 24.97005 22.59088
#
# Velocity S-wave (km/s) = 3.21095 3.56896 3.39467
# Velocity P-wave (km/s) = 5.96277 6.59408 6.28635
#
# Compressibility (1/GPa) = 0.02339129
#
# Stress axis : x y z
#
# Youngs Moduli (GPa) = 34.93319 102.00452 105.24743
#
# Poissons Ratio (x) = 0.56029 0.66113
# Poissons Ratio (y) = 0.19188 0.05214
# Poissons Ratio (z) = 0.21944 0.05053
#
# Static dielectric constant tensor:
#      x y z
#    x 1.689390 0.000000 0.000000 
#    y 0.000000 1.753830 0.000000 
#    z 0.000000 0.000000 1.730310 
# 
# From -- ./inp_files/21073.got.cif
#   From: 2010.05.17/outbox.cif.g08.bks.cpg/sg22_11_cif.got.tgz:21073.got - 2010.06.03 23:40:54.
