data_PCOD9327847
_publ_section_title
;
Structure prediction by ZEFSAII (Michael W. Deem and Ramdas Pophale) SiO2 
 PCOD9327847
Probable space group: F 2 2 2
;
_chemical_formula_sum "Si O2"
_cell_formula_units_Z 80
_cell_length_a 11.703592
_cell_length_b 14.734201
_cell_length_c 25.707036
_cell_angle_alpha 90.000000
_cell_angle_beta 90.000000
_cell_angle_gamma 90.000000
_cell_volume 4433.000387
_symmetry_space_group_name_H-M "F 2 2 2"
_symmetry_group_IT_number 22
_symmetry_cell_setting 'orthorhombic'
loop_
_space_group_symop_operation_xyz
x,y,z
-x,-y,z
x,-y,-z
-x,y,-z
x,1/2+y,1/2+z
-x,1/2-y,1/2+z
x,1/2-y,1/2-z
-x,1/2+y,1/2-z
1/2+x,y,1/2+z
1/2-x,-y,1/2+z
1/2+x,-y,1/2-z
1/2-x,y,1/2-z
1/2+x,1/2+y,z
1/2-x,1/2-y,z
1/2+x,1/2-y,-z
1/2-x,1/2+y,-z
loop_
_atom_site_type_symbol
_atom_site_label
_atom_site_fract_x
_atom_site_fract_y
_atom_site_fract_z
Si Si1 0.716456 0.144184 0.968259
Si Si2 0.134308 0.477217 0.394687
Si Si3 0.739000 0.357960 0.688936
Si Si4 0.532791 0.396390 0.618303
Si Si5 0.293307 0.147679 0.911815
O O1 0.750000 0.250000 0.966338
O O2 0.816240 0.080714 0.943851
O O3 0.608423 0.132867 0.930792
O O4 0.687754 0.120649 0.027642
O O5 0.170007 0.414412 0.345467
O O6 0.206371 0.571001 0.391273
O O7 0.000000 0.500000 0.398189
O O8 0.750000 0.375716 0.750000
O O9 0.750000 0.250000 0.679580
O O10 0.614397 0.384523 0.667531
O O11 0.500000 0.500000 0.611397
O O12 0.411577 0.348437 0.619203
O O13 0.250000 0.250000 0.911846
#
# Coordination Sequence:
#
# PCOD9327847 Si02
#       5
#    16  16  16  16  16
#     4  10  22  38  57  86 122 171 210 234 285 359
#     4  11  23  39  59  87 126 160 197 257 300 355
#     4  10  23  44  69  89 109 153 203 250 312 371
#     4  11  20  38  64  86 121 155 202 253 293 352
#     4  11  24  36  57  90 126 164 200 243 298 345
#
# _framework density 18.046468999999998
#
# number of rings (size 3 to 8) (size 9 to 14) (size 15 to 20)
#    0.000    1.400    4.000    3.600    5.600    3.200 
#    0.000    0.000    0.000    0.600    0.000    0.000 
#    0.000    0.000    0.000    0.000    0.000    0.000 
#
# Total GULP energy -111617.371841 kJ/mol
# GULP energy per Si atom -5580.868592 kJ/mol
# Density = 1.800539 g / cm^3
# Si number density = 18.046469 Si / 1000 Ang^3
#
#
#
# Elastic Constant Matrix: (Units=GPa)
#
#
# Indices 1 2 3 4 5 6 
#
# 1 140.1186 27.7687 18.5433 0.0000 0.0000 0.0000
# 2 27.7687 84.4204 16.2484 0.0000 0.0000 0.0000
# 3 18.5433 16.2484 49.3801 0.0000 0.0000 0.0000
# 4 0.0000 0.0000 0.0000 27.1092 0.0000 0.0000
# 5 0.0000 0.0000 0.0000 0.0000 10.5402 0.0000
# 6 0.0000 0.0000 0.0000 0.0000 0.0000 31.1108
#
#
#
# Elastic Compliance Matrix: (Units=1/GPa)
#
#
# Indices 1 2 3 4 5 6 
#
# 1 0.007861 -0.002154 -0.002243 0.000000 0.000000 0.000000
# 2 -0.002154 0.013237 -0.003547 0.000000 0.000000 0.000000
# 3 -0.002243 -0.003547 0.022260 0.000000 0.000000 0.000000
# 4 0.000000 0.000000 0.000000 0.036888 0.000000 0.000000
# 5 0.000000 0.000000 0.000000 0.000000 0.094875 0.000000
# 6 0.000000 0.000000 0.000000 0.000000 0.000000 0.032143
#
#
# Mechanical properties :
#
#
# Convention : Reuss Voigt Hill
#
# Bulk Modulus (GPa) = 36.40286 44.33775 40.37030
# Shear Modulus (GPa) = 21.52323 27.84261 24.68292
#
# Velocity S-wave (km/s) = 3.45723 3.93215 3.70231
# Velocity P-wave (km/s) = 6.01266 6.72590 6.37926
#
# Compressibility (1/GPa) = 0.02747037
#
# Stress axis : x y z
#
# Youngs Moduli (GPa) = 127.21818 75.54824 44.92277
#
# Poissons Ratio (x) = 0.16272 0.10077
# Poissons Ratio (y) = 0.27401 0.15932
# Poissons Ratio (z) = 0.28536 0.26794
#
# Static dielectric constant tensor:
#      x y z
#    x 1.617740 0.000000 0.000000 
#    y 0.000000 1.629820 0.000000 
#    z 0.000000 0.000000 1.612450 
# 
# From -- ./inp_files/19844.got.cif
#   From: 2010.05.17/outbox.cif.g08.bks.cpg/sg22_10_cif.got.tgz:19844.got - 2010.06.03 23:40:54.
