data_PCOD9327985
_publ_section_title
;
Structure prediction by ZEFSAII (Michael W. Deem and Ramdas Pophale) SiO2 
 PCOD9327985
Probable space group: F 2 2 2
;
_chemical_formula_sum "Si O2"
_cell_formula_units_Z 68
_cell_length_a 14.945726
_cell_length_b 23.663763
_cell_length_c 9.139722
_cell_angle_alpha 90.000000
_cell_angle_beta 90.000000
_cell_angle_gamma 90.000000
_cell_volume 3232.464837
_symmetry_space_group_name_H-M "F 2 2 2"
_symmetry_group_IT_number 22
_symmetry_cell_setting 'orthorhombic'
loop_
_space_group_symop_operation_xyz
x,y,z
-x,-y,z
x,-y,-z
-x,y,-z
x,1/2+y,1/2+z
-x,1/2-y,1/2+z
x,1/2-y,1/2-z
-x,1/2+y,1/2-z
1/2+x,y,1/2+z
1/2-x,-y,1/2+z
1/2+x,-y,1/2-z
1/2-x,y,1/2-z
1/2+x,1/2+y,z
1/2-x,1/2-y,z
1/2+x,1/2-y,-z
1/2-x,1/2+y,-z
loop_
_atom_site_type_symbol
_atom_site_label
_atom_site_fract_x
_atom_site_fract_y
_atom_site_fract_z
Si Si1 0.345850 0.871497 0.183762
Si Si2 0.009053 0.309466 0.324803
Si Si3 0.500000 0.000000 0.500000
Si Si4 0.140795 0.997152 0.746666
Si Si5 0.088145 0.388206 0.100917
O O1 0.250000 0.864447 0.250000
O O2 0.414181 0.829531 0.260295
O O3 0.376292 0.936453 0.217998
O O4 0.339215 0.863272 0.009563
O O5 0.031908 0.250000 0.250000
O O6 0.076157 0.355434 0.252759
O O7 0.000000 0.307752 0.500000
O O8 0.423536 0.021194 0.383089
O O9 0.250000 0.991346 0.750000
O O10 0.109048 0.953356 0.625233
O O11 0.000000 0.381156 0.000000
#
# Coordination Sequence:
#
# PCOD9327985 Si02
#       5
#    16  16   4  16  16
#     4  10  23  40  65  96 134 175 223 279 352 417
#     4  11  24  43  67  92 126 172 232 286 352 421
#     4  12  24  40  62  98 144 188 242 284 356 404
#     4  11  26  39  67 100 147 180 236 279 354 427
#     4  10  22  41  65  94 132 178 224 281 346 418
#
# _framework density 21.036577999999999
#
# number of rings (size 3 to 8) (size 9 to 14) (size 15 to 20)
#    0.000    1.412    0.000    5.647   13.176    3.294 
#    0.000    0.000    0.000    4.941    0.000    0.000 
#    0.000    0.000    0.000    0.000    0.000    0.000 
#
# Total GULP energy -94672.081663 kJ/mol
# GULP energy per Si atom -5568.945980 kJ/mol
# Density = 2.098870 g / cm^3
# Si number density = 21.036578 Si / 1000 Ang^3
#
#
#
# Elastic Constant Matrix: (Units=GPa)
#
#
# Indices 1 2 3 4 5 6 
#
# 1 73.1928 10.4755 28.0109 0.0000 0.0000 0.0000
# 2 10.4755 67.2773 2.5098 0.0000 0.0000 0.0000
# 3 28.0109 2.5098 138.5540 0.0000 0.0000 0.0000
# 4 0.0000 0.0000 0.0000 25.6516 0.0000 0.0000
# 5 0.0000 0.0000 0.0000 0.0000 31.9315 0.0000
# 6 0.0000 0.0000 0.0000 0.0000 0.0000 -178.4690
#
#
#
# Elastic Compliance Matrix: (Units=1/GPa)
#
#
# Indices 1 2 3 4 5 6 
#
# 1 0.015140 -0.002245 -0.003020 0.000000 0.000000 0.000000
# 2 -0.002245 0.015207 0.000178 0.000000 0.000000 0.000000
# 3 -0.003020 0.000178 0.007825 0.000000 0.000000 0.000000
# 4 0.000000 0.000000 0.000000 0.038984 0.000000 0.000000
# 5 0.000000 0.000000 0.000000 0.000000 0.031317 0.000000
# 6 0.000000 0.000000 0.000000 0.000000 0.000000 -0.005603
#
#
# Mechanical properties :
#
#
# Convention : Reuss Voigt Hill
#
# Bulk Modulus (GPa) = 35.71649 40.11292 37.91470
# Shear Modulus (GPa) = 40.85827 -8.30866 16.27481
#
# Velocity S-wave (km/s) = 4.41188 -1.98952 2.78446
# Velocity P-wave (km/s) = 6.55500 3.71914 5.32916
#
# Compressibility (1/GPa) = 0.02799828
#
# Stress axis : x y z
#
# Youngs Moduli (GPa) = 66.05204 65.76041 127.80006
#
# Poissons Ratio (x) = 0.14761 0.38596
# Poissons Ratio (y) = 0.14827 -0.02279
# Poissons Ratio (z) = 0.19948 -0.01173
#
# Static dielectric constant tensor:
#      x y z
#    x 1.815840 0.000000 0.000000 
#    y 0.000000 1.740180 0.000000 
#    z 0.000000 0.000000 2.080420 
# 
# From -- ./inp_files/11261.got.cif
#   From: 2010.05.17/outbox.cif.g08.bks.cpg/sg22_6_cif.got.tgz:11261.got - 2010.06.03 23:40:54.
