data_PCOD9327618
_publ_section_title
;
Structure prediction by ZEFSAII (Michael W. Deem and Ramdas Pophale) SiO2 
 PCOD9327618
Probable space group: F 2 2 2
;
_chemical_formula_sum "Si O2"
_cell_formula_units_Z 116
_cell_length_a 24.265541
_cell_length_b 12.591150
_cell_length_c 16.353243
_cell_angle_alpha 90.000000
_cell_angle_beta 90.000000
_cell_angle_gamma 90.000000
_cell_volume 4996.423776
_symmetry_space_group_name_H-M "F 2 2 2"
_symmetry_group_IT_number 22
_symmetry_cell_setting 'orthorhombic'
loop_
_space_group_symop_operation_xyz
x,y,z
-x,-y,z
x,-y,-z
-x,y,-z
x,1/2+y,1/2+z
-x,1/2-y,1/2+z
x,1/2-y,1/2-z
-x,1/2+y,1/2-z
1/2+x,y,1/2+z
1/2-x,-y,1/2+z
1/2+x,-y,1/2-z
1/2-x,y,1/2-z
1/2+x,1/2+y,z
1/2-x,1/2-y,z
1/2+x,1/2-y,-z
1/2-x,1/2+y,-z
loop_
_atom_site_type_symbol
_atom_site_label
_atom_site_fract_x
_atom_site_fract_y
_atom_site_fract_z
Si Si1 0.948502 0.903068 0.663729
Si Si2 0.664389 0.801876 0.017233
Si Si3 0.547271 0.382360 0.568690
Si Si4 0.346608 0.245861 0.660302
Si Si5 0.250000 0.250000 0.250000
Si Si6 0.319827 0.929256 0.580210
Si Si7 0.376082 0.979634 0.288968
Si Si8 0.705872 0.059159 0.848581
O O1 0.904116 0.809743 0.663850
O O2 0.934998 0.961116 0.748634
O O3 0.009205 0.857582 0.648054
O O4 0.936199 0.995833 0.594844
O O5 0.598963 0.813190 0.039266
O O6 0.688443 0.691872 0.052429
O O7 0.685588 0.906465 0.062449
O O8 0.679111 0.794838 0.921260
O O9 0.500000 0.373765 0.500000
O O10 0.360690 0.122079 0.655643
O O11 0.334414 0.492815 0.710256
O O12 0.287543 0.171200 0.198235
O O13 0.268235 0.975790 0.633076
O O14 0.328548 0.000000 0.500000
O O15 0.368502 0.926750 0.647019
O O16 0.318765 0.750000 0.250000
#
# Coordination Sequence:
#
# PCOD9327618 Si02
#       8
#    16  16  16  16   4  16  16  16
#     4  10  21  40  67 103 137 177 236 304 370 427
#     4  12  23  43  73 104 140 197 248 310 373 437
#     4  11  22  39  72 109 138 177 253 319 362 431
#     4  10  23  40  66  95 143 186 229 292 381 439
#     4  12  20  40  68 100 136 168 240 344 352 412
#     4  12  25  43  67 101 147 193 243 299 374 458
#     4  11  22  44  68  99 140 197 228 300 384 439
#     4  12  23  41  73 102 139 183 262 308 369 446
#
# _framework density 23.216605999999999
#
# number of rings (size 3 to 8) (size 9 to 14) (size 15 to 20)
#    0.000    0.828    6.897    0.828    0.000    2.207 
#    0.000    8.276    0.000    3.724    0.000    0.000 
#    0.000    0.000    0.000    0.000    0.000    0.000 
#
# Total GULP energy -161550.845926 kJ/mol
# GULP energy per Si atom -5570.718825 kJ/mol
# Density = 2.316376 g / cm^3
# Si number density = 23.216606 Si / 1000 Ang^3
#
#
#
# Elastic Constant Matrix: (Units=GPa)
#
#
# Indices 1 2 3 4 5 6 
#
# 1 83.5492 17.8656 26.4222 0.0000 0.0000 0.0000
# 2 17.8656 71.7596 24.3660 0.0000 0.0000 0.0000
# 3 26.4222 24.3660 138.2596 0.0000 0.0000 0.0000
# 4 0.0000 0.0000 0.0000 46.8074 0.0000 0.0000
# 5 0.0000 0.0000 0.0000 0.0000 30.7450 0.0000
# 6 0.0000 0.0000 0.0000 0.0000 0.0000 25.5068
#
#
#
# Elastic Compliance Matrix: (Units=1/GPa)
#
#
# Indices 1 2 3 4 5 6 
#
# 1 0.013173 -0.002579 -0.002063 0.000000 0.000000 0.000000
# 2 -0.002579 0.015327 -0.002208 0.000000 0.000000 0.000000
# 3 -0.002063 -0.002208 0.008016 0.000000 0.000000 0.000000
# 4 0.000000 0.000000 0.000000 0.021364 0.000000 0.000000
# 5 0.000000 0.000000 0.000000 0.000000 0.032526 0.000000
# 6 0.000000 0.000000 0.000000 0.000000 0.000000 0.039205
#
#
# Mechanical properties :
#
#
# Convention : Reuss Voigt Hill
#
# Bulk Modulus (GPa) = 43.82934 47.87512 45.85223
# Shear Modulus (GPa) = 33.13072 35.60614 34.36843
#
# Velocity S-wave (km/s) = 3.78170 3.92043 3.85169
# Velocity P-wave (km/s) = 6.16342 6.41552 6.29073
#
# Compressibility (1/GPa) = 0.02281577
#
# Stress axis : x y z
#
# Youngs Moduli (GPa) = 75.91352 65.24280 124.74771
#
# Poissons Ratio (x) = 0.16827 0.25734
# Poissons Ratio (y) = 0.19579 0.27548
# Poissons Ratio (z) = 0.15660 0.14408
#
# Static dielectric constant tensor:
#      x y z
#    x 1.961950 0.000000 0.000000 
#    y 0.000000 1.886820 0.000000 
#    z 0.000000 0.000000 1.989010 
# 
# From -- ./inp_files/40081.got.cif
#   From: 2010.05.17/outbox.cif.g08.bks.cpg/sg22_21_cif.got.tgz:40081.got - 2010.06.03 23:40:54.
