data_PCOD9327750
_publ_section_title
;
Structure prediction by ZEFSAII (Michael W. Deem and Ramdas Pophale) SiO2 
 PCOD9327750
Probable space group: F 2 2 2
;
_chemical_formula_sum "Si O2"
_cell_formula_units_Z 104
_cell_length_a 26.607551
_cell_length_b 8.995179
_cell_length_c 21.931380
_cell_angle_alpha 90.000000
_cell_angle_beta 90.000000
_cell_angle_gamma 90.000000
_cell_volume 5249.049559
_symmetry_space_group_name_H-M "F 2 2 2"
_symmetry_group_IT_number 22
_symmetry_cell_setting 'orthorhombic'
loop_
_space_group_symop_operation_xyz
x,y,z
-x,-y,z
x,-y,-z
-x,y,-z
x,1/2+y,1/2+z
-x,1/2-y,1/2+z
x,1/2-y,1/2-z
-x,1/2+y,1/2-z
1/2+x,y,1/2+z
1/2-x,-y,1/2+z
1/2+x,-y,1/2-z
1/2-x,y,1/2-z
1/2+x,1/2+y,z
1/2-x,1/2-y,z
1/2+x,1/2-y,-z
1/2-x,1/2+y,-z
loop_
_atom_site_type_symbol
_atom_site_label
_atom_site_fract_x
_atom_site_fract_y
_atom_site_fract_z
Si Si1 0.561269 0.666898 0.894329
Si Si2 0.167951 0.729357 0.346421
Si Si3 0.053281 0.323350 0.369971
Si Si4 0.801766 0.673467 0.515632
Si Si5 0.884911 0.750000 0.250000
Si Si6 0.904971 0.826025 0.485220
Si Si7 0.193599 0.493917 0.762263
O O1 0.607854 0.735817 0.857059
O O2 0.567003 0.487851 0.895626
O O3 0.506796 0.691262 0.865231
O O4 0.564940 0.737558 0.961707
O O5 0.191070 0.692000 0.411752
O O6 0.178992 0.602564 0.297139
O O7 0.190732 0.879936 0.318768
O O8 0.080847 0.301355 0.306142
O O9 0.071384 0.205664 0.419866
O O10 0.802623 0.500000 0.500000
O O11 0.750000 0.750000 0.496423
O O12 0.849065 0.757767 0.486335
O O13 0.847696 0.619345 0.229183
O O14 0.904016 0.000000 0.500000
O O15 0.250000 0.549685 0.750000
#
# Coordination Sequence:
#
# PCOD9327750 Si02
#       7
#    16  16  16  16   8  16  16
#     4  10  22  44  71  93 133 177 217 274 346 399
#     4  10  21  43  68  95 127 173 225 270 333 411
#     4  11  24  45  64  99 133 181 222 271 342 405
#     4  11  23  41  66 100 136 180 221 280 342 393
#     4  12  27  42  64 100 140 166 227 284 328 400
#     4  11  24  42  68 100 133 173 228 277 328 402
#     4  11  23  43  67  94 128 178 222 273 330 400
#
# _framework density 19.813112
#
# number of rings (size 3 to 8) (size 9 to 14) (size 15 to 20)
#    0.000    1.231    1.538    5.308    4.308    3.692 
#    2.769    0.000    0.000    0.000    0.000    0.000 
#    0.000    0.000    0.000    0.000    0.000    0.000 
#
# Total GULP energy -145397.852438 kJ/mol
# GULP energy per Si atom -5592.225094 kJ/mol
# Density = 1.976802 g / cm^3
# Si number density = 19.813112 Si / 1000 Ang^3
#
#
#
# Elastic Constant Matrix: (Units=GPa)
#
#
# Indices 1 2 3 4 5 6 
#
# 1 119.7726 41.8502 31.1967 0.0000 0.0000 0.0000
# 2 41.8502 116.5253 23.1725 0.0000 0.0000 0.0000
# 3 31.1967 23.1725 66.3753 0.0000 0.0000 0.0000
# 4 0.0000 0.0000 0.0000 14.0460 0.0000 0.0000
# 5 0.0000 0.0000 0.0000 0.0000 12.1344 0.0000
# 6 0.0000 0.0000 0.0000 0.0000 0.0000 25.0966
#
#
#
# Elastic Compliance Matrix: (Units=1/GPa)
#
#
# Indices 1 2 3 4 5 6 
#
# 1 0.010387 -0.002966 -0.003847 0.000000 0.000000 0.000000
# 2 -0.002966 0.010069 -0.002121 0.000000 0.000000 0.000000
# 3 -0.003847 -0.002121 0.017614 0.000000 0.000000 0.000000
# 4 0.000000 0.000000 0.000000 0.071195 0.000000 0.000000
# 5 0.000000 0.000000 0.000000 0.000000 0.082411 0.000000
# 6 0.000000 0.000000 0.000000 0.000000 0.000000 0.039846
#
#
# Mechanical properties :
#
#
# Convention : Reuss Voigt Hill
#
# Bulk Modulus (GPa) = 49.49721 55.01247 52.25484
# Shear Modulus (GPa) = 19.52183 24.01898 21.77040
#
# Velocity S-wave (km/s) = 3.14235 3.48555 3.31839
# Velocity P-wave (km/s) = 6.18079 6.63511 6.41198
#
# Compressibility (1/GPa) = 0.02020316
#
# Stress axis : x y z
#
# Youngs Moduli (GPa) = 96.27103 99.31685 56.77174
#
# Poissons Ratio (x) = 0.29454 0.21839
# Poissons Ratio (y) = 0.28551 0.12043
# Poissons Ratio (z) = 0.37033 0.21068
#
# Static dielectric constant tensor:
#      x y z
#    x 1.704780 0.000000 0.000000 
#    y 0.000000 1.685180 0.000000 
#    z 0.000000 0.000000 1.661300 
# 
# From -- ./inp_files/45767.got.cif
#   From: 2010.05.17/outbox.cif.g08.bks.cpg/sg22_23_cif.got.tgz:45767.got - 2010.06.03 23:40:54.
