data_PCOD9327113
_publ_section_title
;
Structure prediction by ZEFSAII (Michael W. Deem and Ramdas Pophale) SiO2 
 PCOD9327113
Probable space group: F 2 2 2
;
_chemical_formula_sum "Si O2"
_cell_formula_units_Z 72
_cell_length_a 12.687681
_cell_length_b 8.814886
_cell_length_c 34.621748
_cell_angle_alpha 90.000000
_cell_angle_beta 90.000000
_cell_angle_gamma 90.000000
_cell_volume 3872.112278
_symmetry_space_group_name_H-M "F 2 2 2"
_symmetry_group_IT_number 22
_symmetry_cell_setting 'orthorhombic'
loop_
_space_group_symop_operation_xyz
x,y,z
-x,-y,z
x,-y,-z
-x,y,-z
x,1/2+y,1/2+z
-x,1/2-y,1/2+z
x,1/2-y,1/2-z
-x,1/2+y,1/2-z
1/2+x,y,1/2+z
1/2-x,-y,1/2+z
1/2+x,-y,1/2-z
1/2-x,y,1/2-z
1/2+x,1/2+y,z
1/2-x,1/2-y,z
1/2+x,1/2-y,-z
1/2-x,1/2+y,-z
loop_
_atom_site_type_symbol
_atom_site_label
_atom_site_fract_x
_atom_site_fract_y
_atom_site_fract_z
Si Si1 0.626708 0.009637 0.140824
Si Si2 0.374706 0.494846 0.045797
Si Si3 0.645779 0.033522 0.771933
Si Si4 0.976819 0.250000 0.250000
Si Si5 0.750000 0.250000 0.905057
Si Si6 0.750000 0.250000 0.091061
O O1 0.662987 0.027954 0.185226
O O2 0.680774 0.861640 0.121750
O O3 0.500000 0.000000 0.139105
O O4 0.671414 0.151069 0.117054
O O5 0.500000 0.500000 0.051782
O O6 0.324882 0.350051 0.067355
O O7 0.318677 0.638274 0.065045
O O8 0.354233 0.500000 0.000000
O O9 0.750000 0.082686 0.750000
O O10 0.562089 0.170812 0.778442
O O11 0.597147 0.897238 0.745264
#
# Coordination Sequence:
#
# PCOD9327113 Si02
#       6
#    16  16  16   8   8   8
#     4  11  23  40  59  83 121 153 190 241 290 343
#     4  10  20  39  63  88 118 152 190 232 278 341
#     4  11  24  38  61  82 112 152 199 241 290 336
#     4  10  22  42  56  84 112 142 202 242 282 344
#     4  10  23  38  59  90 118 152 190 232 289 342
#     4  10  23  38  59  90 118 152 190 232 289 342
#
# _framework density 18.594503
#
# number of rings (size 3 to 8) (size 9 to 14) (size 15 to 20)
#    0.000    1.556    2.222    2.667    6.222    0.000 
#    0.000    0.000    0.000   10.667    0.000    0.000 
#    0.000    0.000    0.000    0.000    0.000    0.000 
#
# Total GULP energy -100293.490250 kJ/mol
# GULP energy per Si atom -5571.860569 kJ/mol
# Density = 1.855218 g / cm^3
# Si number density = 18.594503 Si / 1000 Ang^3
#
#
#
# Elastic Constant Matrix: (Units=GPa)
#
#
# Indices 1 2 3 4 5 6 
#
# 1 137.0204 58.7599 71.8483 0.0000 0.0000 0.0000
# 2 58.7599 123.6661 58.6510 0.0000 0.0000 0.0000
# 3 71.8483 58.6510 108.8857 0.0000 0.0000 0.0000
# 4 0.0000 0.0000 0.0000 11.6328 0.0000 0.0000
# 5 0.0000 0.0000 0.0000 0.0000 16.7713 0.0000
# 6 0.0000 0.0000 0.0000 0.0000 0.0000 15.0358
#
#
#
# Elastic Compliance Matrix: (Units=1/GPa)
#
#
# Indices 1 2 3 4 5 6 
#
# 1 0.011731 -0.002556 -0.006364 0.000000 0.000000 0.000000
# 2 -0.002556 0.011418 -0.004464 0.000000 0.000000 0.000000
# 3 -0.006364 -0.004464 0.015788 0.000000 0.000000 0.000000
# 4 0.000000 0.000000 0.000000 0.085964 0.000000 0.000000
# 5 0.000000 0.000000 0.000000 0.000000 0.059626 0.000000
# 6 0.000000 0.000000 0.000000 0.000000 0.000000 0.066508
#
#
# Mechanical properties :
#
#
# Convention : Reuss Voigt Hill
#
# Bulk Modulus (GPa) = 82.17373 83.12116 82.64745
# Shear Modulus (GPa) = 17.73939 20.70884 19.22412
#
# Velocity S-wave (km/s) = 3.09206 3.34085 3.21886
# Velocity P-wave (km/s) = 7.55223 7.72533 7.63927
#
# Compressibility (1/GPa) = 0.01216934
#
# Stress axis : x y z
#
# Youngs Moduli (GPa) = 85.24129 87.58385 63.34019
#
# Poissons Ratio (x) = 0.22384 0.40312
# Poissons Ratio (y) = 0.21786 0.28273
# Poissons Ratio (z) = 0.54250 0.39094
#
# Static dielectric constant tensor:
#      x y z
#    x 1.650820 0.000000 0.000000 
#    y 0.000000 1.657540 0.000000 
#    z 0.000000 0.000000 1.603780 
# 
# From -- ./inp_files/56348.got.cif
#   From: 2010.05.17/outbox.cif.g08.bks.cpg/sg22_29_cif.got.tgz:56348.got - 2010.06.03 23:40:54.
