data_PCOD9327803
_publ_section_title
;
Structure prediction by ZEFSAII (Michael W. Deem and Ramdas Pophale) SiO2 
 PCOD9327803
Probable space group: F 2 2 2
;
_chemical_formula_sum "Si O2"
_cell_formula_units_Z 116
_cell_length_a 16.716648
_cell_length_b 33.181797
_cell_length_c 10.664437
_cell_angle_alpha 90.000000
_cell_angle_beta 90.000000
_cell_angle_gamma 90.000000
_cell_volume 5915.439715
_symmetry_space_group_name_H-M "F 2 2 2"
_symmetry_group_IT_number 22
_symmetry_cell_setting 'orthorhombic'
loop_
_space_group_symop_operation_xyz
x,y,z
-x,-y,z
x,-y,-z
-x,y,-z
x,1/2+y,1/2+z
-x,1/2-y,1/2+z
x,1/2-y,1/2-z
-x,1/2+y,1/2-z
1/2+x,y,1/2+z
1/2-x,-y,1/2+z
1/2+x,-y,1/2-z
1/2-x,y,1/2-z
1/2+x,1/2+y,z
1/2-x,1/2-y,z
1/2+x,1/2-y,-z
1/2-x,1/2+y,-z
loop_
_atom_site_type_symbol
_atom_site_label
_atom_site_fract_x
_atom_site_fract_y
_atom_site_fract_z
Si Si1 0.123268 0.613803 0.429864
Si Si2 0.866794 0.221110 0.483156
Si Si3 0.709025 0.802846 0.614549
Si Si4 0.463782 0.623969 0.805245
Si Si5 0.793967 0.043315 0.937626
Si Si6 0.119240 0.554168 0.825037
Si Si7 0.000000 0.500000 0.000000
Si Si8 0.008170 0.291295 0.188232
O O1 0.166980 0.654214 0.385076
O O2 0.085703 0.622893 0.566296
O O3 0.177724 0.575542 0.458831
O O4 0.050273 0.605060 0.336285
O O5 0.783126 0.198230 0.481647
O O6 0.847274 0.265860 0.429448
O O7 0.912007 0.221206 0.613946
O O8 0.932009 0.198513 0.397832
O O9 0.750000 0.795166 0.750000
O O10 0.420526 0.597908 0.698533
O O11 0.474892 0.670463 0.771912
O O12 0.855521 0.041194 0.818376
O O13 0.705554 0.055631 0.891429
O O14 0.789730 0.000000 0.000000
O O15 0.058254 0.526584 0.907343
O O16 0.982158 0.250000 0.250000
#
# Coordination Sequence:
#
# PCOD9327803 Si02
#       8
#    16  16  16  16  16  16   4  16
#     4  10  22  40  65  92 122 163 212 263 319 385
#     4  10  22  35  57  84 119 164 206 256 309 372
#     4  11  21  39  58  87 124 160 209 264 317 371
#     4  10  22  41  62  95 126 162 213 265 318 384
#     4  10  22  46  69  94 126 174 220 260 324 414
#     4  10  24  43  67  94 134 172 207 275 333 383
#     4  12  24  44  66 100 132 170 212 278 344 388
#     4  11  21  37  60  85 119 166 208 254 311 374
#
# _framework density 19.6097
#
# number of rings (size 3 to 8) (size 9 to 14) (size 15 to 20)
#    0.000    1.655    0.690    4.138    3.862    3.310 
#    4.966    4.138    0.000    0.000    0.000    0.000 
#    0.000    0.000    0.000    0.000    0.000    0.000 
#
# Total GULP energy -161724.498485 kJ/mol
# GULP energy per Si atom -5576.706844 kJ/mol
# Density = 1.956507 g / cm^3
# Si number density = 19.609700 Si / 1000 Ang^3
#
#
#
# Elastic Constant Matrix: (Units=GPa)
#
#
# Indices 1 2 3 4 5 6 
#
# 1 104.1795 35.2685 25.7227 0.0000 0.0000 0.0000
# 2 35.2685 105.5268 22.8870 0.0000 0.0000 0.0000
# 3 25.7227 22.8870 40.7059 0.0000 0.0000 0.0000
# 4 0.0000 0.0000 0.0000 30.7975 0.0000 0.0000
# 5 0.0000 0.0000 0.0000 0.0000 41.3777 0.0000
# 6 0.0000 0.0000 0.0000 0.0000 0.0000 21.1602
#
#
#
# Elastic Compliance Matrix: (Units=1/GPa)
#
#
# Indices 1 2 3 4 5 6 
#
# 1 0.012012 -0.002697 -0.006074 0.000000 0.000000 0.000000
# 2 -0.002697 0.011398 -0.004704 0.000000 0.000000 0.000000
# 3 -0.006074 -0.004704 0.031049 0.000000 0.000000 0.000000
# 4 0.000000 0.000000 0.000000 0.032470 0.000000 0.000000
# 5 0.000000 0.000000 0.000000 0.000000 0.024168 0.000000
# 6 0.000000 0.000000 0.000000 0.000000 0.000000 0.047258
#
#
# Mechanical properties :
#
#
# Convention : Reuss Voigt Hill
#
# Bulk Modulus (GPa) = 36.35202 46.46318 41.40760
# Shear Modulus (GPa) = 25.71026 29.76937 27.73981
#
# Velocity S-wave (km/s) = 3.62484 3.90050 3.76519
# Velocity P-wave (km/s) = 6.00810 6.63556 6.32961
#
# Compressibility (1/GPa) = 0.02750879
#
# Stress axis : x y z
#
# Youngs Moduli (GPa) = 83.25317 87.73517 32.20666
#
# Poissons Ratio (x) = 0.23663 0.19562
# Poissons Ratio (y) = 0.22454 0.15151
# Poissons Ratio (z) = 0.50566 0.41272
#
# Static dielectric constant tensor:
#      x y z
#    x 1.751150 0.000000 0.000000 
#    y 0.000000 1.642410 0.000000 
#    z 0.000000 0.000000 1.819890 
# 
# From -- ./inp_files/21838.got.cif
#   From: 2010.05.17/outbox.cif.g08.bks.cpg/sg22_11_cif.got.tgz:21838.got - 2010.06.03 23:40:54.
