data_PCOD9327447
_publ_section_title
;
Structure prediction by ZEFSAII (Michael W. Deem and Ramdas Pophale) SiO2 
 PCOD9327447
Probable space group: F 2 2 2
;
_chemical_formula_sum "Si O2"
_cell_formula_units_Z 112
_cell_length_a 14.087539
_cell_length_b 24.662945
_cell_length_c 17.120954
_cell_angle_alpha 90.000000
_cell_angle_beta 90.000000
_cell_angle_gamma 90.000000
_cell_volume 5948.507674
_symmetry_space_group_name_H-M "F 2 2 2"
_symmetry_group_IT_number 22
_symmetry_cell_setting 'orthorhombic'
loop_
_space_group_symop_operation_xyz
x,y,z
-x,-y,z
x,-y,-z
-x,y,-z
x,1/2+y,1/2+z
-x,1/2-y,1/2+z
x,1/2-y,1/2-z
-x,1/2+y,1/2-z
1/2+x,y,1/2+z
1/2-x,-y,1/2+z
1/2+x,-y,1/2-z
1/2-x,y,1/2-z
1/2+x,1/2+y,z
1/2-x,1/2-y,z
1/2+x,1/2-y,-z
1/2-x,1/2+y,-z
loop_
_atom_site_type_symbol
_atom_site_label
_atom_site_fract_x
_atom_site_fract_y
_atom_site_fract_z
Si Si1 0.040141 0.687315 0.844739
Si Si2 0.143035 0.010141 0.157452
Si Si3 0.356965 0.989859 0.842548
Si Si4 0.459859 0.312685 0.155261
Si Si5 0.250000 0.184271 0.338433
Si Si6 0.475752 0.582121 0.090837
Si Si7 0.975752 0.582121 0.909163
O O1 0.040893 0.684168 0.750000
O O2 0.021484 0.750000 0.865324
O O3 0.147172 0.671769 0.873330
O O4 0.969231 0.643632 0.880113
O O5 0.250000 0.027507 0.138118
O O6 0.137900 0.999674 0.250000
O O7 0.064258 0.054424 0.136040
O O8 0.113107 0.955649 0.112062
O O9 0.435742 0.945576 0.863960
O O10 0.386893 0.044351 0.887937
O O11 0.352828 0.328231 0.126671
O O12 0.530769 0.356368 0.119887
O O13 0.250000 0.161412 0.250000
O O14 0.250000 0.250000 0.331958
O O15 0.500000 0.579566 0.000000
O O16 0.000000 0.579566 0.000000
#
# Coordination Sequence:
#
# PCOD9327447 Si02
#       7
#    16  16  16  16  16  16  16
#     4   9  17  31  52  77 106 140 179 219 256 303
#     4  10  21  38  59  78 100 136 183 227 260 304
#     4  10  21  38  59  78 100 136 183 227 260 304
#     4   9  17  31  52  77 106 140 179 219 256 303
#     4   7  12  24  44  72  99 124 163 213 255 288
#     4  11  22  34  52  81 113 142 169 211 270 328
#     4  11  22  34  52  81 113 142 169 211 270 328
#
# _framework density 18.828251999999999
#
# number of rings (size 3 to 8) (size 9 to 14) (size 15 to 20)
#    0.000    2.429    0.000    6.857    2.000    2.857 
#    0.000    0.000    0.000    0.857    0.000    4.000 
#    0.000    0.000    0.000    0.000    0.000    0.000 
#
# Total GULP energy -156139.645044 kJ/mol
# GULP energy per Si atom -5576.415894 kJ/mol
# Density = 1.878540 g / cm^3
# Si number density = 18.828252 Si / 1000 Ang^3
#
#
#
# Elastic Constant Matrix: (Units=GPa)
#
#
# Indices 1 2 3 4 5 6 
#
# 1 33.1039 -5.3057 -1.4690 0.0000 0.0000 0.0000
# 2 -5.3057 77.2424 11.0509 0.0000 0.0000 0.0000
# 3 -1.4690 11.0509 57.8063 0.0000 0.0000 0.0000
# 4 0.0000 0.0000 0.0000 -33.2183 0.0000 0.0000
# 5 0.0000 0.0000 0.0000 0.0000 -4.0203 0.0000
# 6 0.0000 0.0000 0.0000 0.0000 0.0000 21.4959
#
#
#
# Elastic Compliance Matrix: (Units=1/GPa)
#
#
# Indices 1 2 3 4 5 6 
#
# 1 0.030553 0.002043 0.000386 0.000000 0.000000 0.000000
# 2 0.002043 0.013447 -0.002519 0.000000 0.000000 0.000000
# 3 0.000386 -0.002519 0.017790 0.000000 0.000000 0.000000
# 4 0.000000 0.000000 0.000000 -0.030104 0.000000 0.000000
# 5 0.000000 0.000000 0.000000 0.000000 -0.248738 0.000000
# 6 0.000000 0.000000 0.000000 0.000000 0.000000 0.046520
#
#
# Mechanical properties :
#
#
# Convention : Reuss Voigt Hill
#
# Bulk Modulus (GPa) = 16.23089 19.63388 17.93239
# Shear Modulus (GPa) = -33.37434 7.77655 -12.79889
#
# Velocity S-wave (km/s) = -4.21475 2.03451 -2.61007
# Velocity P-wave (km/s) = 3.87896 3.99618 0.67940
#
# Compressibility (1/GPa) = 0.06161091
#
# Stress axis : x y z
#
# Youngs Moduli (GPa) = 32.73051 74.36623 56.20984
#
# Poissons Ratio (x) = -0.15196 -0.02169
# Poissons Ratio (y) = -0.06688 0.14158
# Poissons Ratio (z) = -0.01263 0.18731
#
# Static dielectric constant tensor:
#      x y z
#    x 1.668880 0.000000 0.000000 
#    y 0.000000 1.672760 0.000000 
#    z 0.000000 0.000000 1.638480 
# 
# From -- ./inp_files/29751.got.cif
#   From: 2010.05.17/outbox.cif.g08.bks.cpg/sg22_15_cif.got.tgz:29751.got - 2010.06.03 23:40:54.
