data_PCOD9327664
_publ_section_title
;
Structure prediction by ZEFSAII (Michael W. Deem and Ramdas Pophale) SiO2 
 PCOD9327664
Probable space group: F 2 2 2
;
_chemical_formula_sum "Si O2"
_cell_formula_units_Z 88
_cell_length_a 10.866204
_cell_length_b 16.297036
_cell_length_c 22.386975
_cell_angle_alpha 90.000000
_cell_angle_beta 90.000000
_cell_angle_gamma 90.000000
_cell_volume 3964.440401
_symmetry_space_group_name_H-M "F 2 2 2"
_symmetry_group_IT_number 22
_symmetry_cell_setting 'orthorhombic'
loop_
_space_group_symop_operation_xyz
x,y,z
-x,-y,z
x,-y,-z
-x,y,-z
x,1/2+y,1/2+z
-x,1/2-y,1/2+z
x,1/2-y,1/2-z
-x,1/2+y,1/2-z
1/2+x,y,1/2+z
1/2-x,-y,1/2+z
1/2+x,-y,1/2-z
1/2-x,y,1/2-z
1/2+x,1/2+y,z
1/2-x,1/2-y,z
1/2+x,1/2-y,-z
1/2-x,1/2+y,-z
loop_
_atom_site_type_symbol
_atom_site_label
_atom_site_fract_x
_atom_site_fract_y
_atom_site_fract_z
Si Si1 0.488982 0.342208 0.772044
Si Si2 0.357919 0.685871 0.423822
Si Si3 0.997755 0.338775 0.588038
Si Si4 0.373905 0.453114 0.674529
Si Si5 0.750000 0.421437 0.750000
Si Si6 0.199598 0.596130 0.505156
O O1 0.464730 0.250000 0.750000
O O2 0.476512 0.352607 0.842665
O O3 0.402483 0.402693 0.734955
O O4 0.628621 0.367440 0.756591
O O5 0.250000 0.750000 0.406882
O O6 0.479621 0.741478 0.422675
O O7 0.351985 0.611986 0.377202
O O8 0.318732 0.648583 0.487385
O O9 0.866884 0.372528 0.565152
O O10 0.098357 0.383629 0.546361
O O11 0.500000 0.500000 0.659044
O O12 0.272488 0.520151 0.692347
O O13 0.224862 0.500000 0.500000
#
# Coordination Sequence:
#
# PCOD9327664 Si02
#       6
#    16  16  16  16   8  16
#     4  11  22  42  66  97 130 180 211 273 332 393
#     4  10  22  42  65  93 128 169 225 262 326 391
#     4  10  21  41  67  94 133 165 225 272 315 394
#     4  10  23  40  60  98 134 171 213 273 332 387
#     4  10  25  36  59  98 136 162 224 254 347 384
#     4  10  23  41  67 100 125 172 227 269 322 382
#
# _framework density 22.197331999999999
#
# number of rings (size 3 to 8) (size 9 to 14) (size 15 to 20)
#    0.000    1.818    1.818    1.364    7.636    2.909 
#    0.000   18.182    0.000    0.000    0.000    0.000 
#    0.000    0.000    0.000    0.000    0.000    0.000 
#
# Total GULP energy -122975.872799 kJ/mol
# GULP energy per Si atom -5589.812400 kJ/mol
# Density = 2.214681 g / cm^3
# Si number density = 22.197332 Si / 1000 Ang^3
#
#
#
# Elastic Constant Matrix: (Units=GPa)
#
#
# Indices 1 2 3 4 5 6 
#
# 1 29.1763 3.3934 2.5981 0.0000 0.0000 0.0000
# 2 3.3934 81.5460 23.2662 0.0000 0.0000 0.0000
# 3 2.5981 23.2662 97.5533 0.0000 0.0000 0.0000
# 4 0.0000 0.0000 0.0000 17.6628 0.0000 0.0000
# 5 0.0000 0.0000 0.0000 0.0000 14.4126 0.0000
# 6 0.0000 0.0000 0.0000 0.0000 0.0000 5.8476
#
#
#
# Elastic Compliance Matrix: (Units=1/GPa)
#
#
# Indices 1 2 3 4 5 6 
#
# 1 0.034476 -0.001258 -0.000618 0.000000 0.000000 0.000000
# 2 -0.001258 0.013204 -0.003116 0.000000 0.000000 0.000000
# 3 -0.000618 -0.003116 0.011010 0.000000 0.000000 0.000000
# 4 0.000000 0.000000 0.000000 0.056616 0.000000 0.000000
# 5 0.000000 0.000000 0.000000 0.000000 0.069384 0.000000
# 6 0.000000 0.000000 0.000000 0.000000 0.000000 0.171011
#
#
# Mechanical properties :
#
#
# Convention : Reuss Voigt Hill
#
# Bulk Modulus (GPa) = 20.53119 29.64343 25.08731
# Shear Modulus (GPa) = 13.09170 19.51913 16.30541
#
# Velocity S-wave (km/s) = 2.43119 2.96859 2.71323
# Velocity P-wave (km/s) = 4.14130 5.01334 4.59804
#
# Compressibility (1/GPa) = 0.04870638
#
# Stress axis : x y z
#
# Youngs Moduli (GPa) = 29.00583 75.73275 90.82370
#
# Poissons Ratio (x) = 0.09530 0.05614
# Poissons Ratio (y) = 0.03650 0.28298
# Poissons Ratio (z) = 0.01793 0.23596
#
# Static dielectric constant tensor:
#      x y z
#    x 1.860400 0.000000 0.000000 
#    y 0.000000 1.807700 0.000000 
#    z 0.000000 0.000000 1.825550 
# 
# From -- ./inp_files/19956.got.cif
#   From: 2010.05.17/outbox.cif.g08.bks.cpg/sg22_10_cif.got.tgz:19956.got - 2010.06.03 23:40:54.
