data_PCOD9327504
_publ_section_title
;
Structure prediction by ZEFSAII (Michael W. Deem and Ramdas Pophale) SiO2 
 PCOD9327504
Probable space group: F 2 2 2
;
_chemical_formula_sum "Si O2"
_cell_formula_units_Z 72
_cell_length_a 24.711574
_cell_length_b 5.366952
_cell_length_c 27.363506
_cell_angle_alpha 90.000000
_cell_angle_beta 90.000000
_cell_angle_gamma 90.000000
_cell_volume 3629.107736
_symmetry_space_group_name_H-M "F 2 2 2"
_symmetry_group_IT_number 22
_symmetry_cell_setting 'orthorhombic'
loop_
_space_group_symop_operation_xyz
x,y,z
-x,-y,z
x,-y,-z
-x,y,-z
x,1/2+y,1/2+z
-x,1/2-y,1/2+z
x,1/2-y,1/2-z
-x,1/2+y,1/2-z
1/2+x,y,1/2+z
1/2-x,-y,1/2+z
1/2+x,-y,1/2-z
1/2-x,y,1/2-z
1/2+x,1/2+y,z
1/2-x,1/2-y,z
1/2+x,1/2-y,-z
1/2-x,1/2+y,-z
loop_
_atom_site_type_symbol
_atom_site_label
_atom_site_fract_x
_atom_site_fract_y
_atom_site_fract_z
Si Si1 0.391486 0.681080 0.306732
Si Si2 0.273104 0.000428 0.193241
Si Si3 0.934306 0.507555 0.385367
Si Si4 0.934697 0.993481 0.555727
Si Si5 0.500000 0.000000 0.782539
O O1 0.391007 0.750000 0.250000
O O2 0.337113 0.525376 0.312410
O O3 0.400393 0.933874 0.337193
O O4 0.446454 0.526397 0.314737
O O5 0.250000 0.999943 0.250000
O O6 0.250000 0.250000 0.170921
O O7 0.250000 0.750000 0.170521
O O8 0.919466 0.763103 0.412639
O O9 0.000000 0.500000 0.375468
O O10 0.921268 0.269932 0.419775
O O11 0.914466 0.000000 0.500000
O O12 0.000000 0.000000 0.553612
O O13 0.494677 0.750000 0.750000
#
# Coordination Sequence:
#
# PCOD9327504 Si02
#       5
#    16  16  16  16   8
#     4  11  24  39  57  82 127 167 212 256 308 361
#     4  10  21  39  58  76 100 157 220 265 295 335
#     4  10  22  34  53  85 117 156 209 249 298 376
#     4   9  18  36  57  78 111 155 202 253 304 360
#     4  10  26  36  52  76 111 168 209 242 308 370
#
# _framework density 19.839589
#
# number of rings (size 3 to 8) (size 9 to 14) (size 15 to 20)
#    0.000    2.000    2.222    0.667   14.000    4.444 
#    0.000    0.000    0.000    0.000    0.000    0.000 
#    0.000    5.333    0.000    0.444    0.444    0.444 
#
# Total GULP energy -100459.290683 kJ/mol
# GULP energy per Si atom -5581.071705 kJ/mol
# Density = 1.979443 g / cm^3
# Si number density = 19.839589 Si / 1000 Ang^3
#
#
#
# Elastic Constant Matrix: (Units=GPa)
#
#
# Indices 1 2 3 4 5 6 
#
# 1 135.1734 51.2509 12.9066 0.0053 -0.0001 -0.0044
# 2 51.2509 182.4810 59.9040 0.0199 -0.0008 -0.0023
# 3 12.9066 59.9040 114.6881 0.0031 0.0005 0.0000
# 4 0.0053 0.0199 0.0031 15.4903 0.0018 0.0011
# 5 -0.0001 -0.0008 0.0005 0.0018 -5.2125 0.0037
# 6 -0.0044 -0.0023 0.0000 0.0011 0.0037 29.3635
#
#
#
# Elastic Compliance Matrix: (Units=1/GPa)
#
#
# Indices 1 2 3 4 5 6 
#
# 1 0.008291 -0.002441 0.000342 0.000000 0.000000 0.000001
# 2 -0.002441 0.007333 -0.003555 -0.000008 -0.000001 0.000000
# 3 0.000342 -0.003555 0.010538 0.000002 0.000001 0.000000
# 4 0.000000 -0.000008 0.000002 0.064557 0.000022 -0.000002
# 5 0.000000 -0.000001 0.000001 0.000022 -0.191848 0.000024
# 6 0.000001 0.000000 0.000000 -0.000002 0.000024 0.034056
#
#
# Mechanical properties :
#
#
# Convention : Reuss Voigt Hill
#
# Bulk Modulus (GPa) = 67.32754 75.60728 71.46741
# Shear Modulus (GPa) = -98.39661 28.48034 -34.95813
#
# Velocity S-wave (km/s) = -7.05009 3.79295 -4.20222
# Velocity P-wave (km/s) = 5.67997 7.57456 3.54344
#
# Compressibility (1/GPa) = 0.01485276
#
# Stress axis : x y z
#
# Youngs Moduli (GPa) = 120.61769 136.37665 94.89599
#
# Poissons Ratio (x) = 0.33285 -0.03244
# Poissons Ratio (y) = 0.29439 0.33739
# Poissons Ratio (z) = -0.04123 0.48486
#
# Static dielectric constant tensor:
#      x y z
#    x 1.757010 -0.000010 0.000000 
#    y -0.000010 1.773200 0.000000 
#    z 0.000000 0.000000 1.742300 
# 
# From -- ./inp_files/54093.got.cif
#   From: 2010.05.17/outbox.cif.g08.bks.cpg/sg22_28_cif.got.tgz:54093.got - 2010.06.03 23:40:54.
