data_PCOD9327109
_publ_section_title
;
Structure prediction by ZEFSAII (Michael W. Deem and Ramdas Pophale) SiO2 
 PCOD9327109
Probable space group: F 2 2 2
;
_chemical_formula_sum "Si O2"
_cell_formula_units_Z 112
_cell_length_a 15.096006
_cell_length_b 31.084033
_cell_length_c 12.071013
_cell_angle_alpha 90.000000
_cell_angle_beta 90.000000
_cell_angle_gamma 90.000000
_cell_volume 5664.259461
_symmetry_space_group_name_H-M "F 2 2 2"
_symmetry_group_IT_number 22
_symmetry_cell_setting 'orthorhombic'
loop_
_space_group_symop_operation_xyz
x,y,z
-x,-y,z
x,-y,-z
-x,y,-z
x,1/2+y,1/2+z
-x,1/2-y,1/2+z
x,1/2-y,1/2-z
-x,1/2+y,1/2-z
1/2+x,y,1/2+z
1/2-x,-y,1/2+z
1/2+x,-y,1/2-z
1/2-x,y,1/2-z
1/2+x,1/2+y,z
1/2-x,1/2-y,z
1/2+x,1/2-y,-z
1/2-x,1/2+y,-z
loop_
_atom_site_type_symbol
_atom_site_label
_atom_site_fract_x
_atom_site_fract_y
_atom_site_fract_z
Si Si1 0.336812 0.057621 0.170665
Si Si2 0.100271 0.011698 0.144672
Si Si3 0.102794 0.302030 0.472839
Si Si4 0.790938 0.440368 0.477607
Si Si5 0.644109 0.650224 0.254582
Si Si6 0.246146 0.654294 0.382649
Si Si7 0.396145 0.701696 0.529306
O O1 0.250000 0.056347 0.250000
O O2 0.394854 0.020756 0.225184
O O3 0.382505 0.103181 0.198767
O O4 0.299157 0.051621 0.047907
O O5 0.172285 0.975342 0.109806
O O6 0.131756 0.053308 0.071640
O O7 0.000000 0.000000 0.117244
O O8 0.116324 0.331870 0.364703
O O9 0.162530 0.319575 0.571731
O O10 0.128479 0.251974 0.461524
O O11 0.000000 0.303460 0.500000
O O12 0.774044 0.394343 0.423597
O O13 0.750000 0.648647 0.250000
O O14 0.616102 0.682813 0.349036
O O15 0.250000 0.656062 0.250000
O O16 0.332152 0.675290 0.444477
O O17 0.500000 0.698123 0.500000
#
# Coordination Sequence:
#
# PCOD9327109 Si02
#       7
#    16  16  16  16  16  16  16
#     4   9  18  36  63  89 126 165 204 264 324 385
#     4  10  21  37  67 102 125 161 212 275 331 386
#     4  11  25  41  65 101 130 171 231 284 336 395
#     4  10  20  39  62  89 127 167 210 258 324 395
#     4  11  20  41  72  96 124 175 231 275 328 399
#     4  12  26  44  65  96 135 183 227 278 339 405
#     4  11  25  44  66  94 135 179 222 279 344 399
#
# _framework density 19.773105999999999
#
# number of rings (size 3 to 8) (size 9 to 14) (size 15 to 20)
#    0.000    1.429    2.857    3.429    2.000    6.857 
#    0.000    0.000    0.000    0.000    0.000    2.000 
#    0.000    0.000    0.000    0.000    0.000    0.000 
#
# Total GULP energy -156013.625455 kJ/mol
# GULP energy per Si atom -5571.915195 kJ/mol
# Density = 1.972810 g / cm^3
# Si number density = 19.773106 Si / 1000 Ang^3
#
#
#
# Elastic Constant Matrix: (Units=GPa)
#
#
# Indices 1 2 3 4 5 6 
#
# 1 78.7045 50.2855 44.2242 0.0000 0.0000 0.0000
# 2 50.2855 127.8217 57.6099 0.0000 0.0000 0.0000
# 3 44.2242 57.6099 113.9006 0.0000 0.0000 0.0000
# 4 0.0000 0.0000 0.0000 28.4262 0.0000 0.0000
# 5 0.0000 0.0000 0.0000 0.0000 17.7247 0.0000
# 6 0.0000 0.0000 0.0000 0.0000 0.0000 -52.9901
#
#
#
# Elastic Compliance Matrix: (Units=1/GPa)
#
#
# Indices 1 2 3 4 5 6 
#
# 1 0.018644 -0.005274 -0.004571 0.000000 0.000000 0.000000
# 2 -0.005274 0.011626 -0.003832 0.000000 0.000000 0.000000
# 3 -0.004571 -0.003832 0.012493 0.000000 0.000000 0.000000
# 4 0.000000 0.000000 0.000000 0.035179 0.000000 0.000000
# 5 0.000000 0.000000 0.000000 0.000000 0.056418 0.000000
# 6 0.000000 0.000000 0.000000 0.000000 0.000000 -0.018871
#
#
# Mechanical properties :
#
#
# Convention : Reuss Voigt Hill
#
# Bulk Modulus (GPa) = 64.90633 69.40734 67.15683
# Shear Modulus (GPa) = 33.78838 9.85264 21.82051
#
# Velocity S-wave (km/s) = 4.13825 2.23465 3.32557
# Velocity P-wave (km/s) = 7.46528 6.46810 6.98451
#
# Compressibility (1/GPa) = 0.01540682
#
# Stress axis : x y z
#
# Youngs Moduli (GPa) = 53.63574 86.01730 80.04635
#
# Poissons Ratio (x) = 0.45369 0.36591
# Poissons Ratio (y) = 0.28290 0.30675
# Poissons Ratio (z) = 0.24518 0.32964
#
# Static dielectric constant tensor:
#      x y z
#    x 1.696530 0.000000 0.000000 
#    y 0.000000 1.773520 0.000000 
#    z 0.000000 0.000000 1.727410 
# 
# From -- ./inp_files/20315.got.cif
#   From: 2010.05.17/outbox.cif.g08.bks.cpg/sg22_11_cif.got.tgz:20315.got - 2010.06.03 23:40:54.
