data_PCOD9327379
_publ_section_title
;
Structure prediction by ZEFSAII (Michael W. Deem and Ramdas Pophale) SiO2 
 PCOD9327379
Probable space group: F 2 2 2
;
_chemical_formula_sum "Si O2"
_cell_formula_units_Z 88
_cell_length_a 14.826816
_cell_length_b 19.936981
_cell_length_c 14.802543
_cell_angle_alpha 90.000000
_cell_angle_beta 90.000000
_cell_angle_gamma 90.000000
_cell_volume 4375.660559
_symmetry_space_group_name_H-M "F 2 2 2"
_symmetry_group_IT_number 22
_symmetry_cell_setting 'orthorhombic'
loop_
_space_group_symop_operation_xyz
x,y,z
-x,-y,z
x,-y,-z
-x,y,-z
x,1/2+y,1/2+z
-x,1/2-y,1/2+z
x,1/2-y,1/2-z
-x,1/2+y,1/2-z
1/2+x,y,1/2+z
1/2-x,-y,1/2+z
1/2+x,-y,1/2-z
1/2-x,y,1/2-z
1/2+x,1/2+y,z
1/2-x,1/2-y,z
1/2+x,1/2-y,-z
1/2-x,1/2+y,-z
loop_
_atom_site_type_symbol
_atom_site_label
_atom_site_fract_x
_atom_site_fract_y
_atom_site_fract_z
Si Si1 0.798364 0.485893 0.344881
Si Si2 0.500000 0.824315 0.000000
Si Si3 0.140821 0.426892 0.970612
Si Si4 0.436829 0.890244 0.419896
Si Si5 0.071326 0.277294 0.350444
Si Si6 0.202182 0.370805 0.429269
O O1 0.750000 0.496729 0.250000
O O2 0.720807 0.448294 0.403022
O O3 0.888074 0.441096 0.352142
O O4 0.824218 0.556796 0.388687
O O5 0.436092 0.875222 0.056704
O O6 0.550713 0.777093 0.071767
O O7 0.105012 0.500000 0.000000
O O8 0.194053 0.385083 0.048203
O O9 0.500000 0.919970 0.500000
O O10 0.497459 0.835784 0.369505
O O11 0.355125 0.858229 0.478964
O O12 0.062077 0.250000 0.250000
O O13 0.168775 0.312106 0.364883
#
# Coordination Sequence:
#
# PCOD9327379 Si02
#       6
#    16   8  16  16  16  16
#     4  10  21  36  66 100 123 157 221 284 318 376
#     4  12  23  42  62  89 134 166 212 260 324 397
#     4   9  21  40  65  86 121 170 209 258 330 376
#     4   9  18  39  63  89 129 172 223 256 325 398
#     4  11  24  39  62  96 128 171 220 265 320 399
#     4   9  19  42  61  88 126 171 214 257 327 395
#
# _framework density 20.111248
#
# number of rings (size 3 to 8) (size 9 to 14) (size 15 to 20)
#    0.000    2.182    2.727    1.909    2.545    8.727 
#    0.000    0.909    4.000    0.000    0.000    0.000 
#    0.000    0.000    0.000    0.000    0.000    0.000 
#
# Total GULP energy -122512.967275 kJ/mol
# GULP energy per Si atom -5568.771240 kJ/mol
# Density = 2.006547 g / cm^3
# Si number density = 20.111248 Si / 1000 Ang^3
#
#
#
# Elastic Constant Matrix: (Units=GPa)
#
#
# Indices 1 2 3 4 5 6 
#
# 1 63.7565 54.7123 12.4643 0.0000 0.0000 0.0000
# 2 54.7123 109.4691 30.9911 0.0000 0.0000 0.0000
# 3 12.4643 30.9911 78.3416 0.0000 0.0000 0.0000
# 4 0.0000 0.0000 0.0000 23.6832 0.0000 0.0000
# 5 0.0000 0.0000 0.0000 0.0000 22.9345 0.0000
# 6 0.0000 0.0000 0.0000 0.0000 0.0000 51.1910
#
#
#
# Elastic Compliance Matrix: (Units=1/GPa)
#
#
# Indices 1 2 3 4 5 6 
#
# 1 0.027563 -0.014115 0.001199 0.000000 0.000000 0.000000
# 2 -0.014115 0.017516 -0.004683 0.000000 0.000000 0.000000
# 3 0.001199 -0.004683 0.014427 0.000000 0.000000 0.000000
# 4 0.000000 0.000000 0.000000 0.042224 0.000000 0.000000
# 5 0.000000 0.000000 0.000000 0.000000 0.043603 0.000000
# 6 0.000000 0.000000 0.000000 0.000000 0.000000 0.019535
#
#
# Mechanical properties :
#
#
# Convention : Reuss Voigt Hill
#
# Bulk Modulus (GPa) = 41.14308 49.76694 45.45501
# Shear Modulus (GPa) = 24.01895 29.78836 26.90365
#
# Velocity S-wave (km/s) = 3.45962 3.85278 3.66148
# Velocity P-wave (km/s) = 6.03828 6.67768 6.36601
#
# Compressibility (1/GPa) = 0.02430542
#
# Stress axis : x y z
#
# Youngs Moduli (GPa) = 36.27994 57.09168 69.31659
#
# Poissons Ratio (x) = 0.80587 -0.08308
# Poissons Ratio (y) = 0.51211 0.32463
# Poissons Ratio (z) = -0.04348 0.26737
#
# Static dielectric constant tensor:
#      x y z
#    x 1.776630 0.000000 0.000000 
#    y 0.000000 1.714130 0.000000 
#    z 0.000000 0.000000 1.609930 
# 
# From -- ./inp_files/29264.got.cif
#   From: 2010.05.17/outbox.cif.g08.bks.cpg/sg22_15_cif.got.tgz:29264.got - 2010.06.03 23:40:54.
