data_PCOD9327786
_publ_section_title
;
Structure prediction by ZEFSAII (Michael W. Deem and Ramdas Pophale) SiO2 
 PCOD9327786
Probable space group: F 2 2 2
;
_chemical_formula_sum "Si O2"
_cell_formula_units_Z 108
_cell_length_a 22.801116
_cell_length_b 11.001197
_cell_length_c 20.198110
_cell_angle_alpha 90.000000
_cell_angle_beta 90.000000
_cell_angle_gamma 90.000000
_cell_volume 5066.485206
_symmetry_space_group_name_H-M "F 2 2 2"
_symmetry_group_IT_number 22
_symmetry_cell_setting 'orthorhombic'
loop_
_space_group_symop_operation_xyz
x,y,z
-x,-y,z
x,-y,-z
-x,y,-z
x,1/2+y,1/2+z
-x,1/2-y,1/2+z
x,1/2-y,1/2-z
-x,1/2+y,1/2-z
1/2+x,y,1/2+z
1/2-x,-y,1/2+z
1/2+x,-y,1/2-z
1/2-x,y,1/2-z
1/2+x,1/2+y,z
1/2-x,1/2-y,z
1/2+x,1/2-y,-z
1/2-x,1/2+y,-z
loop_
_atom_site_type_symbol
_atom_site_label
_atom_site_fract_x
_atom_site_fract_y
_atom_site_fract_z
Si Si1 0.215862 0.097190 0.870639
Si Si2 0.149422 0.385027 0.331073
Si Si3 0.455843 0.307216 0.560377
Si Si4 0.500000 0.000000 0.833994
Si Si5 0.165682 0.568593 0.065138
Si Si6 0.095851 0.940189 0.072182
Si Si7 0.122497 0.895808 0.683353
Si Si8 0.250000 0.750000 0.250000
O O1 0.277648 0.129575 0.902477
O O2 0.159680 0.122390 0.916254
O O3 0.212797 0.164504 0.799666
O O4 0.207693 0.949941 0.861062
O O5 0.098503 0.459427 0.369933
O O6 0.134292 0.243597 0.337619
O O7 0.154191 0.411983 0.253292
O O8 0.500000 0.325460 0.500000
O O9 0.476402 0.391193 0.620072
O O10 0.390662 0.353799 0.542929
O O11 0.451534 0.165557 0.578435
O O12 0.555782 0.062612 0.799740
O O13 0.143181 0.479219 0.123132
O O14 0.186855 0.500000 0.000000
O O15 0.092247 0.000000 0.000000
#
# Coordination Sequence:
#
# PCOD9327786 Si02
#       8
#    16  16  16   8  16  16  16   4
#     4  10  23  40  64 102 134 179 225 280 357 418
#     4   9  23  44  66  96 138 180 227 286 354 424
#     4  11  23  42  65  98 136 181 230 284 348 421
#     4  10  23  42  66  98 129 178 236 290 342 412
#     4  11  23  39  70 102 135 182 230 285 352 410
#     4  10  24  43  64  97 141 177 228 289 353 428
#     4  10  21  46  67  97 139 179 235 290 345 427
#     4  12  20  40  64  94 140 180 230 276 338 450
#
# _framework density 21.316552999999999
#
# number of rings (size 3 to 8) (size 9 to 14) (size 15 to 20)
#    0.889    0.889    0.000    4.222    4.148    2.074 
#    5.333    2.963    0.000    0.000    0.000    0.000 
#    0.000    0.000    0.000    0.000    0.000    0.000 
#
# Total GULP energy -150470.152244 kJ/mol
# GULP energy per Si atom -5572.968602 kJ/mol
# Density = 2.126804 g / cm^3
# Si number density = 21.316553 Si / 1000 Ang^3
#
#
#
# Elastic Constant Matrix: (Units=GPa)
#
#
# Indices 1 2 3 4 5 6 
#
# 1 80.6369 29.0104 8.0450 0.0000 0.0000 0.0000
# 2 29.0104 113.1259 38.0579 0.0000 0.0000 0.0000
# 3 8.0450 38.0579 77.2455 0.0000 0.0000 0.0000
# 4 0.0000 0.0000 0.0000 36.5942 0.0000 0.0000
# 5 0.0000 0.0000 0.0000 0.0000 8.8994 0.0000
# 6 0.0000 0.0000 0.0000 0.0000 0.0000 32.0758
#
#
#
# Elastic Compliance Matrix: (Units=1/GPa)
#
#
# Indices 1 2 3 4 5 6 
#
# 1 0.013670 -0.003628 0.000364 0.000000 0.000000 0.000000
# 2 -0.003628 0.011559 -0.005317 0.000000 0.000000 0.000000
# 3 0.000364 -0.005317 0.015527 0.000000 0.000000 0.000000
# 4 0.000000 0.000000 0.000000 0.027327 0.000000 0.000000
# 5 0.000000 0.000000 0.000000 0.000000 0.112368 0.000000
# 6 0.000000 0.000000 0.000000 0.000000 0.000000 0.031176
#
#
# Mechanical properties :
#
#
# Convention : Reuss Voigt Hill
#
# Bulk Modulus (GPa) = 42.38376 46.80386 44.59381
# Shear Modulus (GPa) = 21.12787 28.57355 24.85071
#
# Velocity S-wave (km/s) = 3.15167 3.66517 3.41808
# Velocity P-wave (km/s) = 5.75936 6.31788 6.04507
#
# Compressibility (1/GPa) = 0.02359394
#
# Stress axis : x y z
#
# Youngs Moduli (GPa) = 73.15171 86.51380 64.40190
#
# Poissons Ratio (x) = 0.31387 -0.02343
# Poissons Ratio (y) = 0.26540 0.34243
# Poissons Ratio (z) = -0.02661 0.46000
#
# Static dielectric constant tensor:
#      x y z
#    x 1.779520 0.000000 0.000000 
#    y 0.000000 1.820680 0.000000 
#    z 0.000000 0.000000 1.721440 
# 
# From -- ./inp_files/45401.got.cif
#   From: 2010.05.17/outbox.cif.g08.bks.cpg/sg22_23_cif.got.tgz:45401.got - 2010.06.03 23:40:54.
