data_PCOD9327386
_publ_section_title
;
Structure prediction by ZEFSAII (Michael W. Deem and Ramdas Pophale) SiO2 
 PCOD9327386
Probable space group: F 2 2 2
;
_chemical_formula_sum "Si O2"
_cell_formula_units_Z 84
_cell_length_a 6.509983
_cell_length_b 26.811832
_cell_length_c 27.706409
_cell_angle_alpha 90.000000
_cell_angle_beta 90.000000
_cell_angle_gamma 90.000000
_cell_volume 4836.003260
_symmetry_space_group_name_H-M "F 2 2 2"
_symmetry_group_IT_number 22
_symmetry_cell_setting 'orthorhombic'
loop_
_space_group_symop_operation_xyz
x,y,z
-x,-y,z
x,-y,-z
-x,y,-z
x,1/2+y,1/2+z
-x,1/2-y,1/2+z
x,1/2-y,1/2-z
-x,1/2+y,1/2-z
1/2+x,y,1/2+z
1/2-x,-y,1/2+z
1/2+x,-y,1/2-z
1/2-x,y,1/2-z
1/2+x,1/2+y,z
1/2-x,1/2-y,z
1/2+x,1/2-y,-z
1/2-x,1/2+y,-z
loop_
_atom_site_type_symbol
_atom_site_label
_atom_site_fract_x
_atom_site_fract_y
_atom_site_fract_z
Si Si1 0.164922 0.536161 0.700678
Si Si2 0.382251 0.050416 0.048921
Si Si3 0.282314 0.807315 0.691963
Si Si4 0.500000 0.500000 0.000000
Si Si5 0.466058 0.602919 0.644491
Si Si6 0.138414 0.373301 0.700122
O O1 0.250000 0.512352 0.750000
O O2 0.354039 0.556299 0.670426
O O3 0.000000 0.500000 0.676107
O O4 0.032167 0.585233 0.712929
O O5 0.413333 0.092415 0.088996
O O6 0.500000 0.000000 0.066156
O O7 0.500000 0.065007 0.000000
O O8 0.152825 0.033508 0.033167
O O9 0.250000 0.811836 0.750000
O O10 0.250000 0.750000 0.678691
O O11 0.133969 0.846121 0.664795
O O12 0.512741 0.825969 0.681569
O O13 0.701598 0.605477 0.661260
O O14 0.250000 0.360930 0.750000
#
# Coordination Sequence:
#
# PCOD9327386 Si02
#       6
#    16  16  16   4  16  16
#     4  11  23  31  46  75 114 154 188 221 267 347
#     4   9  21  36  56  84 111 142 192 237 279 356
#     4  10  21  37  54  81 112 146 195 240 281 344
#     4   8  18  40  60  78 116 148 186 236 304 326
#     4  11  22  35  55  81 109 149 188 235 291 338
#     4  11  19  36  52  75 115 147 187 234 279 331
#
# _framework density 17.369716
#
# number of rings (size 3 to 8) (size 9 to 14) (size 15 to 20)
#    0.000    1.905    3.810    1.714    4.000    5.333 
#    0.000    0.000    0.000    0.000    7.429    0.000 
#    0.000    0.000    0.000    0.000    0.000    0.000 
#
# Total GULP energy -117123.009062 kJ/mol
# GULP energy per Si atom -5577.286146 kJ/mol
# Density = 1.733018 g / cm^3
# Si number density = 17.369716 Si / 1000 Ang^3
#
#
#
# Elastic Constant Matrix: (Units=GPa)
#
#
# Indices 1 2 3 4 5 6 
#
# 1 111.0363 23.2984 27.5403 0.0000 0.0000 0.0000
# 2 23.2984 79.3969 27.5114 0.0000 0.0000 0.0000
# 3 27.5403 27.5114 81.5385 0.0000 0.0000 0.0000
# 4 0.0000 0.0000 0.0000 21.4643 0.0000 0.0000
# 5 0.0000 0.0000 0.0000 0.0000 10.1856 0.0000
# 6 0.0000 0.0000 0.0000 0.0000 0.0000 22.5218
#
#
#
# Elastic Compliance Matrix: (Units=1/GPa)
#
#
# Indices 1 2 3 4 5 6 
#
# 1 0.010107 -0.002019 -0.002733 0.000000 0.000000 0.000000
# 2 -0.002019 0.014666 -0.004266 0.000000 0.000000 0.000000
# 3 -0.002733 -0.004266 0.014627 0.000000 0.000000 0.000000
# 4 0.000000 0.000000 0.000000 0.046589 0.000000 0.000000
# 5 0.000000 0.000000 0.000000 0.000000 0.098178 0.000000
# 6 0.000000 0.000000 0.000000 0.000000 0.000000 0.044401
#
#
# Mechanical properties :
#
#
# Convention : Reuss Voigt Hill
#
# Bulk Modulus (GPa) = 46.80832 47.63023 47.21928
# Shear Modulus (GPa) = 19.70632 23.74244 21.72438
#
# Velocity S-wave (km/s) = 3.37192 3.70115 3.54037
# Velocity P-wave (km/s) = 6.49358 6.76355 6.62994
#
# Compressibility (1/GPa) = 0.02136372
#
# Stress axis : x y z
#
# Youngs Moduli (GPa) = 98.93646 68.18619 68.36866
#
# Poissons Ratio (x) = 0.13767 0.18683
# Poissons Ratio (y) = 0.19976 0.29168
# Poissons Ratio (z) = 0.27036 0.29090
#
# Static dielectric constant tensor:
#      x y z
#    x 1.651960 0.000000 0.000000 
#    y 0.000000 1.606170 0.000000 
#    z 0.000000 0.000000 1.609980 
# 
# From -- ./inp_files/55111.got.cif
#   From: 2010.05.17/outbox.cif.g08.bks.cpg/sg22_28_cif.got.tgz:55111.got - 2010.06.03 23:40:54.
