data_PCOD9327832
_publ_section_title
;
Structure prediction by ZEFSAII (Michael W. Deem and Ramdas Pophale) SiO2 
 PCOD9327832
Probable space group: F 2 2 2
;
_chemical_formula_sum "Si O2"
_cell_formula_units_Z 84
_cell_length_a 19.507812
_cell_length_b 11.557636
_cell_length_c 17.135977
_cell_angle_alpha 90.000000
_cell_angle_beta 90.000000
_cell_angle_gamma 90.000000
_cell_volume 3863.549178
_symmetry_space_group_name_H-M "F 2 2 2"
_symmetry_group_IT_number 22
_symmetry_cell_setting 'orthorhombic'
loop_
_space_group_symop_operation_xyz
x,y,z
-x,-y,z
x,-y,-z
-x,y,-z
x,1/2+y,1/2+z
-x,1/2-y,1/2+z
x,1/2-y,1/2-z
-x,1/2+y,1/2-z
1/2+x,y,1/2+z
1/2-x,-y,1/2+z
1/2+x,-y,1/2-z
1/2-x,y,1/2-z
1/2+x,1/2+y,z
1/2-x,1/2-y,z
1/2+x,1/2-y,-z
1/2-x,1/2+y,-z
loop_
_atom_site_type_symbol
_atom_site_label
_atom_site_fract_x
_atom_site_fract_y
_atom_site_fract_z
Si Si1 0.269425 0.992751 0.630762
Si Si2 0.000000 0.500000 0.000000
Si Si3 0.435187 0.750000 0.750000
Si Si4 0.250000 0.750000 0.564678
Si Si5 0.363137 0.494395 0.277442
Si Si6 0.548386 0.330980 0.361939
Si Si7 0.180634 0.287340 0.580362
O O1 0.274465 0.857499 0.614040
O O2 0.315228 0.025939 0.705137
O O3 0.188549 0.005929 0.648811
O O4 0.301912 0.078335 0.567493
O O5 0.964849 0.589281 0.938190
O O6 0.389853 0.634460 0.740564
O O7 0.484338 0.738840 0.673699
O O8 0.189149 0.777140 0.502851
O O9 0.425206 0.580313 0.295215
O O10 0.610437 0.244427 0.380568
O O11 0.250000 0.250000 0.626967
#
# Coordination Sequence:
#
# PCOD9327832 Si02
#       7
#    16   4   8   8  16  16  16
#     4  11  22  41  67 103 131 181 235 304 373 433
#     4  12  28  44  76 104 146 210 248 302 374 472
#     4  12  24  43  63  98 140 194 234 304 358 440
#     4  10  22  37  62  99 142 174 224 300 382 439
#     4  11  23  41  67  96 137 178 237 299 365 435
#     4  12  25  45  69 102 143 192 251 298 369 455
#     4  10  23  39  68  96 135 176 236 306 359 430
#
# _framework density 21.741665999999999
#
# number of rings (size 3 to 8) (size 9 to 14) (size 15 to 20)
#    0.571    0.381    3.810    2.857    2.667    3.048 
#    0.000    0.000    0.000    0.000    0.000    0.000 
#    0.000    0.000    0.000    0.000    0.000    0.000 
#
# Total GULP energy -117003.531954 kJ/mol
# GULP energy per Si atom -5571.596760 kJ/mol
# Density = 2.169218 g / cm^3
# Si number density = 21.741666 Si / 1000 Ang^3
#
#
#
# Elastic Constant Matrix: (Units=GPa)
#
#
# Indices 1 2 3 4 5 6 
#
# 1 90.1999 34.2273 21.9045 0.0000 0.0000 0.0000
# 2 34.2273 122.9722 26.5886 0.0000 0.0000 0.0000
# 3 21.9045 26.5886 64.4651 0.0000 0.0000 0.0000
# 4 0.0000 0.0000 0.0000 34.9359 0.0000 0.0000
# 5 0.0000 0.0000 0.0000 0.0000 17.3309 0.0000
# 6 0.0000 0.0000 0.0000 0.0000 0.0000 42.1713
#
#
#
# Elastic Compliance Matrix: (Units=1/GPa)
#
#
# Indices 1 2 3 4 5 6 
#
# 1 0.012972 -0.002918 -0.003204 0.000000 0.000000 0.000000
# 2 -0.002918 0.009584 -0.002962 0.000000 0.000000 0.000000
# 3 -0.003204 -0.002962 0.017823 0.000000 0.000000 0.000000
# 4 0.000000 0.000000 0.000000 0.028624 0.000000 0.000000
# 5 0.000000 0.000000 0.000000 0.000000 0.057700 0.000000
# 6 0.000000 0.000000 0.000000 0.000000 0.000000 0.023713
#
#
# Mechanical properties :
#
#
# Convention : Reuss Voigt Hill
#
# Bulk Modulus (GPa) = 45.02174 49.23090 47.12632
# Shear Modulus (GPa) = 28.41123 31.88208 30.14666
#
# Velocity S-wave (km/s) = 3.61884 3.83352 3.72773
# Velocity P-wave (km/s) = 6.18174 6.50286 6.34433
#
# Compressibility (1/GPa) = 0.02221149
#
# Stress axis : x y z
#
# Youngs Moduli (GPa) = 77.09055 104.33657 56.10864
#
# Poissons Ratio (x) = 0.30442 0.17979
# Poissons Ratio (y) = 0.22492 0.16618
# Poissons Ratio (z) = 0.24702 0.30901
#
# Static dielectric constant tensor:
#      x y z
#    x 1.813080 0.000000 0.000000 
#    y 0.000000 1.905240 0.000000 
#    z 0.000000 0.000000 1.856750 
# 
# From -- ./inp_files/38755.got.cif
#   From: 2010.05.17/outbox.cif.g08.bks.cpg/sg22_20_cif.got.tgz:38755.got - 2010.06.03 23:40:54.
