data_PCOD9327872
_publ_section_title
;
Structure prediction by ZEFSAII (Michael W. Deem and Ramdas Pophale) SiO2 
 PCOD9327872
Probable space group: F 2 2 2
;
_chemical_formula_sum "Si O2"
_cell_formula_units_Z 112
_cell_length_a 15.789908
_cell_length_b 12.473560
_cell_length_c 28.260462
_cell_angle_alpha 90.000000
_cell_angle_beta 90.000000
_cell_angle_gamma 90.000000
_cell_volume 5566.077864
_symmetry_space_group_name_H-M "F 2 2 2"
_symmetry_group_IT_number 22
_symmetry_cell_setting 'orthorhombic'
loop_
_space_group_symop_operation_xyz
x,y,z
-x,-y,z
x,-y,-z
-x,y,-z
x,1/2+y,1/2+z
-x,1/2-y,1/2+z
x,1/2-y,1/2-z
-x,1/2+y,1/2-z
1/2+x,y,1/2+z
1/2-x,-y,1/2+z
1/2+x,-y,1/2-z
1/2-x,y,1/2-z
1/2+x,1/2+y,z
1/2-x,1/2-y,z
1/2+x,1/2-y,-z
1/2-x,1/2+y,-z
loop_
_atom_site_type_symbol
_atom_site_label
_atom_site_fract_x
_atom_site_fract_y
_atom_site_fract_z
Si Si1 0.002006 0.213913 0.055986
Si Si2 0.965784 0.121572 0.634939
Si Si3 0.736940 0.088651 0.306054
Si Si4 0.731396 0.138753 0.844173
Si Si5 0.892249 0.237028 0.307143
Si Si6 0.687498 0.346548 0.047615
Si Si7 0.671716 0.405514 0.938068
O O1 0.905876 0.181735 0.066220
O O2 0.026758 0.320165 0.084313
O O3 0.071412 0.121471 0.067029
O O4 0.000000 0.233265 0.000000
O O5 0.868286 0.122628 0.649602
O O6 0.021597 0.197164 0.669501
O O7 0.000000 0.000000 0.634951
O O8 0.750000 0.100402 0.250000
O O9 0.821647 0.149244 0.323264
O O10 0.652994 0.151919 0.321675
O O11 0.733025 0.965963 0.319128
O O12 0.750000 0.250000 0.818365
O O13 0.778925 0.145206 0.894580
O O14 0.901690 0.250000 0.250000
O O15 0.750000 0.250000 0.061811
O O16 0.699752 0.469838 0.063090
O O17 0.690932 0.357182 0.990068
#
# Coordination Sequence:
#
# PCOD9327872 Si02
#       7
#    16  16  16  16  16  16  16
#     4  10  23  43  64  89 131 177 228 270 328 394
#     4  12  25  42  65  98 137 174 217 278 342 395
#     4   9  20  42  72  97 126 170 218 268 325 398
#     4  12  24  42  64  93 137 173 205 271 337 401
#     4   9  20  44  71  97 128 169 222 273 322 395
#     4  10  22  38  66  93 117 167 229 274 319 388
#     4  10  22  42  61  87 131 171 211 273 328 381
#
# _framework density 20.121888999999999
#
# number of rings (size 3 to 8) (size 9 to 14) (size 15 to 20)
#    0.000    1.714    2.857    1.714    6.000    2.286 
#    2.571    0.714    0.000    0.000    0.000    0.000 
#    0.000    0.000    0.000    0.000    0.000    0.000 
#
# Total GULP energy -156214.937358 kJ/mol
# GULP energy per Si atom -5579.104906 kJ/mol
# Density = 2.007609 g / cm^3
# Si number density = 20.121889 Si / 1000 Ang^3
#
#
#
# Elastic Constant Matrix: (Units=GPa)
#
#
# Indices 1 2 3 4 5 6 
#
# 1 109.5039 52.1965 21.4786 0.0000 0.0000 0.0000
# 2 52.1965 155.6648 13.7364 0.0000 0.0000 0.0000
# 3 21.4786 13.7364 33.5985 0.0000 0.0000 0.0000
# 4 0.0000 0.0000 0.0000 11.2838 0.0000 0.0000
# 5 0.0000 0.0000 0.0000 0.0000 14.3739 0.0000
# 6 0.0000 0.0000 0.0000 0.0000 0.0000 29.3481
#
#
#
# Elastic Compliance Matrix: (Units=1/GPa)
#
#
# Indices 1 2 3 4 5 6 
#
# 1 0.012018 -0.003477 -0.006261 0.000000 0.000000 0.000000
# 2 -0.003477 0.007671 -0.000913 0.000000 0.000000 0.000000
# 3 -0.006261 -0.000913 0.034139 0.000000 0.000000 0.000000
# 4 0.000000 0.000000 0.000000 0.088622 0.000000 0.000000
# 5 0.000000 0.000000 0.000000 0.000000 0.069570 0.000000
# 6 0.000000 0.000000 0.000000 0.000000 0.000000 0.034074
#
#
# Mechanical properties :
#
#
# Convention : Reuss Voigt Hill
#
# Bulk Modulus (GPa) = 30.74589 52.62112 41.68350
# Shear Modulus (GPa) = 17.97025 25.09156 21.53090
#
# Velocity S-wave (km/s) = 2.99167 3.53509 3.27467
# Velocity P-wave (km/s) = 5.21981 6.54755 5.92102
#
# Compressibility (1/GPa) = 0.03252467
#
# Stress axis : x y z
#
# Youngs Moduli (GPa) = 83.21148 130.36813 29.29201
#
# Poissons Ratio (x) = 0.45331 0.18339
# Poissons Ratio (y) = 0.28934 0.02675
# Poissons Ratio (z) = 0.52098 0.11905
#
# Static dielectric constant tensor:
#      x y z
#    x 1.703840 0.000000 0.000000 
#    y 0.000000 1.767120 0.000000 
#    z 0.000000 0.000000 1.739930 
# 
# From -- ./inp_files/28447.got.cif
#   From: 2010.05.17/outbox.cif.g08.bks.cpg/sg22_15_cif.got.tgz:28447.got - 2010.06.03 23:40:54.
