data_PCOD9327662
_publ_section_title
;
Structure prediction by ZEFSAII (Michael W. Deem and Ramdas Pophale) SiO2 
 PCOD9327662
Probable space group: F 2 2 2
;
_chemical_formula_sum "Si O2"
_cell_formula_units_Z 104
_cell_length_a 27.260866
_cell_length_b 9.713617
_cell_length_c 18.582877
_cell_angle_alpha 90.000000
_cell_angle_beta 90.000000
_cell_angle_gamma 90.000000
_cell_volume 4920.775774
_symmetry_space_group_name_H-M "F 2 2 2"
_symmetry_group_IT_number 22
_symmetry_cell_setting 'orthorhombic'
loop_
_space_group_symop_operation_xyz
x,y,z
-x,-y,z
x,-y,-z
-x,y,-z
x,1/2+y,1/2+z
-x,1/2-y,1/2+z
x,1/2-y,1/2-z
-x,1/2+y,1/2-z
1/2+x,y,1/2+z
1/2-x,-y,1/2+z
1/2+x,-y,1/2-z
1/2-x,y,1/2-z
1/2+x,1/2+y,z
1/2-x,1/2-y,z
1/2+x,1/2-y,-z
1/2-x,1/2+y,-z
loop_
_atom_site_type_symbol
_atom_site_label
_atom_site_fract_x
_atom_site_fract_y
_atom_site_fract_z
Si Si1 0.169967 0.000000 0.000000
Si Si2 0.350572 0.507928 0.368568
Si Si3 0.505993 0.835464 0.416353
Si Si4 0.882187 0.228018 0.909098
Si Si5 0.260347 0.911333 0.368636
Si Si6 0.348170 0.531130 0.796791
Si Si7 0.908696 0.725649 0.664192
O O1 0.136296 0.125898 0.028036
O O2 0.205861 0.945269 0.062468
O O3 0.370578 0.388069 0.419685
O O4 0.292247 0.518136 0.376290
O O5 0.362518 0.464585 0.286048
O O6 0.375306 0.658184 0.373455
O O7 0.500000 0.797979 0.500000
O O8 0.560429 0.792120 0.394431
O O9 0.462330 0.771916 0.369793
O O10 0.500000 0.000000 0.410277
O O11 0.852321 0.172668 0.839587
O O12 0.250000 0.750000 0.360481
O O13 0.293991 0.967396 0.303894
O O14 0.383491 0.424185 0.839763
O O15 0.910573 0.750000 0.750000
#
# Coordination Sequence:
#
# PCOD9327662 Si02
#       7
#     8  16  16  16  16  16  16
#     4  10  26  42  63  92 134 173 226 270 328 404
#     4  11  24  40  66 100 132 170 218 282 334 389
#     4  11  23  42  72  96 126 180 227 267 331 406
#     4  11  24  43  66  96 131 173 222 278 333 392
#     4  11  23  39  66  93 131 179 220 264 334 400
#     4  10  21  41  66  95 132 172 221 269 335 405
#     4  10  22  42  65 100 137 172 223 275 337 407
#
# _framework density 21.134879000000002
#
# number of rings (size 3 to 8) (size 9 to 14) (size 15 to 20)
#    0.000    1.385    3.077    1.846    4.308    4.308 
#    0.000    3.846    0.000    0.000    0.000    0.000 
#    0.000    0.000    0.000    0.000    0.000    0.000 
#
# Total GULP energy -145364.969247 kJ/mol
# GULP energy per Si atom -5590.960356 kJ/mol
# Density = 2.108677 g / cm^3
# Si number density = 21.134879 Si / 1000 Ang^3
#
#
#
# Elastic Constant Matrix: (Units=GPa)
#
#
# Indices 1 2 3 4 5 6 
#
# 1 139.2868 32.2984 4.6648 0.0000 0.0000 0.0000
# 2 32.2984 101.8486 10.6444 0.0000 0.0000 0.0000
# 3 4.6648 10.6444 36.7376 0.0000 0.0000 0.0000
# 4 0.0000 0.0000 0.0000 25.2127 0.0000 0.0000
# 5 0.0000 0.0000 0.0000 0.0000 28.8496 0.0000
# 6 0.0000 0.0000 0.0000 0.0000 0.0000 27.8732
#
#
#
# Elastic Compliance Matrix: (Units=1/GPa)
#
#
# Indices 1 2 3 4 5 6 
#
# 1 0.007752 -0.002429 -0.000281 0.000000 0.000000 0.000000
# 2 -0.002429 0.010886 -0.002846 0.000000 0.000000 0.000000
# 3 -0.000281 -0.002846 0.028080 0.000000 0.000000 0.000000
# 4 0.000000 0.000000 0.000000 0.039663 0.000000 0.000000
# 5 0.000000 0.000000 0.000000 0.000000 0.034663 0.000000
# 6 0.000000 0.000000 0.000000 0.000000 0.000000 0.035877
#
#
# Mechanical properties :
#
#
# Convention : Reuss Voigt Hill
#
# Bulk Modulus (GPa) = 28.08366 41.45423 34.76895
# Shear Modulus (GPa) = 27.79317 31.73812 29.76565
#
# Velocity S-wave (km/s) = 3.63028 3.87937 3.75689
# Velocity P-wave (km/s) = 5.55775 6.30260 5.94186
#
# Compressibility (1/GPa) = 0.03560790
#
# Stress axis : x y z
#
# Youngs Moduli (GPa) = 128.99755 91.85938 35.61224
#
# Poissons Ratio (x) = 0.22313 0.00999
# Poissons Ratio (y) = 0.31334 0.10134
# Poissons Ratio (z) = 0.03619 0.26141
#
# Static dielectric constant tensor:
#      x y z
#    x 1.723290 0.000000 0.000000 
#    y 0.000000 1.744700 0.000000 
#    z 0.000000 0.000000 1.797460 
# 
# From -- ./inp_files/14813.got.cif
#   From: 2010.05.17/outbox.cif.g08.bks.cpg/sg22_8_cif.got.tgz:14813.got - 2010.06.03 23:40:54.
