data_PCOD9327510
_publ_section_title
;
Structure prediction by ZEFSAII (Michael W. Deem and Ramdas Pophale) SiO2 
 PCOD9327510
Probable space group: F 2 2 2
;
_chemical_formula_sum "Si O2"
_cell_formula_units_Z 116
_cell_length_a 16.706961
_cell_length_b 14.435941
_cell_length_c 24.079884
_cell_angle_alpha 90.000000
_cell_angle_beta 90.000000
_cell_angle_gamma 90.000000
_cell_volume 5807.603358
_symmetry_space_group_name_H-M "F 2 2 2"
_symmetry_group_IT_number 22
_symmetry_cell_setting 'orthorhombic'
loop_
_space_group_symop_operation_xyz
x,y,z
-x,-y,z
x,-y,-z
-x,y,-z
x,1/2+y,1/2+z
-x,1/2-y,1/2+z
x,1/2-y,1/2-z
-x,1/2+y,1/2-z
1/2+x,y,1/2+z
1/2-x,-y,1/2+z
1/2+x,-y,1/2-z
1/2-x,y,1/2-z
1/2+x,1/2+y,z
1/2-x,1/2-y,z
1/2+x,1/2-y,-z
1/2-x,1/2+y,-z
loop_
_atom_site_type_symbol
_atom_site_label
_atom_site_fract_x
_atom_site_fract_y
_atom_site_fract_z
Si Si1 0.767474 0.477718 0.558424
Si Si2 0.039961 0.161321 0.211071
Si Si3 0.000000 0.000000 0.500000
Si Si4 0.914042 0.539120 0.186571
Si Si5 0.834899 0.804819 0.115097
Si Si6 0.612543 0.369199 0.570625
Si Si7 0.794291 0.886462 0.650609
Si Si8 0.864855 0.704674 0.688893
O O1 0.807633 0.500000 0.500000
O O2 0.819076 0.409528 0.596114
O O3 0.692090 0.412384 0.544394
O O4 0.731488 0.563799 0.593166
O O5 0.030285 0.250000 0.250000
O O6 0.070112 0.082110 0.253086
O O7 0.108435 0.185026 0.167739
O O8 0.950807 0.153986 0.184335
O O9 0.045610 0.928531 0.540372
O O10 0.889217 0.608252 0.136904
O O11 0.847796 0.459191 0.184824
O O12 0.000000 0.500000 0.168963
O O13 0.750000 0.750000 0.124900
O O14 0.880929 0.741403 0.069588
O O15 0.847564 0.792368 0.647753
O O16 0.710974 0.861071 0.679899
O O17 0.859250 0.750000 0.750000
#
# Coordination Sequence:
#
# PCOD9327510 Si02
#       8
#    16  16   4  16  16  16  16  16
#     4  10  22  43  62  88 125 170 222 271 325 390
#     4  11  22  39  63  92 134 175 202 264 336 392
#     4  12  20  36  76  92 130 160 222 288 334 384
#     4  11  21  36  62  94 135 169 212 259 326 395
#     4  10  23  42  61  91 133 169 216 269 327 411
#     4  10  21  39  60  96 127 166 211 276 327 384
#     4  10  22  40  64  93 126 172 219 276 315 393
#     4  10  22  41  63  94 132 166 220 271 325 387
#
# _framework density 19.973814999999998
#
# number of rings (size 3 to 8) (size 9 to 14) (size 15 to 20)
#    0.000    1.655    2.759    2.483    0.000    3.586 
#    7.448    1.379    0.000    0.828    0.000    0.000 
#    0.000    0.000    0.000    0.000    0.000    0.000 
#
# Total GULP energy -161624.312854 kJ/mol
# GULP energy per Si atom -5573.252167 kJ/mol
# Density = 1.992835 g / cm^3
# Si number density = 19.973815 Si / 1000 Ang^3
#
#
#
# Elastic Constant Matrix: (Units=GPa)
#
#
# Indices 1 2 3 4 5 6 
#
# 1 111.0190 45.8261 44.3614 0.0000 0.0000 0.0000
# 2 45.8261 79.4210 33.2529 0.0000 0.0000 0.0000
# 3 44.3614 33.2529 67.0567 0.0000 0.0000 0.0000
# 4 0.0000 0.0000 0.0000 15.3717 0.0000 0.0000
# 5 0.0000 0.0000 0.0000 0.0000 -56.8567 0.0000
# 6 0.0000 0.0000 0.0000 0.0000 0.0000 33.1576
#
#
#
# Elastic Compliance Matrix: (Units=1/GPa)
#
#
# Indices 1 2 3 4 5 6 
#
# 1 0.013765 -0.005212 -0.006522 0.000000 0.000000 0.000000
# 2 -0.005212 0.017864 -0.005411 0.000000 0.000000 0.000000
# 3 -0.006522 -0.005411 0.021910 0.000000 0.000000 0.000000
# 4 0.000000 0.000000 0.000000 0.065054 0.000000 0.000000
# 5 0.000000 0.000000 0.000000 0.000000 -0.017588 0.000000
# 6 0.000000 0.000000 0.000000 0.000000 0.000000 0.030159
#
#
# Mechanical properties :
#
#
# Convention : Reuss Voigt Hill
#
# Bulk Modulus (GPa) = 51.94623 56.04194 53.99409
# Shear Modulus (GPa) = 29.09197 7.27161 18.18179
#
# Velocity S-wave (km/s) = 3.82056 1.91010 3.02036
# Velocity P-wave (km/s) = 6.74729 5.74310 6.26535
#
# Compressibility (1/GPa) = 0.01925067
#
# Stress axis : x y z
#
# Youngs Moduli (GPa) = 72.64983 55.97945 45.64080
#
# Poissons Ratio (x) = 0.29175 0.29765
# Poissons Ratio (y) = 0.37863 0.24695
# Poissons Ratio (z) = 0.47379 0.30289
#
# Static dielectric constant tensor:
#      x y z
#    x 1.717680 0.000000 0.000000 
#    y 0.000000 1.829920 0.000000 
#    z 0.000000 0.000000 1.738850 
# 
# From -- ./inp_files/49492.got.cif
#   From: 2010.05.17/outbox.cif.g08.bks.cpg/sg22_25_cif.got.tgz:49492.got - 2010.06.03 23:40:54.
