data_PCOD9327515
_publ_section_title
;
Structure prediction by ZEFSAII (Michael W. Deem and Ramdas Pophale) SiO2 
 PCOD9327515
Probable space group: F 2 2 2
;
_chemical_formula_sum "Si O2"
_cell_formula_units_Z 80
_cell_length_a 10.148499
_cell_length_b 24.728678
_cell_length_c 15.208545
_cell_angle_alpha 90.000000
_cell_angle_beta 90.000000
_cell_angle_gamma 90.000000
_cell_volume 3816.720696
_symmetry_space_group_name_H-M "F 2 2 2"
_symmetry_group_IT_number 22
_symmetry_cell_setting 'orthorhombic'
loop_
_space_group_symop_operation_xyz
x,y,z
-x,-y,z
x,-y,-z
-x,y,-z
x,1/2+y,1/2+z
-x,1/2-y,1/2+z
x,1/2-y,1/2-z
-x,1/2+y,1/2-z
1/2+x,y,1/2+z
1/2-x,-y,1/2+z
1/2+x,-y,1/2-z
1/2-x,y,1/2-z
1/2+x,1/2+y,z
1/2-x,1/2-y,z
1/2+x,1/2-y,-z
1/2-x,1/2+y,-z
loop_
_atom_site_type_symbol
_atom_site_label
_atom_site_fract_x
_atom_site_fract_y
_atom_site_fract_z
Si Si1 0.703563 0.643280 0.126708
Si Si2 0.341480 0.936731 0.994465
Si Si3 0.946947 0.689053 0.213896
Si Si4 0.127592 0.211705 0.968290
Si Si5 0.278007 0.641223 0.345839
O O1 0.776107 0.589045 0.093330
O O2 0.823398 0.683977 0.148443
O O3 0.604228 0.647654 0.209136
O O4 0.627684 0.665671 0.042735
O O5 0.500000 0.930513 0.000000
O O6 0.289944 0.902907 0.078142
O O7 0.310429 0.000000 0.000000
O O8 0.955150 0.750000 0.250000
O O9 0.082771 0.672285 0.167365
O O10 0.250000 0.250000 0.979928
O O11 0.162184 0.182841 0.875710
O O12 0.000000 0.244190 0.000000
O O13 0.250000 0.617678 0.250000
#
# Coordination Sequence:
#
# PCOD9327515 Si02
#       5
#    16  16  16  16  16
#     4  10  21  39  61  91 131 172 225 276 331 405
#     4  10  21  44  68  91 127 178 235 289 348 403
#     4  11  22  37  62  96 137 178 217 271 336 412
#     4  11  25  38  61  90 134 183 225 270 334 407
#     4  11  25  40  63  94 136 169 228 281 340 403
#
# _framework density 20.960401999999998
#
# number of rings (size 3 to 8) (size 9 to 14) (size 15 to 20)
#    0.000    1.400    2.000    3.600    8.400    0.000 
#    3.600    0.000    0.000   20.400    0.000    0.000 
#    0.000    0.000    0.000    0.000    0.000    0.000 
#
# Total GULP energy -111564.350446 kJ/mol
# GULP energy per Si atom -5578.217522 kJ/mol
# Density = 2.091269 g / cm^3
# Si number density = 20.960402 Si / 1000 Ang^3
#
#
#
# Elastic Constant Matrix: (Units=GPa)
#
#
# Indices 1 2 3 4 5 6 
#
# 1 122.5875 33.9033 34.6824 0.0000 0.0000 0.0000
# 2 33.9033 106.1206 43.9029 0.0000 0.0000 0.0000
# 3 34.6824 43.9029 121.3445 0.0000 0.0000 0.0000
# 4 0.0000 0.0000 0.0000 29.7683 0.0000 0.0000
# 5 0.0000 0.0000 0.0000 0.0000 42.8155 0.0000
# 6 0.0000 0.0000 0.0000 0.0000 0.0000 24.9545
#
#
#
# Elastic Compliance Matrix: (Units=1/GPa)
#
#
# Indices 1 2 3 4 5 6 
#
# 1 0.009292 -0.002199 -0.001860 0.000000 0.000000 0.000000
# 2 -0.002199 0.011602 -0.003569 0.000000 0.000000 0.000000
# 3 -0.001860 -0.003569 0.010064 0.000000 0.000000 0.000000
# 4 0.000000 0.000000 0.000000 0.033593 0.000000 0.000000
# 5 0.000000 0.000000 0.000000 0.000000 0.023356 0.000000
# 6 0.000000 0.000000 0.000000 0.000000 0.000000 0.040073
#
#
# Mechanical properties :
#
#
# Convention : Reuss Voigt Hill
#
# Bulk Modulus (GPa) = 63.68846 63.89221 63.79034
# Shear Modulus (GPa) = 33.67666 35.34527 34.51096
#
# Velocity S-wave (km/s) = 4.01269 4.11090 4.06209
# Velocity P-wave (km/s) = 7.20555 7.28568 7.24573
#
# Compressibility (1/GPa) = 0.01570143
#
# Stress axis : x y z
#
# Youngs Moduli (GPa) = 107.62076 86.18902 99.36355
#
# Poissons Ratio (x) = 0.18953 0.18483
# Poissons Ratio (y) = 0.23666 0.35466
# Poissons Ratio (z) = 0.20019 0.30763
#
# Static dielectric constant tensor:
#      x y z
#    x 1.880400 0.000000 0.000000 
#    y 0.000000 1.723740 0.000000 
#    z 0.000000 0.000000 1.841040 
# 
# From -- ./inp_files/28107.got.cif
#   From: 2010.05.17/outbox.cif.g08.bks.cpg/sg22_15_cif.got.tgz:28107.got - 2010.06.03 23:40:54.
