data_PCOD9327534
_publ_section_title
;
Structure prediction by ZEFSAII (Michael W. Deem and Ramdas Pophale) SiO2 
 PCOD9327534
Probable space group: F 2 2 2
;
_chemical_formula_sum "Si O2"
_cell_formula_units_Z 100
_cell_length_a 23.314232
_cell_length_b 13.904508
_cell_length_c 14.574505
_cell_angle_alpha 90.000000
_cell_angle_beta 90.000000
_cell_angle_gamma 90.000000
_cell_volume 4724.659921
_symmetry_space_group_name_H-M "F 2 2 2"
_symmetry_group_IT_number 22
_symmetry_cell_setting 'orthorhombic'
loop_
_space_group_symop_operation_xyz
x,y,z
-x,-y,z
x,-y,-z
-x,y,-z
x,1/2+y,1/2+z
-x,1/2-y,1/2+z
x,1/2-y,1/2-z
-x,1/2+y,1/2-z
1/2+x,y,1/2+z
1/2-x,-y,1/2+z
1/2+x,-y,1/2-z
1/2-x,y,1/2-z
1/2+x,1/2+y,z
1/2-x,1/2-y,z
1/2+x,1/2-y,-z
1/2-x,1/2+y,-z
loop_
_atom_site_type_symbol
_atom_site_label
_atom_site_fract_x
_atom_site_fract_y
_atom_site_fract_z
Si Si1 0.933118 0.888800 0.308086
Si Si2 0.750000 0.750000 0.750000
Si Si3 0.340835 0.385902 0.846332
Si Si4 0.443460 0.618906 0.288341
Si Si5 0.314338 0.107343 0.293141
Si Si6 0.596323 0.115179 0.007451
Si Si7 0.314579 0.277301 0.019961
O O1 0.869384 0.865917 0.271004
O O2 0.939986 0.864256 0.415754
O O3 0.991815 0.853112 0.261780
O O4 0.938132 0.003332 0.295954
O O5 0.709837 0.679982 0.807590
O O6 0.397234 0.355901 0.788975
O O7 0.326137 0.497488 0.826942
O O8 0.342781 0.356312 0.952452
O O9 0.427444 0.645740 0.393263
O O10 0.250000 0.111379 0.250000
O O11 0.315666 0.178815 0.378869
O O12 0.652443 0.177620 0.991987
O O13 0.606711 0.000000 0.000000
O O14 0.250000 0.250000 0.996133
#
# Coordination Sequence:
#
# PCOD9327534 Si02
#       7
#    16   4  16  16  16  16  16
#     4   9  19  38  66  93 129 169 217 261 324 386
#     4  12  20  40  68  96 128 164 210 272 324 388
#     4  11  23  41  66  95 129 163 214 268 330 386
#     4   9  19  38  65  96 126 168 212 270 324 385
#     4  11  24  44  67  93 127 173 215 266 330 393
#     4  10  21  39  64  93 126 168 214 269 323 380
#     4  12  26  41  61  91 129 168 216 267 324 393
#
# _framework density 21.165545000000002
#
# number of rings (size 3 to 8) (size 9 to 14) (size 15 to 20)
#    0.000    1.600    1.600    2.880    0.000    6.720 
#    0.000    7.200    0.000    3.840    0.000    0.000 
#    0.000    0.000    0.000    0.000    0.000    0.000 
#
# Total GULP energy -139501.747059 kJ/mol
# GULP energy per Si atom -5580.069882 kJ/mol
# Density = 2.111737 g / cm^3
# Si number density = 21.165545 Si / 1000 Ang^3
#
#
#
# Elastic Constant Matrix: (Units=GPa)
#
#
# Indices 1 2 3 4 5 6 
#
# 1 184.8477 32.6758 73.2180 0.0000 0.0000 0.0000
# 2 32.6758 54.1857 19.2255 0.0000 0.0000 0.0000
# 3 73.2180 19.2255 123.2350 0.0000 0.0000 0.0000
# 4 0.0000 0.0000 0.0000 37.9858 0.0000 0.0000
# 5 0.0000 0.0000 0.0000 0.0000 13.2551 0.0000
# 6 0.0000 0.0000 0.0000 0.0000 0.0000 -26.8348
#
#
#
# Elastic Compliance Matrix: (Units=1/GPa)
#
#
# Indices 1 2 3 4 5 6 
#
# 1 0.007546 -0.003133 -0.003994 0.000000 0.000000 0.000000
# 2 -0.003133 0.020837 -0.001389 0.000000 0.000000 0.000000
# 3 -0.003994 -0.001389 0.010705 0.000000 0.000000 0.000000
# 4 0.000000 0.000000 0.000000 0.026326 0.000000 0.000000
# 5 0.000000 0.000000 0.000000 0.000000 0.075443 0.000000
# 6 0.000000 0.000000 0.000000 0.000000 0.000000 -0.037265
#
#
# Mechanical properties :
#
#
# Convention : Reuss Voigt Hill
#
# Bulk Modulus (GPa) = 45.34315 68.05632 56.69974
# Shear Modulus (GPa) = 39.06976 20.69117 29.88046
#
# Velocity S-wave (km/s) = 4.30107 3.13003 3.76140
# Velocity P-wave (km/s) = 6.79229 6.72955 6.76099
#
# Compressibility (1/GPa) = 0.02205405
#
# Stress axis : x y z
#
# Youngs Moduli (GPa) = 132.52177 47.99072 93.41809
#
# Poissons Ratio (x) = 0.15036 0.37316
# Poissons Ratio (y) = 0.41521 0.12978
# Poissons Ratio (z) = 0.52936 0.06667
#
# Static dielectric constant tensor:
#      x y z
#    x 1.817700 0.000000 0.000000 
#    y 0.000000 1.762870 0.000000 
#    z 0.000000 0.000000 1.794510 
# 
# From -- ./inp_files/32478.got.cif
#   From: 2010.05.17/outbox.cif.g08.bks.cpg/sg22_17_cif.got.tgz:32478.got - 2010.06.03 23:40:54.
