data_PCOD9327917
_publ_section_title
;
Structure prediction by ZEFSAII (Michael W. Deem and Ramdas Pophale) SiO2 
 PCOD9327917
Probable space group: F 2 2 2
;
_chemical_formula_sum "Si O2"
_cell_formula_units_Z 96
_cell_length_a 15.999116
_cell_length_b 22.946819
_cell_length_c 13.680673
_cell_angle_alpha 90.000000
_cell_angle_beta 90.000000
_cell_angle_gamma 90.000000
_cell_volume 5022.569322
_symmetry_space_group_name_H-M "F 2 2 2"
_symmetry_group_IT_number 22
_symmetry_cell_setting 'orthorhombic'
loop_
_space_group_symop_operation_xyz
x,y,z
-x,-y,z
x,-y,-z
-x,y,-z
x,1/2+y,1/2+z
-x,1/2-y,1/2+z
x,1/2-y,1/2-z
-x,1/2+y,1/2-z
1/2+x,y,1/2+z
1/2-x,-y,1/2+z
1/2+x,-y,1/2-z
1/2-x,y,1/2-z
1/2+x,1/2+y,z
1/2-x,1/2-y,z
1/2+x,1/2-y,-z
1/2-x,1/2+y,-z
loop_
_atom_site_type_symbol
_atom_site_label
_atom_site_fract_x
_atom_site_fract_y
_atom_site_fract_z
Si Si1 0.123132 0.465862 0.248437
Si Si2 0.423204 0.294375 0.828621
Si Si3 0.750000 0.750000 0.624868
Si Si4 0.646964 0.854338 0.971199
Si Si5 0.000000 0.721403 0.000000
Si Si6 0.947810 0.590032 0.781020
Si Si7 0.758256 0.449945 0.580768
O O1 0.097030 0.532956 0.262088
O O2 0.160483 0.440003 0.349815
O O3 0.191178 0.468405 0.162696
O O4 0.043575 0.430488 0.207066
O O5 0.460032 0.250000 0.750000
O O6 0.323025 0.287518 0.824230
O O7 0.445794 0.358693 0.797905
O O8 0.457297 0.266086 0.926073
O O9 0.699968 0.700298 0.567516
O O10 0.599373 0.886667 0.879585
O O11 0.573167 0.823274 0.033939
O O12 0.711525 0.896729 0.025898
O O13 0.773451 0.500000 0.500000
#
# Coordination Sequence:
#
# PCOD9327917 Si02
#       7
#    16  16   8  16   8  16  16
#     4  10  25  42  62  97 128 169 217 258 339 384
#     4  11  22  38  62  93 127 164 207 272 324 380
#     4  10  23  36  64  99 114 162 221 262 326 369
#     4  11  22  40  69  92 128 168 222 271 316 389
#     4  10  22  40  59  99 124 166 220 260 336 388
#     4  11  22  42  65  91 132 170 210 273 321 391
#     4  11  23  42  65  93 129 168 212 274 320 390
#
# _framework density 19.113723
#
# number of rings (size 3 to 8) (size 9 to 14) (size 15 to 20)
#    0.000    1.333    5.000    1.250    2.333    2.667 
#    0.000    0.833    0.000    0.000    0.000    0.000 
#    0.000    0.000    0.000    0.000    0.000    0.000 
#
# Total GULP energy -133605.572075 kJ/mol
# GULP energy per Si atom -5566.898836 kJ/mol
# Density = 1.907022 g / cm^3
# Si number density = 19.113723 Si / 1000 Ang^3
#
#
#
# Elastic Constant Matrix: (Units=GPa)
#
#
# Indices 1 2 3 4 5 6 
#
# 1 81.3839 34.5911 32.8077 0.0000 0.0000 0.0000
# 2 34.5911 118.2972 28.9450 0.0000 0.0000 0.0000
# 3 32.8077 28.9450 78.2283 0.0000 0.0000 0.0000
# 4 0.0000 0.0000 0.0000 19.7341 0.0000 0.0000
# 5 0.0000 0.0000 0.0000 0.0000 24.5038 0.0000
# 6 0.0000 0.0000 0.0000 0.0000 0.0000 23.4739
#
#
#
# Elastic Compliance Matrix: (Units=1/GPa)
#
#
# Indices 1 2 3 4 5 6 
#
# 1 0.015888 -0.003316 -0.005436 0.000000 0.000000 0.000000
# 2 -0.003316 0.009987 -0.002305 0.000000 0.000000 0.000000
# 3 -0.005436 -0.002305 0.015916 0.000000 0.000000 0.000000
# 4 0.000000 0.000000 0.000000 0.050674 0.000000 0.000000
# 5 0.000000 0.000000 0.000000 0.000000 0.040810 0.000000
# 6 0.000000 0.000000 0.000000 0.000000 0.000000 0.042601
#
#
# Mechanical properties :
#
#
# Convention : Reuss Voigt Hill
#
# Bulk Modulus (GPa) = 50.82005 52.28856 51.55431
# Shear Modulus (GPa) = 24.44418 25.64673 25.04545
#
# Velocity S-wave (km/s) = 3.58002 3.66703 3.62379
# Velocity P-wave (km/s) = 6.61322 6.73390 6.67383
#
# Compressibility (1/GPa) = 0.01967727
#
# Stress axis : x y z
#
# Youngs Moduli (GPa) = 62.93936 100.13313 62.83068
#
# Poissons Ratio (x) = 0.33201 0.34158
# Poissons Ratio (y) = 0.20869 0.14480
# Poissons Ratio (z) = 0.34217 0.23077
#
# Static dielectric constant tensor:
#      x y z
#    x 1.710510 0.000000 0.000000 
#    y 0.000000 1.730860 0.000000 
#    z 0.000000 0.000000 1.648150 
# 
# From -- ./inp_files/29398.got.cif
#   From: 2010.05.17/outbox.cif.g08.bks.cpg/sg22_15_cif.got.tgz:29398.got - 2010.06.03 23:40:54.
