data_PCOD9327837
_publ_section_title
;
Structure prediction by ZEFSAII (Michael W. Deem and Ramdas Pophale) SiO2 
 PCOD9327837
Probable space group: F 2 2 2
;
_chemical_formula_sum "Si O2"
_cell_formula_units_Z 68
_cell_length_a 11.035220
_cell_length_b 20.054568
_cell_length_c 15.543468
_cell_angle_alpha 90.000000
_cell_angle_beta 90.000000
_cell_angle_gamma 90.000000
_cell_volume 3439.871587
_symmetry_space_group_name_H-M "F 2 2 2"
_symmetry_group_IT_number 22
_symmetry_cell_setting 'orthorhombic'
loop_
_space_group_symop_operation_xyz
x,y,z
-x,-y,z
x,-y,-z
-x,y,-z
x,1/2+y,1/2+z
-x,1/2-y,1/2+z
x,1/2-y,1/2-z
-x,1/2+y,1/2-z
1/2+x,y,1/2+z
1/2-x,-y,1/2+z
1/2+x,-y,1/2-z
1/2-x,y,1/2-z
1/2+x,1/2+y,z
1/2-x,1/2-y,z
1/2+x,1/2-y,-z
1/2-x,1/2+y,-z
loop_
_atom_site_type_symbol
_atom_site_label
_atom_site_fract_x
_atom_site_fract_y
_atom_site_fract_z
Si Si1 0.300669 0.875674 0.863919
Si Si2 0.631009 0.298814 0.473198
Si Si3 0.439874 0.429902 0.210509
Si Si4 0.250000 0.750000 0.750000
Si Si5 0.888887 0.178658 0.275773
O O1 0.377674 0.927099 0.805875
O O2 0.163620 0.902401 0.853437
O O3 0.312009 0.803929 0.813970
O O4 0.340518 0.857970 0.959401
O O5 0.500000 0.267193 0.500000
O O6 0.750000 0.250000 0.472445
O O7 0.608168 0.327312 0.378196
O O8 0.500000 0.500000 0.189308
O O9 0.544927 0.376512 0.220864
O O10 0.942054 0.250000 0.250000
O O11 0.750000 0.178366 0.250000
#
# Coordination Sequence:
#
# PCOD9327837 Si02
#       5
#    16  16  16   4  16
#     4  10  22  37  67  98 126 173 226 279 343 400
#     4  12  24  41  64 103 142 173 229 286 351 403
#     4  10  23  41  67  93 131 178 227 276 338 419
#     4   8  16  32  60  96 116 156 214 268 318 412
#     4  11  24  41  63  98 131 175 221 283 347 394
#
# _framework density 19.768180000000001
#
# number of rings (size 3 to 8) (size 9 to 14) (size 15 to 20)
#    0.000    1.647    5.882    0.000   13.176    0.000 
#    0.000    2.353    0.000    1.412    0.000    0.000 
#    0.000    0.000    0.000    0.000    0.000    0.000 
#
# Total GULP energy -94757.840980 kJ/mol
# GULP energy per Si atom -5573.990646 kJ/mol
# Density = 1.972319 g / cm^3
# Si number density = 19.768180 Si / 1000 Ang^3
#
#
#
# Elastic Constant Matrix: (Units=GPa)
#
#
# Indices 1 2 3 4 5 6 
#
# 1 127.5131 57.5373 6.5952 0.0000 0.0000 0.0000
# 2 57.5373 101.8621 11.8151 0.0000 0.0000 0.0000
# 3 6.5952 11.8151 98.2002 0.0000 0.0000 0.0000
# 4 0.0000 0.0000 0.0000 12.4559 0.0000 0.0000
# 5 0.0000 0.0000 0.0000 0.0000 2.6804 0.0000
# 6 0.0000 0.0000 0.0000 0.0000 0.0000 21.5320
#
#
#
# Elastic Compliance Matrix: (Units=1/GPa)
#
#
# Indices 1 2 3 4 5 6 
#
# 1 0.010525 -0.005946 0.000009 0.000000 0.000000 0.000000
# 2 -0.005946 0.013315 -0.001203 0.000000 0.000000 0.000000
# 3 0.000009 -0.001203 0.010327 0.000000 0.000000 0.000000
# 4 0.000000 0.000000 0.000000 0.080283 0.000000 0.000000
# 5 0.000000 0.000000 0.000000 0.000000 0.373073 0.000000
# 6 0.000000 0.000000 0.000000 0.000000 0.000000 0.046443
#
#
# Mechanical properties :
#
#
# Convention : Reuss Voigt Hill
#
# Bulk Modulus (GPa) = 50.28346 53.27451 51.77899
# Shear Modulus (GPa) = 9.01102 24.10886 16.55994
#
# Velocity S-wave (km/s) = 2.13734 3.49604 2.89746
# Velocity P-wave (km/s) = 5.61986 6.58061 6.11912
#
# Compressibility (1/GPa) = 0.01988725
#
# Stress axis : x y z
#
# Youngs Moduli (GPa) = 95.01285 75.10136 96.82970
#
# Poissons Ratio (x) = 0.44655 -0.00083
# Poissons Ratio (y) = 0.56495 0.11646
# Poissons Ratio (z) = -0.00081 0.09033
#
# Static dielectric constant tensor:
#      x y z
#    x 1.785060 0.000000 0.000000 
#    y 0.000000 1.689100 0.000000 
#    z 0.000000 0.000000 1.696540 
# 
# From -- ./inp_files/22342.got.cif
#   From: 2010.05.17/outbox.cif.g08.bks.cpg/sg22_12_cif.got.tgz:22342.got - 2010.06.03 23:40:54.
