data_PCOD9327645
_publ_section_title
;
Structure prediction by ZEFSAII (Michael W. Deem and Ramdas Pophale) SiO2 
 PCOD9327645
Probable space group: F 2 2 2
;
_chemical_formula_sum "Si O2"
_cell_formula_units_Z 80
_cell_length_a 10.833385
_cell_length_b 27.637002
_cell_length_c 12.492433
_cell_angle_alpha 90.000000
_cell_angle_beta 90.000000
_cell_angle_gamma 90.000000
_cell_volume 3740.262959
_symmetry_space_group_name_H-M "F 2 2 2"
_symmetry_group_IT_number 22
_symmetry_cell_setting 'orthorhombic'
loop_
_space_group_symop_operation_xyz
x,y,z
-x,-y,z
x,-y,-z
-x,y,-z
x,1/2+y,1/2+z
-x,1/2-y,1/2+z
x,1/2-y,1/2-z
-x,1/2+y,1/2-z
1/2+x,y,1/2+z
1/2-x,-y,1/2+z
1/2+x,-y,1/2-z
1/2-x,y,1/2-z
1/2+x,1/2+y,z
1/2-x,1/2-y,z
1/2+x,1/2-y,-z
1/2-x,1/2+y,-z
loop_
_atom_site_type_symbol
_atom_site_label
_atom_site_fract_x
_atom_site_fract_y
_atom_site_fract_z
Si Si1 0.750000 0.347618 0.750000
Si Si2 0.500000 0.000000 0.169246
Si Si3 0.000000 0.333176 0.500000
Si Si4 0.779560 0.500000 0.000000
Si Si5 0.621467 0.098523 0.191178
Si Si6 0.230675 0.397067 0.481065
Si Si7 0.498525 0.802404 0.270283
O O1 0.757906 0.380519 0.642509
O O2 0.634060 0.313230 0.724807
O O3 0.624668 0.995613 0.098778
O O4 0.526541 0.054097 0.216520
O O5 0.880555 0.365174 0.475387
O O6 0.976669 0.302639 0.603797
O O7 0.697279 0.547010 0.007963
O O8 0.750000 0.086178 0.250000
O O9 0.576982 0.150531 0.233189
O O10 0.652166 0.104878 0.063322
O O11 0.442664 0.750000 0.250000
#
# Coordination Sequence:
#
# PCOD9327645 Si02
#       7
#     8   8   8   8  16  16  16
#     4  10  23  42  66  94 130 178 218 280 335 398
#     4   9  20  38  62  91 128 166 223 264 321 388
#     4  10  22  43  58  92 136 167 214 284 328 402
#     4   9  18  37  62  90 120 173 220 269 316 396
#     4  11  22  43  66  99 133 177 220 281 327 408
#     4  10  21  41  63  93 134 169 222 268 335 389
#     4  11  24  43  67  96 132 176 227 275 342 394
#
# _framework density 21.388870000000001
#
# number of rings (size 3 to 8) (size 9 to 14) (size 15 to 20)
#    0.000    1.800    2.000    1.500    0.000    4.800 
#   23.400    2.000    0.000    0.000    0.000    0.000 
#    0.000    0.000    0.000    0.000    0.000    0.000 
#
# Total GULP energy -111379.401686 kJ/mol
# GULP energy per Si atom -5568.970084 kJ/mol
# Density = 2.134019 g / cm^3
# Si number density = 21.388870 Si / 1000 Ang^3
#
#
#
# Elastic Constant Matrix: (Units=GPa)
#
#
# Indices 1 2 3 4 5 6 
#
# 1 42.9393 16.1624 1.1518 0.0000 0.0000 0.0000
# 2 16.1624 158.4550 31.6276 0.0000 0.0000 0.0000
# 3 1.1518 31.6276 66.1083 0.0000 0.0000 0.0000
# 4 0.0000 0.0000 0.0000 5.9004 0.0000 0.0000
# 5 0.0000 0.0000 0.0000 0.0000 15.1792 0.0000
# 6 0.0000 0.0000 0.0000 0.0000 0.0000 44.0002
#
#
#
# Elastic Compliance Matrix: (Units=1/GPa)
#
#
# Indices 1 2 3 4 5 6 
#
# 1 0.024261 -0.002643 0.000842 0.000000 0.000000 0.000000
# 2 -0.002643 0.007265 -0.003430 0.000000 0.000000 0.000000
# 3 0.000842 -0.003430 0.016753 0.000000 0.000000 0.000000
# 4 0.000000 0.000000 0.000000 0.169479 0.000000 0.000000
# 5 0.000000 0.000000 0.000000 0.000000 0.065880 0.000000
# 6 0.000000 0.000000 0.000000 0.000000 0.000000 0.022727
#
#
# Mechanical properties :
#
#
# Convention : Reuss Voigt Hill
#
# Bulk Modulus (GPa) = 26.44293 40.59845 33.52069
# Shear Modulus (GPa) = 15.17768 27.58670 21.38219
#
# Velocity S-wave (km/s) = 2.66673 3.59523 3.16521
# Velocity P-wave (km/s) = 4.67672 6.02134 5.39112
#
# Compressibility (1/GPa) = 0.03781729
#
# Stress axis : x y z
#
# Youngs Moduli (GPa) = 41.21882 137.64526 59.69124
#
# Poissons Ratio (x) = 0.36374 -0.05024
# Poissons Ratio (y) = 0.10892 0.20472
# Poissons Ratio (z) = -0.03469 0.47208
#
# Static dielectric constant tensor:
#      x y z
#    x 1.776490 0.000000 0.000000 
#    y 0.000000 1.826200 0.000000 
#    z 0.000000 0.000000 1.836840 
# 
# From -- ./inp_files/28176.got.cif
#   From: 2010.05.17/outbox.cif.g08.bks.cpg/sg22_15_cif.got.tgz:28176.got - 2010.06.03 23:40:54.
