data_PCOD9327176
_publ_section_title
;
Structure prediction by ZEFSAII (Michael W. Deem and Ramdas Pophale) SiO2 
 PCOD9327176
Probable space group: F 2 2 2
;
_chemical_formula_sum "Si O2"
_cell_formula_units_Z 112
_cell_length_a 16.720966
_cell_length_b 12.194634
_cell_length_c 28.521329
_cell_angle_alpha 90.000000
_cell_angle_beta 90.000000
_cell_angle_gamma 90.000000
_cell_volume 5815.671837
_symmetry_space_group_name_H-M "F 2 2 2"
_symmetry_group_IT_number 22
_symmetry_cell_setting 'orthorhombic'
loop_
_space_group_symop_operation_xyz
x,y,z
-x,-y,z
x,-y,-z
-x,y,-z
x,1/2+y,1/2+z
-x,1/2-y,1/2+z
x,1/2-y,1/2-z
-x,1/2+y,1/2-z
1/2+x,y,1/2+z
1/2-x,-y,1/2+z
1/2+x,-y,1/2-z
1/2-x,y,1/2-z
1/2+x,1/2+y,z
1/2-x,1/2-y,z
1/2+x,1/2-y,-z
1/2-x,1/2+y,-z
loop_
_atom_site_type_symbol
_atom_site_label
_atom_site_fract_x
_atom_site_fract_y
_atom_site_fract_z
Si Si1 0.981989 0.375153 0.555049
Si Si2 0.816038 0.340338 0.603538
Si Si3 0.440347 0.682270 0.297235
Si Si4 0.746546 0.419676 0.392303
Si Si5 0.871659 0.782770 0.304416
Si Si6 0.194790 0.485244 0.795429
Si Si7 0.880961 0.756394 0.602200
O O1 0.892461 0.344023 0.569586
O O2 0.000000 0.500000 0.573136
O O3 0.000000 0.377219 0.500000
O O4 0.039953 0.283671 0.576796
O O5 0.750000 0.250000 0.591653
O O6 0.773610 0.457726 0.597835
O O7 0.849649 0.307551 0.656028
O O8 0.427975 0.750000 0.250000
O O9 0.535232 0.682119 0.307096
O O10 0.392826 0.568753 0.289166
O O11 0.401250 0.737646 0.342730
O O12 0.738005 0.416956 0.335968
O O13 0.815224 0.336572 0.407365
O O14 0.661714 0.372011 0.410425
O O15 0.857286 0.750000 0.250000
O O16 0.819050 0.890916 0.312684
O O17 0.250000 0.483977 0.750000
#
# Coordination Sequence:
#
# PCOD9327176 Si02
#       7
#    16  16  16  16  16  16  16
#     4  11  24  46  72  98 128 169 219 276 344 409
#     4  12  23  42  65 100 134 174 217 274 330 396
#     4  10  21  36  55  87 121 170 217 269 327 383
#     4  10  21  35  62  93 125 168 215 260 334 382
#     4  11  23  35  56  86 129 175 224 267 319 390
#     4  11  21  35  53  82 127 173 221 271 320 386
#     4  10  20  40  63  92 127 166 212 273 325 398
#
# _framework density 19.258308
#
# number of rings (size 3 to 8) (size 9 to 14) (size 15 to 20)
#    0.000    1.286    4.286    2.143    0.000    1.429 
#    2.571    2.143    0.000    0.857    0.000    0.000 
#    0.000    0.000    0.000    0.000    0.000    0.000 
#
# Total GULP energy -156177.443476 kJ/mol
# GULP energy per Si atom -5577.765838 kJ/mol
# Density = 1.921448 g / cm^3
# Si number density = 19.258308 Si / 1000 Ang^3
#
#
#
# Elastic Constant Matrix: (Units=GPa)
#
#
# Indices 1 2 3 4 5 6 
#
# 1 145.4243 66.6467 37.5727 0.0000 0.0000 0.0000
# 2 66.6467 112.8651 33.5887 0.0000 0.0000 0.0000
# 3 37.5727 33.5887 57.3051 0.0000 0.0000 0.0000
# 4 0.0000 0.0000 0.0000 19.8796 0.0000 0.0000
# 5 0.0000 0.0000 0.0000 0.0000 14.5240 0.0000
# 6 0.0000 0.0000 0.0000 0.0000 0.0000 -175.7444
#
#
#
# Elastic Compliance Matrix: (Units=1/GPa)
#
#
# Indices 1 2 3 4 5 6 
#
# 1 0.010059 -0.004817 -0.003771 0.000000 0.000000 0.000000
# 2 -0.004817 0.013039 -0.004484 0.000000 0.000000 0.000000
# 3 -0.003771 -0.004484 0.022552 0.000000 0.000000 0.000000
# 4 0.000000 0.000000 0.000000 0.050303 0.000000 0.000000
# 5 0.000000 0.000000 0.000000 0.000000 0.068852 0.000000
# 6 0.000000 0.000000 0.000000 0.000000 0.000000 -0.005690
#
#
# Mechanical properties :
#
#
# Convention : Reuss Voigt Hill
#
# Bulk Modulus (GPa) = 51.27291 65.69009 58.48150
# Shear Modulus (GPa) = 26.07416 -16.41573 4.82922
#
# Velocity S-wave (km/s) = 3.68355 -2.92275 1.58526
# Velocity P-wave (km/s) = 6.69126 4.77431 5.81236
#
# Compressibility (1/GPa) = 0.01950348
#
# Stress axis : x y z
#
# Youngs Moduli (GPa) = 99.41833 76.69174 44.34259
#
# Poissons Ratio (x) = 0.36944 0.16724
# Poissons Ratio (y) = 0.47891 0.19885
# Poissons Ratio (z) = 0.37495 0.34391
#
# Static dielectric constant tensor:
#      x y z
#    x 1.691960 0.000000 0.000000 
#    y 0.000000 1.688330 0.000000 
#    z 0.000000 0.000000 3.050850 
# 
# From -- ./inp_files/20281.got.cif
#   From: 2010.05.17/outbox.cif.g08.bks.cpg/sg22_11_cif.got.tgz:20281.got - 2010.06.03 23:40:54.
