data_PCOD9327770
_publ_section_title
;
Structure prediction by ZEFSAII (Michael W. Deem and Ramdas Pophale) SiO2 
 PCOD9327770
Probable space group: F 2 2 2
;
_chemical_formula_sum "Si O2"
_cell_formula_units_Z 104
_cell_length_a 22.386026
_cell_length_b 7.724306
_cell_length_c 25.447260
_cell_angle_alpha 90.000000
_cell_angle_beta 90.000000
_cell_angle_gamma 90.000000
_cell_volume 4400.251514
_symmetry_space_group_name_H-M "F 2 2 2"
_symmetry_group_IT_number 22
_symmetry_cell_setting 'orthorhombic'
loop_
_space_group_symop_operation_xyz
x,y,z
-x,-y,z
x,-y,-z
-x,y,-z
x,1/2+y,1/2+z
-x,1/2-y,1/2+z
x,1/2-y,1/2-z
-x,1/2+y,1/2-z
1/2+x,y,1/2+z
1/2-x,-y,1/2+z
1/2+x,-y,1/2-z
1/2-x,y,1/2-z
1/2+x,1/2+y,z
1/2-x,1/2-y,z
1/2+x,1/2-y,-z
1/2-x,1/2+y,-z
loop_
_atom_site_type_symbol
_atom_site_label
_atom_site_fract_x
_atom_site_fract_y
_atom_site_fract_z
Si Si1 0.000000 0.500000 0.904711
Si Si2 0.558788 0.690813 0.966185
Si Si3 0.815912 0.794884 0.505318
Si Si4 0.435150 0.542129 0.249165
Si Si5 0.383548 0.373845 0.347297
Si Si6 0.686703 0.707292 0.627868
Si Si7 0.099650 0.503719 0.636230
O O1 0.957803 0.627901 0.937996
O O2 0.950055 0.394365 0.872381
O O3 0.618081 0.710264 0.003139
O O4 0.568916 0.555854 0.917998
O O5 0.500000 0.662884 0.000000
O O6 0.750000 0.750000 0.481154
O O7 0.810222 0.743855 0.566562
O O8 0.822920 0.000000 0.500000
O O9 0.500000 0.500000 0.271712
O O10 0.426187 0.750000 0.250000
O O11 0.390320 0.434183 0.286493
O O12 0.364212 0.317268 0.134944
O O13 0.337226 0.513899 0.369482
O O14 0.437004 0.028393 0.310278
O O15 0.750000 0.750000 0.652568
O O16 0.639211 0.838273 0.651067
#
# Coordination Sequence:
#
# PCOD9327770 Si02
#       7
#     8  16  16  16  16  16  16
#     4  12  21  42  68 106 146 194 235 310 368 432
#     4  11  24  45  72 104 152 199 250 310 380 439
#     4  10  21  44  68  99 138 192 252 309 366 444
#     4  12  23  41  70 103 145 190 234 295 366 438
#     4  12  24  43  71 108 143 187 238 295 375 438
#     4  10  23  48  72  99 145 190 240 309 372 435
#     4  11  25  44  69 106 147 186 245 302 361 449
#
# _framework density 23.635014000000002
#
# number of rings (size 3 to 8) (size 9 to 14) (size 15 to 20)
#    0.000    0.923    5.385    2.538    2.154    0.615 
#    8.308    5.385    0.000    1.846    0.000    0.000 
#    0.000    0.000    0.000    0.000    0.000    0.000 
#
# Total GULP energy -145051.246980 kJ/mol
# GULP energy per Si atom -5578.894115 kJ/mol
# Density = 2.358122 g / cm^3
# Si number density = 23.635014 Si / 1000 Ang^3
#
#
#
# Elastic Constant Matrix: (Units=GPa)
#
#
# Indices 1 2 3 4 5 6 
#
# 1 121.3907 15.0213 33.5029 0.0000 0.0001 0.0000
# 2 15.0213 147.3331 20.2355 0.0000 0.0003 -0.0001
# 3 33.5029 20.2355 65.6145 0.0000 0.0000 0.0000
# 4 0.0000 0.0000 0.0000 17.4910 0.0000 0.0000
# 5 0.0001 0.0003 0.0000 0.0000 63.1544 0.0000
# 6 0.0000 -0.0001 0.0000 0.0000 0.0000 8.9429
#
#
#
# Elastic Compliance Matrix: (Units=1/GPa)
#
#
# Indices 1 2 3 4 5 6 
#
# 1 0.009604 -0.000319 -0.004805 0.000000 0.000000 0.000000
# 2 -0.000319 0.007098 -0.002026 0.000000 0.000000 0.000000
# 3 -0.004805 -0.002026 0.018319 0.000000 0.000000 0.000000
# 4 0.000000 0.000000 0.000000 0.057172 0.000000 0.000000
# 5 0.000000 0.000000 0.000000 0.000000 0.015834 0.000000
# 6 0.000000 0.000000 0.000000 0.000000 0.000000 0.111821
#
#
# Mechanical properties :
#
#
# Convention : Reuss Voigt Hill
#
# Bulk Modulus (GPa) = 48.26310 52.42862 50.34586
# Shear Modulus (GPa) = 20.74209 35.62288 28.18249
#
# Velocity S-wave (km/s) = 2.96565 3.88649 3.45687
# Velocity P-wave (km/s) = 5.67373 6.50926 6.10581
#
# Compressibility (1/GPa) = 0.02071976
#
# Stress axis : x y z
#
# Youngs Moduli (GPa) = 104.12818 140.88163 54.58834
#
# Poissons Ratio (x) = 0.04496 0.26231
# Poissons Ratio (y) = 0.03323 0.11060
# Poissons Ratio (z) = 0.50035 0.28544
#
# Static dielectric constant tensor:
#      x y z
#    x 2.067090 0.000000 0.000000 
#    y 0.000000 1.623210 0.000000 
#    z 0.000000 0.000000 1.976830 
# 
# From -- ./inp_files/54162.got.cif
#   From: 2010.05.17/outbox.cif.g08.bks.cpg/sg22_28_cif.got.tgz:54162.got - 2010.06.03 23:40:54.
