data_PCOD9327751
_publ_section_title
;
Structure prediction by ZEFSAII (Michael W. Deem and Ramdas Pophale) SiO2 
 PCOD9327751
Probable space group: F 2 2 2
;
_chemical_formula_sum "Si O2"
_cell_formula_units_Z 68
_cell_length_a 20.656760
_cell_length_b 5.254828
_cell_length_c 27.889321
_cell_angle_alpha 90.000000
_cell_angle_beta 90.000000
_cell_angle_gamma 90.000000
_cell_volume 3027.322230
_symmetry_space_group_name_H-M "F 2 2 2"
_symmetry_group_IT_number 22
_symmetry_cell_setting 'orthorhombic'
loop_
_space_group_symop_operation_xyz
x,y,z
-x,-y,z
x,-y,-z
-x,y,-z
x,1/2+y,1/2+z
-x,1/2-y,1/2+z
x,1/2-y,1/2-z
-x,1/2+y,1/2-z
1/2+x,y,1/2+z
1/2-x,-y,1/2+z
1/2+x,-y,1/2-z
1/2-x,y,1/2-z
1/2+x,1/2+y,z
1/2-x,1/2-y,z
1/2+x,1/2-y,-z
1/2-x,1/2+y,-z
loop_
_atom_site_type_symbol
_atom_site_label
_atom_site_fract_x
_atom_site_fract_y
_atom_site_fract_z
Si Si1 0.000000 0.500000 0.367122
Si Si2 0.323854 0.271100 0.808041
Si Si3 0.904850 0.274374 0.807399
Si Si4 0.500000 0.500000 0.500000
Si Si5 0.089305 0.148632 0.951524
Si Si6 0.288058 0.000000 0.500000
O O1 0.027118 0.280054 0.332958
O O2 0.058961 0.548401 0.403392
O O3 0.320618 0.250000 0.750000
O O4 0.250000 0.250000 0.826041
O O5 0.356169 0.540933 0.819361
O O6 0.370185 0.036414 0.822201
O O7 0.914288 0.250000 0.750000
O O8 0.554690 0.413578 0.461003
O O9 0.165349 0.112121 0.958025
O O10 0.065719 0.000000 0.000000
O O11 0.250000 0.250000 0.483140
#
# Coordination Sequence:
#
# PCOD9327751 Si02
#       6
#     8  16  16   4  16   8
#     4  12  23  44  63  98 138 177 235 274 338 408
#     4   9  18  39  65  88 119 171 230 280 336 391
#     4  10  23  38  61  95 134 179 224 284 338 385
#     4  12  16  40  70  98 142 156 224 272 336 406
#     4  10  22  40  67 102 127 175 218 278 336 412
#     4  10  21  43  68  97 137 174 210 276 352 408
#
# _framework density 22.462097
#
# number of rings (size 3 to 8) (size 9 to 14) (size 15 to 20)
#    0.706    1.176    2.353    1.412    0.000    8.471 
#    0.000    3.529    0.000    0.000    0.000    0.000 
#    0.000    0.000    0.000    0.000    0.000    0.000 
#
# Total GULP energy -94648.432655 kJ/mol
# GULP energy per Si atom -5567.554862 kJ/mol
# Density = 2.241097 g / cm^3
# Si number density = 22.462097 Si / 1000 Ang^3
#
#
#
# Elastic Constant Matrix: (Units=GPa)
#
#
# Indices 1 2 3 4 5 6 
#
# 1 132.0506 55.2986 39.3377 -0.0002 0.0023 -0.0073
# 2 55.2986 106.3884 13.8141 0.0008 0.0009 -0.0409
# 3 39.3377 13.8141 73.1990 0.0003 -0.0006 -0.0026
# 4 -0.0002 0.0008 0.0003 8.2474 -0.0011 0.0002
# 5 0.0023 0.0009 -0.0006 -0.0011 9.4307 0.0052
# 6 -0.0073 -0.0409 -0.0026 0.0002 0.0052 38.6731
#
#
#
# Elastic Compliance Matrix: (Units=1/GPa)
#
#
# Indices 1 2 3 4 5 6 
#
# 1 0.011258 -0.005193 -0.005070 0.000001 -0.000003 -0.000004
# 2 -0.005193 0.012031 0.000520 -0.000001 0.000000 0.000012
# 3 -0.005070 0.000520 0.016288 -0.000001 0.000002 0.000001
# 4 0.000001 -0.000001 -0.000001 0.121251 0.000014 -0.000001
# 5 -0.000003 0.000000 0.000002 0.000014 0.106036 -0.000014
# 6 -0.000004 0.000012 0.000001 -0.000001 -0.000014 0.025858
#
#
# Mechanical properties :
#
#
# Convention : Reuss Voigt Hill
#
# Bulk Modulus (GPa) = 49.77305 58.72654 54.24979
# Shear Modulus (GPa) = 15.67864 24.81607 20.24735
#
# Velocity S-wave (km/s) = 2.64484 3.32746 3.00559
# Velocity P-wave (km/s) = 5.61549 6.40032 6.02071
#
# Compressibility (1/GPa) = 0.02009119
#
# Stress axis : x y z
#
# Youngs Moduli (GPa) = 88.82539 83.11602 61.39542
#
# Poissons Ratio (x) = 0.43165 0.31128
# Poissons Ratio (y) = 0.46130 -0.03195
# Poissons Ratio (z) = 0.45035 -0.04325
#
# Static dielectric constant tensor:
#      x y z
#    x 1.893840 0.000020 0.000000 
#    y 0.000020 2.213110 0.000020 
#    z 0.000000 0.000020 1.877500 
# 
# From -- ./inp_files/53779.got.cif
#   From: 2010.05.17/outbox.cif.g08.bks.cpg/sg22_27_cif.got.tgz:53779.got - 2010.06.03 23:40:54.
