data_PCOD9327300
_publ_section_title
;
Structure prediction by ZEFSAII (Michael W. Deem and Ramdas Pophale) SiO2 
 PCOD9327300
Probable space group: F 2 2 2
;
_chemical_formula_sum "Si O2"
_cell_formula_units_Z 112
_cell_length_a 16.735746
_cell_length_b 9.995559
_cell_length_c 29.704050
_cell_angle_alpha 90.000000
_cell_angle_beta 90.000000
_cell_angle_gamma 90.000000
_cell_volume 4968.986652
_symmetry_space_group_name_H-M "F 2 2 2"
_symmetry_group_IT_number 22
_symmetry_cell_setting 'orthorhombic'
loop_
_space_group_symop_operation_xyz
x,y,z
-x,-y,z
x,-y,-z
-x,y,-z
x,1/2+y,1/2+z
-x,1/2-y,1/2+z
x,1/2-y,1/2-z
-x,1/2+y,1/2-z
1/2+x,y,1/2+z
1/2-x,-y,1/2+z
1/2+x,-y,1/2-z
1/2-x,y,1/2-z
1/2+x,1/2+y,z
1/2-x,1/2-y,z
1/2+x,1/2-y,-z
1/2-x,1/2+y,-z
loop_
_atom_site_type_symbol
_atom_site_label
_atom_site_fract_x
_atom_site_fract_y
_atom_site_fract_z
Si Si1 0.214734 0.940881 0.798693
Si Si2 0.937846 0.705764 0.106826
Si Si3 0.378699 0.236198 0.603710
Si Si4 0.844012 0.993026 0.552355
Si Si5 0.954951 0.198328 0.800212
Si Si6 0.694732 0.435521 0.896762
Si Si7 0.632119 0.300256 0.199437
O O1 0.250000 0.899393 0.750000
O O2 0.243024 0.907460 0.849372
O O3 0.205737 0.099395 0.799013
O O4 0.124061 0.889307 0.800991
O O5 0.909925 0.574216 0.081028
O O6 0.942125 0.690542 0.161151
O O7 0.026584 0.755217 0.093957
O O8 0.873545 0.823992 0.098141
O O9 0.339137 0.340646 0.569800
O O10 0.346193 0.083653 0.604116
O O11 0.361547 0.288916 0.654782
O O12 0.759692 0.062401 0.564083
O O13 0.862336 0.000000 0.500000
O O14 0.957983 0.250000 0.750000
O O15 0.042657 0.138007 0.809275
O O16 0.627318 0.250000 0.250000
#
# Coordination Sequence:
#
# PCOD9327300 Si02
#       7
#    16  16  16  16  16  16  16
#     4  10  21  33  54  87 123 163 208 262 306 374
#     4  10  22  42  68  95 128 170 222 276 325 389
#     4  10  22  42  68  95 128 170 222 276 325 389
#     4  12  27  45  66  96 134 173 217 280 345 392
#     4   9  19  35  56  84 121 165 208 253 313 382
#     4  10  23  43  65  94 132 174 217 265 330 404
#     4   9  19  35  56  84 121 165 208 253 313 382
#
# _framework density 22.539807
#
# number of rings (size 3 to 8) (size 9 to 14) (size 15 to 20)
#    0.000    2.000    0.000    2.143    4.000    7.429 
#    0.000    4.286    0.000    2.571    0.000    0.000 
#    0.000    0.000    0.000    0.000    0.000    0.000 
#
# Total GULP energy -156147.907058 kJ/mol
# GULP energy per Si atom -5576.710966 kJ/mol
# Density = 2.248851 g / cm^3
# Si number density = 22.539807 Si / 1000 Ang^3
#
#
#
# Elastic Constant Matrix: (Units=GPa)
#
#
# Indices 1 2 3 4 5 6 
#
# 1 81.6595 16.1488 20.3183 0.0000 0.0000 0.0000
# 2 16.1488 80.4779 42.2142 0.0000 0.0000 0.0000
# 3 20.3183 42.2142 138.4121 0.0000 0.0000 0.0000
# 4 0.0000 0.0000 0.0000 3.2840 0.0000 0.0000
# 5 0.0000 0.0000 0.0000 0.0000 39.6902 0.0000
# 6 0.0000 0.0000 0.0000 0.0000 0.0000 35.3629
#
#
#
# Elastic Compliance Matrix: (Units=1/GPa)
#
#
# Indices 1 2 3 4 5 6 
#
# 1 0.012951 -0.001907 -0.001320 0.000000 0.000000 0.000000
# 2 -0.001907 0.015073 -0.004317 0.000000 0.000000 0.000000
# 3 -0.001320 -0.004317 0.008735 0.000000 0.000000 0.000000
# 4 0.000000 0.000000 0.000000 0.304509 0.000000 0.000000
# 5 0.000000 0.000000 0.000000 0.000000 0.025195 0.000000
# 6 0.000000 0.000000 0.000000 0.000000 0.000000 0.028278
#
#
# Mechanical properties :
#
#
# Convention : Reuss Voigt Hill
#
# Bulk Modulus (GPa) = 46.14140 50.87913 48.51026
# Shear Modulus (GPa) = 11.98889 30.45863 21.22376
#
# Velocity S-wave (km/s) = 2.30879 3.68003 3.07190
# Velocity P-wave (km/s) = 5.25575 6.37799 5.84387
#
# Compressibility (1/GPa) = 0.02167251
#
# Stress axis : x y z
#
# Youngs Moduli (GPa) = 77.21187 66.34421 114.47893
#
# Poissons Ratio (x) = 0.12649 0.15108
# Poissons Ratio (y) = 0.14721 0.49423
# Poissons Ratio (z) = 0.10190 0.28642
#
# Static dielectric constant tensor:
#      x y z
#    x 1.895950 0.000000 0.000000 
#    y 0.000000 1.849140 0.000000 
#    z 0.000000 0.000000 1.872940 
# 
# From -- ./inp_files/56471.got.cif
#   From: 2010.05.17/outbox.cif.g08.bks.cpg/sg22_29_cif.got.tgz:56471.got - 2010.06.03 23:40:54.
