data_PCOD9327230
_publ_section_title
;
Structure prediction by ZEFSAII (Michael W. Deem and Ramdas Pophale) SiO2 
 PCOD9327230
Probable space group: F 2 2 2
;
_chemical_formula_sum "Si O2"
_cell_formula_units_Z 60
_cell_length_a 14.698493
_cell_length_b 15.431586
_cell_length_c 11.564861
_cell_angle_alpha 90.000000
_cell_angle_beta 90.000000
_cell_angle_gamma 90.000000
_cell_volume 2623.154017
_symmetry_space_group_name_H-M "F 2 2 2"
_symmetry_group_IT_number 22
_symmetry_cell_setting 'orthorhombic'
loop_
_space_group_symop_operation_xyz
x,y,z
-x,-y,z
x,-y,-z
-x,y,-z
x,1/2+y,1/2+z
-x,1/2-y,1/2+z
x,1/2-y,1/2-z
-x,1/2+y,1/2-z
1/2+x,y,1/2+z
1/2-x,-y,1/2+z
1/2+x,-y,1/2-z
1/2-x,y,1/2-z
1/2+x,1/2+y,z
1/2-x,1/2-y,z
1/2+x,1/2-y,-z
1/2-x,1/2+y,-z
loop_
_atom_site_type_symbol
_atom_site_label
_atom_site_fract_x
_atom_site_fract_y
_atom_site_fract_z
Si Si1 0.393894 0.660890 0.910524
Si Si2 0.940310 0.353990 0.243702
Si Si3 0.250000 0.547494 0.250000
Si Si4 0.750000 0.750000 0.250000
Si Si5 0.500000 0.819219 0.000000
Si Si6 0.203420 0.500000 0.500000
O O1 0.481218 0.627728 0.838019
O O2 0.315297 0.688941 0.823671
O O3 0.419173 0.750617 0.974126
O O4 0.357839 0.585865 0.991864
O O5 0.928796 0.250000 0.250000
O O6 0.843576 0.398733 0.256113
O O7 0.979791 0.371727 0.115475
O O8 0.254833 0.501008 0.376146
#
# Coordination Sequence:
#
# PCOD9327230 Si02
#       6
#    16  16   8   4   8   8
#     4  11  24  43  70 101 145 184 248 291 370 426
#     4  10  22  43  66 105 132 184 237 308 350 424
#     4  12  28  44  70  96 154 186 240 290 373 433
#     4  12  22  44  76 106 140 198 240 310 342 458
#     4  10  20  41  68 103 136 182 244 312 356 405
#     4  12  28  47  68 109 144 204 232 301 366 443
#
# _framework density 22.873228999999998
#
# number of rings (size 3 to 8) (size 9 to 14) (size 15 to 20)
#    0.000    1.067    4.000    4.400    3.733    6.933 
#    0.000    0.000    0.000    1.600    0.000    0.000 
#    0.000    0.000    0.000    0.000    0.000    0.000 
#
# Total GULP energy -83844.798869 kJ/mol
# GULP energy per Si atom -5589.653258 kJ/mol
# Density = 2.282117 g / cm^3
# Si number density = 22.873229 Si / 1000 Ang^3
#
#
#
# Elastic Constant Matrix: (Units=GPa)
#
#
# Indices 1 2 3 4 5 6 
#
# 1 113.7330 26.2195 42.5386 0.0000 0.0000 0.0000
# 2 26.2195 38.7304 21.2323 0.0000 0.0000 0.0000
# 3 42.5386 21.2323 172.9206 0.0000 0.0000 0.0000
# 4 0.0000 0.0000 0.0000 36.3678 0.0000 0.0000
# 5 0.0000 0.0000 0.0000 0.0000 44.5154 0.0000
# 6 0.0000 0.0000 0.0000 0.0000 0.0000 4.6751
#
#
#
# Elastic Compliance Matrix: (Units=1/GPa)
#
#
# Indices 1 2 3 4 5 6 
#
# 1 0.010981 -0.006383 -0.001918 0.000000 0.000000 0.000000
# 2 -0.006383 0.031393 -0.002284 0.000000 0.000000 0.000000
# 3 -0.001918 -0.002284 0.006535 0.000000 0.000000 0.000000
# 4 0.000000 0.000000 0.000000 0.027497 0.000000 0.000000
# 5 0.000000 0.000000 0.000000 0.000000 0.022464 0.000000
# 6 0.000000 0.000000 0.000000 0.000000 0.000000 0.213897
#
#
# Mechanical properties :
#
#
# Convention : Reuss Voigt Hill
#
# Bulk Modulus (GPa) = 36.04957 56.15162 46.10059
# Shear Modulus (GPa) = 14.56946 32.80457 23.68702
#
# Velocity S-wave (km/s) = 2.52656 3.79118 3.22153
# Velocity P-wave (km/s) = 4.93012 6.61562 5.83406
#
# Compressibility (1/GPa) = 0.02773958
#
# Stress axis : x y z
#
# Youngs Moduli (GPa) = 91.06454 31.85443 153.01629
#
# Poissons Ratio (x) = 0.20332 0.29344
# Poissons Ratio (y) = 0.58124 0.34956
# Poissons Ratio (z) = 0.17463 0.07277
#
# Static dielectric constant tensor:
#      x y z
#    x 1.868530 0.000000 0.000000 
#    y 0.000000 1.847920 0.000000 
#    z 0.000000 0.000000 2.006950 
# 
# From -- ./inp_files/17819.got.cif
#   From: 2010.05.17/outbox.cif.g08.bks.cpg/sg22_9_cif.got.tgz:17819.got - 2010.06.03 23:40:54.
