data_PCOD9327361
_publ_section_title
;
Structure prediction by ZEFSAII (Michael W. Deem and Ramdas Pophale) SiO2 
 PCOD9327361
Probable space group: F 2 2 2
;
_chemical_formula_sum "Si O2"
_cell_formula_units_Z 68
_cell_length_a 20.066186
_cell_length_b 5.063993
_cell_length_c 29.742999
_cell_angle_alpha 90.000000
_cell_angle_beta 90.000000
_cell_angle_gamma 90.000000
_cell_volume 3022.335600
_symmetry_space_group_name_H-M "F 2 2 2"
_symmetry_group_IT_number 22
_symmetry_cell_setting 'orthorhombic'
loop_
_space_group_symop_operation_xyz
x,y,z
-x,-y,z
x,-y,-z
-x,y,-z
x,1/2+y,1/2+z
-x,1/2-y,1/2+z
x,1/2-y,1/2-z
-x,1/2+y,1/2-z
1/2+x,y,1/2+z
1/2-x,-y,1/2+z
1/2+x,-y,1/2-z
1/2-x,y,1/2-z
1/2+x,1/2+y,z
1/2-x,1/2-y,z
1/2+x,1/2-y,-z
1/2-x,1/2+y,-z
loop_
_atom_site_type_symbol
_atom_site_label
_atom_site_fract_x
_atom_site_fract_y
_atom_site_fract_z
Si Si1 0.334434 0.500000 0.000000
Si Si2 0.619736 0.507024 0.720838
Si Si3 0.932507 0.347347 0.432781
Si Si4 0.250000 0.750000 0.250000
Si Si5 0.613527 0.640468 0.380767
Si Si6 0.250000 0.750000 0.922255
O O1 0.386401 0.303022 0.976649
O O2 0.288670 0.568672 0.958003
O O3 0.609475 0.250000 0.750000
O O4 0.698952 0.578211 0.720684
O O5 0.599543 0.437819 0.670494
O O6 0.589569 0.750000 0.750000
O O7 0.902934 0.560183 0.396183
O O8 0.000000 0.500000 0.445413
O O9 0.929460 0.064715 0.409557
O O10 0.692329 0.612392 0.393011
#
# Coordination Sequence:
#
# PCOD9327361 Si02
#       6
#     8  16  16   4  16   8
#     4  10  21  40  62  94 125 168 200 262 314 386
#     4  10  21  36  57  89 127 159 205 239 307 380
#     4  11  24  43  65  89 122 170 221 260 304 365
#     4   8  22  28  60  84 126 160 194 238 302 382
#     4  11  24  39  65  95 129 166 202 268 315 377
#     4  10  22  36  66  96 140 156 207 251 346 390
#
# _framework density 22.499157
#
# number of rings (size 3 to 8) (size 9 to 14) (size 15 to 20)
#    0.706    0.941    0.000    4.235    3.294    7.529 
#    0.000    4.706    0.000   14.118    0.000    0.000 
#    0.000    0.000    0.000    0.000    0.000    0.000 
#
# Total GULP energy -94689.793175 kJ/mol
# GULP energy per Si atom -5569.987834 kJ/mol
# Density = 2.244795 g / cm^3
# Si number density = 22.499157 Si / 1000 Ang^3
#
#
#
# Elastic Constant Matrix: (Units=GPa)
#
#
# Indices 1 2 3 4 5 6 
#
# 1 82.1815 7.0648 8.5151 0.0068 -0.0004 0.0029
# 2 7.0648 108.8103 26.4100 0.1189 0.0042 0.0036
# 3 8.5151 26.4100 112.4164 0.0107 -0.0005 0.0010
# 4 0.0068 0.1189 0.0107 -160.3004 0.0087 -0.0254
# 5 -0.0004 0.0042 -0.0005 0.0087 1.6410 -0.0015
# 6 0.0029 0.0036 0.0010 -0.0254 -0.0015 4.1993
#
#
#
# Elastic Compliance Matrix: (Units=1/GPa)
#
#
# Indices 1 2 3 4 5 6 
#
# 1 0.012302 -0.000607 -0.000789 0.000000 0.000004 -0.000008
# 2 -0.000607 0.009776 -0.002251 0.000007 -0.000026 -0.000007
# 3 -0.000789 -0.002251 0.009484 -0.000001 0.000009 0.000000
# 4 0.000000 0.000007 -0.000001 -0.006238 0.000033 -0.000038
# 5 0.000004 -0.000026 0.000009 0.000033 0.609402 0.000215
# 6 -0.000008 -0.000007 0.000000 -0.000038 0.000215 0.238137
#
#
# Mechanical properties :
#
#
# Convention : Reuss Voigt Hill
#
# Bulk Modulus (GPa) = 41.20647 43.04311 42.12479
# Shear Modulus (GPa) = 5.62907 -13.46414 -3.91753
#
# Velocity S-wave (km/s) = 1.58346 -2.44893 -1.32097
# Velocity P-wave (km/s) = 4.65806 3.34308 4.05424
#
# Compressibility (1/GPa) = 0.02426804
#
# Stress axis : x y z
#
# Youngs Moduli (GPa) = 81.28657 102.29135 105.44041
#
# Poissons Ratio (x) = 0.06211 0.08321
# Poissons Ratio (y) = 0.04936 0.23731
# Poissons Ratio (z) = 0.06415 0.23023
#
# Static dielectric constant tensor:
#      x y z
#    x 2.135140 0.000070 0.000000 
#    y 0.000070 1.822610 0.000000 
#    z 0.000000 0.000000 1.820600 
# 
# From -- ./inp_files/56888.got.cif
#   From: 2010.05.17/outbox.cif.g08.bks.cpg/sg22_29_cif.got.tgz:56888.got - 2010.06.03 23:40:54.
