data_PCOD9327280
_publ_section_title
;
Structure prediction by ZEFSAII (Michael W. Deem and Ramdas Pophale) SiO2 
 PCOD9327280
Probable space group: F 2 2 2
;
_chemical_formula_sum "Si O2"
_cell_formula_units_Z 92
_cell_length_a 17.343526
_cell_length_b 20.341961
_cell_length_c 12.700616
_cell_angle_alpha 90.000000
_cell_angle_beta 90.000000
_cell_angle_gamma 90.000000
_cell_volume 4480.794210
_symmetry_space_group_name_H-M "F 2 2 2"
_symmetry_group_IT_number 22
_symmetry_cell_setting 'orthorhombic'
loop_
_space_group_symop_operation_xyz
x,y,z
-x,-y,z
x,-y,-z
-x,y,-z
x,1/2+y,1/2+z
-x,1/2-y,1/2+z
x,1/2-y,1/2-z
-x,1/2+y,1/2-z
1/2+x,y,1/2+z
1/2-x,-y,1/2+z
1/2+x,-y,1/2-z
1/2-x,y,1/2-z
1/2+x,1/2+y,z
1/2-x,1/2-y,z
1/2+x,1/2-y,-z
1/2-x,1/2+y,-z
loop_
_atom_site_type_symbol
_atom_site_label
_atom_site_fract_x
_atom_site_fract_y
_atom_site_fract_z
Si Si1 0.000000 0.000000 0.000000
Si Si2 0.624145 0.722575 0.638699
Si Si3 0.595314 0.036714 0.886808
Si Si4 0.500000 0.854699 0.000000
Si Si5 0.615997 0.971011 0.675941
Si Si6 0.235822 0.439744 0.418142
Si Si7 0.281167 0.649286 0.107279
O O1 0.054065 0.960494 0.082201
O O2 0.591735 0.750000 0.750000
O O3 0.562910 0.688716 0.562400
O O4 0.663535 0.788623 0.597125
O O5 0.698235 0.673484 0.651825
O O6 0.541210 0.098718 0.912395
O O7 0.682036 0.060744 0.863480
O O8 0.581530 0.985206 0.791346
O O9 0.594062 0.000000 0.000000
O O10 0.676723 0.911163 0.667888
O O11 0.661082 0.038173 0.645285
O O12 0.241904 0.500000 0.500000
O O13 0.230272 0.376332 0.489219
#
# Coordination Sequence:
#
# PCOD9327280 Si02
#       7
#     4  16  16   8  16  16  16
#     4  12  24  38  62 108 146 182 216 278 370 416
#     4  11  26  43  72  97 128 191 230 291 330 404
#     4  11  25  41  69 102 143 183 215 288 358 411
#     4  12  27  49  60 104 150 172 232 274 360 434
#     4  11  24  42  69 107 142 179 227 292 358 413
#     4   9  18  40  67  99 130 173 225 287 340 395
#     4  10  20  44  72  99 130 170 251 287 329 400
#
# _framework density 20.532074000000001
#
# number of rings (size 3 to 8) (size 9 to 14) (size 15 to 20)
#    0.000    1.391    4.348    1.826    4.870    4.870 
#    3.130    0.000    0.000    0.000    0.000    0.000 
#    0.000    0.000    0.000    0.000    0.000    0.000 
#
# Total GULP energy -128200.289676 kJ/mol
# GULP energy per Si atom -5573.925638 kJ/mol
# Density = 2.048534 g / cm^3
# Si number density = 20.532074 Si / 1000 Ang^3
#
#
#
# Elastic Constant Matrix: (Units=GPa)
#
#
# Indices 1 2 3 4 5 6 
#
# 1 102.5996 26.3470 52.8745 0.0000 0.0000 0.0000
# 2 26.3470 65.8017 54.5238 0.0000 0.0000 0.0000
# 3 52.8745 54.5238 143.2224 0.0000 0.0000 0.0000
# 4 0.0000 0.0000 0.0000 35.2222 0.0000 0.0000
# 5 0.0000 0.0000 0.0000 0.0000 22.8865 0.0000
# 6 0.0000 0.0000 0.0000 0.0000 0.0000 11.9920
#
#
#
# Elastic Compliance Matrix: (Units=1/GPa)
#
#
# Indices 1 2 3 4 5 6 
#
# 1 0.012162 -0.001679 -0.003851 0.000000 0.000000 0.000000
# 2 -0.001679 0.022432 -0.007920 0.000000 0.000000 0.000000
# 3 -0.003851 -0.007920 0.011419 0.000000 0.000000 0.000000
# 4 0.000000 0.000000 0.000000 0.028391 0.000000 0.000000
# 5 0.000000 0.000000 0.000000 0.000000 0.043694 0.000000
# 6 0.000000 0.000000 0.000000 0.000000 0.000000 0.083389
#
#
# Mechanical properties :
#
#
# Convention : Reuss Voigt Hill
#
# Bulk Modulus (GPa) = 52.31844 64.34604 58.33224
# Shear Modulus (GPa) = 21.29856 25.87869 23.58863
#
# Velocity S-wave (km/s) = 3.22426 3.55407 3.39317
# Velocity P-wave (km/s) = 6.27676 6.94616 6.61993
#
# Compressibility (1/GPa) = 0.01911372
#
# Stress axis : x y z
#
# Youngs Moduli (GPa) = 82.22114 44.57946 87.57447
#
# Poissons Ratio (x) = 0.07484 0.33724
# Poissons Ratio (y) = 0.13804 0.69358
# Poissons Ratio (z) = 0.31663 0.35306
#
# Static dielectric constant tensor:
#      x y z
#    x 1.806140 0.000000 0.000000 
#    y 0.000000 1.733290 0.000000 
#    z 0.000000 0.000000 1.848110 
# 
# From -- ./inp_files/21458.got.cif
#   From: 2010.05.17/outbox.cif.g08.bks.cpg/sg22_11_cif.got.tgz:21458.got - 2010.06.03 23:40:54.
