data_PCOD9327066
_publ_section_title
;
Structure prediction by ZEFSAII (Michael W. Deem and Ramdas Pophale) SiO2 
 PCOD9327066
Probable space group: F 2 2 2
;
_chemical_formula_sum "Si O2"
_cell_formula_units_Z 88
_cell_length_a 18.311090
_cell_length_b 15.859402
_cell_length_c 15.317695
_cell_angle_alpha 90.000000
_cell_angle_beta 90.000000
_cell_angle_gamma 90.000000
_cell_volume 4448.303622
_symmetry_space_group_name_H-M "F 2 2 2"
_symmetry_group_IT_number 22
_symmetry_cell_setting 'orthorhombic'
loop_
_space_group_symop_operation_xyz
x,y,z
-x,-y,z
x,-y,-z
-x,y,-z
x,1/2+y,1/2+z
-x,1/2-y,1/2+z
x,1/2-y,1/2-z
-x,1/2+y,1/2-z
1/2+x,y,1/2+z
1/2-x,-y,1/2+z
1/2+x,-y,1/2-z
1/2-x,y,1/2-z
1/2+x,1/2+y,z
1/2-x,1/2-y,z
1/2+x,1/2-y,-z
1/2-x,1/2+y,-z
loop_
_atom_site_type_symbol
_atom_site_label
_atom_site_fract_x
_atom_site_fract_y
_atom_site_fract_z
Si Si1 0.925008 0.543598 0.092840
Si Si2 0.209324 0.500000 0.500000
Si Si3 0.535430 0.736452 0.410991
Si Si4 0.196635 0.456513 0.832150
Si Si5 0.323948 0.305302 0.027133
Si Si6 0.377612 0.222915 0.845294
O O1 0.940693 0.640199 0.074054
O O2 0.863696 0.530314 0.165805
O O3 0.000000 0.500000 0.121413
O O4 0.904752 0.500000 0.000000
O O5 0.254442 0.524116 0.414924
O O6 0.176726 0.592717 0.523182
O O7 0.500000 0.771276 0.500000
O O8 0.612457 0.782998 0.402951
O O9 0.465642 0.733946 0.347875
O O10 0.250000 0.449016 0.750000
O O11 0.149254 0.373055 0.851414
O O12 0.250000 0.250000 0.046733
O O13 0.345917 0.272577 0.929072
O O14 0.350288 0.250000 0.750000
#
# Coordination Sequence:
#
# PCOD9327066 Si02
#       6
#    16   8  16  16  16  16
#     4  11  17  34  66  97 127 165 220 285 327 382
#     4  12  24  42  64  98 140 180 216 274 348 396
#     4  10  20  38  64  93 126 170 222 268 332 391
#     4  12  24  39  65 102 135 172 225 278 344 397
#     4  11  22  40  67  97 130 175 222 270 331 412
#     4  11  23  41  66  96 128 168 221 286 329 387
#
# _framework density 19.782821999999999
#
# number of rings (size 3 to 8) (size 9 to 14) (size 15 to 20)
#    0.000    0.909    6.364    3.273    0.000    0.000 
#    3.273    4.091    0.000    0.000    0.000    0.000 
#    0.000    0.000    0.000    0.000    0.000    0.000 
#
# Total GULP energy -122495.159441 kJ/mol
# GULP energy per Si atom -5567.961793 kJ/mol
# Density = 1.973780 g / cm^3
# Si number density = 19.782822 Si / 1000 Ang^3
#
#
#
# Elastic Constant Matrix: (Units=GPa)
#
#
# Indices 1 2 3 4 5 6 
#
# 1 131.8020 46.4970 27.3505 0.0000 0.0000 0.0000
# 2 46.4970 80.3394 0.1752 0.0000 0.0000 0.0000
# 3 27.3505 0.1752 65.0876 0.0000 0.0000 0.0000
# 4 0.0000 0.0000 0.0000 17.9516 0.0000 0.0000
# 5 0.0000 0.0000 0.0000 0.0000 28.5813 0.0000
# 6 0.0000 0.0000 0.0000 0.0000 0.0000 505.8052
#
#
#
# Elastic Compliance Matrix: (Units=1/GPa)
#
#
# Indices 1 2 3 4 5 6 
#
# 1 0.010697 -0.006181 -0.004478 0.000000 0.000000 0.000000
# 2 -0.006181 0.016019 0.002554 0.000000 0.000000 0.000000
# 3 -0.004478 0.002554 0.017239 0.000000 0.000000 0.000000
# 4 0.000000 0.000000 0.000000 0.055705 0.000000 0.000000
# 5 0.000000 0.000000 0.000000 0.000000 0.034988 0.000000
# 6 0.000000 0.000000 0.000000 0.000000 0.000000 0.001977
#
#
# Mechanical properties :
#
#
# Convention : Reuss Voigt Hill
#
# Bulk Modulus (GPa) = 36.04332 47.25271 41.64801
# Shear Modulus (GPa) = 30.84819 124.01471 77.43145
#
# Velocity S-wave (km/s) = 3.95313 7.92617 6.26304
# Velocity P-wave (km/s) = 6.25263 10.37801 8.56734
#
# Compressibility (1/GPa) = 0.02774440
#
# Stress axis : x y z
#
# Youngs Moduli (GPa) = 93.48348 62.42563 58.00830
#
# Poissons Ratio (x) = 0.38587 0.25978
# Poissons Ratio (y) = 0.57784 -0.14817
# Poissons Ratio (z) = 0.41866 -0.15945
#
# Static dielectric constant tensor:
#      x y z
#    x 1.789800 0.000000 0.000000 
#    y 0.000000 1.799920 0.000000 
#    z 0.000000 0.000000 1.560990 
# 
# From -- ./inp_files/29286.got.cif
#   From: 2010.05.17/outbox.cif.g08.bks.cpg/sg22_15_cif.got.tgz:29286.got - 2010.06.03 23:40:54.
