data_PCOD9327327
_publ_section_title
;
Structure prediction by ZEFSAII (Michael W. Deem and Ramdas Pophale) SiO2 
 PCOD9327327
Probable space group: F 2 2 2
;
_chemical_formula_sum "Si O2"
_cell_formula_units_Z 96
_cell_length_a 22.723665
_cell_length_b 10.478010
_cell_length_c 19.443610
_cell_angle_alpha 90.000000
_cell_angle_beta 90.000000
_cell_angle_gamma 90.000000
_cell_volume 4629.499997
_symmetry_space_group_name_H-M "F 2 2 2"
_symmetry_group_IT_number 22
_symmetry_cell_setting 'orthorhombic'
loop_
_space_group_symop_operation_xyz
x,y,z
-x,-y,z
x,-y,-z
-x,y,-z
x,1/2+y,1/2+z
-x,1/2-y,1/2+z
x,1/2-y,1/2-z
-x,1/2+y,1/2-z
1/2+x,y,1/2+z
1/2-x,-y,1/2+z
1/2+x,-y,1/2-z
1/2-x,y,1/2-z
1/2+x,1/2+y,z
1/2-x,1/2-y,z
1/2+x,1/2-y,-z
1/2-x,1/2+y,-z
loop_
_atom_site_type_symbol
_atom_site_label
_atom_site_fract_x
_atom_site_fract_y
_atom_site_fract_z
Si Si1 0.006802 0.276271 0.881464
Si Si2 0.594922 0.048873 0.422352
Si Si3 0.443879 0.092535 0.292474
Si Si4 0.680704 0.241174 0.084280
Si Si5 0.399206 0.128390 0.037487
Si Si6 0.388265 0.465625 0.661527
O O1 0.970609 0.231122 0.814250
O O2 0.958329 0.303373 0.938900
O O3 0.047015 0.159446 0.906909
O O4 0.050416 0.392689 0.860851
O O5 0.656201 0.117153 0.406428
O O6 0.590513 0.000000 0.500000
O O7 0.585287 0.941878 0.365918
O O8 0.500000 0.000000 0.283616
O O9 0.400280 0.038652 0.233132
O O10 0.750000 0.250000 0.076289
O O11 0.658845 0.147690 0.146311
O O12 0.645880 0.194479 0.015015
O O13 0.371089 0.076040 0.107609
O O14 0.418908 0.000000 0.000000
#
# Coordination Sequence:
#
# PCOD9327327 Si02
#       6
#    16  16  16  16  16  16
#     4  10  21  35  57  89 128 161 192 247 318 389
#     4  10  22  36  56  85 118 155 201 252 310 379
#     4  10  21  35  55  85 122 159 193 240 304 378
#     4  10  23  41  60  81 112 159 210 262 310 358
#     4  10  21  35  57  87 118 154 197 247 303 372
#     4  10  22  38  57  88 123 159 203 248 310 380
#
# _framework density 20.73658
#
# number of rings (size 3 to 8) (size 9 to 14) (size 15 to 20)
#    0.000    2.000    0.000    2.500    0.000   30.333 
#    0.000    1.667    0.000    0.000    0.000    4.667 
#    0.000    0.000    0.000    0.000    0.000    0.000 
#
# Total GULP energy -133786.994260 kJ/mol
# GULP energy per Si atom -5574.458094 kJ/mol
# Density = 2.068938 g / cm^3
# Si number density = 20.736580 Si / 1000 Ang^3
#
#
#
# Elastic Constant Matrix: (Units=GPa)
#
#
# Indices 1 2 3 4 5 6 
#
# 1 127.0875 25.2392 34.2241 0.0000 0.0000 0.0000
# 2 25.2392 20.5851 -4.7662 0.0000 0.0000 0.0000
# 3 34.2241 -4.7662 121.4187 0.0000 0.0000 0.0000
# 4 0.0000 0.0000 0.0000 13.4358 0.0000 0.0000
# 5 0.0000 0.0000 0.0000 0.0000 12.9387 0.0000
# 6 0.0000 0.0000 0.0000 0.0000 0.0000 18.2921
#
#
#
# Elastic Compliance Matrix: (Units=1/GPa)
#
#
# Indices 1 2 3 4 5 6 
#
# 1 0.012078 -0.015739 -0.004022 0.000000 0.000000 0.000000
# 2 -0.015739 0.069536 0.007166 0.000000 0.000000 0.000000
# 3 -0.004022 0.007166 0.009651 0.000000 0.000000 0.000000
# 4 0.000000 0.000000 0.000000 0.074428 0.000000 0.000000
# 5 0.000000 0.000000 0.000000 0.000000 0.077288 0.000000
# 6 0.000000 0.000000 0.000000 0.000000 0.000000 0.054668
#
#
# Mechanical properties :
#
#
# Convention : Reuss Voigt Hill
#
# Bulk Modulus (GPa) = 15.13470 42.05395 28.59433
# Shear Modulus (GPa) = 14.49848 23.22626 18.86237
#
# Velocity S-wave (km/s) = 2.64706 3.35036 3.01926
# Velocity P-wave (km/s) = 4.08129 5.94060 5.09645
#
# Compressibility (1/GPa) = 0.06607331
#
# Stress axis : x y z
#
# Youngs Moduli (GPa) = 82.79847 14.38109 103.61659
#
# Poissons Ratio (x) = 0.22635 0.41676
# Poissons Ratio (y) = 1.30320 -0.74252
# Poissons Ratio (z) = 0.33302 -0.10305
#
# Static dielectric constant tensor:
#      x y z
#    x 1.728110 0.000000 0.000000 
#    y 0.000000 1.867660 0.000000 
#    z 0.000000 0.000000 1.851000 
# 
# From -- ./inp_files/22824.got.cif
#   From: 2010.05.17/outbox.cif.g08.bks.cpg/sg22_12_cif.got.tgz:22824.got - 2010.06.03 23:40:54.
