data_PCOD9327604
_publ_section_title
;
Structure prediction by ZEFSAII (Michael W. Deem and Ramdas Pophale) SiO2 
 PCOD9327604
Probable space group: F 2 2 2
;
_chemical_formula_sum "Si O2"
_cell_formula_units_Z 88
_cell_length_a 23.936684
_cell_length_b 21.537017
_cell_length_c 7.982504
_cell_angle_alpha 90.000000
_cell_angle_beta 90.000000
_cell_angle_gamma 90.000000
_cell_volume 4115.178540
_symmetry_space_group_name_H-M "F 2 2 2"
_symmetry_group_IT_number 22
_symmetry_cell_setting 'orthorhombic'
loop_
_space_group_symop_operation_xyz
x,y,z
-x,-y,z
x,-y,-z
-x,y,-z
x,1/2+y,1/2+z
-x,1/2-y,1/2+z
x,1/2-y,1/2-z
-x,1/2+y,1/2-z
1/2+x,y,1/2+z
1/2-x,-y,1/2+z
1/2+x,-y,1/2-z
1/2-x,y,1/2-z
1/2+x,1/2+y,z
1/2-x,1/2-y,z
1/2+x,1/2-y,-z
1/2-x,1/2+y,-z
loop_
_atom_site_type_symbol
_atom_site_label
_atom_site_fract_x
_atom_site_fract_y
_atom_site_fract_z
Si Si1 0.515004 0.072694 0.315142
Si Si2 0.360354 0.914985 0.378119
Si Si3 0.597361 0.612504 0.259442
Si Si4 0.310703 0.717934 0.094153
Si Si5 0.630392 0.750000 0.250000
Si Si6 0.693692 0.970962 0.176162
O O1 0.500000 0.100148 0.500000
O O2 0.579728 0.086451 0.280887
O O3 0.465586 0.095075 0.196807
O O4 0.500000 0.000000 0.326228
O O5 0.383024 0.912419 0.572137
O O6 0.319350 0.855426 0.372394
O O7 0.328688 0.974965 0.302582
O O8 0.598582 0.685950 0.273491
O O9 0.645145 0.578304 0.363673
O O10 0.341999 0.750000 0.250000
O O11 0.250000 0.750000 0.091340
O O12 0.334904 0.735650 0.915802
O O13 0.750000 0.940992 0.250000
O O14 0.709841 0.000000 0.000000
#
# Coordination Sequence:
#
# PCOD9327604 Si02
#       6
#    16  16  16  16   8  16
#     4   9  16  34  66  91 120 161 209 266 325 388
#     4  10  21  40  65  91 124 167 212 270 325 387
#     4  10  21  41  64  94 123 165 217 260 329 395
#     4  10  23  40  63  91 126 172 219 263 328 396
#     4  10  23  40  66  88 128 170 215 268 322 396
#     4  12  26  39  62  91 128 163 212 270 328 391
#
# _framework density 21.384249000000001
#
# number of rings (size 3 to 8) (size 9 to 14) (size 15 to 20)
#    0.000    1.818    1.818    1.909    5.091    2.909 
#    1.636    1.818    0.000    0.000    0.000    0.000 
#    0.000    0.000    0.000    0.000    0.000    0.000 
#
# Total GULP energy -122512.242421 kJ/mol
# GULP energy per Si atom -5568.738292 kJ/mol
# Density = 2.133558 g / cm^3
# Si number density = 21.384249 Si / 1000 Ang^3
#
#
#
# Elastic Constant Matrix: (Units=GPa)
#
#
# Indices 1 2 3 4 5 6 
#
# 1 138.8763 47.3668 -1.6281 -0.0001 0.0000 -0.0008
# 2 47.3668 121.4170 16.9624 0.0007 -0.0003 0.0053
# 3 -1.6281 16.9624 30.9256 0.0014 -0.0016 0.0083
# 4 -0.0001 0.0007 0.0014 14.8246 -0.0007 0.0044
# 5 0.0000 -0.0003 -0.0016 -0.0007 11.6376 -0.0035
# 6 -0.0008 0.0053 0.0083 0.0044 -0.0035 93.4274
#
#
#
# Elastic Compliance Matrix: (Units=1/GPa)
#
#
# Indices 1 2 3 4 5 6 
#
# 1 0.008473 -0.003647 0.002447 0.000000 0.000000 0.000000
# 2 -0.003647 0.010490 -0.005945 0.000000 -0.000001 0.000000
# 3 0.002447 -0.005945 0.035725 -0.000003 0.000005 -0.000003
# 4 0.000000 0.000000 -0.000003 0.067455 0.000004 -0.000003
# 5 0.000000 -0.000001 0.000005 0.000004 0.085928 0.000003
# 6 0.000000 0.000000 -0.000003 -0.000003 0.000003 0.010703
#
#
# Mechanical properties :
#
#
# Convention : Reuss Voigt Hill
#
# Bulk Modulus (GPa) = 24.75492 46.29123 35.52307
# Shear Modulus (GPa) = 20.28124 39.21246 29.74685
#
# Velocity S-wave (km/s) = 3.08298 4.28683 3.73374
# Velocity P-wave (km/s) = 4.92691 6.79683 5.93596
#
# Compressibility (1/GPa) = 0.04039602
#
# Stress axis : x y z
#
# Youngs Moduli (GPa) = 118.01693 95.33262 27.99122
#
# Poissons Ratio (x) = 0.34772 -0.06848
# Poissons Ratio (y) = 0.43046 0.16642
# Poissons Ratio (z) = -0.28874 0.56679
#
# Static dielectric constant tensor:
#      x y z
#    x 1.770170 0.000000 -0.000030 
#    y 0.000000 1.801250 0.000000 
#    z -0.000030 0.000000 1.778700 
# 
# From -- ./inp_files/12633.got.cif
#   From: 2010.05.17/outbox.cif.g08.bks.cpg/sg22_7_cif.got.tgz:12633.got - 2010.06.03 23:40:54.
