data_PCOD9327591
_publ_section_title
;
Structure prediction by ZEFSAII (Michael W. Deem and Ramdas Pophale) SiO2 
 PCOD9327591
Probable space group: F 2 2 2
;
_chemical_formula_sum "Si O2"
_cell_formula_units_Z 100
_cell_length_a 11.526224
_cell_length_b 29.594543
_cell_length_c 14.659655
_cell_angle_alpha 90.000000
_cell_angle_beta 90.000000
_cell_angle_gamma 90.000000
_cell_volume 5000.603760
_symmetry_space_group_name_H-M "F 2 2 2"
_symmetry_group_IT_number 22
_symmetry_cell_setting 'orthorhombic'
loop_
_space_group_symop_operation_xyz
x,y,z
-x,-y,z
x,-y,-z
-x,y,-z
x,1/2+y,1/2+z
-x,1/2-y,1/2+z
x,1/2-y,1/2-z
-x,1/2+y,1/2-z
1/2+x,y,1/2+z
1/2-x,-y,1/2+z
1/2+x,-y,1/2-z
1/2-x,y,1/2-z
1/2+x,1/2+y,z
1/2-x,1/2-y,z
1/2+x,1/2-y,-z
1/2-x,1/2+y,-z
loop_
_atom_site_type_symbol
_atom_site_label
_atom_site_fract_x
_atom_site_fract_y
_atom_site_fract_z
Si Si1 0.761051 0.803543 0.948953
Si Si2 0.250000 0.651405 0.250000
Si Si3 0.664714 0.877988 0.073415
Si Si4 0.500000 0.848267 0.500000
Si Si5 0.962506 0.411843 0.202739
Si Si6 0.626810 0.542974 0.546326
Si Si7 0.105173 0.923085 0.873652
Si Si8 0.500000 0.500000 0.000000
O O1 0.750000 0.750000 0.953993
O O2 0.741435 0.820397 0.844598
O O3 0.890849 0.818566 0.973619
O O4 0.684677 0.829189 0.027701
O O5 0.134785 0.620159 0.246700
O O6 0.544147 0.885269 0.128005
O O7 0.766648 0.901162 0.133079
O O8 0.680654 0.910191 0.984539
O O9 0.534372 0.881785 0.418825
O O10 0.895359 0.452841 0.152345
O O11 0.049793 0.431538 0.276123
O O12 0.684561 0.500000 0.500000
O O13 0.500000 0.543808 0.500000
O O14 0.078293 0.966568 0.937056
#
# Coordination Sequence:
#
# PCOD9327591 Si02
#       8
#    16   8  16   8  16  16  16   4
#     4  11  23  41  67  97 128 170 218 266 330 388
#     4  12  23  40  66  98 126 172 214 278 323 386
#     4  10  22  40  65  91 128 173 210 264 326 388
#     4   9  20  41  62  88 130 170 207 268 321 396
#     4  11  22  40  66  93 127 170 214 271 325 383
#     4   9  19  36  61  85 121 160 204 257 312 370
#     4  10  21  40  63  92 127 172 216 267 323 383
#     4  10  24  36  64  96 132 168 232 268 334 390
#
# _framework density 19.997585000000001
#
# number of rings (size 3 to 8) (size 9 to 14) (size 15 to 20)
#    0.000    1.760    3.200    0.720    1.120    3.840 
#    0.000    0.000    0.000    3.840    0.000    0.000 
#    0.000    0.000    0.000    0.000    0.000    0.000 
#
# Total GULP energy -139231.656110 kJ/mol
# GULP energy per Si atom -5569.266244 kJ/mol
# Density = 1.995207 g / cm^3
# Si number density = 19.997585 Si / 1000 Ang^3
#
#
#
# Elastic Constant Matrix: (Units=GPa)
#
#
# Indices 1 2 3 4 5 6 
#
# 1 76.9437 32.8727 30.9971 0.0000 0.0000 0.0000
# 2 32.8727 135.3026 42.3996 0.0000 0.0000 0.0000
# 3 30.9971 42.3996 97.2299 0.0000 0.0000 0.0000
# 4 0.0000 0.0000 0.0000 20.3199 0.0000 0.0000
# 5 0.0000 0.0000 0.0000 0.0000 32.4760 0.0000
# 6 0.0000 0.0000 0.0000 0.0000 0.0000 2.3723
#
#
#
# Elastic Compliance Matrix: (Units=1/GPa)
#
#
# Indices 1 2 3 4 5 6 
#
# 1 0.015661 -0.002595 -0.003861 0.000000 0.000000 0.000000
# 2 -0.002595 0.008991 -0.003093 0.000000 0.000000 0.000000
# 3 -0.003861 -0.003093 0.012865 0.000000 0.000000 0.000000
# 4 0.000000 0.000000 0.000000 0.049213 0.000000 0.000000
# 5 0.000000 0.000000 0.000000 0.000000 0.030792 0.000000
# 6 0.000000 0.000000 0.000000 0.000000 0.000000 0.421535
#
#
# Mechanical properties :
#
#
# Convention : Reuss Voigt Hill
#
# Bulk Modulus (GPa) = 54.29660 58.00168 56.14914
# Shear Modulus (GPa) = 8.86064 24.58076 16.72070
#
# Velocity S-wave (km/s) = 2.10724 3.50978 2.89474
# Velocity P-wave (km/s) = 5.75597 6.74478 6.26990
#
# Compressibility (1/GPa) = 0.01841736
#
# Stress axis : x y z
#
# Youngs Moduli (GPa) = 63.85460 111.22671 77.73183
#
# Poissons Ratio (x) = 0.28862 0.30013
# Poissons Ratio (y) = 0.16570 0.24045
# Poissons Ratio (z) = 0.24655 0.34406
#
# Static dielectric constant tensor:
#      x y z
#    x 1.781230 0.000000 0.000000 
#    y 0.000000 1.733180 0.000000 
#    z 0.000000 0.000000 1.800030 
# 
# From -- ./inp_files/28442.got.cif
#   From: 2010.05.17/outbox.cif.g08.bks.cpg/sg22_15_cif.got.tgz:28442.got - 2010.06.03 23:40:54.
