data_PCOD9327584
_publ_section_title
;
Structure prediction by ZEFSAII (Michael W. Deem and Ramdas Pophale) SiO2 
 PCOD9327584
Probable space group: F 2 2 2
;
_chemical_formula_sum "Si O2"
_cell_formula_units_Z 64
_cell_length_a 10.975141
_cell_length_b 25.916725
_cell_length_c 9.119957
_cell_angle_alpha 90.000000
_cell_angle_beta 90.000000
_cell_angle_gamma 90.000000
_cell_volume 2594.077935
_symmetry_space_group_name_H-M "F 2 2 2"
_symmetry_group_IT_number 22
_symmetry_cell_setting 'orthorhombic'
loop_
_space_group_symop_operation_xyz
x,y,z
-x,-y,z
x,-y,-z
-x,y,-z
x,1/2+y,1/2+z
-x,1/2-y,1/2+z
x,1/2-y,1/2-z
-x,1/2+y,1/2-z
1/2+x,y,1/2+z
1/2-x,-y,1/2+z
1/2+x,-y,1/2-z
1/2-x,y,1/2-z
1/2+x,1/2+y,z
1/2-x,1/2-y,z
1/2+x,1/2-y,-z
1/2-x,1/2+y,-z
loop_
_atom_site_type_symbol
_atom_site_label
_atom_site_fract_x
_atom_site_fract_y
_atom_site_fract_z
Si Si1 0.864503 0.945517 0.940052
Si Si2 0.299551 0.353104 0.456556
Si Si3 0.971922 0.125679 0.273792
Si Si4 0.390980 0.220391 0.593002
O O1 0.786193 0.901656 0.015406
O O2 0.901063 0.927717 0.773456
O O3 0.000000 0.944104 0.000000
O O4 0.813719 0.000000 0.000000
O O5 0.386147 0.366206 0.317409
O O6 0.393437 0.355087 0.590531
O O7 0.221538 0.300845 0.490822
O O8 0.947027 0.166219 0.146912
O O9 0.500000 0.246523 0.500000
O O10 0.370646 0.250000 0.750000
#
# Coordination Sequence:
#
# PCOD9327584 Si02
#       4
#    16  16  16  16
#     4  10  21  40  63 100 138 183 234 296 369 438
#     4  10  22  44  73  96 144 194 237 313 377 439
#     4  10  22  44  69 103 139 190 250 299 380 449
#     4  11  25  44  70 107 146 190 251 307 369 451
#
# _framework density 24.671579999999999
#
# number of rings (size 3 to 8) (size 9 to 14) (size 15 to 20)
#    0.000    1.750    0.000    6.000    3.500    6.000 
#   18.000    2.500    0.000    0.000    0.000    0.000 
#    0.000    0.000    0.000    0.000    0.000    0.000 
#
# Total GULP energy -89071.286133 kJ/mol
# GULP energy per Si atom -5566.955383 kJ/mol
# Density = 2.461543 g / cm^3
# Si number density = 24.671580 Si / 1000 Ang^3
#
#
#
# Elastic Constant Matrix: (Units=GPa)
#
#
# Indices 1 2 3 4 5 6 
#
# 1 147.1968 70.8231 43.8620 0.0000 0.0000 0.0000
# 2 70.8231 194.4613 49.4892 0.0000 0.0000 0.0000
# 3 43.8620 49.4892 105.7358 0.0000 0.0000 0.0000
# 4 0.0000 0.0000 0.0000 33.0754 0.0000 0.0000
# 5 0.0000 0.0000 0.0000 0.0000 42.7371 0.0000
# 6 0.0000 0.0000 0.0000 0.0000 0.0000 15.2697
#
#
#
# Elastic Compliance Matrix: (Units=1/GPa)
#
#
# Indices 1 2 3 4 5 6 
#
# 1 0.008754 -0.002570 -0.002428 0.000000 0.000000 0.000000
# 2 -0.002570 0.006592 -0.002019 0.000000 0.000000 0.000000
# 3 -0.002428 -0.002019 0.011410 0.000000 0.000000 0.000000
# 4 0.000000 0.000000 0.000000 0.030234 0.000000 0.000000
# 5 0.000000 0.000000 0.000000 0.000000 0.023399 0.000000
# 6 0.000000 0.000000 0.000000 0.000000 0.000000 0.065489
#
#
# Mechanical properties :
#
#
# Convention : Reuss Voigt Hill
#
# Bulk Modulus (GPa) = 78.61339 86.19361 82.40350
# Shear Modulus (GPa) = 30.45916 37.09776 33.77846
#
# Velocity S-wave (km/s) = 3.51748 3.88192 3.70418
# Velocity P-wave (km/s) = 6.95917 7.42325 7.19495
#
# Compressibility (1/GPa) = 0.01272048
#
# Stress axis : x y z
#
# Youngs Moduli (GPa) = 114.23534 151.69014 87.64206
#
# Poissons Ratio (x) = 0.38987 0.21283
# Poissons Ratio (y) = 0.29360 0.17698
# Poissons Ratio (z) = 0.27741 0.30632
#
# Static dielectric constant tensor:
#      x y z
#    x 2.077410 0.000000 0.000000 
#    y 0.000000 2.102040 0.000000 
#    z 0.000000 0.000000 2.154040 
# 
# From -- ./inp_files/8551.got.cif
#   From: 2010.05.17/outbox.cif.g08.bks.cpg/sg22_5_cif.got.tgz:8551.got - 2010.06.03 23:40:54.
