data_PCOD9327078
_publ_section_title
;
Structure prediction by ZEFSAII (Michael W. Deem and Ramdas Pophale) SiO2 
 PCOD9327078
Probable space group: F 2 2 2
;
_chemical_formula_sum "Si O2"
_cell_formula_units_Z 60
_cell_length_a 11.672271
_cell_length_b 23.729973
_cell_length_c 8.853191
_cell_angle_alpha 90.000000
_cell_angle_beta 90.000000
_cell_angle_gamma 90.000000
_cell_volume 2452.180531
_symmetry_space_group_name_H-M "F 2 2 2"
_symmetry_group_IT_number 22
_symmetry_cell_setting 'orthorhombic'
loop_
_space_group_symop_operation_xyz
x,y,z
-x,-y,z
x,-y,-z
-x,y,-z
x,1/2+y,1/2+z
-x,1/2-y,1/2+z
x,1/2-y,1/2-z
-x,1/2+y,1/2-z
1/2+x,y,1/2+z
1/2-x,-y,1/2+z
1/2+x,-y,1/2-z
1/2-x,y,1/2-z
1/2+x,1/2+y,z
1/2-x,1/2-y,z
1/2+x,1/2-y,-z
1/2-x,1/2+y,-z
loop_
_atom_site_type_symbol
_atom_site_label
_atom_site_fract_x
_atom_site_fract_y
_atom_site_fract_z
Si Si1 0.690623 0.345732 0.089769
Si Si2 0.035805 0.940596 0.214613
Si Si3 0.000000 0.000000 0.500000
Si Si4 0.594187 0.148492 0.878752
Si Si5 0.000000 0.756046 0.000000
O O1 0.750000 0.331321 0.250000
O O2 0.626441 0.404348 0.123587
O O3 0.717391 0.351040 0.544197
O O4 0.601455 0.296390 0.053610
O O5 0.932337 0.895523 0.245766
O O6 0.000000 0.000000 0.147116
O O7 0.076350 0.964838 0.380173
O O8 0.551470 0.213147 0.873240
O O9 0.500000 0.128965 0.000000
#
# Coordination Sequence:
#
# PCOD9327078 Si02
#       5
#    16  16   4  16   8
#     4  12  22  43  72  95 135 187 224 282 348 399
#     4  10  20  40  68  97 135 174 232 273 340 413
#     4   8  14  36  64  90 140 156 216 280 318 390
#     4  10  20  38  66 101 129 177 224 280 337 404
#     4  10  25  38  60 108 136 167 244 278 328 416
#
# _framework density 24.468019000000002
#
# number of rings (size 3 to 8) (size 9 to 14) (size 15 to 20)
#    1.600    0.000    4.000    0.800    0.000    7.467 
#    0.000    7.333    0.000    6.400    0.000    0.000 
#    0.000    0.000    0.000    0.000    0.000    0.000 
#
# Total GULP energy -83564.107605 kJ/mol
# GULP energy per Si atom -5570.940507 kJ/mol
# Density = 2.441233 g / cm^3
# Si number density = 24.468019 Si / 1000 Ang^3
#
#
#
# Elastic Constant Matrix: (Units=GPa)
#
#
# Indices 1 2 3 4 5 6 
#
# 1 168.4070 100.9219 51.2269 0.0000 0.0000 0.0000
# 2 100.9219 234.8565 63.1898 0.0000 0.0000 0.0000
# 3 51.2269 63.1898 95.6607 0.0000 0.0000 0.0000
# 4 0.0000 0.0000 0.0000 -53.2911 0.0000 0.0000
# 5 0.0000 0.0000 0.0000 0.0000 -11.1356 0.0000
# 6 0.0000 0.0000 0.0000 0.0000 0.0000 37.9632
#
#
#
# Elastic Compliance Matrix: (Units=1/GPa)
#
#
# Indices 1 2 3 4 5 6 
#
# 1 0.008498 -0.002952 -0.002601 0.000000 0.000000 0.000000
# 2 -0.002952 0.006204 -0.002517 0.000000 0.000000 0.000000
# 3 -0.002601 -0.002517 0.013509 0.000000 0.000000 0.000000
# 4 0.000000 0.000000 0.000000 -0.018765 0.000000 0.000000
# 5 0.000000 0.000000 0.000000 0.000000 -0.089802 0.000000
# 6 0.000000 0.000000 0.000000 0.000000 0.000000 0.026341
#
#
# Mechanical properties :
#
#
# Convention : Reuss Voigt Hill
#
# Bulk Modulus (GPa) = 82.84291 103.28904 93.06597
# Shear Modulus (GPa) = -147.70473 13.61301 -67.04586
#
# Velocity S-wave (km/s) = -7.77801 2.36129 -5.24032
# Velocity P-wave (km/s) = 6.83610 7.05264 1.22629
#
# Compressibility (1/GPa) = 0.01207104
#
# Stress axis : x y z
#
# Youngs Moduli (GPa) = 117.67161 161.19385 74.02433
#
# Poissons Ratio (x) = 0.47585 0.19253
# Poissons Ratio (y) = 0.34737 0.18633
# Poissons Ratio (z) = 0.30605 0.40574
#
# Static dielectric constant tensor:
#      x y z
#    x 2.017600 0.000000 0.000000 
#    y 0.000000 2.012580 0.000000 
#    z 0.000000 0.000000 1.591000 
# 
# From -- ./inp_files/19718.got.cif
#   From: 2010.05.17/outbox.cif.g08.bks.cpg/sg22_10_cif.got.tgz:19718.got - 2010.06.03 23:40:54.
