data_PCOD9327220
_publ_section_title
;
Structure prediction by ZEFSAII (Michael W. Deem and Ramdas Pophale) SiO2 
 PCOD9327220
Probable space group: F 2 2 2
;
_chemical_formula_sum "Si O2"
_cell_formula_units_Z 96
_cell_length_a 23.438254
_cell_length_b 22.938732
_cell_length_c 7.787621
_cell_angle_alpha 90.000000
_cell_angle_beta 90.000000
_cell_angle_gamma 90.000000
_cell_volume 4186.966358
_symmetry_space_group_name_H-M "F 2 2 2"
_symmetry_group_IT_number 22
_symmetry_cell_setting 'orthorhombic'
loop_
_space_group_symop_operation_xyz
x,y,z
-x,-y,z
x,-y,-z
-x,y,-z
x,1/2+y,1/2+z
-x,1/2-y,1/2+z
x,1/2-y,1/2-z
-x,1/2+y,1/2-z
1/2+x,y,1/2+z
1/2-x,-y,1/2+z
1/2+x,-y,1/2-z
1/2-x,y,1/2-z
1/2+x,1/2+y,z
1/2-x,1/2-y,z
1/2+x,1/2-y,-z
1/2-x,1/2+y,-z
loop_
_atom_site_type_symbol
_atom_site_label
_atom_site_fract_x
_atom_site_fract_y
_atom_site_fract_z
Si Si1 0.565890 0.665209 0.567039
Si Si2 0.133155 0.124669 0.912758
Si Si3 0.748208 0.682648 0.039769
Si Si4 0.062459 0.716064 0.569891
Si Si5 0.154583 0.908509 0.566719
Si Si6 0.181432 0.015763 0.759340
O O1 0.500000 0.667240 0.500000
O O2 0.591251 0.641993 0.750071
O O3 0.586596 0.732078 0.550328
O O4 0.594035 0.621540 0.431329
O O5 0.149801 0.056046 0.900403
O O6 0.195216 0.154476 0.938086
O O7 0.099441 0.157884 0.064673
O O8 0.750000 0.681816 0.250000
O O9 0.750000 0.750000 0.989755
O O10 0.802634 0.642408 0.008966
O O11 0.059300 0.750000 0.750000
O O12 0.000000 0.701525 0.500000
O O13 0.157926 0.952491 0.408868
O O14 0.170824 0.946839 0.731778
O O15 0.250000 0.022866 0.750000
#
# Coordination Sequence:
#
# PCOD9327220 Si02
#       6
#    16  16  16  16  16  16
#     4  10  22  42  67 100 139 187 249 304 374 451
#     4  11  23  41  66 103 141 187 244 305 366 453
#     4  11  24  39  63 104 147 183 232 308 381 443
#     4  11  23  41  69  99 142 193 243 306 383 458
#     4  10  21  39  67  95 134 188 237 297 370 440
#     4  10  20  41  63  97 134 187 240 290 359 452
#
# _framework density 22.928294999999999
#
# number of rings (size 3 to 8) (size 9 to 14) (size 15 to 20)
#    0.000    1.500    1.667    4.000    4.667    1.333 
#    0.000    8.333    0.000    0.000    0.000    0.000 
#    0.000    0.000    0.000    0.000    0.000    0.000 
#
# Total GULP energy -133665.817742 kJ/mol
# GULP energy per Si atom -5569.409073 kJ/mol
# Density = 2.287611 g / cm^3
# Si number density = 22.928295 Si / 1000 Ang^3
#
#
#
# Elastic Constant Matrix: (Units=GPa)
#
#
# Indices 1 2 3 4 5 6 
#
# 1 106.1462 68.4830 28.4912 0.0011 -0.0009 -0.0038
# 2 68.4830 174.5271 28.0392 0.0014 -0.0002 -0.0066
# 3 28.4912 28.0392 114.7080 0.0065 -0.0032 -0.0150
# 4 0.0011 0.0014 0.0065 -11.7216 -0.0029 -0.0145
# 5 -0.0009 -0.0002 -0.0032 -0.0029 18.6650 0.0060
# 6 -0.0038 -0.0066 -0.0150 -0.0145 0.0060 -20.2798
#
#
#
# Elastic Compliance Matrix: (Units=1/GPa)
#
#
# Indices 1 2 3 4 5 6 
#
# 1 0.013072 -0.004796 -0.002075 0.000000 0.000000 0.000001
# 2 -0.004796 0.007724 -0.000697 0.000000 0.000000 -0.000001
# 3 -0.002075 -0.000697 0.009403 0.000005 0.000001 -0.000006
# 4 0.000000 0.000000 0.000005 -0.085312 -0.000013 0.000061
# 5 0.000000 0.000000 0.000001 -0.000013 0.053576 0.000016
# 6 0.000001 -0.000001 -0.000006 0.000061 0.000016 -0.049310
#
#
# Mechanical properties :
#
#
# Convention : Reuss Voigt Hill
#
# Bulk Modulus (GPa) = 66.38123 71.71202 69.04663
# Shear Modulus (GPa) = -162.91204 15.35726 -73.77739
#
# Velocity S-wave (km/s) = -8.43843 2.59085 -5.67867
# Velocity P-wave (km/s) = 8.11962 6.34780 3.58006
#
# Compressibility (1/GPa) = 0.01506450
#
# Stress axis : x y z
#
# Youngs Moduli (GPa) = 76.49865 129.47244 106.34498
#
# Poissons Ratio (x) = 0.62096 0.22061
# Poissons Ratio (y) = 0.36690 0.07409
# Poissons Ratio (z) = 0.15870 0.09020
#
# Static dielectric constant tensor:
#      x y z
#    x 1.879650 0.000000 0.000000 
#    y 0.000000 1.887470 0.000000 
#    z 0.000000 0.000000 2.108530 
# 
# From -- ./inp_files/13899.got.cif
#   From: 2010.05.17/outbox.cif.g08.bks.cpg/sg22_7_cif.got.tgz:13899.got - 2010.06.03 23:40:54.
