data_PCOD9327772
_publ_section_title
;
Structure prediction by ZEFSAII (Michael W. Deem and Ramdas Pophale) SiO2 
 PCOD9327772
Probable space group: F 2 2 2
;
_chemical_formula_sum "Si O2"
_cell_formula_units_Z 48
_cell_length_a 6.685397
_cell_length_b 27.450527
_cell_length_c 13.353060
_cell_angle_alpha 90.000000
_cell_angle_beta 90.000000
_cell_angle_gamma 90.000000
_cell_volume 2450.522470
_symmetry_space_group_name_H-M "F 2 2 2"
_symmetry_group_IT_number 22
_symmetry_cell_setting 'orthorhombic'
loop_
_space_group_symop_operation_xyz
x,y,z
-x,-y,z
x,-y,-z
-x,y,-z
x,1/2+y,1/2+z
-x,1/2-y,1/2+z
x,1/2-y,1/2-z
-x,1/2+y,1/2-z
1/2+x,y,1/2+z
1/2-x,-y,1/2+z
1/2+x,-y,1/2-z
1/2-x,y,1/2-z
1/2+x,1/2+y,z
1/2-x,1/2-y,z
1/2+x,1/2-y,-z
1/2-x,1/2+y,-z
loop_
_atom_site_type_symbol
_atom_site_label
_atom_site_fract_x
_atom_site_fract_y
_atom_site_fract_z
Si Si1 0.950261 0.831090 0.384850
Si Si2 0.000000 0.000000 0.000000
Si Si3 0.750000 0.750000 0.250000
Si Si4 0.750000 0.384873 0.250000
Si Si5 0.095008 0.591993 0.602462
O O1 0.146829 0.852024 0.333449
O O2 0.000000 0.820573 0.500000
O O3 0.877637 0.784802 0.322211
O O4 0.781394 0.873560 0.374661
O O5 0.865955 0.963566 0.066848
O O6 0.569779 0.411169 0.190453
O O7 0.000000 0.613760 0.500000
#
# Coordination Sequence:
#
# PCOD9327772 Si02
#       5
#    16   4   4   8  16
#     4  12  25  45  70  97 141 179 233 288 335 411
#     4   8  20  44  70 104 142 178 228 280 350 402
#     4  12  28  42  66 110 130 190 236 270 360 404
#     4  12  22  43  73  94 138 183 220 293 340 396
#     4  10  21  44  70 102 133 181 229 278 339 409
#
# _framework density 19.58766
#
# number of rings (size 3 to 8) (size 9 to 14) (size 15 to 20)
#    1.000    0.000    6.667    0.000    0.000    4.667 
#    6.000    5.833    0.000    0.000    0.000    0.000 
#    0.000    0.000    0.000    0.000    0.000    0.000 
#
# Total GULP energy -66846.660030 kJ/mol
# GULP energy per Si atom -5570.555003 kJ/mol
# Density = 1.954308 g / cm^3
# Si number density = 19.587660 Si / 1000 Ang^3
#
#
#
# Elastic Constant Matrix: (Units=GPa)
#
#
# Indices 1 2 3 4 5 6 
#
# 1 74.9626 46.5767 44.3394 0.0000 0.0000 0.0000
# 2 46.5767 133.0365 49.8381 0.0000 0.0000 0.0000
# 3 44.3394 49.8381 159.9924 0.0000 0.0000 0.0000
# 4 0.0000 0.0000 0.0000 0.6264 0.0000 0.0000
# 5 0.0000 0.0000 0.0000 0.0000 47.2615 0.0000
# 6 0.0000 0.0000 0.0000 0.0000 0.0000 -11.6385
#
#
#
# Elastic Compliance Matrix: (Units=1/GPa)
#
#
# Indices 1 2 3 4 5 6 
#
# 1 0.018678 -0.005208 -0.003554 0.000000 0.000000 0.000000
# 2 -0.005208 0.009962 -0.001660 0.000000 0.000000 0.000000
# 3 -0.003554 -0.001660 0.007752 0.000000 0.000000 0.000000
# 4 0.000000 0.000000 0.000000 1.596478 0.000000 0.000000
# 5 0.000000 0.000000 0.000000 0.000000 0.021159 0.000000
# 6 0.000000 0.000000 0.000000 0.000000 0.000000 -0.085922
#
#
# Mechanical properties :
#
#
# Convention : Reuss Voigt Hill
#
# Bulk Modulus (GPa) = 64.31448 72.16666 68.24057
# Shear Modulus (GPa) = 3.13650 22.39904 12.76777
#
# Velocity S-wave (km/s) = 1.26678 3.38528 2.55586
# Velocity P-wave (km/s) = 5.91989 7.22517 6.60485
#
# Compressibility (1/GPa) = 0.01554860
#
# Stress axis : x y z
#
# Youngs Moduli (GPa) = 53.53912 100.38315 128.99394
#
# Poissons Ratio (x) = 0.52278 0.45845
# Poissons Ratio (y) = 0.27882 0.21411
# Poissons Ratio (z) = 0.19028 0.16662
#
# Static dielectric constant tensor:
#      x y z
#    x 1.778350 0.000000 0.000000 
#    y 0.000000 1.680520 0.000000 
#    z 0.000000 0.000000 1.732610 
# 
# From -- ./inp_files/1694.got.cif
#   From: 2010.05.17/outbox.cif.g08.bks.cpg/sg22_1_cif.got.tgz:1694.got - 2010.06.03 23:40:54.
