data_PCOD9327783
_publ_section_title
;
Structure prediction by ZEFSAII (Michael W. Deem and Ramdas Pophale) SiO2 
 PCOD9327783
Probable space group: F 2 2 2
;
_chemical_formula_sum "Si O2"
_cell_formula_units_Z 44
_cell_length_a 22.553727
_cell_length_b 12.437014
_cell_length_c 7.029617
_cell_angle_alpha 90.000000
_cell_angle_beta 90.000000
_cell_angle_gamma 90.000000
_cell_volume 1971.814728
_symmetry_space_group_name_H-M "F 2 2 2"
_symmetry_group_IT_number 22
_symmetry_cell_setting 'orthorhombic'
loop_
_space_group_symop_operation_xyz
x,y,z
-x,-y,z
x,-y,-z
-x,y,-z
x,1/2+y,1/2+z
-x,1/2-y,1/2+z
x,1/2-y,1/2-z
-x,1/2+y,1/2-z
1/2+x,y,1/2+z
1/2-x,-y,1/2+z
1/2+x,-y,1/2-z
1/2-x,y,1/2-z
1/2+x,1/2+y,z
1/2-x,1/2-y,z
1/2+x,1/2-y,-z
1/2-x,1/2+y,-z
loop_
_atom_site_type_symbol
_atom_site_label
_atom_site_fract_x
_atom_site_fract_y
_atom_site_fract_z
Si Si1 0.335774 0.250000 0.750000
Si Si2 0.000000 0.000000 0.000000
Si Si3 0.596637 0.964931 0.793967
Si Si4 0.201577 0.105310 0.100598
O O1 0.370239 0.146829 0.827603
O O2 0.307555 0.193307 0.563527
O O3 0.044650 0.058969 0.856587
O O4 0.641612 0.055290 0.701048
O O5 0.574583 0.000000 0.000000
O O6 0.250000 0.139139 0.250000
O O7 0.228520 0.000000 0.000000
#
# Coordination Sequence:
#
# PCOD9327783 Si02
#       4
#     8   4  16  16
#     4  10  22  48  73 106 148 192 249 298 376 436
#     4  12  22  52  72 106 154 192 246 310 364 434
#     4  11  24  47  73 108 148 192 245 308 369 435
#     4  10  21  45  74 108 150 194 245 307 371 443
#
# _framework density 22.314471000000001
#
# number of rings (size 3 to 8) (size 9 to 14) (size 15 to 20)
#    0.000    1.455    5.455    1.636    0.000    1.455 
#    6.545   49.091    0.000    0.000    0.000    0.000 
#    0.000    0.000    0.000    0.000    0.000    0.000 
#
# Total GULP energy -61335.627452 kJ/mol
# GULP energy per Si atom -5575.966132 kJ/mol
# Density = 2.226368 g / cm^3
# Si number density = 22.314471 Si / 1000 Ang^3
#
#
#
# Elastic Constant Matrix: (Units=GPa)
#
#
# Indices 1 2 3 4 5 6 
#
# 1 89.3217 68.3540 65.9923 0.0000 0.0000 0.0000
# 2 68.3540 152.6971 96.3772 0.0000 0.0000 0.0000
# 3 65.9923 96.3772 201.2684 0.0000 0.0000 0.0000
# 4 0.0000 0.0000 0.0000 44.4032 0.0000 0.0000
# 5 0.0000 0.0000 0.0000 0.0000 -104.3865 0.0000
# 6 0.0000 0.0000 0.0000 0.0000 0.0000 20.5556
#
#
#
# Elastic Compliance Matrix: (Units=1/GPa)
#
#
# Indices 1 2 3 4 5 6 
#
# 1 0.018180 -0.006271 -0.002958 0.000000 0.000000 0.000000
# 2 -0.006271 0.011549 -0.003474 0.000000 0.000000 0.000000
# 3 -0.002958 -0.003474 0.007602 0.000000 0.000000 0.000000
# 4 0.000000 0.000000 0.000000 0.022521 0.000000 0.000000
# 5 0.000000 0.000000 0.000000 0.000000 -0.009580 0.000000
# 6 0.000000 0.000000 0.000000 0.000000 0.000000 0.048649
#
#
# Mechanical properties :
#
#
# Convention : Reuss Voigt Hill
#
# Bulk Modulus (GPa) = 83.86115 100.52602 92.19358
# Shear Modulus (GPa) = 38.97081 6.28536 22.62809
#
# Velocity S-wave (km/s) = 4.18357 1.68013 3.18788
# Velocity P-wave (km/s) = 7.81022 6.99366 7.41319
#
# Compressibility (1/GPa) = 0.01192447
#
# Stress axis : x y z
#
# Youngs Moduli (GPa) = 55.00574 86.58900 131.54745
#
# Poissons Ratio (x) = 0.54302 0.38910
# Poissons Ratio (y) = 0.34495 0.45699
# Poissons Ratio (z) = 0.16270 0.30080
#
# Static dielectric constant tensor:
#      x y z
#    x 1.910380 0.000000 0.000000 
#    y 0.000000 1.817600 0.000000 
#    z 0.000000 0.000000 1.747590 
# 
# From -- ./inp_files/5059.got.cif
#   From: 2010.05.17/outbox.cif.g08.bks.cpg/sg22_3_cif.got.tgz:5059.got - 2010.06.03 23:40:54.
