data_PCOD9327259
_publ_section_title
;
Structure prediction by ZEFSAII (Michael W. Deem and Ramdas Pophale) SiO2 
 PCOD9327259
Probable space group: F 2 2 2
;
_chemical_formula_sum "Si O2"
_cell_formula_units_Z 116
_cell_length_a 24.769650
_cell_length_b 14.636757
_cell_length_c 15.844054
_cell_angle_alpha 90.000000
_cell_angle_beta 90.000000
_cell_angle_gamma 90.000000
_cell_volume 5744.219760
_symmetry_space_group_name_H-M "F 2 2 2"
_symmetry_group_IT_number 22
_symmetry_cell_setting 'orthorhombic'
loop_
_space_group_symop_operation_xyz
x,y,z
-x,-y,z
x,-y,-z
-x,y,-z
x,1/2+y,1/2+z
-x,1/2-y,1/2+z
x,1/2-y,1/2-z
-x,1/2+y,1/2-z
1/2+x,y,1/2+z
1/2-x,-y,1/2+z
1/2+x,-y,1/2-z
1/2-x,y,1/2-z
1/2+x,1/2+y,z
1/2-x,1/2-y,z
1/2+x,1/2-y,-z
1/2-x,1/2+y,-z
loop_
_atom_site_type_symbol
_atom_site_label
_atom_site_fract_x
_atom_site_fract_y
_atom_site_fract_z
Si Si1 0.926137 0.695799 0.339721
Si Si2 0.141850 0.260187 0.490081
Si Si3 0.808762 0.566177 0.581488
Si Si4 0.586849 0.980283 0.680202
Si Si5 0.074160 0.908213 0.356949
Si Si6 0.811035 0.084942 0.438064
Si Si7 0.000000 0.000000 0.500000
Si Si8 0.954176 0.716435 0.615600
O O1 0.925916 0.750000 0.250000
O O2 0.873637 0.723464 0.393644
O O3 0.926896 0.584872 0.341638
O O4 0.981639 0.722145 0.386562
O O5 0.170402 0.340244 0.541317
O O6 0.179568 0.173555 0.504217
O O7 0.083546 0.255656 0.536661
O O8 0.810716 0.500000 0.500000
O O9 0.850179 0.533478 0.653634
O O10 0.746641 0.579527 0.607189
O O11 0.568477 0.972711 0.776772
O O12 0.560137 0.889454 0.637178
O O13 0.137279 0.913420 0.378550
O O14 0.060722 0.805196 0.327506
O O15 0.038021 0.940964 0.436503
O O16 0.815015 0.000000 0.500000
#
# Coordination Sequence:
#
# PCOD9327259 Si02
#       8
#    16  16  16  16  16  16   4  16
#     4  12  25  37  63  93 136 180 215 272 338 403
#     4  10  22  41  63  93 126 166 225 274 324 407
#     4  10  20  43  66  92 124 170 214 276 335 390
#     4  11  24  42  65  97 136 171 223 282 333 401
#     4  11  25  42  64  99 132 171 226 273 331 405
#     4  10  22  39  67  91 122 168 219 269 329 396
#     4  12  28  40  68  92 140 188 212 276 346 420
#     4  10  24  40  63  91 130 176 221 272 331 399
#
# _framework density 20.194213999999999
#
# number of rings (size 3 to 8) (size 9 to 14) (size 15 to 20)
#    0.000    1.379    2.069    2.483    9.655    0.552 
#    0.000    1.379    0.000    6.621    0.000    0.000 
#    0.000    0.000    0.000    0.000    0.000    0.000 
#
# Total GULP energy -161519.365901 kJ/mol
# GULP energy per Si atom -5569.633307 kJ/mol
# Density = 2.014825 g / cm^3
# Si number density = 20.194214 Si / 1000 Ang^3
#
#
#
# Elastic Constant Matrix: (Units=GPa)
#
#
# Indices 1 2 3 4 5 6 
#
# 1 116.9433 35.1100 24.2318 0.0000 0.0000 0.0000
# 2 35.1100 111.1913 18.5975 0.0000 0.0000 0.0000
# 3 24.2318 18.5975 46.9940 0.0000 0.0000 0.0000
# 4 0.0000 0.0000 0.0000 24.6119 0.0000 0.0000
# 5 0.0000 0.0000 0.0000 0.0000 -30.9928 0.0000
# 6 0.0000 0.0000 0.0000 0.0000 0.0000 24.3084
#
#
#
# Elastic Compliance Matrix: (Units=1/GPa)
#
#
# Indices 1 2 3 4 5 6 
#
# 1 0.010186 -0.002504 -0.004261 0.000000 0.000000 0.000000
# 2 -0.002504 0.010246 -0.002764 0.000000 0.000000 0.000000
# 3 -0.004261 -0.002764 0.024570 0.000000 0.000000 0.000000
# 4 0.000000 0.000000 0.000000 0.040631 0.000000 0.000000
# 5 0.000000 0.000000 0.000000 0.000000 -0.032266 0.000000
# 6 0.000000 0.000000 0.000000 0.000000 0.000000 0.041138
#
#
# Mechanical properties :
#
#
# Convention : Reuss Voigt Hill
#
# Bulk Modulus (GPa) = 38.54349 47.88971 43.21660
# Shear Modulus (GPa) = 40.91254 16.73146 28.82200
#
# Velocity S-wave (km/s) = 4.50594 2.88154 3.78198
# Velocity P-wave (km/s) = 6.79700 5.90229 6.36539
#
# Compressibility (1/GPa) = 0.02594472
#
# Stress axis : x y z
#
# Youngs Moduli (GPa) = 98.17598 97.59593 40.69929
#
# Poissons Ratio (x) = 0.24434 0.17344
# Poissons Ratio (y) = 0.24579 0.11249
# Poissons Ratio (z) = 0.41837 0.26975
#
# Static dielectric constant tensor:
#      x y z
#    x 1.720120 0.000000 0.000000 
#    y 0.000000 1.736340 0.000000 
#    z 0.000000 0.000000 1.762520 
# 
# From -- ./inp_files/39600.got.cif
#   From: 2010.05.17/outbox.cif.g08.bks.cpg/sg22_20_cif.got.tgz:39600.got - 2010.06.03 23:40:54.
