data_PCOD9327735
_publ_section_title
;
Structure prediction by ZEFSAII (Michael W. Deem and Ramdas Pophale) SiO2 
 PCOD9327735
Probable space group: F 2 2 2
;
_chemical_formula_sum "Si O2"
_cell_formula_units_Z 116
_cell_length_a 11.993945
_cell_length_b 31.466036
_cell_length_c 16.049398
_cell_angle_alpha 90.000000
_cell_angle_beta 90.000000
_cell_angle_gamma 90.000000
_cell_volume 6057.073382
_symmetry_space_group_name_H-M "F 2 2 2"
_symmetry_group_IT_number 22
_symmetry_cell_setting 'orthorhombic'
loop_
_space_group_symop_operation_xyz
x,y,z
-x,-y,z
x,-y,-z
-x,y,-z
x,1/2+y,1/2+z
-x,1/2-y,1/2+z
x,1/2-y,1/2-z
-x,1/2+y,1/2-z
1/2+x,y,1/2+z
1/2-x,-y,1/2+z
1/2+x,-y,1/2-z
1/2-x,y,1/2-z
1/2+x,1/2+y,z
1/2-x,1/2-y,z
1/2+x,1/2-y,-z
1/2-x,1/2+y,-z
loop_
_atom_site_type_symbol
_atom_site_label
_atom_site_fract_x
_atom_site_fract_y
_atom_site_fract_z
Si Si1 0.116262 0.873005 0.248478
Si Si2 0.970307 0.342986 0.595794
Si Si3 0.881904 0.247408 0.846278
Si Si4 0.500000 0.000000 0.500000
Si Si5 0.155087 0.432648 0.404835
Si Si6 0.401000 0.574195 0.569335
Si Si7 0.043583 0.954382 0.744909
Si Si8 0.520992 0.663510 0.401218
O O1 0.250000 0.876192 0.250000
O O2 0.073779 0.847979 0.332082
O O3 0.068595 0.851615 0.163535
O O4 0.053654 0.918683 0.248277
O O5 0.916797 0.298539 0.621867
O O6 0.892355 0.384717 0.593724
O O7 0.000000 0.337525 0.500000
O O8 0.913177 0.250000 0.750000
O O9 0.750000 0.250000 0.855010
O O10 0.933788 0.289677 0.885318
O O11 0.575427 0.967473 0.447075
O O12 0.273134 0.434831 0.452542
O O13 0.145205 0.442793 0.306303
O O14 0.500000 0.570729 0.500000
O O15 0.426112 0.544679 0.647903
O O16 0.399359 0.622296 0.607054
O O17 0.000000 0.000000 0.770739
O O18 0.500000 0.662417 0.500000
#
# Coordination Sequence:
#
# PCOD9327735 Si02
#       8
#    16  16  16   4  16  16  16  16
#     4  10  23  41  63  90 131 173 216 271 330 395
#     4  11  23  41  64  93 129 169 222 268 331 398
#     4  11  22  38  64  93 122 165 211 273 328 393
#     4  12  24  44  66  92 126 180 216 266 324 388
#     4  11  23  43  64  94 131 168 221 269 327 396
#     4  10  23  41  66  95 128 168 210 276 331 388
#     4  10  22  41  61  93 126 168 218 262 332 389
#     4  10  21  43  63  91 128 166 214 259 334 391
#
# _framework density 19.151164000000001
#
# number of rings (size 3 to 8) (size 9 to 14) (size 15 to 20)
#    0.000    1.517    2.759    1.655    0.000    6.897 
#    0.000    1.379    0.000    0.000    0.000    0.000 
#    0.000    0.000    0.000    0.000    0.000    0.000 
#
# Total GULP energy -161502.063531 kJ/mol
# GULP energy per Si atom -5569.036673 kJ/mol
# Density = 1.910757 g / cm^3
# Si number density = 19.151164 Si / 1000 Ang^3
#
#
#
# Elastic Constant Matrix: (Units=GPa)
#
#
# Indices 1 2 3 4 5 6 
#
# 1 149.1885 57.7813 49.1132 0.0000 0.0000 0.0000
# 2 57.7813 131.2972 38.5918 0.0000 0.0000 0.0000
# 3 49.1132 38.5918 131.6448 0.0000 0.0000 0.0000
# 4 0.0000 0.0000 0.0000 35.5442 0.0000 0.0000
# 5 0.0000 0.0000 0.0000 0.0000 20.8885 0.0000
# 6 0.0000 0.0000 0.0000 0.0000 0.0000 -40.2338
#
#
#
# Elastic Compliance Matrix: (Units=1/GPa)
#
#
# Indices 1 2 3 4 5 6 
#
# 1 0.008682 -0.003139 -0.002319 0.000000 0.000000 0.000000
# 2 -0.003139 0.009470 -0.001605 0.000000 0.000000 0.000000
# 3 -0.002319 -0.001605 0.008932 0.000000 0.000000 0.000000
# 4 0.000000 0.000000 0.000000 0.028134 0.000000 0.000000
# 5 0.000000 0.000000 0.000000 0.000000 0.047873 0.000000
# 6 0.000000 0.000000 0.000000 0.000000 0.000000 -0.024855
#
#
# Mechanical properties :
#
#
# Convention : Reuss Voigt Hill
#
# Bulk Modulus (GPa) = 77.17465 78.12257 77.64861
# Shear Modulus (GPa) = 51.71656 21.01606 36.36631
#
# Velocity S-wave (km/s) = 5.20221 3.31626 4.36237
# Velocity P-wave (km/s) = 8.74466 7.45283 8.12446
#
# Compressibility (1/GPa) = 0.01295762
#
# Stress axis : x y z
#
# Youngs Moduli (GPa) = 115.17894 105.60167 111.96033
#
# Poissons Ratio (x) = 0.33151 0.25961
# Poissons Ratio (y) = 0.36158 0.17968
# Poissons Ratio (z) = 0.26708 0.16947
#
# Static dielectric constant tensor:
#      x y z
#    x 1.678450 0.000000 0.000000 
#    y 0.000000 1.559320 0.000000 
#    z 0.000000 0.000000 1.389750 
# 
# From -- ./inp_files/36412.got.cif
#   From: 2010.05.17/outbox.cif.g08.bks.cpg/sg22_19_cif.got.tgz:36412.got - 2010.06.03 23:40:54.
