data_PCOD9327798
_publ_section_title
;
Structure prediction by ZEFSAII (Michael W. Deem and Ramdas Pophale) SiO2 
 PCOD9327798
Probable space group: F 2 2 2
;
_chemical_formula_sum "Si O2"
_cell_formula_units_Z 104
_cell_length_a 22.115845
_cell_length_b 9.460987
_cell_length_c 28.242314
_cell_angle_alpha 90.000000
_cell_angle_beta 90.000000
_cell_angle_gamma 90.000000
_cell_volume 5909.357446
_symmetry_space_group_name_H-M "F 2 2 2"
_symmetry_group_IT_number 22
_symmetry_cell_setting 'orthorhombic'
loop_
_space_group_symop_operation_xyz
x,y,z
-x,-y,z
x,-y,-z
-x,y,-z
x,1/2+y,1/2+z
-x,1/2-y,1/2+z
x,1/2-y,1/2-z
-x,1/2+y,1/2-z
1/2+x,y,1/2+z
1/2-x,-y,1/2+z
1/2+x,-y,1/2-z
1/2-x,y,1/2-z
1/2+x,1/2+y,z
1/2-x,1/2-y,z
1/2+x,1/2-y,-z
1/2-x,1/2+y,-z
loop_
_atom_site_type_symbol
_atom_site_label
_atom_site_fract_x
_atom_site_fract_y
_atom_site_fract_z
Si Si1 0.057739 0.595256 0.233199
Si Si2 0.627077 0.068201 0.325483
Si Si3 0.500000 0.500000 0.876497
Si Si4 0.645710 0.894108 0.849516
Si Si5 0.246860 0.083429 0.192918
Si Si6 0.600052 0.494741 0.446677
Si Si7 0.493084 0.761596 0.946992
O O1 0.037435 0.750000 0.250000
O O2 0.112493 0.569913 0.269449
O O3 0.084276 0.576806 0.180692
O O4 0.000000 0.500000 0.239782
O O5 0.563021 0.019150 0.347845
O O6 0.647502 0.223428 0.343963
O O7 0.684003 0.967423 0.330012
O O8 0.496521 0.639719 0.908634
O O9 0.641185 0.948893 0.903116
O O10 0.700228 0.981733 0.826439
O O11 0.250000 0.069377 0.250000
O O12 0.250000 0.250000 0.182233
O O13 0.626259 0.500000 0.500000
O O14 0.547149 0.376149 0.445309
O O15 0.567359 0.645752 0.439926
O O16 0.500000 0.700647 0.000000
#
# Coordination Sequence:
#
# PCOD9327798 Si02
#       7
#    16  16   8  16  16  16  16
#     4  10  22  34  52  85 123 157 191 234 298 358
#     4  11  23  39  57  91 123 160 194 248 299 364
#     4  12  21  34  60  94 130 150 195 244 314 360
#     4  11  22  39  63  82 118 166 205 243 306 359
#     4  11  25  43  62  86 117 161 211 249 292 359
#     4   9  19  36  58  88 118 158 204 245 301 361
#     4   9  19  35  56  85 124 160 198 245 297 363
#
# _framework density 17.599207
#
# number of rings (size 3 to 8) (size 9 to 14) (size 15 to 20)
#    0.000    1.692    3.846    1.615    4.308    1.846 
#    0.000    0.000    0.000    3.692    0.000    0.000 
#    0.000    0.000    0.000    0.000    0.000    0.000 
#
# Total GULP energy -144843.047491 kJ/mol
# GULP energy per Si atom -5570.886442 kJ/mol
# Density = 1.755915 g / cm^3
# Si number density = 17.599207 Si / 1000 Ang^3
#
#
#
# Elastic Constant Matrix: (Units=GPa)
#
#
# Indices 1 2 3 4 5 6 
#
# 1 99.1240 74.6052 37.7242 0.0000 0.0000 0.0000
# 2 74.6052 103.3817 53.7278 0.0000 0.0000 -0.0001
# 3 37.7242 53.7278 105.3608 0.0000 0.0000 0.0000
# 4 0.0000 0.0000 0.0000 43.9019 0.0000 0.0000
# 5 0.0000 0.0000 0.0000 0.0000 42.4999 0.0000
# 6 0.0000 -0.0001 0.0000 0.0000 0.0000 -17.5480
#
#
#
# Elastic Compliance Matrix: (Units=1/GPa)
#
#
# Indices 1 2 3 4 5 6 
#
# 1 0.022089 -0.016096 0.000299 0.000000 0.000000 0.000000
# 2 -0.016096 0.024890 -0.006929 0.000000 0.000000 0.000000
# 3 0.000299 -0.006929 0.012918 0.000000 0.000000 0.000000
# 4 0.000000 0.000000 0.000000 0.022778 0.000000 0.000000
# 5 0.000000 0.000000 0.000000 0.000000 0.023529 0.000000
# 6 0.000000 0.000000 0.000000 0.000000 0.000000 -0.056986
#
#
# Mechanical properties :
#
#
# Convention : Reuss Voigt Hill
#
# Bulk Modulus (GPa) = 69.23193 71.10898 70.17046
# Shear Modulus (GPa) = 50.25926 23.22471 36.74198
#
# Velocity S-wave (km/s) = 5.34974 3.63663 4.57410
# Velocity P-wave (km/s) = 8.80813 7.62403 8.23738
#
# Compressibility (1/GPa) = 0.01444420
#
# Stress axis : x y z
#
# Youngs Moduli (GPa) = 45.27116 40.17746 77.41401
#
# Poissons Ratio (x) = 0.64670 -0.02315
# Poissons Ratio (y) = 0.72868 0.53641
# Poissons Ratio (z) = -0.01354 0.27839
#
# Static dielectric constant tensor:
#      x y z
#    x 1.531870 0.000000 0.000000 
#    y 0.000000 1.525030 0.000000 
#    z 0.000000 0.000000 1.630370 
# 
# From -- ./inp_files/45776.got.cif
#   From: 2010.05.17/outbox.cif.g08.bks.cpg/sg22_23_cif.got.tgz:45776.got - 2010.06.03 23:40:54.
