data_PCOD9327071
_publ_section_title
;
Structure prediction by ZEFSAII (Michael W. Deem and Ramdas Pophale) SiO2 
 PCOD9327071
Probable space group: F 2 2 2
;
_chemical_formula_sum "Si O2"
_cell_formula_units_Z 56
_cell_length_a 24.888452
_cell_length_b 18.261497
_cell_length_c 5.538828
_cell_angle_alpha 90.000000
_cell_angle_beta 90.000000
_cell_angle_gamma 90.000000
_cell_volume 2517.399495
_symmetry_space_group_name_H-M "F 2 2 2"
_symmetry_group_IT_number 22
_symmetry_cell_setting 'orthorhombic'
loop_
_space_group_symop_operation_xyz
x,y,z
-x,-y,z
x,-y,-z
-x,y,-z
x,1/2+y,1/2+z
-x,1/2-y,1/2+z
x,1/2-y,1/2-z
-x,1/2+y,1/2-z
1/2+x,y,1/2+z
1/2-x,-y,1/2+z
1/2+x,-y,1/2-z
1/2-x,y,1/2-z
1/2+x,1/2+y,z
1/2-x,1/2-y,z
1/2+x,1/2-y,-z
1/2-x,1/2+y,-z
loop_
_atom_site_type_symbol
_atom_site_label
_atom_site_fract_x
_atom_site_fract_y
_atom_site_fract_z
Si Si1 0.103115 0.176505 0.912031
Si Si2 0.728459 0.165029 0.498796
Si Si3 0.968552 0.750000 0.250000
Si Si4 0.437945 0.971630 0.248600
O O1 0.103539 0.250000 0.750000
O O2 0.164422 0.162227 0.980372
O O3 0.070300 0.185670 0.160909
O O4 0.071294 0.114702 0.765655
O O5 0.750000 0.131335 0.250000
O O6 0.750000 0.250000 0.498823
O O7 0.750000 0.133062 0.750000
O O8 0.000000 0.765420 0.500000
O O9 0.500000 0.000000 0.249317
O O10 0.413460 0.000000 0.500000
O O11 0.413476 0.000000 0.000000
#
# Coordination Sequence:
#
# PCOD9327071 Si02
#       4
#    16  16   8  16
#     4  12  26  44  78 110 145 199 262 315 378 450
#     4  10  20  38  65 108 143 172 229 327 387 427
#     4  12  28  38  61 108 151 186 254 322 364 444
#     4  10  26  46  67  96 151 203 240 297 372 447
#
# _framework density 22.245177999999999
#
# number of rings (size 3 to 8) (size 9 to 14) (size 15 to 20)
#    0.000    1.143    4.286    1.714    8.000    2.286 
#    0.000    0.000    0.000    3.429    0.000    0.000 
#    0.000    0.000    0.000    0.000    0.000    0.000 
#
# Total GULP energy -78128.003602 kJ/mol
# GULP energy per Si atom -5580.571686 kJ/mol
# Density = 2.219455 g / cm^3
# Si number density = 22.245178 Si / 1000 Ang^3
#
#
#
# Elastic Constant Matrix: (Units=GPa)
#
#
# Indices 1 2 3 4 5 6 
#
# 1 175.9134 30.6308 71.8086 0.0002 0.0000 -0.0001
# 2 30.6308 94.3883 44.0937 0.0011 0.0002 -0.0003
# 3 71.8086 44.0937 254.3880 0.0019 0.0006 -0.0010
# 4 0.0002 0.0011 0.0019 37.5741 0.0003 -0.0006
# 5 0.0000 0.0002 0.0006 0.0003 -1.6470 0.0001
# 6 -0.0001 -0.0003 -0.0010 -0.0006 0.0001 5.9579
#
#
#
# Elastic Compliance Matrix: (Units=1/GPa)
#
#
# Indices 1 2 3 4 5 6 
#
# 1 0.006586 -0.001381 -0.001620 0.000000 -0.000001 0.000000
# 2 -0.001381 0.011817 -0.001659 0.000000 0.000001 0.000000
# 3 -0.001620 -0.001659 0.004676 0.000000 0.000002 0.000001
# 4 0.000000 0.000000 0.000000 0.026614 0.000005 0.000003
# 5 -0.000001 0.000001 0.000002 0.000005 -0.607152 0.000007
# 6 0.000000 0.000000 0.000001 0.000003 0.000007 0.167844
#
#
# Mechanical properties :
#
#
# Convention : Reuss Voigt Hill
#
# Bulk Modulus (GPa) = 72.66821 90.86178 81.76500
# Shear Modulus (GPa) = -13.30815 33.58743 10.13964
#
# Velocity S-wave (km/s) = -2.44857 3.88993 2.13729
# Velocity P-wave (km/s) = 4.97432 7.81727 6.55185
#
# Compressibility (1/GPa) = 0.01376118
#
# Stress axis : x y z
#
# Youngs Moduli (GPa) = 151.83145 84.62095 213.86958
#
# Poissons Ratio (x) = 0.11683 0.34644
# Poissons Ratio (y) = 0.20963 0.35473
# Poissons Ratio (z) = 0.24594 0.14035
#
# Static dielectric constant tensor:
#      x y z
#    x 1.828030 0.000000 0.000000 
#    y 0.000000 1.927830 0.000000 
#    z 0.000000 0.000000 1.860600 
# 
# From -- ./inp_files/5228.got.cif
#   From: 2010.05.17/outbox.cif.g08.bks.cpg/sg22_3_cif.got.tgz:5228.got - 2010.06.03 23:40:54.
