data_PCOD9327524
_publ_section_title
;
Structure prediction by ZEFSAII (Michael W. Deem and Ramdas Pophale) SiO2 
 PCOD9327524
Probable space group: F 2 2 2
;
_chemical_formula_sum "Si O2"
_cell_formula_units_Z 80
_cell_length_a 26.388264
_cell_length_b 11.749661
_cell_length_c 11.697972
_cell_angle_alpha 90.000000
_cell_angle_beta 90.000000
_cell_angle_gamma 90.000000
_cell_volume 3626.993142
_symmetry_space_group_name_H-M "F 2 2 2"
_symmetry_group_IT_number 22
_symmetry_cell_setting 'orthorhombic'
loop_
_space_group_symop_operation_xyz
x,y,z
-x,-y,z
x,-y,-z
-x,y,-z
x,1/2+y,1/2+z
-x,1/2-y,1/2+z
x,1/2-y,1/2-z
-x,1/2+y,1/2-z
1/2+x,y,1/2+z
1/2-x,-y,1/2+z
1/2+x,-y,1/2-z
1/2-x,y,1/2-z
1/2+x,1/2+y,z
1/2-x,1/2-y,z
1/2+x,1/2-y,-z
1/2-x,1/2+y,-z
loop_
_atom_site_type_symbol
_atom_site_label
_atom_site_fract_x
_atom_site_fract_y
_atom_site_fract_z
Si Si1 0.611972 0.838705 0.931509
Si Si2 0.885015 0.922157 0.325061
Si Si3 0.702176 0.827223 0.591011
Si Si4 0.531933 0.250000 0.750000
Si Si5 0.000000 0.255079 0.000000
Si Si6 0.294822 0.414035 0.165490
O O1 0.648471 0.737056 0.891094
O O2 0.553856 0.814622 0.968269
O O3 0.610567 0.942543 0.842502
O O4 0.635645 0.879754 0.052324
O O5 0.936436 0.858215 0.294354
O O6 0.847347 0.887317 0.225819
O O7 0.750000 0.750000 0.623481
O O8 0.707820 0.856038 0.456780
O O9 0.705456 0.949259 0.650575
O O10 0.508370 0.204137 0.628971
O O11 0.250000 0.381727 0.250000
#
# Coordination Sequence:
#
# PCOD9327524 Si02
#       6
#    16  16  16   8   8  16
#     4  10  22  40  64  91 124 166 214 267 321 392
#     4  10  21  39  63  90 122 163 215 265 323 388
#     4  11  24  40  59  90 127 162 209 265 326 394
#     4  10  22  40  65  96 129 168 220 276 332 398
#     4  10  22  41  66  95 128 172 220 271 334 393
#     4  11  23  38  60  89 123 165 210 264 327 391
#
# _framework density 22.056839
#
# number of rings (size 3 to 8) (size 9 to 14) (size 15 to 20)
#    0.000    1.600    0.000    4.800    0.000   16.000 
#    0.000    0.000    0.000   14.400    0.000    0.000 
#    0.000    0.000    0.000    0.000    0.000    0.000 
#
# Total GULP energy -111522.607848 kJ/mol
# GULP energy per Si atom -5576.130392 kJ/mol
# Density = 2.200664 g / cm^3
# Si number density = 22.056839 Si / 1000 Ang^3
#
#
#
# Elastic Constant Matrix: (Units=GPa)
#
#
# Indices 1 2 3 4 5 6 
#
# 1 86.1673 32.0110 15.7978 0.0000 0.0000 0.0000
# 2 32.0110 113.0584 24.9137 0.0000 0.0000 0.0000
# 3 15.7978 24.9137 138.1768 0.0000 0.0000 0.0000
# 4 0.0000 0.0000 0.0000 18.8355 0.0000 0.0000
# 5 0.0000 0.0000 0.0000 0.0000 23.6680 0.0000
# 6 0.0000 0.0000 0.0000 0.0000 0.0000 12.6160
#
#
#
# Elastic Compliance Matrix: (Units=1/GPa)
#
#
# Indices 1 2 3 4 5 6 
#
# 1 0.013067 -0.003510 -0.000861 0.000000 0.000000 0.000000
# 2 -0.003510 0.010154 -0.001429 0.000000 0.000000 0.000000
# 3 -0.000861 -0.001429 0.007593 0.000000 0.000000 0.000000
# 4 0.000000 0.000000 0.000000 0.053091 0.000000 0.000000
# 5 0.000000 0.000000 0.000000 0.000000 0.042251 0.000000
# 6 0.000000 0.000000 0.000000 0.000000 0.000000 0.079265
#
#
# Mechanical properties :
#
#
# Convention : Reuss Voigt Hill
#
# Bulk Modulus (GPa) = 52.04792 53.64973 52.84882
# Shear Modulus (GPa) = 22.37871 28.66923 25.52397
#
# Velocity S-wave (km/s) = 3.18872 3.60917 3.40544
# Velocity P-wave (km/s) = 6.09965 6.46099 6.28291
#
# Compressibility (1/GPa) = 0.01921306
#
# Stress axis : x y z
#
# Youngs Moduli (GPa) = 76.52757 98.48523 131.69519
#
# Poissons Ratio (x) = 0.34569 0.11340
# Poissons Ratio (y) = 0.26862 0.18825
# Poissons Ratio (z) = 0.06590 0.14078
#
# Static dielectric constant tensor:
#      x y z
#    x 1.965470 0.000000 0.000000 
#    y 0.000000 1.815470 0.000000 
#    z 0.000000 0.000000 1.829010 
# 
# From -- ./inp_files/25139.got.cif
#   From: 2010.05.17/outbox.cif.g08.bks.cpg/sg22_13_cif.got.tgz:25139.got - 2010.06.03 23:40:54.
