data_PCOD9327529
_publ_section_title
;
Structure prediction by ZEFSAII (Michael W. Deem and Ramdas Pophale) SiO2 
 PCOD9327529
Probable space group: F 2 2 2
;
_chemical_formula_sum "Si O2"
_cell_formula_units_Z 56
_cell_length_a 10.528271
_cell_length_b 11.944068
_cell_length_c 20.402236
_cell_angle_alpha 90.000000
_cell_angle_beta 90.000000
_cell_angle_gamma 90.000000
_cell_volume 2565.589027
_symmetry_space_group_name_H-M "F 2 2 2"
_symmetry_group_IT_number 22
_symmetry_cell_setting 'orthorhombic'
loop_
_space_group_symop_operation_xyz
x,y,z
-x,-y,z
x,-y,-z
-x,y,-z
x,1/2+y,1/2+z
-x,1/2-y,1/2+z
x,1/2-y,1/2-z
-x,1/2+y,1/2-z
1/2+x,y,1/2+z
1/2-x,-y,1/2+z
1/2+x,-y,1/2-z
1/2-x,y,1/2-z
1/2+x,1/2+y,z
1/2-x,1/2-y,z
1/2+x,1/2-y,-z
1/2-x,1/2+y,-z
loop_
_atom_site_type_symbol
_atom_site_label
_atom_site_fract_x
_atom_site_fract_y
_atom_site_fract_z
Si Si1 0.274985 0.942039 0.432329
Si Si2 0.500000 0.308448 0.000000
Si Si3 0.012729 0.626561 0.096086
Si Si4 0.785307 0.379845 0.822679
O O1 0.403822 0.881598 0.456411
O O2 0.164187 0.858570 0.406948
O O3 0.234002 0.000000 0.500000
O O4 0.279964 0.039185 0.376909
O O5 0.556996 0.219536 0.947957
O O6 0.000000 0.500000 0.071190
O O7 0.936749 0.620527 0.163765
O O8 0.750000 0.418354 0.750000
O O9 0.750000 0.250000 0.828937
#
# Coordination Sequence:
#
# PCOD9327529 Si02
#       4
#    16   8  16  16
#     4  11  23  40  65 100 136 174 225 284 341 404
#     4  12  22  38  68 104 138 170 228 294 338 402
#     4  10  21  39  63  93 135 181 222 268 341 409
#     4  10  22  44  69  95 133 183 232 280 343 413
#
# _framework density 21.827347
#
# number of rings (size 3 to 8) (size 9 to 14) (size 15 to 20)
#    0.000    1.429    0.000    6.857    0.000    1.143 
#    0.000   25.714    0.000    6.857    0.000    0.000 
#    0.000    0.000    0.000    0.000    0.000    0.000 
#
# Total GULP energy -77972.561731 kJ/mol
# GULP energy per Si atom -5569.468695 kJ/mol
# Density = 2.177767 g / cm^3
# Si number density = 21.827347 Si / 1000 Ang^3
#
#
#
# Elastic Constant Matrix: (Units=GPa)
#
#
# Indices 1 2 3 4 5 6 
#
# 1 119.8209 54.4367 61.4446 0.0000 0.0000 0.0000
# 2 54.4367 123.0163 58.5637 0.0000 0.0000 0.0000
# 3 61.4446 58.5637 184.4798 0.0000 0.0000 0.0000
# 4 0.0000 0.0000 0.0000 36.9369 0.0000 0.0000
# 5 0.0000 0.0000 0.0000 0.0000 37.4986 0.0000
# 6 0.0000 0.0000 0.0000 0.0000 0.0000 35.0720
#
#
#
# Elastic Compliance Matrix: (Units=1/GPa)
#
#
# Indices 1 2 3 4 5 6 
#
# 1 0.011406 -0.003815 -0.002588 0.000000 0.000000 0.000000
# 2 -0.003815 0.010853 -0.002174 0.000000 0.000000 0.000000
# 3 -0.002588 -0.002174 0.006973 0.000000 0.000000 0.000000
# 4 0.000000 0.000000 0.000000 0.027073 0.000000 0.000000
# 5 0.000000 0.000000 0.000000 0.000000 0.026668 0.000000
# 6 0.000000 0.000000 0.000000 0.000000 0.000000 0.028513
#
#
# Mechanical properties :
#
#
# Convention : Reuss Voigt Hill
#
# Bulk Modulus (GPa) = 82.80683 86.24523 84.52603
# Shear Modulus (GPa) = 37.68857 38.75961 38.22409
#
# Velocity S-wave (km/s) = 4.15983 4.21852 4.18928
# Velocity P-wave (km/s) = 7.81612 7.95777 7.88726
#
# Compressibility (1/GPa) = 0.01207630
#
# Stress axis : x y z
#
# Youngs Moduli (GPa) = 87.67091 92.14420 143.41367
#
# Poissons Ratio (x) = 0.35158 0.37113
# Poissons Ratio (y) = 0.33451 0.31183
# Poissons Ratio (z) = 0.22688 0.20035
#
# Static dielectric constant tensor:
#      x y z
#    x 2.013170 0.000000 0.000000 
#    y 0.000000 1.863050 0.000000 
#    z 0.000000 0.000000 1.795930 
# 
# From -- ./inp_files/17674.got.cif
#   From: 2010.05.17/outbox.cif.g08.bks.cpg/sg22_9_cif.got.tgz:17674.got - 2010.06.03 23:40:54.
