data_PCOD9327903
_publ_section_title
;
Structure prediction by ZEFSAII (Michael W. Deem and Ramdas Pophale) SiO2 
 PCOD9327903
Probable space group: F 2 2 2
;
_chemical_formula_sum "Si O2"
_cell_formula_units_Z 100
_cell_length_a 18.254523
_cell_length_b 9.576687
_cell_length_c 27.954584
_cell_angle_alpha 90.000000
_cell_angle_beta 90.000000
_cell_angle_gamma 90.000000
_cell_volume 4886.960359
_symmetry_space_group_name_H-M "F 2 2 2"
_symmetry_group_IT_number 22
_symmetry_cell_setting 'orthorhombic'
loop_
_space_group_symop_operation_xyz
x,y,z
-x,-y,z
x,-y,-z
-x,y,-z
x,1/2+y,1/2+z
-x,1/2-y,1/2+z
x,1/2-y,1/2-z
-x,1/2+y,1/2-z
1/2+x,y,1/2+z
1/2-x,-y,1/2+z
1/2+x,-y,1/2-z
1/2-x,y,1/2-z
1/2+x,1/2+y,z
1/2-x,1/2-y,z
1/2+x,1/2-y,-z
1/2-x,1/2+y,-z
loop_
_atom_site_type_symbol
_atom_site_label
_atom_site_fract_x
_atom_site_fract_y
_atom_site_fract_z
Si Si1 0.750000 0.750000 0.250000
Si Si2 0.652442 0.927273 0.325363
Si Si3 0.069928 0.913701 0.738229
Si Si4 0.338771 0.726110 0.590470
Si Si5 0.824785 0.338067 0.491121
Si Si6 0.833914 0.296657 0.385007
Si Si7 0.411566 0.516762 0.360472
O O1 0.705085 0.848978 0.286675
O O2 0.592394 0.979501 0.288264
O O3 0.629355 0.817510 0.365912
O O4 0.674399 0.062348 0.354732
O O5 0.060717 0.750000 0.750000
O O6 0.115429 0.945691 0.690075
O O7 0.000000 0.000000 0.723872
O O8 0.250000 0.750000 0.593887
O O9 0.363850 0.780430 0.538727
O O10 0.365317 0.569132 0.599840
O O11 0.807710 0.500000 0.500000
O O12 0.750000 0.250000 0.489401
O O13 0.861469 0.323684 0.439259
O O14 0.750000 0.250000 0.388717
O O15 0.884939 0.176963 0.361957
O O16 0.500000 0.500000 0.369518
#
# Coordination Sequence:
#
# PCOD9327903 Si02
#       7
#     4  16  16  16  16  16  16
#     4  12  24  40  62 100 132 172 214 274 352 398
#     4  12  23  39  66  92 131 168 223 276 334 393
#     4  11  25  43  64  91 127 179 230 267 334 423
#     4  11  21  40  72  96 132 178 221 276 335 405
#     4  10  22  39  66 101 135 177 225 275 341 413
#     4  11  26  42  66 104 137 172 229 287 335 401
#     4  11  26  47  67  98 141 183 224 277 346 408
#
# _framework density 20.462619
#
# number of rings (size 3 to 8) (size 9 to 14) (size 15 to 20)
#    0.000    0.960    4.800    0.960   13.440    0.000 
#    0.000    1.600    0.000    0.960    0.000    0.000 
#    0.000    0.000    0.000    0.000    0.000    0.000 
#
# Total GULP energy -139208.796535 kJ/mol
# GULP energy per Si atom -5568.351861 kJ/mol
# Density = 2.041604 g / cm^3
# Si number density = 20.462619 Si / 1000 Ang^3
#
#
#
# Elastic Constant Matrix: (Units=GPa)
#
#
# Indices 1 2 3 4 5 6 
#
# 1 36.8392 -1.9010 1.1799 0.0000 0.0000 0.0000
# 2 -1.9010 117.1573 50.7463 0.0000 0.0000 0.0000
# 3 1.1799 50.7463 158.9571 0.0000 0.0000 0.0000
# 4 0.0000 0.0000 0.0000 36.8564 0.0000 0.0000
# 5 0.0000 0.0000 0.0000 0.0000 10.8583 0.0000
# 6 0.0000 0.0000 0.0000 0.0000 0.0000 29.8026
#
#
#
# Elastic Compliance Matrix: (Units=1/GPa)
#
#
# Indices 1 2 3 4 5 6 
#
# 1 0.027189 0.000613 -0.000398 0.000000 0.000000 0.000000
# 2 0.000613 0.009919 -0.003171 0.000000 0.000000 0.000000
# 3 -0.000398 -0.003171 0.007306 0.000000 0.000000 0.000000
# 4 0.000000 0.000000 0.000000 0.027132 0.000000 0.000000
# 5 0.000000 0.000000 0.000000 0.000000 0.092096 0.000000
# 6 0.000000 0.000000 0.000000 0.000000 0.000000 0.033554
#
#
# Mechanical properties :
#
#
# Convention : Reuss Voigt Hill
#
# Bulk Modulus (GPa) = 25.97134 45.88933 35.93033
# Shear Modulus (GPa) = 23.15432 33.03201 28.09316
#
# Velocity S-wave (km/s) = 3.36749 4.02215 3.70929
# Velocity P-wave (km/s) = 5.27633 6.63663 5.99518
#
# Compressibility (1/GPa) = 0.03850399
#
# Stress axis : x y z
#
# Youngs Moduli (GPa) = 36.77908 100.81589 136.86743
#
# Poissons Ratio (x) = -0.06184 0.05443
# Poissons Ratio (y) = -0.02256 0.43403
# Poissons Ratio (z) = 0.01463 0.31970
#
# Static dielectric constant tensor:
#      x y z
#    x 1.805230 0.000000 0.000000 
#    y 0.000000 1.746660 0.000000 
#    z 0.000000 0.000000 1.765320 
# 
# From -- ./inp_files/53907.got.cif
#   From: 2010.05.17/outbox.cif.g08.bks.cpg/sg22_27_cif.got.tgz:53907.got - 2010.06.03 23:40:54.
