data_PCOD9327761
_publ_section_title
;
Structure prediction by ZEFSAII (Michael W. Deem and Ramdas Pophale) SiO2 
 PCOD9327761
Probable space group: F 2 2 2
;
_chemical_formula_sum "Si O2"
_cell_formula_units_Z 52
_cell_length_a 13.491510
_cell_length_b 7.873554
_cell_length_c 18.175046
_cell_angle_alpha 90.000000
_cell_angle_beta 90.000000
_cell_angle_gamma 90.000000
_cell_volume 1930.664845
_symmetry_space_group_name_H-M "F 2 2 2"
_symmetry_group_IT_number 22
_symmetry_cell_setting 'orthorhombic'
loop_
_space_group_symop_operation_xyz
x,y,z
-x,-y,z
x,-y,-z
-x,y,-z
x,1/2+y,1/2+z
-x,1/2-y,1/2+z
x,1/2-y,1/2-z
-x,1/2+y,1/2-z
1/2+x,y,1/2+z
1/2-x,-y,1/2+z
1/2+x,-y,1/2-z
1/2-x,y,1/2-z
1/2+x,1/2+y,z
1/2-x,1/2-y,z
1/2+x,1/2-y,-z
1/2-x,1/2+y,-z
loop_
_atom_site_type_symbol
_atom_site_label
_atom_site_fract_x
_atom_site_fract_y
_atom_site_fract_z
Si Si1 0.500000 0.500000 0.500000
Si Si2 0.521571 0.740704 0.168864
Si Si3 0.175409 0.907384 0.600202
Si Si4 0.629840 0.062929 0.416168
O O1 0.581526 0.395854 0.545945
O O2 0.478174 0.750000 0.250000
O O3 0.608780 0.884911 0.172532
O O4 0.586893 0.579053 0.140992
O O5 0.429336 0.728882 0.111425
O O6 0.250000 0.750000 0.587101
O O7 0.251619 0.060009 0.591319
O O8 0.608755 0.000000 0.500000
#
# Coordination Sequence:
#
# PCOD9327761 Si02
#       4
#     4  16  16  16
#     4  12  24  36  64 108 128 156 234 280 324 404
#     4  10  22  40  70  97 135 186 221 272 344 408
#     4  10  24  40  66  97 133 174 223 277 340 394
#     4  10  21  43  72  99 134 181 230 279 340 400
#
# _framework density 26.933727000000001
#
# number of rings (size 3 to 8) (size 9 to 14) (size 15 to 20)
#    0.000    1.846    1.538    1.846    8.615    8.000 
#    0.000    0.000    0.000   12.923    0.000    0.000 
#    0.000    0.000    0.000    0.000    0.000    0.000 
#
# Total GULP energy -72395.716770 kJ/mol
# GULP energy per Si atom -5568.901290 kJ/mol
# Density = 2.687242 g / cm^3
# Si number density = 26.933727 Si / 1000 Ang^3
#
#
#
# Elastic Constant Matrix: (Units=GPa)
#
#
# Indices 1 2 3 4 5 6 
#
# 1 324.3050 66.1581 70.4537 0.0000 0.0000 0.0000
# 2 66.1581 85.9774 30.3624 0.0000 0.0000 0.0000
# 3 70.4537 30.3624 149.4079 0.0000 0.0000 0.0000
# 4 0.0000 0.0000 0.0000 25.5952 0.0000 0.0000
# 5 0.0000 0.0000 0.0000 0.0000 24.0550 0.0000
# 6 0.0000 0.0000 0.0000 0.0000 0.0000 63.6600
#
#
#
# Elastic Compliance Matrix: (Units=1/GPa)
#
#
# Indices 1 2 3 4 5 6 
#
# 1 0.003885 -0.002524 -0.001319 0.000000 0.000000 0.000000
# 2 -0.002524 0.014169 -0.001690 0.000000 0.000000 0.000000
# 3 -0.001319 -0.001690 0.007658 0.000000 0.000000 0.000000
# 4 0.000000 0.000000 0.000000 0.039070 0.000000 0.000000
# 5 0.000000 0.000000 0.000000 0.000000 0.041571 0.000000
# 6 0.000000 0.000000 0.000000 0.000000 0.000000 0.015708
#
#
# Mechanical properties :
#
#
# Convention : Reuss Voigt Hill
#
# Bulk Modulus (GPa) = 68.26643 99.29318 83.77980
# Shear Modulus (GPa) = 36.22936 48.84309 42.53622
#
# Velocity S-wave (km/s) = 3.67158 4.26309 3.97834
# Velocity P-wave (km/s) = 6.58598 7.82161 7.23024
#
# Compressibility (1/GPa) = 0.01464849
#
# Stress axis : x y z
#
# Youngs Moduli (GPa) = 257.40803 70.57459 130.57469
#
# Poissons Ratio (x) = 0.17810 0.17224
# Poissons Ratio (y) = 0.64957 0.22061
# Poissons Ratio (z) = 0.33955 0.11924
#
# Static dielectric constant tensor:
#      x y z
#    x 2.113390 0.000000 0.000000 
#    y 0.000000 2.755490 0.000000 
#    z 0.000000 0.000000 2.540730 
# 
# From -- ./inp_files/28724.got.cif
#   From: 2010.05.17/outbox.cif.g08.bks.cpg/sg22_15_cif.got.tgz:28724.got - 2010.06.03 23:40:54.
