data_PCOD9327060
_publ_section_title
;
Structure prediction by ZEFSAII (Michael W. Deem and Ramdas Pophale) SiO2 
 PCOD9327060
Probable space group: F 2 2 2
;
_chemical_formula_sum "Si O2"
_cell_formula_units_Z 56
_cell_length_a 13.182262
_cell_length_b 8.657522
_cell_length_c 21.823888
_cell_angle_alpha 90.000000
_cell_angle_beta 90.000000
_cell_angle_gamma 90.000000
_cell_volume 2490.667003
_symmetry_space_group_name_H-M "F 2 2 2"
_symmetry_group_IT_number 22
_symmetry_cell_setting 'orthorhombic'
loop_
_space_group_symop_operation_xyz
x,y,z
-x,-y,z
x,-y,-z
-x,y,-z
x,1/2+y,1/2+z
-x,1/2-y,1/2+z
x,1/2-y,1/2-z
-x,1/2+y,1/2-z
1/2+x,y,1/2+z
1/2-x,-y,1/2+z
1/2+x,-y,1/2-z
1/2-x,y,1/2-z
1/2+x,1/2+y,z
1/2-x,1/2-y,z
1/2+x,1/2-y,-z
1/2-x,1/2+y,-z
loop_
_atom_site_type_symbol
_atom_site_label
_atom_site_fract_x
_atom_site_fract_y
_atom_site_fract_z
Si Si1 0.349102 0.500000 0.000000
Si Si2 0.761468 0.499041 0.117418
Si Si3 0.430957 0.654101 0.311626
Si Si4 0.407151 0.210188 0.395844
O O1 0.278785 0.570816 0.053754
O O2 0.409476 0.372609 0.038596
O O3 0.820933 0.393566 0.164062
O O4 0.663345 0.591158 0.143239
O O5 0.842551 0.632836 0.099501
O O6 0.500000 0.500000 0.303336
O O7 0.427807 0.750000 0.250000
O O8 0.487632 0.753657 0.364124
#
# Coordination Sequence:
#
# PCOD9327060 Si02
#       4
#     8  16  16  16
#     4   8  14  32  63  94 127 170 226 270 348 420
#     4   8  16  33  61  96 132 174 220 278 346 405
#     4  10  20  38  63  99 140 176 232 283 335 417
#     4   8  16  33  60  96 129 176 222 274 352 399
#
# _framework density 22.483937999999998
#
# number of rings (size 3 to 8) (size 9 to 14) (size 15 to 20)
#    1.714    1.714    0.000    0.000    0.000    0.000 
#    0.000   23.571    0.000    1.714    7.429    0.000 
#    0.000    0.000    0.000    0.000    0.000    0.000 
#
# Total GULP energy -78084.669524 kJ/mol
# GULP energy per Si atom -5577.476395 kJ/mol
# Density = 2.243276 g / cm^3
# Si number density = 22.483938 Si / 1000 Ang^3
#
#
#
# Elastic Constant Matrix: (Units=GPa)
#
#
# Indices 1 2 3 4 5 6 
#
# 1 68.0917 57.9032 37.7619 0.0000 0.0000 0.0000
# 2 57.9032 109.3593 74.1816 0.0000 0.0000 0.0000
# 3 37.7619 74.1816 114.9011 0.0000 0.0000 0.0000
# 4 0.0000 0.0000 0.0000 46.2891 0.0000 0.0000
# 5 0.0000 0.0000 0.0000 0.0000 245.3185 0.0000
# 6 0.0000 0.0000 0.0000 0.0000 0.0000 30.2300
#
#
#
# Elastic Compliance Matrix: (Units=1/GPa)
#
#
# Indices 1 2 3 4 5 6 
#
# 1 0.026740 -0.014584 0.000627 0.000000 0.000000 0.000000
# 2 -0.014584 0.024223 -0.010846 0.000000 0.000000 0.000000
# 3 0.000627 -0.010846 0.015499 0.000000 0.000000 0.000000
# 4 0.000000 0.000000 0.000000 0.021603 0.000000 0.000000
# 5 0.000000 0.000000 0.000000 0.000000 0.004076 0.000000
# 6 0.000000 0.000000 0.000000 0.000000 0.000000 0.033080
#
#
# Mechanical properties :
#
#
# Convention : Reuss Voigt Hill
#
# Bulk Modulus (GPa) = 59.31984 70.22729 64.77357
# Shear Modulus (GPa) = 27.70947 72.53454 50.12200
#
# Velocity S-wave (km/s) = 3.51438 5.68600 4.72660
# Velocity P-wave (km/s) = 6.55044 8.62611 7.65892
#
# Compressibility (1/GPa) = 0.01685777
#
# Stress axis : x y z
#
# Youngs Moduli (GPa) = 37.39769 41.28341 64.52028
#
# Poissons Ratio (x) = 0.60206 -0.04049
# Poissons Ratio (y) = 0.54540 0.69977
# Poissons Ratio (z) = -0.02347 0.44775
#
# Static dielectric constant tensor:
#      x y z
#    x 1.852430 0.000000 0.000000 
#    y 0.000000 1.854620 0.000000 
#    z 0.000000 0.000000 1.759590 
# 
# From -- ./inp_files/43183.got.cif
#   From: 2010.05.17/outbox.cif.g08.bks.cpg/sg22_22_cif.got.tgz:43183.got - 2010.06.03 23:40:54.
