data_PCOD9327345
_publ_section_title
;
Structure prediction by ZEFSAII (Michael W. Deem and Ramdas Pophale) SiO2 
 PCOD9327345
Probable space group: F 2 2 2
;
_chemical_formula_sum "Si O2"
_cell_formula_units_Z 96
_cell_length_a 14.679565
_cell_length_b 17.247829
_cell_length_c 20.522516
_cell_angle_alpha 90.000000
_cell_angle_beta 90.000000
_cell_angle_gamma 90.000000
_cell_volume 5196.108692
_symmetry_space_group_name_H-M "F 2 2 2"
_symmetry_group_IT_number 22
_symmetry_cell_setting 'orthorhombic'
loop_
_space_group_symop_operation_xyz
x,y,z
-x,-y,z
x,-y,-z
-x,y,-z
x,1/2+y,1/2+z
-x,1/2-y,1/2+z
x,1/2-y,1/2-z
-x,1/2+y,1/2-z
1/2+x,y,1/2+z
1/2-x,-y,1/2+z
1/2+x,-y,1/2-z
1/2-x,y,1/2-z
1/2+x,1/2+y,z
1/2-x,1/2-y,z
1/2+x,1/2-y,-z
1/2-x,1/2+y,-z
loop_
_atom_site_type_symbol
_atom_site_label
_atom_site_fract_x
_atom_site_fract_y
_atom_site_fract_z
Si Si1 0.393528 0.586463 0.480105
Si Si2 0.070017 0.802777 0.814987
Si Si3 0.206719 0.908027 0.346301
Si Si4 0.837876 0.195200 0.592509
Si Si5 0.133240 0.334909 0.719003
Si Si6 0.767216 0.923689 0.174563
O O1 0.360278 0.500000 0.500000
O O2 0.500000 0.586983 0.500000
O O3 0.363319 0.601255 0.405782
O O4 0.352675 0.654019 0.524401
O O5 0.092354 0.750000 0.750000
O O6 0.080496 0.744604 0.876192
O O7 0.141068 0.872349 0.828258
O O8 0.969655 0.836640 0.805880
O O9 0.152557 0.896019 0.277750
O O10 0.291216 0.849235 0.336339
O O11 0.256697 0.990891 0.354638
O O12 0.750000 0.250000 0.589685
O O13 0.812136 0.127729 0.643067
O O14 0.144815 0.250000 0.750000
O O15 0.750000 0.934255 0.250000
#
# Coordination Sequence:
#
# PCOD9327345 Si02
#       6
#    16  16  16  16  16  16
#     4  11  25  42  62  90 124 168 218 263 309 388
#     4  10  21  35  62  93 128 154 204 271 312 385
#     4  11  22  41  62  85 129 168 206 258 322 387
#     4  10  22  40  61  91 120 164 206 258 320 365
#     4  10  23  40  60  97 126 163 209 266 329 378
#     4  11  19  35  61  91 121 159 210 257 322 367
#
# _framework density 18.475365
#
# number of rings (size 3 to 8) (size 9 to 14) (size 15 to 20)
#    0.000    1.500    5.000    1.000    4.667    2.000 
#    0.000    0.000    0.000    0.000    0.000    0.000 
#    0.000    0.000    0.000    0.000    0.000    0.000 
#
# Total GULP energy -133710.450262 kJ/mol
# GULP energy per Si atom -5571.268761 kJ/mol
# Density = 1.843331 g / cm^3
# Si number density = 18.475365 Si / 1000 Ang^3
#
#
#
# Elastic Constant Matrix: (Units=GPa)
#
#
# Indices 1 2 3 4 5 6 
#
# 1 102.8990 34.4762 36.0764 0.0000 0.0000 0.0000
# 2 34.4762 89.0853 24.8328 0.0000 0.0000 0.0000
# 3 36.0764 24.8328 90.8931 0.0000 0.0000 0.0000
# 4 0.0000 0.0000 0.0000 31.1437 0.0000 0.0000
# 5 0.0000 0.0000 0.0000 0.0000 22.9614 0.0000
# 6 0.0000 0.0000 0.0000 0.0000 0.0000 15.4672
#
#
#
# Elastic Compliance Matrix: (Units=1/GPa)
#
#
# Indices 1 2 3 4 5 6 
#
# 1 0.012313 -0.003683 -0.003881 0.000000 0.000000 0.000000
# 2 -0.003683 0.013252 -0.002159 0.000000 0.000000 0.000000
# 3 -0.003881 -0.002159 0.013132 0.000000 0.000000 0.000000
# 4 0.000000 0.000000 0.000000 0.032109 0.000000 0.000000
# 5 0.000000 0.000000 0.000000 0.000000 0.043551 0.000000
# 6 0.000000 0.000000 0.000000 0.000000 0.000000 0.064653
#
#
# Mechanical properties :
#
#
# Convention : Reuss Voigt Hill
#
# Bulk Modulus (GPa) = 51.94356 52.62757 52.28556
# Shear Modulus (GPa) = 24.40527 26.41394 25.40961
#
# Velocity S-wave (km/s) = 3.63845 3.78522 3.71256
# Velocity P-wave (km/s) = 6.76958 6.90297 6.83660
#
# Compressibility (1/GPa) = 0.01925166
#
# Stress axis : x y z
#
# Youngs Moduli (GPa) = 81.21501 75.45797 76.14961
#
# Poissons Ratio (x) = 0.27794 0.29552
# Poissons Ratio (y) = 0.29914 0.16438
# Poissons Ratio (z) = 0.31518 0.16289
#
# Static dielectric constant tensor:
#      x y z
#    x 1.655110 0.000000 0.000000 
#    y 0.000000 1.684260 0.000000 
#    z 0.000000 0.000000 1.609780 
# 
# From -- ./inp_files/43468.got.cif
#   From: 2010.05.17/outbox.cif.g08.bks.cpg/sg22_22_cif.got.tgz:43468.got - 2010.06.03 23:40:54.
