data_PCOD9327286
_publ_section_title
;
Structure prediction by ZEFSAII (Michael W. Deem and Ramdas Pophale) SiO2 
 PCOD9327286
Probable space group: F 2 2 2
;
_chemical_formula_sum "Si O2"
_cell_formula_units_Z 104
_cell_length_a 25.929698
_cell_length_b 8.090766
_cell_length_c 22.149031
_cell_angle_alpha 90.000000
_cell_angle_beta 90.000000
_cell_angle_gamma 90.000000
_cell_volume 4646.669998
_symmetry_space_group_name_H-M "F 2 2 2"
_symmetry_group_IT_number 22
_symmetry_cell_setting 'orthorhombic'
loop_
_space_group_symop_operation_xyz
x,y,z
-x,-y,z
x,-y,-z
-x,y,-z
x,1/2+y,1/2+z
-x,1/2-y,1/2+z
x,1/2-y,1/2-z
-x,1/2+y,1/2-z
1/2+x,y,1/2+z
1/2-x,-y,1/2+z
1/2+x,-y,1/2-z
1/2-x,y,1/2-z
1/2+x,1/2+y,z
1/2-x,1/2-y,z
1/2+x,1/2-y,-z
1/2-x,1/2+y,-z
loop_
_atom_site_type_symbol
_atom_site_label
_atom_site_fract_x
_atom_site_fract_y
_atom_site_fract_z
Si Si1 0.709039 0.536135 0.570457
Si Si2 0.818150 0.407022 0.393044
Si Si3 0.410585 0.224132 0.677849
Si Si4 0.389844 0.409614 0.367447
Si Si5 0.441289 0.321746 0.480672
Si Si6 0.000000 0.000000 0.812160
Si Si7 0.118682 0.500000 0.500000
Si Si8 0.922092 0.250000 0.750000
O O1 0.720224 0.500000 0.500000
O O2 0.760281 0.524998 0.611962
O O3 0.690175 0.726063 0.576449
O O4 0.663858 0.422822 0.597052
O O5 0.857621 0.373168 0.338396
O O6 0.846908 0.521168 0.441041
O O7 0.415102 0.250000 0.750000
O O8 0.407542 0.403339 0.647127
O O9 0.460644 0.123856 0.654714
O O10 0.431967 0.320229 0.409232
O O11 0.387873 0.313420 0.304939
O O12 0.418417 0.500000 0.500000
O O13 0.500000 0.320670 0.500000
O O14 0.414222 0.164231 0.509015
O O15 0.039377 0.893351 0.771981
#
# Coordination Sequence:
#
# PCOD9327286 Si02
#       8
#    16  16  16  16  16   8   8   8
#     4  10  20  45  72 101 138 186 231 299 375 436
#     4  10  23  39  71 106 135 179 240 296 361 436
#     4  11  23  46  70 102 140 188 243 299 360 439
#     4  11  24  44  72  98 145 183 242 306 362 441
#     4  11  26  46  67 103 144 189 235 302 374 430
#     4  12  24  42  68  95 137 188 242 286 356 434
#     4  12  23  44  68 104 138 184 235 296 362 452
#     4  12  24  42  66 105 136 191 236 294 354 434
#
# _framework density 22.381619000000001
#
# number of rings (size 3 to 8) (size 9 to 14) (size 15 to 20)
#    0.000    1.077    3.077    3.462    2.154    4.923 
#    0.000    6.154    0.000    0.923    0.000    0.000 
#    0.000    0.000    0.000    0.000    0.000    0.000 
#
# Total GULP energy -145456.431958 kJ/mol
# GULP energy per Si atom -5594.478152 kJ/mol
# Density = 2.233068 g / cm^3
# Si number density = 22.381619 Si / 1000 Ang^3
#
#
#
# Elastic Constant Matrix: (Units=GPa)
#
#
# Indices 1 2 3 4 5 6 
#
# 1 154.8351 44.9131 51.8041 0.0000 0.0000 0.0000
# 2 44.9131 80.9771 14.5251 0.0000 -0.0001 0.0000
# 3 51.8041 14.5251 81.8658 0.0000 0.0000 0.0000
# 4 0.0000 0.0000 0.0000 33.0593 0.0000 0.0000
# 5 0.0000 -0.0001 0.0000 0.0000 -10.3422 0.0000
# 6 0.0000 0.0000 0.0000 0.0000 0.0000 19.1110
#
#
#
# Elastic Compliance Matrix: (Units=1/GPa)
#
#
# Indices 1 2 3 4 5 6 
#
# 1 0.009454 -0.004307 -0.005218 0.000000 0.000000 0.000000
# 2 -0.004307 0.014718 0.000114 0.000000 0.000000 0.000000
# 3 -0.005218 0.000114 0.015497 0.000000 0.000000 0.000000
# 4 0.000000 0.000000 0.000000 0.030249 0.000000 0.000000
# 5 0.000000 0.000000 0.000000 0.000000 -0.096691 0.000000
# 6 0.000000 0.000000 0.000000 0.000000 0.000000 0.052326
#
#
# Mechanical properties :
#
#
# Convention : Reuss Voigt Hill
#
# Bulk Modulus (GPa) = 47.97054 60.01807 53.99431
# Shear Modulus (GPa) = 97.42308 22.12800 59.77554
#
# Velocity S-wave (km/s) = 6.60475 3.14772 5.17353
# Velocity P-wave (km/s) = 8.92430 6.33126 7.73718
#
# Compressibility (1/GPa) = 0.02084613
#
# Stress axis : x y z
#
# Youngs Moduli (GPa) = 105.77768 67.94517 64.52967
#
# Poissons Ratio (x) = 0.29267 0.33672
# Poissons Ratio (y) = 0.45563 -0.00738
# Poissons Ratio (z) = 0.55195 -0.00778
#
# Static dielectric constant tensor:
#      x y z
#    x 1.838180 0.000000 0.000000 
#    y 0.000000 1.885400 0.000000 
#    z 0.000000 0.000000 1.842220 
# 
# From -- ./inp_files/45816.got.cif
#   From: 2010.05.17/outbox.cif.g08.bks.cpg/sg22_23_cif.got.tgz:45816.got - 2010.06.03 23:40:54.
