data_PCOD9327069
_publ_section_title
;
Structure prediction by ZEFSAII (Michael W. Deem and Ramdas Pophale) SiO2 
 PCOD9327069
Probable space group: F 2 2 2
;
_chemical_formula_sum "Si O2"
_cell_formula_units_Z 112
_cell_length_a 14.258300
_cell_length_b 23.327122
_cell_length_c 15.962818
_cell_angle_alpha 90.000000
_cell_angle_beta 90.000000
_cell_angle_gamma 90.000000
_cell_volume 5309.314735
_symmetry_space_group_name_H-M "F 2 2 2"
_symmetry_group_IT_number 22
_symmetry_cell_setting 'orthorhombic'
loop_
_space_group_symop_operation_xyz
x,y,z
-x,-y,z
x,-y,-z
-x,y,-z
x,1/2+y,1/2+z
-x,1/2-y,1/2+z
x,1/2-y,1/2-z
-x,1/2+y,1/2-z
1/2+x,y,1/2+z
1/2-x,-y,1/2+z
1/2+x,-y,1/2-z
1/2-x,y,1/2-z
1/2+x,1/2+y,z
1/2-x,1/2-y,z
1/2+x,1/2-y,-z
1/2-x,1/2+y,-z
loop_
_atom_site_type_symbol
_atom_site_label
_atom_site_fract_x
_atom_site_fract_y
_atom_site_fract_z
Si Si1 0.340654 0.772755 0.376911
Si Si2 0.689846 0.890990 0.163859
Si Si3 0.670337 0.985602 0.403724
Si Si4 0.460884 0.413079 0.208925
Si Si5 0.676373 0.395267 0.177819
Si Si6 0.948547 0.216991 0.829730
Si Si7 0.396340 0.300924 0.468277
O O1 0.250000 0.750000 0.330972
O O2 0.330703 0.841836 0.386625
O O3 0.440927 0.769520 0.332831
O O4 0.345617 0.725764 0.451540
O O5 0.750000 0.874923 0.250000
O O6 0.750975 0.937836 0.114725
O O7 0.594840 0.917673 0.203800
O O8 0.657691 0.843567 0.095338
O O9 0.580534 0.959815 0.354580
O O10 0.650149 0.000000 0.500000
O O11 0.704681 0.045274 0.364370
O O12 0.572797 0.408827 0.214944
O O13 0.433719 0.350081 0.174791
O O14 0.750000 0.380241 0.250000
O O15 0.907171 0.250000 0.750000
O O16 0.911176 0.243971 0.913625
O O17 0.500000 0.322164 0.500000
#
# Coordination Sequence:
#
# PCOD9327069 Si02
#       7
#    16  16  16  16  16  16  16
#     4  10  25  37  62  96 138 173 218 278 349 406
#     4  10  22  44  72  99 135 179 234 287 343 424
#     4  11  26  45  68  98 137 174 230 296 343 411
#     4  10  22  42  71  97 130 180 230 278 349 412
#     4  11  25  43  69  98 133 182 235 287 340 415
#     4  10  20  38  64  99 130 174 227 271 329 423
#     4  10  22  41  65  97 142 178 222 282 351 416
#
# _framework density 21.095002000000001
#
# number of rings (size 3 to 8) (size 9 to 14) (size 15 to 20)
#    0.000    1.714    1.429    1.714    8.000    2.286 
#    0.000    2.143    0.000    0.000    0.000    0.000 
#    0.000    0.000    0.000    0.000    0.000    0.000 
#
# Total GULP energy -156038.574251 kJ/mol
# GULP energy per Si atom -5572.806223 kJ/mol
# Density = 2.104699 g / cm^3
# Si number density = 21.095002 Si / 1000 Ang^3
#
#
#
# Elastic Constant Matrix: (Units=GPa)
#
#
# Indices 1 2 3 4 5 6 
#
# 1 108.5947 36.2294 39.0009 0.0000 0.0000 0.0000
# 2 36.2294 98.5698 63.2281 0.0000 0.0000 0.0000
# 3 39.0009 63.2281 122.4543 0.0000 0.0000 0.0000
# 4 0.0000 0.0000 0.0000 53.8785 0.0000 0.0000
# 5 0.0000 0.0000 0.0000 0.0000 1.0034 0.0000
# 6 0.0000 0.0000 0.0000 0.0000 0.0000 14.7894
#
#
#
# Elastic Compliance Matrix: (Units=1/GPa)
#
#
# Indices 1 2 3 4 5 6 
#
# 1 0.010841 -0.002646 -0.002086 0.000000 0.000000 0.000000
# 2 -0.002646 0.015815 -0.007323 0.000000 0.000000 0.000000
# 3 -0.002086 -0.007323 0.012612 0.000000 0.000000 0.000000
# 4 0.000000 0.000000 0.000000 0.018560 0.000000 0.000000
# 5 0.000000 0.000000 0.000000 0.000000 0.996646 0.000000
# 6 0.000000 0.000000 0.000000 0.000000 0.000000 0.067616
#
#
# Mechanical properties :
#
#
# Convention : Reuss Voigt Hill
#
# Bulk Modulus (GPa) = 65.97868 67.39285 66.68577
# Shear Modulus (GPa) = 4.34309 26.67828 15.51068
#
# Velocity S-wave (km/s) = 1.43642 3.56008 2.71454
# Velocity P-wave (km/s) = 5.83917 6.99397 6.44249
#
# Compressibility (1/GPa) = 0.01515641
#
# Stress axis : x y z
#
# Youngs Moduli (GPa) = 92.24517 63.23010 79.28894
#
# Poissons Ratio (x) = 0.16732 0.16542
# Poissons Ratio (y) = 0.24410 0.58065
# Poissons Ratio (z) = 0.19245 0.46305
#
# Static dielectric constant tensor:
#      x y z
#    x 1.809210 0.000000 0.000000 
#    y 0.000000 1.779090 0.000000 
#    z 0.000000 0.000000 1.768480 
# 
# From -- ./inp_files/29598.got.cif
#   From: 2010.05.17/outbox.cif.g08.bks.cpg/sg22_15_cif.got.tgz:29598.got - 2010.06.03 23:40:54.
