data_PCOD9327654
_publ_section_title
;
Structure prediction by ZEFSAII (Michael W. Deem and Ramdas Pophale) SiO2 
 PCOD9327654
Probable space group: F 2 2 2
;
_chemical_formula_sum "Si O2"
_cell_formula_units_Z 116
_cell_length_a 18.611953
_cell_length_b 13.880204
_cell_length_c 21.521545
_cell_angle_alpha 90.000000
_cell_angle_beta 90.000000
_cell_angle_gamma 90.000000
_cell_volume 5559.826532
_symmetry_space_group_name_H-M "F 2 2 2"
_symmetry_group_IT_number 22
_symmetry_cell_setting 'orthorhombic'
loop_
_space_group_symop_operation_xyz
x,y,z
-x,-y,z
x,-y,-z
-x,y,-z
x,1/2+y,1/2+z
-x,1/2-y,1/2+z
x,1/2-y,1/2-z
-x,1/2+y,1/2-z
1/2+x,y,1/2+z
1/2-x,-y,1/2+z
1/2+x,-y,1/2-z
1/2-x,y,1/2-z
1/2+x,1/2+y,z
1/2-x,1/2-y,z
1/2+x,1/2-y,-z
1/2-x,1/2+y,-z
loop_
_atom_site_type_symbol
_atom_site_label
_atom_site_fract_x
_atom_site_fract_y
_atom_site_fract_z
Si Si1 0.635794 0.145598 0.157848
Si Si2 0.250000 0.750000 0.250000
Si Si3 0.486866 0.737595 0.675621
Si Si4 0.773437 0.139763 0.463933
Si Si5 0.125406 0.929702 0.692197
Si Si6 0.241908 0.636942 0.900169
Si Si7 0.861377 0.994668 0.932742
Si Si8 0.934002 0.056416 0.819982
O O1 0.696934 0.187611 0.205011
O O2 0.566920 0.214294 0.153787
O O3 0.669446 0.131289 0.090138
O O4 0.609178 0.041278 0.179922
O O5 0.491758 0.750000 0.750000
O O6 0.431804 0.648633 0.666185
O O7 0.457827 0.840510 0.652695
O O8 0.750000 0.250000 0.468266
O O9 0.797242 0.113006 0.533865
O O10 0.703150 0.080426 0.442902
O O11 0.199934 0.908130 0.657328
O O12 0.124422 0.920991 0.766954
O O13 0.250000 0.750000 0.890721
O O14 0.319715 0.592043 0.913188
O O15 0.910709 0.982025 0.873465
O O16 0.898189 0.000000 0.000000
O O17 0.000000 0.000000 0.787591
#
# Coordination Sequence:
#
# PCOD9327654 Si02
#       8
#    16   4  16  16  16  16  16  16
#     4  12  23  39  63  96 132 168 218 275 331 393
#     4  12  28  36  64 100 138 164 222 282 332 404
#     4  10  22  43  60  88 131 174 214 268 330 390
#     4  10  22  38  64  94 128 170 209 272 331 383
#     4  11  23  40  65  93 129 170 218 265 334 390
#     4  10  21  41  65  93 131 168 212 265 329 398
#     4  10  22  42  64  93 128 164 214 271 325 388
#     4  11  25  40  66  93 128 177 220 271 329 394
#
# _framework density 20.863959000000001
#
# number of rings (size 3 to 8) (size 9 to 14) (size 15 to 20)
#    0.000    1.379    2.759    2.897    3.862    0.828 
#    0.000    1.379    3.034    3.310    0.000    0.000 
#    0.000    0.000    0.000    0.000    0.000    0.000 
#
# Total GULP energy -161865.024511 kJ/mol
# GULP energy per Si atom -5581.552569 kJ/mol
# Density = 2.081647 g / cm^3
# Si number density = 20.863959 Si / 1000 Ang^3
#
#
#
# Elastic Constant Matrix: (Units=GPa)
#
#
# Indices 1 2 3 4 5 6 
#
# 1 62.5034 20.1282 47.1817 0.0000 0.0000 0.0000
# 2 20.1282 103.9855 14.7627 0.0000 0.0000 0.0000
# 3 47.1817 14.7627 119.2696 0.0000 0.0000 0.0000
# 4 0.0000 0.0000 0.0000 24.1312 0.0000 0.0000
# 5 0.0000 0.0000 0.0000 0.0000 407.9021 0.0000
# 6 0.0000 0.0000 0.0000 0.0000 0.0000 28.2223
#
#
#
# Elastic Compliance Matrix: (Units=1/GPa)
#
#
# Indices 1 2 3 4 5 6 
#
# 1 0.023900 -0.003343 -0.009041 0.000000 0.000000 0.000000
# 2 -0.003343 0.010256 0.000053 0.000000 0.000000 0.000000
# 3 -0.009041 0.000053 0.011954 0.000000 0.000000 0.000000
# 4 0.000000 0.000000 0.000000 0.041440 0.000000 0.000000
# 5 0.000000 0.000000 0.000000 0.000000 0.002452 0.000000
# 6 0.000000 0.000000 0.000000 0.000000 0.000000 0.035433
#
#
# Mechanical properties :
#
#
# Convention : Reuss Voigt Hill
#
# Bulk Modulus (GPa) = 46.62170 49.98929 48.30549
# Shear Modulus (GPa) = 31.79713 105.63020 68.71366
#
# Velocity S-wave (km/s) = 3.90811 7.12306 5.74505
# Velocity P-wave (km/s) = 6.53900 9.57404 8.19819
#
# Compressibility (1/GPa) = 0.02144924
#
# Stress axis : x y z
#
# Youngs Moduli (GPa) = 41.84044 97.50128 83.65187
#
# Poissons Ratio (x) = 0.32593 0.75629
# Poissons Ratio (y) = 0.13986 -0.00442
# Poissons Ratio (z) = 0.37828 -0.00516
#
# Static dielectric constant tensor:
#      x y z
#    x 1.855450 0.000000 0.000000 
#    y 0.000000 0.701570 0.000000 
#    z 0.000000 0.000000 1.795210 
# 
# From -- ./inp_files/49486.got.cif
#   From: 2010.05.17/outbox.cif.g08.bks.cpg/sg22_25_cif.got.tgz:49486.got - 2010.06.03 23:40:54.
