data_PCOD9327833
_publ_section_title
;
Structure prediction by ZEFSAII (Michael W. Deem and Ramdas Pophale) SiO2 
 PCOD9327833
Probable space group: F 2 2 2
;
_chemical_formula_sum "Si O2"
_cell_formula_units_Z 60
_cell_length_a 16.421657
_cell_length_b 5.378219
_cell_length_c 32.039897
_cell_angle_alpha 90.000000
_cell_angle_beta 90.000000
_cell_angle_gamma 90.000000
_cell_volume 2829.740240
_symmetry_space_group_name_H-M "F 2 2 2"
_symmetry_group_IT_number 22
_symmetry_cell_setting 'orthorhombic'
loop_
_space_group_symop_operation_xyz
x,y,z
-x,-y,z
x,-y,-z
-x,y,-z
x,1/2+y,1/2+z
-x,1/2-y,1/2+z
x,1/2-y,1/2-z
-x,1/2+y,1/2-z
1/2+x,y,1/2+z
1/2-x,-y,1/2+z
1/2+x,-y,1/2-z
1/2-x,y,1/2-z
1/2+x,1/2+y,z
1/2-x,1/2-y,z
1/2+x,1/2-y,-z
1/2-x,1/2+y,-z
loop_
_atom_site_type_symbol
_atom_site_label
_atom_site_fract_x
_atom_site_fract_y
_atom_site_fract_z
Si Si1 0.400497 0.994806 0.951828
Si Si2 0.750000 0.750000 0.750000
Si Si3 0.331675 0.107300 0.316092
Si Si4 0.901557 0.992484 0.904216
Si Si5 0.448886 0.250000 0.250000
O O1 0.374838 0.743700 0.928113
O O2 0.500000 0.000000 0.951889
O O3 0.374319 0.244093 0.928018
O O4 0.374321 0.000000 0.000000
O O5 0.694849 0.586155 0.780496
O O6 0.250000 0.250000 0.328402
O O7 0.394312 0.283620 0.291506
O O8 0.370811 0.992033 0.356942
O O9 0.000000 0.000000 0.903915
O O10 0.500000 0.500000 0.243582
#
# Coordination Sequence:
#
# PCOD9327833 Si02
#       5
#    16   4  16  16   8
#     4   9  18  36  62  95 133 167 207 266 334 391
#     4  12  24  48  68  88 132 182 238 250 334 410
#     4  12  26  44  66  95 133 181 225 268 333 410
#     4  10  22  37  63 100 129 165 219 276 322 377
#     4  12  26  44  69  97 130 172 226 290 340 380
#
# _framework density 21.20336
#
# number of rings (size 3 to 8) (size 9 to 14) (size 15 to 20)
#    0.000    1.333    2.667    2.400    3.733    6.400 
#    0.000    0.000    0.000    3.200    0.000    0.000 
#    0.000    0.000    0.000    0.000    0.000    0.000 
#
# Total GULP energy -83899.167208 kJ/mol
# GULP energy per Si atom -5593.277814 kJ/mol
# Density = 2.115510 g / cm^3
# Si number density = 21.203360 Si / 1000 Ang^3
#
#
#
# Elastic Constant Matrix: (Units=GPa)
#
#
# Indices 1 2 3 4 5 6 
#
# 1 38.2798 24.1094 21.7192 0.0000 0.0000 0.0000
# 2 24.1094 154.1688 84.6766 0.0000 0.0000 0.0000
# 3 21.7192 84.6766 195.8085 0.0000 0.0000 0.0000
# 4 0.0000 0.0000 0.0000 15.4985 0.0000 0.0000
# 5 0.0000 0.0000 0.0000 0.0000 44.3584 0.0000
# 6 0.0000 0.0000 0.0000 0.0000 0.0000 13.6111
#
#
#
# Elastic Compliance Matrix: (Units=1/GPa)
#
#
# Indices 1 2 3 4 5 6 
#
# 1 0.029387 -0.003679 -0.001669 0.000000 0.000000 0.000000
# 2 -0.003679 0.008968 -0.003470 0.000000 0.000000 0.000000
# 3 -0.001669 -0.003470 0.006793 0.000000 0.000000 0.000000
# 4 0.000000 0.000000 0.000000 0.064522 0.000000 0.000000
# 5 0.000000 0.000000 0.000000 0.000000 0.022544 0.000000
# 6 0.000000 0.000000 0.000000 0.000000 0.000000 0.073470
#
#
# Mechanical properties :
#
#
# Convention : Reuss Voigt Hill
#
# Bulk Modulus (GPa) = 36.34750 72.14082 54.24416
# Shear Modulus (GPa) = 21.50636 31.87706 26.69171
#
# Velocity S-wave (km/s) = 3.18825 3.88157 3.55187
# Velocity P-wave (km/s) = 5.54371 7.36111 6.51609
#
# Compressibility (1/GPa) = 0.02751221
#
# Stress axis : x y z
#
# Youngs Moduli (GPa) = 34.02819 111.51266 147.21775
#
# Poissons Ratio (x) = 0.41028 0.24565
# Poissons Ratio (y) = 0.12520 0.51083
# Poissons Ratio (z) = 0.05678 0.38694
#
# Static dielectric constant tensor:
#      x y z
#    x 1.853240 0.000000 0.000000 
#    y 0.000000 1.783760 0.000000 
#    z 0.000000 0.000000 1.708580 
# 
# From -- ./inp_files/5264.got.cif
#   From: 2010.05.17/outbox.cif.g08.bks.cpg/sg22_3_cif.got.tgz:5264.got - 2010.06.03 23:40:54.
