data_PCOD9327244
_publ_section_title
;
Structure prediction by ZEFSAII (Michael W. Deem and Ramdas Pophale) SiO2 
 PCOD9327244
Probable space group: F 2 2 2
;
_chemical_formula_sum "Si O2"
_cell_formula_units_Z 116
_cell_length_a 24.535373
_cell_length_b 9.736220
_cell_length_c 25.901971
_cell_angle_alpha 90.000000
_cell_angle_beta 90.000000
_cell_angle_gamma 90.000000
_cell_volume 6187.509179
_symmetry_space_group_name_H-M "F 2 2 2"
_symmetry_group_IT_number 22
_symmetry_cell_setting 'orthorhombic'
loop_
_space_group_symop_operation_xyz
x,y,z
-x,-y,z
x,-y,-z
-x,y,-z
x,1/2+y,1/2+z
-x,1/2-y,1/2+z
x,1/2-y,1/2-z
-x,1/2+y,1/2-z
1/2+x,y,1/2+z
1/2-x,-y,1/2+z
1/2+x,-y,1/2-z
1/2-x,y,1/2-z
1/2+x,1/2+y,z
1/2-x,1/2-y,z
1/2+x,1/2-y,-z
1/2-x,1/2+y,-z
loop_
_atom_site_type_symbol
_atom_site_label
_atom_site_fract_x
_atom_site_fract_y
_atom_site_fract_z
Si Si1 0.159128 0.548844 0.292580
Si Si2 0.058286 0.632070 0.972569
Si Si3 0.519850 0.645152 0.357214
Si Si4 0.750000 0.250000 0.250000
Si Si5 0.876650 0.360234 0.793260
Si Si6 0.690926 0.699887 0.134018
Si Si7 0.947949 0.588316 0.637195
Si Si8 0.111765 0.583761 0.548504
O O1 0.207635 0.656891 0.283005
O O2 0.134239 0.501250 0.236944
O O3 0.186927 0.421237 0.323221
O O4 0.105755 0.590254 0.326518
O O5 0.048711 0.611117 0.911690
O O6 0.084260 0.781233 0.975547
O O7 0.085928 0.500000 0.000000
O O8 0.000000 0.641857 0.000000
O O9 0.500000 0.500000 0.336699
O O10 0.565004 0.686650 0.315590
O O11 0.473851 0.759458 0.367714
O O12 0.862646 0.250000 0.750000
O O13 0.837553 0.333617 0.841235
O O14 0.750000 0.750000 0.119545
O O15 0.657377 0.640395 0.086585
O O16 0.928715 0.509412 0.584501
O O17 0.000000 0.500000 0.657617
O O18 0.133069 0.500000 0.500000
#
# Coordination Sequence:
#
# PCOD9327244 Si02
#       8
#    16  16  16   4  16  16  16  16
#     4  10  24  40  64  94 126 171 220 277 315 404
#     4  11  21  37  58  89 125 165 213 257 307 386
#     4  12  23  36  59  93 135 167 205 263 330 400
#     4  12  24  44  58  92 132 168 232 256 328 380
#     4  10  21  40  63  94 121 163 215 261 322 390
#     4  10  20  42  68  85 118 163 220 267 322 377
#     4  11  22  42  63  94 133 171 218 262 337 407
#     4  11  23  38  64  93 125 166 217 266 326 395
#
# _framework density 18.747447000000001
#
# number of rings (size 3 to 8) (size 9 to 14) (size 15 to 20)
#    0.000    1.241    4.138    3.310    1.931    3.586 
#    0.000    0.690    6.069    0.000    0.000    0.000 
#    0.000    0.000    0.000    0.000    0.000    0.000 
#
# Total GULP energy -161513.767627 kJ/mol
# GULP energy per Si atom -5569.440263 kJ/mol
# Density = 1.870478 g / cm^3
# Si number density = 18.747447 Si / 1000 Ang^3
#
#
#
# Elastic Constant Matrix: (Units=GPa)
#
#
# Indices 1 2 3 4 5 6 
#
# 1 78.9888 42.3232 43.0137 0.0000 0.0000 0.0000
# 2 42.3232 104.6257 43.9229 0.0000 0.0000 0.0000
# 3 43.0137 43.9229 97.0717 0.0000 0.0000 0.0000
# 4 0.0000 0.0000 0.0000 34.1515 0.0000 0.0000
# 5 0.0000 0.0000 0.0000 0.0000 -5.8720 0.0000
# 6 0.0000 0.0000 0.0000 0.0000 0.0000 33.8496
#
#
#
# Elastic Compliance Matrix: (Units=1/GPa)
#
#
# Indices 1 2 3 4 5 6 
#
# 1 0.018600 -0.005017 -0.005972 0.000000 0.000000 0.000000
# 2 -0.005017 0.013152 -0.003728 0.000000 0.000000 0.000000
# 3 -0.005972 -0.003728 0.014635 0.000000 0.000000 0.000000
# 4 0.000000 0.000000 0.000000 0.029281 0.000000 0.000000
# 5 0.000000 0.000000 0.000000 0.000000 -0.170299 0.000000
# 6 0.000000 0.000000 0.000000 0.000000 0.000000 0.029542
#
#
# Mechanical properties :
#
#
# Convention : Reuss Voigt Hill
#
# Bulk Modulus (GPa) = 58.98534 59.91176 59.44855
# Shear Modulus (GPa) = -166.65444 22.52090 -72.06677
#
# Velocity S-wave (km/s) = -9.43862 3.46971 -6.20679
# Velocity P-wave (km/s) = 9.34087 6.93387 4.42568
#
# Compressibility (1/GPa) = 0.01695336
#
# Stress axis : x y z
#
# Youngs Moduli (GPa) = 53.76261 76.03122 68.33047
#
# Poissons Ratio (x) = 0.38146 0.40806
# Poissons Ratio (y) = 0.26973 0.25474
# Poissons Ratio (z) = 0.32106 0.28345
#
# Static dielectric constant tensor:
#      x y z
#    x 1.674840 0.000000 0.000000 
#    y 0.000000 1.797620 0.000000 
#    z 0.000000 0.000000 1.690230 
# 
# From -- ./inp_files/50503.got.cif
#   From: 2010.05.17/outbox.cif.g08.bks.cpg/sg22_26_cif.got.tgz:50503.got - 2010.06.03 23:40:54.
