data_PCOD9327164
_publ_section_title
;
Structure prediction by ZEFSAII (Michael W. Deem and Ramdas Pophale) SiO2 
 PCOD9327164
Probable space group: F 2 2 2
;
_chemical_formula_sum "Si O2"
_cell_formula_units_Z 60
_cell_length_a 4.779091
_cell_length_b 26.603312
_cell_length_c 18.972782
_cell_angle_alpha 90.000000
_cell_angle_beta 90.000000
_cell_angle_gamma 90.000000
_cell_volume 2412.192843
_symmetry_space_group_name_H-M "F 2 2 2"
_symmetry_group_IT_number 22
_symmetry_cell_setting 'orthorhombic'
loop_
_space_group_symop_operation_xyz
x,y,z
-x,-y,z
x,-y,-z
-x,y,-z
x,1/2+y,1/2+z
-x,1/2-y,1/2+z
x,1/2-y,1/2-z
-x,1/2+y,1/2-z
1/2+x,y,1/2+z
1/2-x,-y,1/2+z
1/2+x,-y,1/2-z
1/2-x,y,1/2-z
1/2+x,1/2+y,z
1/2-x,1/2-y,z
1/2+x,1/2-y,-z
1/2-x,1/2+y,-z
loop_
_atom_site_type_symbol
_atom_site_label
_atom_site_fract_x
_atom_site_fract_y
_atom_site_fract_z
Si Si1 0.000000 0.000000 0.803501
Si Si2 0.750000 0.250000 0.750000
Si Si3 0.382727 0.919637 0.574460
Si Si4 0.879547 0.646312 0.892242
Si Si5 0.250000 0.180255 0.750000
Si Si6 0.750000 0.750000 0.954240
O O1 0.913938 0.043708 0.858704
O O2 0.750000 0.986144 0.750000
O O3 0.509499 0.213169 0.716449
O O4 0.500000 0.940878 0.500000
O O5 0.572109 0.871347 0.589027
O O6 0.076886 0.895533 0.574210
O O7 0.900464 0.647396 0.808433
O O8 0.903883 0.704310 0.914488
O O9 0.500000 0.726909 0.000000
#
# Coordination Sequence:
#
# PCOD9327164 Si02
#       6
#     8   4  16  16   8   8
#     4  12  29  52  85 116 148 192 252 326 403 472
#     4  10  20  40  60  90 150 200 266 310 386 422
#     4  12  27  50  77 112 154 200 252 317 394 466
#     4  12  26  43  75 106 156 202 263 312 383 443
#     4  11  24  40  64 102 143 202 259 324 380 439
#     4  12  24  42  66 103 152 209 266 310 360 448
#
# _framework density 24.873633000000002
#
# number of rings (size 3 to 8) (size 9 to 14) (size 15 to 20)
#    0.000    0.267    0.000   10.000    5.600    2.133 
#    0.000    4.000    0.000    0.000    0.000    0.000 
#    0.000    0.000    0.000    0.000    0.000    0.000 
#
# Total GULP energy -83761.653097 kJ/mol
# GULP energy per Si atom -5584.110206 kJ/mol
# Density = 2.481702 g / cm^3
# Si number density = 24.873633 Si / 1000 Ang^3
#
#
#
# Elastic Constant Matrix: (Units=GPa)
#
#
# Indices 1 2 3 4 5 6 
#
# 1 94.8640 7.1671 34.3055 0.0000 0.0000 0.0000
# 2 7.1671 111.8151 63.2726 0.0000 0.0000 0.0000
# 3 34.3055 63.2726 179.4643 0.0000 0.0000 0.0000
# 4 0.0000 0.0000 0.0000 28.4395 0.0000 0.0000
# 5 0.0000 0.0000 0.0000 0.0000 32.2022 0.0000
# 6 0.0000 0.0000 0.0000 0.0000 0.0000 -4.1007
#
#
#
# Elastic Compliance Matrix: (Units=1/GPa)
#
#
# Indices 1 2 3 4 5 6 
#
# 1 0.011359 0.000625 -0.002392 0.000000 0.000000 0.000000
# 2 0.000625 0.011207 -0.004071 0.000000 0.000000 0.000000
# 3 -0.002392 -0.004071 0.007465 0.000000 0.000000 0.000000
# 4 0.000000 0.000000 0.000000 0.035162 0.000000 0.000000
# 5 0.000000 0.000000 0.000000 0.000000 0.031054 0.000000
# 6 0.000000 0.000000 0.000000 0.000000 0.000000 -0.243861
#
#
# Mechanical properties :
#
#
# Convention : Reuss Voigt Hill
#
# Bulk Modulus (GPa) = 54.47766 66.18152 60.32959
# Shear Modulus (GPa) = -38.51428 30.06807 -4.22310
#
# Velocity S-wave (km/s) = -3.93924 3.48060 -1.30442
# Velocity P-wave (km/s) = 1.12214 6.54352 4.69451
#
# Compressibility (1/GPa) = 0.01835615
#
# Stress axis : x y z
#
# Youngs Moduli (GPa) = 88.03504 89.23243 133.96742
#
# Poissons Ratio (x) = -0.05580 0.32043
# Poissons Ratio (y) = -0.05505 0.54533
# Poissons Ratio (z) = 0.21057 0.36323
#
# Static dielectric constant tensor:
#      x y z
#    x 1.890220 0.000000 0.000000 
#    y 0.000000 1.945350 0.000000 
#    z 0.000000 0.000000 2.066770 
# 
# From -- ./inp_files/40913.got.cif
#   From: 2010.05.17/outbox.cif.g08.bks.cpg/sg22_21_cif.got.tgz:40913.got - 2010.06.03 23:40:54.
