data_PCOD9327458
_publ_section_title
;
Structure prediction by ZEFSAII (Michael W. Deem and Ramdas Pophale) SiO2 
 PCOD9327458
Probable space group: F 2 2 2
;
_chemical_formula_sum "Si O2"
_cell_formula_units_Z 84
_cell_length_a 25.415984
_cell_length_b 18.777938
_cell_length_c 8.899196
_cell_angle_alpha 90.000000
_cell_angle_beta 90.000000
_cell_angle_gamma 90.000000
_cell_volume 4247.228252
_symmetry_space_group_name_H-M "F 2 2 2"
_symmetry_group_IT_number 22
_symmetry_cell_setting 'orthorhombic'
loop_
_space_group_symop_operation_xyz
x,y,z
-x,-y,z
x,-y,-z
-x,y,-z
x,1/2+y,1/2+z
-x,1/2-y,1/2+z
x,1/2-y,1/2-z
-x,1/2+y,1/2-z
1/2+x,y,1/2+z
1/2-x,-y,1/2+z
1/2+x,-y,1/2-z
1/2-x,y,1/2-z
1/2+x,1/2+y,z
1/2-x,1/2-y,z
1/2+x,1/2-y,-z
1/2-x,1/2+y,-z
loop_
_atom_site_type_symbol
_atom_site_label
_atom_site_fract_x
_atom_site_fract_y
_atom_site_fract_z
Si Si1 0.447074 0.358888 0.660803
Si Si2 0.500000 0.000000 0.500000
Si Si3 0.358602 0.922801 0.964852
Si Si4 0.943883 0.895615 0.222641
Si Si5 0.808885 0.770335 0.427227
Si Si6 0.584110 0.210254 0.471408
O O1 0.403691 0.410658 0.591014
O O2 0.506406 0.386206 0.667876
O O3 0.441783 0.285798 0.567542
O O4 0.430698 0.340244 0.832408
O O5 0.462707 0.953368 0.604149
O O6 0.391963 0.918100 0.810740
O O7 0.320935 0.853818 0.957565
O O8 0.334376 0.000000 0.000000
O O9 0.934899 0.823679 0.127160
O O10 0.814414 0.750000 0.250000
O O11 0.750000 0.750000 0.472659
O O12 0.853946 0.726493 0.514152
#
# Coordination Sequence:
#
# PCOD9327458 Si02
#       6
#    16   4  16  16  16  16
#     4  10  22  37  58  91 129 162 208 254 309 377
#     4  12  24  36  54  84 132 180 216 244 324 380
#     4  11  24  40  63  93 129 164 208 259 327 384
#     4  12  22  38  58  87 133 174 210 255 307 392
#     4  10  21  42  71  92 118 159 218 275 326 381
#     4  10  21  38  60  91 118 165 214 264 308 371
#
# _framework density 19.777602999999999
#
# number of rings (size 3 to 8) (size 9 to 14) (size 15 to 20)
#    0.000    1.333    3.810    1.714    0.000   11.429 
#    0.000    7.619   10.476    0.000    0.000    0.000 
#    0.000    0.000    0.000    0.000    0.000    0.000 
#
# Total GULP energy -117396.837401 kJ/mol
# GULP energy per Si atom -5590.325591 kJ/mol
# Density = 1.973259 g / cm^3
# Si number density = 19.777603 Si / 1000 Ang^3
#
#
#
# Elastic Constant Matrix: (Units=GPa)
#
#
# Indices 1 2 3 4 5 6 
#
# 1 120.3320 38.3482 22.1899 0.0000 0.0000 0.0000
# 2 38.3482 97.3265 28.5622 0.0000 0.0000 0.0000
# 3 22.1899 28.5622 62.2541 -0.0001 0.0000 0.0000
# 4 0.0000 0.0000 -0.0001 29.8345 0.0000 0.0000
# 5 0.0000 0.0000 0.0000 0.0000 20.2941 0.0000
# 6 0.0000 0.0000 0.0000 0.0000 0.0000 16.3620
#
#
#
# Elastic Compliance Matrix: (Units=1/GPa)
#
#
# Indices 1 2 3 4 5 6 
#
# 1 0.009709 -0.003247 -0.001971 0.000000 0.000000 0.000000
# 2 -0.003247 0.012959 -0.004788 0.000000 0.000000 0.000000
# 3 -0.001971 -0.004788 0.018963 0.000000 0.000000 0.000000
# 4 0.000000 0.000000 0.000000 0.033518 0.000000 0.000000
# 5 0.000000 0.000000 0.000000 0.000000 0.049275 0.000000
# 6 0.000000 0.000000 0.000000 0.000000 0.000000 0.061117
#
#
# Mechanical properties :
#
#
# Convention : Reuss Voigt Hill
#
# Bulk Modulus (GPa) = 46.25750 50.90146 48.57948
# Shear Modulus (GPa) = 23.50071 26.01894 24.75982
#
# Velocity S-wave (km/s) = 3.45084 3.63102 3.54208
# Velocity P-wave (km/s) = 6.27035 6.58573 6.42998
#
# Compressibility (1/GPa) = 0.02161812
#
# Stress axis : x y z
#
# Youngs Moduli (GPa) = 103.00222 77.16480 52.73540
#
# Poissons Ratio (x) = 0.25055 0.10393
# Poissons Ratio (y) = 0.33444 0.25252
# Poissons Ratio (z) = 0.20300 0.36949
#
# Static dielectric constant tensor:
#      x y z
#    x 1.669450 0.000000 0.000000 
#    y 0.000000 1.738900 0.000000 
#    z 0.000000 0.000000 1.739830 
# 
# From -- ./inp_files/14741.got.cif
#   From: 2010.05.17/outbox.cif.g08.bks.cpg/sg22_8_cif.got.tgz:14741.got - 2010.06.03 23:40:54.
