data_PCOD9327745
_publ_section_title
;
Structure prediction by ZEFSAII (Michael W. Deem and Ramdas Pophale) SiO2 
 PCOD9327745
Probable space group: F 2 2 2
;
_chemical_formula_sum "Si O2"
_cell_formula_units_Z 48
_cell_length_a 16.101544
_cell_length_b 11.939087
_cell_length_c 10.920936
_cell_angle_alpha 90.000000
_cell_angle_beta 90.000000
_cell_angle_gamma 90.000000
_cell_volume 2099.415997
_symmetry_space_group_name_H-M "F 2 2 2"
_symmetry_group_IT_number 22
_symmetry_cell_setting 'orthorhombic'
loop_
_space_group_symop_operation_xyz
x,y,z
-x,-y,z
x,-y,-z
-x,y,-z
x,1/2+y,1/2+z
-x,1/2-y,1/2+z
x,1/2-y,1/2-z
-x,1/2+y,1/2-z
1/2+x,y,1/2+z
1/2-x,-y,1/2+z
1/2+x,-y,1/2-z
1/2-x,y,1/2-z
1/2+x,1/2+y,z
1/2-x,1/2-y,z
1/2+x,1/2-y,-z
1/2-x,1/2+y,-z
loop_
_atom_site_type_symbol
_atom_site_label
_atom_site_fract_x
_atom_site_fract_y
_atom_site_fract_z
Si Si1 0.202137 0.500000 0.000000
Si Si2 0.943923 0.750000 0.750000
Si Si3 0.566202 0.099850 0.859474
Si Si4 0.862732 0.470626 0.363629
O O1 0.139809 0.402768 0.042518
O O2 0.264064 0.532311 0.108881
O O3 0.893227 0.645898 0.695041
O O4 0.008259 0.793742 0.647836
O O5 0.500000 0.000000 0.876947
O O6 0.609544 0.067402 0.730279
O O7 0.896921 0.500000 0.500000
#
# Coordination Sequence:
#
# PCOD9327745 Si02
#       4
#     8   8  16  16
#     4  10  21  44  71  94 148 180 224 304 347 412
#     4  10  22  44  72 100 134 188 242 276 361 424
#     4  10  21  43  67 101 139 179 233 293 347 419
#     4   9  22  44  73  96 144 182 232 289 353 416
#
# _framework density 22.863502
#
# number of rings (size 3 to 8) (size 9 to 14) (size 15 to 20)
#    1.000    1.333    0.000    1.500    0.000    6.000 
#   24.000   23.333    7.333    0.000    0.000    0.000 
#    0.000    0.000    0.000    0.000    0.000    0.000 
#
# Total GULP energy -66924.586002 kJ/mol
# GULP energy per Si atom -5577.048834 kJ/mol
# Density = 2.281146 g / cm^3
# Si number density = 22.863502 Si / 1000 Ang^3
#
#
#
# Elastic Constant Matrix: (Units=GPa)
#
#
# Indices 1 2 3 4 5 6 
#
# 1 167.8503 29.6724 41.6140 0.0000 0.0000 0.0000
# 2 29.6724 57.8875 -7.8014 0.0000 0.0000 0.0000
# 3 41.6140 -7.8014 114.2986 0.0000 0.0000 0.0000
# 4 0.0000 0.0000 0.0000 8.8739 0.0000 0.0000
# 5 0.0000 0.0000 0.0000 0.0000 60.5215 0.0000
# 6 0.0000 0.0000 0.0000 0.0000 0.0000 10.5604
#
#
#
# Elastic Compliance Matrix: (Units=1/GPa)
#
#
# Indices 1 2 3 4 5 6 
#
# 1 0.007448 -0.004222 -0.003000 0.000000 0.000000 0.000000
# 2 -0.004222 0.019829 0.002891 0.000000 0.000000 0.000000
# 3 -0.003000 0.002891 0.010038 0.000000 0.000000 0.000000
# 4 0.000000 0.000000 0.000000 0.112690 0.000000 0.000000
# 5 0.000000 0.000000 0.000000 0.000000 0.016523 0.000000
# 6 0.000000 0.000000 0.000000 0.000000 0.000000 0.094693
#
#
# Mechanical properties :
#
#
# Convention : Reuss Voigt Hill
#
# Bulk Modulus (GPa) = 34.90103 51.88961 43.39532
# Shear Modulus (GPa) = 17.89330 34.42792 26.16061
#
# Velocity S-wave (km/s) = 2.80056 3.88468 3.38628
# Velocity P-wave (km/s) = 5.07500 6.54718 5.85753
#
# Compressibility (1/GPa) = 0.02865245
#
# Stress axis : x y z
#
# Youngs Moduli (GPa) = 134.26893 50.43236 99.61688
#
# Poissons Ratio (x) = 0.21292 0.29883
# Poissons Ratio (y) = 0.56687 -0.28794
# Poissons Ratio (z) = 0.40277 -0.14577
#
# Static dielectric constant tensor:
#      x y z
#    x 1.856530 0.000000 0.000000 
#    y 0.000000 1.845130 0.000000 
#    z 0.000000 0.000000 1.960020 
# 
# From -- ./inp_files/17567.got.cif
#   From: 2010.05.17/outbox.cif.g08.bks.cpg/sg22_9_cif.got.tgz:17567.got - 2010.06.03 23:40:54.
