data_PCOD9327496
_publ_section_title
;
Structure prediction by ZEFSAII (Michael W. Deem and Ramdas Pophale) SiO2 
 PCOD9327496
Probable space group: F 2 2 2
;
_chemical_formula_sum "Si O2"
_cell_formula_units_Z 80
_cell_length_a 24.137890
_cell_length_b 10.322460
_cell_length_c 13.554412
_cell_angle_alpha 90.000000
_cell_angle_beta 90.000000
_cell_angle_gamma 90.000000
_cell_volume 3377.249879
_symmetry_space_group_name_H-M "F 2 2 2"
_symmetry_group_IT_number 22
_symmetry_cell_setting 'orthorhombic'
loop_
_space_group_symop_operation_xyz
x,y,z
-x,-y,z
x,-y,-z
-x,y,-z
x,1/2+y,1/2+z
-x,1/2-y,1/2+z
x,1/2-y,1/2-z
-x,1/2+y,1/2-z
1/2+x,y,1/2+z
1/2-x,-y,1/2+z
1/2+x,-y,1/2-z
1/2-x,y,1/2-z
1/2+x,1/2+y,z
1/2-x,1/2-y,z
1/2+x,1/2-y,-z
1/2-x,1/2+y,-z
loop_
_atom_site_type_symbol
_atom_site_label
_atom_site_fract_x
_atom_site_fract_y
_atom_site_fract_z
Si Si1 0.099853 0.784045 0.135568
Si Si2 0.515850 0.153313 0.657200
Si Si3 0.761722 0.107155 0.923484
Si Si4 0.129230 0.066827 0.176151
Si Si5 0.641940 0.485324 0.392265
O O1 0.089681 0.750000 0.250000
O O2 0.141352 0.670219 0.108958
O O3 0.036930 0.795089 0.094901
O O4 0.127009 0.923306 0.131451
O O5 0.519586 0.250000 0.750000
O O6 0.579854 0.145373 0.623800
O O7 0.500000 0.000000 0.678468
O O8 0.750000 0.250000 0.964410
O O9 0.809960 0.122446 0.842195
O O10 0.703110 0.046019 0.891233
O O11 0.782570 0.000000 0.000000
O O12 0.115613 0.454855 0.207138
O O13 0.614411 0.500000 0.500000
#
# Coordination Sequence:
#
# PCOD9327496 Si02
#       5
#    16  16  16  16  16
#     4   8  17  37  64  96 131 180 226 273 342 414
#     4   9  18  35  63  97 131 178 229 279 336 407
#     4  11  27  44  66  99 138 182 232 292 354 417
#     4  10  21  38  69  96 137 185 229 283 348 417
#     4  10  22  39  67 103 144 178 233 289 349 411
#
# _framework density 23.687912000000001
#
# number of rings (size 3 to 8) (size 9 to 14) (size 15 to 20)
#    0.000    2.400    0.000    1.800    8.400    0.800 
#    0.000    3.000    0.000   45.600    0.000    0.000 
#    0.000    0.000    0.000    0.000    0.000    0.000 
#
# Total GULP energy -111353.583728 kJ/mol
# GULP energy per Si atom -5567.679186 kJ/mol
# Density = 2.363400 g / cm^3
# Si number density = 23.687912 Si / 1000 Ang^3
#
#
#
# Elastic Constant Matrix: (Units=GPa)
#
#
# Indices 1 2 3 4 5 6 
#
# 1 102.0293 59.7596 10.1452 0.0000 0.0000 0.0000
# 2 59.7596 129.7214 16.3640 0.0000 0.0000 0.0000
# 3 10.1452 16.3640 71.1241 0.0000 0.0000 0.0000
# 4 0.0000 0.0000 0.0000 18.0588 0.0000 0.0000
# 5 0.0000 0.0000 0.0000 0.0000 -202.0196 0.0000
# 6 0.0000 0.0000 0.0000 0.0000 0.0000 22.3379
#
#
#
# Elastic Compliance Matrix: (Units=1/GPa)
#
#
# Indices 1 2 3 4 5 6 
#
# 1 0.013441 -0.006128 -0.000507 0.000000 0.000000 0.000000
# 2 -0.006128 0.010733 -0.001595 0.000000 0.000000 0.000000
# 3 -0.000507 -0.001595 0.014499 0.000000 0.000000 0.000000
# 4 0.000000 0.000000 0.000000 0.055375 0.000000 0.000000
# 5 0.000000 0.000000 0.000000 0.000000 -0.004950 0.000000
# 6 0.000000 0.000000 0.000000 0.000000 0.000000 0.044767
#
#
# Mechanical properties :
#
#
# Convention : Reuss Voigt Hill
#
# Bulk Modulus (GPa) = 45.02053 52.82360 48.92207
# Shear Modulus (GPa) = 31.69981 -17.88419 6.90781
#
# Velocity S-wave (km/s) = 3.66215 -2.75069 1.70953
# Velocity P-wave (km/s) = 6.07690 3.50140 4.95926
#
# Compressibility (1/GPa) = 0.02221209
#
# Stress axis : x y z
#
# Youngs Moduli (GPa) = 74.40102 93.17046 68.96864
#
# Poissons Ratio (x) = 0.57093 0.03499
# Poissons Ratio (y) = 0.45592 0.11003
# Poissons Ratio (z) = 0.03775 0.14864
#
# Static dielectric constant tensor:
#      x y z
#    x 1.971030 0.000000 0.000000 
#    y 0.000000 2.661670 0.000000 
#    z 0.000000 0.000000 2.039140 
# 
# From -- ./inp_files/39874.got.cif
#   From: 2010.05.17/outbox.cif.g08.bks.cpg/sg22_20_cif.got.tgz:39874.got - 2010.06.03 23:40:54.
