data_PCOD9327348
_publ_section_title
;
Structure prediction by ZEFSAII (Michael W. Deem and Ramdas Pophale) SiO2 
 PCOD9327348
Probable space group: F 2 2 2
;
_chemical_formula_sum "Si O2"
_cell_formula_units_Z 64
_cell_length_a 5.039881
_cell_length_b 25.234196
_cell_length_c 27.501407
_cell_angle_alpha 90.000000
_cell_angle_beta 90.000000
_cell_angle_gamma 90.000000
_cell_volume 3497.555925
_symmetry_space_group_name_H-M "F 2 2 2"
_symmetry_group_IT_number 22
_symmetry_cell_setting 'orthorhombic'
loop_
_space_group_symop_operation_xyz
x,y,z
-x,-y,z
x,-y,-z
-x,y,-z
x,1/2+y,1/2+z
-x,1/2-y,1/2+z
x,1/2-y,1/2-z
-x,1/2+y,1/2-z
1/2+x,y,1/2+z
1/2-x,-y,1/2+z
1/2+x,-y,1/2-z
1/2-x,y,1/2-z
1/2+x,1/2+y,z
1/2-x,1/2-y,z
1/2+x,1/2-y,-z
1/2-x,1/2+y,-z
loop_
_atom_site_type_symbol
_atom_site_label
_atom_site_fract_x
_atom_site_fract_y
_atom_site_fract_z
Si Si1 0.504168 0.289049 0.054706
Si Si2 0.249294 0.461830 0.805442
Si Si3 0.362129 0.644691 0.148640
Si Si4 0.342715 0.692550 0.694049
O O1 0.250000 0.250000 0.062389
O O2 0.574615 0.332336 0.095484
O O3 0.750000 0.250000 0.055986
O O4 0.500000 0.312083 0.000000
O O5 0.500000 0.500000 0.809762
O O6 0.250000 0.438632 0.750000
O O7 0.257723 0.414469 0.843923
O O8 0.000000 0.500000 0.810325
O O9 0.651655 0.647885 0.172724
O O10 0.145060 0.680817 0.178232
O O11 0.250000 0.693495 0.750000
O O12 0.250000 0.750000 0.674223
#
# Coordination Sequence:
#
# PCOD9327348 Si02
#       4
#    16  16  16  16
#     4  10  21  37  57  84 115 145 183 231 282 340
#     4  10  21  36  53  76 107 143 186 232 274 323
#     4  12  21  35  57  78 107 148 188 225 277 331
#     4  11  22  33  49  79 115 145 176 216 269 339
#
# _framework density 18.298493000000001
#
# number of rings (size 3 to 8) (size 9 to 14) (size 15 to 20)
#    0.000    1.250    0.000    8.250    0.000    4.000 
#    0.000    0.000    0.000    0.750    0.000    1.750 
#    0.000    0.000    0.000    0.000    0.000    0.000 
#
# Total GULP energy -89206.495517 kJ/mol
# GULP energy per Si atom -5575.405970 kJ/mol
# Density = 1.825684 g / cm^3
# Si number density = 18.298493 Si / 1000 Ang^3
#
#
#
# Elastic Constant Matrix: (Units=GPa)
#
#
# Indices 1 2 3 4 5 6 
#
# 1 126.2508 20.7473 30.5057 0.0000 0.0000 0.0000
# 2 20.7473 83.9981 54.3003 0.0000 0.0000 0.0000
# 3 30.5057 54.3003 153.1613 0.0000 0.0000 0.0000
# 4 0.0000 0.0000 0.0000 -7.4122 0.0000 0.0000
# 5 0.0000 0.0000 0.0000 0.0000 23.1674 0.0000
# 6 0.0000 0.0000 0.0000 0.0000 0.0000 13.7721
#
#
#
# Elastic Compliance Matrix: (Units=1/GPa)
#
#
# Indices 1 2 3 4 5 6 
#
# 1 0.008428 -0.001293 -0.001220 0.000000 0.000000 0.000000
# 2 -0.001293 0.015643 -0.005288 0.000000 0.000000 0.000000
# 3 -0.001220 -0.005288 0.008647 0.000000 0.000000 0.000000
# 4 0.000000 0.000000 0.000000 -0.134912 0.000000 0.000000
# 5 0.000000 0.000000 0.000000 0.000000 0.043164 0.000000
# 6 0.000000 0.000000 0.000000 0.000000 0.000000 0.072610
#
#
# Mechanical properties :
#
#
# Convention : Reuss Voigt Hill
#
# Bulk Modulus (GPa) = 58.42834 63.83520 61.13177
# Shear Modulus (GPa) = 143.31343 23.09592 83.20467
#
# Velocity S-wave (km/s) = 8.85945 3.55657 6.75052
# Velocity P-wave (km/s) = 11.68987 7.19908 9.70773
#
# Compressibility (1/GPa) = 0.01711498
#
# Stress axis : x y z
#
# Youngs Moduli (GPa) = 118.65129 63.92611 115.64665
#
# Poissons Ratio (x) = 0.08265 0.14112
# Poissons Ratio (y) = 0.15340 0.61159
# Poissons Ratio (z) = 0.14479 0.33807
#
# Static dielectric constant tensor:
#      x y z
#    x 1.628820 0.000000 0.000000 
#    y 0.000000 1.635590 0.000000 
#    z 0.000000 0.000000 1.784830 
# 
# From -- ./inp_files/3679.got.cif
#   From: 2010.05.17/outbox.cif.g08.bks.cpg/sg22_2_cif.got.tgz:3679.got - 2010.06.03 23:40:54.
