data_PCOD9327850
_publ_section_title
;
Structure prediction by ZEFSAII (Michael W. Deem and Ramdas Pophale) SiO2 
 PCOD9327850
Probable space group: F 2 2 2
;
_chemical_formula_sum "Si O2"
_cell_formula_units_Z 88
_cell_length_a 31.256825
_cell_length_b 5.337276
_cell_length_c 23.433603
_cell_angle_alpha 90.000000
_cell_angle_beta 90.000000
_cell_angle_gamma 90.000000
_cell_volume 3909.341329
_symmetry_space_group_name_H-M "F 2 2 2"
_symmetry_group_IT_number 22
_symmetry_cell_setting 'orthorhombic'
loop_
_space_group_symop_operation_xyz
x,y,z
-x,-y,z
x,-y,-z
-x,y,-z
x,1/2+y,1/2+z
-x,1/2-y,1/2+z
x,1/2-y,1/2-z
-x,1/2+y,1/2-z
1/2+x,y,1/2+z
1/2-x,-y,1/2+z
1/2+x,-y,1/2-z
1/2-x,y,1/2-z
1/2+x,1/2+y,z
1/2-x,1/2-y,z
1/2+x,1/2-y,-z
1/2-x,1/2+y,-z
loop_
_atom_site_type_symbol
_atom_site_label
_atom_site_fract_x
_atom_site_fract_y
_atom_site_fract_z
Si Si1 0.678459 0.901028 0.652057
Si Si2 0.481708 0.245587 0.435325
Si Si3 0.750000 0.750000 0.154196
Si Si4 0.610495 0.285853 0.603535
Si Si5 0.378919 0.015784 0.784715
Si Si6 0.194005 0.042812 0.563185
O O1 0.663464 0.659617 0.688980
O O2 0.694995 0.820001 0.589214
O O3 0.716200 0.058110 0.682765
O O4 0.636727 0.061444 0.634332
O O5 0.500000 0.500000 0.409406
O O6 0.500000 0.245578 0.500000
O O7 0.430621 0.226401 0.433595
O O8 0.500000 0.000000 0.405627
O O9 0.780383 0.602166 0.111273
O O10 0.595772 0.447366 0.658168
O O11 0.645504 0.439791 0.567649
O O12 0.398350 0.250000 0.750000
O O13 0.372221 0.750000 0.750000
O O14 0.210273 0.000000 0.500000
#
# Coordination Sequence:
#
# PCOD9327850 Si02
#       6
#    16  16   8  16  16  16
#     4  10  22  41  66 100 137 177 240 287 343 415
#     4  10  24  40  65 100 145 184 214 273 335 417
#     4  10  22  38  58  97 138 188 217 292 338 396
#     4  10  23  41  68 102 135 180 229 285 340 411
#     4  11  22  42  74 106 127 175 238 293 348 410
#     4  10  23  35  62  92 139 184 230 276 330 414
#
# _framework density 22.510186999999998
#
# number of rings (size 3 to 8) (size 9 to 14) (size 15 to 20)
#    0.000    1.818    1.818    0.545   10.182    3.636 
#    0.000    0.000    0.000   33.818    0.000    0.000 
#    0.000    0.000    0.000    0.000    0.000    0.000 
#
# Total GULP energy -122516.225702 kJ/mol
# GULP energy per Si atom -5568.919350 kJ/mol
# Density = 2.245895 g / cm^3
# Si number density = 22.510187 Si / 1000 Ang^3
#
#
#
# Elastic Constant Matrix: (Units=GPa)
#
#
# Indices 1 2 3 4 5 6 
#
# 1 126.9227 29.9979 -3.0561 -0.0069 0.0124 0.0108
# 2 29.9979 134.0679 7.2191 -0.0029 0.0127 0.0092
# 3 -3.0561 7.2191 69.9806 0.0003 0.0036 0.0026
# 4 -0.0069 -0.0029 0.0003 16.0207 0.0089 0.0040
# 5 0.0124 0.0127 0.0036 0.0089 13.4442 -0.0008
# 6 0.0108 0.0092 0.0026 0.0040 -0.0008 21.7901
#
#
#
# Elastic Compliance Matrix: (Units=1/GPa)
#
#
# Indices 1 2 3 4 5 6 
#
# 1 0.008340 -0.001896 0.000560 0.000003 -0.000006 -0.000003
# 2 -0.001896 0.007932 -0.000901 0.000001 -0.000006 -0.000002
# 3 0.000560 -0.000901 0.014407 0.000000 -0.000004 -0.000002
# 4 0.000003 0.000001 0.000000 0.062419 -0.000041 -0.000011
# 5 -0.000006 -0.000006 -0.000004 -0.000041 0.074381 0.000003
# 6 -0.000003 -0.000002 -0.000002 -0.000011 0.000003 0.045892
#
#
# Mechanical properties :
#
#
# Convention : Reuss Voigt Hill
#
# Bulk Modulus (GPa) = 38.16174 44.36588 41.26381
# Shear Modulus (GPa) = 22.06707 30.03837 26.05272
#
# Velocity S-wave (km/s) = 3.13439 3.65695 3.40571
# Velocity P-wave (km/s) = 5.48536 6.13051 5.81688
#
# Compressibility (1/GPa) = 0.02620425
#
# Stress axis : x y z
#
# Youngs Moduli (GPa) = 119.89704 126.07581 69.41038
#
# Poissons Ratio (x) = 0.23908 -0.03886
# Poissons Ratio (y) = 0.22737 0.06254
# Poissons Ratio (z) = -0.06713 0.11360
#
# Static dielectric constant tensor:
#      x y z
#    x 1.855160 0.000010 0.000000 
#    y 0.000010 2.097880 -0.000010 
#    z 0.000000 -0.000010 1.857610 
# 
# From -- ./inp_files/50674.got.cif
#   From: 2010.05.17/outbox.cif.g08.bks.cpg/sg22_26_cif.got.tgz:50674.got - 2010.06.03 23:40:54.
