data_PCOD9327789
_publ_section_title
;
Structure prediction by ZEFSAII (Michael W. Deem and Ramdas Pophale) SiO2 
 PCOD9327789
Probable space group: F 2 2 2
;
_chemical_formula_sum "Si O2"
_cell_formula_units_Z 88
_cell_length_a 13.854893
_cell_length_b 10.659216
_cell_length_c 26.196205
_cell_angle_alpha 90.000000
_cell_angle_beta 90.000000
_cell_angle_gamma 90.000000
_cell_volume 3868.715731
_symmetry_space_group_name_H-M "F 2 2 2"
_symmetry_group_IT_number 22
_symmetry_cell_setting 'orthorhombic'
loop_
_space_group_symop_operation_xyz
x,y,z
-x,-y,z
x,-y,-z
-x,y,-z
x,1/2+y,1/2+z
-x,1/2-y,1/2+z
x,1/2-y,1/2-z
-x,1/2+y,1/2-z
1/2+x,y,1/2+z
1/2-x,-y,1/2+z
1/2+x,-y,1/2-z
1/2-x,y,1/2-z
1/2+x,1/2+y,z
1/2-x,1/2-y,z
1/2+x,1/2-y,-z
1/2-x,1/2+y,-z
loop_
_atom_site_type_symbol
_atom_site_label
_atom_site_fract_x
_atom_site_fract_y
_atom_site_fract_z
Si Si1 0.750000 0.541882 0.750000
Si Si2 0.965369 0.354481 0.660442
Si Si3 0.413588 0.750000 0.250000
Si Si4 0.000000 0.500000 0.904438
Si Si5 0.750000 0.750000 0.136688
Si Si6 0.296853 0.501450 0.360449
Si Si7 0.250000 0.250000 0.585935
Si Si8 0.463956 0.238460 0.552925
O O1 0.657172 0.631222 0.751199
O O2 0.732996 0.469809 0.697414
O O3 0.855236 0.295572 0.660848
O O4 0.000000 0.500000 0.673609
O O5 0.021853 0.265996 0.700048
O O6 0.002709 0.336148 0.602920
O O7 0.091066 0.477446 0.868311
O O8 0.991519 0.376885 0.938770
O O9 0.773245 0.621924 0.107109
O O10 0.245101 0.627156 0.378246
O O11 0.348318 0.253715 0.554421
O O12 0.500000 0.183328 0.500000
#
# Coordination Sequence:
#
# PCOD9327789 Si02
#       8
#     8  16   8   8   8  16   8  16
#     4  11  22  39  72 100 134 190 256 304 374 444
#     4  12  27  47  71 107 155 200 250 322 392 474
#     4  11  24  45  68 100 142 199 252 301 376 460
#     4  10  21  46  72  98 138 196 246 300 377 456
#     4  12  26  44  66 107 148 195 240 314 394 450
#     4  11  23  43  70 103 142 189 247 308 370 455
#     4  10  22  44  76 103 136 196 254 305 370 468
#     4  11  23  44  74 106 144 190 253 315 386 457
#
# _framework density 22.746566000000001
#
# number of rings (size 3 to 8) (size 9 to 14) (size 15 to 20)
#    0.000    0.909    1.818    6.818    0.000    4.727 
#    1.636    0.000    4.000    0.000    0.000    0.000 
#    0.000    0.000    0.000    0.000    0.000    0.000 
#
# Total GULP energy -122682.018850 kJ/mol
# GULP energy per Si atom -5576.455402 kJ/mol
# Density = 2.269479 g / cm^3
# Si number density = 22.746566 Si / 1000 Ang^3
#
#
#
# Elastic Constant Matrix: (Units=GPa)
#
#
# Indices 1 2 3 4 5 6 
#
# 1 156.2185 23.1786 55.5803 0.0000 0.0000 0.0000
# 2 23.1786 109.4487 6.2968 0.0000 0.0000 0.0000
# 3 55.5803 6.2968 132.2828 0.0000 0.0000 0.0000
# 4 0.0000 0.0000 0.0000 11.9585 0.0000 0.0000
# 5 0.0000 0.0000 0.0000 0.0000 8.5152 0.0000
# 6 0.0000 0.0000 0.0000 0.0000 0.0000 46.0779
#
#
#
# Elastic Compliance Matrix: (Units=1/GPa)
#
#
# Indices 1 2 3 4 5 6 
#
# 1 0.007752 -0.001458 -0.003188 0.000000 0.000000 0.000000
# 2 -0.001458 0.009436 0.000164 0.000000 0.000000 0.000000
# 3 -0.003188 0.000164 0.008891 0.000000 0.000000 0.000000
# 4 0.000000 0.000000 0.000000 0.083623 0.000000 0.000000
# 5 0.000000 0.000000 0.000000 0.000000 0.117437 0.000000
# 6 0.000000 0.000000 0.000000 0.000000 0.000000 0.021702
#
#
# Mechanical properties :
#
#
# Convention : Reuss Voigt Hill
#
# Bulk Modulus (GPa) = 58.43049 63.11794 60.77421
# Shear Modulus (GPa) = 18.97461 34.16994 26.57227
#
# Velocity S-wave (km/s) = 2.89134 3.88003 3.42159
# Velocity P-wave (km/s) = 6.07370 6.91964 6.51043
#
# Compressibility (1/GPa) = 0.01711435
#
# Stress axis : x y z
#
# Youngs Moduli (GPa) = 129.00305 105.97585 112.47221
#
# Poissons Ratio (x) = 0.15454 0.35852
# Poissons Ratio (y) = 0.18812 -0.01839
# Poissons Ratio (z) = 0.41121 -0.01733
#
# Static dielectric constant tensor:
#      x y z
#    x 1.897220 0.000000 0.000000 
#    y 0.000000 2.008230 0.000000 
#    z 0.000000 0.000000 1.696290 
# 
# From -- ./inp_files/48842.got.cif
#   From: 2010.05.17/outbox.cif.g08.bks.cpg/sg22_25_cif.got.tgz:48842.got - 2010.06.03 23:40:54.
