data_PCOD9327099
_publ_section_title
;
Structure prediction by ZEFSAII (Michael W. Deem and Ramdas Pophale) SiO2 
 PCOD9327099
Probable space group: F 2 2 2
;
_chemical_formula_sum "Si O2"
_cell_formula_units_Z 104
_cell_length_a 19.045255
_cell_length_b 9.286045
_cell_length_c 25.263635
_cell_angle_alpha 90.000000
_cell_angle_beta 90.000000
_cell_angle_gamma 90.000000
_cell_volume 4468.002567
_symmetry_space_group_name_H-M "F 2 2 2"
_symmetry_group_IT_number 22
_symmetry_cell_setting 'orthorhombic'
loop_
_space_group_symop_operation_xyz
x,y,z
-x,-y,z
x,-y,-z
-x,y,-z
x,1/2+y,1/2+z
-x,1/2-y,1/2+z
x,1/2-y,1/2-z
-x,1/2+y,1/2-z
1/2+x,y,1/2+z
1/2-x,-y,1/2+z
1/2+x,-y,1/2-z
1/2-x,y,1/2-z
1/2+x,1/2+y,z
1/2-x,1/2-y,z
1/2+x,1/2-y,-z
1/2-x,1/2+y,-z
loop_
_atom_site_type_symbol
_atom_site_label
_atom_site_fract_x
_atom_site_fract_y
_atom_site_fract_z
Si Si1 0.926600 0.065497 0.864612
Si Si2 0.610517 0.869710 0.930217
Si Si3 0.500000 0.500000 0.354778
Si Si4 0.885663 0.685136 0.195665
Si Si5 0.081279 0.152365 0.018669
Si Si6 0.806174 0.855792 0.858843
Si Si7 0.210558 0.612704 0.901471
O O1 0.937165 0.186195 0.821488
O O2 0.904625 0.147578 0.918793
O O3 0.873718 0.947743 0.839550
O O4 0.000000 0.000000 0.880548
O O5 0.538351 0.890527 0.896489
O O6 0.658528 0.757125 0.898363
O O7 0.649221 0.023246 0.930324
O O8 0.603806 0.791963 0.986209
O O9 0.436350 0.449959 0.316312
O O10 0.856838 0.750000 0.250000
O O11 0.823008 0.668085 0.153763
O O12 0.000000 0.144594 0.000000
O O13 0.114332 0.000000 0.000000
O O14 0.750000 0.750000 0.828493
O O15 0.764507 0.985579 0.886718
O O16 0.250000 0.750000 0.927020
#
# Coordination Sequence:
#
# PCOD9327099 Si02
#       7
#    16  16   8  16  16  16  16
#     4  12  22  39  71 104 139 179 232 294 354 417
#     4  10  21  40  71 103 141 185 225 289 350 424
#     4  10  22  44  65 106 152 172 229 298 360 424
#     4  11  25  42  68  97 136 190 237 293 360 423
#     4  11  19  35  64 106 139 178 228 280 342 433
#     4  10  20  38  69  99 137 183 228 287 347 420
#     4  10  21  43  69  95 135 185 236 294 348 419
#
# _framework density 23.276620000000001
#
# number of rings (size 3 to 8) (size 9 to 14) (size 15 to 20)
#    0.000    1.385    4.615    1.846    1.077    0.308 
#    0.000    7.308   16.923    4.615    4.000    0.000 
#    0.000    0.000    0.000    0.000    0.000    0.000 
#
# Total GULP energy -144777.472397 kJ/mol
# GULP energy per Si atom -5568.364323 kJ/mol
# Density = 2.322364 g / cm^3
# Si number density = 23.276620 Si / 1000 Ang^3
#
#
#
# Elastic Constant Matrix: (Units=GPa)
#
#
# Indices 1 2 3 4 5 6 
#
# 1 79.2833 17.6273 0.9834 0.0000 0.0000 0.0000
# 2 17.6273 113.4795 24.6911 0.0000 0.0000 0.0000
# 3 0.9834 24.6911 50.4599 0.0000 0.0000 0.0000
# 4 0.0000 0.0000 0.0000 19.3805 0.0000 0.0000
# 5 0.0000 0.0000 0.0000 0.0000 15.7617 0.0000
# 6 0.0000 0.0000 0.0000 0.0000 0.0000 11.0894
#
#
#
# Elastic Compliance Matrix: (Units=1/GPa)
#
#
# Indices 1 2 3 4 5 6 
#
# 1 0.013095 -0.002214 0.000828 0.000000 0.000000 0.000000
# 2 -0.002214 0.010237 -0.004966 0.000000 0.000000 0.000000
# 3 0.000828 -0.004966 0.022231 0.000000 0.000000 0.000000
# 4 0.000000 0.000000 0.000000 0.051598 0.000000 0.000000
# 5 0.000000 0.000000 0.000000 0.000000 0.063445 0.000000
# 6 0.000000 0.000000 0.000000 0.000000 0.000000 0.090176
#
#
# Mechanical properties :
#
#
# Convention : Reuss Voigt Hill
#
# Bulk Modulus (GPa) = 30.43269 36.64737 33.54003
# Shear Modulus (GPa) = 18.21898 22.57438 20.39668
#
# Velocity S-wave (km/s) = 2.80074 3.11759 2.96340
# Velocity P-wave (km/s) = 4.85403 5.36075 5.11367
#
# Compressibility (1/GPa) = 0.03285941
#
# Stress axis : x y z
#
# Youngs Moduli (GPa) = 76.36475 97.68857 44.98126
#
# Poissons Ratio (x) = 0.21632 -0.03726
# Poissons Ratio (y) = 0.16910 0.22337
# Poissons Ratio (z) = -0.06325 0.48511
#
# Static dielectric constant tensor:
#      x y z
#    x 2.108310 0.000000 0.000000 
#    y 0.000000 1.920250 0.000000 
#    z 0.000000 0.000000 1.933950 
# 
# From -- ./inp_files/53933.got.cif
#   From: 2010.05.17/outbox.cif.g08.bks.cpg/sg22_27_cif.got.tgz:53933.got - 2010.06.03 23:40:54.
