data_PCOD9327167
_publ_section_title
;
Structure prediction by ZEFSAII (Michael W. Deem and Ramdas Pophale) SiO2 
 PCOD9327167
Probable space group: F 2 2 2
;
_chemical_formula_sum "Si O2"
_cell_formula_units_Z 96
_cell_length_a 19.582274
_cell_length_b 13.197846
_cell_length_c 19.712683
_cell_angle_alpha 90.000000
_cell_angle_beta 90.000000
_cell_angle_gamma 90.000000
_cell_volume 5094.621424
_symmetry_space_group_name_H-M "F 2 2 2"
_symmetry_group_IT_number 22
_symmetry_cell_setting 'orthorhombic'
loop_
_space_group_symop_operation_xyz
x,y,z
-x,-y,z
x,-y,-z
-x,y,-z
x,1/2+y,1/2+z
-x,1/2-y,1/2+z
x,1/2-y,1/2-z
-x,1/2+y,1/2-z
1/2+x,y,1/2+z
1/2-x,-y,1/2+z
1/2+x,-y,1/2-z
1/2-x,y,1/2-z
1/2+x,1/2+y,z
1/2-x,1/2-y,z
1/2+x,1/2-y,-z
1/2-x,1/2+y,-z
loop_
_atom_site_type_symbol
_atom_site_label
_atom_site_fract_x
_atom_site_fract_y
_atom_site_fract_z
Si Si1 0.143244 0.000000 0.000000
Si Si2 0.543160 0.405341 0.111485
Si Si3 0.701931 0.443638 0.341871
Si Si4 0.162284 0.146015 0.791434
Si Si5 0.879482 0.608805 0.973366
Si Si6 0.000000 0.735975 0.500000
Si Si7 0.254867 0.633960 0.575555
O O1 0.095492 0.053076 0.945064
O O2 0.189850 0.916839 0.961700
O O3 0.500000 0.500000 0.138722
O O4 0.591803 0.356639 0.167950
O O5 0.494171 0.331896 0.067915
O O6 0.771824 0.376997 0.338592
O O7 0.668880 0.438475 0.267556
O O8 0.648664 0.400840 0.396980
O O9 0.723311 0.555102 0.366219
O O10 0.169304 0.250000 0.750000
O O11 0.905989 0.500000 0.000000
O O12 0.935095 0.694008 0.985475
O O13 0.813705 0.631543 0.018935
O O14 0.250000 0.750000 0.598356
#
# Coordination Sequence:
#
# PCOD9327167 Si02
#       7
#     8  16  16  16  16   8  16
#     4  12  19  44  66  97 128 160 206 284 308 389
#     4  12  24  41  63  93 126 166 213 266 326 380
#     4  10  20  40  61  91 128 165 214 272 312 378
#     4  11  23  40  65  91 123 169 220 265 322 385
#     4  10  21  38  58  96 130 168 206 264 326 374
#     4  12  22  36  62  92 126 166 210 258 320 398
#     4  11  21  35  65  97 130 161 213 272 329 367
#
# _framework density 18.843402000000001
#
# number of rings (size 3 to 8) (size 9 to 14) (size 15 to 20)
#    0.000    1.000    5.833    3.250    0.000    1.333 
#    0.000    8.333    0.000    0.000    0.000    0.000 
#    0.000    0.000    0.000    0.000    0.000    0.000 
#
# Total GULP energy -134023.030524 kJ/mol
# GULP energy per Si atom -5584.292938 kJ/mol
# Density = 1.880051 g / cm^3
# Si number density = 18.843402 Si / 1000 Ang^3
#
#
#
# Elastic Constant Matrix: (Units=GPa)
#
#
# Indices 1 2 3 4 5 6 
#
# 1 70.0566 40.3281 29.2958 0.0000 0.0000 0.0000
# 2 40.3281 112.4051 32.1290 0.0000 0.0000 0.0000
# 3 29.2958 32.1290 74.6049 0.0000 0.0000 0.0000
# 4 0.0000 0.0000 0.0000 19.9265 0.0000 0.0000
# 5 0.0000 0.0000 0.0000 0.0000 36.6950 0.0000
# 6 0.0000 0.0000 0.0000 0.0000 0.0000 17.4250
#
#
#
# Elastic Compliance Matrix: (Units=1/GPa)
#
#
# Indices 1 2 3 4 5 6 
#
# 1 0.019700 -0.005538 -0.005351 0.000000 0.000000 0.000000
# 2 -0.005538 0.011702 -0.002865 0.000000 0.000000 0.000000
# 3 -0.005351 -0.002865 0.016739 0.000000 0.000000 0.000000
# 4 0.000000 0.000000 0.000000 0.050184 0.000000 0.000000
# 5 0.000000 0.000000 0.000000 0.000000 0.027252 0.000000
# 6 0.000000 0.000000 0.000000 0.000000 0.000000 0.057389
#
#
# Mechanical properties :
#
#
# Convention : Reuss Voigt Hill
#
# Bulk Modulus (GPa) = 48.46548 51.17470 49.82009
# Shear Modulus (GPa) = 23.00425 25.16355 24.08390
#
# Velocity S-wave (km/s) = 3.49780 3.65828 3.57894
# Velocity P-wave (km/s) = 6.48759 6.71274 6.60112
#
# Compressibility (1/GPa) = 0.02063324
#
# Stress axis : x y z
#
# Youngs Moduli (GPa) = 50.76191 85.45322 59.74157
#
# Poissons Ratio (x) = 0.47328 0.31965
# Poissons Ratio (y) = 0.28114 0.17115
# Poissons Ratio (z) = 0.27160 0.24481
#
# Static dielectric constant tensor:
#      x y z
#    x 1.666820 0.000000 0.000000 
#    y 0.000000 1.725070 0.000000 
#    z 0.000000 0.000000 1.665140 
# 
# From -- ./inp_files/44805.got.cif
#   From: 2010.05.17/outbox.cif.g08.bks.cpg/sg22_23_cif.got.tgz:44805.got - 2010.06.03 23:40:54.
