data_PCOD9327792
_publ_section_title
;
Structure prediction by ZEFSAII (Michael W. Deem and Ramdas Pophale) SiO2 
 PCOD9327792
Probable space group: F 2 2 2
;
_chemical_formula_sum "Si O2"
_cell_formula_units_Z 64
_cell_length_a 14.979881
_cell_length_b 12.044721
_cell_length_c 13.708342
_cell_angle_alpha 90.000000
_cell_angle_beta 90.000000
_cell_angle_gamma 90.000000
_cell_volume 2473.375410
_symmetry_space_group_name_H-M "F 2 2 2"
_symmetry_group_IT_number 22
_symmetry_cell_setting 'orthorhombic'
loop_
_space_group_symop_operation_xyz
x,y,z
-x,-y,z
x,-y,-z
-x,y,-z
x,1/2+y,1/2+z
-x,1/2-y,1/2+z
x,1/2-y,1/2-z
-x,1/2+y,1/2-z
1/2+x,y,1/2+z
1/2-x,-y,1/2+z
1/2+x,-y,1/2-z
1/2-x,y,1/2-z
1/2+x,1/2+y,z
1/2-x,1/2-y,z
1/2+x,1/2-y,-z
1/2-x,1/2+y,-z
loop_
_atom_site_type_symbol
_atom_site_label
_atom_site_fract_x
_atom_site_fract_y
_atom_site_fract_z
Si Si1 0.373793 0.770420 0.358824
Si Si2 0.713304 0.633165 0.046148
Si Si3 0.565798 0.364747 0.802133
Si Si4 0.330399 0.529930 0.331735
O O1 0.339432 0.750000 0.250000
O O2 0.315111 0.840482 0.434317
O O3 0.466443 0.665673 0.160178
O O4 0.374068 0.638720 0.384845
O O5 0.750000 0.750000 0.082721
O O6 0.621821 0.608866 0.101729
O O7 0.784230 0.546831 0.087442
O O8 0.595054 0.250000 0.750000
O O9 0.593027 0.460886 0.725826
O O10 0.250000 0.544308 0.250000
#
# Coordination Sequence:
#
# PCOD9327792 Si02
#       4
#    16  16  16  16
#     4  11  27  46  76 114 172 202 264 344 416 479
#     4  11  23  45  78 110 157 205 273 328 400 489
#     4  10  21  47  75 111 154 206 262 340 392 493
#     4  10  24  47  79 113 154 213 271 326 411 488
#
# _framework density 25.87557
#
# number of rings (size 3 to 8) (size 9 to 14) (size 15 to 20)
#    0.000    1.500    2.500    0.750    3.500    5.000 
#    4.500    2.500   11.000    6.000    0.000    0.000 
#    0.000    0.000    0.000    0.000    0.000    0.000 
#
# Total GULP energy -89327.720831 kJ/mol
# GULP energy per Si atom -5582.982552 kJ/mol
# Density = 2.581668 g / cm^3
# Si number density = 25.875570 Si / 1000 Ang^3
#
#
#
# Elastic Constant Matrix: (Units=GPa)
#
#
# Indices 1 2 3 4 5 6 
#
# 1 209.8602 85.2775 68.3344 0.0000 0.0000 0.0000
# 2 85.2775 211.2664 59.9558 0.0000 0.0000 0.0000
# 3 68.3344 59.9558 183.1968 0.0000 0.0000 0.0000
# 4 0.0000 0.0000 0.0000 42.7983 0.0000 0.0000
# 5 0.0000 0.0000 0.0000 0.0000 23.9180 0.0000
# 6 0.0000 0.0000 0.0000 0.0000 0.0000 13.1944
#
#
#
# Elastic Compliance Matrix: (Units=1/GPa)
#
#
# Indices 1 2 3 4 5 6 
#
# 1 0.006108 -0.002005 -0.001622 0.000000 0.000000 0.000000
# 2 -0.002005 0.005876 -0.001175 0.000000 0.000000 0.000000
# 3 -0.001622 -0.001175 0.006448 0.000000 0.000000 0.000000
# 4 0.000000 0.000000 0.000000 0.023365 0.000000 0.000000
# 5 0.000000 0.000000 0.000000 0.000000 0.041810 0.000000
# 6 0.000000 0.000000 0.000000 0.000000 0.000000 0.075790
#
#
# Mechanical properties :
#
#
# Convention : Reuss Voigt Hill
#
# Bulk Modulus (GPa) = 113.28088 114.60654 113.94371
# Shear Modulus (GPa) = 29.07906 42.03251 35.55579
#
# Velocity S-wave (km/s) = 3.35596 4.03477 3.71092
# Velocity P-wave (km/s) = 7.67403 8.12978 7.90519
#
# Compressibility (1/GPa) = 0.00882762
#
# Stress axis : x y z
#
# Youngs Moduli (GPa) = 163.71739 170.17621 155.07963
#
# Poissons Ratio (x) = 0.34123 0.25156
# Poissons Ratio (y) = 0.32828 0.18225
# Poissons Ratio (z) = 0.26557 0.19999
#
# Static dielectric constant tensor:
#      x y z
#    x 2.027210 0.000000 0.000000 
#    y 0.000000 2.322940 0.000000 
#    z 0.000000 0.000000 2.259290 
# 
# From -- ./inp_files/20847.got.cif
#   From: 2010.05.17/outbox.cif.g08.bks.cpg/sg22_11_cif.got.tgz:20847.got - 2010.06.03 23:40:54.
