data_PCOD9327234
_publ_section_title
;
Structure prediction by ZEFSAII (Michael W. Deem and Ramdas Pophale) SiO2 
 PCOD9327234
Probable space group: F 2 2 2
;
_chemical_formula_sum "Si O2"
_cell_formula_units_Z 116
_cell_length_a 25.564608
_cell_length_b 12.662023
_cell_length_c 16.359233
_cell_angle_alpha 90.000000
_cell_angle_beta 90.000000
_cell_angle_gamma 90.000000
_cell_volume 5295.478070
_symmetry_space_group_name_H-M "F 2 2 2"
_symmetry_group_IT_number 22
_symmetry_cell_setting 'orthorhombic'
loop_
_space_group_symop_operation_xyz
x,y,z
-x,-y,z
x,-y,-z
-x,y,-z
x,1/2+y,1/2+z
-x,1/2-y,1/2+z
x,1/2-y,1/2-z
-x,1/2+y,1/2-z
1/2+x,y,1/2+z
1/2-x,-y,1/2+z
1/2+x,-y,1/2-z
1/2-x,y,1/2-z
1/2+x,1/2+y,z
1/2-x,1/2-y,z
1/2+x,1/2-y,-z
1/2-x,1/2+y,-z
loop_
_atom_site_type_symbol
_atom_site_label
_atom_site_fract_x
_atom_site_fract_y
_atom_site_fract_z
Si Si1 0.838953 0.683428 0.513996
Si Si2 0.824459 0.603406 0.043171
Si Si3 0.325834 0.072016 0.675783
Si Si4 0.062774 0.990041 0.807545
Si Si5 0.250000 0.750000 0.250000
Si Si6 0.052519 0.335246 0.448830
Si Si7 0.406847 0.321868 0.323294
Si Si8 0.725056 0.365598 0.857079
O O1 0.816372 0.802298 0.522691
O O2 0.823090 0.596464 0.578829
O O3 0.901366 0.692472 0.511282
O O4 0.819704 0.657819 0.423009
O O5 0.864888 0.640143 0.111879
O O6 0.771281 0.581262 0.091058
O O7 0.844584 0.500000 0.000000
O O8 0.290710 0.166878 0.709549
O O9 0.387903 0.070774 0.698516
O O10 0.301105 0.956578 0.698684
O O11 0.070700 0.936266 0.896661
O O12 0.070247 0.916857 0.728261
O O13 0.000000 0.000000 0.809132
O O14 0.051862 0.245914 0.377106
O O15 0.000000 0.348424 0.500000
O O16 0.383072 0.250000 0.250000
O O17 0.750000 0.250000 0.833055
#
# Coordination Sequence:
#
# PCOD9327234 Si02
#       8
#    16  16  16  16   4  16  16  16
#     4  10  21  39  67 100 134 175 233 302 363 417
#     4  10  21  37  67 100 131 183 239 298 363 436
#     4  12  26  47  67 101 154 190 251 300 362 462
#     4  11  24  44  70 100 139 195 233 299 372 440
#     4  12  36  48  62 108 156 220 238 292 396 460
#     4  10  20  41  70 103 128 174 243 309 360 431
#     4   9  22  43  63  93 146 179 233 297 369 440
#     4  10  22  39  71 106 131 178 235 309 368 420
#
# _framework density 21.905481999999999
#
# number of rings (size 3 to 8) (size 9 to 14) (size 15 to 20)
#    0.000    1.655    1.379    2.069    8.690    1.379 
#   11.172    0.345    0.000    0.000    0.000    0.000 
#    0.000    0.000    0.000    0.000    0.000    0.000 
#
# Total GULP energy -161591.313737 kJ/mol
# GULP energy per Si atom -5572.114267 kJ/mol
# Density = 2.185562 g / cm^3
# Si number density = 21.905482 Si / 1000 Ang^3
#
#
#
# Elastic Constant Matrix: (Units=GPa)
#
#
# Indices 1 2 3 4 5 6 
#
# 1 134.5876 34.0070 33.9248 0.0000 0.0000 0.0000
# 2 34.0070 109.2739 41.3548 0.0000 0.0000 0.0000
# 3 33.9248 41.3548 77.8908 0.0000 0.0000 0.0000
# 4 0.0000 0.0000 0.0000 2.3613 0.0000 0.0000
# 5 0.0000 0.0000 0.0000 0.0000 17.6135 0.0000
# 6 0.0000 0.0000 0.0000 0.0000 0.0000 24.1137
#
#
#
# Elastic Compliance Matrix: (Units=1/GPa)
#
#
# Indices 1 2 3 4 5 6 
#
# 1 0.008556 -0.001567 -0.002894 0.000000 0.000000 0.000000
# 2 -0.001567 0.011740 -0.005550 0.000000 0.000000 0.000000
# 3 -0.002894 -0.005550 0.017046 0.000000 0.000000 0.000000
# 4 0.000000 0.000000 0.000000 0.423495 0.000000 0.000000
# 5 0.000000 0.000000 0.000000 0.000000 0.056775 0.000000
# 6 0.000000 0.000000 0.000000 0.000000 0.000000 0.041470
#
#
# Mechanical properties :
#
#
# Convention : Reuss Voigt Hill
#
# Bulk Modulus (GPa) = 57.74512 60.03616 58.89064
# Shear Modulus (GPa) = 8.54881 22.98209 15.76545
#
# Velocity S-wave (km/s) = 1.97764 3.24257 2.68564
# Velocity P-wave (km/s) = 5.62432 6.44092 6.04642
#
# Compressibility (1/GPa) = 0.01731748
#
# Stress axis : x y z
#
# Youngs Moduli (GPa) = 116.88187 85.18189 58.66518
#
# Poissons Ratio (x) = 0.13350 0.16979
# Poissons Ratio (y) = 0.18318 0.32561
# Poissons Ratio (z) = 0.33828 0.47279
#
# Static dielectric constant tensor:
#      x y z
#    x 1.910380 0.000000 0.000000 
#    y 0.000000 1.904270 0.000000 
#    z 0.000000 0.000000 1.818910 
# 
# From -- ./inp_files/40085.got.cif
#   From: 2010.05.17/outbox.cif.g08.bks.cpg/sg22_21_cif.got.tgz:40085.got - 2010.06.03 23:40:54.
