data_PCOD9327257
_publ_section_title
;
Structure prediction by ZEFSAII (Michael W. Deem and Ramdas Pophale) SiO2 
 PCOD9327257
Probable space group: F 2 2 2
;
_chemical_formula_sum "Si O2"
_cell_formula_units_Z 80
_cell_length_a 10.547124
_cell_length_b 14.699287
_cell_length_c 23.207716
_cell_angle_alpha 90.000000
_cell_angle_beta 90.000000
_cell_angle_gamma 90.000000
_cell_volume 3598.012954
_symmetry_space_group_name_H-M "F 2 2 2"
_symmetry_group_IT_number 22
_symmetry_cell_setting 'orthorhombic'
loop_
_space_group_symop_operation_xyz
x,y,z
-x,-y,z
x,-y,-z
-x,y,-z
x,1/2+y,1/2+z
-x,1/2-y,1/2+z
x,1/2-y,1/2-z
-x,1/2+y,1/2-z
1/2+x,y,1/2+z
1/2-x,-y,1/2+z
1/2+x,-y,1/2-z
1/2-x,y,1/2-z
1/2+x,1/2+y,z
1/2-x,1/2-y,z
1/2+x,1/2-y,-z
1/2-x,1/2+y,-z
loop_
_atom_site_type_symbol
_atom_site_label
_atom_site_fract_x
_atom_site_fract_y
_atom_site_fract_z
Si Si1 0.521429 0.602922 0.870848
Si Si2 0.000000 0.341904 0.500000
Si Si3 0.642064 0.964376 0.202050
Si Si4 0.696583 0.122052 0.125155
Si Si5 0.750000 0.750000 0.521253
Si Si6 0.034748 0.724429 0.814401
O O1 0.500000 0.500000 0.852098
O O2 0.520432 0.605017 0.940477
O O3 0.661402 0.634140 0.851070
O O4 0.431521 0.681630 0.846393
O O5 0.124944 0.281702 0.489108
O O6 0.750000 0.984746 0.250000
O O7 0.635424 0.856843 0.190927
O O8 0.500000 0.000000 0.219840
O O9 0.669267 0.017701 0.142052
O O10 0.707085 0.164896 0.061627
O O11 0.584612 0.177782 0.154434
O O12 0.998202 0.750000 0.750000
#
# Coordination Sequence:
#
# PCOD9327257 Si02
#       6
#    16   8  16  16   8  16
#     4  11  24  42  71 100 135 184 240 288 352 419
#     4  10  21  46  70 101 138 176 237 298 353 416
#     4  10  25  42  67  98 142 187 234 287 346 416
#     4  10  21  41  69  91 134 187 235 274 347 433
#     4  10  20  42  75 102 133 184 234 298 350 428
#     4  11  24  42  66 102 140 186 231 289 350 417
#
# _framework density 22.234494999999999
#
# number of rings (size 3 to 8) (size 9 to 14) (size 15 to 20)
#    0.000    1.600    4.000    0.300    8.400    1.200 
#    3.600    0.000    0.000    1.200    0.000    0.000 
#    0.000    0.000    0.000    0.000    0.000    0.000 
#
# Total GULP energy -111556.770210 kJ/mol
# GULP energy per Si atom -5577.838510 kJ/mol
# Density = 2.218389 g / cm^3
# Si number density = 22.234495 Si / 1000 Ang^3
#
#
#
# Elastic Constant Matrix: (Units=GPa)
#
#
# Indices 1 2 3 4 5 6 
#
# 1 107.6531 14.7070 8.5991 0.0000 0.0000 0.0000
# 2 14.7070 124.5446 18.5035 0.0000 0.0000 0.0000
# 3 8.5991 18.5035 64.3381 0.0000 0.0000 0.0000
# 4 0.0000 0.0000 0.0000 4.3679 0.0000 0.0000
# 5 0.0000 0.0000 0.0000 0.0000 30.3667 0.0000
# 6 0.0000 0.0000 0.0000 0.0000 0.0000 13.4368
#
#
#
# Elastic Compliance Matrix: (Units=1/GPa)
#
#
# Indices 1 2 3 4 5 6 
#
# 1 0.009501 -0.000975 -0.000990 0.000000 0.000000 0.000000
# 2 -0.000975 0.008488 -0.002311 0.000000 0.000000 0.000000
# 3 -0.000990 -0.002311 0.016340 0.000000 0.000000 0.000000
# 4 0.000000 0.000000 0.000000 0.228941 0.000000 0.000000
# 5 0.000000 0.000000 0.000000 0.000000 0.032931 0.000000
# 6 0.000000 0.000000 0.000000 0.000000 0.000000 0.074422
#
#
# Mechanical properties :
#
#
# Convention : Reuss Voigt Hill
#
# Bulk Modulus (GPa) = 38.79227 42.23944 40.51585
# Shear Modulus (GPa) = 12.89436 26.61603 19.75520
#
# Velocity S-wave (km/s) = 2.41078 3.46361 2.98399
# Velocity P-wave (km/s) = 5.02333 5.91895 5.48944
#
# Compressibility (1/GPa) = 0.02577833
#
# Stress axis : x y z
#
# Youngs Moduli (GPa) = 105.24841 117.81772 61.20059
#
# Poissons Ratio (x) = 0.11487 0.06056
# Poissons Ratio (y) = 0.10261 0.14142
# Poissons Ratio (z) = 0.10414 0.27224
#
# Static dielectric constant tensor:
#      x y z
#    x 1.865160 0.000000 0.000000 
#    y 0.000000 1.853260 0.000000 
#    z 0.000000 0.000000 1.801440 
# 
# From -- ./inp_files/47991.got.cif
#   From: 2010.05.17/outbox.cif.g08.bks.cpg/sg22_24_cif.got.tgz:47991.got - 2010.06.03 23:40:54.
