data_PCOD9327488
_publ_section_title
;
Structure prediction by ZEFSAII (Michael W. Deem and Ramdas Pophale) SiO2 
 PCOD9327488
Probable space group: F 2 2 2
;
_chemical_formula_sum "Si O2"
_cell_formula_units_Z 116
_cell_length_a 19.809811
_cell_length_b 11.724128
_cell_length_c 25.972225
_cell_angle_alpha 90.000000
_cell_angle_beta 90.000000
_cell_angle_gamma 90.000000
_cell_volume 6032.120935
_symmetry_space_group_name_H-M "F 2 2 2"
_symmetry_group_IT_number 22
_symmetry_cell_setting 'orthorhombic'
loop_
_space_group_symop_operation_xyz
x,y,z
-x,-y,z
x,-y,-z
-x,y,-z
x,1/2+y,1/2+z
-x,1/2-y,1/2+z
x,1/2-y,1/2-z
-x,1/2+y,1/2-z
1/2+x,y,1/2+z
1/2-x,-y,1/2+z
1/2+x,-y,1/2-z
1/2-x,y,1/2-z
1/2+x,1/2+y,z
1/2-x,1/2-y,z
1/2+x,1/2-y,-z
1/2-x,1/2+y,-z
loop_
_atom_site_type_symbol
_atom_site_label
_atom_site_fract_x
_atom_site_fract_y
_atom_site_fract_z
Si Si1 0.250000 0.750000 0.250000
Si Si2 0.680643 0.499904 0.937884
Si Si3 0.353107 0.371072 0.682656
Si Si4 0.672993 0.252158 0.958133
Si Si5 0.664434 0.004624 0.912237
Si Si6 0.526661 0.871843 0.734626
Si Si7 0.063506 0.327263 0.964933
Si Si8 0.415779 0.171954 0.622148
O O1 0.288149 0.663650 0.286796
O O2 0.669593 0.366590 0.924777
O O3 0.758647 0.533423 0.925973
O O4 0.626893 0.575346 0.906991
O O5 0.672328 0.500000 0.000000
O O6 0.348823 0.482083 0.647751
O O7 0.410894 0.368843 0.725497
O O8 0.364732 0.268750 0.642376
O O9 0.750000 0.250000 0.979433
O O10 0.661505 0.136382 0.926969
O O11 0.617345 0.246723 0.002518
O O12 0.607418 0.933615 0.943475
O O13 0.490291 0.750000 0.750000
O O14 0.546662 0.865963 0.674166
O O15 0.500000 0.000000 0.742823
O O16 0.039740 0.244088 0.918571
O O17 0.000000 0.359198 0.000000
#
# Coordination Sequence:
#
# PCOD9327488 Si02
#       8
#     4  16  16  16  16  16  16  16
#     4  12  16  36  72  96 130 140 212 298 322 360
#     4  11  20  37  64  89 127 173 213 259 312 386
#     4  10  21  38  65  99 120 153 211 276 330 370
#     4  10  21  39  57  85 128 173 213 249 307 387
#     4  10  22  37  60  93 126 166 212 262 322 382
#     4  10  22  46  68  92 127 166 219 272 331 400
#     4  11  23  38  60  91 130 166 207 263 315 374
#     4  10  21  40  62  96 122 161 216 262 322 377
#
# _framework density 19.230384000000001
#
# number of rings (size 3 to 8) (size 9 to 14) (size 15 to 20)
#    0.000    1.655    3.448    2.897    0.000    3.310 
#    9.931    0.690    0.000    0.000    0.000    0.000 
#    0.000    0.000    0.000    0.000    0.000    0.000 
#
# Total GULP energy -161589.136373 kJ/mol
# GULP energy per Si atom -5572.039185 kJ/mol
# Density = 1.918662 g / cm^3
# Si number density = 19.230384 Si / 1000 Ang^3
#
#
#
# Elastic Constant Matrix: (Units=GPa)
#
#
# Indices 1 2 3 4 5 6 
#
# 1 57.1339 46.5991 34.9915 0.0000 0.0000 0.0000
# 2 46.5991 123.8485 46.3412 0.0000 0.0000 0.0000
# 3 34.9915 46.3412 111.8733 0.0000 0.0000 0.0000
# 4 0.0000 0.0000 0.0000 23.1927 0.0000 0.0000
# 5 0.0000 0.0000 0.0000 0.0000 174.6971 0.0000
# 6 0.0000 0.0000 0.0000 0.0000 0.0000 31.0792
#
#
#
# Elastic Compliance Matrix: (Units=1/GPa)
#
#
# Indices 1 2 3 4 5 6 
#
# 1 0.027518 -0.008442 -0.005110 0.000000 0.000000 0.000000
# 2 -0.008442 0.012145 -0.002390 0.000000 0.000000 0.000000
# 3 -0.005110 -0.002390 0.011527 0.000000 0.000000 0.000000
# 4 0.000000 0.000000 0.000000 0.043117 0.000000 0.000000
# 5 0.000000 0.000000 0.000000 0.000000 0.005724 0.000000
# 6 0.000000 0.000000 0.000000 0.000000 0.000000 0.032176
#
#
# Mechanical properties :
#
#
# Convention : Reuss Voigt Hill
#
# Bulk Modulus (GPa) = 51.79905 60.96882 56.38393
# Shear Modulus (GPa) = 29.32095 56.78872 43.05484
#
# Velocity S-wave (km/s) = 3.90900 5.44011 4.73683
# Velocity P-wave (km/s) = 6.88246 8.43997 7.70069
#
# Compressibility (1/GPa) = 0.01930537
#
# Stress axis : x y z
#
# Youngs Moduli (GPa) = 36.34044 82.33778 86.75110
#
# Poissons Ratio (x) = 0.69507 0.44331
# Poissons Ratio (y) = 0.30677 0.20738
# Poissons Ratio (z) = 0.18570 0.19683
#
# Static dielectric constant tensor:
#      x y z
#    x 1.693390 0.000000 0.000000 
#    y 0.000000 1.717310 0.000000 
#    z 0.000000 0.000000 1.697720 
# 
# From -- ./inp_files/36418.got.cif
#   From: 2010.05.17/outbox.cif.g08.bks.cpg/sg22_19_cif.got.tgz:36418.got - 2010.06.03 23:40:54.
