data_PCOD9327649
_publ_section_title
;
Structure prediction by ZEFSAII (Michael W. Deem and Ramdas Pophale) SiO2 
 PCOD9327649
Probable space group: F 2 2 2
;
_chemical_formula_sum "Si O2"
_cell_formula_units_Z 104
_cell_length_a 27.736776
_cell_length_b 20.094207
_cell_length_c 8.735871
_cell_angle_alpha 90.000000
_cell_angle_beta 90.000000
_cell_angle_gamma 90.000000
_cell_volume 4868.924759
_symmetry_space_group_name_H-M "F 2 2 2"
_symmetry_group_IT_number 22
_symmetry_cell_setting 'orthorhombic'
loop_
_space_group_symop_operation_xyz
x,y,z
-x,-y,z
x,-y,-z
-x,y,-z
x,1/2+y,1/2+z
-x,1/2-y,1/2+z
x,1/2-y,1/2-z
-x,1/2+y,1/2-z
1/2+x,y,1/2+z
1/2-x,-y,1/2+z
1/2+x,-y,1/2-z
1/2-x,y,1/2-z
1/2+x,1/2+y,z
1/2-x,1/2-y,z
1/2+x,1/2-y,-z
1/2-x,1/2+y,-z
loop_
_atom_site_type_symbol
_atom_site_label
_atom_site_fract_x
_atom_site_fract_y
_atom_site_fract_z
Si Si1 0.845739 0.926032 0.984725
Si Si2 0.377879 0.294993 0.893808
Si Si3 0.612365 0.889649 0.199588
Si Si4 0.814919 0.785526 0.410494
Si Si5 0.760927 0.894614 0.582065
Si Si6 0.842073 0.500000 0.000000
Si Si7 0.961960 0.809580 0.133856
O O1 0.855211 0.893486 0.148645
O O2 0.870356 0.874126 0.866815
O O3 0.788985 0.929338 0.960498
O O4 0.866623 0.000000 0.000000
O O5 0.391683 0.250000 0.750000
O O6 0.327372 0.267290 0.958360
O O7 0.416534 0.287895 0.029732
O O8 0.636588 0.830429 0.103920
O O9 0.559398 0.868905 0.259248
O O10 0.623615 0.957534 0.111144
O O11 0.806301 0.750000 0.250000
O O12 0.774627 0.836993 0.463761
O O13 0.750000 0.866976 0.750000
O O14 0.805125 0.947771 0.581075
O O15 0.976913 0.750000 0.250000
O O16 0.000000 0.827415 0.000000
#
# Coordination Sequence:
#
# PCOD9327649 Si02
#       7
#    16  16  16  16  16   8  16
#     4  11  22  39  58  89 134 179 236 281 321 400
#     4  11  22  40  64  94 134 176 220 278 357 407
#     4  10  21  41  64  95 129 177 219 275 343 410
#     4  11  20  42  63  88 129 179 221 284 340 404
#     4  11  23  37  58  94 136 181 247 284 321 388
#     4  10  22  34  66  92 141 190 225 276 338 390
#     4  11  21  41  70 105 132 160 218 285 350 429
#
# _framework density 21.359952
#
# number of rings (size 3 to 8) (size 9 to 14) (size 15 to 20)
#    0.000    1.231    5.385    2.308    0.000    3.692 
#    2.769    1.538    0.000    7.385    0.000    0.000 
#    0.000    0.000    0.000    0.000    0.000    0.000 
#
# Total GULP energy -145091.281116 kJ/mol
# GULP energy per Si atom -5580.433889 kJ/mol
# Density = 2.131134 g / cm^3
# Si number density = 21.359952 Si / 1000 Ang^3
#
#
#
# Elastic Constant Matrix: (Units=GPa)
#
#
# Indices 1 2 3 4 5 6 
#
# 1 60.1955 18.1597 20.8113 0.0000 0.0000 0.0000
# 2 18.1597 112.5323 42.1565 0.0004 0.0000 0.0000
# 3 20.8113 42.1565 85.7130 0.0006 0.0000 0.0000
# 4 0.0000 0.0004 0.0006 37.7651 0.0000 0.0000
# 5 0.0000 0.0000 0.0000 0.0000 36.3605 0.0000
# 6 0.0000 0.0000 0.0000 0.0000 0.0000 18.1193
#
#
#
# Elastic Compliance Matrix: (Units=1/GPa)
#
#
# Indices 1 2 3 4 5 6 
#
# 1 0.018363 -0.001585 -0.003679 0.000000 0.000000 0.000000
# 2 -0.001585 0.011030 -0.005040 0.000000 0.000000 0.000000
# 3 -0.003679 -0.005040 0.015039 0.000000 0.000000 0.000000
# 4 0.000000 0.000000 0.000000 0.026479 0.000000 0.000000
# 5 0.000000 0.000000 0.000000 0.000000 0.027502 0.000000
# 6 0.000000 0.000000 0.000000 0.000000 0.000000 0.055190
#
#
# Mechanical properties :
#
#
# Convention : Reuss Voigt Hill
#
# Bulk Modulus (GPa) = 41.97520 46.74399 44.35960
# Shear Modulus (GPa) = 27.44942 30.26984 28.85963
#
# Velocity S-wave (km/s) = 3.58870 3.76856 3.67973
# Velocity P-wave (km/s) = 6.07172 6.39277 6.23431
#
# Compressibility (1/GPa) = 0.02382359
#
# Stress axis : x y z
#
# Youngs Moduli (GPa) = 54.45845 90.65960 66.49364
#
# Poissons Ratio (x) = 0.14370 0.24462
# Poissons Ratio (y) = 0.08632 0.33514
# Poissons Ratio (z) = 0.20035 0.45694
#
# Static dielectric constant tensor:
#      x y z
#    x 1.811500 0.000000 0.000000 
#    y 0.000000 1.892060 0.000000 
#    z 0.000000 0.000000 1.823590 
# 
# From -- ./inp_files/13063.got.cif
#   From: 2010.05.17/outbox.cif.g08.bks.cpg/sg22_7_cif.got.tgz:13063.got - 2010.06.03 23:40:54.
