data_PCOD9327958
_publ_section_title
;
Structure prediction by ZEFSAII (Michael W. Deem and Ramdas Pophale) SiO2 
 PCOD9327958
Probable space group: F 2 2 2
;
_chemical_formula_sum "Si O2"
_cell_formula_units_Z 120
_cell_length_a 25.392449
_cell_length_b 22.195164
_cell_length_c 11.171434
_cell_angle_alpha 90.000000
_cell_angle_beta 90.000000
_cell_angle_gamma 90.000000
_cell_volume 6296.103683
_symmetry_space_group_name_H-M "F 2 2 2"
_symmetry_group_IT_number 22
_symmetry_cell_setting 'orthorhombic'
loop_
_space_group_symop_operation_xyz
x,y,z
-x,-y,z
x,-y,-z
-x,y,-z
x,1/2+y,1/2+z
-x,1/2-y,1/2+z
x,1/2-y,1/2-z
-x,1/2+y,1/2-z
1/2+x,y,1/2+z
1/2-x,-y,1/2+z
1/2+x,-y,1/2-z
1/2-x,y,1/2-z
1/2+x,1/2+y,z
1/2-x,1/2-y,z
1/2+x,1/2-y,-z
1/2-x,1/2+y,-z
loop_
_atom_site_type_symbol
_atom_site_label
_atom_site_fract_x
_atom_site_fract_y
_atom_site_fract_z
Si Si1 0.927634 0.442135 0.080634
Si Si2 0.237081 0.452153 0.388644
Si Si3 0.560786 0.653683 0.013415
Si Si4 0.155580 0.108488 0.434203
Si Si5 0.054257 0.035833 0.853662
Si Si6 0.122505 0.426902 0.322453
Si Si7 0.094056 0.729007 0.887462
Si Si8 0.500000 0.334536 0.500000
O O1 0.944568 0.454937 0.213326
O O2 0.957458 0.380520 0.051318
O O3 0.941002 0.500000 0.000000
O O4 0.867196 0.424721 0.051357
O O5 0.236126 0.500000 0.500000
O O6 0.250000 0.475279 0.250000
O O7 0.283235 0.404825 0.418603
O O8 0.180653 0.419251 0.376083
O O9 0.564773 0.598980 0.918743
O O10 0.500000 0.671219 0.000000
O O11 0.578958 0.621106 0.136004
O O12 0.594838 0.714572 0.019903
O O13 0.127534 0.075813 0.320373
O O14 0.135986 0.177226 0.421725
O O15 0.101810 0.989875 0.871335
O O16 0.000000 0.000000 0.881954
O O17 0.101836 0.750000 0.750000
O O18 0.034562 0.703019 0.905192
#
# Coordination Sequence:
#
# PCOD9327958 Si02
#       8
#    16  16  16  16  16  16  16   8
#     4  11  21  35  56  87 127 158 202 257 323 379
#     4  10  22  40  68  96 130 162 205 266 335 394
#     4  12  24  39  58  87 127 172 209 254 315 382
#     4  10  22  41  63  91 121 162 216 270 314 380
#     4  12  24  35  58  96 132 168 200 253 324 401
#     4  11  22  41  62  93 129 160 203 261 325 393
#     4  11  23  40  60  81 124 170 219 267 310 373
#     4  10  23  32  50  86 111 164 216 246 304 376
#
# _framework density 19.059407
#
# number of rings (size 3 to 8) (size 9 to 14) (size 15 to 20)
#    0.000    1.067    4.667    2.600    5.600    0.000 
#    0.000    2.667    0.000    0.000    0.000    0.000 
#    0.000    0.000    0.000    0.000    0.000    0.000 
#
# Total GULP energy -167093.196137 kJ/mol
# GULP energy per Si atom -5569.773205 kJ/mol
# Density = 1.901603 g / cm^3
# Si number density = 19.059407 Si / 1000 Ang^3
#
#
#
# Elastic Constant Matrix: (Units=GPa)
#
#
# Indices 1 2 3 4 5 6 
#
# 1 88.7682 25.0002 14.2859 0.0000 0.0000 0.0000
# 2 25.0002 117.4877 31.7432 0.0000 0.0000 0.0000
# 3 14.2859 31.7432 90.7593 0.0001 0.0000 0.0000
# 4 0.0000 0.0000 0.0001 24.4315 0.0000 0.0000
# 5 0.0000 0.0000 0.0000 0.0000 15.9883 0.0000
# 6 0.0000 0.0000 0.0000 0.0000 0.0000 25.7777
#
#
#
# Elastic Compliance Matrix: (Units=1/GPa)
#
#
# Indices 1 2 3 4 5 6 
#
# 1 0.012083 -0.002272 -0.001107 0.000000 0.000000 0.000000
# 2 -0.002272 0.009827 -0.003079 0.000000 0.000000 0.000000
# 3 -0.001107 -0.003079 0.012269 0.000000 0.000000 0.000000
# 4 0.000000 0.000000 0.000000 0.040931 0.000000 0.000000
# 5 0.000000 0.000000 0.000000 0.000000 0.062546 0.000000
# 6 0.000000 0.000000 0.000000 0.000000 0.000000 0.038793
#
#
# Mechanical properties :
#
#
# Convention : Reuss Voigt Hill
#
# Bulk Modulus (GPa) = 47.03147 48.78598 47.90873
# Shear Modulus (GPa) = 25.45119 28.30524 26.87822
#
# Velocity S-wave (km/s) = 3.65822 3.85789 3.75938
# Velocity P-wave (km/s) = 6.52482 6.74513 6.63589
#
# Compressibility (1/GPa) = 0.02126236
#
# Stress axis : x y z
#
# Youngs Moduli (GPa) = 82.75827 101.76061 81.50319
#
# Poissons Ratio (x) = 0.23120 0.09025
# Poissons Ratio (y) = 0.18803 0.25098
# Poissons Ratio (z) = 0.09164 0.31336
#
# Static dielectric constant tensor:
#      x y z
#    x 1.694800 0.000000 0.000000 
#    y 0.000000 1.731880 0.000000 
#    z 0.000000 0.000000 1.737890 
# 
# From -- ./inp_files/24017.got.cif
#   From: 2010.05.17/outbox.cif.g08.bks.cpg/sg22_13_cif.got.tgz:24017.got - 2010.06.03 23:40:54.
