data_PCOD9327626
_publ_section_title
;
Structure prediction by ZEFSAII (Michael W. Deem and Ramdas Pophale) SiO2 
 PCOD9327626
Probable space group: F 2 2 2
;
_chemical_formula_sum "Si O2"
_cell_formula_units_Z 88
_cell_length_a 16.681736
_cell_length_b 28.920047
_cell_length_c 8.839346
_cell_angle_alpha 90.000000
_cell_angle_beta 90.000000
_cell_angle_gamma 90.000000
_cell_volume 4264.423935
_symmetry_space_group_name_H-M "F 2 2 2"
_symmetry_group_IT_number 22
_symmetry_cell_setting 'orthorhombic'
loop_
_space_group_symop_operation_xyz
x,y,z
-x,-y,z
x,-y,-z
-x,y,-z
x,1/2+y,1/2+z
-x,1/2-y,1/2+z
x,1/2-y,1/2-z
-x,1/2+y,1/2-z
1/2+x,y,1/2+z
1/2-x,-y,1/2+z
1/2+x,-y,1/2-z
1/2-x,y,1/2-z
1/2+x,1/2+y,z
1/2-x,1/2-y,z
1/2+x,1/2-y,-z
1/2-x,1/2+y,-z
loop_
_atom_site_type_symbol
_atom_site_label
_atom_site_fract_x
_atom_site_fract_y
_atom_site_fract_z
Si Si1 0.589839 0.067248 0.025157
Si Si2 0.414640 0.243596 0.571344
Si Si3 0.825251 0.577091 0.665660
Si Si4 0.668373 0.842905 0.444900
Si Si5 0.724863 0.500000 0.500000
Si Si6 0.858799 0.663639 0.099279
O O1 0.612489 0.065795 0.202623
O O2 0.500000 0.050806 0.000000
O O3 0.660053 0.037948 0.940232
O O4 0.596798 0.119804 0.970938
O O5 0.500000 0.230790 0.500000
O O6 0.422682 0.250000 0.750000
O O7 0.354403 0.201723 0.541273
O O8 0.385504 0.289624 0.483883
O O9 0.750000 0.602217 0.750000
O O10 0.855494 0.610449 0.533554
O O11 0.784083 0.530788 0.600916
O O12 0.763971 0.843904 0.423879
O O13 0.628861 0.836410 0.280053
#
# Coordination Sequence:
#
# PCOD9327626 Si02
#       6
#    16  16  16  16   8  16
#     4  11  23  41  69 101 136 172 223 281 340 399
#     4  12  26  42  64  91 134 176 219 277 340 397
#     4  10  21  41  68  98 129 175 226 270 334 403
#     4  11  23  40  66  96 131 175 227 272 320 408
#     4  10  21  40  68  96 135 172 222 274 331 408
#     4  11  23  41  65  99 133 173 224 272 331 397
#
# _framework density 20.635847999999999
#
# number of rings (size 3 to 8) (size 9 to 14) (size 15 to 20)
#    0.000    1.091    3.636    4.091    0.000    8.000 
#    0.000    0.000    0.000    2.182    0.000    0.000 
#    0.000    0.000    0.000    0.000    0.000    0.000 
#
# Total GULP energy -122868.197145 kJ/mol
# GULP energy per Si atom -5584.918052 kJ/mol
# Density = 2.058888 g / cm^3
# Si number density = 20.635848 Si / 1000 Ang^3
#
#
#
# Elastic Constant Matrix: (Units=GPa)
#
#
# Indices 1 2 3 4 5 6 
#
# 1 80.5644 27.8256 42.3991 0.0000 0.0000 0.0000
# 2 27.8256 115.1821 50.4496 0.0000 0.0000 0.0000
# 3 42.3991 50.4496 153.2955 0.0000 -0.0001 0.0000
# 4 0.0000 0.0000 0.0000 34.5970 0.0000 0.0000
# 5 0.0000 0.0000 -0.0001 0.0000 35.3846 0.0000
# 6 0.0000 0.0000 0.0000 0.0000 0.0000 23.7186
#
#
#
# Elastic Compliance Matrix: (Units=1/GPa)
#
#
# Indices 1 2 3 4 5 6 
#
# 1 0.014951 -0.002104 -0.003443 0.000000 0.000000 0.000000
# 2 -0.002104 0.010440 -0.002854 0.000000 0.000000 0.000000
# 3 -0.003443 -0.002854 0.008415 0.000000 0.000000 0.000000
# 4 0.000000 0.000000 0.000000 0.028904 0.000000 0.000000
# 5 0.000000 0.000000 0.000000 0.000000 0.028261 0.000000
# 6 0.000000 0.000000 0.000000 0.000000 0.000000 0.042161
#
#
# Mechanical properties :
#
#
# Convention : Reuss Voigt Hill
#
# Bulk Modulus (GPa) = 58.80753 65.59897 62.20325
# Shear Modulus (GPa) = 32.13332 33.96453 33.04892
#
# Velocity S-wave (km/s) = 3.95037 4.06137 4.00625
# Velocity P-wave (km/s) = 7.02615 7.33831 7.18393
#
# Compressibility (1/GPa) = 0.01700463
#
# Stress axis : x y z
#
# Youngs Moduli (GPa) = 66.88535 95.78360 118.83794
#
# Poissons Ratio (x) = 0.20152 0.40914
# Poissons Ratio (y) = 0.14072 0.33916
# Poissons Ratio (z) = 0.23027 0.27336
#
# Static dielectric constant tensor:
#      x y z
#    x 1.721870 0.000000 0.000000 
#    y 0.000000 1.739390 0.000000 
#    z 0.000000 0.000000 1.760290 
# 
# From -- ./inp_files/11805.got.cif
#   From: 2010.05.17/outbox.cif.g08.bks.cpg/sg22_6_cif.got.tgz:11805.got - 2010.06.03 23:40:54.
