data_PCOD9327156
_publ_section_title
;
Structure prediction by ZEFSAII (Michael W. Deem and Ramdas Pophale) SiO2 
 PCOD9327156
Probable space group: F 2 2 2
;
_chemical_formula_sum "Si O2"
_cell_formula_units_Z 96
_cell_length_a 24.400607
_cell_length_b 21.226646
_cell_length_c 9.758752
_cell_angle_alpha 90.000000
_cell_angle_beta 90.000000
_cell_angle_gamma 90.000000
_cell_volume 5054.477746
_symmetry_space_group_name_H-M "F 2 2 2"
_symmetry_group_IT_number 22
_symmetry_cell_setting 'orthorhombic'
loop_
_space_group_symop_operation_xyz
x,y,z
-x,-y,z
x,-y,-z
-x,y,-z
x,1/2+y,1/2+z
-x,1/2-y,1/2+z
x,1/2-y,1/2-z
-x,1/2+y,1/2-z
1/2+x,y,1/2+z
1/2-x,-y,1/2+z
1/2+x,-y,1/2-z
1/2-x,y,1/2-z
1/2+x,1/2+y,z
1/2-x,1/2-y,z
1/2+x,1/2-y,-z
1/2-x,1/2+y,-z
loop_
_atom_site_type_symbol
_atom_site_label
_atom_site_fract_x
_atom_site_fract_y
_atom_site_fract_z
Si Si1 0.835956 0.259520 0.588458
Si Si2 0.786409 0.112208 0.000425
Si Si3 0.620312 0.437431 0.800092
Si Si4 0.937342 0.343248 0.512040
Si Si5 0.661007 0.115827 0.985835
Si Si6 0.373996 0.415869 0.783677
O O1 0.826195 0.250000 0.750000
O O2 0.795087 0.313176 0.531016
O O3 0.896082 0.288794 0.561072
O O4 0.834148 0.191275 0.522093
O O5 0.824795 0.078274 0.887792
O O6 0.723861 0.092302 0.989918
O O7 0.814883 0.096622 0.144841
O O8 0.631328 0.411406 0.648299
O O9 0.610647 0.511477 0.804341
O O10 0.572787 0.398819 0.877116
O O11 0.914604 0.370914 0.368665
O O12 0.000000 0.324550 0.500000
O O13 0.630327 0.097641 0.124068
#
# Coordination Sequence:
#
# PCOD9327156 Si02
#       6
#    16  16  16  16  16  16
#     4  10  20  40  59  87 115 148 204 243 280 350
#     4  10  21  34  59  83 118 168 198 222 278 349
#     4  10  21  37  59  86 118 154 200 235 280 353
#     4  10  22  44  67  82 104 153 200 245 303 352
#     4  12  21  35  57  88 124 157 185 240 292 337
#     4  10  23  38  54  90 122 148 195 246 284 341
#
# _framework density 18.993061999999998
#
# number of rings (size 3 to 8) (size 9 to 14) (size 15 to 20)
#    0.000    2.000    3.333    4.000    0.000    8.667 
#    3.000    4.167    0.000    2.000    0.000    0.000 
#    0.000    0.000    0.000    0.000    0.000    0.000 
#
# Total GULP energy -134041.940746 kJ/mol
# GULP energy per Si atom -5585.080864 kJ/mol
# Density = 1.894983 g / cm^3
# Si number density = 18.993062 Si / 1000 Ang^3
#
#
#
# Elastic Constant Matrix: (Units=GPa)
#
#
# Indices 1 2 3 4 5 6 
#
# 1 54.7656 -12.9911 -0.4656 0.0000 0.0000 0.0000
# 2 -12.9911 44.0078 -10.3678 0.0000 0.0000 0.0000
# 3 -0.4656 -10.3678 92.7940 -0.0001 0.0001 0.0001
# 4 0.0000 0.0000 -0.0001 7.5450 0.0000 0.0001
# 5 0.0000 0.0000 0.0001 0.0000 5.3069 -0.0001
# 6 0.0000 0.0000 0.0001 0.0001 -0.0001 0.8072
#
#
#
# Elastic Compliance Matrix: (Units=1/GPa)
#
#
# Indices 1 2 3 4 5 6 
#
# 1 0.019688 0.005993 0.000768 0.000000 0.000000 -0.000001
# 2 0.005993 0.025162 0.002841 0.000000 0.000000 -0.000001
# 3 0.000768 0.002841 0.011098 0.000000 0.000000 -0.000002
# 4 0.000000 0.000000 0.000000 0.132539 -0.000001 -0.000009
# 5 0.000000 0.000000 0.000000 -0.000001 0.188434 0.000015
# 6 -0.000001 -0.000001 -0.000002 -0.000009 0.000015 1.238840
#
#
# Mechanical properties :
#
#
# Convention : Reuss Voigt Hill
#
# Bulk Modulus (GPa) = 13.30631 15.99096 14.64863
# Shear Modulus (GPa) = 3.08336 17.09128 10.08732
#
# Velocity S-wave (km/s) = 1.27552 3.00304 2.30707
# Velocity P-wave (km/s) = 3.03156 4.52349 3.85047
#
# Compressibility (1/GPa) = 0.07515231
#
# Stress axis : x y z
#
# Youngs Moduli (GPa) = 50.79308 39.74297 90.10734
#
# Poissons Ratio (x) = -0.23817 -0.06923
# Poissons Ratio (y) = -0.30439 -0.25603
# Poissons Ratio (z) = -0.03903 -0.11292
#
# Static dielectric constant tensor:
#      x y z
#    x 1.642390 0.000000 0.000000 
#    y 0.000000 1.685100 0.000000 
#    z 0.000000 0.000000 1.653600 
# 
# From -- ./inp_files/12829.got.cif
#   From: 2010.05.17/outbox.cif.g08.bks.cpg/sg22_7_cif.got.tgz:12829.got - 2010.06.03 23:40:54.
