data_PCOD9327338
_publ_section_title
;
Structure prediction by ZEFSAII (Michael W. Deem and Ramdas Pophale) SiO2 
 PCOD9327338
Probable space group: F 2 2 2
;
_chemical_formula_sum "Si O2"
_cell_formula_units_Z 88
_cell_length_a 20.390495
_cell_length_b 15.819416
_cell_length_c 11.693709
_cell_angle_alpha 90.000000
_cell_angle_beta 90.000000
_cell_angle_gamma 90.000000
_cell_volume 3771.989696
_symmetry_space_group_name_H-M "F 2 2 2"
_symmetry_group_IT_number 22
_symmetry_cell_setting 'orthorhombic'
loop_
_space_group_symop_operation_xyz
x,y,z
-x,-y,z
x,-y,-z
-x,y,-z
x,1/2+y,1/2+z
-x,1/2-y,1/2+z
x,1/2-y,1/2-z
-x,1/2+y,1/2-z
1/2+x,y,1/2+z
1/2-x,-y,1/2+z
1/2+x,-y,1/2-z
1/2-x,y,1/2-z
1/2+x,1/2+y,z
1/2-x,1/2-y,z
1/2+x,1/2-y,-z
1/2-x,1/2+y,-z
loop_
_atom_site_type_symbol
_atom_site_label
_atom_site_fract_x
_atom_site_fract_y
_atom_site_fract_z
Si Si1 0.879339 0.275542 0.005598
Si Si2 0.688652 0.864579 0.667089
Si Si3 0.058871 0.847457 0.289487
Si Si4 0.686529 0.656100 0.305532
Si Si5 0.148249 0.000000 0.000000
Si Si6 0.930443 0.626175 0.344706
O O1 0.838233 0.215088 0.092160
O O2 0.929731 0.334749 0.074952
O O3 0.823711 0.328589 0.938602
O O4 0.919037 0.215640 0.914274
O O5 0.750000 0.849731 0.750000
O O6 0.626451 0.886466 0.746130
O O7 0.693803 0.941904 0.579380
O O8 0.053844 0.750000 0.250000
O O9 0.000086 0.886651 0.215310
O O10 0.687228 0.750000 0.250000
O O11 0.750000 0.613110 0.250000
O O12 0.620173 0.618400 0.259175
O O13 0.097900 0.060075 0.066466
#
# Coordination Sequence:
#
# PCOD9327338 Si02
#       6
#    16  16  16  16   8  16
#     4   9  20  37  61  91 130 160 193 263 327 367
#     4  10  23  40  60  88 121 165 214 254 307 379
#     4  10  21  35  59  93 123 154 197 255 323 380
#     4   9  18  32  56  91 125 159 202 250 309 374
#     4  10  24  43  64  84 122 171 214 260 298 355
#     4  10  21  37  60  92 123 162 210 248 302 378
#
# _framework density 23.329863
#
# number of rings (size 3 to 8) (size 9 to 14) (size 15 to 20)
#    0.000    2.364    0.000    1.636    0.000   22.909 
#    0.000    2.727    0.000    0.000    0.000   10.182 
#    0.000    0.000    0.000    0.000    0.000    0.000 
#
# Total GULP energy -122692.563957 kJ/mol
# GULP energy per Si atom -5576.934725 kJ/mol
# Density = 2.327676 g / cm^3
# Si number density = 23.329863 Si / 1000 Ang^3
#
#
#
# Elastic Constant Matrix: (Units=GPa)
#
#
# Indices 1 2 3 4 5 6 
#
# 1 166.7435 6.4649 72.2474 0.0000 0.0000 0.0000
# 2 6.4649 36.6184 30.3013 0.0000 0.0000 0.0000
# 3 72.2474 30.3013 144.2439 0.0000 0.0000 0.0000
# 4 0.0000 0.0000 0.0000 28.6488 0.0000 0.0000
# 5 0.0000 0.0000 0.0000 0.0000 9.7644 0.0000
# 6 0.0000 0.0000 0.0000 0.0000 0.0000 17.5725
#
#
#
# Elastic Compliance Matrix: (Units=1/GPa)
#
#
# Indices 1 2 3 4 5 6 
#
# 1 0.007810 0.002249 -0.004384 0.000000 0.000000 0.000000
# 2 0.002249 0.033702 -0.008206 0.000000 0.000000 0.000000
# 3 -0.004384 -0.008206 0.010852 0.000000 0.000000 0.000000
# 4 0.000000 0.000000 0.000000 0.034905 0.000000 0.000000
# 5 0.000000 0.000000 0.000000 0.000000 0.102413 0.000000
# 6 0.000000 0.000000 0.000000 0.000000 0.000000 0.056907
#
#
# Mechanical properties :
#
#
# Convention : Reuss Voigt Hill
#
# Bulk Modulus (GPa) = 31.56407 62.84812 47.20610
# Shear Modulus (GPa) = 17.99644 27.10329 22.54987
#
# Velocity S-wave (km/s) = 2.78041 3.41213 3.11234
# Velocity P-wave (km/s) = 4.88532 6.52081 5.76139
#
# Compressibility (1/GPa) = 0.03168159
#
# Stress axis : x y z
#
# Youngs Moduli (GPa) = 128.04809 29.67161 92.14539
#
# Poissons Ratio (x) = -0.06673 0.40397
# Poissons Ratio (y) = -0.28798 0.75617
# Poissons Ratio (z) = 0.56136 0.24349
#
# Static dielectric constant tensor:
#      x y z
#    x 1.951160 0.000000 0.000000 
#    y 0.000000 1.951360 0.000000 
#    z 0.000000 0.000000 1.625650 
# 
# From -- ./inp_files/22630.got.cif
#   From: 2010.05.17/outbox.cif.g08.bks.cpg/sg22_12_cif.got.tgz:22630.got - 2010.06.03 23:40:54.
