data_PCOD9327760
_publ_section_title
;
Structure prediction by ZEFSAII (Michael W. Deem and Ramdas Pophale) SiO2 
 PCOD9327760
Probable space group: F 2 2 2
;
_chemical_formula_sum "Si O2"
_cell_formula_units_Z 104
_cell_length_a 25.414419
_cell_length_b 8.890473
_cell_length_c 20.578167
_cell_angle_alpha 90.000000
_cell_angle_beta 90.000000
_cell_angle_gamma 90.000000
_cell_volume 4649.558759
_symmetry_space_group_name_H-M "F 2 2 2"
_symmetry_group_IT_number 22
_symmetry_cell_setting 'orthorhombic'
loop_
_space_group_symop_operation_xyz
x,y,z
-x,-y,z
x,-y,-z
-x,y,-z
x,1/2+y,1/2+z
-x,1/2-y,1/2+z
x,1/2-y,1/2-z
-x,1/2+y,1/2-z
1/2+x,y,1/2+z
1/2-x,-y,1/2+z
1/2+x,-y,1/2-z
1/2-x,y,1/2-z
1/2+x,1/2+y,z
1/2-x,1/2-y,z
1/2+x,1/2-y,-z
1/2-x,1/2+y,-z
loop_
_atom_site_type_symbol
_atom_site_label
_atom_site_fract_x
_atom_site_fract_y
_atom_site_fract_z
Si Si1 0.079360 0.872698 0.547290
Si Si2 0.142143 0.438930 0.843312
Si Si3 0.858867 0.409235 0.715041
Si Si4 0.054093 0.420328 0.390876
Si Si5 0.131792 0.824419 0.061010
Si Si6 0.246493 0.423047 0.361553
Si Si7 0.774862 0.000000 0.000000
O O1 0.042915 0.738286 0.573483
O O2 0.117726 0.783616 0.498803
O O3 0.056330 0.000000 0.500000
O O4 0.111607 0.949398 0.606406
O O5 0.124536 0.472545 0.770337
O O6 0.133554 0.275751 0.874179
O O7 0.204203 0.479017 0.839104
O O8 0.846079 0.250000 0.750000
O O9 0.908250 0.381646 0.668816
O O10 0.809685 0.464950 0.670731
O O11 0.089818 0.541010 0.430609
O O12 0.000000 0.500000 0.373871
O O13 0.187835 0.888096 0.040004
O O14 0.250000 0.250000 0.341577
O O15 0.253883 0.424560 0.439969
#
# Coordination Sequence:
#
# PCOD9327760 Si02
#       7
#    16  16  16  16  16  16   8
#     4  10  21  43  72 105 140 181 234 299 359 435
#     4  11  25  41  71 103 147 187 239 294 359 440
#     4  12  23  48  71  99 141 190 253 303 360 435
#     4  12  25  48  75 102 134 194 242 303 386 443
#     4  11  23  45  64 101 147 182 226 303 366 435
#     4  12  24  39  71 102 137 197 237 292 363 446
#     4  12  24  40  65  98 152 174 243 280 372 442
#
# _framework density 22.367713999999999
#
# number of rings (size 3 to 8) (size 9 to 14) (size 15 to 20)
#    0.000    0.615    6.154    1.385    5.385    1.846 
#    2.769    5.385    3.385    0.000    0.000    0.000 
#    0.000    0.000    0.000    0.000    0.000    0.000 
#
# Total GULP energy -145238.728343 kJ/mol
# GULP energy per Si atom -5586.104936 kJ/mol
# Density = 2.231680 g / cm^3
# Si number density = 22.367714 Si / 1000 Ang^3
#
#
#
# Elastic Constant Matrix: (Units=GPa)
#
#
# Indices 1 2 3 4 5 6 
#
# 1 74.6322 15.8776 14.1882 0.0000 0.0000 0.0000
# 2 15.8776 109.9666 36.0948 0.0000 0.0000 0.0000
# 3 14.1882 36.0948 126.9444 0.0000 0.0000 0.0000
# 4 0.0000 0.0000 0.0000 41.8583 0.0000 0.0000
# 5 0.0000 0.0000 0.0000 0.0000 33.1489 0.0000
# 6 0.0000 0.0000 0.0000 0.0000 0.0000 9.7583
#
#
#
# Elastic Compliance Matrix: (Units=1/GPa)
#
#
# Indices 1 2 3 4 5 6 
#
# 1 0.013959 -0.001658 -0.001089 0.000000 0.000000 0.000000
# 2 -0.001658 0.010227 -0.002722 0.000000 0.000000 0.000000
# 3 -0.001089 -0.002722 0.008773 0.000000 0.000000 0.000000
# 4 0.000000 0.000000 0.000000 0.023890 0.000000 0.000000
# 5 0.000000 0.000000 0.000000 0.000000 0.030167 0.000000
# 6 0.000000 0.000000 0.000000 0.000000 0.000000 0.102477
#
#
# Mechanical properties :
#
#
# Convention : Reuss Voigt Hill
#
# Bulk Modulus (GPa) = 45.41293 49.31827 47.36560
# Shear Modulus (GPa) = 24.06490 33.31193 28.68841
#
# Velocity S-wave (km/s) = 3.28361 3.86331 3.58520
# Velocity P-wave (km/s) = 5.89263 6.48051 6.19355
#
# Compressibility (1/GPa) = 0.02202016
#
# Stress axis : x y z
#
# Youngs Moduli (GPa) = 71.63961 97.78331 113.98295
#
# Poissons Ratio (x) = 0.16214 0.12409
# Poissons Ratio (y) = 0.11879 0.31032
# Poissons Ratio (z) = 0.07799 0.26621
#
# Static dielectric constant tensor:
#      x y z
#    x 1.796950 0.000000 0.000000 
#    y 0.000000 1.846560 0.000000 
#    z 0.000000 0.000000 1.875780 
# 
# From -- ./inp_files/45782.got.cif
#   From: 2010.05.17/outbox.cif.g08.bks.cpg/sg22_23_cif.got.tgz:45782.got - 2010.06.03 23:40:54.
