data_PCOD9327254
_publ_section_title
;
Structure prediction by ZEFSAII (Michael W. Deem and Ramdas Pophale) SiO2 
 PCOD9327254
Probable space group: F 2 2 2
;
_chemical_formula_sum "Si O2"
_cell_formula_units_Z 64
_cell_length_a 12.987563
_cell_length_b 14.323339
_cell_length_c 14.541645
_cell_angle_alpha 90.000000
_cell_angle_beta 90.000000
_cell_angle_gamma 90.000000
_cell_volume 2705.113403
_symmetry_space_group_name_H-M "F 2 2 2"
_symmetry_group_IT_number 22
_symmetry_cell_setting 'orthorhombic'
loop_
_space_group_symop_operation_xyz
x,y,z
-x,-y,z
x,-y,-z
-x,y,-z
x,1/2+y,1/2+z
-x,1/2-y,1/2+z
x,1/2-y,1/2-z
-x,1/2+y,1/2-z
1/2+x,y,1/2+z
1/2-x,-y,1/2+z
1/2+x,-y,1/2-z
1/2-x,y,1/2-z
1/2+x,1/2+y,z
1/2-x,1/2-y,z
1/2+x,1/2-y,-z
1/2-x,1/2+y,-z
loop_
_atom_site_type_symbol
_atom_site_label
_atom_site_fract_x
_atom_site_fract_y
_atom_site_fract_z
Si Si1 0.634871 0.500000 0.000000
Si Si2 0.187363 0.347549 0.833237
Si Si3 0.791028 0.855959 0.457967
Si Si4 0.945535 0.153574 0.706484
Si Si5 0.000000 0.500000 0.655517
O O1 0.697483 0.574282 0.058902
O O2 0.570548 0.446497 0.079992
O O3 0.250000 0.397487 0.750000
O O4 0.250000 0.250000 0.841881
O O5 0.068239 0.335435 0.808334
O O6 0.183655 0.384966 0.936822
O O7 0.750000 0.750000 0.454379
O O8 0.883909 0.866389 0.386831
O O9 0.905537 0.250000 0.750000
O O10 0.939457 0.069125 0.778151
#
# Coordination Sequence:
#
# PCOD9327254 Si02
#       5
#     8  16  16  16   8
#     4  11  26  50  69 104 146 198 253 302 373 450
#     4  10  20  42  72 106 137 190 236 297 366 435
#     4  11  26  45  74 106 148 191 244 310 372 440
#     4  12  25  46  73 108 146 189 247 307 372 444
#     4  11  28  46  73 102 146 202 249 302 373 450
#
# _framework density 23.658895999999999
#
# number of rings (size 3 to 8) (size 9 to 14) (size 15 to 20)
#    0.000    1.000    2.500    3.750    7.000    3.500 
#    0.000    0.000    0.000    0.000    0.000    0.000 
#    0.000    0.000    0.000    0.000    0.000    0.000 
#
# Total GULP energy -89338.885497 kJ/mol
# GULP energy per Si atom -5583.680344 kJ/mol
# Density = 2.360505 g / cm^3
# Si number density = 23.658896 Si / 1000 Ang^3
#
#
#
# Elastic Constant Matrix: (Units=GPa)
#
#
# Indices 1 2 3 4 5 6 
#
# 1 115.6158 12.3964 88.9026 0.0000 0.0000 0.0000
# 2 12.3964 83.5106 39.1785 0.0000 0.0000 0.0000
# 3 88.9026 39.1785 234.3292 0.0000 0.0000 0.0000
# 4 0.0000 0.0000 0.0000 26.2368 0.0000 0.0000
# 5 0.0000 0.0000 0.0000 0.0000 67.8311 0.0000
# 6 0.0000 0.0000 0.0000 0.0000 0.0000 23.5764
#
#
#
# Elastic Compliance Matrix: (Units=1/GPa)
#
#
# Indices 1 2 3 4 5 6 
#
# 1 0.012224 0.000392 -0.004703 0.000000 0.000000 0.000000
# 2 0.000392 0.013006 -0.002323 0.000000 0.000000 0.000000
# 3 -0.004703 -0.002323 0.006440 0.000000 0.000000 0.000000
# 4 0.000000 0.000000 0.000000 0.038114 0.000000 0.000000
# 5 0.000000 0.000000 0.000000 0.000000 0.014743 0.000000
# 6 0.000000 0.000000 0.000000 0.000000 0.000000 0.042415
#
#
# Mechanical properties :
#
#
# Convention : Reuss Voigt Hill
#
# Bulk Modulus (GPa) = 54.34369 79.37895 66.86132
# Shear Modulus (GPa) = 34.16579 43.06074 38.61327
#
# Velocity S-wave (km/s) = 3.80425 4.27085 4.04429
# Velocity P-wave (km/s) = 6.50507 7.61213 7.08027
#
# Compressibility (1/GPa) = 0.01840140
#
# Stress axis : x y z
#
# Youngs Moduli (GPa) = 81.80780 76.88578 155.27305
#
# Poissons Ratio (x) = -0.03013 0.73027
# Poissons Ratio (y) = -0.03206 0.36074
# Poissons Ratio (z) = 0.38475 0.17863
#
# Static dielectric constant tensor:
#      x y z
#    x 2.034160 0.000000 0.000000 
#    y 0.000000 1.920850 0.000000 
#    z 0.000000 0.000000 1.918680 
# 
# From -- ./inp_files/27819.got.cif
#   From: 2010.05.17/outbox.cif.g08.bks.cpg/sg22_14_cif.got.tgz:27819.got - 2010.06.03 23:40:54.
