data_PCOD9327027
_publ_section_title
;
Structure prediction by ZEFSAII (Michael W. Deem and Ramdas Pophale) SiO2 
 PCOD9327027
Probable space group: F 2 2 2
;
_chemical_formula_sum "Si O2"
_cell_formula_units_Z 116
_cell_length_a 7.991077
_cell_length_b 23.873046
_cell_length_c 29.504670
_cell_angle_alpha 90.000000
_cell_angle_beta 90.000000
_cell_angle_gamma 90.000000
_cell_volume 5628.645692
_symmetry_space_group_name_H-M "F 2 2 2"
_symmetry_group_IT_number 22
_symmetry_cell_setting 'orthorhombic'
loop_
_space_group_symop_operation_xyz
x,y,z
-x,-y,z
x,-y,-z
-x,y,-z
x,1/2+y,1/2+z
-x,1/2-y,1/2+z
x,1/2-y,1/2-z
-x,1/2+y,1/2-z
1/2+x,y,1/2+z
1/2-x,-y,1/2+z
1/2+x,-y,1/2-z
1/2-x,y,1/2-z
1/2+x,1/2+y,z
1/2-x,1/2-y,z
1/2+x,1/2-y,-z
1/2-x,1/2+y,-z
loop_
_atom_site_type_symbol
_atom_site_label
_atom_site_fract_x
_atom_site_fract_y
_atom_site_fract_z
Si Si1 0.250000 0.750000 0.750000
Si Si2 0.929906 0.104300 0.952301
Si Si3 0.081397 0.784318 0.896891
Si Si4 0.140923 0.034924 0.881082
Si Si5 0.361922 0.632646 0.383043
Si Si6 0.872921 0.794082 0.535559
Si Si7 0.384520 0.452677 0.429856
Si Si8 0.561499 0.266901 0.314875
O O1 0.395822 0.723244 0.716705
O O2 0.893578 0.155152 0.918267
O O3 0.753227 0.074497 0.961880
O O4 0.049794 0.060219 0.926302
O O5 0.000000 0.124535 0.000000
O O6 0.250000 0.750000 0.889321
O O7 0.977518 0.746794 0.931970
O O8 0.986326 0.783760 0.849093
O O9 0.230934 0.089333 0.861593
O O10 0.279715 0.989422 0.893777
O O11 0.000000 0.000000 0.854932
O O12 0.290818 0.663444 0.428569
O O13 0.510883 0.595211 0.404230
O O14 0.417602 0.678732 0.347045
O O15 0.750000 0.750000 0.511235
O O16 0.000000 0.821132 0.500000
O O17 0.500000 0.500000 0.451304
O O18 0.750000 0.250000 0.297774
#
# Coordination Sequence:
#
# PCOD9327027 Si02
#       8
#     4  16  16  16  16  16  16  16
#     4  12  26  44  68 106 140 168 206 244 328 402
#     4  11  21  34  54  80 117 166 220 266 318 371
#     4  11  21  36  58  88 121 163 206 258 311 384
#     4   9  19  35  54  81 120 155 214 262 314 359
#     4  10  20  38  59  86 120 166 210 256 323 377
#     4  11  22  34  49  76 114 161 214 266 315 373
#     4   9  20  36  54  77 113 151 213 269 323 362
#     4  11  23  42  67  97 140 168 201 257 315 400
#
# _framework density 20.608865999999999
#
# number of rings (size 3 to 8) (size 9 to 14) (size 15 to 20)
#    0.000    1.655    0.690    6.000    0.000    5.793 
#    0.000    6.207    0.000    0.828    0.000    0.000 
#   49.655    0.000    0.000    0.000    0.000    0.000 
#
# Total GULP energy -161681.881893 kJ/mol
# GULP energy per Si atom -5575.237307 kJ/mol
# Density = 2.056196 g / cm^3
# Si number density = 20.608866 Si / 1000 Ang^3
#
#
#
# Elastic Constant Matrix: (Units=GPa)
#
#
# Indices 1 2 3 4 5 6 
#
# 1 121.1885 43.6398 30.9859 0.0000 0.0000 0.0000
# 2 43.6398 110.4035 32.6545 0.0000 0.0000 0.0000
# 3 30.9859 32.6545 69.5707 0.0000 0.0000 0.0000
# 4 0.0000 0.0000 0.0000 0.7092 0.0000 0.0000
# 5 0.0000 0.0000 0.0000 0.0000 24.3492 0.0000
# 6 0.0000 0.0000 0.0000 0.0000 0.0000 42.6916
#
#
#
# Elastic Compliance Matrix: (Units=1/GPa)
#
#
# Indices 1 2 3 4 5 6 
#
# 1 0.010154 -0.003107 -0.003064 0.000000 0.000000 0.000000
# 2 -0.003107 0.011469 -0.003999 0.000000 0.000000 0.000000
# 3 -0.003064 -0.003999 0.017616 0.000000 0.000000 0.000000
# 4 0.000000 0.000000 0.000000 1.410128 0.000000 0.000000
# 5 0.000000 0.000000 0.000000 0.000000 0.041069 0.000000
# 6 0.000000 0.000000 0.000000 0.000000 0.000000 0.023424
#
#
# Mechanical properties :
#
#
# Convention : Reuss Voigt Hill
#
# Bulk Modulus (GPa) = 52.91722 57.30258 55.10990
# Shear Modulus (GPa) = 3.24570 26.47549 14.86059
#
# Velocity S-wave (km/s) = 1.25631 3.58811 2.68820
# Velocity P-wave (km/s) = 5.27609 6.71053 6.03607
#
# Compressibility (1/GPa) = 0.01889744
#
# Stress axis : x y z
#
# Youngs Moduli (GPa) = 98.48361 87.19306 56.76795
#
# Poissons Ratio (x) = 0.27094 0.17393
# Poissons Ratio (y) = 0.30603 0.22702
# Poissons Ratio (z) = 0.30175 0.34870
#
# Static dielectric constant tensor:
#      x y z
#    x 1.899700 0.000000 0.000000 
#    y 0.000000 1.765000 0.000000 
#    z 0.000000 0.000000 1.710960 
# 
# From -- ./inp_files/55676.got.cif
#   From: 2010.05.17/outbox.cif.g08.bks.cpg/sg22_28_cif.got.tgz:55676.got - 2010.06.03 23:40:54.
