data_PCOD9327119
_publ_section_title
;
Structure prediction by ZEFSAII (Michael W. Deem and Ramdas Pophale) SiO2 
 PCOD9327119
Probable space group: F 2 2 2
;
_chemical_formula_sum "Si O2"
_cell_formula_units_Z 96
_cell_length_a 28.167771
_cell_length_b 10.239124
_cell_length_c 17.359871
_cell_angle_alpha 90.000000
_cell_angle_beta 90.000000
_cell_angle_gamma 90.000000
_cell_volume 5006.817684
_symmetry_space_group_name_H-M "F 2 2 2"
_symmetry_group_IT_number 22
_symmetry_cell_setting 'orthorhombic'
loop_
_space_group_symop_operation_xyz
x,y,z
-x,-y,z
x,-y,-z
-x,y,-z
x,1/2+y,1/2+z
-x,1/2-y,1/2+z
x,1/2-y,1/2-z
-x,1/2+y,1/2-z
1/2+x,y,1/2+z
1/2-x,-y,1/2+z
1/2+x,-y,1/2-z
1/2-x,y,1/2-z
1/2+x,1/2+y,z
1/2-x,1/2-y,z
1/2+x,1/2-y,-z
1/2-x,1/2+y,-z
loop_
_atom_site_type_symbol
_atom_site_label
_atom_site_fract_x
_atom_site_fract_y
_atom_site_fract_z
Si Si1 0.902005 0.731251 0.604343
Si Si2 0.640653 0.988295 0.092371
Si Si3 0.241148 0.899458 0.658839
Si Si4 0.164358 0.496174 0.407752
Si Si5 0.998969 0.347006 0.680663
Si Si6 0.589803 0.723708 0.080596
O O1 0.862437 0.623323 0.622809
O O2 0.911512 0.719075 0.512309
O O3 0.949935 0.697293 0.648787
O O4 0.881750 0.875369 0.619306
O O5 0.689454 0.949533 0.134311
O O6 0.603253 0.870985 0.103197
O O7 0.649997 0.000000 0.000000
O O8 0.250000 0.901743 0.750000
O O9 0.250000 0.750000 0.631992
O O10 0.282682 0.984625 0.621948
O O11 0.165753 0.500000 0.500000
O O12 0.131986 0.370086 0.389179
O O13 0.986246 0.250000 0.750000
O O14 0.959194 0.326422 0.615379
O O15 0.000000 0.500000 0.702588
#
# Coordination Sequence:
#
# PCOD9327119 Si02
#       6
#    16  16  16  16  16  16
#     4  10  23  41  66  94 119 159 211 265 308 355
#     4  10  22  41  63  94 127 159 207 264 310 361
#     4  11  23  38  61  91 125 166 206 248 310 382
#     4  10  20  39  64  90 117 158 211 255 303 359
#     4  12  27  42  62  93 129 166 205 253 312 380
#     4  10  21  41  69  89 119 164 210 258 307 360
#
# _framework density 19.173856000000001
#
# number of rings (size 3 to 8) (size 9 to 14) (size 15 to 20)
#    0.000    1.500    3.333    1.000    2.333    4.000 
#    0.000    3.333    0.000    0.000    0.000    0.000 
#    0.000    0.000    0.000    0.000    0.000    0.000 
#
# Total GULP energy -134102.474459 kJ/mol
# GULP energy per Si atom -5587.603102 kJ/mol
# Density = 1.913022 g / cm^3
# Si number density = 19.173856 Si / 1000 Ang^3
#
#
#
# Elastic Constant Matrix: (Units=GPa)
#
#
# Indices 1 2 3 4 5 6 
#
# 1 84.0881 30.1218 13.4527 0.0000 0.0000 0.0000
# 2 30.1218 146.3824 23.7444 0.0000 0.0000 0.0000
# 3 13.4527 23.7444 14.5765 0.0000 0.0000 0.0000
# 4 0.0000 0.0000 0.0000 17.4242 0.0000 0.0000
# 5 0.0000 0.0000 0.0000 0.0000 -23.3114 0.0000
# 6 0.0000 0.0000 0.0000 0.0000 0.0000 33.6180
#
#
#
# Elastic Compliance Matrix: (Units=1/GPa)
#
#
# Indices 1 2 3 4 5 6 
#
# 1 0.014075 -0.001073 -0.011243 0.000000 0.000000 0.000000
# 2 -0.001073 0.009366 -0.014268 0.000000 0.000000 0.000000
# 3 -0.011243 -0.014268 0.102221 0.000000 0.000000 0.000000
# 4 0.000000 0.000000 0.000000 0.057391 0.000000 0.000000
# 5 0.000000 0.000000 0.000000 0.000000 -0.042897 0.000000
# 6 0.000000 0.000000 0.000000 0.000000 0.000000 0.029746
#
#
# Mechanical properties :
#
#
# Convention : Reuss Voigt Hill
#
# Bulk Modulus (GPa) = 13.79380 42.18722 27.99051
# Shear Modulus (GPa) = 20.22378 17.39469 18.80923
#
# Velocity S-wave (km/s) = 3.25123 3.01526 3.13546
# Velocity P-wave (km/s) = 4.61559 5.84573 5.26670
#
# Compressibility (1/GPa) = 0.07249633
#
# Stress axis : x y z
#
# Youngs Moduli (GPa) = 71.04701 106.76387 9.78276
#
# Poissons Ratio (x) = 0.11452 0.10999
# Poissons Ratio (y) = 0.07621 0.13958
# Poissons Ratio (z) = 0.79877 1.52326
#
# Static dielectric constant tensor:
#      x y z
#    x 1.619750 0.000000 0.000000 
#    y 0.000000 1.673740 0.000000 
#    z 0.000000 0.000000 1.694240 
# 
# From -- ./inp_files/45718.got.cif
#   From: 2010.05.17/outbox.cif.g08.bks.cpg/sg22_23_cif.got.tgz:45718.got - 2010.06.03 23:40:54.
