data_PCOD9327241
_publ_section_title
;
Structure prediction by ZEFSAII (Michael W. Deem and Ramdas Pophale) SiO2 
 PCOD9327241
Probable space group: F 2 2 2
;
_chemical_formula_sum "Si O2"
_cell_formula_units_Z 112
_cell_length_a 30.198258
_cell_length_b 12.955355
_cell_length_c 14.318074
_cell_angle_alpha 90.000000
_cell_angle_beta 90.000000
_cell_angle_gamma 90.000000
_cell_volume 5601.647960
_symmetry_space_group_name_H-M "F 2 2 2"
_symmetry_group_IT_number 22
_symmetry_cell_setting 'orthorhombic'
loop_
_space_group_symop_operation_xyz
x,y,z
-x,-y,z
x,-y,-z
-x,y,-z
x,1/2+y,1/2+z
-x,1/2-y,1/2+z
x,1/2-y,1/2-z
-x,1/2+y,1/2-z
1/2+x,y,1/2+z
1/2-x,-y,1/2+z
1/2+x,-y,1/2-z
1/2-x,y,1/2-z
1/2+x,1/2+y,z
1/2-x,1/2-y,z
1/2+x,1/2-y,-z
1/2-x,1/2+y,-z
loop_
_atom_site_type_symbol
_atom_site_label
_atom_site_fract_x
_atom_site_fract_y
_atom_site_fract_z
Si Si1 0.374853 0.408162 0.570609
Si Si2 0.892300 0.437689 0.775091
Si Si3 0.545632 0.056707 0.597007
Si Si4 0.802846 0.753841 0.641009
Si Si5 0.165817 0.883346 0.979915
Si Si6 0.584701 0.763309 0.074582
Si Si7 0.204059 0.868034 0.787371
O O1 0.363184 0.500000 0.500000
O O2 0.395606 0.462125 0.660291
O O3 0.330000 0.348856 0.597107
O O4 0.409793 0.335316 0.516391
O O5 0.920415 0.454079 0.682172
O O6 0.909047 0.338352 0.835914
O O7 0.840638 0.420695 0.750233
O O8 0.544788 0.181169 0.580055
O O9 0.500000 0.000000 0.623304
O O10 0.558162 0.000000 0.500000
O O11 0.814046 0.750000 0.750000
O O12 0.750000 0.750000 0.632084
O O13 0.820189 0.659596 0.579714
O O14 0.127073 0.812316 0.937350
O O15 0.203060 0.874326 0.899667
O O16 0.153529 0.000000 0.000000
O O17 0.202222 0.750000 0.750000
O O18 0.250000 0.914359 0.750000
#
# Coordination Sequence:
#
# PCOD9327241 Si02
#       7
#    16  16  16  16  16  16  16
#     4   9  22  39  67  91 122 174 221 268 330 398
#     4  11  21  42  69  95 132 176 220 274 331 394
#     4  11  24  42  68 100 131 168 219 270 336 408
#     4  10  24  40  53  81 128 173 222 279 331 380
#     4  11  23  38  61  88 122 172 222 275 329 386
#     4  10  20  42  66  95 128 171 210 270 335 390
#     4  11  23  36  62  97 132 178 234 281 328 390
#
# _framework density 19.994116999999999
#
# number of rings (size 3 to 8) (size 9 to 14) (size 15 to 20)
#    0.000    1.571    2.857    0.857    4.000    2.857 
#    0.000    5.714    0.000    3.000    0.000    0.000 
#    0.000    0.000    0.000    0.000    0.000    0.000 
#
# Total GULP energy -156242.544933 kJ/mol
# GULP energy per Si atom -5580.090890 kJ/mol
# Density = 1.994861 g / cm^3
# Si number density = 19.994117 Si / 1000 Ang^3
#
#
#
# Elastic Constant Matrix: (Units=GPa)
#
#
# Indices 1 2 3 4 5 6 
#
# 1 105.3997 47.2628 55.9982 0.0000 0.0000 0.0000
# 2 47.2628 113.6562 51.5341 0.0000 0.0000 0.0000
# 3 55.9982 51.5341 135.1419 0.0000 0.0000 0.0000
# 4 0.0000 0.0000 0.0000 30.6010 0.0000 0.0000
# 5 0.0000 0.0000 0.0000 0.0000 10.2934 0.0000
# 6 0.0000 0.0000 0.0000 0.0000 0.0000 35.0625
#
#
#
# Elastic Compliance Matrix: (Units=1/GPa)
#
#
# Indices 1 2 3 4 5 6 
#
# 1 0.013324 -0.003672 -0.004121 0.000000 0.000000 0.000000
# 2 -0.003672 0.011650 -0.002921 0.000000 0.000000 0.000000
# 3 -0.004121 -0.002921 0.010221 0.000000 0.000000 0.000000
# 4 0.000000 0.000000 0.000000 0.032679 0.000000 0.000000
# 5 0.000000 0.000000 0.000000 0.000000 0.097149 0.000000
# 6 0.000000 0.000000 0.000000 0.000000 0.000000 0.028520
#
#
# Mechanical properties :
#
#
# Convention : Reuss Voigt Hill
#
# Bulk Modulus (GPa) = 72.63632 73.75423 73.19528
# Shear Modulus (GPa) = 22.77294 28.48491 25.62893
#
# Velocity S-wave (km/s) = 3.37854 3.77857 3.58414
# Velocity P-wave (km/s) = 7.18520 7.48364 7.33594
#
# Compressibility (1/GPa) = 0.01376722
#
# Stress axis : x y z
#
# Youngs Moduli (GPa) = 75.05520 85.83790 97.83916
#
# Poissons Ratio (x) = 0.31521 0.40315
# Poissons Ratio (y) = 0.27561 0.28578
# Poissons Ratio (z) = 0.30927 0.25072
#
# Static dielectric constant tensor:
#      x y z
#    x 1.719230 0.000000 0.000000 
#    y 0.000000 1.730910 0.000000 
#    z 0.000000 0.000000 1.691260 
# 
# From -- ./inp_files/33529.got.cif
#   From: 2010.05.17/outbox.cif.g08.bks.cpg/sg22_17_cif.got.tgz:33529.got - 2010.06.03 23:40:54.
