data_PCOD9327050
_publ_section_title
;
Structure prediction by ZEFSAII (Michael W. Deem and Ramdas Pophale) SiO2 
 PCOD9327050
Probable space group: F 2 2 2
;
_chemical_formula_sum "Si O2"
_cell_formula_units_Z 108
_cell_length_a 16.714405
_cell_length_b 13.715709
_cell_length_c 23.359626
_cell_angle_alpha 90.000000
_cell_angle_beta 90.000000
_cell_angle_gamma 90.000000
_cell_volume 5355.192277
_symmetry_space_group_name_H-M "F 2 2 2"
_symmetry_group_IT_number 22
_symmetry_cell_setting 'orthorhombic'
loop_
_space_group_symop_operation_xyz
x,y,z
-x,-y,z
x,-y,-z
-x,y,-z
x,1/2+y,1/2+z
-x,1/2-y,1/2+z
x,1/2-y,1/2-z
-x,1/2+y,1/2-z
1/2+x,y,1/2+z
1/2-x,-y,1/2+z
1/2+x,-y,1/2-z
1/2-x,y,1/2-z
1/2+x,1/2+y,z
1/2-x,1/2-y,z
1/2+x,1/2-y,-z
1/2-x,1/2+y,-z
loop_
_atom_site_type_symbol
_atom_site_label
_atom_site_fract_x
_atom_site_fract_y
_atom_site_fract_z
Si Si1 0.750000 0.066674 0.250000
Si Si2 0.087634 0.017055 0.687813
Si Si3 0.627180 0.688921 0.597479
Si Si4 0.700273 0.117185 0.373918
Si Si5 0.608490 0.124315 0.913406
Si Si6 0.082560 0.790784 0.983403
Si Si7 0.720158 0.565228 0.052247
Si Si8 0.000000 0.500000 0.000000
O O1 0.834327 0.019522 0.271528
O O2 0.723247 0.120600 0.307431
O O3 0.089356 0.111915 0.643346
O O4 0.098220 0.923913 0.647444
O O5 0.000000 0.000000 0.715096
O O6 0.633111 0.801099 0.618234
O O7 0.718380 0.650491 0.594035
O O8 0.596745 0.708140 0.532816
O O9 0.686079 0.008970 0.399139
O O10 0.575849 0.231936 0.924169
O O11 0.703088 0.122864 0.925587
O O12 0.558210 0.057170 0.956859
O O13 0.154167 0.864960 0.975405
O O14 0.000000 0.841022 0.000000
O O15 0.750431 0.500000 0.000000
#
# Coordination Sequence:
#
# PCOD9327050 Si02
#       8
#     8  16  16  16  16  16  16   4
#     4  10  22  43  66  97 126 170 224 275 338 391
#     4  11  22  39  67  97 131 166 219 285 340 385
#     4  10  20  38  62  96 126 162 208 278 333 389
#     4  10  21  39  65  91 124 162 216 269 330 394
#     4  12  21  37  61  98 127 161 207 269 335 385
#     4  12  25  37  57  91 137 177 213 255 315 403
#     4  12  22  38  61  89 130 174 207 255 333 398
#     4  12  20  32  68  96 132 148 192 280 338 380
#
# _framework density 20.167342999999999
#
# number of rings (size 3 to 8) (size 9 to 14) (size 15 to 20)
#    0.000    0.889    6.667    3.111    2.074    5.037 
#    0.000    1.481    0.000    3.556    0.000    0.000 
#    0.000    0.000    0.000    0.000    0.000    0.000 
#
# Total GULP energy -150430.572469 kJ/mol
# GULP energy per Si atom -5571.502684 kJ/mol
# Density = 2.012144 g / cm^3
# Si number density = 20.167343 Si / 1000 Ang^3
#
#
#
# Elastic Constant Matrix: (Units=GPa)
#
#
# Indices 1 2 3 4 5 6 
#
# 1 137.4693 34.4442 23.2512 0.0000 0.0000 0.0000
# 2 34.4442 51.0388 9.9623 0.0000 0.0000 0.0000
# 3 23.2512 9.9623 73.8875 0.0000 0.0000 0.0000
# 4 0.0000 0.0000 0.0000 7.3355 0.0000 0.0000
# 5 0.0000 0.0000 0.0000 0.0000 21.4972 0.0000
# 6 0.0000 0.0000 0.0000 0.0000 0.0000 33.5566
#
#
#
# Elastic Compliance Matrix: (Units=1/GPa)
#
#
# Indices 1 2 3 4 5 6 
#
# 1 0.009056 -0.005705 -0.002080 0.000000 0.000000 0.000000
# 2 -0.005705 0.023717 -0.001402 0.000000 0.000000 0.000000
# 3 -0.002080 -0.001402 0.014378 0.000000 0.000000 0.000000
# 4 0.000000 0.000000 0.000000 0.136323 0.000000 0.000000
# 5 0.000000 0.000000 0.000000 0.000000 0.046518 0.000000
# 6 0.000000 0.000000 0.000000 0.000000 0.000000 0.029800
#
#
# Mechanical properties :
#
#
# Convention : Reuss Voigt Hill
#
# Bulk Modulus (GPa) = 34.75330 44.19012 39.47171
# Shear Modulus (GPa) = 17.37563 25.46039 21.41801
#
# Velocity S-wave (km/s) = 2.93844 3.55696 3.26239
# Velocity P-wave (km/s) = 5.36493 6.23126 5.81425
#
# Compressibility (1/GPa) = 0.02877425
#
# Stress axis : x y z
#
# Youngs Moduli (GPa) = 110.42707 42.16394 69.55142
#
# Poissons Ratio (x) = 0.24056 0.14470
# Poissons Ratio (y) = 0.63002 0.09754
# Poissons Ratio (z) = 0.22974 0.05913
#
# Static dielectric constant tensor:
#      x y z
#    x 1.768130 0.000000 0.000000 
#    y 0.000000 1.765060 0.000000 
#    z 0.000000 0.000000 1.729350 
# 
# From -- ./inp_files/49011.got.cif
#   From: 2010.05.17/outbox.cif.g08.bks.cpg/sg22_25_cif.got.tgz:49011.got - 2010.06.03 23:40:54.
