data_PCOD9327819
_publ_section_title
;
Structure prediction by ZEFSAII (Michael W. Deem and Ramdas Pophale) SiO2 
 PCOD9327819
Probable space group: F 2 2 2
;
_chemical_formula_sum "Si O2"
_cell_formula_units_Z 88
_cell_length_a 23.909727
_cell_length_b 12.141461
_cell_length_c 15.774168
_cell_angle_alpha 90.000000
_cell_angle_beta 90.000000
_cell_angle_gamma 90.000000
_cell_volume 4579.225478
_symmetry_space_group_name_H-M "F 2 2 2"
_symmetry_group_IT_number 22
_symmetry_cell_setting 'orthorhombic'
loop_
_space_group_symop_operation_xyz
x,y,z
-x,-y,z
x,-y,-z
-x,y,-z
x,1/2+y,1/2+z
-x,1/2-y,1/2+z
x,1/2-y,1/2-z
-x,1/2+y,1/2-z
1/2+x,y,1/2+z
1/2-x,-y,1/2+z
1/2+x,-y,1/2-z
1/2-x,y,1/2-z
1/2+x,1/2+y,z
1/2-x,1/2-y,z
1/2+x,1/2-y,-z
1/2-x,1/2+y,-z
loop_
_atom_site_type_symbol
_atom_site_label
_atom_site_fract_x
_atom_site_fract_y
_atom_site_fract_z
Si Si1 0.757173 0.452538 0.088643
Si Si2 0.847820 0.807020 0.363591
Si Si3 0.063936 0.998961 0.601048
Si Si4 0.356684 0.629469 0.290971
Si Si5 0.333796 0.421178 0.193554
Si Si6 0.250000 0.750000 0.992475
O O1 0.800843 0.405944 0.157106
O O2 0.715641 0.538883 0.132093
O O3 0.782501 0.500000 0.000000
O O4 0.725959 0.345126 0.053081
O O5 0.866985 0.681444 0.346635
O O6 0.816944 0.862760 0.282436
O O7 0.801149 0.792900 0.435574
O O8 0.898765 0.890971 0.377405
O O9 0.094710 0.104663 0.641479
O O10 0.063689 0.000000 0.500000
O O11 0.000000 0.000000 0.631438
O O12 0.353936 0.750000 0.250000
O O13 0.363722 0.534498 0.219536
#
# Coordination Sequence:
#
# PCOD9327819 Si02
#       6
#    16  16  16  16  16   8
#     4  12  22  35  55  89 129 171 205 246 309 382
#     4  10  22  38  61  88 120 163 210 259 311 383
#     4  10  22  44  69  90 116 160 218 280 329 379
#     4  11  23  40  59  88 130 171 212 259 319 389
#     4  10  22  37  57  86 123 167 204 251 309 379
#     4  12  22  33  57  90 126 166 204 250 305 388
#
# _framework density 19.217223000000001
#
# number of rings (size 3 to 8) (size 9 to 14) (size 15 to 20)
#    0.000    1.273    1.818    5.455    2.545    1.455 
#    6.545    0.000    0.000    0.000    0.000    2.545 
#    0.000    0.000    0.000    0.000    0.000    0.000 
#
# Total GULP energy -122544.215794 kJ/mol
# GULP energy per Si atom -5570.191627 kJ/mol
# Density = 1.917348 g / cm^3
# Si number density = 19.217223 Si / 1000 Ang^3
#
#
#
# Elastic Constant Matrix: (Units=GPa)
#
#
# Indices 1 2 3 4 5 6 
#
# 1 86.4103 42.8806 39.2782 0.0000 0.0000 0.0000
# 2 42.8806 176.6048 53.3918 0.0000 0.0000 0.0000
# 3 39.2782 53.3918 71.3707 0.0000 0.0000 0.0000
# 4 0.0000 0.0000 0.0000 41.4410 0.0000 0.0000
# 5 0.0000 0.0000 0.0000 0.0000 18.0472 0.0000
# 6 0.0000 0.0000 0.0000 0.0000 0.0000 12.9328
#
#
#
# Elastic Compliance Matrix: (Units=1/GPa)
#
#
# Indices 1 2 3 4 5 6 
#
# 1 0.015758 -0.001556 -0.007508 0.000000 0.000000 0.000000
# 2 -0.001556 0.007471 -0.004732 0.000000 0.000000 0.000000
# 3 -0.007508 -0.004732 0.021684 0.000000 0.000000 0.000000
# 4 0.000000 0.000000 0.000000 0.024131 0.000000 0.000000
# 5 0.000000 0.000000 0.000000 0.000000 0.055410 0.000000
# 6 0.000000 0.000000 0.000000 0.000000 0.000000 0.077323
#
#
# Mechanical properties :
#
#
# Convention : Reuss Voigt Hill
#
# Bulk Modulus (GPa) = 57.74008 67.27633 62.50821
# Shear Modulus (GPa) = 21.26370 27.73987 24.50178
#
# Velocity S-wave (km/s) = 3.33001 3.80345 3.57458
# Velocity P-wave (km/s) = 6.70048 7.37378 7.04518
#
# Compressibility (1/GPa) = 0.01731899
#
# Stress axis : x y z
#
# Youngs Moduli (GPa) = 63.46098 133.85140 46.11783
#
# Poissons Ratio (x) = 0.20831 0.34625
# Poissons Ratio (y) = 0.09876 0.21825
# Poissons Ratio (z) = 0.47646 0.63345
#
# Static dielectric constant tensor:
#      x y z
#    x 1.664200 0.000000 0.000000 
#    y 0.000000 1.778570 0.000000 
#    z 0.000000 0.000000 1.753810 
# 
# From -- ./inp_files/32346.got.cif
#   From: 2010.05.17/outbox.cif.g08.bks.cpg/sg22_17_cif.got.tgz:32346.got - 2010.06.03 23:40:54.
