data_PCOD9327575
_publ_section_title
;
Structure prediction by ZEFSAII (Michael W. Deem and Ramdas Pophale) SiO2 
 PCOD9327575
Probable space group: F 2 2 2
;
_chemical_formula_sum "Si O2"
_cell_formula_units_Z 96
_cell_length_a 29.137157
_cell_length_b 5.569634
_cell_length_c 29.738826
_cell_angle_alpha 90.000000
_cell_angle_beta 90.000000
_cell_angle_gamma 90.000000
_cell_volume 4826.114830
_symmetry_space_group_name_H-M "F 2 2 2"
_symmetry_group_IT_number 22
_symmetry_cell_setting 'orthorhombic'
loop_
_space_group_symop_operation_xyz
x,y,z
-x,-y,z
x,-y,-z
-x,y,-z
x,1/2+y,1/2+z
-x,1/2-y,1/2+z
x,1/2-y,1/2-z
-x,1/2+y,1/2-z
1/2+x,y,1/2+z
1/2-x,-y,1/2+z
1/2+x,-y,1/2-z
1/2-x,y,1/2-z
1/2+x,1/2+y,z
1/2-x,1/2-y,z
1/2+x,1/2-y,-z
1/2-x,1/2+y,-z
loop_
_atom_site_type_symbol
_atom_site_label
_atom_site_fract_x
_atom_site_fract_y
_atom_site_fract_z
Si Si1 0.438627 0.887938 0.548875
Si Si2 0.000000 0.500000 0.085779
Si Si3 0.346853 0.920243 0.948011
Si Si4 0.750000 0.750000 0.470141
Si Si5 0.411511 0.708923 0.384063
Si Si6 0.801683 0.249412 0.695470
Si Si7 0.648580 0.252346 0.196084
O O1 0.482153 0.714879 0.554408
O O2 0.389318 0.759474 0.552081
O O3 0.440144 0.000000 0.500000
O O4 0.434330 0.073277 0.589389
O O5 0.045876 0.527440 0.115049
O O6 0.296155 0.807157 0.941194
O O7 0.366895 0.120152 0.913301
O O8 0.344264 0.000000 0.000000
O O9 0.757922 0.500000 0.500000
O O10 0.396547 0.759526 0.333848
O O11 0.800224 0.250000 0.750000
O O12 0.750000 0.250000 0.678207
O O13 0.824887 0.502411 0.683334
O O14 0.826352 0.999118 0.683642
O O15 0.642193 0.250000 0.250000
#
# Coordination Sequence:
#
# PCOD9327575 Si02
#       7
#    16   8  16   8  16  16  16
#     4  11  22  41  65  92 130 164 215 268 338 390
#     4  10  26  41  62  94 124 164 216 276 335 396
#     4  10  21  40  61  90 127 177 213 264 317 379
#     4  10  22  38  64  88 130 185 227 254 308 372
#     4  11  24  41  65  90 129 167 214 272 328 389
#     4   9  18  37  65  95 128 166 212 266 324 378
#     4  10  22  40  66  95 129 173 212 265 324 380
#
# _framework density 19.891777000000001
#
# number of rings (size 3 to 8) (size 9 to 14) (size 15 to 20)
#    0.000    1.833    1.667    1.500    7.000    4.000 
#    1.500    1.667    3.667    0.000    0.000    0.000 
#    0.000    0.000    0.000    0.000    0.000    0.000 
#
# Total GULP energy -133670.676546 kJ/mol
# GULP energy per Si atom -5569.611523 kJ/mol
# Density = 1.984650 g / cm^3
# Si number density = 19.891777 Si / 1000 Ang^3
#
#
#
# Elastic Constant Matrix: (Units=GPa)
#
#
# Indices 1 2 3 4 5 6 
#
# 1 137.2709 41.2176 33.5401 0.0030 0.0090 -0.0068
# 2 41.2176 115.6984 31.2627 0.0002 0.0263 -0.0090
# 3 33.5401 31.2627 56.0420 0.0008 0.0078 0.0015
# 4 0.0030 0.0002 0.0008 3.6292 0.0225 -0.0077
# 5 0.0090 0.0263 0.0078 0.0225 27.3063 -0.0063
# 6 -0.0068 -0.0090 0.0015 -0.0077 -0.0063 38.0475
#
#
#
# Elastic Compliance Matrix: (Units=1/GPa)
#
#
# Indices 1 2 3 4 5 6 
#
# 1 0.008925 -0.002044 -0.004201 -0.000006 0.000000 0.000001
# 2 -0.002044 0.010646 -0.004715 0.000002 -0.000008 0.000002
# 3 -0.004201 -0.004715 0.022988 -0.000001 -0.000001 -0.000003
# 4 -0.000006 0.000002 -0.000001 0.275542 -0.000227 0.000056
# 5 0.000000 -0.000008 -0.000001 -0.000227 0.036622 0.000006
# 6 0.000001 0.000002 -0.000003 0.000056 0.000006 0.026283
#
#
# Mechanical properties :
#
#
# Convention : Reuss Voigt Hill
#
# Bulk Modulus (GPa) = 48.45439 57.89466 53.17452
# Shear Modulus (GPa) = 12.20090 27.32935 19.76512
#
# Velocity S-wave (km/s) = 2.47931 3.71064 3.15561
# Velocity P-wave (km/s) = 5.71033 6.89394 6.32986
#
# Compressibility (1/GPa) = 0.02063796
#
# Stress axis : x y z
#
# Youngs Moduli (GPa) = 112.04217 93.93622 43.50050
#
# Poissons Ratio (x) = 0.19205 0.18275
# Poissons Ratio (y) = 0.22906 0.20510
# Poissons Ratio (z) = 0.47070 0.44291
#
# Static dielectric constant tensor:
#      x y z
#    x 1.755020 0.000020 -0.000020 
#    y 0.000020 1.854420 -0.000040 
#    z -0.000020 -0.000040 1.745990 
# 
# From -- ./inp_files/57329.got.cif
#   From: 2010.05.17/outbox.cif.g08.bks.cpg/sg22_29_cif.got.tgz:57329.got - 2010.06.03 23:40:54.
