data_PCOD9327034
_publ_section_title
;
Structure prediction by ZEFSAII (Michael W. Deem and Ramdas Pophale) SiO2 
 PCOD9327034
Probable space group: F 2 2 2
;
_chemical_formula_sum "Si O2"
_cell_formula_units_Z 80
_cell_length_a 26.734005
_cell_length_b 12.385790
_cell_length_c 12.385789
_cell_angle_alpha 90.000000
_cell_angle_beta 90.000000
_cell_angle_gamma 90.000000
_cell_volume 4101.204399
_symmetry_space_group_name_H-M "F 2 2 2"
_symmetry_group_IT_number 22
_symmetry_cell_setting 'orthorhombic'
loop_
_space_group_symop_operation_xyz
x,y,z
-x,-y,z
x,-y,-z
-x,y,-z
x,1/2+y,1/2+z
-x,1/2-y,1/2+z
x,1/2-y,1/2-z
-x,1/2+y,1/2-z
1/2+x,y,1/2+z
1/2-x,-y,1/2+z
1/2+x,-y,1/2-z
1/2-x,y,1/2-z
1/2+x,1/2+y,z
1/2-x,1/2-y,z
1/2+x,1/2-y,-z
1/2-x,1/2+y,-z
loop_
_atom_site_type_symbol
_atom_site_label
_atom_site_fract_x
_atom_site_fract_y
_atom_site_fract_z
Si Si1 0.353639 0.150440 0.169429
Si Si2 0.896361 0.580571 0.599560
Si Si3 0.375000 0.680050 0.430051
Si Si4 0.941610 0.504694 0.822943
Si Si5 0.308390 0.072943 0.754694
O O1 0.345548 0.250000 0.250000
O O2 0.411018 0.107410 0.176335
O O3 0.319989 0.047153 0.199509
O O4 0.347056 0.176167 0.043979
O O5 0.904452 0.500000 0.500000
O O6 0.902944 0.706021 0.573832
O O7 0.930011 0.550492 0.702847
O O8 0.838982 0.573665 0.642589
O O9 0.414585 0.584536 0.407704
O O10 0.335415 0.657704 0.334537
O O11 0.000000 0.500000 0.842849
O O12 0.250000 0.092850 0.750000
#
# Coordination Sequence:
#
# PCOD9327034 Si02
#       5
#    16  16  16  16  16
#     4  10  21  38  57  82 116 151 189 240 296 349
#     4  10  21  38  57  82 116 151 189 240 296 349
#     4  10  20  38  60  82 114 152 190 238 294 354
#     4  10  21  37  57  83 113 149 196 240 286 351
#     4  10  21  37  57  83 113 149 196 240 286 351
#
# _framework density 19.506466
#
# number of rings (size 3 to 8) (size 9 to 14) (size 15 to 20)
#    0.000    2.400    0.000    7.200    0.000    7.200 
#    0.000    4.000    0.000    0.000    0.000    0.000 
#    0.000    0.000    0.000    0.000    0.000    0.000 
#
# Total GULP energy -111586.935030 kJ/mol
# GULP energy per Si atom -5579.346752 kJ/mol
# Density = 1.946207 g / cm^3
# Si number density = 19.506466 Si / 1000 Ang^3
#
#
#
# Elastic Constant Matrix: (Units=GPa)
#
#
# Indices 1 2 3 4 5 6 
#
# 1 102.4533 -5.4322 -5.4319 0.0000 0.0000 0.0000
# 2 -5.4322 107.6562 49.6809 0.0000 0.0000 0.0000
# 3 -5.4319 49.6809 107.6549 0.0000 0.0000 0.0000
# 4 0.0000 0.0000 0.0000 35.1301 0.0000 0.0000
# 5 0.0000 0.0000 0.0000 0.0000 4.5749 0.0000
# 6 0.0000 0.0000 0.0000 0.0000 0.0000 4.5748
#
#
#
# Elastic Compliance Matrix: (Units=1/GPa)
#
#
# Indices 1 2 3 4 5 6 
#
# 1 0.009796 0.000338 0.000338 0.000000 0.000000 0.000000
# 2 0.000338 0.011814 -0.005435 0.000000 0.000000 0.000000
# 3 0.000338 -0.005435 0.011814 0.000000 0.000000 0.000000
# 4 0.000000 0.000000 0.000000 0.028466 0.000000 0.000000
# 5 0.000000 0.000000 0.000000 0.000000 0.218584 0.000000
# 6 0.000000 0.000000 0.000000 0.000000 0.000000 0.218588
#
#
# Mechanical properties :
#
#
# Convention : Reuss Voigt Hill
#
# Bulk Modulus (GPa) = 41.82766 43.93311 42.88039
# Shear Modulus (GPa) = 9.67964 27.45248 18.56606
#
# Velocity S-wave (km/s) = 2.23003 3.75554 3.08846
# Velocity P-wave (km/s) = 5.30285 6.43247 5.89478
#
# Compressibility (1/GPa) = 0.02390762
#
# Stress axis : x y z
#
# Youngs Moduli (GPa) = 102.07821 84.64556 84.64451
#
# Poissons Ratio (x) = -0.02863 -0.02863
# Poissons Ratio (y) = -0.03453 0.46003
# Poissons Ratio (z) = -0.03452 0.46004
#
# Static dielectric constant tensor:
#      x y z
#    x 1.657200 0.000000 0.000000 
#    y 0.000000 1.711260 0.000000 
#    z 0.000000 0.000000 1.711260 
# 
# From -- ./inp_files/18268.got.cif
#   From: 2010.05.17/outbox.cif.g08.bks.cpg/sg22_10_cif.got.tgz:18268.got - 2010.06.03 23:40:54.
