data_PCOD9327881
_publ_section_title
;
Structure prediction by ZEFSAII (Michael W. Deem and Ramdas Pophale) SiO2 
 PCOD9327881
Probable space group: F 2 2 2
;
_chemical_formula_sum "Si O2"
_cell_formula_units_Z 104
_cell_length_a 7.180666
_cell_length_b 22.897402
_cell_length_c 27.219065
_cell_angle_alpha 90.000000
_cell_angle_beta 90.000000
_cell_angle_gamma 90.000000
_cell_volume 4475.320453
_symmetry_space_group_name_H-M "F 2 2 2"
_symmetry_group_IT_number 22
_symmetry_cell_setting 'orthorhombic'
loop_
_space_group_symop_operation_xyz
x,y,z
-x,-y,z
x,-y,-z
-x,y,-z
x,1/2+y,1/2+z
-x,1/2-y,1/2+z
x,1/2-y,1/2-z
-x,1/2+y,1/2-z
1/2+x,y,1/2+z
1/2-x,-y,1/2+z
1/2+x,-y,1/2-z
1/2-x,y,1/2-z
1/2+x,1/2+y,z
1/2-x,1/2-y,z
1/2+x,1/2-y,-z
1/2-x,1/2+y,-z
loop_
_atom_site_type_symbol
_atom_site_label
_atom_site_fract_x
_atom_site_fract_y
_atom_site_fract_z
Si Si1 0.500000 0.500000 0.691636
Si Si2 0.704824 0.139946 0.594754
Si Si3 0.205999 0.094450 0.192271
Si Si4 0.287184 0.615351 0.094307
Si Si5 0.220773 0.815608 0.004506
Si Si6 0.778261 0.491358 0.942502
Si Si7 0.733251 0.603527 0.799400
O O1 0.325558 0.538877 0.673090
O O2 0.623644 0.551526 0.714292
O O3 0.760655 0.142910 0.651810
O O4 0.482774 0.148588 0.596896
O O5 0.791363 0.178501 0.551540
O O6 0.729692 0.073578 0.574578
O O7 0.250000 0.103784 0.250000
O O8 0.982096 0.086518 0.189917
O O9 0.196695 0.639396 0.044192
O O10 0.309725 0.545805 0.086671
O O11 0.195400 0.624785 0.147321
O O12 0.250000 0.750000 0.021879
O O13 0.000000 0.828587 0.000000
O O14 0.000000 0.500000 0.936253
O O15 0.731364 0.500000 0.000000
O O16 0.750000 0.642253 0.750000
#
# Coordination Sequence:
#
# PCOD9327881 Si02
#       7
#     8  16  16  16  16  16  16
#     4  12  22  34  54  81 124 161 214 232 300 328
#     4  10  22  39  58  81 118 155 197 235 295 356
#     4  11  23  36  53  81 117 165 204 245 284 350
#     4  10  22  39  58  81 118 155 197 235 295 356
#     4  10  22  43  66  89 113 148 192 254 305 357
#     4  11  22  32  50  84 119 153 191 234 281 351
#     4  11  23  36  53  81 117 165 204 245 284 350
#
# _framework density 23.23856
#
# number of rings (size 3 to 8) (size 9 to 14) (size 15 to 20)
#    0.000    1.385    3.077    2.308    4.308    4.308 
#    0.000    0.000    0.000    0.923    0.000    6.462 
#    0.000    0.000    0.000    0.000    0.000    0.000 
#
# Total GULP energy -144763.651507 kJ/mol
# GULP energy per Si atom -5567.832750 kJ/mol
# Density = 2.318567 g / cm^3
# Si number density = 23.238560 Si / 1000 Ang^3
#
#
#
# Elastic Constant Matrix: (Units=GPa)
#
#
# Indices 1 2 3 4 5 6 
#
# 1 120.9091 -15.4025 -4.7594 0.0000 0.0000 0.0000
# 2 -15.4025 45.5679 24.8487 0.0000 0.0000 0.0000
# 3 -4.7594 24.8487 192.4654 0.0000 0.0000 0.0000
# 4 0.0000 0.0000 0.0000 -61.3840 0.0000 0.0000
# 5 0.0000 0.0000 0.0000 0.0000 4.7908 0.0000
# 6 0.0000 0.0000 0.0000 0.0000 0.0000 8.6284
#
#
#
# Elastic Compliance Matrix: (Units=1/GPa)
#
#
# Indices 1 2 3 4 5 6 
#
# 1 0.008648 0.003019 -0.000176 0.000000 0.000000 0.000000
# 2 0.003019 0.024661 -0.003109 0.000000 0.000000 0.000000
# 3 -0.000176 -0.003109 0.005593 0.000000 0.000000 0.000000
# 4 0.000000 0.000000 0.000000 -0.016291 0.000000 0.000000
# 5 0.000000 0.000000 0.000000 0.000000 0.208735 0.000000
# 6 0.000000 0.000000 0.000000 0.000000 0.000000 0.115897
#
#
# Mechanical properties :
#
#
# Convention : Reuss Voigt Hill
#
# Bulk Modulus (GPa) = 26.06174 40.92400 33.49287
# Shear Modulus (GPa) = 13.86709 14.02407 13.94558
#
# Velocity S-wave (km/s) = 2.44545 2.45925 2.45236
# Velocity P-wave (km/s) = 4.38325 5.07075 4.73948
#
# Compressibility (1/GPa) = 0.03837042
#
# Stress axis : x y z
#
# Youngs Moduli (GPa) = 115.62879 40.54934 178.80060
#
# Poissons Ratio (x) = -0.12243 0.03146
# Poissons Ratio (y) = -0.34911 0.55595
# Poissons Ratio (z) = 0.02034 0.12608
#
# Static dielectric constant tensor:
#      x y z
#    x 2.476400 0.000000 0.000000 
#    y 0.000000 1.826050 0.000000 
#    z 0.000000 0.000000 2.060640 
# 
# From -- ./inp_files/52099.got.cif
#   From: 2010.05.17/outbox.cif.g08.bks.cpg/sg22_27_cif.got.tgz:52099.got - 2010.06.03 23:40:54.
