data_PCOD9327005
_publ_section_title
;
Structure prediction by ZEFSAII (Michael W. Deem and Ramdas Pophale) SiO2 
 PCOD9327005
Probable space group: F 2 2 2
;
_chemical_formula_sum "Si O2"
_cell_formula_units_Z 80
_cell_length_a 11.700292
_cell_length_b 13.944567
_cell_length_c 23.096360
_cell_angle_alpha 90.000000
_cell_angle_beta 90.000000
_cell_angle_gamma 90.000000
_cell_volume 3768.298296
_symmetry_space_group_name_H-M "F 2 2 2"
_symmetry_group_IT_number 22
_symmetry_cell_setting 'orthorhombic'
loop_
_space_group_symop_operation_xyz
x,y,z
-x,-y,z
x,-y,-z
-x,y,-z
x,1/2+y,1/2+z
-x,1/2-y,1/2+z
x,1/2-y,1/2-z
-x,1/2+y,1/2-z
1/2+x,y,1/2+z
1/2-x,-y,1/2+z
1/2+x,-y,1/2-z
1/2-x,y,1/2-z
1/2+x,1/2+y,z
1/2-x,1/2-y,z
1/2+x,1/2-y,-z
1/2-x,1/2+y,-z
loop_
_atom_site_type_symbol
_atom_site_label
_atom_site_fract_x
_atom_site_fract_y
_atom_site_fract_z
Si Si1 0.955786 0.602992 0.132572
Si Si2 0.631731 0.188788 0.982428
Si Si3 0.433941 0.636450 0.761651
Si Si4 0.309004 0.852658 0.103178
Si Si5 0.169649 0.542400 0.303554
O O1 0.881675 0.646209 0.081510
O O2 0.912427 0.593293 0.197531
O O3 0.000000 0.500000 0.113217
O O4 0.072910 0.662847 0.137384
O O5 0.750000 0.250000 0.979884
O O6 0.500000 0.227122 0.000000
O O7 0.657902 0.120304 0.037410
O O8 0.420374 0.750000 0.750000
O O9 0.555745 0.603419 0.788028
O O10 0.352460 0.572280 0.802320
O O11 0.250000 0.750000 0.101209
O O12 0.228771 0.925358 0.137250
O O13 0.250000 0.566894 0.250000
#
# Coordination Sequence:
#
# PCOD9327005 Si02
#       5
#    16  16  16  16  16
#     4  11  20  41  64  97 132 172 234 288 334 423
#     4   9  21  40  69 102 134 184 234 289 346 414
#     4  11  23  39  61  96 138 177 222 281 363 413
#     4  10  20  37  66  94 128 173 229 284 335 412
#     4  11  21  38  61  94 133 172 226 283 333 422
#
# _framework density 21.229741000000001
#
# number of rings (size 3 to 8) (size 9 to 14) (size 15 to 20)
#    0.000    1.600    4.000    1.200    0.000    4.000 
#    7.200    0.000    0.000    0.000    0.000    0.000 
#    0.000    0.000    0.000    0.000    0.000    0.000 
#
# Total GULP energy -111340.325952 kJ/mol
# GULP energy per Si atom -5567.016298 kJ/mol
# Density = 2.118142 g / cm^3
# Si number density = 21.229741 Si / 1000 Ang^3
#
#
#
# Elastic Constant Matrix: (Units=GPa)
#
#
# Indices 1 2 3 4 5 6 
#
# 1 127.8149 36.4486 58.0820 0.0000 0.0000 0.0000
# 2 36.4486 108.3534 31.9181 0.0000 0.0000 0.0000
# 3 58.0820 31.9181 101.7295 0.0000 0.0000 0.0000
# 4 0.0000 0.0000 0.0000 27.5077 0.0000 0.0000
# 5 0.0000 0.0000 0.0000 0.0000 37.9685 0.0000
# 6 0.0000 0.0000 0.0000 0.0000 0.0000 24.9630
#
#
#
# Elastic Compliance Matrix: (Units=1/GPa)
#
#
# Indices 1 2 3 4 5 6 
#
# 1 0.010956 -0.002030 -0.005618 0.000000 0.000000 0.000000
# 2 -0.002030 0.010545 -0.002149 0.000000 0.000000 0.000000
# 3 -0.005618 -0.002149 0.013712 0.000000 0.000000 0.000000
# 4 0.000000 0.000000 0.000000 0.036353 0.000000 0.000000
# 5 0.000000 0.000000 0.000000 0.000000 0.026338 0.000000
# 6 0.000000 0.000000 0.000000 0.000000 0.000000 0.040059
#
#
# Mechanical properties :
#
#
# Convention : Reuss Voigt Hill
#
# Bulk Modulus (GPa) = 64.03182 65.64391 64.83786
# Shear Modulus (GPa) = 30.71915 32.18446 31.45181
#
# Velocity S-wave (km/s) = 3.80805 3.89782 3.85320
# Velocity P-wave (km/s) = 7.04002 7.15857 7.09954
#
# Compressibility (1/GPa) = 0.01561724
#
# Stress axis : x y z
#
# Youngs Moduli (GPa) = 91.27556 94.82981 72.92877
#
# Poissons Ratio (x) = 0.19255 0.40972
# Poissons Ratio (y) = 0.18533 0.15675
# Poissons Ratio (z) = 0.51280 0.20382
#
# Static dielectric constant tensor:
#      x y z
#    x 2.155530 0.000000 0.000000 
#    y 0.000000 1.924790 0.000000 
#    z 0.000000 0.000000 1.745140 
# 
# From -- ./inp_files/23531.got.cif
#   From: 2010.05.17/outbox.cif.g08.bks.cpg/sg22_12_cif.got.tgz:23531.got - 2010.06.03 23:40:54.
