data_PCOD9327059
_publ_section_title
;
Structure prediction by ZEFSAII (Michael W. Deem and Ramdas Pophale) SiO2 
 PCOD9327059
Probable space group: F 2 2 2
;
_chemical_formula_sum "Si O2"
_cell_formula_units_Z 116
_cell_length_a 13.811327
_cell_length_b 24.676196
_cell_length_c 15.440205
_cell_angle_alpha 90.000000
_cell_angle_beta 90.000000
_cell_angle_gamma 90.000000
_cell_volume 5262.191893
_symmetry_space_group_name_H-M "F 2 2 2"
_symmetry_group_IT_number 22
_symmetry_cell_setting 'orthorhombic'
loop_
_space_group_symop_operation_xyz
x,y,z
-x,-y,z
x,-y,-z
-x,y,-z
x,1/2+y,1/2+z
-x,1/2-y,1/2+z
x,1/2-y,1/2-z
-x,1/2+y,1/2-z
1/2+x,y,1/2+z
1/2-x,-y,1/2+z
1/2+x,-y,1/2-z
1/2-x,y,1/2-z
1/2+x,1/2+y,z
1/2-x,1/2-y,z
1/2+x,1/2-y,-z
1/2-x,1/2+y,-z
loop_
_atom_site_type_symbol
_atom_site_label
_atom_site_fract_x
_atom_site_fract_y
_atom_site_fract_z
Si Si1 0.841910 0.420311 0.707063
Si Si2 0.808279 0.959979 0.837030
Si Si3 0.069056 0.837969 0.925807
Si Si4 0.000000 0.000000 0.500000
Si Si5 0.235800 0.313660 0.555901
Si Si6 0.849284 0.419354 0.047913
Si Si7 0.036679 0.915557 0.276787
Si Si8 0.912265 0.694976 0.699704
O O1 0.750000 0.392256 0.750000
O O2 0.805603 0.475400 0.664757
O O3 0.892828 0.382750 0.638430
O O4 0.925382 0.432500 0.776398
O O5 0.750000 0.941327 0.750000
O O6 0.757865 0.940395 0.924773
O O7 0.915116 0.941160 0.809768
O O8 0.999900 0.798037 0.869977
O O9 0.161802 0.815952 0.975712
O O10 0.000000 0.861497 0.000000
O O11 0.913884 0.953268 0.480098
O O12 0.250000 0.250000 0.568976
O O13 0.325224 0.354915 0.538515
O O14 0.178159 0.328733 0.644680
O O15 0.911010 0.431714 0.135190
O O16 0.052406 0.851255 0.265451
O O17 0.889657 0.750000 0.750000
#
# Coordination Sequence:
#
# PCOD9327059 Si02
#       8
#    16  16  16   4  16  16  16  16
#     4  10  21  36  65  94 124 174 220 281 348 417
#     4   9  19  35  64  91 123 164 216 282 341 398
#     4   9  22  43  61  90 140 173 220 282 353 420
#     4  12  32  44  60 100 154 196 230 278 368 452
#     4  11  23  43  67  94 132 182 222 282 354 424
#     4  11  25  42  63  95 136 180 228 285 344 424
#     4  10  20  38  63  96 126 157 224 288 339 401
#     4  10  20  40  69  97 124 164 230 296 342 405
#
# _framework density 22.044046999999999
#
# number of rings (size 3 to 8) (size 9 to 14) (size 15 to 20)
#    0.000    1.931    1.379    1.241    7.724    1.379 
#   11.172    0.000    3.034    0.000    0.000    0.000 
#    0.000    0.000    0.000    0.000    0.000    0.000 
#
# Total GULP energy -161508.949393 kJ/mol
# GULP energy per Si atom -5569.274117 kJ/mol
# Density = 2.199387 g / cm^3
# Si number density = 22.044047 Si / 1000 Ang^3
#
#
#
# Elastic Constant Matrix: (Units=GPa)
#
#
# Indices 1 2 3 4 5 6 
#
# 1 107.4588 15.5044 23.6367 0.0000 0.0000 0.0000
# 2 15.5044 79.6524 11.2475 0.0000 0.0000 0.0000
# 3 23.6367 11.2475 67.4022 0.0000 0.0000 0.0000
# 4 0.0000 0.0000 0.0000 9.6759 0.0000 0.0000
# 5 0.0000 0.0000 0.0000 0.0000 23.0255 0.0000
# 6 0.0000 0.0000 0.0000 0.0000 0.0000 29.6426
#
#
#
# Elastic Compliance Matrix: (Units=1/GPa)
#
#
# Indices 1 2 3 4 5 6 
#
# 1 0.010262 -0.001525 -0.003344 0.000000 0.000000 0.000000
# 2 -0.001525 0.013084 -0.001649 0.000000 0.000000 0.000000
# 3 -0.003344 -0.001649 0.016284 0.000000 0.000000 0.000000
# 4 0.000000 0.000000 0.000000 0.103349 0.000000 0.000000
# 5 0.000000 0.000000 0.000000 0.000000 0.043430 0.000000
# 6 0.000000 0.000000 0.000000 0.000000 0.000000 0.033735
#
#
# Mechanical properties :
#
#
# Convention : Reuss Voigt Hill
#
# Bulk Modulus (GPa) = 37.60201 39.47674 38.53938
# Shear Modulus (GPa) = 20.65733 26.07712 23.36722
#
# Velocity S-wave (km/s) = 3.06452 3.44314 3.25933
# Velocity P-wave (km/s) = 5.44210 5.80982 5.62896
#
# Compressibility (1/GPa) = 0.02659432
#
# Stress axis : x y z
#
# Youngs Moduli (GPa) = 97.45159 76.42797 61.40968
#
# Poissons Ratio (x) = 0.11657 0.20535
# Poissons Ratio (y) = 0.14863 0.10123
# Poissons Ratio (z) = 0.32588 0.12599
#
# Static dielectric constant tensor:
#      x y z
#    x 1.928320 0.000000 0.000000 
#    y 0.000000 1.860260 0.000000 
#    z 0.000000 0.000000 1.907610 
# 
# From -- ./inp_files/36432.got.cif
#   From: 2010.05.17/outbox.cif.g08.bks.cpg/sg22_19_cif.got.tgz:36432.got - 2010.06.03 23:40:54.
