data_PCOD9327079
_publ_section_title
;
Structure prediction by ZEFSAII (Michael W. Deem and Ramdas Pophale) SiO2 
 PCOD9327079
Probable space group: F 2 2 2
;
_chemical_formula_sum "Si O2"
_cell_formula_units_Z 72
_cell_length_a 18.941497
_cell_length_b 8.291347
_cell_length_c 20.287562
_cell_angle_alpha 90.000000
_cell_angle_beta 90.000000
_cell_angle_gamma 90.000000
_cell_volume 3186.172249
_symmetry_space_group_name_H-M "F 2 2 2"
_symmetry_group_IT_number 22
_symmetry_cell_setting 'orthorhombic'
loop_
_space_group_symop_operation_xyz
x,y,z
-x,-y,z
x,-y,-z
-x,y,-z
x,1/2+y,1/2+z
-x,1/2-y,1/2+z
x,1/2-y,1/2-z
-x,1/2+y,1/2-z
1/2+x,y,1/2+z
1/2-x,-y,1/2+z
1/2+x,-y,1/2-z
1/2-x,y,1/2-z
1/2+x,1/2+y,z
1/2-x,1/2-y,z
1/2+x,1/2-y,-z
1/2-x,1/2+y,-z
loop_
_atom_site_type_symbol
_atom_site_label
_atom_site_fract_x
_atom_site_fract_y
_atom_site_fract_z
Si Si1 0.000000 0.000000 0.360519
Si Si2 0.782584 0.074449 0.818114
Si Si3 0.534204 0.666096 0.892927
Si Si4 0.691052 0.873903 0.557162
Si Si5 0.094303 0.420240 0.740067
O O1 0.004971 0.164027 0.402376
O O2 0.934467 0.017015 0.309384
O O3 0.750000 0.012958 0.750000
O O4 0.750000 0.250000 0.829436
O O5 0.773078 0.962856 0.880617
O O6 0.864939 0.060289 0.799317
O O7 0.500000 0.500000 0.919071
O O8 0.614592 0.687300 0.918288
O O9 0.537322 0.643265 0.813196
O O10 0.750000 0.750000 0.532874
O O11 0.676116 0.000000 0.500000
O O12 0.136095 0.250000 0.750000
#
# Coordination Sequence:
#
# PCOD9327079 Si02
#       5
#     8  16  16  16  16
#     4  10  20  38  66 101 141 178 228 280 366 432
#     4  10  23  38  63 103 136 176 225 293 350 425
#     4  10  22  41  68 102 135 185 232 293 352 421
#     4  11  26  49  71  96 139 194 242 296 363 432
#     4   9  19  34  57  94 143 179 213 277 352 429
#
# _framework density 22.597648
#
# number of rings (size 3 to 8) (size 9 to 14) (size 15 to 20)
#    0.000    2.000    1.111    0.667    9.333    7.556 
#    4.000    0.000    0.000    0.000    0.000    0.000 
#    0.000    0.000    0.000    0.000    0.000    0.000 
#
# Total GULP energy -100349.513711 kJ/mol
# GULP energy per Si atom -5574.972984 kJ/mol
# Density = 2.254621 g / cm^3
# Si number density = 22.597648 Si / 1000 Ang^3
#
#
#
# Elastic Constant Matrix: (Units=GPa)
#
#
# Indices 1 2 3 4 5 6 
#
# 1 60.6082 52.8334 -11.5066 0.0000 0.0000 0.0000
# 2 52.8334 157.3670 0.8156 0.0000 0.0000 0.0000
# 3 -11.5066 0.8156 54.2761 0.0000 0.0000 0.0000
# 4 0.0000 0.0000 0.0000 19.8348 0.0000 0.0000
# 5 0.0000 0.0000 0.0000 0.0000 19.7175 0.0000
# 6 0.0000 0.0000 0.0000 0.0000 0.0000 38.4181
#
#
#
# Elastic Compliance Matrix: (Units=1/GPa)
#
#
# Indices 1 2 3 4 5 6 
#
# 1 0.024806 -0.008356 0.005384 0.000000 0.000000 0.000000
# 2 -0.008356 0.009170 -0.001909 0.000000 0.000000 0.000000
# 3 0.005384 -0.001909 0.019595 0.000000 0.000000 0.000000
# 4 0.000000 0.000000 0.000000 0.050417 0.000000 0.000000
# 5 0.000000 0.000000 0.000000 0.000000 0.050716 0.000000
# 6 0.000000 0.000000 0.000000 0.000000 0.000000 0.026029
#
#
# Mechanical properties :
#
#
# Convention : Reuss Voigt Hill
#
# Bulk Modulus (GPa) = 22.82670 39.61512 31.22091
# Shear Modulus (GPa) = 24.37871 30.93468 27.65669
#
# Velocity S-wave (km/s) = 3.28810 3.70392 3.50219
# Velocity P-wave (km/s) = 4.95366 5.98839 5.49543
#
# Compressibility (1/GPa) = 0.04380835
#
# Stress axis : x y z
#
# Youngs Moduli (GPa) = 40.31315 109.05277 51.03472
#
# Poissons Ratio (x) = 0.91125 -0.27479
# Poissons Ratio (y) = 0.33686 0.09744
# Poissons Ratio (z) = -0.21706 0.20821
#
# Static dielectric constant tensor:
#      x y z
#    x 2.032350 0.000000 0.000000 
#    y 0.000000 1.899820 0.000000 
#    z 0.000000 0.000000 1.806820 
# 
# From -- ./inp_files/34980.got.cif
#   From: 2010.05.17/outbox.cif.g08.bks.cpg/sg22_18_cif.got.tgz:34980.got - 2010.06.03 23:40:54.
