data_PCOD9327827
_publ_section_title
;
Structure prediction by ZEFSAII (Michael W. Deem and Ramdas Pophale) SiO2 
 PCOD9327827
Probable space group: F 2 2 2
;
_chemical_formula_sum "Si O2"
_cell_formula_units_Z 84
_cell_length_a 24.722453
_cell_length_b 5.713318
_cell_length_c 26.853006
_cell_angle_alpha 90.000000
_cell_angle_beta 90.000000
_cell_angle_gamma 90.000000
_cell_volume 3792.912869
_symmetry_space_group_name_H-M "F 2 2 2"
_symmetry_group_IT_number 22
_symmetry_cell_setting 'orthorhombic'
loop_
_space_group_symop_operation_xyz
x,y,z
-x,-y,z
x,-y,-z
-x,y,-z
x,1/2+y,1/2+z
-x,1/2-y,1/2+z
x,1/2-y,1/2-z
-x,1/2+y,1/2-z
1/2+x,y,1/2+z
1/2-x,-y,1/2+z
1/2+x,-y,1/2-z
1/2-x,y,1/2-z
1/2+x,1/2+y,z
1/2-x,1/2-y,z
1/2+x,1/2-y,-z
1/2-x,1/2+y,-z
loop_
_atom_site_type_symbol
_atom_site_label
_atom_site_fract_x
_atom_site_fract_y
_atom_site_fract_z
Si Si1 0.689213 0.996768 0.056449
Si Si2 0.000000 0.500000 0.000000
Si Si3 0.086655 0.825719 0.954024
Si Si4 0.530193 0.753813 0.809197
Si Si5 0.265744 0.994410 0.653569
Si Si6 0.378425 0.357498 0.879044
O O1 0.651061 0.207124 0.077330
O O2 0.645441 0.790295 0.051995
O O3 0.734316 0.985040 0.099592
O O4 0.712458 0.000000 0.000000
O O5 0.039773 0.644983 0.964991
O O6 0.078839 0.974529 0.905138
O O7 0.086565 0.000000 0.000000
O O8 0.500000 0.500000 0.818819
O O9 0.540082 0.750000 0.750000
O O10 0.586971 0.776455 0.838544
O O11 0.500000 0.000000 0.820857
O O12 0.250000 0.750000 0.679116
O O13 0.250000 0.250000 0.675102
O O14 0.329624 0.002359 0.645941
#
# Coordination Sequence:
#
# PCOD9327827 Si02
#       6
#    16   4  16  16  16  16
#     4  11  22  39  59  91 134 184 237 274 330 402
#     4  12  26  40  52  86 140 188 254 292 340 416
#     4  12  23  40  57  84 134 188 236 283 340 411
#     4  10  25  49  76 105 135 176 234 300 373 443
#     4  10  22  37  61  93 132 171 229 283 328 403
#     4  11  24  42  67  97 133 184 234 294 360 417
#
# _framework density 22.146569
#
# number of rings (size 3 to 8) (size 9 to 14) (size 15 to 20)
#    0.000    1.143    4.762    0.286    2.667    6.095 
#    1.714    0.000    2.095    5.143    0.000    5.333 
#    0.000    0.000    0.000    0.000    0.000    0.000 
#
# Total GULP energy -117156.918137 kJ/mol
# GULP energy per Si atom -5578.900864 kJ/mol
# Density = 2.209616 g / cm^3
# Si number density = 22.146569 Si / 1000 Ang^3
#
#
#
# Elastic Constant Matrix: (Units=GPa)
#
#
# Indices 1 2 3 4 5 6 
#
# 1 118.7357 44.0931 40.5321 -0.0028 0.0680 0.0058
# 2 44.0931 146.2119 19.3379 -0.0149 0.1346 0.0237
# 3 40.5321 19.3379 28.2810 -0.0005 -0.0142 0.0293
# 4 -0.0028 -0.0149 -0.0005 7.1494 0.0347 0.0084
# 5 0.0680 0.1346 -0.0142 0.0347 -187.5320 -0.2621
# 6 0.0058 0.0237 0.0293 0.0084 -0.2621 -200.7496
#
#
#
# Elastic Compliance Matrix: (Units=1/GPa)
#
#
# Indices 1 2 3 4 5 6 
#
# 1 0.017057 -0.002101 -0.023009 0.000000 0.000006 -0.000003
# 2 -0.002101 0.007778 -0.002308 0.000015 0.000005 0.000001
# 3 -0.023009 -0.002308 0.069914 -0.000008 -0.000015 0.000009
# 4 0.000000 0.000015 -0.000008 0.139872 0.000026 0.000006
# 5 0.000006 0.000005 -0.000015 0.000026 -0.005332 0.000007
# 6 -0.000003 0.000001 0.000009 0.000006 0.000007 -0.004981
#
#
# Mechanical properties :
#
#
# Convention : Reuss Voigt Hill
#
# Bulk Modulus (GPa) = 25.05423 55.68388 40.36905
# Shear Modulus (GPa) = 17.09720 -63.60875 -23.25578
#
# Velocity S-wave (km/s) = 2.78151 -5.36508 -3.24402
# Velocity P-wave (km/s) = 4.65330 3.63054 2.05820
#
# Compressibility (1/GPa) = 0.03991342
#
# Stress axis : x y z
#
# Youngs Moduli (GPa) = 58.62858 128.56588 14.30335
#
# Poissons Ratio (x) = 0.27006 0.32910
# Poissons Ratio (y) = 0.12315 0.03301
# Poissons Ratio (z) = 1.34898 0.29672
#
# Static dielectric constant tensor:
#      x y z
#    x 1.787540 -0.000010 0.000000 
#    y -0.000010 1.985200 0.000000 
#    z 0.000000 0.000000 1.805360 
# 
# From -- ./inp_files/57091.got.cif
#   From: 2010.05.17/outbox.cif.g08.bks.cpg/sg22_29_cif.got.tgz:57091.got - 2010.06.03 23:40:54.
