data_PCOD9327894
_publ_section_title
;
Structure prediction by ZEFSAII (Michael W. Deem and Ramdas Pophale) SiO2 
 PCOD9327894
Probable space group: F 2 2 2
;
_chemical_formula_sum "Si O2"
_cell_formula_units_Z 88
_cell_length_a 5.254158
_cell_length_b 21.878071
_cell_length_c 32.142424
_cell_angle_alpha 90.000000
_cell_angle_beta 90.000000
_cell_angle_gamma 90.000000
_cell_volume 3694.798695
_symmetry_space_group_name_H-M "F 2 2 2"
_symmetry_group_IT_number 22
_symmetry_cell_setting 'orthorhombic'
loop_
_space_group_symop_operation_xyz
x,y,z
-x,-y,z
x,-y,-z
-x,y,-z
x,1/2+y,1/2+z
-x,1/2-y,1/2+z
x,1/2-y,1/2-z
-x,1/2+y,1/2-z
1/2+x,y,1/2+z
1/2-x,-y,1/2+z
1/2+x,-y,1/2-z
1/2-x,y,1/2-z
1/2+x,1/2+y,z
1/2-x,1/2-y,z
1/2+x,1/2-y,-z
1/2-x,1/2+y,-z
loop_
_atom_site_type_symbol
_atom_site_label
_atom_site_fract_x
_atom_site_fract_y
_atom_site_fract_z
Si Si1 0.513771 0.578014 0.329565
Si Si2 0.249081 0.323179 0.022375
Si Si3 0.248048 0.465042 0.902416
Si Si4 0.587292 0.358644 0.888851
Si Si5 0.131817 0.185700 0.808528
Si Si6 0.250000 0.391176 0.250000
O O1 0.306321 0.535655 0.352307
O O2 0.728453 0.594698 0.363832
O O3 0.361550 0.639966 0.318532
O O4 0.635244 0.565260 0.285375
O O5 0.250000 0.250000 0.016383
O O6 0.265462 0.334774 0.071313
O O7 0.500000 0.348198 0.000000
O O8 0.000000 0.348570 0.000000
O O9 0.500000 0.500000 0.915569
O O10 0.335757 0.394144 0.906306
O O11 0.000000 0.500000 0.920596
O O12 0.512422 0.310453 0.853183
O O13 0.250000 0.250000 0.796329
O O14 0.949108 0.152978 0.774719
#
# Coordination Sequence:
#
# PCOD9327894 Si02
#       6
#    16  16  16  16  16   8
#     4  10  22  39  65  94 123 175 218 283 328 403
#     4  10  24  41  66 104 145 180 210 261 328 403
#     4  11  22  42  70  97 126 168 231 284 341 394
#     4  10  23  40  68  99 134 173 229 273 331 404
#     4  10  23  37  62  92 132 184 226 274 332 401
#     4  10  22  41  58  88 142 168 230 278 341 392
#
# _framework density 23.817264000000002
#
# number of rings (size 3 to 8) (size 9 to 14) (size 15 to 20)
#    0.000    1.818    1.818    0.545    7.636    5.091 
#    0.000    0.000   12.000    0.545    4.727    0.000 
#    0.000    0.000    0.000    0.000    0.000    0.000 
#
# Total GULP energy -122770.280374 kJ/mol
# GULP energy per Si atom -5580.467290 kJ/mol
# Density = 2.376305 g / cm^3
# Si number density = 23.817264 Si / 1000 Ang^3
#
#
#
# Elastic Constant Matrix: (Units=GPa)
#
#
# Indices 1 2 3 4 5 6 
#
# 1 154.4653 22.5566 44.7501 0.0000 0.0000 0.0000
# 2 22.5566 41.9520 -16.9661 0.0000 0.0000 0.0000
# 3 44.7501 -16.9661 124.3930 0.0000 0.0000 0.0000
# 4 0.0000 0.0000 0.0000 1.3055 0.0000 0.0000
# 5 0.0000 0.0000 0.0000 0.0000 32.4187 0.0000
# 6 0.0000 0.0000 0.0000 0.0000 0.0000 32.3049
#
#
#
# Elastic Compliance Matrix: (Units=1/GPa)
#
#
# Indices 1 2 3 4 5 6 
#
# 1 0.008500 -0.006146 -0.003896 0.000000 0.000000 0.000000
# 2 -0.006146 0.029672 0.006258 0.000000 0.000000 0.000000
# 3 -0.003896 0.006258 0.010294 0.000000 0.000000 0.000000
# 4 0.000000 0.000000 0.000000 0.765989 0.000000 0.000000
# 5 0.000000 0.000000 0.000000 0.000000 0.030846 0.000000
# 6 0.000000 0.000000 0.000000 0.000000 0.000000 0.030955
#
#
# Mechanical properties :
#
#
# Convention : Reuss Voigt Hill
#
# Bulk Modulus (GPa) = 24.45090 46.83238 35.64164
# Shear Modulus (GPa) = 5.57129 31.23713 18.40421
#
# Velocity S-wave (km/s) = 1.53110 3.62544 2.78281
# Velocity P-wave (km/s) = 3.66251 6.10172 5.03215
#
# Compressibility (1/GPa) = 0.04089830
#
# Stress axis : x y z
#
# Youngs Moduli (GPa) = 117.64392 33.70154 97.14170
#
# Poissons Ratio (x) = 0.20713 0.37848
# Poissons Ratio (y) = 0.72305 -0.60792
# Poissons Ratio (z) = 0.45837 -0.21091
#
# Static dielectric constant tensor:
#      x y z
#    x 2.018530 0.000000 0.000000 
#    y 0.000000 2.066770 0.000000 
#    z 0.000000 0.000000 1.877830 
# 
# From -- ./inp_files/46680.got.cif
#   From: 2010.05.17/outbox.cif.g08.bks.cpg/sg22_24_cif.got.tgz:46680.got - 2010.06.03 23:40:54.
