data_PCOD9327145
_publ_section_title
;
Structure prediction by ZEFSAII (Michael W. Deem and Ramdas Pophale) SiO2 
 PCOD9327145
Probable space group: F 2 2 2
;
_chemical_formula_sum "Si O2"
_cell_formula_units_Z 60
_cell_length_a 6.261892
_cell_length_b 14.229519
_cell_length_c 31.424172
_cell_angle_alpha 90.000000
_cell_angle_beta 90.000000
_cell_angle_gamma 90.000000
_cell_volume 2800.010346
_symmetry_space_group_name_H-M "F 2 2 2"
_symmetry_group_IT_number 22
_symmetry_cell_setting 'orthorhombic'
loop_
_space_group_symop_operation_xyz
x,y,z
-x,-y,z
x,-y,-z
-x,y,-z
x,1/2+y,1/2+z
-x,1/2-y,1/2+z
x,1/2-y,1/2-z
-x,1/2+y,1/2-z
1/2+x,y,1/2+z
1/2-x,-y,1/2+z
1/2+x,-y,1/2-z
1/2-x,y,1/2-z
1/2+x,1/2+y,z
1/2-x,1/2-y,z
1/2+x,1/2-y,-z
1/2-x,1/2+y,-z
loop_
_atom_site_type_symbol
_atom_site_label
_atom_site_fract_x
_atom_site_fract_y
_atom_site_fract_z
Si Si1 0.139744 0.591273 0.791208
Si Si2 0.847672 0.852733 0.630321
Si Si3 0.500000 0.500000 0.000000
Si Si4 0.000000 0.000000 0.847191
Si Si5 0.836289 0.857341 0.537967
O O1 0.250000 0.638285 0.750000
O O2 0.341698 0.559405 0.818219
O O3 0.000000 0.500000 0.776501
O O4 0.987949 0.638146 0.826864
O O5 0.750000 0.750000 0.630866
O O6 0.656661 0.928203 0.629790
O O7 0.951904 0.868273 0.583975
O O8 0.647343 0.568341 0.971108
O O9 0.750000 0.750000 0.536240
O O10 0.000000 0.871055 0.500000
#
# Coordination Sequence:
#
# PCOD9327145 Si02
#       5
#    16  16   4   8  16
#     4  10  20  39  69  93 127 174 219 274 331 398
#     4  10  24  42  65 100 136 174 226 276 333 409
#     4  12  24  40  76 100 136 192 222 284 348 418
#     4  10  21  40  66  93 128 174 211 274 332 393
#     4  11  24  45  67 100 140 183 231 283 340 412
#
# _framework density 21.428491999999999
#
# number of rings (size 3 to 8) (size 9 to 14) (size 15 to 20)
#    0.000    1.600    2.667    1.200    0.000    9.600 
#    0.000    4.000    0.000    0.000    0.000    0.000 
#    0.000    0.000    0.000    0.000    0.000    0.000 
#
# Total GULP energy -83647.592704 kJ/mol
# GULP energy per Si atom -5576.506180 kJ/mol
# Density = 2.137972 g / cm^3
# Si number density = 21.428492 Si / 1000 Ang^3
#
#
#
# Elastic Constant Matrix: (Units=GPa)
#
#
# Indices 1 2 3 4 5 6 
#
# 1 84.9466 26.1186 65.3426 0.0000 0.0000 0.0000
# 2 26.1186 96.6480 64.5555 0.0000 0.0000 0.0000
# 3 65.3426 64.5555 188.3035 0.0000 0.0000 0.0000
# 4 0.0000 0.0000 0.0000 26.1148 0.0000 0.0000
# 5 0.0000 0.0000 0.0000 0.0000 21.5333 0.0000
# 6 0.0000 0.0000 0.0000 0.0000 0.0000 14.8268
#
#
#
# Elastic Compliance Matrix: (Units=1/GPa)
#
#
# Indices 1 2 3 4 5 6 
#
# 1 0.016106 -0.000803 -0.005314 0.000000 0.000000 0.000000
# 2 -0.000803 0.013460 -0.004336 0.000000 0.000000 0.000000
# 3 -0.005314 -0.004336 0.008641 0.000000 0.000000 0.000000
# 4 0.000000 0.000000 0.000000 0.038293 0.000000 0.000000
# 5 0.000000 0.000000 0.000000 0.000000 0.046440 0.000000
# 6 0.000000 0.000000 0.000000 0.000000 0.000000 0.067446
#
#
# Mechanical properties :
#
#
# Convention : Reuss Voigt Hill
#
# Bulk Modulus (GPa) = 57.79749 75.77015 66.78382
# Shear Modulus (GPa) = 23.03536 26.75373 24.89454
#
# Velocity S-wave (km/s) = 3.28226 3.53726 3.41214
# Velocity P-wave (km/s) = 6.43390 7.21937 6.83792
#
# Compressibility (1/GPa) = 0.01730179
#
# Stress axis : x y z
#
# Youngs Moduli (GPa) = 62.08684 74.29475 115.73018
#
# Poissons Ratio (x) = 0.05970 0.61494
# Poissons Ratio (y) = 0.04989 0.50176
# Poissons Ratio (z) = 0.32990 0.32211
#
# Static dielectric constant tensor:
#      x y z
#    x 1.803160 0.000000 0.000000 
#    y 0.000000 1.777390 0.000000 
#    z 0.000000 0.000000 1.832730 
# 
# From -- ./inp_files/2811.got.cif
#   From: 2010.05.17/outbox.cif.g08.bks.cpg/sg22_2_cif.got.tgz:2811.got - 2010.06.03 23:40:54.
