data_PCOD9327944
_publ_section_title
;
Structure prediction by ZEFSAII (Michael W. Deem and Ramdas Pophale) SiO2 
 PCOD9327944
Probable space group: F 2 2 2
;
_chemical_formula_sum "Si O2"
_cell_formula_units_Z 88
_cell_length_a 27.861779
_cell_length_b 8.096656
_cell_length_c 20.192829
_cell_angle_alpha 90.000000
_cell_angle_beta 90.000000
_cell_angle_gamma 90.000000
_cell_volume 4555.244564
_symmetry_space_group_name_H-M "F 2 2 2"
_symmetry_group_IT_number 22
_symmetry_cell_setting 'orthorhombic'
loop_
_space_group_symop_operation_xyz
x,y,z
-x,-y,z
x,-y,-z
-x,y,-z
x,1/2+y,1/2+z
-x,1/2-y,1/2+z
x,1/2-y,1/2-z
-x,1/2+y,1/2-z
1/2+x,y,1/2+z
1/2-x,-y,1/2+z
1/2+x,-y,1/2-z
1/2-x,y,1/2-z
1/2+x,1/2+y,z
1/2-x,1/2-y,z
1/2+x,1/2-y,-z
1/2-x,1/2+y,-z
loop_
_atom_site_type_symbol
_atom_site_label
_atom_site_fract_x
_atom_site_fract_y
_atom_site_fract_z
Si Si1 0.500000 0.500000 0.342161
Si Si2 0.378663 0.341159 0.137417
Si Si3 0.250000 0.250000 0.643750
Si Si4 0.223422 0.928393 0.927695
Si Si5 0.601842 0.482702 0.721194
Si Si6 0.521245 0.827545 0.425836
Si Si7 0.327618 0.250000 0.750000
O O1 0.547437 0.486163 0.298363
O O2 0.505399 0.665387 0.385758
O O3 0.327120 0.394201 0.109772
O O4 0.394549 0.451124 0.200212
O O5 0.378906 0.164239 0.174514
O O6 0.420969 0.339484 0.082571
O O7 0.255884 0.420543 0.602609
O O8 0.292179 0.191235 0.692750
O O9 0.250000 0.750000 0.929621
O O10 0.211565 0.000000 0.000000
O O11 0.637718 0.630228 0.710674
O O12 0.500000 0.812728 0.500000
O O13 0.500000 0.000000 0.398617
#
# Coordination Sequence:
#
# PCOD9327944 Si02
#       7
#     8  16   8  16  16  16   8
#     4  10  23  40  64  92 133 166 208 264 314 372
#     4  10  23  43  62  94 129 166 215 258 325 377
#     4  11  24  44  66  98 124 165 218 262 332 381
#     4  12  25  45  67  91 129 169 216 273 317 382
#     4  10  22  40  65  96 127 167 208 265 322 379
#     4  10  23  41  63  93 126 171 214 253 310 380
#     4  11  22  40  68  96 124 162 214 269 320 392
#
# _framework density 19.318393
#
# number of rings (size 3 to 8) (size 9 to 14) (size 15 to 20)
#    0.000    1.455    2.727    1.364    6.364    1.455 
#    0.000    1.818    0.000    0.000    0.000    0.000 
#    0.000    0.000    0.000    0.000    0.000    0.000 
#
# Total GULP energy -122525.430554 kJ/mol
# GULP energy per Si atom -5569.337752 kJ/mol
# Density = 1.927442 g / cm^3
# Si number density = 19.318393 Si / 1000 Ang^3
#
#
#
# Elastic Constant Matrix: (Units=GPa)
#
#
# Indices 1 2 3 4 5 6 
#
# 1 129.5875 54.5790 63.3817 0.0000 0.0000 0.0000
# 2 54.5790 103.7694 28.8009 0.0001 0.0000 0.0000
# 3 63.3817 28.8009 93.9359 0.0000 0.0000 0.0000
# 4 0.0000 0.0001 0.0000 63.1307 -0.0001 0.0000
# 5 0.0000 0.0000 0.0000 -0.0001 11.8872 0.0000
# 6 0.0000 0.0000 0.0000 0.0000 0.0000 14.7775
#
#
#
# Elastic Compliance Matrix: (Units=1/GPa)
#
#
# Indices 1 2 3 4 5 6 
#
# 1 0.013548 -0.005015 -0.007604 0.000000 0.000000 0.000000
# 2 -0.005015 0.012390 -0.000415 0.000000 0.000000 0.000000
# 3 -0.007604 -0.000415 0.015903 0.000000 0.000000 0.000000
# 4 0.000000 0.000000 0.000000 0.015840 0.000000 0.000000
# 5 0.000000 0.000000 0.000000 0.000000 0.084124 0.000000
# 6 0.000000 0.000000 0.000000 0.000000 0.000000 0.067670
#
#
# Mechanical properties :
#
#
# Convention : Reuss Voigt Hill
#
# Bulk Modulus (GPa) = 63.39717 68.97956 66.18837
# Shear Modulus (GPa) = 20.76403 29.99451 25.37927
#
# Velocity S-wave (km/s) = 3.28202 3.94463 3.62848
# Velocity P-wave (km/s) = 6.87390 7.51871 7.20352
#
# Compressibility (1/GPa) = 0.01577357
#
# Stress axis : x y z
#
# Youngs Moduli (GPa) = 73.81080 80.71166 62.88081
#
# Poissons Ratio (x) = 0.40481 0.47812
# Poissons Ratio (y) = 0.37020 0.02607
# Poissons Ratio (z) = 0.56123 0.03347
#
# Static dielectric constant tensor:
#      x y z
#    x 1.656460 0.000000 0.000000 
#    y 0.000000 1.695820 0.000000 
#    z 0.000000 0.000000 1.727800 
# 
# From -- ./inp_files/45243.got.cif
#   From: 2010.05.17/outbox.cif.g08.bks.cpg/sg22_23_cif.got.tgz:45243.got - 2010.06.03 23:40:54.
