data_PCOD9327180
_publ_section_title
;
Structure prediction by ZEFSAII (Michael W. Deem and Ramdas Pophale) SiO2 
 PCOD9327180
Probable space group: F 2 2 2
;
_chemical_formula_sum "Si O2"
_cell_formula_units_Z 56
_cell_length_a 13.077887
_cell_length_b 8.315015
_cell_length_c 21.474624
_cell_angle_alpha 90.000000
_cell_angle_beta 90.000000
_cell_angle_gamma 90.000000
_cell_volume 2335.211313
_symmetry_space_group_name_H-M "F 2 2 2"
_symmetry_group_IT_number 22
_symmetry_cell_setting 'orthorhombic'
loop_
_space_group_symop_operation_xyz
x,y,z
-x,-y,z
x,-y,-z
-x,y,-z
x,1/2+y,1/2+z
-x,1/2-y,1/2+z
x,1/2-y,1/2-z
-x,1/2+y,1/2-z
1/2+x,y,1/2+z
1/2-x,-y,1/2+z
1/2+x,-y,1/2-z
1/2-x,y,1/2-z
1/2+x,1/2+y,z
1/2-x,1/2-y,z
1/2+x,1/2-y,-z
1/2-x,1/2+y,-z
loop_
_atom_site_type_symbol
_atom_site_label
_atom_site_fract_x
_atom_site_fract_y
_atom_site_fract_z
Si Si1 0.540438 0.253824 0.324812
Si Si2 0.147073 0.588565 0.861071
Si Si3 0.321414 0.595025 0.088876
Si Si4 0.250000 0.750000 0.750000
Si Si5 0.000000 0.000000 0.000000
O O1 0.523337 0.250000 0.250000
O O2 0.594560 0.417664 0.347840
O O3 0.436890 0.269055 0.366795
O O4 0.619716 0.115925 0.344903
O O5 0.241026 0.553549 0.907846
O O6 0.190369 0.634660 0.794877
O O7 0.250000 0.750000 0.076851
O O8 0.417058 0.592863 0.042303
#
# Coordination Sequence:
#
# PCOD9327180 Si02
#       5
#    16  16  16   4   4
#     4  10  20  40  64  93 137 177 209 263 342 409
#     4  10  22  35  59  94 133 172 212 263 326 391
#     4  10  25  46  64  96 132 171 229 283 330 393
#     4  12  20  32  58 104 134 172 212 262 322 420
#     4  12  28  44  76  92 120 188 236 290 334 382
#
# _framework density 23.980699999999999
#
# number of rings (size 3 to 8) (size 9 to 14) (size 15 to 20)
#    0.000    1.714    1.429    1.714    4.000    8.571 
#    0.000    0.000    0.000    0.000    0.000    0.000 
#    0.000    0.000    0.000    0.000    0.000    0.000 
#
# Total GULP energy -77947.067453 kJ/mol
# GULP energy per Si atom -5567.647675 kJ/mol
# Density = 2.392612 g / cm^3
# Si number density = 23.980700 Si / 1000 Ang^3
#
#
#
# Elastic Constant Matrix: (Units=GPa)
#
#
# Indices 1 2 3 4 5 6 
#
# 1 197.9937 53.0469 59.0376 0.0000 0.0000 0.0000
# 2 53.0469 60.4530 7.1223 0.0000 0.0000 0.0000
# 3 59.0376 7.1223 68.1590 0.0000 0.0000 0.0000
# 4 0.0000 0.0000 0.0000 9.7221 0.0000 0.0000
# 5 0.0000 0.0000 0.0000 0.0000 41.9946 0.0000
# 6 0.0000 0.0000 0.0000 0.0000 0.0000 33.0698
#
#
#
# Elastic Compliance Matrix: (Units=1/GPa)
#
#
# Indices 1 2 3 4 5 6 
#
# 1 0.009087 -0.007134 -0.007125 0.000000 0.000000 0.000000
# 2 -0.007134 0.022349 0.003844 0.000000 0.000000 0.000000
# 3 -0.007125 0.003844 0.020441 0.000000 0.000000 0.000000
# 4 0.000000 0.000000 0.000000 0.102859 0.000000 0.000000
# 5 0.000000 0.000000 0.000000 0.000000 0.023813 0.000000
# 6 0.000000 0.000000 0.000000 0.000000 0.000000 0.030239
#
#
# Mechanical properties :
#
#
# Convention : Reuss Voigt Hill
#
# Bulk Modulus (GPa) = 32.20967 62.77993 47.49480
# Shear Modulus (GPa) = 20.83626 30.78389 25.81007
#
# Velocity S-wave (km/s) = 2.95087 3.58675 3.28424
# Velocity P-wave (km/s) = 5.00708 6.58705 5.85064
#
# Compressibility (1/GPa) = 0.03104658
#
# Stress axis : x y z
#
# Youngs Moduli (GPa) = 110.05288 44.74505 48.92020
#
# Poissons Ratio (x) = 0.31921 0.34856
# Poissons Ratio (y) = 0.78511 -0.18804
# Poissons Ratio (z) = 0.78413 -0.17199
#
# Static dielectric constant tensor:
#      x y z
#    x 2.000620 0.000000 0.000000 
#    y 0.000000 2.008120 0.000000 
#    z 0.000000 0.000000 1.937850 
# 
# From -- ./inp_files/9699.got.cif
#   From: 2010.05.17/outbox.cif.g08.bks.cpg/sg22_5_cif.got.tgz:9699.got - 2010.06.03 23:40:54.
