data_PCOD9327266
_publ_section_title
;
Structure prediction by ZEFSAII (Michael W. Deem and Ramdas Pophale) SiO2 
 PCOD9327266
Probable space group: F 2 2 2
;
_chemical_formula_sum "Si O2"
_cell_formula_units_Z 108
_cell_length_a 12.579277
_cell_length_b 15.053598
_cell_length_c 24.181305
_cell_angle_alpha 90.000000
_cell_angle_beta 90.000000
_cell_angle_gamma 90.000000
_cell_volume 4579.053626
_symmetry_space_group_name_H-M "F 2 2 2"
_symmetry_group_IT_number 22
_symmetry_cell_setting 'orthorhombic'
loop_
_space_group_symop_operation_xyz
x,y,z
-x,-y,z
x,-y,-z
-x,y,-z
x,1/2+y,1/2+z
-x,1/2-y,1/2+z
x,1/2-y,1/2-z
-x,1/2+y,1/2-z
1/2+x,y,1/2+z
1/2-x,-y,1/2+z
1/2+x,-y,1/2-z
1/2-x,y,1/2-z
1/2+x,1/2+y,z
1/2-x,1/2-y,z
1/2+x,1/2-y,-z
1/2-x,1/2+y,-z
loop_
_atom_site_type_symbol
_atom_site_label
_atom_site_fract_x
_atom_site_fract_y
_atom_site_fract_z
Si Si1 0.335502 0.412329 0.029314
Si Si2 0.881819 0.458924 0.642350
Si Si3 0.545798 0.228203 0.687273
Si Si4 0.641569 0.118066 0.276055
Si Si5 0.650322 0.360404 0.445700
Si Si6 0.500000 0.500000 0.500000
Si Si7 0.043814 0.597662 0.157735
Si Si8 0.500000 0.219018 0.500000
O O1 0.304014 0.447880 0.089718
O O2 0.377383 0.500000 0.000000
O O3 0.251498 0.370658 0.986022
O O4 0.428874 0.342646 0.038794
O O5 0.842561 0.530012 0.687181
O O6 0.000000 0.500000 0.626904
O O7 0.894510 0.359400 0.666050
O O8 0.581069 0.250000 0.750000
O O9 0.423741 0.192721 0.691254
O O10 0.540931 0.320255 0.652929
O O11 0.750000 0.149554 0.250000
O O12 0.570700 0.094180 0.222583
O O13 0.575472 0.440123 0.464231
O O14 0.645611 0.372098 0.379668
O O15 0.582482 0.275274 0.464184
O O16 0.000000 0.500000 0.143475
#
# Coordination Sequence:
#
# PCOD9327266 Si02
#       8
#    16  16  16  16  16   4  16   8
#     4  12  25  43  71 105 137 191 244 292 364 426
#     4  10  21  42  69  98 139 183 232 296 359 428
#     4   9  19  39  68  98 134 182 229 279 362 431
#     4  10  22  38  64 105 138 174 228 294 355 429
#     4  11  24  43  70  99 140 186 238 294 357 427
#     4  10  20  44  62  94 142 172 226 288 354 412
#     4  11  22  40  68  98 134 185 232 288 363 428
#     4  11  25  47  67 102 146 184 241 305 359 429
#
# _framework density 23.585659
#
# number of rings (size 3 to 8) (size 9 to 14) (size 15 to 20)
#    0.000    1.481    1.481    4.667    2.074    3.852 
#    2.667    0.000    3.259    0.889    0.000    0.000 
#    0.000    0.000    0.000    0.000    0.000    0.000 
#
# Total GULP energy -150712.478100 kJ/mol
# GULP energy per Si atom -5581.943633 kJ/mol
# Density = 2.353198 g / cm^3
# Si number density = 23.585659 Si / 1000 Ang^3
#
#
#
# Elastic Constant Matrix: (Units=GPa)
#
#
# Indices 1 2 3 4 5 6 
#
# 1 55.5200 32.5701 11.8840 0.0000 0.0000 0.0000
# 2 32.5701 171.4808 58.6408 0.0000 0.0000 0.0000
# 3 11.8840 58.6408 118.4747 0.0000 0.0000 0.0000
# 4 0.0000 0.0000 0.0000 112.7710 0.0000 0.0000
# 5 0.0000 0.0000 0.0000 0.0000 27.9578 0.0000
# 6 0.0000 0.0000 0.0000 0.0000 0.0000 7.1061
#
#
#
# Elastic Compliance Matrix: (Units=1/GPa)
#
#
# Indices 1 2 3 4 5 6 
#
# 1 0.020272 -0.003798 -0.000154 0.000000 0.000000 0.000000
# 2 -0.003798 0.007731 -0.003446 0.000000 0.000000 0.000000
# 3 -0.000154 -0.003446 0.010162 0.000000 0.000000 0.000000
# 4 0.000000 0.000000 0.000000 0.008868 0.000000 0.000000
# 5 0.000000 0.000000 0.000000 0.000000 0.035768 0.000000
# 6 0.000000 0.000000 0.000000 0.000000 0.000000 0.140724
#
#
# Mechanical properties :
#
#
# Convention : Reuss Voigt Hill
#
# Bulk Modulus (GPa) = 42.78873 61.29612 52.04242
# Shear Modulus (GPa) = 20.31612 45.72568 33.02090
#
# Velocity S-wave (km/s) = 2.93810 4.40785 3.74577
# Velocity P-wave (km/s) = 5.44896 7.20768 6.38913
#
# Compressibility (1/GPa) = 0.02337064
#
# Stress axis : x y z
#
# Youngs Moduli (GPa) = 49.32813 129.34553 98.41020
#
# Poissons Ratio (x) = 0.49124 0.01512
# Poissons Ratio (y) = 0.18734 0.33909
# Poissons Ratio (z) = 0.00758 0.44569
#
# Static dielectric constant tensor:
#      x y z
#    x 1.893930 0.000000 0.000000 
#    y 0.000000 1.922500 0.000000 
#    z 0.000000 0.000000 1.955840 
# 
# From -- ./inp_files/48995.got.cif
#   From: 2010.05.17/outbox.cif.g08.bks.cpg/sg22_25_cif.got.tgz:48995.got - 2010.06.03 23:40:54.
