data_PCOD9327824
_publ_section_title
;
Structure prediction by ZEFSAII (Michael W. Deem and Ramdas Pophale) SiO2 
 PCOD9327824
Probable space group: F 2 2 2
;
_chemical_formula_sum "Si O2"
_cell_formula_units_Z 96
_cell_length_a 17.221996
_cell_length_b 25.733012
_cell_length_c 11.228114
_cell_angle_alpha 90.000000
_cell_angle_beta 90.000000
_cell_angle_gamma 90.000000
_cell_volume 4976.006282
_symmetry_space_group_name_H-M "F 2 2 2"
_symmetry_group_IT_number 22
_symmetry_cell_setting 'orthorhombic'
loop_
_space_group_symop_operation_xyz
x,y,z
-x,-y,z
x,-y,-z
-x,y,-z
x,1/2+y,1/2+z
-x,1/2-y,1/2+z
x,1/2-y,1/2-z
-x,1/2+y,1/2-z
1/2+x,y,1/2+z
1/2-x,-y,1/2+z
1/2+x,-y,1/2-z
1/2-x,y,1/2-z
1/2+x,1/2+y,z
1/2-x,1/2-y,z
1/2+x,1/2-y,-z
1/2-x,1/2+y,-z
loop_
_atom_site_type_symbol
_atom_site_label
_atom_site_fract_x
_atom_site_fract_y
_atom_site_fract_z
Si Si1 0.196707 0.940423 0.006684
Si Si2 0.515748 0.689895 0.248910
Si Si3 0.832202 0.865232 0.216990
Si Si4 0.950782 0.591863 0.624447
Si Si5 0.000000 0.363172 0.000000
Si Si6 0.000000 0.000000 0.303697
Si Si7 0.372871 0.062486 0.056907
O O1 0.177043 0.904508 0.893189
O O2 0.290458 0.944237 0.009393
O O3 0.141079 0.917089 0.107180
O O4 0.169158 0.000000 0.000000
O O5 0.495039 0.750000 0.250000
O O6 0.601969 0.677497 0.199736
O O7 0.464303 0.649691 0.173678
O O8 0.514366 0.670878 0.384891
O O9 0.750000 0.840700 0.250000
O O10 0.854023 0.902185 0.327505
O O11 0.982225 0.549226 0.718504
O O12 0.000000 0.585590 0.500000
O O13 0.071225 0.402105 0.977552
O O14 0.924972 0.983878 0.384381
#
# Coordination Sequence:
#
# PCOD9327824 Si02
#       7
#    16  16  16  16   8   8  16
#     4  11  22  34  61  96 134 171 215 268 333 408
#     4  11  24  41  67  93 121 177 232 285 338 410
#     4   9  18  39  57  89 130 158 216 279 330 387
#     4  12  22  40  63  99 135 176 218 285 343 405
#     4  10  22  45  60  90 126 171 224 276 336 404
#     4  12  21  39  68  94 136 181 229 266 340 404
#     4  10  22  37  60  91 130 177 215 266 323 410
#
# _framework density 19.292580000000001
#
# number of rings (size 3 to 8) (size 9 to 14) (size 15 to 20)
#    0.000    1.333    5.000    2.250    3.500    0.333 
#    0.000    2.500    0.000    2.000    0.000    0.000 
#    0.000    0.000    0.000    0.000    0.000    0.000 
#
# Total GULP energy -133860.454113 kJ/mol
# GULP energy per Si atom -5577.518921 kJ/mol
# Density = 1.924867 g / cm^3
# Si number density = 19.292580 Si / 1000 Ang^3
#
#
#
# Elastic Constant Matrix: (Units=GPa)
#
#
# Indices 1 2 3 4 5 6 
#
# 1 143.0904 57.5087 36.5367 0.0000 0.0000 0.0000
# 2 57.5087 147.9816 41.7945 0.0000 0.0000 0.0000
# 3 36.5367 41.7945 70.2878 0.0000 0.0000 0.0000
# 4 0.0000 0.0000 0.0000 18.7399 0.0000 0.0000
# 5 0.0000 0.0000 0.0000 0.0000 32.6095 0.0000
# 6 0.0000 0.0000 0.0000 0.0000 0.0000 14.6546
#
#
#
# Elastic Compliance Matrix: (Units=1/GPa)
#
#
# Indices 1 2 3 4 5 6 
#
# 1 0.008795 -0.002556 -0.003052 0.000000 0.000000 0.000000
# 2 -0.002556 0.008864 -0.003942 0.000000 0.000000 0.000000
# 3 -0.003052 -0.003942 0.018158 0.000000 0.000000 0.000000
# 4 0.000000 0.000000 0.000000 0.053362 0.000000 0.000000
# 5 0.000000 0.000000 0.000000 0.000000 0.030666 0.000000
# 6 0.000000 0.000000 0.000000 0.000000 0.000000 0.068238
#
#
# Mechanical properties :
#
#
# Convention : Reuss Voigt Hill
#
# Bulk Modulus (GPa) = 59.82004 70.33771 65.07888
# Shear Modulus (GPa) = 23.50111 28.23547 25.86829
#
# Velocity S-wave (km/s) = 3.49398 3.82978 3.66572
# Velocity P-wave (km/s) = 6.88122 7.48958 7.19184
#
# Compressibility (1/GPa) = 0.01671680
#
# Stress axis : x y z
#
# Youngs Moduli (GPa) = 113.69896 112.81182 55.07260
#
# Poissons Ratio (x) = 0.28835 0.16808
# Poissons Ratio (y) = 0.29061 0.21711
# Poissons Ratio (z) = 0.34701 0.44473
#
# Static dielectric constant tensor:
#      x y z
#    x 1.737580 0.000000 0.000000 
#    y 0.000000 1.675700 0.000000 
#    z 0.000000 0.000000 1.716710 
# 
# From -- ./inp_files/21645.got.cif
#   From: 2010.05.17/outbox.cif.g08.bks.cpg/sg22_11_cif.got.tgz:21645.got - 2010.06.03 23:40:54.
