data_PCOD9327776
_publ_section_title
;
Structure prediction by ZEFSAII (Michael W. Deem and Ramdas Pophale) SiO2 
 PCOD9327776
Probable space group: F 2 2 2
;
_chemical_formula_sum "Si O2"
_cell_formula_units_Z 64
_cell_length_a 10.690188
_cell_length_b 24.542024
_cell_length_c 10.807102
_cell_angle_alpha 90.000000
_cell_angle_beta 90.000000
_cell_angle_gamma 90.000000
_cell_volume 2835.338858
_symmetry_space_group_name_H-M "F 2 2 2"
_symmetry_group_IT_number 22
_symmetry_cell_setting 'orthorhombic'
loop_
_space_group_symop_operation_xyz
x,y,z
-x,-y,z
x,-y,-z
-x,y,-z
x,1/2+y,1/2+z
-x,1/2-y,1/2+z
x,1/2-y,1/2-z
-x,1/2+y,1/2-z
1/2+x,y,1/2+z
1/2-x,-y,1/2+z
1/2+x,-y,1/2-z
1/2-x,y,1/2-z
1/2+x,1/2+y,z
1/2-x,1/2-y,z
1/2+x,1/2-y,-z
1/2-x,1/2+y,-z
loop_
_atom_site_type_symbol
_atom_site_label
_atom_site_fract_x
_atom_site_fract_y
_atom_site_fract_z
Si Si1 0.670472 0.106609 0.133768
Si Si2 0.427303 0.844408 0.760334
Si Si3 0.182359 0.000000 0.500000
Si Si4 0.250000 0.054731 0.250000
Si Si5 0.721905 0.808184 0.455255
O O1 0.750000 0.087029 0.250000
O O2 0.563142 0.146822 0.183726
O O3 0.761916 0.141658 0.047046
O O4 0.620132 0.054260 0.058925
O O5 0.369036 0.905021 0.749534
O O6 0.402377 0.815074 0.628968
O O7 0.336859 0.814806 0.858036
O O8 0.253445 0.977311 0.620955
O O9 0.750000 0.750000 0.515594
#
# Coordination Sequence:
#
# PCOD9327776 Si02
#       5
#    16  16   8   8  16
#     4  12  26  43  66 105 142 182 235 291 361 432
#     4  10  21  44  70  98 126 178 232 282 345 428
#     4  12  22  45  67 102 142 186 237 297 356 432
#     4  10  22  40  71  96 131 182 244 276 356 422
#     4  10  22  47  71  95 134 181 232 293 356 421
#
# _framework density 22.572257
#
# number of rings (size 3 to 8) (size 9 to 14) (size 15 to 20)
#    0.000    1.500    6.250    2.250    0.000    3.500 
#   13.500    1.250    0.000    0.000    0.000    0.000 
#    0.000    0.000    0.000    0.000    0.000    0.000 
#
# Total GULP energy -89255.027585 kJ/mol
# GULP energy per Si atom -5578.439224 kJ/mol
# Density = 2.252088 g / cm^3
# Si number density = 22.572257 Si / 1000 Ang^3
#
#
#
# Elastic Constant Matrix: (Units=GPa)
#
#
# Indices 1 2 3 4 5 6 
#
# 1 24.9582 -11.7886 13.9380 0.0000 0.0000 0.0000
# 2 -11.7886 111.5812 35.6102 0.0000 0.0000 0.0000
# 3 13.9380 35.6102 114.2948 0.0000 0.0000 0.0000
# 4 0.0000 0.0000 0.0000 25.4063 0.0000 0.0000
# 5 0.0000 0.0000 0.0000 0.0000 27.6915 0.0000
# 6 0.0000 0.0000 0.0000 0.0000 0.0000 13.7705
#
#
#
# Elastic Compliance Matrix: (Units=1/GPa)
#
#
# Indices 1 2 3 4 5 6 
#
# 1 0.048382 0.007767 -0.008320 0.000000 0.000000 0.000000
# 2 0.007767 0.011198 -0.004436 0.000000 0.000000 0.000000
# 3 -0.008320 -0.004436 0.011146 0.000000 0.000000 0.000000
# 4 0.000000 0.000000 0.000000 0.039360 0.000000 0.000000
# 5 0.000000 0.000000 0.000000 0.000000 0.036112 0.000000
# 6 0.000000 0.000000 0.000000 0.000000 0.000000 0.072619
#
#
# Mechanical properties :
#
#
# Convention : Reuss Voigt Hill
#
# Bulk Modulus (GPa) = 16.46156 36.26147 26.36152
# Shear Modulus (GPa) = 20.07667 27.57865 23.82766
#
# Velocity S-wave (km/s) = 2.98558 3.49921 3.25255
# Velocity P-wave (km/s) = 4.38105 5.69433 5.08031
#
# Compressibility (1/GPa) = 0.06074757
#
# Stress axis : x y z
#
# Youngs Moduli (GPa) = 20.66899 89.29841 89.71792
#
# Poissons Ratio (x) = -0.69356 0.74644
# Poissons Ratio (y) = -0.16053 0.39800
# Poissons Ratio (z) = 0.17196 0.39614
#
# Static dielectric constant tensor:
#      x y z
#    x 1.861370 0.000000 0.000000 
#    y 0.000000 1.852930 0.000000 
#    z 0.000000 0.000000 1.848420 
# 
# From -- ./inp_files/17940.got.cif
#   From: 2010.05.17/outbox.cif.g08.bks.cpg/sg22_9_cif.got.tgz:17940.got - 2010.06.03 23:40:54.
