data_PCOD9327653
_publ_section_title
;
Structure prediction by ZEFSAII (Michael W. Deem and Ramdas Pophale) SiO2 
 PCOD9327653
Probable space group: F 2 2 2
;
_chemical_formula_sum "Si O2"
_cell_formula_units_Z 104
_cell_length_a 24.075610
_cell_length_b 9.230724
_cell_length_c 23.059937
_cell_angle_alpha 90.000000
_cell_angle_beta 90.000000
_cell_angle_gamma 90.000000
_cell_volume 5124.732272
_symmetry_space_group_name_H-M "F 2 2 2"
_symmetry_group_IT_number 22
_symmetry_cell_setting 'orthorhombic'
loop_
_space_group_symop_operation_xyz
x,y,z
-x,-y,z
x,-y,-z
-x,y,-z
x,1/2+y,1/2+z
-x,1/2-y,1/2+z
x,1/2-y,1/2-z
-x,1/2+y,1/2-z
1/2+x,y,1/2+z
1/2-x,-y,1/2+z
1/2+x,-y,1/2-z
1/2-x,y,1/2-z
1/2+x,1/2+y,z
1/2-x,1/2-y,z
1/2+x,1/2-y,-z
1/2-x,1/2+y,-z
loop_
_atom_site_type_symbol
_atom_site_label
_atom_site_fract_x
_atom_site_fract_y
_atom_site_fract_z
Si Si1 0.094727 0.795913 0.684386
Si Si2 0.250000 0.250000 0.608170
Si Si3 0.917659 0.887065 0.549345
Si Si4 0.337636 0.052768 0.843645
Si Si5 0.097401 0.750000 0.250000
Si Si6 0.000000 0.500000 0.867048
Si Si7 0.357456 0.624219 0.046211
Si Si8 0.435427 0.522568 0.150747
O O1 0.088555 0.750000 0.750000
O O2 0.088883 0.640556 0.654711
O O3 0.151157 0.886960 0.674027
O O4 0.045820 0.910113 0.668045
O O5 0.277388 0.378209 0.646291
O O6 0.298758 0.181340 0.569602
O O7 0.869079 0.932695 0.594322
O O8 0.894208 0.748803 0.516691
O O9 0.930157 0.000000 0.500000
O O10 0.970139 0.882170 0.591848
O O11 0.367138 0.153628 0.795196
O O12 0.067156 0.629824 0.292024
O O13 0.396231 0.591915 0.101880
O O14 0.349503 0.500000 0.000000
O O15 0.500000 0.500000 0.135872
#
# Coordination Sequence:
#
# PCOD9327653 Si02
#       8
#    16   8  16  16   8   8  16  16
#     4  11  24  38  64 100 144 177 237 290 343 428
#     4  10  22  49  76  98 132 196 245 296 382 436
#     4  10  21  41  65  92 138 183 236 282 346 430
#     4  10  23  42  69  99 134 182 240 293 361 428
#     4  12  22  45  68 104 150 184 241 284 354 456
#     4  10  23  40  62  98 136 200 235 274 356 424
#     4  11  26  48  69 107 139 181 249 303 367 427
#     4  12  27  42  70 109 150 196 231 293 366 437
#
# _framework density 20.293742999999999
#
# number of rings (size 3 to 8) (size 9 to 14) (size 15 to 20)
#    0.000    1.231    4.615    1.154    8.615    3.077 
#    2.769    0.000    0.000    0.923    0.000    0.000 
#    0.000    0.000    0.000    0.000    0.000    0.000 
#
# Total GULP energy -144930.262057 kJ/mol
# GULP energy per Si atom -5574.240848 kJ/mol
# Density = 2.024755 g / cm^3
# Si number density = 20.293743 Si / 1000 Ang^3
#
#
#
# Elastic Constant Matrix: (Units=GPa)
#
#
# Indices 1 2 3 4 5 6 
#
# 1 112.5814 57.7103 39.1541 0.0000 0.0000 0.0000
# 2 57.7103 135.3758 30.6924 0.0000 0.0000 0.0000
# 3 39.1541 30.6924 80.1742 0.0000 0.0000 0.0000
# 4 0.0000 0.0000 0.0000 34.8393 0.0000 0.0000
# 5 0.0000 0.0000 0.0000 0.0000 11.3990 0.0000
# 6 0.0000 0.0000 0.0000 0.0000 0.0000 42.9827
#
#
#
# Elastic Compliance Matrix: (Units=1/GPa)
#
#
# Indices 1 2 3 4 5 6 
#
# 1 0.012707 -0.004391 -0.004525 0.000000 0.000000 0.000000
# 2 -0.004391 0.009606 -0.001533 0.000000 0.000000 0.000000
# 3 -0.004525 -0.001533 0.015269 0.000000 0.000000 0.000000
# 4 0.000000 0.000000 0.000000 0.028703 0.000000 0.000000
# 5 0.000000 0.000000 0.000000 0.000000 0.087727 0.000000
# 6 0.000000 0.000000 0.000000 0.000000 0.000000 0.023265
#
#
# Mechanical properties :
#
#
# Convention : Reuss Voigt Hill
#
# Bulk Modulus (GPa) = 59.93358 64.80500 62.36929
# Shear Modulus (GPa) = 24.54142 31.21586 27.87864
#
# Velocity S-wave (km/s) = 3.48129 3.92625 3.71044
# Velocity P-wave (km/s) = 6.76434 7.24960 7.01117
#
# Compressibility (1/GPa) = 0.01668514
#
# Stress axis : x y z
#
# Youngs Moduli (GPa) = 78.69690 104.09792 65.49066
#
# Poissons Ratio (x) = 0.45711 0.29632
# Poissons Ratio (y) = 0.34557 0.10040
# Poissons Ratio (z) = 0.35607 0.15959
#
# Static dielectric constant tensor:
#      x y z
#    x 1.722670 0.000000 0.000000 
#    y 0.000000 1.756670 0.000000 
#    z 0.000000 0.000000 1.700470 
# 
# From -- ./inp_files/50487.got.cif
#   From: 2010.05.17/outbox.cif.g08.bks.cpg/sg22_26_cif.got.tgz:50487.got - 2010.06.03 23:40:54.
