data_PCOD9327715
_publ_section_title
;
Structure prediction by ZEFSAII (Michael W. Deem and Ramdas Pophale) SiO2 
 PCOD9327715
Probable space group: F 2 2 2
;
_chemical_formula_sum "Si O2"
_cell_formula_units_Z 80
_cell_length_a 10.421962
_cell_length_b 22.916715
_cell_length_c 16.440643
_cell_angle_alpha 90.000000
_cell_angle_beta 90.000000
_cell_angle_gamma 90.000000
_cell_volume 3926.636037
_symmetry_space_group_name_H-M "F 2 2 2"
_symmetry_group_IT_number 22
_symmetry_cell_setting 'orthorhombic'
loop_
_space_group_symop_operation_xyz
x,y,z
-x,-y,z
x,-y,-z
-x,y,-z
x,1/2+y,1/2+z
-x,1/2-y,1/2+z
x,1/2-y,1/2-z
-x,1/2+y,1/2-z
1/2+x,y,1/2+z
1/2-x,-y,1/2+z
1/2+x,-y,1/2-z
1/2-x,y,1/2-z
1/2+x,1/2+y,z
1/2-x,1/2-y,z
1/2+x,1/2-y,-z
1/2-x,1/2+y,-z
loop_
_atom_site_type_symbol
_atom_site_label
_atom_site_fract_x
_atom_site_fract_y
_atom_site_fract_z
Si Si1 0.105063 0.825315 0.927535
Si Si2 0.406395 0.693009 0.577698
Si Si3 0.198727 0.497735 0.091232
Si Si4 0.986713 0.583181 0.849262
Si Si5 0.429417 0.444431 0.168165
O O1 0.259987 0.826569 0.945033
O O2 0.092785 0.759811 0.891854
O O3 0.070190 0.881396 0.873806
O O4 0.000000 0.827034 0.000000
O O5 0.500000 0.689731 0.500000
O O6 0.470330 0.649275 0.641552
O O7 0.079436 0.453032 0.090303
O O8 0.286040 0.467614 0.158789
O O9 0.152543 0.560997 0.122395
O O10 0.252993 0.500000 0.000000
O O11 0.013545 0.562937 0.757730
O O12 0.500000 0.500000 0.127208
#
# Coordination Sequence:
#
# PCOD9327715 Si02
#       5
#    16  16  16  16  16
#     4  10  24  41  62  95 127 167 214 267 329 379
#     4  10  21  42  69  90 121 168 222 269 307 387
#     4  11  23  39  61  92 124 170 220 255 309 387
#     4  11  22  39  65  89 124 165 214 267 313 375
#     4  12  26  39  60  94 137 166 203 270 331 383
#
# _framework density 20.373673
#
# number of rings (size 3 to 8) (size 9 to 14) (size 15 to 20)
#    0.000    1.200    4.000    3.000    2.800    0.800 
#    0.000    2.000    0.000    0.000    0.000    8.400 
#    0.000    0.000    0.000    0.000    0.000    0.000 
#
# Total GULP energy -111376.896249 kJ/mol
# GULP energy per Si atom -5568.844812 kJ/mol
# Density = 2.032730 g / cm^3
# Si number density = 20.373673 Si / 1000 Ang^3
#
#
#
# Elastic Constant Matrix: (Units=GPa)
#
#
# Indices 1 2 3 4 5 6 
#
# 1 53.2025 58.6532 40.1506 0.0000 0.0000 0.0000
# 2 58.6532 177.7718 56.6997 0.0000 0.0000 0.0000
# 3 40.1506 56.6997 89.2507 0.0000 0.0000 0.0000
# 4 0.0000 0.0000 0.0000 1590.5931 0.0000 0.0000
# 5 0.0000 0.0000 0.0000 0.0000 14.4565 0.0000
# 6 0.0000 0.0000 0.0000 0.0000 0.0000 39.6563
#
#
#
# Elastic Compliance Matrix: (Units=1/GPa)
#
#
# Indices 1 2 3 4 5 6 
#
# 1 0.036510 -0.008537 -0.011001 0.000000 0.000000 0.000000
# 2 -0.008537 0.009051 -0.001909 0.000000 0.000000 0.000000
# 3 -0.011001 -0.001909 0.017366 0.000000 0.000000 0.000000
# 4 0.000000 0.000000 0.000000 0.000629 0.000000 0.000000
# 5 0.000000 0.000000 0.000000 0.000000 0.069173 0.000000
# 6 0.000000 0.000000 0.000000 0.000000 0.000000 0.025217
#
#
# Mechanical properties :
#
#
# Convention : Reuss Voigt Hill
#
# Bulk Modulus (GPa) = 49.91950 70.13690 60.02820
# Shear Modulus (GPa) = 24.09424 339.92261 182.00843
#
# Velocity S-wave (km/s) = 3.44265 12.93083 9.46198
# Velocity P-wave (km/s) = 6.35276 16.04499 12.20244
#
# Compressibility (1/GPa) = 0.02003225
#
# Stress axis : x y z
#
# Youngs Moduli (GPa) = 27.38960 110.48614 57.58287
#
# Poissons Ratio (x) = 0.94325 0.63347
# Poissons Ratio (y) = 0.23383 0.10994
# Poissons Ratio (z) = 0.30131 0.21095
#
# Static dielectric constant tensor:
#      x y z
#    x -6.681450 0.000000 0.000000 
#    y 0.000000 1.782240 0.000000 
#    z 0.000000 0.000000 1.709580 
# 
# From -- ./inp_files/28116.got.cif
#   From: 2010.05.17/outbox.cif.g08.bks.cpg/sg22_15_cif.got.tgz:28116.got - 2010.06.03 23:40:54.
