data_PCOD9327070
_publ_section_title
;
Structure prediction by ZEFSAII (Michael W. Deem and Ramdas Pophale) SiO2 
 PCOD9327070
Probable space group: F 2 2 2
;
_chemical_formula_sum "Si O2"
_cell_formula_units_Z 112
_cell_length_a 29.564702
_cell_length_b 11.832664
_cell_length_c 14.673388
_cell_angle_alpha 90.000000
_cell_angle_beta 90.000000
_cell_angle_gamma 90.000000
_cell_volume 5133.179366
_symmetry_space_group_name_H-M "F 2 2 2"
_symmetry_group_IT_number 22
_symmetry_cell_setting 'orthorhombic'
loop_
_space_group_symop_operation_xyz
x,y,z
-x,-y,z
x,-y,-z
-x,y,-z
x,1/2+y,1/2+z
-x,1/2-y,1/2+z
x,1/2-y,1/2-z
-x,1/2+y,1/2-z
1/2+x,y,1/2+z
1/2-x,-y,1/2+z
1/2+x,-y,1/2-z
1/2-x,y,1/2-z
1/2+x,1/2+y,z
1/2-x,1/2-y,z
1/2+x,1/2-y,-z
1/2-x,1/2+y,-z
loop_
_atom_site_type_symbol
_atom_site_label
_atom_site_fract_x
_atom_site_fract_y
_atom_site_fract_z
Si Si1 0.320601 0.709742 0.402851
Si Si2 0.893920 0.108784 0.275219
Si Si3 0.236723 0.441683 0.599876
Si Si4 0.144718 0.795547 0.606468
Si Si5 0.443517 0.069668 0.091385
Si Si6 0.008915 0.126987 0.738478
Si Si7 0.329561 0.574331 0.787450
O O1 0.364044 0.693392 0.337360
O O2 0.285142 0.611782 0.375090
O O3 0.295985 0.830961 0.398521
O O4 0.332284 0.689726 0.508556
O O5 0.939928 0.147298 0.227654
O O6 0.917555 0.017497 0.342130
O O7 0.861292 0.035510 0.213000
O O8 0.237667 0.500000 0.500000
O O9 0.217504 0.533269 0.670243
O O10 0.092525 0.828373 0.589814
O O11 0.150643 0.670209 0.645886
O O12 0.167528 0.873529 0.685476
O O13 0.490785 0.109097 0.134605
O O14 0.447016 0.000000 0.000000
O O15 0.985500 0.250000 0.750000
O O16 0.000000 0.000000 0.778471
#
# Coordination Sequence:
#
# PCOD9327070 Si02
#       7
#    16  16  16  16  16  16  16
#     4  11  24  44  66  94 128 175 222 278 338 409
#     4  10  23  40  66  96 134 178 222 276 343 408
#     4  11  25  43  65  91 132 173 219 279 344 397
#     4  10  21  42  70  99 127 172 228 275 335 402
#     4  10  20  38  65 100 134 173 224 278 336 400
#     4  10  24  41  65 101 141 180 227 288 346 411
#     4  10  23  41  67  96 129 173 224 277 331 406
#
# _framework density 21.818836999999998
#
# number of rings (size 3 to 8) (size 9 to 14) (size 15 to 20)
#    0.000    1.714    2.857    0.000   12.000    3.143 
#    0.000    1.429    0.000    0.000    0.000    4.000 
#    0.000    0.000    0.000    0.000    0.000    0.000 
#
# Total GULP energy -155964.173357 kJ/mol
# GULP energy per Si atom -5570.149048 kJ/mol
# Density = 2.176918 g / cm^3
# Si number density = 21.818837 Si / 1000 Ang^3
#
#
#
# Elastic Constant Matrix: (Units=GPa)
#
#
# Indices 1 2 3 4 5 6 
#
# 1 102.8969 18.9971 32.2867 0.0000 0.0000 0.0000
# 2 18.9971 121.8745 8.0354 0.0000 0.0000 0.0000
# 3 32.2867 8.0354 73.7677 0.0000 0.0000 0.0000
# 4 0.0000 0.0000 0.0000 27.6300 0.0000 0.0000
# 5 0.0000 0.0000 0.0000 0.0000 60.9208 0.0000
# 6 0.0000 0.0000 0.0000 0.0000 0.0000 20.5886
#
#
#
# Elastic Compliance Matrix: (Units=1/GPa)
#
#
# Indices 1 2 3 4 5 6 
#
# 1 0.011523 -0.001474 -0.004883 0.000000 0.000000 0.000000
# 2 -0.001474 0.008453 -0.000276 0.000000 0.000000 0.000000
# 3 -0.004883 -0.000276 0.015723 0.000000 0.000000 0.000000
# 4 0.000000 0.000000 0.000000 0.036193 0.000000 0.000000
# 5 0.000000 0.000000 0.000000 0.000000 0.016415 0.000000
# 6 0.000000 0.000000 0.000000 0.000000 0.000000 0.048571
#
#
# Mechanical properties :
#
#
# Convention : Reuss Voigt Hill
#
# Bulk Modulus (GPa) = 44.57495 46.35303 45.46399
# Shear Modulus (GPa) = 31.72191 37.77587 34.74889
#
# Velocity S-wave (km/s) = 3.81711 4.16545 3.99508
# Velocity P-wave (km/s) = 6.31673 6.66523 6.49332
#
# Compressibility (1/GPa) = 0.02243413
#
# Stress axis : x y z
#
# Youngs Moduli (GPa) = 86.78516 118.29953 63.60055
#
# Poissons Ratio (x) = 0.17439 0.31054
# Poissons Ratio (y) = 0.12794 0.01753
# Poissons Ratio (z) = 0.42374 0.03260
#
# Static dielectric constant tensor:
#      x y z
#    x 1.941560 0.000000 0.000000 
#    y 0.000000 1.889930 0.000000 
#    z 0.000000 0.000000 1.778770 
# 
# From -- ./inp_files/33533.got.cif
#   From: 2010.05.17/outbox.cif.g08.bks.cpg/sg22_17_cif.got.tgz:33533.got - 2010.06.03 23:40:54.
