data_PCOD9327437
_publ_section_title
;
Structure prediction by ZEFSAII (Michael W. Deem and Ramdas Pophale) SiO2 
 PCOD9327437
Probable space group: F 2 2 2
;
_chemical_formula_sum "Si O2"
_cell_formula_units_Z 64
_cell_length_a 17.293344
_cell_length_b 17.609676
_cell_length_c 9.228181
_cell_angle_alpha 90.000000
_cell_angle_beta 90.000000
_cell_angle_gamma 90.000000
_cell_volume 2810.259665
_symmetry_space_group_name_H-M "F 2 2 2"
_symmetry_group_IT_number 22
_symmetry_cell_setting 'orthorhombic'
loop_
_space_group_symop_operation_xyz
x,y,z
-x,-y,z
x,-y,-z
-x,y,-z
x,1/2+y,1/2+z
-x,1/2-y,1/2+z
x,1/2-y,1/2-z
-x,1/2+y,1/2-z
1/2+x,y,1/2+z
1/2-x,-y,1/2+z
1/2+x,-y,1/2-z
1/2-x,y,1/2-z
1/2+x,1/2+y,z
1/2-x,1/2-y,z
1/2+x,1/2-y,-z
1/2-x,1/2+y,-z
loop_
_atom_site_type_symbol
_atom_site_label
_atom_site_fract_x
_atom_site_fract_y
_atom_site_fract_z
Si Si1 0.436602 0.312207 0.125143
Si Si2 0.814864 0.685841 0.609170
Si Si3 0.159924 0.574404 0.800497
Si Si4 0.167547 0.399919 0.876354
O O1 0.453668 0.250000 0.250000
O O2 0.404227 0.389365 0.196627
O O3 0.500000 0.322868 0.000000
O O4 0.363421 0.289964 0.026839
O O5 0.750000 0.750000 0.617246
O O6 0.860055 0.662102 0.756819
O O7 0.760272 0.611315 0.598269
O O8 0.250000 0.590770 0.750000
O O9 0.152302 0.484012 0.818811
O O10 0.139359 0.607571 0.959778
#
# Coordination Sequence:
#
# PCOD9327437 Si02
#       4
#    16  16  16  16
#     4  12  30  49  70 103 155 205 256 318 399 458
#     4  11  22  40  72 110 145 198 254 320 374 447
#     4  11  21  42  73 108 148 192 250 315 372 446
#     4  10  21  37  73 112 147 179 253 321 356 435
#
# _framework density 22.773698
#
# number of rings (size 3 to 8) (size 9 to 14) (size 15 to 20)
#    0.000    1.000    5.000    3.000    0.000    7.000 
#    0.000    2.500    0.000    3.000    0.000    0.000 
#    0.000    0.000    0.000    0.000    0.000    0.000 
#
# Total GULP energy -89097.409619 kJ/mol
# GULP energy per Si atom -5568.588101 kJ/mol
# Density = 2.272186 g / cm^3
# Si number density = 22.773698 Si / 1000 Ang^3
#
#
#
# Elastic Constant Matrix: (Units=GPa)
#
#
# Indices 1 2 3 4 5 6 
#
# 1 65.9402 46.3955 55.6270 0.0000 0.0000 0.0000
# 2 46.3955 136.8986 76.6967 0.0000 0.0000 0.0000
# 3 55.6270 76.6967 190.0192 0.0000 0.0000 0.0000
# 4 0.0000 0.0000 0.0000 34.8057 0.0000 0.0000
# 5 0.0000 0.0000 0.0000 0.0000 53.6042 0.0000
# 6 0.0000 0.0000 0.0000 0.0000 0.0000 5.4210
#
#
#
# Elastic Compliance Matrix: (Units=1/GPa)
#
#
# Indices 1 2 3 4 5 6 
#
# 1 0.022602 -0.005108 -0.004555 0.000000 0.000000 0.000000
# 2 -0.005108 0.010594 -0.002780 0.000000 0.000000 0.000000
# 3 -0.004555 -0.002780 0.007718 0.000000 0.000000 0.000000
# 4 0.000000 0.000000 0.000000 0.028731 0.000000 0.000000
# 5 0.000000 0.000000 0.000000 0.000000 0.018655 0.000000
# 6 0.000000 0.000000 0.000000 0.000000 0.000000 0.184468
#
#
# Mechanical properties :
#
#
# Convention : Reuss Voigt Hill
#
# Bulk Modulus (GPa) = 62.39497 83.36627 72.88062
# Shear Modulus (GPa) = 16.50185 33.04210 24.77198
#
# Velocity S-wave (km/s) = 2.69476 3.81319 3.30168
# Velocity P-wave (km/s) = 6.09423 7.48819 6.82688
#
# Compressibility (1/GPa) = 0.01602693
#
# Stress axis : x y z
#
# Youngs Moduli (GPa) = 44.24459 94.39696 129.56236
#
# Poissons Ratio (x) = 0.48218 0.59013
# Poissons Ratio (y) = 0.22600 0.36025
# Poissons Ratio (z) = 0.20152 0.26247
#
# Static dielectric constant tensor:
#      x y z
#    x 1.993320 0.000000 0.000000 
#    y 0.000000 1.914470 0.000000 
#    z 0.000000 0.000000 2.082390 
# 
# From -- ./inp_files/21003.got.cif
#   From: 2010.05.17/outbox.cif.g08.bks.cpg/sg22_11_cif.got.tgz:21003.got - 2010.06.03 23:40:54.
