data_PCOD9327736
_publ_section_title
;
Structure prediction by ZEFSAII (Michael W. Deem and Ramdas Pophale) SiO2 
 PCOD9327736
Probable space group: F 2 2 2
;
_chemical_formula_sum "Si O2"
_cell_formula_units_Z 104
_cell_length_a 21.926083
_cell_length_b 9.233782
_cell_length_c 25.265868
_cell_angle_alpha 90.000000
_cell_angle_beta 90.000000
_cell_angle_gamma 90.000000
_cell_volume 5115.344577
_symmetry_space_group_name_H-M "F 2 2 2"
_symmetry_group_IT_number 22
_symmetry_cell_setting 'orthorhombic'
loop_
_space_group_symop_operation_xyz
x,y,z
-x,-y,z
x,-y,-z
-x,y,-z
x,1/2+y,1/2+z
-x,1/2-y,1/2+z
x,1/2-y,1/2-z
-x,1/2+y,1/2-z
1/2+x,y,1/2+z
1/2-x,-y,1/2+z
1/2+x,-y,1/2-z
1/2-x,y,1/2-z
1/2+x,1/2+y,z
1/2-x,1/2-y,z
1/2+x,1/2-y,-z
1/2-x,1/2+y,-z
loop_
_atom_site_type_symbol
_atom_site_label
_atom_site_fract_x
_atom_site_fract_y
_atom_site_fract_z
Si Si1 0.572914 0.480278 0.937251
Si Si2 0.500000 0.000000 0.268241
Si Si3 0.374499 0.735027 0.637374
Si Si4 0.302171 0.020061 0.831355
Si Si5 0.617125 0.780051 0.634980
Si Si6 0.998330 0.705080 0.176278
Si Si7 0.834004 0.496586 0.708695
O O1 0.500000 0.500000 0.923597
O O2 0.601019 0.332998 0.911491
O O3 0.615411 0.605141 0.911859
O O4 0.576541 0.500000 0.000000
O O5 0.479554 0.129849 0.307000
O O6 0.526005 0.111215 0.223785
O O7 0.320509 0.618053 0.633081
O O8 0.433805 0.646433 0.656842
O O9 0.352100 0.843488 0.683778
O O10 0.331082 0.161427 0.858059
O O11 0.230823 0.034684 0.818292
O O12 0.329416 0.996777 0.771824
O O13 0.550651 0.709272 0.633273
O O14 0.619752 0.881658 0.687606
#
# Coordination Sequence:
#
# PCOD9327736 Si02
#       7
#    16   8  16  16  16  16  16
#     4  10  21  43  64  85 115 152 195 247 314 383
#     4  10  22  28  44  70 122 152 172 224 286 344
#     4  11  22  36  60  84 117 150 202 244 287 355
#     4  11  23  38  56  86 123 164 200 237 276 336
#     4  11  22  36  60  84 117 150 202 244 287 355
#     4  11  22  32  48  85 111 150 194 233 295 349
#     4  10  23  38  56  83 122 173 200 220 277 346
#
# _framework density 20.330985999999999
#
# number of rings (size 3 to 8) (size 9 to 14) (size 15 to 20)
#    0.000    1.385    1.538    4.615   12.923    2.462 
#    0.000    0.769    0.000   16.615    0.000    0.000 
#    0.000    0.000    0.000    0.000    0.000    0.000 
#
# Total GULP energy -144777.368358 kJ/mol
# GULP energy per Si atom -5568.360321 kJ/mol
# Density = 2.028471 g / cm^3
# Si number density = 20.330986 Si / 1000 Ang^3
#
#
#
# Elastic Constant Matrix: (Units=GPa)
#
#
# Indices 1 2 3 4 5 6 
#
# 1 84.7498 29.7063 22.6720 0.0000 0.0000 0.0000
# 2 29.7063 121.3212 29.8051 0.0000 0.0000 0.0000
# 3 22.6720 29.8051 94.0316 0.0000 0.0000 0.0000
# 4 0.0000 0.0000 0.0000 12.9098 0.0000 0.0000
# 5 0.0000 0.0000 0.0000 0.0000 26.0327 0.0000
# 6 0.0000 0.0000 0.0000 0.0000 0.0000 26.9061
#
#
#
# Elastic Compliance Matrix: (Units=1/GPa)
#
#
# Indices 1 2 3 4 5 6 
#
# 1 0.013378 -0.002693 -0.002372 0.000000 0.000000 0.000000
# 2 -0.002693 0.009481 -0.002356 0.000000 0.000000 0.000000
# 3 -0.002372 -0.002356 0.011953 0.000000 0.000000 0.000000
# 4 0.000000 0.000000 0.000000 0.077461 0.000000 0.000000
# 5 0.000000 0.000000 0.000000 0.000000 0.038413 0.000000
# 6 0.000000 0.000000 0.000000 0.000000 0.000000 0.037166
#
#
# Mechanical properties :
#
#
# Convention : Reuss Voigt Hill
#
# Bulk Modulus (GPa) = 50.07374 51.60769 50.84072
# Shear Modulus (GPa) = 23.88340 27.69766 25.79053
#
# Velocity S-wave (km/s) = 3.43115 3.69499 3.56551
# Velocity P-wave (km/s) = 6.35451 6.60627 6.48161
#
# Compressibility (1/GPa) = 0.01997055
#
# Stress axis : x y z
#
# Youngs Moduli (GPa) = 74.75011 105.47726 83.65860
#
# Poissons Ratio (x) = 0.28404 0.19844
# Poissons Ratio (y) = 0.20130 0.19708
# Poissons Ratio (z) = 0.17731 0.24848
#
# Static dielectric constant tensor:
#      x y z
#    x 1.837980 0.000000 0.000000 
#    y 0.000000 1.822940 0.000000 
#    z 0.000000 0.000000 1.704300 
# 
# From -- ./inp_files/54182.got.cif
#   From: 2010.05.17/outbox.cif.g08.bks.cpg/sg22_28_cif.got.tgz:54182.got - 2010.06.03 23:40:54.
