data_PCOD9327658
_publ_section_title
;
Structure prediction by ZEFSAII (Michael W. Deem and Ramdas Pophale) SiO2 
 PCOD9327658
Probable space group: F 2 2 2
;
_chemical_formula_sum "Si O2"
_cell_formula_units_Z 68
_cell_length_a 18.903308
_cell_length_b 7.995039
_cell_length_c 19.416182
_cell_angle_alpha 90.000000
_cell_angle_beta 90.000000
_cell_angle_gamma 90.000000
_cell_volume 2934.419712
_symmetry_space_group_name_H-M "F 2 2 2"
_symmetry_group_IT_number 22
_symmetry_cell_setting 'orthorhombic'
loop_
_space_group_symop_operation_xyz
x,y,z
-x,-y,z
x,-y,-z
-x,y,-z
x,1/2+y,1/2+z
-x,1/2-y,1/2+z
x,1/2-y,1/2-z
-x,1/2+y,1/2-z
1/2+x,y,1/2+z
1/2-x,-y,1/2+z
1/2+x,-y,1/2-z
1/2-x,y,1/2-z
1/2+x,1/2+y,z
1/2-x,1/2-y,z
1/2+x,1/2-y,-z
1/2-x,1/2+y,-z
loop_
_atom_site_type_symbol
_atom_site_label
_atom_site_fract_x
_atom_site_fract_y
_atom_site_fract_z
Si Si1 0.750000 0.750000 0.250000
Si Si2 0.978639 0.801572 0.076102
Si Si3 0.207052 0.924625 0.433658
Si Si4 0.165247 0.091315 0.128356
Si Si5 0.602881 0.232433 0.167883
O O1 0.802265 0.850100 0.200113
O O2 0.896011 0.797226 0.094858
O O3 0.025720 0.712721 0.134270
O O4 0.000000 0.000000 0.076738
O O5 0.000000 0.741104 0.000000
O O6 0.250000 0.750000 0.443548
O O7 0.156914 0.898379 0.367204
O O8 0.167769 0.000000 0.500000
O O9 0.267740 0.060035 0.419461
O O10 0.131241 0.910281 0.140906
O O11 0.601789 0.250000 0.250000
#
# Coordination Sequence:
#
# PCOD9327658 Si02
#       5
#     4  16  16  16  16
#     4  12  24  36  62  96 140 164 222 280 344 404
#     4   9  20  37  64  88 122 168 225 264 325 407
#     4  10  23  39  68  99 132 173 228 279 338 401
#     4  10  23  38  61  94 128 173 219 275 338 404
#     4  10  21  41  66  92 130 175 224 272 340 408
#
# _framework density 23.173237
#
# number of rings (size 3 to 8) (size 9 to 14) (size 15 to 20)
#    0.000    2.118    0.000    1.412   13.176    3.294 
#    0.000    0.000    0.000    0.000    0.000    0.000 
#    0.000    0.000    0.000    0.000    0.000    0.000 
#
# Total GULP energy -94999.645964 kJ/mol
# GULP energy per Si atom -5588.214468 kJ/mol
# Density = 2.312049 g / cm^3
# Si number density = 23.173237 Si / 1000 Ang^3
#
#
#
# Elastic Constant Matrix: (Units=GPa)
#
#
# Indices 1 2 3 4 5 6 
#
# 1 176.5828 36.2961 90.3754 0.0000 0.0000 0.0000
# 2 36.2961 48.4683 21.7173 0.0000 0.0000 0.0000
# 3 90.3754 21.7173 183.4907 0.0000 0.0000 0.0000
# 4 0.0000 0.0000 0.0000 19.4090 0.0000 0.0000
# 5 0.0000 0.0000 0.0000 0.0000 30.5620 0.0000
# 6 0.0000 0.0000 0.0000 0.0000 0.0000 -0.4840
#
#
#
# Elastic Compliance Matrix: (Units=1/GPa)
#
#
# Indices 1 2 3 4 5 6 
#
# 1 0.008490 -0.004735 -0.003621 0.000000 0.000000 0.000000
# 2 -0.004735 0.024428 -0.000559 0.000000 0.000000 0.000000
# 3 -0.003621 -0.000559 0.007299 0.000000 0.000000 0.000000
# 4 0.000000 0.000000 0.000000 0.051523 0.000000 0.000000
# 5 0.000000 0.000000 0.000000 0.000000 0.032720 0.000000
# 6 0.000000 0.000000 0.000000 0.000000 0.000000 -2.065919
#
#
# Mechanical properties :
#
#
# Convention : Reuss Voigt Hill
#
# Bulk Modulus (GPa) = 44.66825 78.36884 61.51854
# Shear Modulus (GPa) = -2.60938 27.24092 12.31577
#
# Velocity S-wave (km/s) = -1.06230 3.43233 2.30785
# Velocity P-wave (km/s) = 4.22055 7.04272 5.80573
#
# Compressibility (1/GPa) = 0.02238727
#
# Stress axis : x y z
#
# Youngs Moduli (GPa) = 117.79158 40.93584 136.99583
#
# Poissons Ratio (x) = 0.19383 0.49606
# Poissons Ratio (y) = 0.55775 0.07659
# Poissons Ratio (z) = 0.42652 0.02289
#
# Static dielectric constant tensor:
#      x y z
#    x 1.902600 0.000000 0.000000 
#    y 0.000000 1.937130 0.000000 
#    z 0.000000 0.000000 1.906580 
# 
# From -- ./inp_files/11249.got.cif
#   From: 2010.05.17/outbox.cif.g08.bks.cpg/sg22_6_cif.got.tgz:11249.got - 2010.06.03 23:40:54.
