data_PCOD9327189
_publ_section_title
;
Structure prediction by ZEFSAII (Michael W. Deem and Ramdas Pophale) SiO2 
 PCOD9327189
Probable space group: F 2 2 2
;
_chemical_formula_sum "Si O2"
_cell_formula_units_Z 84
_cell_length_a 14.131675
_cell_length_b 13.870773
_cell_length_c 19.515424
_cell_angle_alpha 90.000000
_cell_angle_beta 90.000000
_cell_angle_gamma 90.000000
_cell_volume 3825.359863
_symmetry_space_group_name_H-M "F 2 2 2"
_symmetry_group_IT_number 22
_symmetry_cell_setting 'orthorhombic'
loop_
_space_group_symop_operation_xyz
x,y,z
-x,-y,z
x,-y,-z
-x,y,-z
x,1/2+y,1/2+z
-x,1/2-y,1/2+z
x,1/2-y,1/2-z
-x,1/2+y,1/2-z
1/2+x,y,1/2+z
1/2-x,-y,1/2+z
1/2+x,-y,1/2-z
1/2-x,y,1/2-z
1/2+x,1/2+y,z
1/2-x,1/2-y,z
1/2+x,1/2-y,-z
1/2-x,1/2+y,-z
loop_
_atom_site_type_symbol
_atom_site_label
_atom_site_fract_x
_atom_site_fract_y
_atom_site_fract_z
Si Si1 0.750000 0.059432 0.250000
Si Si2 0.000000 0.000000 0.670824
Si Si3 0.840239 0.595189 0.345895
Si Si4 0.595013 0.323496 0.310668
Si Si5 0.969773 0.732507 0.424601
Si Si6 0.846108 0.429634 0.933653
Si Si7 0.750000 0.250000 0.750000
O O1 0.696443 0.125170 0.194503
O O2 0.825056 0.994127 0.207124
O O3 0.910580 0.015975 0.622148
O O4 0.017052 0.096881 0.710486
O O5 0.930845 0.638387 0.384819
O O6 0.758720 0.581019 0.403406
O O7 0.812416 0.684428 0.298093
O O8 0.596495 0.250000 0.250000
O O9 0.556315 0.278384 0.380751
O O10 0.894659 0.822357 0.436225
O O11 0.000000 0.703296 0.500000
O O12 0.849281 0.500000 0.000000
#
# Coordination Sequence:
#
# PCOD9327189 Si02
#       7
#     8   8  16  16  16  16   4
#     4  11  25  47  71 112 142 188 250 310 374 436
#     4  10  21  40  64 112 137 186 244 304 356 440
#     4  11  23  41  73 103 144 191 245 311 370 439
#     4  11  25  43  74 104 148 192 244 309 372 435
#     4  11  25  44  70 109 146 196 248 301 376 458
#     4  11  20  40  69 101 141 190 246 306 363 442
#     4  10  20  40  66 104 134 174 248 292 354 428
#
# _framework density 21.958718000000001
#
# number of rings (size 3 to 8) (size 9 to 14) (size 15 to 20)
#    0.000    1.143    3.810    2.857    4.000    0.000 
#    3.429    1.905    0.000    0.000    0.000    0.000 
#    0.000    0.000    0.000    0.000    0.000    0.000 
#
# Total GULP energy -117162.616562 kJ/mol
# GULP energy per Si atom -5579.172217 kJ/mol
# Density = 2.190874 g / cm^3
# Si number density = 21.958718 Si / 1000 Ang^3
#
#
#
# Elastic Constant Matrix: (Units=GPa)
#
#
# Indices 1 2 3 4 5 6 
#
# 1 73.4750 32.9079 37.0875 0.0000 0.0000 0.0000
# 2 32.9079 91.3765 50.5405 0.0000 0.0000 0.0000
# 3 37.0875 50.5405 100.9905 0.0000 0.0000 0.0000
# 4 0.0000 0.0000 0.0000 -4.6428 0.0000 0.0000
# 5 0.0000 0.0000 0.0000 0.0000 326.4493 0.0000
# 6 0.0000 0.0000 0.0000 0.0000 0.0000 9.5907
#
#
#
# Elastic Compliance Matrix: (Units=1/GPa)
#
#
# Indices 1 2 3 4 5 6 
#
# 1 0.017624 -0.003826 -0.004557 0.000000 0.000000 0.000000
# 2 -0.003826 0.015963 -0.006583 0.000000 0.000000 0.000000
# 3 -0.004557 -0.006583 0.014870 0.000000 0.000000 0.000000
# 4 0.000000 0.000000 0.000000 -0.215389 0.000000 0.000000
# 5 0.000000 0.000000 0.000000 0.000000 0.003063 0.000000
# 6 0.000000 0.000000 0.000000 0.000000 0.000000 0.104268
#
#
# Mechanical properties :
#
#
# Convention : Reuss Voigt Hill
#
# Bulk Modulus (GPa) = 53.98685 56.32377 55.15531
# Shear Modulus (GPa) = -212.83867 75.96653 -68.43607
#
# Velocity S-wave (km/s) = -9.85582 5.88815 -5.58869
# Velocity P-wave (km/s) = 10.24096 8.48131 4.05861
#
# Compressibility (1/GPa) = 0.01852303
#
# Stress axis : x y z
#
# Youngs Moduli (GPa) = 56.74007 62.64450 67.24847
#
# Poissons Ratio (x) = 0.23971 0.30647
# Poissons Ratio (y) = 0.21711 0.44273
# Poissons Ratio (z) = 0.25858 0.41242
#
# Static dielectric constant tensor:
#      x y z
#    x 1.885830 0.000000 0.000000 
#    y 0.000000 1.866900 0.000000 
#    z 0.000000 0.000000 1.277140 
# 
# From -- ./inp_files/43426.got.cif
#   From: 2010.05.17/outbox.cif.g08.bks.cpg/sg22_22_cif.got.tgz:43426.got - 2010.06.03 23:40:54.
