data_PCOD9327893
_publ_section_title
;
Structure prediction by ZEFSAII (Michael W. Deem and Ramdas Pophale) SiO2 
 PCOD9327893
Probable space group: F 2 2 2
;
_chemical_formula_sum "Si O2"
_cell_formula_units_Z 96
_cell_length_a 17.433790
_cell_length_b 21.957127
_cell_length_c 11.916412
_cell_angle_alpha 90.000000
_cell_angle_beta 90.000000
_cell_angle_gamma 90.000000
_cell_volume 4561.554146
_symmetry_space_group_name_H-M "F 2 2 2"
_symmetry_group_IT_number 22
_symmetry_cell_setting 'orthorhombic'
loop_
_space_group_symop_operation_xyz
x,y,z
-x,-y,z
x,-y,-z
-x,y,-z
x,1/2+y,1/2+z
-x,1/2-y,1/2+z
x,1/2-y,1/2-z
-x,1/2+y,1/2-z
1/2+x,y,1/2+z
1/2-x,-y,1/2+z
1/2+x,-y,1/2-z
1/2-x,y,1/2-z
1/2+x,1/2+y,z
1/2-x,1/2-y,z
1/2+x,1/2-y,-z
1/2-x,1/2+y,-z
loop_
_atom_site_type_symbol
_atom_site_label
_atom_site_fract_x
_atom_site_fract_y
_atom_site_fract_z
Si Si1 0.179745 0.957203 0.904028
Si Si2 0.849177 0.698720 0.976363
Si Si3 0.328250 0.334812 0.963388
Si Si4 0.553594 0.609802 0.392953
Si Si5 0.351554 0.997957 0.838521
Si Si6 0.407864 0.629827 0.272017
O O1 0.267680 0.980270 0.884701
O O2 0.142221 0.970098 0.785829
O O3 0.171168 0.888790 0.946315
O O4 0.145820 0.000000 0.000000
O O5 0.761778 0.680348 0.947540
O O6 0.860610 0.769734 0.002040
O O7 0.891270 0.683940 0.859198
O O8 0.878777 0.657826 0.080560
O O9 0.370884 0.356612 0.849140
O O10 0.500000 0.619511 0.500000
O O11 0.587092 0.542345 0.402677
O O12 0.499294 0.618395 0.284469
O O13 0.367183 0.069382 0.825165
#
# Coordination Sequence:
#
# PCOD9327893 Si02
#       6
#    16  16  16  16  16  16
#     4  11  22  39  65  96 131 163 218 272 329 387
#     4  10  22  39  64  94 132 169 223 273 323 383
#     4  11  21  41  66  95 128 174 221 276 326 388
#     4  10  23  42  62  94 133 171 216 269 332 398
#     4  11  23  38  65  98 129 170 212 269 334 395
#     4  11  22  37  64  99 130 168 222 273 334 396
#
# _framework density 21.045458
#
# number of rings (size 3 to 8) (size 9 to 14) (size 15 to 20)
#    0.000    1.333    3.333    2.500    4.667    3.333 
#    0.000   10.000    0.000    0.000    0.000    0.000 
#    0.000    0.000    0.000    0.000    0.000    0.000 
#
# Total GULP energy -133921.686719 kJ/mol
# GULP energy per Si atom -5580.070280 kJ/mol
# Density = 2.099756 g / cm^3
# Si number density = 21.045458 Si / 1000 Ang^3
#
#
#
# Elastic Constant Matrix: (Units=GPa)
#
#
# Indices 1 2 3 4 5 6 
#
# 1 66.6788 22.0854 14.3830 0.0000 0.0000 0.0000
# 2 22.0854 147.9534 38.4803 0.0000 0.0000 0.0000
# 3 14.3830 38.4803 89.0108 0.0000 0.0000 0.0000
# 4 0.0000 0.0000 0.0000 33.4956 0.0000 0.0000
# 5 0.0000 0.0000 0.0000 0.0000 2.9363 0.0000
# 6 0.0000 0.0000 0.0000 0.0000 0.0000 -0.0119
#
#
#
# Elastic Compliance Matrix: (Units=1/GPa)
#
#
# Indices 1 2 3 4 5 6 
#
# 1 0.016016 -0.001935 -0.001751 0.000000 0.000000 0.000000
# 2 -0.001935 0.007849 -0.003080 0.000000 0.000000 0.000000
# 3 -0.001751 -0.003080 0.012849 0.000000 0.000000 0.000000
# 4 0.000000 0.000000 0.000000 0.029855 0.000000 0.000000
# 5 0.000000 0.000000 0.000000 0.000000 0.340565 0.000000
# 6 0.000000 0.000000 0.000000 0.000000 0.000000-84.089633
#
#
# Mechanical properties :
#
#
# Convention : Reuss Voigt Hill
#
# Bulk Modulus (GPa) = 43.14040 50.39339 46.76690
# Shear Modulus (GPa) = -0.05976 22.53028 11.23526
#
# Velocity S-wave (km/s) = -0.16870 3.27548 2.31304
# Velocity P-wave (km/s) = 4.52827 6.18886 5.42251
#
# Compressibility (1/GPa) = 0.02318013
#
# Stress axis : x y z
#
# Youngs Moduli (GPa) = 62.43740 127.40563 77.82517
#
# Poissons Ratio (x) = 0.24656 0.13630
# Poissons Ratio (y) = 0.12083 0.23974
# Poissons Ratio (z) = 0.10935 0.39247
#
# Static dielectric constant tensor:
#      x y z
#    x 1.825230 0.000000 0.000000 
#    y 0.000000 1.767420 0.000000 
#    z 0.000000 0.000000 2.561590 
# 
# From -- ./inp_files/21594.got.cif
#   From: 2010.05.17/outbox.cif.g08.bks.cpg/sg22_11_cif.got.tgz:21594.got - 2010.06.03 23:40:54.
