data_PCOD9327246
_publ_section_title
;
Structure prediction by ZEFSAII (Michael W. Deem and Ramdas Pophale) SiO2 
 PCOD9327246
Probable space group: F 2 2 2
;
_chemical_formula_sum "Si O2"
_cell_formula_units_Z 80
_cell_length_a 31.351309
_cell_length_b 15.709623
_cell_length_c 8.734596
_cell_angle_alpha 90.000000
_cell_angle_beta 90.000000
_cell_angle_gamma 90.000000
_cell_volume 4301.939158
_symmetry_space_group_name_H-M "F 2 2 2"
_symmetry_group_IT_number 22
_symmetry_cell_setting 'orthorhombic'
loop_
_space_group_symop_operation_xyz
x,y,z
-x,-y,z
x,-y,-z
-x,y,-z
x,1/2+y,1/2+z
-x,1/2-y,1/2+z
x,1/2-y,1/2-z
-x,1/2+y,1/2-z
1/2+x,y,1/2+z
1/2-x,-y,1/2+z
1/2+x,-y,1/2-z
1/2-x,y,1/2-z
1/2+x,1/2+y,z
1/2-x,1/2-y,z
1/2+x,1/2-y,-z
1/2-x,1/2+y,-z
loop_
_atom_site_type_symbol
_atom_site_label
_atom_site_fract_x
_atom_site_fract_y
_atom_site_fract_z
Si Si1 0.946439 0.551241 0.156601
Si Si2 0.582804 0.750000 0.750000
Si Si3 0.303198 0.500000 0.500000
Si Si4 0.631793 0.352743 0.509941
Si Si5 0.814353 0.750000 0.250000
Si Si6 0.023427 0.603583 0.339164
Si Si7 0.250000 0.603021 0.750000
O O1 0.903601 0.602838 0.120250
O O2 0.947929 0.477516 0.286673
O O3 0.986137 0.609152 0.209921
O O4 0.954062 0.500000 0.000000
O O5 0.609579 0.694334 0.630684
O O6 0.552691 0.685525 0.841578
O O7 0.335421 0.575341 0.449993
O O8 0.273224 0.543161 0.627179
O O9 0.657626 0.286303 0.612652
O O10 0.785635 0.670482 0.307956
O O11 0.000000 0.593131 0.500000
#
# Coordination Sequence:
#
# PCOD9327246 Si02
#       7
#    16   8   8  16   8  16   8
#     4  11  21  41  61  80 114 168 205 255 299 357
#     4  12  26  37  56  92 126 158 208 260 314 345
#     4  10  20  42  68  91 118 160 196 231 308 372
#     4  11  23  40  62  89 125 159 197 253 308 357
#     4   9  22  41  62  91 124 154 192 243 304 365
#     4  11  25  38  58  85 116 162 222 258 299 355
#     4   9  20  40  68  95 118 154 194 233 296 386
#
# _framework density 18.596264000000001
#
# number of rings (size 3 to 8) (size 9 to 14) (size 15 to 20)
#    0.000    1.400    3.000    2.400    5.600    1.600 
#    0.000    0.000    0.000    0.000    0.000    0.000 
#    0.000    0.000    0.000    0.000    0.000    0.000 
#
# Total GULP energy -111516.239152 kJ/mol
# GULP energy per Si atom -5575.811958 kJ/mol
# Density = 1.855394 g / cm^3
# Si number density = 18.596264 Si / 1000 Ang^3
#
#
#
# Elastic Constant Matrix: (Units=GPa)
#
#
# Indices 1 2 3 4 5 6 
#
# 1 131.5365 86.5001 65.2338 0.0000 0.0000 0.0000
# 2 86.5001 140.8155 74.4892 0.0000 0.0000 0.0000
# 3 65.2338 74.4892 106.8431 0.0000 0.0000 0.0000
# 4 0.0000 0.0000 0.0000 25.4585 0.0000 0.0000
# 5 0.0000 0.0000 0.0000 0.0000 24.7251 0.0000
# 6 0.0000 0.0000 0.0000 0.0000 0.0000 22.3498
#
#
#
# Elastic Compliance Matrix: (Units=1/GPa)
#
#
# Indices 1 2 3 4 5 6 
#
# 1 0.013741 -0.006341 -0.003968 0.000000 0.000000 0.000000
# 2 -0.006341 0.014177 -0.006012 0.000000 0.000000 0.000000
# 3 -0.003968 -0.006012 0.015974 0.000000 0.000000 0.000000
# 4 0.000000 0.000000 0.000000 0.039280 0.000000 0.000000
# 5 0.000000 0.000000 0.000000 0.000000 0.040445 0.000000
# 6 0.000000 0.000000 0.000000 0.000000 0.000000 0.044743
#
#
# Mechanical properties :
#
#
# Convention : Reuss Voigt Hill
#
# Bulk Modulus (GPa) = 88.90580 92.40459 90.65519
# Shear Modulus (GPa) = 24.41962 24.70482 24.56222
#
# Velocity S-wave (km/s) = 3.62767 3.64879 3.63824
# Velocity P-wave (km/s) = 8.09066 8.21884 8.15500
#
# Compressibility (1/GPa) = 0.01124786
#
# Stress axis : x y z
#
# Youngs Moduli (GPa) = 72.77635 70.53478 62.60103
#
# Poissons Ratio (x) = 0.44729 0.24842
# Poissons Ratio (y) = 0.46151 0.37638
# Poissons Ratio (z) = 0.28880 0.42409
#
# Static dielectric constant tensor:
#      x y z
#    x 1.668800 0.000000 0.000000 
#    y 0.000000 1.665430 0.000000 
#    z 0.000000 0.000000 1.627870 
# 
# From -- ./inp_files/15518.got.cif
#   From: 2010.05.17/outbox.cif.g08.bks.cpg/sg22_8_cif.got.tgz:15518.got - 2010.06.03 23:40:54.
