data_PCOD9327056
_publ_section_title
;
Structure prediction by ZEFSAII (Michael W. Deem and Ramdas Pophale) SiO2 
 PCOD9327056
Probable space group: F 2 2 2
;
_chemical_formula_sum "Si O2"
_cell_formula_units_Z 104
_cell_length_a 29.484882
_cell_length_b 9.784300
_cell_length_c 18.400665
_cell_angle_alpha 90.000000
_cell_angle_beta 90.000000
_cell_angle_gamma 90.000000
_cell_volume 5308.388175
_symmetry_space_group_name_H-M "F 2 2 2"
_symmetry_group_IT_number 22
_symmetry_cell_setting 'orthorhombic'
loop_
_space_group_symop_operation_xyz
x,y,z
-x,-y,z
x,-y,-z
-x,y,-z
x,1/2+y,1/2+z
-x,1/2-y,1/2+z
x,1/2-y,1/2-z
-x,1/2+y,1/2-z
1/2+x,y,1/2+z
1/2-x,-y,1/2+z
1/2+x,-y,1/2-z
1/2-x,y,1/2-z
1/2+x,1/2+y,z
1/2-x,1/2-y,z
1/2+x,1/2-y,-z
1/2-x,1/2+y,-z
loop_
_atom_site_type_symbol
_atom_site_label
_atom_site_fract_x
_atom_site_fract_y
_atom_site_fract_z
Si Si1 0.183091 0.459002 0.417243
Si Si2 0.250000 0.250000 0.465980
Si Si3 0.524979 0.367755 0.422612
Si Si4 0.126894 0.970367 0.417016
Si Si5 0.199312 0.757062 0.388864
Si Si6 0.013047 0.343609 0.320113
Si Si7 0.883935 0.242068 0.835558
O O1 0.171072 0.500000 0.500000
O O2 0.232356 0.381950 0.422263
O O3 0.181903 0.603915 0.377201
O O4 0.150069 0.353630 0.379558
O O5 0.210079 0.222663 0.524209
O O6 0.500000 0.500000 0.386120
O O7 0.500000 0.357872 0.500000
O O8 0.578085 0.397808 0.426072
O O9 0.516403 0.227166 0.382158
O O10 0.162981 0.874499 0.374749
O O11 0.141812 0.000000 0.500000
O O12 0.118587 0.109410 0.372645
O O13 0.250000 0.750000 0.355601
O O14 0.004884 0.250000 0.250000
O O15 0.065719 0.321007 0.340036
O O16 0.000000 0.500000 0.308577
O O17 0.872250 0.250000 0.750000
#
# Coordination Sequence:
#
# PCOD9327056 Si02
#       7
#    16   8  16  16  16  16  16
#     4  10  20  38  63  95 129 162 223 271 328 383
#     4   8  18  34  63  92 127 164 218 280 318 394
#     4  11  21  41  62  99 136 168 216 278 331 399
#     4  12  22  39  70  94 132 178 220 276 340 389
#     4   9  22  34  61  97 120 165 230 275 317 389
#     4  11  25  44  68  88 129 181 225 265 320 411
#     4  11  26  43  63  99 134 172 219 269 337 404
#
# _framework density 19.591635
#
# number of rings (size 3 to 8) (size 9 to 14) (size 15 to 20)
#    0.462    1.077    3.077    2.308    8.615    0.308 
#    0.000    1.154    0.000    0.923    0.000    0.000 
#    0.000    0.000    0.000    0.000    0.000    0.000 
#
# Total GULP energy -144917.701638 kJ/mol
# GULP energy per Si atom -5573.757755 kJ/mol
# Density = 1.954704 g / cm^3
# Si number density = 19.591635 Si / 1000 Ang^3
#
#
#
# Elastic Constant Matrix: (Units=GPa)
#
#
# Indices 1 2 3 4 5 6 
#
# 1 97.6604 76.1746 25.6224 0.0000 0.0000 0.0000
# 2 76.1746 176.3306 45.6573 0.0000 0.0000 0.0000
# 3 25.6224 45.6573 54.4010 0.0000 0.0000 0.0000
# 4 0.0000 0.0000 0.0000 20.9530 0.0000 0.0000
# 5 0.0000 0.0000 0.0000 0.0000 4.9926 0.0000
# 6 0.0000 0.0000 0.0000 0.0000 0.0000 -40.3023
#
#
#
# Elastic Compliance Matrix: (Units=1/GPa)
#
#
# Indices 1 2 3 4 5 6 
#
# 1 0.015641 -0.006196 -0.002167 0.000000 0.000000 0.000000
# 2 -0.006196 0.009700 -0.005223 0.000000 0.000000 0.000000
# 3 -0.002167 -0.005223 0.023786 0.000000 0.000000 0.000000
# 4 0.000000 0.000000 0.000000 0.047726 0.000000 0.000000
# 5 0.000000 0.000000 0.000000 0.000000 0.200295 0.000000
# 6 0.000000 0.000000 0.000000 0.000000 0.000000 -0.024812
#
#
# Mechanical properties :
#
#
# Convention : Reuss Voigt Hill
#
# Bulk Modulus (GPa) = 45.54553 69.25562 57.40058
# Shear Modulus (GPa) = 16.29594 9.19117 12.74356
#
# Velocity S-wave (km/s) = 2.88719 2.16831 2.55318
# Velocity P-wave (km/s) = 5.86621 6.45717 6.16877
#
# Compressibility (1/GPa) = 0.02195605
#
# Stress axis : x y z
#
# Youngs Moduli (GPa) = 63.93591 103.09204 42.04158
#
# Poissons Ratio (x) = 0.63873 0.09109
# Poissons Ratio (y) = 0.39613 0.21958
# Poissons Ratio (z) = 0.13853 0.53844
#
# Static dielectric constant tensor:
#      x y z
#    x 1.725910 0.000000 0.000000 
#    y 0.000000 1.710050 0.000000 
#    z 0.000000 0.000000 1.772540 
# 
# From -- ./inp_files/45783.got.cif
#   From: 2010.05.17/outbox.cif.g08.bks.cpg/sg22_23_cif.got.tgz:45783.got - 2010.06.03 23:40:54.
