data_PCOD9327674
_publ_section_title
;
Structure prediction by ZEFSAII (Michael W. Deem and Ramdas Pophale) SiO2 
 PCOD9327674
Probable space group: F 2 2 2
;
_chemical_formula_sum "Si O2"
_cell_formula_units_Z 80
_cell_length_a 13.657007
_cell_length_b 11.373986
_cell_length_c 22.693618
_cell_angle_alpha 90.000000
_cell_angle_beta 90.000000
_cell_angle_gamma 90.000000
_cell_volume 3525.104220
_symmetry_space_group_name_H-M "F 2 2 2"
_symmetry_group_IT_number 22
_symmetry_cell_setting 'orthorhombic'
loop_
_space_group_symop_operation_xyz
x,y,z
-x,-y,z
x,-y,-z
-x,y,-z
x,1/2+y,1/2+z
-x,1/2-y,1/2+z
x,1/2-y,1/2-z
-x,1/2+y,1/2-z
1/2+x,y,1/2+z
1/2-x,-y,1/2+z
1/2+x,-y,1/2-z
1/2-x,y,1/2-z
1/2+x,1/2+y,z
1/2-x,1/2-y,z
1/2+x,1/2-y,-z
1/2-x,1/2+y,-z
loop_
_atom_site_type_symbol
_atom_site_label
_atom_site_fract_x
_atom_site_fract_y
_atom_site_fract_z
Si Si1 0.261750 0.007099 0.115873
Si Si2 0.750000 0.250000 0.950552
Si Si3 0.533835 0.875933 0.731884
Si Si4 0.250000 0.449261 0.750000
Si Si5 0.410612 0.149111 0.960251
Si Si6 0.054679 0.390676 0.598083
O O1 0.268360 0.014182 0.187188
O O2 0.354084 0.944685 0.082147
O O3 0.169000 0.923798 0.101854
O O4 0.235931 0.134422 0.089396
O O5 0.665374 0.208136 0.994534
O O6 0.492668 0.750000 0.750000
O O7 0.650869 0.876795 0.739922
O O8 0.510282 0.884594 0.663257
O O9 0.500000 0.000000 0.760087
O O10 0.453139 0.259739 0.924879
O O11 0.500000 0.108343 0.000000
O O12 0.000000 0.500000 0.567321
#
# Coordination Sequence:
#
# PCOD9327674 Si02
#       6
#    16   8  16   8  16  16
#     4  11  24  46  69 105 143 193 250 302 373 440
#     4  12  26  43  68  99 150 190 234 310 374 446
#     4  10  21  41  69 102 137 186 240 302 364 433
#     4  10  23  47  74 100 141 196 243 308 353 448
#     4  12  25  43  73 108 143 191 241 309 371 446
#     4  10  21  42  72  97 136 187 249 290 357 447
#
# _framework density 22.694362999999999
#
# number of rings (size 3 to 8) (size 9 to 14) (size 15 to 20)
#    0.000    1.200    2.000    3.300    0.000    7.200 
#   18.000    0.000    0.000    0.000    0.000    0.000 
#    0.000    0.000    0.000    0.000    0.000    0.000 
#
# Total GULP energy -111588.123339 kJ/mol
# GULP energy per Si atom -5579.406167 kJ/mol
# Density = 2.264271 g / cm^3
# Si number density = 22.694363 Si / 1000 Ang^3
#
#
#
# Elastic Constant Matrix: (Units=GPa)
#
#
# Indices 1 2 3 4 5 6 
#
# 1 82.3370 29.3084 27.0726 0.0000 0.0000 0.0000
# 2 29.3084 201.3873 71.1106 0.0000 0.0000 0.0000
# 3 27.0726 71.1106 141.9178 0.0000 0.0000 0.0000
# 4 0.0000 0.0000 0.0000 -56.2244 0.0000 0.0000
# 5 0.0000 0.0000 0.0000 0.0000 13.7547 0.0000
# 6 0.0000 0.0000 0.0000 0.0000 0.0000 18.5920
#
#
#
# Elastic Compliance Matrix: (Units=1/GPa)
#
#
# Indices 1 2 3 4 5 6 
#
# 1 0.013214 -0.001255 -0.001892 0.000000 0.000000 0.000000
# 2 -0.001255 0.006152 -0.002843 0.000000 0.000000 0.000000
# 3 -0.001892 -0.002843 0.008832 0.000000 0.000000 0.000000
# 4 0.000000 0.000000 0.000000 -0.017786 0.000000 0.000000
# 5 0.000000 0.000000 0.000000 0.000000 0.072702 0.000000
# 6 0.000000 0.000000 0.000000 0.000000 0.000000 0.053786
#
#
# Mechanical properties :
#
#
# Convention : Reuss Voigt Hill
#
# Bulk Modulus (GPa) = 61.66087 75.62504 68.64295
# Shear Modulus (GPa) = 32.40708 15.10116 23.75412
#
# Velocity S-wave (km/s) = 3.78296 2.58236 3.23878
# Velocity P-wave (km/s) = 6.80516 6.50285 6.65572
#
# Compressibility (1/GPa) = 0.01621774
#
# Stress axis : x y z
#
# Youngs Moduli (GPa) = 75.67732 162.54430 113.22598
#
# Poissons Ratio (x) = 0.20400 0.21421
# Poissons Ratio (y) = 0.09498 0.32193
# Poissons Ratio (z) = 0.14317 0.46215
#
# Static dielectric constant tensor:
#      x y z
#    x 1.993950 0.000000 0.000000 
#    y 0.000000 1.975960 0.000000 
#    z 0.000000 0.000000 1.892850 
# 
# From -- ./inp_files/48749.got.cif
#   From: 2010.05.17/outbox.cif.g08.bks.cpg/sg22_25_cif.got.tgz:48749.got - 2010.06.03 23:40:54.
