data_PCOD9327600
_publ_section_title
;
Structure prediction by ZEFSAII (Michael W. Deem and Ramdas Pophale) SiO2 
 PCOD9327600
Probable space group: F 2 2 2
;
_chemical_formula_sum "Si O2"
_cell_formula_units_Z 112
_cell_length_a 10.988397
_cell_length_b 14.196520
_cell_length_c 32.225463
_cell_angle_alpha 90.000000
_cell_angle_beta 90.000000
_cell_angle_gamma 90.000000
_cell_volume 5027.075480
_symmetry_space_group_name_H-M "F 2 2 2"
_symmetry_group_IT_number 22
_symmetry_cell_setting 'orthorhombic'
loop_
_space_group_symop_operation_xyz
x,y,z
-x,-y,z
x,-y,-z
-x,y,-z
x,1/2+y,1/2+z
-x,1/2-y,1/2+z
x,1/2-y,1/2-z
-x,1/2+y,1/2-z
1/2+x,y,1/2+z
1/2-x,-y,1/2+z
1/2+x,-y,1/2-z
1/2-x,y,1/2-z
1/2+x,1/2+y,z
1/2-x,1/2-y,z
1/2+x,1/2-y,-z
1/2-x,1/2+y,-z
loop_
_atom_site_type_symbol
_atom_site_label
_atom_site_fract_x
_atom_site_fract_y
_atom_site_fract_z
Si Si1 0.533271 0.395732 0.173929
Si Si2 0.880620 0.936431 0.405912
Si Si3 0.474222 0.687962 0.348955
Si Si4 0.383379 0.361057 0.740458
Si Si5 0.867203 0.356417 0.991854
Si Si6 0.733334 0.616944 0.887536
Si Si7 0.118301 0.357121 0.525853
O O1 0.500000 0.500000 0.157779
O O2 0.480571 0.295090 0.158522
O O3 0.527783 0.397570 0.223596
O O4 0.669471 0.379468 0.156915
O O5 0.849833 0.865746 0.443009
O O6 0.918551 0.874269 0.367174
O O7 0.776895 0.011268 0.396765
O O8 0.000000 0.000000 0.416144
O O9 0.429796 0.638447 0.306443
O O10 0.358047 0.678003 0.381170
O O11 0.374166 0.250000 0.750000
O O12 0.250000 0.403131 0.750000
O O13 0.875215 0.251688 0.010850
O O14 0.747803 0.400595 0.012127
O O15 0.000000 0.398021 0.000000
O O16 0.635076 0.639299 0.924223
O O17 0.000000 0.393416 0.500000
#
# Coordination Sequence:
#
# PCOD9327600 Si02
#       7
#    16  16  16  16  16  16  16
#     4  11  24  38  63 101 140 176 221 283 350 426
#     4  10  23  40  65  99 125 176 238 292 341 417
#     4  10  21  41  73  95 136 181 232 285 351 417
#     4   9  17  37  64 101 130 175 224 277 347 429
#     4  10  21  40  64  93 127 173 238 283 361 417
#     4  11  23  40  65  97 135 177 232 288 350 423
#     4  10  24  40  65  94 131 183 236 283 373 422
#
# _framework density 22.279356
#
# number of rings (size 3 to 8) (size 9 to 14) (size 15 to 20)
#    0.000    1.857    1.429    2.143    8.000    4.857 
#    2.571    0.714    0.000    0.000    0.000    0.000 
#    0.000    0.000    0.000    0.000    0.000    0.000 
#
# Total GULP energy -155953.481050 kJ/mol
# GULP energy per Si atom -5569.767180 kJ/mol
# Density = 2.222865 g / cm^3
# Si number density = 22.279356 Si / 1000 Ang^3
#
#
#
# Elastic Constant Matrix: (Units=GPa)
#
#
# Indices 1 2 3 4 5 6 
#
# 1 65.4770 6.8347 16.1782 0.0000 0.0000 0.0000
# 2 6.8347 135.2221 30.6758 0.0000 0.0000 0.0000
# 3 16.1782 30.6758 139.3171 0.0000 0.0000 0.0000
# 4 0.0000 0.0000 0.0000 11.3450 0.0000 0.0000
# 5 0.0000 0.0000 0.0000 0.0000 -35.3386 0.0000
# 6 0.0000 0.0000 0.0000 0.0000 0.0000 3.2194
#
#
#
# Elastic Compliance Matrix: (Units=1/GPa)
#
#
# Indices 1 2 3 4 5 6 
#
# 1 0.015744 -0.000401 -0.001740 0.000000 0.000000 0.000000
# 2 -0.000401 0.007794 -0.001670 0.000000 0.000000 0.000000
# 3 -0.001740 -0.001670 0.007748 0.000000 0.000000 0.000000
# 4 0.000000 0.000000 0.000000 0.088144 0.000000 0.000000
# 5 0.000000 0.000000 0.000000 0.000000 -0.028298 0.000000
# 6 0.000000 0.000000 0.000000 0.000000 0.000000 0.310621
#
#
# Mechanical properties :
#
#
# Convention : Reuss Voigt Hill
#
# Bulk Modulus (GPa) = 42.25684 49.71037 45.98361
# Shear Modulus (GPa) = 11.98283 14.93365 13.45824
#
# Velocity S-wave (km/s) = 2.32166 2.59181 2.46045
# Velocity P-wave (km/s) = 5.11809 5.59619 5.36247
#
# Compressibility (1/GPa) = 0.02366481
#
# Stress axis : x y z
#
# Youngs Moduli (GPa) = 63.51491 128.29933 129.07294
#
# Poissons Ratio (x) = 0.05146 0.22459
# Poissons Ratio (y) = 0.02547 0.21550
# Poissons Ratio (z) = 0.11052 0.21421
#
# Static dielectric constant tensor:
#      x y z
#    x 1.854590 0.000000 0.000000 
#    y 0.000000 2.030310 0.000000 
#    z 0.000000 0.000000 1.880810 
# 
# From -- ./inp_files/56100.got.cif
#   From: 2010.05.17/outbox.cif.g08.bks.cpg/sg22_29_cif.got.tgz:56100.got - 2010.06.03 23:40:54.
