data_PCOD9327036
_publ_section_title
;
Structure prediction by ZEFSAII (Michael W. Deem and Ramdas Pophale) SiO2 
 PCOD9327036
Probable space group: F 2 2 2
;
_chemical_formula_sum "Si O2"
_cell_formula_units_Z 88
_cell_length_a 25.928562
_cell_length_b 14.051747
_cell_length_c 11.423519
_cell_angle_alpha 90.000000
_cell_angle_beta 90.000000
_cell_angle_gamma 90.000000
_cell_volume 4162.063114
_symmetry_space_group_name_H-M "F 2 2 2"
_symmetry_group_IT_number 22
_symmetry_cell_setting 'orthorhombic'
loop_
_space_group_symop_operation_xyz
x,y,z
-x,-y,z
x,-y,-z
-x,y,-z
x,1/2+y,1/2+z
-x,1/2-y,1/2+z
x,1/2-y,1/2-z
-x,1/2+y,1/2-z
1/2+x,y,1/2+z
1/2-x,-y,1/2+z
1/2+x,-y,1/2-z
1/2-x,y,1/2-z
1/2+x,1/2+y,z
1/2-x,1/2-y,z
1/2+x,1/2-y,-z
1/2-x,1/2+y,-z
loop_
_atom_site_type_symbol
_atom_site_label
_atom_site_fract_x
_atom_site_fract_y
_atom_site_fract_z
Si Si1 0.809423 0.249363 0.610979
Si Si2 0.845005 0.046241 0.623576
Si Si3 0.507505 0.669192 0.141135
Si Si4 0.079039 0.008887 0.817127
Si Si5 0.250000 0.444201 0.750000
Si Si6 0.320293 0.589048 0.057270
O O1 0.808008 0.250000 0.750000
O O2 0.750000 0.250000 0.570986
O O3 0.841990 0.156199 0.591243
O O4 0.832912 0.337113 0.543006
O O5 0.896148 0.015491 0.691768
O O6 0.841974 0.000000 0.500000
O O7 0.794598 0.012824 0.697360
O O8 0.512355 0.750000 0.250000
O O9 0.554082 0.590898 0.140019
O O10 0.460806 0.597036 0.177195
O O11 0.500000 0.699921 0.000000
O O12 0.128091 0.046341 0.888827
O O13 0.281158 0.379518 0.841841
O O14 0.290949 0.500000 0.000000
#
# Coordination Sequence:
#
# PCOD9327036 Si02
#       6
#    16  16  16  16   8  16
#     4  11  22  36  58  89 126 171 219 263 310 371
#     4  11  23  40  62  94 134 175 225 278 325 381
#     4  11  25  47  73 100 130 167 216 274 340 410
#     4  10  24  44  67  95 129 169 213 267 332 399
#     4  10  20  38  60  86 130 180 216 266 324 374
#     4  11  21  37  62  90 125 168 216 263 313 376
#
# _framework density 21.143360000000001
#
# number of rings (size 3 to 8) (size 9 to 14) (size 15 to 20)
#    0.000    1.273    0.000    8.182    0.000    6.545 
#    0.000    9.545    0.000    0.000    0.000    0.000 
#    0.000    0.000    0.000    0.000    0.000    0.000 
#
# Total GULP energy -122564.233635 kJ/mol
# GULP energy per Si atom -5571.101529 kJ/mol
# Density = 2.109524 g / cm^3
# Si number density = 21.143360 Si / 1000 Ang^3
#
#
#
# Elastic Constant Matrix: (Units=GPa)
#
#
# Indices 1 2 3 4 5 6 
#
# 1 100.3978 28.6346 47.6096 0.0000 0.0000 0.0000
# 2 28.6346 124.9333 73.1977 0.0000 0.0000 0.0000
# 3 47.6096 73.1977 128.4004 0.0000 0.0000 0.0000
# 4 0.0000 0.0000 0.0000 176.6197 0.0000 0.0000
# 5 0.0000 0.0000 0.0000 0.0000 50.6141 0.0000
# 6 0.0000 0.0000 0.0000 0.0000 0.0000 22.6091
#
#
#
# Elastic Compliance Matrix: (Units=1/GPa)
#
#
# Indices 1 2 3 4 5 6 
#
# 1 0.012089 -0.000217 -0.004359 0.000000 0.000000 0.000000
# 2 -0.000217 0.012022 -0.006773 0.000000 0.000000 0.000000
# 3 -0.004359 -0.006773 0.013266 0.000000 0.000000 0.000000
# 4 0.000000 0.000000 0.000000 0.005662 0.000000 0.000000
# 5 0.000000 0.000000 0.000000 0.000000 0.019757 0.000000
# 6 0.000000 0.000000 0.000000 0.000000 0.000000 0.044230
#
#
# Mechanical properties :
#
#
# Convention : Reuss Voigt Hill
#
# Bulk Modulus (GPa) = 68.12400 72.51282 70.31841
# Shear Modulus (GPa) = 37.14221 63.58788 50.36505
#
# Velocity S-wave (km/s) = 4.19583 5.48998 4.88594
# Velocity P-wave (km/s) = 7.46748 8.63463 8.07218
#
# Compressibility (1/GPa) = 0.01467911
#
# Stress axis : x y z
#
# Youngs Moduli (GPa) = 82.71781 83.17818 75.38302
#
# Poissons Ratio (x) = 0.01805 0.32859
# Poissons Ratio (y) = 0.01795 0.51058
# Poissons Ratio (z) = 0.36056 0.56338
#
# Static dielectric constant tensor:
#      x y z
#    x 1.445330 0.000000 0.000000 
#    y 0.000000 1.738490 0.000000 
#    z 0.000000 0.000000 1.891020 
# 
# From -- ./inp_files/23649.got.cif
#   From: 2010.05.17/outbox.cif.g08.bks.cpg/sg22_12_cif.got.tgz:23649.got - 2010.06.03 23:40:54.
