data_PCOD9327249
_publ_section_title
;
Structure prediction by ZEFSAII (Michael W. Deem and Ramdas Pophale) SiO2 
 PCOD9327249
Probable space group: F 2 2 2
;
_chemical_formula_sum "Si O2"
_cell_formula_units_Z 84
_cell_length_a 8.665017
_cell_length_b 24.093397
_cell_length_c 19.127540
_cell_angle_alpha 90.000000
_cell_angle_beta 90.000000
_cell_angle_gamma 90.000000
_cell_volume 3993.250684
_symmetry_space_group_name_H-M "F 2 2 2"
_symmetry_group_IT_number 22
_symmetry_cell_setting 'orthorhombic'
loop_
_space_group_symop_operation_xyz
x,y,z
-x,-y,z
x,-y,-z
-x,y,-z
x,1/2+y,1/2+z
-x,1/2-y,1/2+z
x,1/2-y,1/2-z
-x,1/2+y,1/2-z
1/2+x,y,1/2+z
1/2-x,-y,1/2+z
1/2+x,-y,1/2-z
1/2-x,y,1/2-z
1/2+x,1/2+y,z
1/2-x,1/2-y,z
1/2+x,1/2-y,-z
1/2-x,1/2+y,-z
loop_
_atom_site_type_symbol
_atom_site_label
_atom_site_fract_x
_atom_site_fract_y
_atom_site_fract_z
Si Si1 0.250000 0.250000 0.130778
Si Si2 0.000000 0.000000 0.500000
Si Si3 0.011334 0.065972 0.139968
Si Si4 0.830378 0.905252 0.583862
Si Si5 0.165468 0.353972 0.463007
Si Si6 0.418871 0.126156 0.768317
Si Si7 0.500445 0.750000 0.250000
O O1 0.214832 0.196530 0.085032
O O2 0.394277 0.242811 0.182009
O O3 0.100478 0.960485 0.450000
O O4 0.843687 0.084674 0.111387
O O5 0.033765 0.093963 0.216271
O O6 0.133621 0.091383 0.084916
O O7 0.000000 0.000000 0.144265
O O8 0.798308 0.863673 0.520043
O O9 0.932622 0.883327 0.648681
O O10 0.000000 0.341953 0.500000
O O11 0.250000 0.102534 0.750000
O O12 0.417769 0.190709 0.746179
#
# Coordination Sequence:
#
# PCOD9327249 Si02
#       7
#     8   4  16  16  16  16   8
#     4  11  24  40  64  98 121 168 214 270 331 390
#     4  12  24  40  58  96 140 160 194 274 330 392
#     4  10  20  42  69  90 124 171 225 265 315 397
#     4  10  24  39  61  96 126 169 213 259 336 385
#     4  10  22  43  65  93 127 170 219 269 326 398
#     4  10  22  42  64  93 123 171 217 265 321 391
#     4  11  23  42  64  90 131 163 214 270 328 393
#
# _framework density 21.035495000000001
#
# number of rings (size 3 to 8) (size 9 to 14) (size 15 to 20)
#    0.000    1.714    1.905    1.429    4.000    4.190 
#    0.000    0.000    0.000    0.000    0.000    0.000 
#    0.000    0.000    0.000    0.000    0.000    0.000 
#
# Total GULP energy -117203.912342 kJ/mol
# GULP energy per Si atom -5581.138683 kJ/mol
# Density = 2.098762 g / cm^3
# Si number density = 21.035495 Si / 1000 Ang^3
#
#
#
# Elastic Constant Matrix: (Units=GPa)
#
#
# Indices 1 2 3 4 5 6 
#
# 1 31.5003 5.5077 31.1987 0.0000 0.0000 0.0000
# 2 5.5077 115.0536 57.0529 0.0000 0.0000 0.0000
# 3 31.1987 57.0529 151.2143 0.0000 0.0000 0.0000
# 4 0.0000 0.0000 0.0000 37.0393 0.0000 0.0000
# 5 0.0000 0.0000 0.0000 0.0000 15.0766 0.0000
# 6 0.0000 0.0000 0.0000 0.0000 0.0000 120.9174
#
#
#
# Elastic Compliance Matrix: (Units=1/GPa)
#
#
# Indices 1 2 3 4 5 6 
#
# 1 0.040578 0.002717 -0.009397 0.000000 0.000000 0.000000
# 2 0.002717 0.010874 -0.004663 0.000000 0.000000 0.000000
# 3 -0.009397 -0.004663 0.010312 0.000000 0.000000 0.000000
# 4 0.000000 0.000000 0.000000 0.026998 0.000000 0.000000
# 5 0.000000 0.000000 0.000000 0.000000 0.066328 0.000000
# 6 0.000000 0.000000 0.000000 0.000000 0.000000 0.008270
#
#
# Mechanical properties :
#
#
# Convention : Reuss Voigt Hill
#
# Bulk Modulus (GPa) = 25.59057 53.92076 39.75566
# Shear Modulus (GPa) = 25.11648 48.20725 36.66187
#
# Velocity S-wave (km/s) = 3.45919 4.79237 4.17928
# Velocity P-wave (km/s) = 5.30532 7.50409 6.49838
#
# Compressibility (1/GPa) = 0.03907690
#
# Stress axis : x y z
#
# Youngs Moduli (GPa) = 24.64386 91.96237 96.97898
#
# Poissons Ratio (x) = -0.24991 0.91135
# Poissons Ratio (y) = -0.06697 0.45225
# Poissons Ratio (z) = 0.23159 0.42886
#
# Static dielectric constant tensor:
#      x y z
#    x 1.788980 0.000000 0.000000 
#    y 0.000000 1.703260 0.000000 
#    z 0.000000 0.000000 1.245680 
# 
# From -- ./inp_files/12611.got.cif
#   From: 2010.05.17/outbox.cif.g08.bks.cpg/sg22_7_cif.got.tgz:12611.got - 2010.06.03 23:40:54.
