data_PCOD9327693
_publ_section_title
;
Structure prediction by ZEFSAII (Michael W. Deem and Ramdas Pophale) SiO2 
 PCOD9327693
Probable space group: F 2 2 2
;
_chemical_formula_sum "Si O2"
_cell_formula_units_Z 104
_cell_length_a 20.908571
_cell_length_b 17.847451
_cell_length_c 12.836287
_cell_angle_alpha 90.000000
_cell_angle_beta 90.000000
_cell_angle_gamma 90.000000
_cell_volume 4790.049141
_symmetry_space_group_name_H-M "F 2 2 2"
_symmetry_group_IT_number 22
_symmetry_cell_setting 'orthorhombic'
loop_
_space_group_symop_operation_xyz
x,y,z
-x,-y,z
x,-y,-z
-x,y,-z
x,1/2+y,1/2+z
-x,1/2-y,1/2+z
x,1/2-y,1/2-z
-x,1/2+y,1/2-z
1/2+x,y,1/2+z
1/2-x,-y,1/2+z
1/2+x,-y,1/2-z
1/2-x,y,1/2-z
1/2+x,1/2+y,z
1/2-x,1/2-y,z
1/2+x,1/2-y,-z
1/2-x,1/2+y,-z
loop_
_atom_site_type_symbol
_atom_site_label
_atom_site_fract_x
_atom_site_fract_y
_atom_site_fract_z
Si Si1 0.336048 0.675173 0.314935
Si Si2 0.918016 0.209661 0.858285
Si Si3 0.053536 0.559541 0.729947
Si Si4 0.250000 0.948850 0.250000
Si Si5 0.481371 0.171247 0.884708
Si Si6 0.690120 0.796388 0.041999
Si Si7 0.164577 0.462841 0.111285
O O1 0.330712 0.750000 0.250000
O O2 0.309681 0.607854 0.245106
O O3 0.407945 0.666132 0.355420
O O4 0.296626 0.681456 0.422264
O O5 0.895120 0.250000 0.750000
O O6 0.918488 0.119935 0.852259
O O7 0.871714 0.243145 0.946082
O O8 0.988495 0.245498 0.873725
O O9 0.109925 0.525086 0.801179
O O10 0.000000 0.500000 0.693846
O O11 0.017683 0.616665 0.807109
O O12 0.230151 0.000602 0.346557
O O13 0.500000 0.145678 0.000000
O O14 0.750000 0.750000 0.084733
O O15 0.674371 0.874279 0.098125
O O16 0.147381 0.500000 0.000000
#
# Coordination Sequence:
#
# PCOD9327693 Si02
#       7
#    16  16  16   8  16  16  16
#     4  12  24  45  71 103 139 185 243 301 364 434
#     4  10  21  42  65 104 131 177 237 279 355 429
#     4  11  24  39  68 104 140 177 230 296 363 420
#     4  12  27  42  65 104 144 184 238 292 373 428
#     4  11  21  41  71 101 132 177 232 301 353 421
#     4  12  25  44  71  97 142 192 240 292 358 441
#     4  12  26  45  67 103 143 185 236 298 360 433
#
# _framework density 21.711677000000002
#
# number of rings (size 3 to 8) (size 9 to 14) (size 15 to 20)
#    0.000    0.615    6.154    3.462    4.308    0.308 
#    0.000    0.000    0.000    0.462    0.000    0.000 
#    0.000    0.000    0.000    0.000    0.000    0.000 
#
# Total GULP energy -145246.157516 kJ/mol
# GULP energy per Si atom -5586.390674 kJ/mol
# Density = 2.166226 g / cm^3
# Si number density = 21.711677 Si / 1000 Ang^3
#
#
#
# Elastic Constant Matrix: (Units=GPa)
#
#
# Indices 1 2 3 4 5 6 
#
# 1 115.1716 55.5955 15.3241 0.0000 0.0000 0.0000
# 2 55.5955 150.9447 27.9675 0.0000 0.0000 0.0000
# 3 15.3241 27.9675 37.5832 0.0000 0.0000 0.0000
# 4 0.0000 0.0000 0.0000 -34.5879 0.0000 0.0000
# 5 0.0000 0.0000 0.0000 0.0000 24.9733 0.0000
# 6 0.0000 0.0000 0.0000 0.0000 0.0000 37.2130
#
#
#
# Elastic Compliance Matrix: (Units=1/GPa)
#
#
# Indices 1 2 3 4 5 6 
#
# 1 0.010648 -0.003616 -0.001651 0.000000 0.000000 0.000000
# 2 -0.003616 0.008912 -0.005158 0.000000 0.000000 0.000000
# 3 -0.001651 -0.005158 0.031119 0.000000 0.000000 0.000000
# 4 0.000000 0.000000 0.000000 -0.028912 0.000000 0.000000
# 5 0.000000 0.000000 0.000000 0.000000 0.040043 0.000000
# 6 0.000000 0.000000 0.000000 0.000000 0.000000 0.026872
#
#
# Mechanical properties :
#
#
# Convention : Reuss Voigt Hill
#
# Bulk Modulus (GPa) = 33.52311 55.71931 44.62121
# Shear Modulus (GPa) = 41.84988 19.17385 30.51186
#
# Velocity S-wave (km/s) = 4.39513 2.97494 3.75283
# Velocity P-wave (km/s) = 6.42105 6.12531 6.27492
#
# Compressibility (1/GPa) = 0.02983017
#
# Stress axis : x y z
#
# Youngs Moduli (GPa) = 93.91614 112.20323 32.13482
#
# Poissons Ratio (x) = 0.40572 0.05305
# Poissons Ratio (y) = 0.33959 0.16575
# Poissons Ratio (z) = 0.15503 0.57872
#
# Static dielectric constant tensor:
#      x y z
#    x 1.881200 0.000000 0.000000 
#    y 0.000000 1.810630 0.000000 
#    z 0.000000 0.000000 1.842300 
# 
# From -- ./inp_files/31715.got.cif
#   From: 2010.05.17/outbox.cif.g08.bks.cpg/sg22_16_cif.got.tgz:31715.got - 2010.06.03 23:40:54.
