data_PCOD9327728
_publ_section_title
;
Structure prediction by ZEFSAII (Michael W. Deem and Ramdas Pophale) SiO2 
 PCOD9327728
Probable space group: F 2 2 2
;
_chemical_formula_sum "Si O2"
_cell_formula_units_Z 68
_cell_length_a 7.712426
_cell_length_b 17.798313
_cell_length_c 20.005129
_cell_angle_alpha 90.000000
_cell_angle_beta 90.000000
_cell_angle_gamma 90.000000
_cell_volume 2746.067487
_symmetry_space_group_name_H-M "F 2 2 2"
_symmetry_group_IT_number 22
_symmetry_cell_setting 'orthorhombic'
loop_
_space_group_symop_operation_xyz
x,y,z
-x,-y,z
x,-y,-z
-x,y,-z
x,1/2+y,1/2+z
-x,1/2-y,1/2+z
x,1/2-y,1/2-z
-x,1/2+y,1/2-z
1/2+x,y,1/2+z
1/2-x,-y,1/2+z
1/2+x,-y,1/2-z
1/2-x,y,1/2-z
1/2+x,1/2+y,z
1/2-x,1/2-y,z
1/2+x,1/2-y,-z
1/2-x,1/2+y,-z
loop_
_atom_site_type_symbol
_atom_site_label
_atom_site_fract_x
_atom_site_fract_y
_atom_site_fract_z
Si Si1 0.000000 0.500000 0.837430
Si Si2 0.000000 0.000000 0.000000
Si Si3 0.250000 0.101934 0.250000
Si Si4 0.567265 0.286306 0.844225
Si Si5 0.595060 0.149026 0.100426
Si Si6 0.782026 0.861533 0.033208
O O1 0.860818 0.449572 0.798924
O O2 0.883912 0.564435 0.873134
O O3 0.870264 0.057129 0.963344
O O4 0.406631 0.144846 0.292439
O O5 0.750000 0.250000 0.826227
O O6 0.428130 0.218275 0.847298
O O7 0.592886 0.311394 0.921292
O O8 0.404514 0.142188 0.067629
O O9 0.737151 0.160920 0.042774
#
# Coordination Sequence:
#
# PCOD9327728 Si02
#       6
#     8   4   8  16  16  16
#     4  12  24  42  72 100 140 192 234 300 342 432
#     4  12  24  36  64 104 158 176 220 280 370 434
#     4  12  25  44  72 101 140 188 256 277 362 420
#     4  10  21  42  72 101 132 187 237 292 344 427
#     4  10  22  44  73 101 136 182 238 294 362 415
#     4  10  22  40  69 104 139 179 230 288 365 426
#
# _framework density 24.762685000000001
#
# number of rings (size 3 to 8) (size 9 to 14) (size 15 to 20)
#    0.000    1.412    4.706    1.765    0.000    8.471 
#    0.000    0.000    0.000    1.412    0.000    0.000 
#    0.000    0.000    0.000    0.000    0.000    0.000 
#
# Total GULP energy -94702.412843 kJ/mol
# GULP energy per Si atom -5570.730167 kJ/mol
# Density = 2.470632 g / cm^3
# Si number density = 24.762685 Si / 1000 Ang^3
#
#
#
# Elastic Constant Matrix: (Units=GPa)
#
#
# Indices 1 2 3 4 5 6 
#
# 1 104.4467 29.7294 29.7316 0.0000 0.0000 0.0000
# 2 29.7294 191.4212 81.2763 0.0000 0.0000 0.0000
# 3 29.7316 81.2763 120.3438 0.0000 0.0000 0.0000
# 4 0.0000 0.0000 0.0000 45.5020 0.0000 0.0000
# 5 0.0000 0.0000 0.0000 0.0000 -6.3904 0.0000
# 6 0.0000 0.0000 0.0000 0.0000 0.0000 25.7503
#
#
#
# Elastic Compliance Matrix: (Units=1/GPa)
#
#
# Indices 1 2 3 4 5 6 
#
# 1 0.010371 -0.000733 -0.002067 0.000000 0.000000 0.000000
# 2 -0.000733 0.007376 -0.004801 0.000000 0.000000 0.000000
# 3 -0.002067 -0.004801 0.012062 0.000000 0.000000 0.000000
# 4 0.000000 0.000000 0.000000 0.021977 0.000000 0.000000
# 5 0.000000 0.000000 0.000000 0.000000 -0.156486 0.000000
# 6 0.000000 0.000000 0.000000 0.000000 0.000000 0.038835
#
#
# Mechanical properties :
#
#
# Convention : Reuss Voigt Hill
#
# Bulk Modulus (GPa) = 68.45413 77.52070 72.98742
# Shear Modulus (GPa) = -109.18688 31.33734 -38.92477
#
# Velocity S-wave (km/s) = -6.64748 3.56126 -3.96904
# Velocity P-wave (km/s) = 5.58701 6.94863 2.92137
#
# Compressibility (1/GPa) = 0.01460832
#
# Stress axis : x y z
#
# Youngs Moduli (GPa) = 96.41934 135.57089 82.90232
#
# Poissons Ratio (x) = 0.09938 0.17138
# Poissons Ratio (y) = 0.07068 0.39798
# Poissons Ratio (z) = 0.19932 0.65082
#
# Static dielectric constant tensor:
#      x y z
#    x 2.429600 0.000000 0.000000 
#    y 0.000000 2.524400 0.000000 
#    z 0.000000 0.000000 2.065720 
# 
# From -- ./inp_files/11307.got.cif
#   From: 2010.05.17/outbox.cif.g08.bks.cpg/sg22_6_cif.got.tgz:11307.got - 2010.06.03 23:40:54.
