data_PCOD9327606
_publ_section_title
;
Structure prediction by ZEFSAII (Michael W. Deem and Ramdas Pophale) SiO2 
 PCOD9327606
Probable space group: F 2 2 2
;
_chemical_formula_sum "Si O2"
_cell_formula_units_Z 68
_cell_length_a 30.112482
_cell_length_b 8.011327
_cell_length_c 13.867705
_cell_angle_alpha 90.000000
_cell_angle_beta 90.000000
_cell_angle_gamma 90.000000
_cell_volume 3345.458191
_symmetry_space_group_name_H-M "F 2 2 2"
_symmetry_group_IT_number 22
_symmetry_cell_setting 'orthorhombic'
loop_
_space_group_symop_operation_xyz
x,y,z
-x,-y,z
x,-y,-z
-x,y,-z
x,1/2+y,1/2+z
-x,1/2-y,1/2+z
x,1/2-y,1/2-z
-x,1/2+y,1/2-z
1/2+x,y,1/2+z
1/2-x,-y,1/2+z
1/2+x,-y,1/2-z
1/2-x,y,1/2-z
1/2+x,1/2+y,z
1/2-x,1/2-y,z
1/2+x,1/2-y,-z
1/2-x,1/2+y,-z
loop_
_atom_site_type_symbol
_atom_site_label
_atom_site_fract_x
_atom_site_fract_y
_atom_site_fract_z
Si Si1 0.818262 0.588161 0.100516
Si Si2 0.395948 0.111229 0.828192
Si Si3 0.750000 0.750000 0.250000
Si Si4 0.598848 0.694515 0.024607
Si Si5 0.468523 0.851714 0.838075
O O1 0.846263 0.450712 0.157939
O O2 0.781369 0.651551 0.174294
O O3 0.855865 0.728892 0.072452
O O4 0.802911 0.500000 0.000000
O O5 0.399822 0.250000 0.750000
O O6 0.426270 0.955696 0.799543
O O7 0.408856 0.190648 0.930688
O O8 0.554591 0.726747 0.087446
O O9 0.604366 0.500000 0.000000
O O10 0.490034 0.750000 0.750000
O O11 0.500000 0.000000 0.875948
#
# Coordination Sequence:
#
# PCOD9327606 Si02
#       5
#    16  16   4  16  16
#     4   9  23  43  61  98 133 169 228 274 332 409
#     4  10  21  40  65  92 123 168 217 264 325 401
#     4  12  24  40  74  94 140 188 206 300 348 390
#     4  10  22  40  68  93 125 176 215 270 330 396
#     4  11  23  39  60  93 130 164 216 272 320 383
#
# _framework density 20.326065
#
# number of rings (size 3 to 8) (size 9 to 14) (size 15 to 20)
#    0.000    1.882    0.000    4.235    9.882    2.824 
#    4.235    1.176    0.000    0.000    0.000    0.000 
#    0.000    0.000    0.000    0.000    0.000    0.000 
#
# Total GULP energy -94823.552978 kJ/mol
# GULP energy per Si atom -5577.856058 kJ/mol
# Density = 2.027980 g / cm^3
# Si number density = 20.326065 Si / 1000 Ang^3
#
#
#
# Elastic Constant Matrix: (Units=GPa)
#
#
# Indices 1 2 3 4 5 6 
#
# 1 80.7681 28.3280 61.4059 0.0000 0.0000 0.0000
# 2 28.3280 92.1933 29.6764 0.0000 0.0000 0.0000
# 3 61.4059 29.6764 81.9649 0.0000 0.0000 0.0000
# 4 0.0000 0.0000 0.0000 31.8184 0.0000 0.0000
# 5 0.0000 0.0000 0.0000 0.0000 36.6272 0.0000
# 6 0.0000 0.0000 0.0000 0.0000 0.0000 32.4361
#
#
#
# Elastic Compliance Matrix: (Units=1/GPa)
#
#
# Indices 1 2 3 4 5 6 
#
# 1 0.029147 -0.002181 -0.021047 0.000000 0.000000 0.000000
# 2 -0.002181 0.012441 -0.002870 0.000000 0.000000 0.000000
# 3 -0.021047 -0.002870 0.029007 0.000000 0.000000 0.000000
# 4 0.000000 0.000000 0.000000 0.031428 0.000000 0.000000
# 5 0.000000 0.000000 0.000000 0.000000 0.027302 0.000000
# 6 0.000000 0.000000 0.000000 0.000000 0.000000 0.030830
#
#
# Mechanical properties :
#
#
# Convention : Reuss Voigt Hill
#
# Bulk Modulus (GPa) = 54.35051 54.86076 54.60563
# Shear Modulus (GPa) = 22.88483 29.21075 26.04779
#
# Velocity S-wave (km/s) = 3.35906 3.79503 3.58368
# Velocity P-wave (km/s) = 6.46852 6.80088 6.63678
#
# Compressibility (1/GPa) = 0.01839909
#
# Stress axis : x y z
#
# Youngs Moduli (GPa) = 34.30833 80.37994 34.47423
#
# Poissons Ratio (x) = 0.17533 0.72557
# Poissons Ratio (y) = 0.07484 0.09895
# Poissons Ratio (z) = 0.72208 0.23071
#
# Static dielectric constant tensor:
#      x y z
#    x 1.731540 0.000000 0.000000 
#    y 0.000000 1.707250 0.000000 
#    z 0.000000 0.000000 1.757520 
# 
# From -- ./inp_files/10041.got.cif
#   From: 2010.05.17/outbox.cif.g08.bks.cpg/sg22_6_cif.got.tgz:10041.got - 2010.06.03 23:40:54.
