data_PCOD9327842
_publ_section_title
;
Structure prediction by ZEFSAII (Michael W. Deem and Ramdas Pophale) SiO2 
 PCOD9327842
Probable space group: F 2 2 2
;
_chemical_formula_sum "Si O2"
_cell_formula_units_Z 88
_cell_length_a 14.804271
_cell_length_b 20.033034
_cell_length_c 11.941461
_cell_angle_alpha 90.000000
_cell_angle_beta 90.000000
_cell_angle_gamma 90.000000
_cell_volume 3541.532399
_symmetry_space_group_name_H-M "F 2 2 2"
_symmetry_group_IT_number 22
_symmetry_cell_setting 'orthorhombic'
loop_
_space_group_symop_operation_xyz
x,y,z
-x,-y,z
x,-y,-z
-x,y,-z
x,1/2+y,1/2+z
-x,1/2-y,1/2+z
x,1/2-y,1/2-z
-x,1/2+y,1/2-z
1/2+x,y,1/2+z
1/2-x,-y,1/2+z
1/2+x,-y,1/2-z
1/2-x,y,1/2-z
1/2+x,1/2+y,z
1/2-x,1/2-y,z
1/2+x,1/2-y,-z
1/2-x,1/2+y,-z
loop_
_atom_site_type_symbol
_atom_site_label
_atom_site_fract_x
_atom_site_fract_y
_atom_site_fract_z
Si Si1 0.578559 0.750000 0.750000
Si Si2 0.000000 0.000000 0.166866
Si Si3 0.159854 0.440034 0.808705
Si Si4 0.264403 0.868657 0.618054
Si Si5 0.104425 0.178123 0.536965
Si Si6 0.040576 0.651970 0.617083
Si Si7 0.756216 0.000000 0.000000
O O1 0.629308 0.768477 0.865211
O O2 0.516005 0.687160 0.784667
O O3 0.090292 0.974910 0.227617
O O4 0.969464 0.928514 0.118210
O O5 0.250000 0.410530 0.750000
O O6 0.111191 0.390014 0.891735
O O7 0.197680 0.496414 0.889250
O O8 0.250000 0.887359 0.750000
O O9 0.176941 0.833301 0.562748
O O10 0.355885 0.825875 0.623648
O O11 0.295101 0.926662 0.525813
O O12 0.000000 0.185876 0.500000
O O13 0.000000 0.674104 0.500000
#
# Coordination Sequence:
#
# PCOD9327842 Si02
#       7
#     8   8  16  16  16  16   8
#     4  12  26  56  76 110 160 208 276 326 406 500
#     4  12  25  45  80 110 164 208 257 341 418 470
#     4  11  25  43  71 115 153 200 258 320 400 484
#     4  11  25  47  75 115 154 207 259 328 401 476
#     4  11  26  50  80 108 153 208 267 334 398 483
#     4  12  28  47  77 113 156 205 261 330 403 483
#     4  10  22  37  71 108 160 184 262 309 401 460
#
# _framework density 24.847999999999999
#
# number of rings (size 3 to 8) (size 9 to 14) (size 15 to 20)
#    0.000    0.727    1.818    4.636   12.727    0.000 
#    0.000   13.636    0.000    0.000    0.000    0.000 
#    0.000    0.000    0.000    0.000    0.000    0.000 
#
# Total GULP energy -122695.613116 kJ/mol
# GULP energy per Si atom -5577.073323 kJ/mol
# Density = 2.479144 g / cm^3
# Si number density = 24.848000 Si / 1000 Ang^3
#
#
#
# Elastic Constant Matrix: (Units=GPa)
#
#
# Indices 1 2 3 4 5 6 
#
# 1 125.9318 21.7119 77.8436 0.0000 0.0000 0.0000
# 2 21.7119 108.9593 34.6213 0.0000 0.0000 0.0000
# 3 77.8436 34.6213 155.4182 0.0000 0.0000 0.0000
# 4 0.0000 0.0000 0.0000 50.6858 0.0000 0.0000
# 5 0.0000 0.0000 0.0000 0.0000 50.3341 0.0000
# 6 0.0000 0.0000 0.0000 0.0000 0.0000 -177.6613
#
#
#
# Elastic Compliance Matrix: (Units=1/GPa)
#
#
# Indices 1 2 3 4 5 6 
#
# 1 0.011527 -0.000498 -0.005663 0.000000 0.000000 0.000000
# 2 -0.000498 0.009898 -0.001956 0.000000 0.000000 0.000000
# 3 -0.005663 -0.001956 0.009706 0.000000 0.000000 0.000000
# 4 0.000000 0.000000 0.000000 0.019729 0.000000 0.000000
# 5 0.000000 0.000000 0.000000 0.000000 0.019867 0.000000
# 6 0.000000 0.000000 0.000000 0.000000 0.000000 -0.005629
#
#
# Mechanical properties :
#
#
# Convention : Reuss Voigt Hill
#
# Bulk Modulus (GPa) = 67.11667 73.18477 70.15072
# Shear Modulus (GPa) = 57.93907 1.74721 29.84314
#
# Velocity S-wave (km/s) = 4.83405 0.83946 3.46934
# Velocity P-wave (km/s) = 7.63065 5.51874 6.65896
#
# Compressibility (1/GPa) = 0.01489943
#
# Stress axis : x y z
#
# Youngs Moduli (GPa) = 86.75388 101.02724 103.02816
#
# Poissons Ratio (x) = 0.05028 0.58340
# Poissons Ratio (y) = 0.04317 0.20149
# Poissons Ratio (z) = 0.49125 0.19758
#
# Static dielectric constant tensor:
#      x y z
#    x 1.946190 0.000000 0.000000 
#    y 0.000000 2.071520 0.000000 
#    z 0.000000 0.000000 2.110270 
# 
# From -- ./inp_files/19985.got.cif
#   From: 2010.05.17/outbox.cif.g08.bks.cpg/sg22_10_cif.got.tgz:19985.got - 2010.06.03 23:40:54.
