data_PCOD9327084
_publ_section_title
;
Structure prediction by ZEFSAII (Michael W. Deem and Ramdas Pophale) SiO2 
 PCOD9327084
Probable space group: F 2 2 2
;
_chemical_formula_sum "Si O2"
_cell_formula_units_Z 60
_cell_length_a 16.251358
_cell_length_b 7.932009
_cell_length_c 18.893634
_cell_angle_alpha 90.000000
_cell_angle_beta 90.000000
_cell_angle_gamma 90.000000
_cell_volume 2435.501234
_symmetry_space_group_name_H-M "F 2 2 2"
_symmetry_group_IT_number 22
_symmetry_cell_setting 'orthorhombic'
loop_
_space_group_symop_operation_xyz
x,y,z
-x,-y,z
x,-y,-z
-x,y,-z
x,1/2+y,1/2+z
-x,1/2-y,1/2+z
x,1/2-y,1/2-z
-x,1/2+y,1/2-z
1/2+x,y,1/2+z
1/2-x,-y,1/2+z
1/2+x,-y,1/2-z
1/2-x,y,1/2-z
1/2+x,1/2+y,z
1/2-x,1/2-y,z
1/2+x,1/2-y,-z
1/2-x,1/2+y,-z
loop_
_atom_site_type_symbol
_atom_site_label
_atom_site_fract_x
_atom_site_fract_y
_atom_site_fract_z
Si Si1 0.039629 0.250000 0.250000
Si Si2 0.322754 0.538579 0.694053
Si Si3 0.426197 0.241558 0.393933
Si Si4 0.250000 0.750000 0.095903
Si Si5 0.500000 0.500000 0.500000
Si Si6 0.356786 0.000000 0.500000
O O1 0.094216 0.425113 0.240508
O O2 0.007845 0.234742 0.170207
O O3 0.250000 0.551906 0.750000
O O4 0.340611 0.696318 0.641934
O O5 0.304414 0.373042 0.647157
O O6 0.447567 0.385086 0.448915
O O7 0.411926 0.078952 0.438916
O O8 0.302781 0.634942 0.042811
#
# Coordination Sequence:
#
# PCOD9327084 Si02
#       6
#     8  16  16   8   4   8
#     4   8  21  40  68  94 130 184 223 286 362 424
#     4  10  20  38  66  95 139 180 223 290 363 429
#     4  10  24  42  70  92 136 188 235 303 351 412
#     4  12  23  32  64 105 146 188 220 280 370 461
#     4  12  24  52  72  92 132 198 256 306 344 406
#     4  12  24  38  60 110 142 184 236 284 378 432
#
# _framework density 24.635584999999999
#
# number of rings (size 3 to 8) (size 9 to 14) (size 15 to 20)
#    1.600    0.000    0.000    5.600    3.733    0.533 
#    0.000    2.667    5.867    0.000    0.000    0.000 
#    0.000    0.000    0.000    0.000    0.000    0.000 
#
# Total GULP energy -83597.189559 kJ/mol
# GULP energy per Si atom -5573.145971 kJ/mol
# Density = 2.457951 g / cm^3
# Si number density = 24.635585 Si / 1000 Ang^3
#
#
#
# Elastic Constant Matrix: (Units=GPa)
#
#
# Indices 1 2 3 4 5 6 
#
# 1 59.6282 26.9863 38.6839 0.0000 0.0000 0.0000
# 2 26.9863 104.5751 74.3881 0.0000 0.0000 0.0000
# 3 38.6839 74.3881 213.0312 0.0000 0.0000 0.0000
# 4 0.0000 0.0000 0.0000 75.9628 0.0000 0.0000
# 5 0.0000 0.0000 0.0000 0.0000 11.9071 0.0000
# 6 0.0000 0.0000 0.0000 0.0000 0.0000 36.3631
#
#
#
# Elastic Compliance Matrix: (Units=1/GPa)
#
#
# Indices 1 2 3 4 5 6 
#
# 1 0.019884 -0.003410 -0.002420 0.000000 0.000000 0.000000
# 2 -0.003410 0.013307 -0.004028 0.000000 0.000000 0.000000
# 3 -0.002420 -0.004028 0.006540 0.000000 0.000000 0.000000
# 4 0.000000 0.000000 0.000000 0.013164 0.000000 0.000000
# 5 0.000000 0.000000 0.000000 0.000000 0.083984 0.000000
# 6 0.000000 0.000000 0.000000 0.000000 0.000000 0.027500
#
#
# Mechanical properties :
#
#
# Convention : Reuss Voigt Hill
#
# Bulk Modulus (GPa) = 49.95891 73.03901 61.49896
# Shear Modulus (GPa) = 26.21009 40.65836 33.43423
#
# Velocity S-wave (km/s) = 3.26530 4.06691 3.68795
# Velocity P-wave (km/s) = 5.87703 7.19480 6.56904
#
# Compressibility (1/GPa) = 0.02001645
#
# Stress axis : x y z
#
# Youngs Moduli (GPa) = 50.29241 75.14613 152.90516
#
# Poissons Ratio (x) = 0.25622 0.37003
# Poissons Ratio (y) = 0.17148 0.61585
# Poissons Ratio (z) = 0.12171 0.30266
#
# Static dielectric constant tensor:
#      x y z
#    x 1.981190 0.000000 0.000000 
#    y 0.000000 1.922800 0.000000 
#    z 0.000000 0.000000 1.891110 
# 
# From -- ./inp_files/43962.got.cif
#   From: 2010.05.17/outbox.cif.g08.bks.cpg/sg22_22_cif.got.tgz:43962.got - 2010.06.03 23:40:54.
