data_PCOD9327573
_publ_section_title
;
Structure prediction by ZEFSAII (Michael W. Deem and Ramdas Pophale) SiO2 
 PCOD9327573
Probable space group: F 2 2 2
;
_chemical_formula_sum "Si O2"
_cell_formula_units_Z 96
_cell_length_a 12.033704
_cell_length_b 15.068772
_cell_length_c 26.248214
_cell_angle_alpha 90.000000
_cell_angle_beta 90.000000
_cell_angle_gamma 90.000000
_cell_volume 4759.671114
_symmetry_space_group_name_H-M "F 2 2 2"
_symmetry_group_IT_number 22
_symmetry_cell_setting 'orthorhombic'
loop_
_space_group_symop_operation_xyz
x,y,z
-x,-y,z
x,-y,-z
-x,y,-z
x,1/2+y,1/2+z
-x,1/2-y,1/2+z
x,1/2-y,1/2-z
-x,1/2+y,1/2-z
1/2+x,y,1/2+z
1/2-x,-y,1/2+z
1/2+x,-y,1/2-z
1/2-x,y,1/2-z
1/2+x,1/2+y,z
1/2-x,1/2-y,z
1/2+x,1/2-y,-z
1/2-x,1/2+y,-z
loop_
_atom_site_type_symbol
_atom_site_label
_atom_site_fract_x
_atom_site_fract_y
_atom_site_fract_z
Si Si1 0.486985 0.903078 0.836654
Si Si2 0.368309 0.731112 0.147903
Si Si3 0.232000 0.850743 0.834864
Si Si4 0.631966 0.892044 0.554408
Si Si5 0.863878 0.402901 0.559306
Si Si6 0.526967 0.649998 0.228300
O O1 0.557414 0.820529 0.859620
O O2 0.354747 0.889071 0.836075
O O3 0.519639 0.901921 0.776702
O O4 0.500000 0.000000 0.860389
O O5 0.250000 0.750000 0.174050
O O6 0.337352 0.679459 0.096354
O O7 0.441119 0.665249 0.182613
O O8 0.250000 0.750000 0.818986
O O9 0.181678 0.853081 0.891694
O O10 0.139888 0.888580 0.796057
O O11 0.497432 0.895872 0.556962
O O12 0.671734 0.871579 0.497000
O O13 0.667789 0.993279 0.565603
O O14 0.546681 0.750000 0.250000
#
# Coordination Sequence:
#
# PCOD9327573 Si02
#       6
#    16  16  16  16  16  16
#     4  11  26  41  59  96 132 163 214 270 319 378
#     4  11  23  40  63  87 129 175 210 260 331 390
#     4  12  20  38  68  89 118 166 214 262 314 379
#     4   9  18  38  57  94 129 156 204 265 315 370
#     4   9  19  33  64  94 121 155 212 267 305 371
#     4  10  21  40  61  87 120 166 218 260 310 371
#
# _framework density 20.169461999999999
#
# number of rings (size 3 to 8) (size 9 to 14) (size 15 to 20)
#    0.000    1.667    5.000    1.500    2.333    5.000 
#    3.000    0.000    0.000    0.000    0.000    0.000 
#    0.000    0.000    0.000    0.000    0.000    0.000 
#
# Total GULP energy -133805.125810 kJ/mol
# GULP energy per Si atom -5575.213575 kJ/mol
# Density = 2.012355 g / cm^3
# Si number density = 20.169462 Si / 1000 Ang^3
#
#
#
# Elastic Constant Matrix: (Units=GPa)
#
#
# Indices 1 2 3 4 5 6 
#
# 1 72.8641 2.0668 -0.2693 0.0000 0.0000 0.0000
# 2 2.0668 43.3801 9.9837 0.0000 0.0000 0.0000
# 3 -0.2693 9.9837 87.0088 0.0000 0.0000 0.0000
# 4 0.0000 0.0000 0.0000 16.4404 0.0000 0.0000
# 5 0.0000 0.0000 0.0000 0.0000 11.4554 0.0000
# 6 0.0000 0.0000 0.0000 0.0000 0.0000 18.8866
#
#
#
# Elastic Compliance Matrix: (Units=1/GPa)
#
#
# Indices 1 2 3 4 5 6 
#
# 1 0.013744 -0.000683 0.000121 0.000000 0.000000 0.000000
# 2 -0.000683 0.023711 -0.002723 0.000000 0.000000 0.000000
# 3 0.000121 -0.002723 0.011806 0.000000 0.000000 0.000000
# 4 0.000000 0.000000 0.000000 0.060826 0.000000 0.000000
# 5 0.000000 0.000000 0.000000 0.000000 0.087295 0.000000
# 6 0.000000 0.000000 0.000000 0.000000 0.000000 0.052948
#
#
# Mechanical properties :
#
#
# Convention : Reuss Voigt Hill
#
# Bulk Modulus (GPa) = 23.42367 25.20174 24.31270
# Shear Modulus (GPa) = 18.44139 22.12127 20.28133
#
# Velocity S-wave (km/s) = 3.02706 3.31535 3.17448
# Velocity P-wave (km/s) = 4.88427 5.21320 5.05141
#
# Compressibility (1/GPa) = 0.04269186
#
# Stress axis : x y z
#
# Youngs Moduli (GPa) = 72.75905 42.17417 84.70342
#
# Poissons Ratio (x) = 0.02879 -0.01024
# Poissons Ratio (y) = 0.04967 0.23063
# Poissons Ratio (z) = -0.00879 0.11483
#
# Static dielectric constant tensor:
#      x y z
#    x 1.791030 0.000000 0.000000 
#    y 0.000000 1.768590 0.000000 
#    z 0.000000 0.000000 1.763710 
# 
# From -- ./inp_files/52648.got.cif
#   From: 2010.05.17/outbox.cif.g08.bks.cpg/sg22_27_cif.got.tgz:52648.got - 2010.06.03 23:40:54.
