data_PCOD9327631
_publ_section_title
;
Structure prediction by ZEFSAII (Michael W. Deem and Ramdas Pophale) SiO2 
 PCOD9327631
Probable space group: F 2 2 2
;
_chemical_formula_sum "Si O2"
_cell_formula_units_Z 68
_cell_length_a 7.634027
_cell_length_b 24.610294
_cell_length_c 14.336150
_cell_angle_alpha 90.000000
_cell_angle_beta 90.000000
_cell_angle_gamma 90.000000
_cell_volume 2693.413484
_symmetry_space_group_name_H-M "F 2 2 2"
_symmetry_group_IT_number 22
_symmetry_cell_setting 'orthorhombic'
loop_
_space_group_symop_operation_xyz
x,y,z
-x,-y,z
x,-y,-z
-x,y,-z
x,1/2+y,1/2+z
-x,1/2-y,1/2+z
x,1/2-y,1/2-z
-x,1/2+y,1/2-z
1/2+x,y,1/2+z
1/2-x,-y,1/2+z
1/2+x,-y,1/2-z
1/2-x,y,1/2-z
1/2+x,1/2+y,z
1/2-x,1/2-y,z
1/2+x,1/2-y,-z
1/2-x,1/2+y,-z
loop_
_atom_site_type_symbol
_atom_site_label
_atom_site_fract_x
_atom_site_fract_y
_atom_site_fract_z
Si Si1 0.165629 0.626702 0.124461
Si Si2 0.801049 0.106009 0.589823
Si Si3 0.003309 0.317165 0.388544
Si Si4 0.293631 0.996208 0.353637
Si Si5 0.750000 0.750000 0.250000
O O1 0.309834 0.670981 0.150839
O O2 0.228841 0.565434 0.144692
O O3 0.961387 0.629261 0.151081
O O4 0.174012 0.629595 0.012619
O O5 0.608729 0.125567 0.616873
O O6 0.804523 0.040988 0.584346
O O7 0.119066 0.279762 0.322506
O O8 0.000000 0.300879 0.500000
O O9 0.250000 0.017229 0.250000
O O10 0.500000 0.000000 0.373045
#
# Coordination Sequence:
#
# PCOD9327631 Si02
#       5
#    16  16  16  16   4
#     4  10  21  41  67 100 141 191 235 295 369 443
#     4  10  21  40  69  98 141 188 238 296 363 448
#     4  10  24  49  76 106 144 188 252 322 384 460
#     4  12  23  34  57  96 145 189 237 294 350 448
#     4  12  28  52  86 110 148 202 256 336 410 456
#
# _framework density 25.246773000000001
#
# number of rings (size 3 to 8) (size 9 to 14) (size 15 to 20)
#    0.000    1.412    2.353    2.824    1.647    4.706 
#    8.471    1.176    0.000    0.000    0.000    0.000 
#    0.000    0.000    0.000    0.000    0.000    0.000 
#
# Total GULP energy -94998.726408 kJ/mol
# GULP energy per Si atom -5588.160377 kJ/mol
# Density = 2.518931 g / cm^3
# Si number density = 25.246773 Si / 1000 Ang^3
#
#
#
# Elastic Constant Matrix: (Units=GPa)
#
#
# Indices 1 2 3 4 5 6 
#
# 1 137.6578 16.9541 50.9261 0.0000 0.0000 0.0000
# 2 16.9541 61.6273 42.1623 0.0000 0.0000 0.0000
# 3 50.9261 42.1623 107.5024 0.0000 0.0000 0.0000
# 4 0.0000 0.0000 0.0000 22.4112 0.0000 0.0000
# 5 0.0000 0.0000 0.0000 0.0000 27.9312 0.0000
# 6 0.0000 0.0000 0.0000 0.0000 0.0000 36.2399
#
#
#
# Elastic Compliance Matrix: (Units=1/GPa)
#
#
# Indices 1 2 3 4 5 6 
#
# 1 0.008824 0.000591 -0.004412 0.000000 0.000000 0.000000
# 2 0.000591 0.022217 -0.008993 0.000000 0.000000 0.000000
# 3 -0.004412 -0.008993 0.014919 0.000000 0.000000 0.000000
# 4 0.000000 0.000000 0.000000 0.044621 0.000000 0.000000
# 5 0.000000 0.000000 0.000000 0.000000 0.035802 0.000000
# 6 0.000000 0.000000 0.000000 0.000000 0.000000 0.027594
#
#
# Mechanical properties :
#
#
# Convention : Reuss Voigt Hill
#
# Bulk Modulus (GPa) = 49.18512 58.54139 53.86325
# Shear Modulus (GPa) = 26.82664 30.43278 28.62971
#
# Velocity S-wave (km/s) = 3.26326 3.47567 3.37114
# Velocity P-wave (km/s) = 5.80711 6.27257 6.04432
#
# Compressibility (1/GPa) = 0.02033135
#
# Stress axis : x y z
#
# Youngs Moduli (GPa) = 113.33089 45.01101 67.02782
#
# Poissons Ratio (x) = -0.02659 0.29571
# Poissons Ratio (y) = -0.06696 0.60280
# Poissons Ratio (z) = 0.49998 0.40480
#
# Static dielectric constant tensor:
#      x y z
#    x 2.022280 0.000000 0.000000 
#    y 0.000000 1.969950 0.000000 
#    z 0.000000 0.000000 2.038380 
# 
# From -- ./inp_files/26997.got.cif
#   From: 2010.05.17/outbox.cif.g08.bks.cpg/sg22_14_cif.got.tgz:26997.got - 2010.06.03 23:40:54.
