data_PCOD9327739
_publ_section_title
;
Structure prediction by ZEFSAII (Michael W. Deem and Ramdas Pophale) SiO2 
 PCOD9327739
Probable space group: F 2 2 2
;
_chemical_formula_sum "Si O2"
_cell_formula_units_Z 72
_cell_length_a 8.107921
_cell_length_b 14.689441
_cell_length_c 26.644522
_cell_angle_alpha 90.000000
_cell_angle_beta 90.000000
_cell_angle_gamma 90.000000
_cell_volume 3173.384610
_symmetry_space_group_name_H-M "F 2 2 2"
_symmetry_group_IT_number 22
_symmetry_cell_setting 'orthorhombic'
loop_
_space_group_symop_operation_xyz
x,y,z
-x,-y,z
x,-y,-z
-x,y,-z
x,1/2+y,1/2+z
-x,1/2-y,1/2+z
x,1/2-y,1/2-z
-x,1/2+y,1/2-z
1/2+x,y,1/2+z
1/2-x,-y,1/2+z
1/2+x,-y,1/2-z
1/2-x,y,1/2-z
1/2+x,1/2+y,z
1/2-x,1/2-y,z
1/2+x,1/2-y,-z
1/2-x,1/2+y,-z
loop_
_atom_site_type_symbol
_atom_site_label
_atom_site_fract_x
_atom_site_fract_y
_atom_site_fract_z
Si Si1 0.937367 0.656245 0.269096
Si Si2 0.729735 0.978823 0.894706
Si Si3 0.422480 0.307425 0.554579
Si Si4 0.000000 0.500000 0.801466
Si Si5 0.061072 0.141392 0.111597
O O1 0.010925 0.750000 0.250000
O O2 0.750000 0.650884 0.250000
O O3 0.926778 0.650388 0.328555
O O4 0.028191 0.580754 0.237275
O O5 0.606654 0.909012 0.923144
O O6 0.653449 0.998348 0.839914
O O7 0.894585 0.917711 0.894644
O O8 0.793381 0.078756 0.912028
O O9 0.500000 0.314731 0.500000
O O10 0.250000 0.250000 0.551859
O O11 0.536842 0.240976 0.588246
#
# Coordination Sequence:
#
# PCOD9327739 Si02
#       5
#    16  16  16   8  16
#     4  11  23  38  62  99 137 179 224 267 336 408
#     4  10  22  40  66  96 131 179 228 274 345 406
#     4  10  23  45  69  97 130 177 233 289 352 407
#     4  12  22  38  63  98 137 178 224 278 324 404
#     4  10  21  43  65  93 138 178 219 284 338 409
#
# _framework density 22.688707999999998
#
# number of rings (size 3 to 8) (size 9 to 14) (size 15 to 20)
#    0.000    1.556    2.222    2.667    0.000    1.778 
#    4.000   15.000    0.000    0.000    0.000    0.000 
#    0.000    0.000    0.000    0.000    0.000    0.000 
#
# Total GULP energy -100503.431465 kJ/mol
# GULP energy per Si atom -5583.523970 kJ/mol
# Density = 2.263707 g / cm^3
# Si number density = 22.688708 Si / 1000 Ang^3
#
#
#
# Elastic Constant Matrix: (Units=GPa)
#
#
# Indices 1 2 3 4 5 6 
#
# 1 64.9918 51.5149 36.3335 0.0000 0.0000 0.0000
# 2 51.5149 172.9308 68.3440 0.0000 0.0000 0.0000
# 3 36.3335 68.3440 127.4343 0.0000 0.0000 0.0000
# 4 0.0000 0.0000 0.0000 47.2493 0.0000 0.0000
# 5 0.0000 0.0000 0.0000 0.0000 27.4700 0.0000
# 6 0.0000 0.0000 0.0000 0.0000 0.0000 22.1227
#
#
#
# Elastic Compliance Matrix: (Units=1/GPa)
#
#
# Indices 1 2 3 4 5 6 
#
# 1 0.021229 -0.004989 -0.003377 0.000000 0.000000 0.000000
# 2 -0.004989 0.008511 -0.003142 0.000000 0.000000 0.000000
# 3 -0.003377 -0.003142 0.010495 0.000000 0.000000 0.000000
# 4 0.000000 0.000000 0.000000 0.021164 0.000000 0.000000
# 5 0.000000 0.000000 0.000000 0.000000 0.036403 0.000000
# 6 0.000000 0.000000 0.000000 0.000000 0.000000 0.045202
#
#
# Mechanical properties :
#
#
# Convention : Reuss Voigt Hill
#
# Bulk Modulus (GPa) = 58.07676 75.30463 66.69070
# Shear Modulus (GPa) = 29.11029 33.31272 31.21151
#
# Velocity S-wave (km/s) = 3.58583 3.83593 3.71299
# Velocity P-wave (km/s) = 6.54194 7.27197 6.91659
#
# Compressibility (1/GPa) = 0.01721859
#
# Stress axis : x y z
#
# Youngs Moduli (GPa) = 47.10490 117.50005 95.28414
#
# Poissons Ratio (x) = 0.58626 0.32176
# Poissons Ratio (y) = 0.23503 0.29936
# Poissons Ratio (z) = 0.15907 0.36916
#
# Static dielectric constant tensor:
#      x y z
#    x 1.840770 0.000000 0.000000 
#    y 0.000000 1.866810 0.000000 
#    z 0.000000 0.000000 1.763220 
# 
# From -- ./inp_files/10109.got.cif
#   From: 2010.05.17/outbox.cif.g08.bks.cpg/sg22_6_cif.got.tgz:10109.got - 2010.06.03 23:40:54.
