data_PCOD9327858
_publ_section_title
;
Structure prediction by ZEFSAII (Michael W. Deem and Ramdas Pophale) SiO2 
 PCOD9327858
Probable space group: F 2 2 2
;
_chemical_formula_sum "Si O2"
_cell_formula_units_Z 104
_cell_length_a 26.531408
_cell_length_b 21.423405
_cell_length_c 8.988939
_cell_angle_alpha 90.000000
_cell_angle_beta 90.000000
_cell_angle_gamma 90.000000
_cell_volume 5109.250893
_symmetry_space_group_name_H-M "F 2 2 2"
_symmetry_group_IT_number 22
_symmetry_cell_setting 'orthorhombic'
loop_
_space_group_symop_operation_xyz
x,y,z
-x,-y,z
x,-y,-z
-x,y,-z
x,1/2+y,1/2+z
-x,1/2-y,1/2+z
x,1/2-y,1/2-z
-x,1/2+y,1/2-z
1/2+x,y,1/2+z
1/2-x,-y,1/2+z
1/2+x,-y,1/2-z
1/2-x,y,1/2-z
1/2+x,1/2+y,z
1/2-x,1/2-y,z
1/2+x,1/2-y,-z
1/2-x,1/2+y,-z
loop_
_atom_site_type_symbol
_atom_site_label
_atom_site_fract_x
_atom_site_fract_y
_atom_site_fract_z
Si Si1 0.090068 0.081108 0.226712
Si Si2 0.192885 0.766384 0.075878
Si Si3 0.126414 0.054909 0.695845
Si Si4 0.825740 0.588774 0.504894
Si Si5 0.750000 0.902843 0.250000
Si Si6 0.012570 0.426149 0.833777
Si Si7 0.157055 0.852918 0.564903
O O1 0.120679 0.079255 0.075419
O O2 0.110999 0.136553 0.325970
O O3 0.030716 0.091041 0.216856
O O4 0.109399 0.017982 0.314520
O O5 0.188685 0.750000 0.250000
O O6 0.250000 0.750000 0.032112
O O7 0.183257 0.837941 0.036556
O O8 0.157882 0.716393 0.996334
O O9 0.070277 0.085342 0.710858
O O10 0.152729 0.094204 0.564057
O O11 0.164782 0.058982 0.834072
O O12 0.782308 0.566734 0.387774
O O13 0.793126 0.865383 0.337219
O O14 0.000000 0.500000 0.845020
O O15 0.000000 0.401122 0.000000
#
# Coordination Sequence:
#
# PCOD9327858 Si02
#       7
#    16  16  16  16   8  16  16
#     4  10  22  38  61  96 127 156 200 252 309 358
#     4  11  22  39  66  84 112 158 216 260 288 358
#     4  11  21  38  65  92 125 162 205 245 303 379
#     4  11  23  40  60  89 124 162 207 252 303 353
#     4  10  24  39  56  86 122 156 202 259 296 350
#     4   9  17  34  62  92 121 162 204 248 295 360
#     4  11  21  38  63  89 119 159 208 249 302 355
#
# _framework density 20.355235
#
# number of rings (size 3 to 8) (size 9 to 14) (size 15 to 20)
#    0.000    1.538    4.615    0.923    0.000    4.308 
#    0.000   14.615    0.000    5.538    0.000    0.000 
#    0.000    0.000    0.000    0.000    0.000    0.000 
#
# Total GULP energy -144771.593891 kJ/mol
# GULP energy per Si atom -5568.138227 kJ/mol
# Density = 2.030891 g / cm^3
# Si number density = 20.355235 Si / 1000 Ang^3
#
#
#
# Elastic Constant Matrix: (Units=GPa)
#
#
# Indices 1 2 3 4 5 6 
#
# 1 94.5058 21.9927 22.0362 -0.0011 0.0001 -0.0003
# 2 21.9927 84.4507 5.7650 -0.0012 0.0000 -0.0004
# 3 22.0362 5.7650 63.7558 -0.0023 0.0002 -0.0009
# 4 -0.0011 -0.0012 -0.0023 23.0826 0.0003 -0.0006
# 5 0.0001 0.0000 0.0002 0.0003 22.7774 0.0002
# 6 -0.0003 -0.0004 -0.0009 -0.0006 0.0002 9.0115
#
#
#
# Elastic Compliance Matrix: (Units=1/GPa)
#
#
# Indices 1 2 3 4 5 6 
#
# 1 0.012177 -0.002902 -0.003946 0.000000 0.000000 0.000000
# 2 -0.002902 0.012606 -0.000137 0.000001 0.000000 0.000000
# 3 -0.003946 -0.000137 0.017061 0.000002 0.000000 0.000002
# 4 0.000000 0.000001 0.000002 0.043323 -0.000001 0.000003
# 5 0.000000 0.000000 0.000000 -0.000001 0.043903 -0.000001
# 6 0.000000 0.000000 0.000002 0.000003 -0.000001 0.110969
#
#
# Mechanical properties :
#
#
# Convention : Reuss Voigt Hill
#
# Bulk Modulus (GPa) = 35.87541 38.03335 36.95438
# Shear Modulus (GPa) = 18.98972 23.83554 21.41263
#
# Velocity S-wave (km/s) = 3.05768 3.42567 3.24689
# Velocity P-wave (km/s) = 5.48897 5.86279 5.67896
#
# Compressibility (1/GPa) = 0.02787425
#
# Stress axis : x y z
#
# Youngs Moduli (GPa) = 82.12343 79.32585 58.61250
#
# Poissons Ratio (x) = 0.23018 0.23130
# Poissons Ratio (y) = 0.23830 0.00803
# Poissons Ratio (z) = 0.32409 0.01087
#
# Static dielectric constant tensor:
#      x y z
#    x 1.758020 0.000000 0.000000 
#    y 0.000000 1.742270 0.000000 
#    z 0.000000 0.000000 1.792040 
# 
# From -- ./inp_files/14805.got.cif
#   From: 2010.05.17/outbox.cif.g08.bks.cpg/sg22_8_cif.got.tgz:14805.got - 2010.06.03 23:40:54.
