data_PCOD9327136
_publ_section_title
;
Structure prediction by ZEFSAII (Michael W. Deem and Ramdas Pophale) SiO2 
 PCOD9327136
Probable space group: F 2 2 2
;
_chemical_formula_sum "Si O2"
_cell_formula_units_Z 68
_cell_length_a 28.264647
_cell_length_b 10.068863
_cell_length_c 11.662695
_cell_angle_alpha 90.000000
_cell_angle_beta 90.000000
_cell_angle_gamma 90.000000
_cell_volume 3319.119707
_symmetry_space_group_name_H-M "F 2 2 2"
_symmetry_group_IT_number 22
_symmetry_cell_setting 'orthorhombic'
loop_
_space_group_symop_operation_xyz
x,y,z
-x,-y,z
x,-y,-z
-x,y,-z
x,1/2+y,1/2+z
-x,1/2-y,1/2+z
x,1/2-y,1/2-z
-x,1/2+y,1/2-z
1/2+x,y,1/2+z
1/2-x,-y,1/2+z
1/2+x,-y,1/2-z
1/2-x,y,1/2-z
1/2+x,1/2+y,z
1/2-x,1/2-y,z
1/2+x,1/2-y,-z
1/2-x,1/2+y,-z
loop_
_atom_site_type_symbol
_atom_site_label
_atom_site_fract_x
_atom_site_fract_y
_atom_site_fract_z
Si Si1 0.500000 0.000000 0.000000
Si Si2 0.415926 0.335305 0.585229
Si Si3 0.785581 0.636500 0.552777
Si Si4 0.134606 0.783477 0.880922
Si Si5 0.120847 0.569874 0.314210
O O1 0.466222 0.094497 0.924928
O O2 0.395244 0.319119 0.457112
O O3 0.385105 0.417032 0.677919
O O4 0.412219 0.184970 0.632950
O O5 0.764419 0.500000 0.500000
O O6 0.750000 0.750000 0.591695
O O7 0.816948 0.697220 0.449772
O O8 0.825176 0.601100 0.647888
O O9 0.143622 0.750000 0.750000
O O10 0.109862 0.927969 0.869793
#
# Coordination Sequence:
#
# PCOD9327136 Si02
#       5
#     4  16  16  16  16
#     4  12  24  40  62  96 130 152 228 278 316 406
#     4  10  21  41  62  92 123 163 219 268 325 396
#     4   9  19  39  65  97 132 170 224 267 315 392
#     4  10  20  39  67  88 130 177 211 264 333 393
#     4   9  20  43  66  87 134 174 212 262 340 398
#
# _framework density 20.487362000000001
#
# number of rings (size 3 to 8) (size 9 to 14) (size 15 to 20)
#    0.000    2.353    0.000    3.529    0.000    0.471 
#   33.882   10.588   15.529    0.000    0.000    0.000 
#    0.000    0.000    0.000    0.000    0.000    0.000 
#
# Total GULP energy -94765.942819 kJ/mol
# GULP energy per Si atom -5574.467225 kJ/mol
# Density = 2.044073 g / cm^3
# Si number density = 20.487362 Si / 1000 Ang^3
#
#
#
# Elastic Constant Matrix: (Units=GPa)
#
#
# Indices 1 2 3 4 5 6 
#
# 1 62.9546 46.8235 30.1540 0.0000 0.0000 0.0000
# 2 46.8235 95.5866 30.0685 0.0000 0.0000 0.0000
# 3 30.1540 30.0685 138.2458 0.0000 0.0000 0.0000
# 4 0.0000 0.0000 0.0000 20.1402 0.0000 0.0000
# 5 0.0000 0.0000 0.0000 0.0000 -22.2418 0.0000
# 6 0.0000 0.0000 0.0000 0.0000 0.0000 27.3268
#
#
#
# Elastic Compliance Matrix: (Units=1/GPa)
#
#
# Indices 1 2 3 4 5 6 
#
# 1 0.026198 -0.011846 -0.003138 0.000000 0.000000 0.000000
# 2 -0.011846 0.016587 -0.001024 0.000000 0.000000 0.000000
# 3 -0.003138 -0.001024 0.008141 0.000000 0.000000 0.000000
# 4 0.000000 0.000000 0.000000 0.049652 0.000000 0.000000
# 5 0.000000 0.000000 0.000000 0.000000 -0.044960 0.000000
# 6 0.000000 0.000000 0.000000 0.000000 0.000000 0.036594
#
#
# Mechanical properties :
#
#
# Convention : Reuss Voigt Hill
#
# Bulk Modulus (GPa) = 52.88209 56.76432 54.82320
# Shear Modulus (GPa) = 38.30541 17.69446 27.99993
#
# Velocity S-wave (km/s) = 4.32870 2.94203 3.70089
# Velocity P-wave (km/s) = 7.13104 6.26960 6.71415
#
# Compressibility (1/GPa) = 0.01890999
#
# Stress axis : x y z
#
# Youngs Moduli (GPa) = 38.17049 60.28928 122.84177
#
# Poissons Ratio (x) = 0.71420 0.38545
# Poissons Ratio (y) = 0.45218 0.12575
# Poissons Ratio (z) = 0.11977 0.06172
#
# Static dielectric constant tensor:
#      x y z
#    x 1.695500 0.000000 0.000000 
#    y 0.000000 1.835150 0.000000 
#    z 0.000000 0.000000 1.778810 
# 
# From -- ./inp_files/24373.got.cif
#   From: 2010.05.17/outbox.cif.g08.bks.cpg/sg22_13_cif.got.tgz:24373.got - 2010.06.03 23:40:54.
