data_PCOD9327902
_publ_section_title
;
Structure prediction by ZEFSAII (Michael W. Deem and Ramdas Pophale) SiO2 
 PCOD9327902
Probable space group: F 2 2 2
;
_chemical_formula_sum "Si O2"
_cell_formula_units_Z 72
_cell_length_a 19.299331
_cell_length_b 8.850967
_cell_length_c 18.442393
_cell_angle_alpha 90.000000
_cell_angle_beta 90.000000
_cell_angle_gamma 90.000000
_cell_volume 3150.287926
_symmetry_space_group_name_H-M "F 2 2 2"
_symmetry_group_IT_number 22
_symmetry_cell_setting 'orthorhombic'
loop_
_space_group_symop_operation_xyz
x,y,z
-x,-y,z
x,-y,-z
-x,y,-z
x,1/2+y,1/2+z
-x,1/2-y,1/2+z
x,1/2-y,1/2-z
-x,1/2+y,1/2-z
1/2+x,y,1/2+z
1/2-x,-y,1/2+z
1/2+x,-y,1/2-z
1/2-x,y,1/2-z
1/2+x,1/2+y,z
1/2-x,1/2-y,z
1/2+x,1/2-y,-z
1/2-x,1/2+y,-z
loop_
_atom_site_type_symbol
_atom_site_label
_atom_site_fract_x
_atom_site_fract_y
_atom_site_fract_z
Si Si1 0.969888 0.840855 0.615430
Si Si2 0.890833 0.249271 0.838415
Si Si3 0.602844 0.250000 0.250000
Si Si4 0.833555 0.548846 0.919130
Si Si5 0.792338 0.520023 0.677735
O O1 0.944905 0.850296 0.698739
O O2 0.034530 0.727270 0.621711
O O3 0.895816 0.827527 0.576165
O O4 0.000000 0.000000 0.588891
O O5 0.898806 0.250000 0.750000
O O6 0.862815 0.406938 0.871411
O O7 0.834595 0.120693 0.853735
O O8 0.652017 0.357865 0.203954
O O9 0.763598 0.586369 0.877236
O O10 0.817827 0.500000 0.000000
O O11 0.750000 0.472018 0.750000
#
# Coordination Sequence:
#
# PCOD9327902 Si02
#       5
#    16  16   8  16  16
#     4  10  22  39  66 101 131 177 232 291 364 437
#     4  11  21  40  70 100 133 181 246 292 354 442
#     4  12  23  38  66 100 137 170 236 320 359 408
#     4  11  25  44  68 100 145 191 236 298 382 450
#     4  12  23  40  66 102 139 186 241 308 361 430
#
# _framework density 22.855055
#
# number of rings (size 3 to 8) (size 9 to 14) (size 15 to 20)
#    0.000    0.889    5.556    2.333    0.000    4.000 
#    8.000    0.000    0.000    0.000    0.000    0.000 
#    0.000    0.000    0.000    0.000    0.000    0.000 
#
# Total GULP energy -100461.379142 kJ/mol
# GULP energy per Si atom -5581.187730 kJ/mol
# Density = 2.280304 g / cm^3
# Si number density = 22.855055 Si / 1000 Ang^3
#
#
#
# Elastic Constant Matrix: (Units=GPa)
#
#
# Indices 1 2 3 4 5 6 
#
# 1 152.4760 33.8910 22.5382 0.0000 0.0000 0.0000
# 2 33.8910 69.5061 3.7593 0.0000 0.0000 0.0000
# 3 22.5382 3.7593 86.4913 0.0000 0.0000 0.0000
# 4 0.0000 0.0000 0.0000 12.2994 0.0000 0.0000
# 5 0.0000 0.0000 0.0000 0.0000 3.9079 0.0000
# 6 0.0000 0.0000 0.0000 0.0000 0.0000 30.9830
#
#
#
# Elastic Compliance Matrix: (Units=1/GPa)
#
#
# Indices 1 2 3 4 5 6 
#
# 1 0.007635 -0.003624 -0.001832 0.000000 0.000000 0.000000
# 2 -0.003624 0.016141 0.000243 0.000000 0.000000 0.000000
# 3 -0.001832 0.000243 0.012029 0.000000 0.000000 0.000000
# 4 0.000000 0.000000 0.000000 0.081305 0.000000 0.000000
# 5 0.000000 0.000000 0.000000 0.000000 0.255891 0.000000
# 6 0.000000 0.000000 0.000000 0.000000 0.000000 0.032276
#
#
# Mechanical properties :
#
#
# Convention : Reuss Voigt Hill
#
# Bulk Modulus (GPa) = 39.40330 47.65004 43.52667
# Shear Modulus (GPa) = 11.78797 25.99039 18.88918
#
# Velocity S-wave (km/s) = 2.27352 3.37587 2.87797
# Velocity P-wave (km/s) = 4.91628 6.00745 5.48905
#
# Compressibility (1/GPa) = 0.02537858
#
# Stress axis : x y z
#
# Youngs Moduli (GPa) = 130.98253 61.95430 83.13463
#
# Poissons Ratio (x) = 0.22449 0.15230
# Poissons Ratio (y) = 0.47462 -0.02017
# Poissons Ratio (z) = 0.23995 -0.01503
#
# Static dielectric constant tensor:
#      x y z
#    x 1.910220 0.000000 0.000000 
#    y 0.000000 1.893070 0.000000 
#    z 0.000000 0.000000 1.835740 
# 
# From -- ./inp_files/22478.got.cif
#   From: 2010.05.17/outbox.cif.g08.bks.cpg/sg22_12_cif.got.tgz:22478.got - 2010.06.03 23:40:54.
