data_PCOD9327868
_publ_section_title
;
Structure prediction by ZEFSAII (Michael W. Deem and Ramdas Pophale) SiO2 
 PCOD9327868
Probable space group: F 2 2 2
;
_chemical_formula_sum "Si O2"
_cell_formula_units_Z 64
_cell_length_a 7.834534
_cell_length_b 11.905316
_cell_length_c 28.062539
_cell_angle_alpha 90.000000
_cell_angle_beta 90.000000
_cell_angle_gamma 90.000000
_cell_volume 2617.466059
_symmetry_space_group_name_H-M "F 2 2 2"
_symmetry_group_IT_number 22
_symmetry_cell_setting 'orthorhombic'
loop_
_space_group_symop_operation_xyz
x,y,z
-x,-y,z
x,-y,-z
-x,y,-z
x,1/2+y,1/2+z
-x,1/2-y,1/2+z
x,1/2-y,1/2-z
-x,1/2+y,1/2-z
1/2+x,y,1/2+z
1/2-x,-y,1/2+z
1/2+x,-y,1/2-z
1/2-x,y,1/2-z
1/2+x,1/2+y,z
1/2-x,1/2-y,z
1/2+x,1/2-y,-z
1/2-x,1/2+y,-z
loop_
_atom_site_type_symbol
_atom_site_label
_atom_site_fract_x
_atom_site_fract_y
_atom_site_fract_z
Si Si1 0.892273 0.331008 0.430539
Si Si2 0.447996 0.623816 0.736727
Si Si3 0.423683 0.181958 0.132460
Si Si4 0.252111 0.441360 0.050451
O O1 0.750000 0.250000 0.455402
O O2 0.811221 0.450653 0.420262
O O3 0.936408 0.271684 0.381560
O O4 0.078711 0.361661 0.453961
O O5 0.500000 0.500000 0.756832
O O6 0.520474 0.750000 0.750000
O O7 0.250000 0.631021 0.750000
O O8 0.468764 0.617849 0.679689
O O9 0.250000 0.250000 0.142275
O O10 0.389716 0.117688 0.082265
O O11 0.208444 0.500000 0.000000
#
# Coordination Sequence:
#
# PCOD9327868 Si02
#       4
#    16  16  16  16
#     4  10  22  38  64  97 133 181 235 281 348 407
#     4  11  25  48  75 106 143 182 241 301 374 437
#     4  10  22  45  70  95 141 186 230 292 356 427
#     4  10  23  42  63  97 139 185 235 286 341 416
#
# _framework density 24.451129999999999
#
# number of rings (size 3 to 8) (size 9 to 14) (size 15 to 20)
#    0.000    1.750    2.500    1.500    3.500    7.500 
#    0.000    2.500    0.000    0.000    0.000    0.000 
#    0.000    0.000    0.000    0.000    0.000    0.000 
#
# Total GULP energy -89190.189531 kJ/mol
# GULP energy per Si atom -5574.386846 kJ/mol
# Density = 2.439548 g / cm^3
# Si number density = 24.451130 Si / 1000 Ang^3
#
#
#
# Elastic Constant Matrix: (Units=GPa)
#
#
# Indices 1 2 3 4 5 6 
#
# 1 70.6530 41.7205 9.8237 0.0000 0.0000 0.0000
# 2 41.7205 190.8648 45.2967 0.0000 0.0000 0.0000
# 3 9.8237 45.2967 101.9526 0.0000 0.0000 0.0000
# 4 0.0000 0.0000 0.0000 55.9683 0.0000 0.0000
# 5 0.0000 0.0000 0.0000 0.0000 -1.5147 0.0000
# 6 0.0000 0.0000 0.0000 0.0000 0.0000 30.8945
#
#
#
# Elastic Compliance Matrix: (Units=1/GPa)
#
#
# Indices 1 2 3 4 5 6 
#
# 1 0.016251 -0.003556 0.000014 0.000000 0.000000 0.000000
# 2 -0.003556 0.006635 -0.002605 0.000000 0.000000 0.000000
# 3 0.000014 -0.002605 0.010965 0.000000 0.000000 0.000000
# 4 0.000000 0.000000 0.000000 0.017867 0.000000 0.000000
# 5 0.000000 0.000000 0.000000 0.000000 -0.660193 0.000000
# 6 0.000000 0.000000 0.000000 0.000000 0.000000 0.032368
#
#
# Mechanical properties :
#
#
# Convention : Reuss Voigt Hill
#
# Bulk Modulus (GPa) = 46.38904 61.90580 54.14742
# Shear Modulus (GPa) = -8.98267 34.84491 12.93112
#
# Velocity S-wave (km/s) = -1.91877 3.77912 2.30218
# Velocity P-wave (km/s) = 3.75558 6.66450 5.40925
#
# Compressibility (1/GPa) = 0.02155681
#
# Stress axis : x y z
#
# Youngs Moduli (GPa) = 61.53335 150.72062 91.20248
#
# Poissons Ratio (x) = 0.53590 -0.00126
# Poissons Ratio (y) = 0.21879 0.23760
# Poissons Ratio (z) = -0.00085 0.39265
#
# Static dielectric constant tensor:
#      x y z
#    x 0.979780 0.000000 0.000000 
#    y 0.000000 1.995630 0.000000 
#    z 0.000000 0.000000 1.974670 
# 
# From -- ./inp_files/8528.got.cif
#   From: 2010.05.17/outbox.cif.g08.bks.cpg/sg22_5_cif.got.tgz:8528.got - 2010.06.03 23:40:54.
