data_PCOD9327698
_publ_section_title
;
Structure prediction by ZEFSAII (Michael W. Deem and Ramdas Pophale) SiO2 
 PCOD9327698
Probable space group: F 2 2 2
;
_chemical_formula_sum "Si O2"
_cell_formula_units_Z 84
_cell_length_a 23.519972
_cell_length_b 7.547878
_cell_length_c 21.324201
_cell_angle_alpha 90.000000
_cell_angle_beta 90.000000
_cell_angle_gamma 90.000000
_cell_volume 3785.597531
_symmetry_space_group_name_H-M "F 2 2 2"
_symmetry_group_IT_number 22
_symmetry_cell_setting 'orthorhombic'
loop_
_space_group_symop_operation_xyz
x,y,z
-x,-y,z
x,-y,-z
-x,y,-z
x,1/2+y,1/2+z
-x,1/2-y,1/2+z
x,1/2-y,1/2-z
-x,1/2+y,1/2-z
1/2+x,y,1/2+z
1/2-x,-y,1/2+z
1/2+x,-y,1/2-z
1/2-x,y,1/2-z
1/2+x,1/2+y,z
1/2-x,1/2-y,z
1/2+x,1/2-y,-z
1/2-x,1/2+y,-z
loop_
_atom_site_type_symbol
_atom_site_label
_atom_site_fract_x
_atom_site_fract_y
_atom_site_fract_z
Si Si1 0.823776 0.607125 0.437848
Si Si2 0.060903 0.754761 0.601111
Si Si3 0.652581 0.017406 0.929780
Si Si4 0.810246 0.701975 0.649492
Si Si5 0.000000 0.500000 0.000000
Si Si6 0.591960 0.750000 0.750000
Si Si7 0.500000 0.500000 0.200035
O O1 0.808347 0.500000 0.500000
O O2 0.893353 0.622884 0.432091
O O3 0.693394 0.686694 0.436340
O O4 0.806859 0.494915 0.377463
O O5 0.022925 0.854363 0.550608
O O6 0.026870 0.651782 0.654585
O O7 0.105154 0.913502 0.619288
O O8 0.680796 0.838155 0.908270
O O9 0.626924 0.000000 0.000000
O O10 0.750000 0.750000 0.679327
O O11 0.864783 0.732391 0.692169
O O12 0.549447 0.584410 0.757873
#
# Coordination Sequence:
#
# PCOD9327698 Si02
#       7
#    16  16  16  16   4   8   8
#     4  10  21  42  66 105 149 181 231 291 363 443
#     4  10  24  39  62 110 142 193 228 295 354 454
#     4  10  21  42  68 103 147 185 226 294 362 441
#     4  12  26  48  75 101 144 191 244 305 362 428
#     4  12  24  32  76 104 156 192 228 284 392 434
#     4  12  29  52  68 106 135 196 252 304 352 424
#     4  12  28  40  78  94 149 189 252 302 358 422
#
# _framework density 22.189364999999999
#
# number of rings (size 3 to 8) (size 9 to 14) (size 15 to 20)
#    1.143    0.000    4.762    0.286    8.000    1.524 
#    0.000    0.000    0.000    2.286    0.000    0.000 
#    0.000    0.000    0.000    0.000    0.000    0.000 
#
# Total GULP energy -116963.816582 kJ/mol
# GULP energy per Si atom -5569.705552 kJ/mol
# Density = 2.213886 g / cm^3
# Si number density = 22.189365 Si / 1000 Ang^3
#
#
#
# Elastic Constant Matrix: (Units=GPa)
#
#
# Indices 1 2 3 4 5 6 
#
# 1 66.4386 11.4862 25.3173 0.0000 0.0000 0.0000
# 2 11.4862 98.1106 28.1874 0.0000 0.0000 0.0000
# 3 25.3173 28.1874 62.5507 0.0000 0.0000 0.0000
# 4 0.0000 0.0000 0.0000 29.7118 0.0000 0.0000
# 5 0.0000 0.0000 0.0000 0.0000 71.3863 0.0000
# 6 0.0000 0.0000 0.0000 0.0000 0.0000 33.3729
#
#
#
# Elastic Compliance Matrix: (Units=1/GPa)
#
#
# Indices 1 2 3 4 5 6 
#
# 1 0.017796 -0.000016 -0.007196 0.000000 0.000000 0.000000
# 2 -0.000016 0.011708 -0.005270 0.000000 0.000000 0.000000
# 3 -0.007196 -0.005270 0.021274 0.000000 0.000000 0.000000
# 4 0.000000 0.000000 0.000000 0.033657 0.000000 0.000000
# 5 0.000000 0.000000 0.000000 0.000000 0.014008 0.000000
# 6 0.000000 0.000000 0.000000 0.000000 0.000000 0.029964
#
#
# Mechanical properties :
#
#
# Convention : Reuss Voigt Hill
#
# Bulk Modulus (GPa) = 38.73596 39.67576 39.20586
# Shear Modulus (GPa) = 30.86862 37.70146 34.28504
#
# Velocity S-wave (km/s) = 3.73385 4.12646 3.93505
# Velocity P-wave (km/s) = 6.00698 6.37361 6.19301
#
# Compressibility (1/GPa) = 0.02581581
#
# Stress axis : x y z
#
# Youngs Moduli (GPa) = 56.19138 85.40837 47.00527
#
# Poissons Ratio (x) = 0.00138 0.33824
# Poissons Ratio (y) = 0.00091 0.24770
# Poissons Ratio (z) = 0.40434 0.45007
#
# Static dielectric constant tensor:
#      x y z
#    x 1.991430 0.000000 0.000000 
#    y 0.000000 1.695580 0.000000 
#    z 0.000000 0.000000 1.778980 
# 
# From -- ./inp_files/49770.got.cif
#   From: 2010.05.17/outbox.cif.g08.bks.cpg/sg22_25_cif.got.tgz:49770.got - 2010.06.03 23:40:54.
