data_PCOD9327757
_publ_section_title
;
Structure prediction by ZEFSAII (Michael W. Deem and Ramdas Pophale) SiO2 
 PCOD9327757
Probable space group: F 2 2 2
;
_chemical_formula_sum "Si O2"
_cell_formula_units_Z 112
_cell_length_a 12.729946
_cell_length_b 27.259561
_cell_length_c 14.288280
_cell_angle_alpha 90.000000
_cell_angle_beta 90.000000
_cell_angle_gamma 90.000000
_cell_volume 4958.215186
_symmetry_space_group_name_H-M "F 2 2 2"
_symmetry_group_IT_number 22
_symmetry_cell_setting 'orthorhombic'
loop_
_space_group_symop_operation_xyz
x,y,z
-x,-y,z
x,-y,-z
-x,y,-z
x,1/2+y,1/2+z
-x,1/2-y,1/2+z
x,1/2-y,1/2-z
-x,1/2+y,1/2-z
1/2+x,y,1/2+z
1/2-x,-y,1/2+z
1/2+x,-y,1/2-z
1/2-x,y,1/2-z
1/2+x,1/2+y,z
1/2-x,1/2-y,z
1/2+x,1/2-y,-z
1/2-x,1/2+y,-z
loop_
_atom_site_type_symbol
_atom_site_label
_atom_site_fract_x
_atom_site_fract_y
_atom_site_fract_z
Si Si1 0.244338 0.808856 0.358961
Si Si2 0.511209 0.337695 0.403163
Si Si3 0.502319 0.570356 0.705606
Si Si4 0.885148 0.147560 0.977516
Si Si5 0.159055 0.002685 0.611252
Si Si6 0.325004 0.431612 0.163517
Si Si7 0.375292 0.245616 0.359941
O O1 0.250000 0.824001 0.250000
O O2 0.250000 0.750000 0.362875
O O3 0.129836 0.821484 0.395024
O O4 0.327899 0.833699 0.428433
O O5 0.500000 0.366922 0.500000
O O6 0.489951 0.372788 0.316760
O O7 0.434773 0.291265 0.406015
O O8 0.614415 0.549648 0.669048
O O9 0.420797 0.539837 0.642883
O O10 0.446836 0.563018 0.805779
O O11 0.818930 0.106950 0.920961
O O12 0.902953 0.194605 0.909537
O O13 0.000000 0.127329 0.000000
O O14 0.274462 0.984213 0.639828
O O15 0.154004 0.000000 0.500000
O O16 0.250000 0.413258 0.250000
O O17 0.402749 0.250000 0.250000
O O18 0.250000 0.250000 0.369173
#
# Coordination Sequence:
#
# PCOD9327757 Si02
#       7
#    16  16  16  16  16  16  16
#     4  11  27  46  68  99 147 203 249 301 366 432
#     4  12  24  40  72 105 137 183 249 299 354 438
#     4  10  22  41  72 106 135 178 234 300 368 428
#     4  12  26  46  68 104 154 197 245 304 373 442
#     4  10  21  43  71 103 135 183 233 306 366 436
#     4  10  25  44  74 103 146 184 235 310 366 451
#     4  11  25  39  68 106 144 198 243 301 369 441
#
# _framework density 22.588773
#
# number of rings (size 3 to 8) (size 9 to 14) (size 15 to 20)
#    0.000    1.143    0.000    6.000   18.000    0.000 
#    0.000   10.714    0.000    0.000    0.000    0.000 
#    0.000    0.000    0.000    0.000    0.000    0.000 
#
# Total GULP energy -156407.852203 kJ/mol
# GULP energy per Si atom -5585.994722 kJ/mol
# Density = 2.253736 g / cm^3
# Si number density = 22.588773 Si / 1000 Ang^3
#
#
#
# Elastic Constant Matrix: (Units=GPa)
#
#
# Indices 1 2 3 4 5 6 
#
# 1 66.1839 18.7912 44.3257 0.0000 0.0000 0.0000
# 2 18.7912 55.2990 19.0373 0.0000 0.0000 0.0000
# 3 44.3257 19.0373 134.6010 0.0000 0.0000 0.0000
# 4 0.0000 0.0000 0.0000 -428.4858 0.0000 0.0000
# 5 0.0000 0.0000 0.0000 0.0000 26.8226 0.0000
# 6 0.0000 0.0000 0.0000 0.0000 0.0000 12.2112
#
#
#
# Elastic Compliance Matrix: (Units=1/GPa)
#
#
# Indices 1 2 3 4 5 6 
#
# 1 0.020573 -0.004897 -0.006082 0.000000 0.000000 0.000000
# 2 -0.004897 0.020175 -0.001241 0.000000 0.000000 0.000000
# 3 -0.006082 -0.001241 0.009608 0.000000 0.000000 0.000000
# 4 0.000000 0.000000 0.000000 -0.002334 0.000000 0.000000
# 5 0.000000 0.000000 0.000000 0.000000 0.037282 0.000000
# 6 0.000000 0.000000 0.000000 0.000000 0.000000 0.081892
#
#
# Mechanical properties :
#
#
# Convention : Reuss Voigt Hill
#
# Bulk Modulus (GPa) = 38.58705 46.71026 42.64866
# Shear Modulus (GPa) = 24.96560 -66.29511 -20.66475
#
# Velocity S-wave (km/s) = 3.32809 -5.42332 -3.02789
# Velocity P-wave (km/s) = 5.64693 4.30036 2.58792
#
# Compressibility (1/GPa) = 0.02591543
#
# Stress axis : x y z
#
# Youngs Moduli (GPa) = 48.60631 49.56688 104.08131
#
# Poissons Ratio (x) = 0.24274 0.63307
# Poissons Ratio (y) = 0.23803 0.12914
# Poissons Ratio (z) = 0.29565 0.06150
#
# Static dielectric constant tensor:
#      x y z
#    x 1.862620 0.000000 0.000000 
#    y 0.000000 1.853080 0.000000 
#    z 0.000000 0.000000 1.990970 
# 
# From -- ./inp_files/28460.got.cif
#   From: 2010.05.17/outbox.cif.g08.bks.cpg/sg22_15_cif.got.tgz:28460.got - 2010.06.03 23:40:54.
