data_PCOD9327118
_publ_section_title
;
Structure prediction by ZEFSAII (Michael W. Deem and Ramdas Pophale) SiO2 
 PCOD9327118
Probable space group: F 2 2 2
;
_chemical_formula_sum "Si O2"
_cell_formula_units_Z 92
_cell_length_a 16.233071
_cell_length_b 11.349357
_cell_length_c 18.909022
_cell_angle_alpha 90.000000
_cell_angle_beta 90.000000
_cell_angle_gamma 90.000000
_cell_volume 3483.702117
_symmetry_space_group_name_H-M "F 2 2 2"
_symmetry_group_IT_number 22
_symmetry_cell_setting 'orthorhombic'
loop_
_space_group_symop_operation_xyz
x,y,z
-x,-y,z
x,-y,-z
-x,y,-z
x,1/2+y,1/2+z
-x,1/2-y,1/2+z
x,1/2-y,1/2-z
-x,1/2+y,1/2-z
1/2+x,y,1/2+z
1/2-x,-y,1/2+z
1/2+x,-y,1/2-z
1/2-x,y,1/2-z
1/2+x,1/2+y,z
1/2-x,1/2-y,z
1/2+x,1/2-y,-z
1/2-x,1/2+y,-z
loop_
_atom_site_type_symbol
_atom_site_label
_atom_site_fract_x
_atom_site_fract_y
_atom_site_fract_z
Si Si1 0.353600 0.857828 0.534829
Si Si2 0.426879 0.620450 0.554466
Si Si3 0.811893 0.143051 0.119658
Si Si4 0.952944 0.805913 0.679753
Si Si5 0.326473 0.513115 0.667627
Si Si6 0.750000 0.750000 0.157873
Si Si7 0.000000 0.000000 0.000000
O O1 0.373633 0.721242 0.518132
O O2 0.322787 0.906748 0.459320
O O3 0.301411 0.836000 0.604958
O O4 0.441925 0.917982 0.547196
O O5 0.500000 0.602556 0.500000
O O6 0.477099 0.658687 0.624598
O O7 0.362688 0.526749 0.586642
O O8 0.750000 0.250000 0.112877
O O9 0.894686 0.202425 0.148218
O O10 0.761560 0.052675 0.168282
O O11 0.989886 0.750000 0.750000
O O12 0.894790 0.920586 0.697192
O O13 0.309438 0.649215 0.692579
#
# Coordination Sequence:
#
# PCOD9327118 Si02
#       7
#    16  16  16  16  16   8   4
#     4  11  20  36  60 101 146 184 227 303 367 420
#     4  11  22  42  70 110 147 182 241 310 374 430
#     4  10  20  39  64 100 138 186 245 297 353 426
#     4  11  24  44  73  98 141 194 255 298 356 445
#     4  10  24  39  70 104 145 193 236 307 371 433
#     4  10  22  38  62  99 149 172 230 298 384 430
#     4  12  20  28  56  88 146 182 232 268 354 430
#
# _framework density 26.408688999999999
#
# number of rings (size 3 to 8) (size 9 to 14) (size 15 to 20)
#    0.000    1.391    3.478    1.565    0.000    5.913 
#    0.000    0.000   38.261    0.000    0.000    0.000 
#    0.000    0.000    0.000    0.000    0.000    0.000 
#
# Total GULP energy -128404.877350 kJ/mol
# GULP energy per Si atom -5582.820754 kJ/mol
# Density = 2.634858 g / cm^3
# Si number density = 26.408689 Si / 1000 Ang^3
#
#
#
# Elastic Constant Matrix: (Units=GPa)
#
#
# Indices 1 2 3 4 5 6 
#
# 1 91.7570 20.3413 23.2293 0.0000 0.0000 0.0000
# 2 20.3413 88.0119 30.4398 0.0000 0.0000 0.0000
# 3 23.2293 30.4398 109.4584 0.0000 0.0000 0.0000
# 4 0.0000 0.0000 0.0000 15.8747 0.0000 0.0000
# 5 0.0000 0.0000 0.0000 0.0000 19.9260 0.0000
# 6 0.0000 0.0000 0.0000 0.0000 0.0000 5.4651
#
#
#
# Elastic Compliance Matrix: (Units=1/GPa)
#
#
# Indices 1 2 3 4 5 6 
#
# 1 0.011848 -0.002067 -0.001939 0.000000 0.000000 0.000000
# 2 -0.002067 0.012932 -0.003158 0.000000 0.000000 0.000000
# 3 -0.001939 -0.003158 0.010426 0.000000 0.000000 0.000000
# 4 0.000000 0.000000 0.000000 0.062993 0.000000 0.000000
# 5 0.000000 0.000000 0.000000 0.000000 0.050186 0.000000
# 6 0.000000 0.000000 0.000000 0.000000 0.000000 0.182980
#
#
# Mechanical properties :
#
#
# Convention : Reuss Voigt Hill
#
# Bulk Modulus (GPa) = 47.90092 48.58312 48.24202
# Shear Modulus (GPa) = 14.17830 22.60095 18.38963
#
# Velocity S-wave (km/s) = 2.31958 2.92861 2.64170
# Velocity P-wave (km/s) = 5.03504 5.46555 5.25471
#
# Compressibility (1/GPa) = 0.02087643
#
# Stress axis : x y z
#
# Youngs Moduli (GPa) = 84.40486 77.32745 95.91810
#
# Poissons Ratio (x) = 0.15987 0.18602
# Poissons Ratio (y) = 0.17451 0.30287
# Poissons Ratio (z) = 0.16369 0.24417
#
# Static dielectric constant tensor:
#      x y z
#    x 2.068350 0.000000 0.000000 
#    y 0.000000 3.624000 0.000000 
#    z 0.000000 0.000000 2.249230 
# 
# From -- ./inp_files/44159.got.cif
#   From: 2010.05.17/outbox.cif.g08.bks.cpg/sg22_23_cif.got.tgz:44159.got - 2010.06.03 23:40:54.
