data_PCOD9327047
_publ_section_title
;
Structure prediction by ZEFSAII (Michael W. Deem and Ramdas Pophale) SiO2 
 PCOD9327047
Probable space group: F 2 2 2
;
_chemical_formula_sum "Si O2"
_cell_formula_units_Z 56
_cell_length_a 24.008732
_cell_length_b 18.405223
_cell_length_c 5.311563
_cell_angle_alpha 90.000000
_cell_angle_beta 90.000000
_cell_angle_gamma 90.000000
_cell_volume 2347.105681
_symmetry_space_group_name_H-M "F 2 2 2"
_symmetry_group_IT_number 22
_symmetry_cell_setting 'orthorhombic'
loop_
_space_group_symop_operation_xyz
x,y,z
-x,-y,z
x,-y,-z
-x,y,-z
x,1/2+y,1/2+z
-x,1/2-y,1/2+z
x,1/2-y,1/2-z
-x,1/2+y,1/2-z
1/2+x,y,1/2+z
1/2-x,-y,1/2+z
1/2+x,-y,1/2-z
1/2-x,y,1/2-z
1/2+x,1/2+y,z
1/2-x,1/2-y,z
1/2+x,1/2-y,-z
1/2-x,1/2+y,-z
loop_
_atom_site_type_symbol
_atom_site_label
_atom_site_fract_x
_atom_site_fract_y
_atom_site_fract_z
Si Si1 0.813428 0.151036 0.329911
Si Si2 0.216390 0.500000 0.000000
Si Si3 0.024190 0.083260 0.248890
Si Si4 0.123619 0.823702 0.818365
O O1 0.750000 0.166353 0.250000
O O2 0.816933 0.064578 0.371527
O O3 0.828916 0.180729 0.603471
O O4 0.853251 0.173532 0.101126
O O5 0.250000 0.470444 0.250000
O O6 0.089002 0.102336 0.233868
O O7 0.000000 0.116654 0.500000
O O8 0.000000 0.000000 0.248270
O O9 0.000000 0.118615 0.000000
O O10 0.089937 0.750000 0.750000
#
# Coordination Sequence:
#
# PCOD9327047 Si02
#       4
#    16   8  16  16
#     4  11  24  43  67  99 142 188 229 278 341 411
#     4  10  20  38  62  92 129 176 235 290 336 386
#     4  10  23  44  68  96 125 167 225 292 361 416
#     4  12  26  42  66 101 139 183 235 285 344 428
#
# _framework density 23.859172000000001
#
# number of rings (size 3 to 8) (size 9 to 14) (size 15 to 20)
#    0.000    1.143    0.000    6.857    0.000   11.429 
#    0.000    0.000    0.000    0.000    0.000    0.000 
#    0.000    0.000    0.000    0.000    0.000    0.000 
#
# Total GULP energy -78050.161374 kJ/mol
# GULP energy per Si atom -5575.011527 kJ/mol
# Density = 2.380487 g / cm^3
# Si number density = 23.859172 Si / 1000 Ang^3
#
#
#
# Elastic Constant Matrix: (Units=GPa)
#
#
# Indices 1 2 3 4 5 6 
#
# 1 73.4414 16.5538 43.9717 -0.0132 0.0016 0.0000
# 2 16.5538 127.9251 21.1190 0.0191 -0.0011 0.0000
# 3 43.9717 21.1190 227.1421 0.0442 -0.0017 0.0008
# 4 -0.0132 0.0191 0.0442 -72.6118 -0.0198 -0.0003
# 5 0.0016 -0.0011 -0.0017 -0.0198 30.5506 0.0006
# 6 0.0000 0.0000 0.0008 -0.0003 0.0006 9.7805
#
#
#
# Elastic Compliance Matrix: (Units=1/GPa)
#
#
# Indices 1 2 3 4 5 6 
#
# 1 0.015700 -0.001554 -0.002895 -0.000005 -0.000001 0.000000
# 2 -0.001554 0.008093 -0.000452 0.000002 0.000000 0.000000
# 3 -0.002895 -0.000452 0.005005 0.000003 0.000000 0.000000
# 4 -0.000005 0.000002 0.000003 -0.013772 -0.000009 0.000000
# 5 -0.000001 0.000000 0.000000 -0.000009 0.032733 -0.000002
# 6 0.000000 0.000000 0.000000 0.000000 -0.000002 0.102244
#
#
# Mechanical properties :
#
#
# Convention : Reuss Voigt Hill
#
# Bulk Modulus (GPa) = 52.63979 65.75530 59.19754
# Shear Modulus (GPa) = 30.09608 16.66814 23.38211
#
# Velocity S-wave (km/s) = 3.55548 2.64598 3.13390
# Velocity P-wave (km/s) = 6.24226 6.07902 6.16118
#
# Compressibility (1/GPa) = 0.01899704
#
# Stress axis : x y z
#
# Youngs Moduli (GPa) = 63.69543 123.56838 199.80343
#
# Poissons Ratio (x) = 0.19199 0.57839
# Poissons Ratio (y) = 0.09896 0.09024
# Poissons Ratio (z) = 0.18439 0.05581
#
# Static dielectric constant tensor:
#      x y z
#    x 2.015770 0.000000 0.000010 
#    y 0.000000 2.097490 0.000000 
#    z 0.000010 0.000000 1.889260 
# 
# From -- ./inp_files/4332.got.cif
#   From: 2010.05.17/outbox.cif.g08.bks.cpg/sg22_3_cif.got.tgz:4332.got - 2010.06.03 23:40:54.
