data_PCOD9327423
_publ_section_title
;
Structure prediction by ZEFSAII (Michael W. Deem and Ramdas Pophale) SiO2 
 PCOD9327423
Probable space group: F 2 2 2
;
_chemical_formula_sum "Si O2"
_cell_formula_units_Z 96
_cell_length_a 21.891952
_cell_length_b 22.281706
_cell_length_c 8.676221
_cell_angle_alpha 90.000000
_cell_angle_beta 90.000000
_cell_angle_gamma 90.000000
_cell_volume 4232.174173
_symmetry_space_group_name_H-M "F 2 2 2"
_symmetry_group_IT_number 22
_symmetry_cell_setting 'orthorhombic'
loop_
_space_group_symop_operation_xyz
x,y,z
-x,-y,z
x,-y,-z
-x,y,-z
x,1/2+y,1/2+z
-x,1/2-y,1/2+z
x,1/2-y,1/2-z
-x,1/2+y,1/2-z
1/2+x,y,1/2+z
1/2-x,-y,1/2+z
1/2+x,-y,1/2-z
1/2-x,y,1/2-z
1/2+x,1/2+y,z
1/2-x,1/2-y,z
1/2+x,1/2-y,-z
1/2-x,1/2+y,-z
loop_
_atom_site_type_symbol
_atom_site_label
_atom_site_fract_x
_atom_site_fract_y
_atom_site_fract_z
Si Si1 0.034269 0.250000 0.750000
Si Si2 0.678507 0.316733 0.719692
Si Si3 0.000000 0.334180 0.500000
Si Si4 0.391983 0.088223 0.436398
Si Si5 0.585322 0.043729 0.865437
Si Si6 0.113876 0.849026 0.429533
Si Si7 0.322718 0.047581 0.731948
O O1 0.992274 0.208741 0.855235
O O2 0.076006 0.204474 0.648288
O O3 0.654920 0.250000 0.750000
O O4 0.750000 0.319740 0.750000
O O5 0.646268 0.366345 0.827481
O O6 0.667135 0.325426 0.539211
O O7 0.940729 0.373340 0.469790
O O8 0.434343 0.051059 0.312897
O O9 0.347348 0.055821 0.557004
O O10 0.651044 0.011991 0.819491
O O11 0.578182 0.108041 0.948504
O O12 0.562308 0.000000 0.000000
O O13 0.145131 0.896031 0.314707
O O14 0.250000 0.048938 0.750000
#
# Coordination Sequence:
#
# PCOD9327423 Si02
#       7
#     8  16   8  16  16  16  16
#     4  12  26  46  73 100 139 190 252 306 374 436
#     4  10  21  37  62  95 137 183 225 284 364 435
#     4  12  28  44  75 102 139 194 244 304 372 446
#     4  11  23  43  68 103 141 180 243 297 360 435
#     4   9  22  41  69  95 137 181 235 294 357 420
#     4  10  22  42  64  98 140 175 242 300 356 435
#     4  11  22  41  69 107 143 190 237 295 366 441
#
# _framework density 22.683377
#
# number of rings (size 3 to 8) (size 9 to 14) (size 15 to 20)
#    0.000    1.500    1.667    2.500    5.833    6.667 
#    0.000    1.667    3.667    0.000    0.000    0.000 
#    0.000    0.000    0.000    0.000    0.000    0.000 
#
# Total GULP energy -133747.858977 kJ/mol
# GULP energy per Si atom -5572.827457 kJ/mol
# Density = 2.263175 g / cm^3
# Si number density = 22.683377 Si / 1000 Ang^3
#
#
#
# Elastic Constant Matrix: (Units=GPa)
#
#
# Indices 1 2 3 4 5 6 
#
# 1 90.9575 29.6880 24.2308 0.0001 -0.0001 0.0000
# 2 29.6880 104.8619 43.3616 0.0000 -0.0008 0.0000
# 3 24.2308 43.3616 136.7000 0.0002 -0.0017 -0.0002
# 4 0.0001 0.0000 0.0002 43.2936 -0.0013 -0.0001
# 5 -0.0001 -0.0008 -0.0017 -0.0013 0.3134 0.0006
# 6 0.0000 0.0000 -0.0002 -0.0001 0.0006 6.5760
#
#
#
# Elastic Compliance Matrix: (Units=1/GPa)
#
#
# Indices 1 2 3 4 5 6 
#
# 1 0.012293 -0.002969 -0.001237 0.000000 -0.000009 0.000000
# 2 -0.002969 0.011693 -0.003183 0.000000 0.000011 0.000000
# 3 -0.001237 -0.003183 0.008544 0.000000 0.000039 0.000000
# 4 0.000000 0.000000 0.000000 0.023098 0.000097 0.000000
# 5 -0.000009 0.000011 0.000039 0.000097 3.190601 -0.000283
# 6 0.000000 0.000000 0.000000 0.000000 -0.000283 0.152067
#
#
# Mechanical properties :
#
#
# Convention : Reuss Voigt Hill
#
# Bulk Modulus (GPa) = 56.33050 58.56448 57.44749
# Shear Modulus (GPa) = 1.46242 25.71921 13.59082
#
# Velocity S-wave (km/s) = 0.80381 3.37090 2.45042
# Velocity P-wave (km/s) = 5.07433 6.40507 5.77813
#
# Compressibility (1/GPa) = 0.01775237
#
# Stress axis : x y z
#
# Youngs Moduli (GPa) = 81.34917 85.52167 117.03830
#
# Poissons Ratio (x) = 0.25388 0.14481
# Poissons Ratio (y) = 0.24149 0.37251
# Poissons Ratio (z) = 0.10065 0.27220
#
# Static dielectric constant tensor:
#      x y z
#    x 1.794030 0.000000 0.000000 
#    y 0.000000 2.039900 0.000000 
#    z 0.000000 0.000000 1.898140 
# 
# From -- ./inp_files/13917.got.cif
#   From: 2010.05.17/outbox.cif.g08.bks.cpg/sg22_7_cif.got.tgz:13917.got - 2010.06.03 23:40:54.
