data_PCOD9327516
_publ_section_title
;
Structure prediction by ZEFSAII (Michael W. Deem and Ramdas Pophale) SiO2 
 PCOD9327516
Probable space group: F 2 2 2
;
_chemical_formula_sum "Si O2"
_cell_formula_units_Z 72
_cell_length_a 25.148656
_cell_length_b 16.444614
_cell_length_c 8.359690
_cell_angle_alpha 90.000000
_cell_angle_beta 90.000000
_cell_angle_gamma 90.000000
_cell_volume 3457.232899
_symmetry_space_group_name_H-M "F 2 2 2"
_symmetry_group_IT_number 22
_symmetry_cell_setting 'orthorhombic'
loop_
_space_group_symop_operation_xyz
x,y,z
-x,-y,z
x,-y,-z
-x,y,-z
x,1/2+y,1/2+z
-x,1/2-y,1/2+z
x,1/2-y,1/2-z
-x,1/2+y,1/2-z
1/2+x,y,1/2+z
1/2-x,-y,1/2+z
1/2+x,-y,1/2-z
1/2-x,y,1/2-z
1/2+x,1/2+y,z
1/2-x,1/2-y,z
1/2+x,1/2-y,-z
1/2-x,1/2+y,-z
loop_
_atom_site_type_symbol
_atom_site_label
_atom_site_fract_x
_atom_site_fract_y
_atom_site_fract_z
Si Si1 0.636525 0.750000 0.250000
Si Si2 0.523724 0.160023 0.175791
Si Si3 0.884009 0.584348 0.674224
Si Si4 0.575101 0.906158 0.326059
Si Si5 0.809158 0.212468 0.088094
O O1 0.601236 0.830365 0.235773
O O2 0.668244 0.763640 0.415025
O O3 0.521062 0.250000 0.250000
O O4 0.583925 0.127685 0.183729
O O5 0.485759 0.097207 0.272359
O O6 0.500000 0.163569 0.000000
O O7 0.918074 0.607959 0.515550
O O8 0.892031 0.488785 0.701929
O O9 0.825519 0.618165 0.625841
O O10 0.834024 0.250000 0.250000
O O11 0.750000 0.250000 0.085812
#
# Coordination Sequence:
#
# PCOD9327516 Si02
#       5
#     8  16  16  16  16
#     4  10  21  40  68  94 126 170 215 272 334 398
#     4  12  24  36  58  94 130 173 218 260 327 401
#     4  10  22  39  63  88 132 170 211 273 323 392
#     4  10  21  39  61  92 130 171 212 258 334 397
#     4  10  22  41  68  92 123 169 221 271 331 386
#
# _framework density 20.825904999999999
#
# number of rings (size 3 to 8) (size 9 to 14) (size 15 to 20)
#    0.000    1.556    1.111    3.667    6.222    3.556 
#    0.000    0.000   39.111    0.000    0.000    0.000 
#    0.000    0.000    0.000    0.000    0.000    0.000 
#
# Total GULP energy -100264.451298 kJ/mol
# GULP energy per Si atom -5570.247294 kJ/mol
# Density = 2.077850 g / cm^3
# Si number density = 20.825905 Si / 1000 Ang^3
#
#
#
# Elastic Constant Matrix: (Units=GPa)
#
#
# Indices 1 2 3 4 5 6 
#
# 1 109.0579 54.0809 14.4603 0.0000 0.0000 0.0000
# 2 54.0809 136.9165 20.0576 0.0000 0.0000 0.0000
# 3 14.4603 20.0576 89.9478 0.0001 -0.0001 0.0000
# 4 0.0000 0.0000 0.0001 24.9684 -0.0001 0.0000
# 5 0.0000 0.0000 -0.0001 -0.0001 -52.8473 0.0000
# 6 0.0000 0.0000 0.0000 0.0000 0.0000 31.4554
#
#
#
# Elastic Compliance Matrix: (Units=1/GPa)
#
#
# Indices 1 2 3 4 5 6 
#
# 1 0.011467 -0.004403 -0.000862 0.000000 0.000000 0.000000
# 2 -0.004403 0.009241 -0.001353 0.000000 0.000000 0.000000
# 3 -0.000862 -0.001353 0.011558 0.000000 0.000000 0.000000
# 4 0.000000 0.000000 0.000000 0.040051 0.000000 0.000000
# 5 0.000000 0.000000 0.000000 0.000000 -0.018922 0.000000
# 6 0.000000 0.000000 0.000000 0.000000 0.000000 0.031791
#
#
# Mechanical properties :
#
#
# Convention : Reuss Voigt Hill
#
# Bulk Modulus (GPa) = 52.54653 57.01332 54.77993
# Shear Modulus (GPa) = 47.72620 17.20353 32.46486
#
# Velocity S-wave (km/s) = 4.79234 2.87725 3.95254
# Velocity P-wave (km/s) = 7.47717 6.20272 6.86956
#
# Compressibility (1/GPa) = 0.01903075
#
# Stress axis : x y z
#
# Youngs Moduli (GPa) = 87.20517 108.21175 86.52207
#
# Poissons Ratio (x) = 0.47648 0.07455
# Poissons Ratio (y) = 0.38398 0.11705
# Poissons Ratio (z) = 0.07514 0.14639
#
# Static dielectric constant tensor:
#      x y z
#    x 1.839200 0.000000 0.000000 
#    y 0.000000 1.801590 0.000000 
#    z 0.000000 0.000000 1.775310 
# 
# From -- ./inp_files/10128.got.cif
#   From: 2010.05.17/outbox.cif.g08.bks.cpg/sg22_6_cif.got.tgz:10128.got - 2010.06.03 23:40:54.
