data_PCOD9327430
_publ_section_title
;
Structure prediction by ZEFSAII (Michael W. Deem and Ramdas Pophale) SiO2 
 PCOD9327430
Probable space group: F 2 2 2
;
_chemical_formula_sum "Si O2"
_cell_formula_units_Z 88
_cell_length_a 16.878906
_cell_length_b 10.945098
_cell_length_c 21.176393
_cell_angle_alpha 90.000000
_cell_angle_beta 90.000000
_cell_angle_gamma 90.000000
_cell_volume 3912.153955
_symmetry_space_group_name_H-M "F 2 2 2"
_symmetry_group_IT_number 22
_symmetry_cell_setting 'orthorhombic'
loop_
_space_group_symop_operation_xyz
x,y,z
-x,-y,z
x,-y,-z
-x,y,-z
x,1/2+y,1/2+z
-x,1/2-y,1/2+z
x,1/2-y,1/2-z
-x,1/2+y,1/2-z
1/2+x,y,1/2+z
1/2-x,-y,1/2+z
1/2+x,-y,1/2-z
1/2-x,y,1/2-z
1/2+x,1/2+y,z
1/2-x,1/2-y,z
1/2+x,1/2-y,-z
1/2-x,1/2+y,-z
loop_
_atom_site_type_symbol
_atom_site_label
_atom_site_fract_x
_atom_site_fract_y
_atom_site_fract_z
Si Si1 0.054406 0.392370 0.915041
Si Si2 0.853969 0.896198 0.089645
Si Si3 0.250000 0.250000 0.652894
Si Si4 0.375952 0.843325 0.449251
Si Si5 0.695062 0.999752 0.151561
Si Si6 0.567995 0.303322 0.681493
O O1 0.061205 0.265328 0.950912
O O2 0.140567 0.452505 0.906325
O O3 0.000000 0.500000 0.939248
O O4 0.012023 0.357958 0.848527
O O5 0.899927 0.798798 0.132338
O O6 0.901090 0.022003 0.073849
O O7 0.773005 0.932489 0.125765
O O8 0.837269 0.849032 0.018580
O O9 0.316721 0.197937 0.605964
O O10 0.283301 0.372228 0.685654
O O11 0.637235 0.905710 0.186675
O O12 0.553002 0.250000 0.750000
#
# Coordination Sequence:
#
# PCOD9327430 Si02
#       6
#    16  16   8  16  16  16
#     4   9  20  43  64  93 130 173 228 272 339 412
#     4  10  21  37  64  97 132 169 220 282 347 409
#     4   8  16  34  64  91 125 158 208 276 342 400
#     4   9  19  37  63  97 127 168 213 277 348 416
#     4   9  19  39  64  92 131 166 226 277 335 408
#     4  11  24  41  63  92 134 184 228 277 337 414
#
# _framework density 22.494002999999999
#
# number of rings (size 3 to 8) (size 9 to 14) (size 15 to 20)
#    0.000    2.545    0.000    0.545    2.545    2.909 
#   13.091    7.273    4.000    1.091    0.000    0.000 
#    0.000    0.000    0.000    0.000    0.000    0.000 
#
# Total GULP energy -122686.015405 kJ/mol
# GULP energy per Si atom -5576.637064 kJ/mol
# Density = 2.244281 g / cm^3
# Si number density = 22.494003 Si / 1000 Ang^3
#
#
#
# Elastic Constant Matrix: (Units=GPa)
#
#
# Indices 1 2 3 4 5 6 
#
# 1 65.6154 19.7345 0.8919 0.0000 0.0000 0.0000
# 2 19.7345 133.5046 21.5918 0.0000 0.0000 0.0000
# 3 0.8919 21.5918 73.6955 0.0000 0.0000 0.0000
# 4 0.0000 0.0000 0.0000 191.1992 0.0000 0.0000
# 5 0.0000 0.0000 0.0000 0.0000 -32.9119 0.0000
# 6 0.0000 0.0000 0.0000 0.0000 0.0000 43.1240
#
#
#
# Elastic Compliance Matrix: (Units=1/GPa)
#
#
# Indices 1 2 3 4 5 6 
#
# 1 0.015969 -0.002445 0.000523 0.000000 0.000000 0.000000
# 2 -0.002445 0.008237 -0.002384 0.000000 0.000000 0.000000
# 3 0.000523 -0.002384 0.014261 0.000000 0.000000 0.000000
# 4 0.000000 0.000000 0.000000 0.005230 0.000000 0.000000
# 5 0.000000 0.000000 0.000000 0.000000 -0.030384 0.000000
# 6 0.000000 0.000000 0.000000 0.000000 0.000000 0.023189
#
#
# Mechanical properties :
#
#
# Convention : Reuss Voigt Hill
#
# Bulk Modulus (GPa) = 33.49433 39.69466 36.59449
# Shear Modulus (GPa) = 90.80044 55.65543 73.22793
#
# Velocity S-wave (km/s) = 6.36036 4.97956 5.71184
# Velocity P-wave (km/s) = 8.29828 7.12366 7.73330
#
# Compressibility (1/GPa) = 0.02985580
#
# Stress axis : x y z
#
# Youngs Moduli (GPa) = 62.62290 121.39839 70.11913
#
# Poissons Ratio (x) = 0.29683 -0.03668
# Poissons Ratio (y) = 0.15312 0.16715
# Poissons Ratio (z) = -0.03276 0.28939
#
# Static dielectric constant tensor:
#      x y z
#    x 1.624160 0.000000 0.000000 
#    y 0.000000 1.913400 0.000000 
#    z 0.000000 0.000000 1.821880 
# 
# From -- ./inp_files/21375.got.cif
#   From: 2010.05.17/outbox.cif.g08.bks.cpg/sg22_11_cif.got.tgz:21375.got - 2010.06.03 23:40:54.
