data_PCOD9327548
_publ_section_title
;
Structure prediction by ZEFSAII (Michael W. Deem and Ramdas Pophale) SiO2 
 PCOD9327548
Probable space group: F 2 2 2
;
_chemical_formula_sum "Si O2"
_cell_formula_units_Z 44
_cell_length_a 6.765511
_cell_length_b 14.497267
_cell_length_c 19.040488
_cell_angle_alpha 90.000000
_cell_angle_beta 90.000000
_cell_angle_gamma 90.000000
_cell_volume 1867.518088
_symmetry_space_group_name_H-M "F 2 2 2"
_symmetry_group_IT_number 22
_symmetry_cell_setting 'orthorhombic'
loop_
_space_group_symop_operation_xyz
x,y,z
-x,-y,z
x,-y,-z
-x,y,-z
x,1/2+y,1/2+z
-x,1/2-y,1/2+z
x,1/2-y,1/2-z
-x,1/2+y,1/2-z
1/2+x,y,1/2+z
1/2-x,-y,1/2+z
1/2+x,-y,1/2-z
1/2-x,y,1/2-z
1/2+x,1/2+y,z
1/2-x,1/2-y,z
1/2+x,1/2-y,-z
1/2-x,1/2+y,-z
loop_
_atom_site_type_symbol
_atom_site_label
_atom_site_fract_x
_atom_site_fract_y
_atom_site_fract_z
Si Si1 0.500000 0.500000 0.500000
Si Si2 0.250000 0.020315 0.250000
Si Si3 0.453152 0.695099 0.815288
Si Si4 0.814242 0.931141 0.894148
O O1 0.645962 0.439709 0.451917
O O2 0.595104 0.905118 0.281224
O O3 0.287611 0.961737 0.179871
O O4 0.540259 0.750000 0.750000
O O5 0.250000 0.750000 0.833445
O O6 0.589487 0.668496 0.879926
O O7 0.000000 0.000000 0.911000
#
# Coordination Sequence:
#
# PCOD9327548 Si02
#       4
#     4   8  16  16
#     4  12  26  36  64 114 156 182 230 298 364 414
#     4   8  17  34  67 104 132 176 242 286 341 406
#     4   8  16  35  67 108 137 178 237 304 345 407
#     4  10  21  39  66 104 147 186 235 296 347 424
#
# _framework density 23.560683999999998
#
# number of rings (size 3 to 8) (size 9 to 14) (size 15 to 20)
#    0.000    3.273    0.000    0.545    7.636    0.000 
#    0.000    0.909    0.000    0.000  255.273    0.000 
#    0.000    0.000    0.000    0.000    0.000    0.000 
#
# Total GULP energy -61319.265347 kJ/mol
# GULP energy per Si atom -5574.478668 kJ/mol
# Density = 2.350706 g / cm^3
# Si number density = 23.560684 Si / 1000 Ang^3
#
#
#
# Elastic Constant Matrix: (Units=GPa)
#
#
# Indices 1 2 3 4 5 6 
#
# 1 184.0296 59.3445 85.3013 0.0000 0.0000 0.0000
# 2 59.3445 91.7289 47.1325 0.0000 0.0000 0.0000
# 3 85.3013 47.1325 140.0962 0.0000 0.0000 0.0000
# 4 0.0000 0.0000 0.0000 5.2882 0.0000 0.0000
# 5 0.0000 0.0000 0.0000 0.0000 41.7764 0.0000
# 6 0.0000 0.0000 0.0000 0.0000 0.0000 27.6002
#
#
#
# Elastic Compliance Matrix: (Units=1/GPa)
#
#
# Indices 1 2 3 4 5 6 
#
# 1 0.008353 -0.003374 -0.003951 0.000000 0.000000 0.000000
# 2 -0.003374 0.014543 -0.002838 0.000000 0.000000 0.000000
# 3 -0.003951 -0.002838 0.010498 0.000000 0.000000 0.000000
# 4 0.000000 0.000000 0.000000 0.189101 0.000000 0.000000
# 5 0.000000 0.000000 0.000000 0.000000 0.023937 0.000000
# 6 0.000000 0.000000 0.000000 0.000000 0.000000 0.036232
#
#
# Mechanical properties :
#
#
# Convention : Reuss Voigt Hill
#
# Bulk Modulus (GPa) = 76.52256 88.82347 82.67301
# Shear Modulus (GPa) = 16.26826 29.87138 23.06982
#
# Velocity S-wave (km/s) = 2.63056 3.56455 3.13256
# Velocity P-wave (km/s) = 6.46343 7.39750 6.94618
#
# Compressibility (1/GPa) = 0.01306804
#
# Stress axis : x y z
#
# Youngs Moduli (GPa) = 119.71277 68.76174 95.25173
#
# Poissons Ratio (x) = 0.23201 0.37634
# Poissons Ratio (y) = 0.40392 0.27035
# Poissons Ratio (z) = 0.47298 0.19516
#
# Static dielectric constant tensor:
#      x y z
#    x 2.255910 0.000000 0.000000 
#    y 0.000000 1.912200 0.000000 
#    z 0.000000 0.000000 1.894260 
# 
# From -- ./inp_files/40701.got.cif
#   From: 2010.05.17/outbox.cif.g08.bks.cpg/sg22_21_cif.got.tgz:40701.got - 2010.06.03 23:40:54.
