data_PCOD9327955
_publ_section_title
;
Structure prediction by ZEFSAII (Michael W. Deem and Ramdas Pophale) SiO2 
 PCOD9327955
Probable space group: F 2 2 2
;
_chemical_formula_sum "Si O2"
_cell_formula_units_Z 48
_cell_length_a 31.652219
_cell_length_b 7.431660
_cell_length_c 8.220388
_cell_angle_alpha 90.000000
_cell_angle_beta 90.000000
_cell_angle_gamma 90.000000
_cell_volume 1933.669784
_symmetry_space_group_name_H-M "F 2 2 2"
_symmetry_group_IT_number 22
_symmetry_cell_setting 'orthorhombic'
loop_
_space_group_symop_operation_xyz
x,y,z
-x,-y,z
x,-y,-z
-x,y,-z
x,1/2+y,1/2+z
-x,1/2-y,1/2+z
x,1/2-y,1/2-z
-x,1/2+y,1/2-z
1/2+x,y,1/2+z
1/2-x,-y,1/2+z
1/2+x,-y,1/2-z
1/2-x,y,1/2-z
1/2+x,1/2+y,z
1/2-x,1/2-y,z
1/2+x,1/2-y,-z
1/2-x,1/2+y,-z
loop_
_atom_site_type_symbol
_atom_site_label
_atom_site_fract_x
_atom_site_fract_y
_atom_site_fract_z
Si Si1 0.702428 0.456144 0.805944
Si Si2 0.934159 0.805359 0.536704
Si Si3 0.508675 0.750000 0.250000
Si Si4 0.861819 0.250000 0.250000
O O1 0.695109 0.250000 0.750000
O O2 0.750000 0.501595 0.750000
O O3 0.668775 0.583931 0.718336
O O4 0.699225 0.500000 0.000000
O O5 0.959243 0.702557 0.394943
O O6 0.895287 0.697951 0.609836
O O7 0.971991 0.865104 0.660118
O O8 0.915125 0.000000 0.500000
#
# Coordination Sequence:
#
# PCOD9327955 Si02
#       4
#    16  16   8   8
#     4  11  29  51  84 119 160 218 272 333 415 513
#     4  10  22  40  68 102 145 203 259 333 396 490
#     4   9  18  40  65  94 142 200 265 308 396 483
#     4  11  27  46  77 112 164 198 261 346 411 479
#
# _framework density 24.823267999999999
#
# number of rings (size 3 to 8) (size 9 to 14) (size 15 to 20)
#    0.000    1.667    0.000    2.500   14.000    2.667 
#    0.000   26.667    0.000    0.000    0.000    0.000 
#    0.000    0.000    0.000    0.000    0.000    0.000 
#
# Total GULP energy -66871.140288 kJ/mol
# GULP energy per Si atom -5572.595024 kJ/mol
# Density = 2.476677 g / cm^3
# Si number density = 24.823268 Si / 1000 Ang^3
#
#
#
# Elastic Constant Matrix: (Units=GPa)
#
#
# Indices 1 2 3 4 5 6 
#
# 1 225.6164 83.8156 58.8010 0.0000 0.0000 0.0000
# 2 83.8156 89.0899 48.4876 0.0000 0.0000 0.0000
# 3 58.8010 48.4876 91.5279 0.0000 0.0000 0.0000
# 4 0.0000 0.0000 0.0000 27.2190 0.0000 0.0000
# 5 0.0000 0.0000 0.0000 0.0000 40.7709 0.0000
# 6 0.0000 0.0000 0.0000 0.0000 0.0000 25.7881
#
#
#
# Elastic Compliance Matrix: (Units=1/GPa)
#
#
# Indices 1 2 3 4 5 6 
#
# 1 0.006940 -0.005765 -0.001405 0.000000 0.000000 0.000000
# 2 -0.005765 0.020560 -0.007189 0.000000 0.000000 0.000000
# 3 -0.001405 -0.007189 0.015636 0.000000 0.000000 0.000000
# 4 0.000000 0.000000 0.000000 0.036739 0.000000 0.000000
# 5 0.000000 0.000000 0.000000 0.000000 0.024527 0.000000
# 6 0.000000 0.000000 0.000000 0.000000 0.000000 0.038778
#
#
# Mechanical properties :
#
#
# Convention : Reuss Voigt Hill
#
# Bulk Modulus (GPa) = 69.34403 87.60474 78.47438
# Shear Modulus (GPa) = 28.29607 33.09760 30.69684
#
# Velocity S-wave (km/s) = 3.37991 3.65544 3.52037
# Velocity P-wave (km/s) = 6.57476 7.29276 6.94304
#
# Compressibility (1/GPa) = 0.01442085
#
# Stress axis : x y z
#
# Youngs Moduli (GPa) = 144.09432 48.63731 63.95399
#
# Poissons Ratio (x) = 0.28037 0.08983
# Poissons Ratio (y) = 0.83064 0.45974
# Poissons Ratio (z) = 0.20240 0.34963
#
# Static dielectric constant tensor:
#      x y z
#    x 1.824690 0.000000 0.000000 
#    y 0.000000 2.147020 0.000000 
#    z 0.000000 0.000000 2.129130 
# 
# From -- ./inp_files/15227.got.cif
#   From: 2010.05.17/outbox.cif.g08.bks.cpg/sg22_8_cif.got.tgz:15227.got - 2010.06.03 23:40:54.
