data_PCOD9327701
_publ_section_title
;
Structure prediction by ZEFSAII (Michael W. Deem and Ramdas Pophale) SiO2 
 PCOD9327701
Probable space group: F 2 2 2
;
_chemical_formula_sum "Si O2"
_cell_formula_units_Z 92
_cell_length_a 26.327467
_cell_length_b 8.507531
_cell_length_c 19.232774
_cell_angle_alpha 90.000000
_cell_angle_beta 90.000000
_cell_angle_gamma 90.000000
_cell_volume 4307.790217
_symmetry_space_group_name_H-M "F 2 2 2"
_symmetry_group_IT_number 22
_symmetry_cell_setting 'orthorhombic'
loop_
_space_group_symop_operation_xyz
x,y,z
-x,-y,z
x,-y,-z
-x,y,-z
x,1/2+y,1/2+z
-x,1/2-y,1/2+z
x,1/2-y,1/2-z
-x,1/2+y,1/2-z
1/2+x,y,1/2+z
1/2-x,-y,1/2+z
1/2+x,-y,1/2-z
1/2-x,y,1/2-z
1/2+x,1/2+y,z
1/2-x,1/2-y,z
1/2+x,1/2-y,-z
1/2-x,1/2+y,-z
loop_
_atom_site_type_symbol
_atom_site_label
_atom_site_fract_x
_atom_site_fract_y
_atom_site_fract_z
Si Si1 0.483915 0.180676 0.919095
Si Si2 0.117503 0.958337 0.370655
Si Si3 0.309154 0.226881 0.598506
Si Si4 0.750000 0.250000 0.750000
Si Si5 0.419439 0.810229 0.620226
Si Si6 0.158287 0.514988 0.715768
Si Si7 0.632025 0.500000 0.000000
O O1 0.425750 0.169716 0.893520
O O2 0.519883 0.293746 0.874036
O O3 0.500000 0.000000 0.907456
O O4 0.500000 0.212539 0.000000
O O5 0.166714 0.898166 0.409692
O O6 0.099821 0.131868 0.390719
O O7 0.136422 0.966508 0.290856
O O8 0.250000 0.250000 0.600932
O O9 0.331118 0.121874 0.537288
O O10 0.327943 0.134835 0.668105
O O11 0.791279 0.372503 0.716331
O O12 0.387651 0.885720 0.682117
O O13 0.403820 0.913248 0.554526
#
# Coordination Sequence:
#
# PCOD9327701 Si02
#       7
#    16  16  16   4  16  16   8
#     4   9  19  37  66  93 122 169 218 266 334 405
#     4  11  21  41  67  96 131 175 222 277 340 410
#     4  11  25  42  62  94 134 172 226 283 341 405
#     4  12  20  40  70  88 128 180 218 264 348 400
#     4  10  21  42  66  95 133 172 224 274 342 409
#     4  11  23  40  65  99 129 174 223 278 336 410
#     4  10  24  42  63  98 134 168 231 284 332 422
#
# _framework density 21.356656999999998
#
# number of rings (size 3 to 8) (size 9 to 14) (size 15 to 20)
#    0.000    1.565    1.739    2.609    0.000    4.174 
#    3.130   18.696    0.000    0.000    0.000    0.000 
#    0.000    0.000    0.000    0.000    0.000    0.000 
#
# Total GULP energy -128270.759515 kJ/mol
# GULP energy per Si atom -5576.989544 kJ/mol
# Density = 2.130805 g / cm^3
# Si number density = 21.356657 Si / 1000 Ang^3
#
#
#
# Elastic Constant Matrix: (Units=GPa)
#
#
# Indices 1 2 3 4 5 6 
#
# 1 129.8484 3.5109 6.6834 0.0000 0.0000 0.0000
# 2 3.5109 36.1436 -6.6775 0.0000 0.0000 0.0000
# 3 6.6834 -6.6775 47.5535 0.0000 0.0000 0.0000
# 4 0.0000 0.0000 0.0000 -0.9880 0.0000 0.0000
# 5 0.0000 0.0000 0.0000 0.0000 9.1216 0.0000
# 6 0.0000 0.0000 0.0000 0.0000 0.0000 19.7260
#
#
#
# Elastic Compliance Matrix: (Units=1/GPa)
#
#
# Indices 1 2 3 4 5 6 
#
# 1 0.007791 -0.000985 -0.001233 0.000000 0.000000 0.000000
# 2 -0.000985 0.028529 0.004144 0.000000 0.000000 0.000000
# 3 -0.001233 0.004144 0.021784 0.000000 0.000000 0.000000
# 4 0.000000 0.000000 0.000000 -1.012123 0.000000 0.000000
# 5 0.000000 0.000000 0.000000 0.000000 0.109629 0.000000
# 6 0.000000 0.000000 0.000000 0.000000 0.000000 0.050695
#
#
# Mechanical properties :
#
#
# Convention : Reuss Voigt Hill
#
# Bulk Modulus (GPa) = 16.14017 24.50878 20.32447
# Shear Modulus (GPa) = -6.43588 19.57383 6.56898
#
# Velocity S-wave (km/s) = -1.73783 3.03069 1.75571
# Velocity P-wave (km/s) = 1.88337 4.87316 3.69424
#
# Compressibility (1/GPa) = 0.06195722
#
# Stress axis : x y z
#
# Youngs Moduli (GPa) = 128.34679 35.05241 45.90469
#
# Poissons Ratio (x) = 0.03452 0.05661
# Poissons Ratio (y) = 0.12638 -0.19025
# Poissons Ratio (z) = 0.15829 -0.14527
#
# Static dielectric constant tensor:
#      x y z
#    x 1.785370 0.000000 0.000000 
#    y 0.000000 1.780440 0.000000 
#    z 0.000000 0.000000 1.835460 
# 
# From -- ./inp_files/45267.got.cif
#   From: 2010.05.17/outbox.cif.g08.bks.cpg/sg22_23_cif.got.tgz:45267.got - 2010.06.03 23:40:54.
