data_PCOD9327830
_publ_section_title
;
Structure prediction by ZEFSAII (Michael W. Deem and Ramdas Pophale) SiO2 
 PCOD9327830
Probable space group: F 2 2 2
;
_chemical_formula_sum "Si O2"
_cell_formula_units_Z 88
_cell_length_a 10.662822
_cell_length_b 18.060769
_cell_length_c 22.403613
_cell_angle_alpha 90.000000
_cell_angle_beta 90.000000
_cell_angle_gamma 90.000000
_cell_volume 4314.460124
_symmetry_space_group_name_H-M "F 2 2 2"
_symmetry_group_IT_number 22
_symmetry_cell_setting 'orthorhombic'
loop_
_space_group_symop_operation_xyz
x,y,z
-x,-y,z
x,-y,-z
-x,y,-z
x,1/2+y,1/2+z
-x,1/2-y,1/2+z
x,1/2-y,1/2-z
-x,1/2+y,1/2-z
1/2+x,y,1/2+z
1/2-x,-y,1/2+z
1/2+x,-y,1/2-z
1/2-x,y,1/2-z
1/2+x,1/2+y,z
1/2-x,1/2-y,z
1/2+x,1/2-y,-z
1/2-x,1/2+y,-z
loop_
_atom_site_type_symbol
_atom_site_label
_atom_site_fract_x
_atom_site_fract_y
_atom_site_fract_z
Si Si1 0.000000 0.727154 0.000000
Si Si2 0.262224 0.589083 0.607697
Si Si3 0.547106 0.398387 0.404712
Si Si4 0.247418 0.335084 0.678752
Si Si5 0.805188 0.000000 0.500000
Si Si6 0.138810 0.519339 0.299162
Si Si7 0.250000 0.750000 0.561983
O O1 0.025725 0.675541 0.056967
O O2 0.870076 0.763942 0.019195
O O3 0.411456 0.574187 0.616886
O O4 0.232021 0.556122 0.542220
O O5 0.180418 0.544059 0.654340
O O6 0.253844 0.677243 0.603243
O O7 0.634559 0.377391 0.349775
O O8 0.614173 0.450492 0.453853
O O9 0.250000 0.326892 0.750000
O O10 0.250000 0.250000 0.654924
O O11 0.139854 0.398219 0.670298
O O12 0.250000 0.519421 0.250000
O O13 0.000000 0.500000 0.276228
#
# Coordination Sequence:
#
# PCOD9327830 Si02
#       7
#     8  16  16  16   8  16   8
#     4  10  22  37  62  97 128 178 226 266 348 403
#     4  11  23  40  64  95 135 171 225 279 343 406
#     4  11  20  36  70  96 128 177 225 280 332 417
#     4  10  24  42  67 101 133 178 236 285 344 418
#     4  12  19  36  63 100 127 168 231 266 329 412
#     4  11  27  46  71  99 134 178 229 290 355 420
#     4  10  22  42  61  96 139 178 218 278 336 436
#
# _framework density 20.396526999999999
#
# number of rings (size 3 to 8) (size 9 to 14) (size 15 to 20)
#    0.000    1.273    5.455    1.091    6.364    2.909 
#    3.273    0.455    0.000    0.000    0.000    0.000 
#    0.000    0.000    0.000    0.000    0.000    0.000 
#
# Total GULP energy -122508.192537 kJ/mol
# GULP energy per Si atom -5568.554206 kJ/mol
# Density = 2.035010 g / cm^3
# Si number density = 20.396527 Si / 1000 Ang^3
#
#
#
# Elastic Constant Matrix: (Units=GPa)
#
#
# Indices 1 2 3 4 5 6 
#
# 1 98.6907 34.1753 39.1336 0.0000 0.0000 0.0000
# 2 34.1753 137.6045 27.1919 0.0000 0.0000 0.0000
# 3 39.1336 27.1919 76.3225 0.0000 0.0000 0.0000
# 4 0.0000 0.0000 0.0000 9.8067 0.0000 0.0000
# 5 0.0000 0.0000 0.0000 0.0000 33.0618 0.0000
# 6 0.0000 0.0000 0.0000 0.0000 0.0000 25.4803
#
#
#
# Elastic Compliance Matrix: (Units=1/GPa)
#
#
# Indices 1 2 3 4 5 6 
#
# 1 0.013258 -0.002097 -0.006051 0.000000 0.000000 0.000000
# 2 -0.002097 0.008149 -0.001828 0.000000 0.000000 0.000000
# 3 -0.006051 -0.001828 0.016856 0.000000 0.000000 0.000000
# 4 0.000000 0.000000 0.000000 0.101971 0.000000 0.000000
# 5 0.000000 0.000000 0.000000 0.000000 0.030246 0.000000
# 6 0.000000 0.000000 0.000000 0.000000 0.000000 0.039246
#
#
# Mechanical properties :
#
#
# Convention : Reuss Voigt Hill
#
# Bulk Modulus (GPa) = 54.61065 57.06881 55.83973
# Shear Modulus (GPa) = 21.20597 27.81089 24.50843
#
# Velocity S-wave (km/s) = 3.22791 3.69658 3.47017
# Velocity P-wave (km/s) = 6.38163 6.80147 6.59489
#
# Compressibility (1/GPa) = 0.01831145
#
# Stress axis : x y z
#
# Youngs Moduli (GPa) = 75.42504 122.71005 59.32553
#
# Poissons Ratio (x) = 0.25733 0.35897
# Poissons Ratio (y) = 0.15817 0.10846
# Poissons Ratio (z) = 0.45639 0.22433
#
# Static dielectric constant tensor:
#      x y z
#    x 1.783790 0.000000 0.000000 
#    y 0.000000 1.815640 0.000000 
#    z 0.000000 0.000000 1.721040 
# 
# From -- ./inp_files/42653.got.cif
#   From: 2010.05.17/outbox.cif.g08.bks.cpg/sg22_22_cif.got.tgz:42653.got - 2010.06.03 23:40:54.
