data_PCOD9327574
_publ_section_title
;
Structure prediction by ZEFSAII (Michael W. Deem and Ramdas Pophale) SiO2 
 PCOD9327574
Probable space group: F 2 2 2
;
_chemical_formula_sum "Si O2"
_cell_formula_units_Z 116
_cell_length_a 25.543496
_cell_length_b 27.920808
_cell_length_c 8.559268
_cell_angle_alpha 90.000000
_cell_angle_beta 90.000000
_cell_angle_gamma 90.000000
_cell_volume 6104.427548
_symmetry_space_group_name_H-M "F 2 2 2"
_symmetry_group_IT_number 22
_symmetry_cell_setting 'orthorhombic'
loop_
_space_group_symop_operation_xyz
x,y,z
-x,-y,z
x,-y,-z
-x,y,-z
x,1/2+y,1/2+z
-x,1/2-y,1/2+z
x,1/2-y,1/2-z
-x,1/2+y,1/2-z
1/2+x,y,1/2+z
1/2-x,-y,1/2+z
1/2+x,-y,1/2-z
1/2-x,y,1/2-z
1/2+x,1/2+y,z
1/2-x,1/2-y,z
1/2+x,1/2-y,-z
1/2-x,1/2+y,-z
loop_
_atom_site_type_symbol
_atom_site_label
_atom_site_fract_x
_atom_site_fract_y
_atom_site_fract_z
Si Si1 0.070874 0.919602 0.661550
Si Si2 0.113622 0.443018 0.491114
Si Si3 0.697456 0.119960 0.345208
Si Si4 0.500000 0.000000 0.000000
Si Si5 0.754902 0.694474 0.064273
Si Si6 0.473781 0.123380 0.652360
Si Si7 0.454456 0.708336 0.372506
Si Si8 0.364481 0.343787 0.547150
O O1 0.108402 0.930652 0.807826
O O2 0.101550 0.885700 0.538795
O O3 0.041150 0.965701 0.590538
O O4 0.021598 0.894208 0.742650
O O5 0.109240 0.500000 0.500000
O O6 0.166810 0.421939 0.564114
O O7 0.065380 0.417266 0.585726
O O8 0.750000 0.105155 0.250000
O O9 0.714337 0.161529 0.466774
O O10 0.657397 0.139707 0.215398
O O11 0.750000 0.694205 0.250000
O O12 0.750000 0.750000 0.010330
O O13 0.811053 0.670245 0.037534
O O14 0.500000 0.146996 0.500000
O O15 0.448342 0.161681 0.764182
O O16 0.500000 0.705409 0.500000
O O17 0.463439 0.750000 0.250000
O O18 0.398768 0.705091 0.456461
#
# Coordination Sequence:
#
# PCOD9327574 Si02
#       8
#    16  16  16   4  16  16  16  16
#     4  11  23  39  64  95 133 175 212 276 325 402
#     4  11  23  40  67  97 127 176 224 272 340 404
#     4  10  23  42  66  92 130 165 219 286 339 396
#     4  12  24  36  66 100 140 172 226 272 316 404
#     4  10  23  44  68  99 126 165 226 287 341 407
#     4  10  21  40  61  88 134 169 214 267 321 390
#     4  12  24  41  61  96 134 177 217 261 327 414
#     4  11  23  40  68  91 130 176 215 271 343 391
#
# _framework density 19.002600000000001
#
# number of rings (size 3 to 8) (size 9 to 14) (size 15 to 20)
#    0.000    1.241    2.759    2.897    3.862    3.862 
#    2.483    3.448    0.000    0.000    0.000    0.000 
#    0.000    0.000    0.000    0.000    0.000    0.000 
#
# Total GULP energy -161585.709167 kJ/mol
# GULP energy per Si atom -5571.921006 kJ/mol
# Density = 1.895935 g / cm^3
# Si number density = 19.002600 Si / 1000 Ang^3
#
#
#
# Elastic Constant Matrix: (Units=GPa)
#
#
# Indices 1 2 3 4 5 6 
#
# 1 117.8110 46.3364 62.7651 -0.0206 0.0047 0.0072
# 2 46.3364 86.0673 60.3220 -0.0154 0.0038 0.0046
# 3 62.7651 60.3220 116.9305 -0.0268 0.0031 0.0067
# 4 -0.0206 -0.0154 -0.0268 -5.2971 0.0247 0.0210
# 5 0.0047 0.0038 0.0031 0.0247 34.2442 -0.0120
# 6 0.0072 0.0046 0.0067 0.0210 -0.0120 -45.0623
#
#
#
# Elastic Compliance Matrix: (Units=1/GPa)
#
#
# Indices 1 2 3 4 5 6 
#
# 1 0.012411 -0.003152 -0.005035 -0.000014 -0.000001 0.000001
# 2 -0.003152 0.019000 -0.008109 -0.000002 -0.000001 0.000000
# 3 -0.005035 -0.008109 0.015438 -0.000035 0.000000 0.000001
# 4 -0.000014 -0.000002 -0.000035 -0.188783 0.000136 -0.000088
# 5 -0.000001 -0.000001 0.000000 0.000136 0.029202 -0.000008
# 6 0.000001 0.000000 0.000001 -0.000088 -0.000008 -0.022192
#
#
# Mechanical properties :
#
#
# Convention : Reuss Voigt Hill
#
# Bulk Modulus (GPa) = 70.15443 73.29508 71.72476
# Shear Modulus (GPa) = -51.24137 6.86933 -22.18602
#
# Velocity S-wave (km/s) = -5.19846 1.90336 -3.42061
# Velocity P-wave (km/s) = 0.98310 6.59433 4.71443
#
# Compressibility (1/GPa) = 0.01425427
#
# Stress axis : x y z
#
# Youngs Moduli (GPa) = 80.57527 52.63267 64.77341
#
# Poissons Ratio (x) = 0.16592 0.32617
# Poissons Ratio (y) = 0.25401 0.52527
# Poissons Ratio (z) = 0.40574 0.42682
#
# Static dielectric constant tensor:
#      x y z
#    x 1.673140 -0.000010 0.000000 
#    y -0.000010 1.710000 0.000010 
#    z 0.000000 0.000010 1.779210 
# 
# From -- ./inp_files/14132.got.cif
#   From: 2010.05.17/outbox.cif.g08.bks.cpg/sg22_8_cif.got.tgz:14132.got - 2010.06.03 23:40:54.
