data_PCOD9327675
_publ_section_title
;
Structure prediction by ZEFSAII (Michael W. Deem and Ramdas Pophale) SiO2 
 PCOD9327675
Probable space group: F 2 2 2
;
_chemical_formula_sum "Si O2"
_cell_formula_units_Z 64
_cell_length_a 10.068193
_cell_length_b 22.778982
_cell_length_c 12.417730
_cell_angle_alpha 90.000000
_cell_angle_beta 90.000000
_cell_angle_gamma 90.000000
_cell_volume 2847.921775
_symmetry_space_group_name_H-M "F 2 2 2"
_symmetry_group_IT_number 22
_symmetry_cell_setting 'orthorhombic'
loop_
_space_group_symop_operation_xyz
x,y,z
-x,-y,z
x,-y,-z
-x,y,-z
x,1/2+y,1/2+z
-x,1/2-y,1/2+z
x,1/2-y,1/2-z
-x,1/2+y,1/2-z
1/2+x,y,1/2+z
1/2-x,-y,1/2+z
1/2+x,-y,1/2-z
1/2-x,y,1/2-z
1/2+x,1/2+y,z
1/2-x,1/2-y,z
1/2+x,1/2-y,-z
1/2-x,1/2+y,-z
loop_
_atom_site_type_symbol
_atom_site_label
_atom_site_fract_x
_atom_site_fract_y
_atom_site_fract_z
Si Si1 0.511767 0.250000 0.750000
Si Si2 0.200468 0.620402 0.528430
Si Si3 0.250000 0.750000 0.580347
Si Si4 0.544402 0.067306 0.887752
Si Si5 0.561997 0.126587 0.324396
O O1 0.617869 0.260099 0.653129
O O2 0.426618 0.193991 0.714357
O O3 0.238212 0.689045 0.518481
O O4 0.299754 0.581078 0.599760
O O5 0.067331 0.622588 0.599369
O O6 0.175027 0.601642 0.404459
O O7 0.474967 0.092806 0.783341
O O8 0.500000 0.000000 0.890862
O O9 0.500000 0.096828 0.000000
#
# Coordination Sequence:
#
# PCOD9327675 Si02
#       5
#     8  16   8  16  16
#     4   9  16  32  64 101 142 184 217 272 363 420
#     4  10  21  41  69 103 138 175 229 282 356 417
#     4   9  16  32  64 101 144 182 209 282 349 428
#     4  11  25  46  63  91 136 186 233 291 343 408
#     4  10  21  41  70 104 134 180 228 288 351 424
#
# _framework density 22.472526999999999
#
# number of rings (size 3 to 8) (size 9 to 14) (size 15 to 20)
#    0.000    2.000    2.500    0.750    0.000    3.000 
#   18.000    1.250    0.000    0.000    0.000    0.000 
#    0.000    0.000    0.000    0.000    0.000    0.000 
#
# Total GULP energy -89208.269295 kJ/mol
# GULP energy per Si atom -5575.516831 kJ/mol
# Density = 2.242138 g / cm^3
# Si number density = 22.472527 Si / 1000 Ang^3
#
#
#
# Elastic Constant Matrix: (Units=GPa)
#
#
# Indices 1 2 3 4 5 6 
#
# 1 48.1149 33.1526 23.2670 0.0000 0.0000 0.0000
# 2 33.1526 86.3466 59.2736 0.0000 0.0000 0.0000
# 3 23.2670 59.2736 180.2490 0.0000 0.0000 0.0000
# 4 0.0000 0.0000 0.0000 40.4268 0.0000 0.0000
# 5 0.0000 0.0000 0.0000 0.0000 20.9207 0.0000
# 6 0.0000 0.0000 0.0000 0.0000 0.0000 14.6552
#
#
#
# Elastic Compliance Matrix: (Units=1/GPa)
#
#
# Indices 1 2 3 4 5 6 
#
# 1 0.028261 -0.010780 -0.000103 0.000000 0.000000 0.000000
# 2 -0.010780 0.019070 -0.004879 0.000000 0.000000 0.000000
# 3 -0.000103 -0.004879 0.007166 0.000000 0.000000 0.000000
# 4 0.000000 0.000000 0.000000 0.024736 0.000000 0.000000
# 5 0.000000 0.000000 0.000000 0.000000 0.047799 0.000000
# 6 0.000000 0.000000 0.000000 0.000000 0.000000 0.068235
#
#
# Mechanical properties :
#
#
# Convention : Reuss Voigt Hill
#
# Bulk Modulus (GPa) = 43.53213 60.67745 52.10479
# Shear Modulus (GPa) = 21.32653 28.46838 24.89745
#
# Velocity S-wave (km/s) = 3.08393 3.56309 3.33213
# Velocity P-wave (km/s) = 5.66517 6.63225 6.16770
#
# Compressibility (1/GPa) = 0.02297154
#
# Stress axis : x y z
#
# Youngs Moduli (GPa) = 35.38418 52.43901 139.55269
#
# Poissons Ratio (x) = 0.56530 0.01438
# Poissons Ratio (y) = 0.38144 0.68094
# Poissons Ratio (z) = 0.00365 0.25587
#
# Static dielectric constant tensor:
#      x y z
#    x 2.066900 0.000000 0.000000 
#    y 0.000000 1.605220 0.000000 
#    z 0.000000 0.000000 1.869110 
# 
# From -- ./inp_files/17955.got.cif
#   From: 2010.05.17/outbox.cif.g08.bks.cpg/sg22_9_cif.got.tgz:17955.got - 2010.06.03 23:40:54.
