data_PCOD9327255
_publ_section_title
;
Structure prediction by ZEFSAII (Michael W. Deem and Ramdas Pophale) SiO2 
 PCOD9327255
Probable space group: F 2 2 2
;
_chemical_formula_sum "Si O2"
_cell_formula_units_Z 84
_cell_length_a 25.126007
_cell_length_b 14.741596
_cell_length_c 10.932922
_cell_angle_alpha 90.000000
_cell_angle_beta 90.000000
_cell_angle_gamma 90.000000
_cell_volume 4049.526367
_symmetry_space_group_name_H-M "F 2 2 2"
_symmetry_group_IT_number 22
_symmetry_cell_setting 'orthorhombic'
loop_
_space_group_symop_operation_xyz
x,y,z
-x,-y,z
x,-y,-z
-x,y,-z
x,1/2+y,1/2+z
-x,1/2-y,1/2+z
x,1/2-y,1/2-z
-x,1/2+y,1/2-z
1/2+x,y,1/2+z
1/2-x,-y,1/2+z
1/2+x,-y,1/2-z
1/2-x,y,1/2-z
1/2+x,1/2+y,z
1/2-x,1/2-y,z
1/2+x,1/2-y,-z
1/2-x,1/2+y,-z
loop_
_atom_site_type_symbol
_atom_site_label
_atom_site_fract_x
_atom_site_fract_y
_atom_site_fract_z
Si Si1 0.250000 0.967653 0.250000
Si Si2 0.784373 0.882539 0.440545
Si Si3 0.250000 0.750000 0.750000
Si Si4 0.816928 0.649272 0.594250
Si Si5 0.879152 0.500000 0.000000
Si Si6 0.558012 0.953882 0.756408
Si Si7 0.896981 0.250000 0.250000
Si Si8 0.886677 0.000000 0.000000
O O1 0.198211 0.908883 0.215771
O O2 0.238850 0.030338 0.367101
O O3 0.787783 0.808753 0.335109
O O4 0.741669 0.844142 0.536407
O O5 0.840212 0.913663 0.491230
O O6 0.855520 0.728851 0.638480
O O7 0.849240 0.588259 0.498340
O O8 0.911964 0.491483 0.124240
O O9 0.567873 0.843108 0.759969
O O10 0.581425 0.987061 0.625684
O O11 0.500000 0.000000 0.762360
#
# Coordination Sequence:
#
# PCOD9327255 Si02
#       8
#     8  16   4  16   8  16   8   8
#     4  11  18  36  60  91 150 194 232 266 328 418
#     4  11  22  38  58  98 145 191 224 274 337 430
#     4  10  28  32  54  88 164 176 228 258 338 390
#     4  11  21  36  64 104 140 184 232 283 335 440
#     4  12  24  44  74  98 140 196 236 280 366 416
#     4  11  26  50  74 102 135 183 251 315 366 416
#     4  10  26  43  71 106 138 181 243 294 374 424
#     4  10  20  42  72  98 130 182 236 284 358 422
#
# _framework density 20.743165999999999
#
# number of rings (size 3 to 8) (size 9 to 14) (size 15 to 20)
#    0.000    1.143    3.810    2.857    5.333    0.381 
#    0.000    8.571    0.000    0.000    0.000    0.000 
#    0.000    0.000    0.000    0.000    0.000    0.000 
#
# Total GULP energy -117142.125905 kJ/mol
# GULP energy per Si atom -5578.196472 kJ/mol
# Density = 2.069595 g / cm^3
# Si number density = 20.743166 Si / 1000 Ang^3
#
#
#
# Elastic Constant Matrix: (Units=GPa)
#
#
# Indices 1 2 3 4 5 6 
#
# 1 148.1129 67.1882 74.6144 0.0000 0.0000 0.0000
# 2 67.1882 143.3138 58.8887 0.0000 0.0000 0.0000
# 3 74.6144 58.8887 145.1557 0.0000 0.0000 0.0000
# 4 0.0000 0.0000 0.0000 37.4327 0.0000 0.0000
# 5 0.0000 0.0000 0.0000 0.0000 38.9794 0.0000
# 6 0.0000 0.0000 0.0000 0.0000 0.0000 15.1093
#
#
#
# Elastic Compliance Matrix: (Units=1/GPa)
#
#
# Indices 1 2 3 4 5 6 
#
# 1 0.010168 -0.003143 -0.003952 0.000000 0.000000 0.000000
# 2 -0.003143 0.009345 -0.002176 0.000000 0.000000 0.000000
# 3 -0.003952 -0.002176 0.009803 0.000000 0.000000 0.000000
# 4 0.000000 0.000000 0.000000 0.026715 0.000000 0.000000
# 5 0.000000 0.000000 0.000000 0.000000 0.025655 0.000000
# 6 0.000000 0.000000 0.000000 0.000000 0.000000 0.066184
#
#
# Mechanical properties :
#
#
# Convention : Reuss Voigt Hill
#
# Bulk Modulus (GPa) = 92.80204 93.10720 92.95462
# Shear Modulus (GPa) = 29.41134 34.03036 31.72085
#
# Velocity S-wave (km/s) = 3.76956 4.05477 3.91477
# Velocity P-wave (km/s) = 7.98635 8.17953 8.08352
#
# Compressibility (1/GPa) = 0.01077562
#
# Stress axis : x y z
#
# Youngs Moduli (GPa) = 98.34640 107.00572 102.01000
#
# Poissons Ratio (x) = 0.33635 0.40309
# Poissons Ratio (y) = 0.30913 0.22193
# Poissons Ratio (z) = 0.38862 0.23280
#
# Static dielectric constant tensor:
#      x y z
#    x 1.742620 0.000000 0.000000 
#    y 0.000000 1.846200 0.000000 
#    z 0.000000 0.000000 1.807770 
# 
# From -- ./inp_files/23703.got.cif
#   From: 2010.05.17/outbox.cif.g08.bks.cpg/sg22_12_cif.got.tgz:23703.got - 2010.06.03 23:40:54.
