data_PCOD9327178
_publ_section_title
;
Structure prediction by ZEFSAII (Michael W. Deem and Ramdas Pophale) SiO2 
 PCOD9327178
Probable space group: F 2 2 2
;
_chemical_formula_sum "Si O2"
_cell_formula_units_Z 84
_cell_length_a 11.999114
_cell_length_b 28.208424
_cell_length_c 12.056230
_cell_angle_alpha 90.000000
_cell_angle_beta 90.000000
_cell_angle_gamma 90.000000
_cell_volume 4080.745655
_symmetry_space_group_name_H-M "F 2 2 2"
_symmetry_group_IT_number 22
_symmetry_cell_setting 'orthorhombic'
loop_
_space_group_symop_operation_xyz
x,y,z
-x,-y,z
x,-y,-z
-x,y,-z
x,1/2+y,1/2+z
-x,1/2-y,1/2+z
x,1/2-y,1/2-z
-x,1/2+y,1/2-z
1/2+x,y,1/2+z
1/2-x,-y,1/2+z
1/2+x,-y,1/2-z
1/2-x,y,1/2-z
1/2+x,1/2+y,z
1/2-x,1/2-y,z
1/2+x,1/2-y,-z
1/2-x,1/2+y,-z
loop_
_atom_site_type_symbol
_atom_site_label
_atom_site_fract_x
_atom_site_fract_y
_atom_site_fract_z
Si Si1 0.500000 0.664875 0.000000
Si Si2 0.000000 0.000000 0.500000
Si Si3 0.622538 0.084386 0.120789
Si Si4 0.750000 0.750000 0.750000
Si Si5 0.615062 0.917651 0.632051
Si Si6 0.000000 0.500000 0.500000
Si Si7 0.627159 0.695046 0.218489
Si Si8 0.935191 0.688779 0.892787
O O1 0.578635 0.629720 0.930585
O O2 0.420169 0.689500 0.907260
O O3 0.923973 0.037417 0.435081
O O4 0.571685 0.085154 0.243475
O O5 0.753564 0.079643 0.131204
O O6 0.605614 0.136684 0.069132
O O7 0.834714 0.718848 0.830700
O O8 0.570666 0.964591 0.574522
O O9 0.635517 0.750000 0.250000
O O10 0.750000 0.674178 0.250000
O O11 0.529370 0.679034 0.300754
O O12 0.000000 0.710929 0.000000
#
# Coordination Sequence:
#
# PCOD9327178 Si02
#       8
#     8   4  16   4  16   4  16  16
#     4  11  24  45  73  96 142 194 237 299 378 433
#     4  12  24  40  70 100 146 188 238 304 378 436
#     4  11  23  43  66 102 141 186 240 303 369 442
#     4  12  28  52  78 114 152 208 252 314 390 454
#     4  10  22  41  68  94 135 178 235 294 357 443
#     4  10  20  40  64 100 122 176 236 284 368 434
#     4  11  27  46  68 106 144 189 246 309 375 455
#     4  12  27  48  74 110 148 195 253 306 380 458
#
# _framework density 20.584472000000002
#
# number of rings (size 3 to 8) (size 9 to 14) (size 15 to 20)
#    0.000    0.952    3.810    2.286    4.000    1.524 
#    0.000    0.000    0.000    0.000    0.000    0.000 
#    0.000    0.000    0.000    0.000    0.000    0.000 
#
# Total GULP energy -117027.120080 kJ/mol
# GULP energy per Si atom -5572.720004 kJ/mol
# Density = 2.053762 g / cm^3
# Si number density = 20.584472 Si / 1000 Ang^3
#
#
#
# Elastic Constant Matrix: (Units=GPa)
#
#
# Indices 1 2 3 4 5 6 
#
# 1 130.9334 61.5548 61.4922 0.0000 0.0000 0.0000
# 2 61.5548 132.8686 59.6769 0.0000 0.0000 0.0000
# 3 61.4922 59.6769 144.2791 0.0000 0.0000 0.0000
# 4 0.0000 0.0000 0.0000 51.6071 0.0000 0.0000
# 5 0.0000 0.0000 0.0000 0.0000 38.1235 0.0000
# 6 0.0000 0.0000 0.0000 0.0000 0.0000 -59.4156
#
#
#
# Elastic Compliance Matrix: (Units=1/GPa)
#
#
# Indices 1 2 3 4 5 6 
#
# 1 0.010791 -0.003603 -0.003109 0.000000 0.000000 0.000000
# 2 -0.003603 0.010446 -0.002785 0.000000 0.000000 0.000000
# 3 -0.003109 -0.002785 0.009408 0.000000 0.000000 0.000000
# 4 0.000000 0.000000 0.000000 0.019377 0.000000 0.000000
# 5 0.000000 0.000000 0.000000 0.000000 0.026231 0.000000
# 6 0.000000 0.000000 0.000000 0.000000 0.000000 -0.016831
#
#
# Mechanical properties :
#
#
# Convention : Reuss Voigt Hill
#
# Bulk Modulus (GPa) = 85.82686 85.94764 85.88725
# Shear Modulus (GPa) = 60.75216 21.08681 40.91949
#
# Velocity S-wave (km/s) = 5.43853 3.20410 4.46340
# Velocity P-wave (km/s) = 9.01234 7.45202 8.26907
#
# Compressibility (1/GPa) = 0.01165136
#
# Stress axis : x y z
#
# Youngs Moduli (GPa) = 92.66553 95.72681 106.29095
#
# Poissons Ratio (x) = 0.34491 0.33047
# Poissons Ratio (y) = 0.33388 0.29605
# Poissons Ratio (z) = 0.28810 0.26662
#
# Static dielectric constant tensor:
#      x y z
#    x 1.755620 0.000000 0.000000 
#    y 0.000000 1.752300 0.000000 
#    z 0.000000 0.000000 1.847340 
# 
# From -- ./inp_files/18495.got.cif
#   From: 2010.05.17/outbox.cif.g08.bks.cpg/sg22_10_cif.got.tgz:18495.got - 2010.06.03 23:40:54.
