data_PCOD9327196
_publ_section_title
;
Structure prediction by ZEFSAII (Michael W. Deem and Ramdas Pophale) SiO2 
 PCOD9327196
Probable space group: F 2 2 2
;
_chemical_formula_sum "Si O2"
_cell_formula_units_Z 68
_cell_length_a 9.613530
_cell_length_b 22.619150
_cell_length_c 14.514567
_cell_angle_alpha 90.000000
_cell_angle_beta 90.000000
_cell_angle_gamma 90.000000
_cell_volume 3156.190810
_symmetry_space_group_name_H-M "F 2 2 2"
_symmetry_group_IT_number 22
_symmetry_cell_setting 'orthorhombic'
loop_
_space_group_symop_operation_xyz
x,y,z
-x,-y,z
x,-y,-z
-x,y,-z
x,1/2+y,1/2+z
-x,1/2-y,1/2+z
x,1/2-y,1/2-z
-x,1/2+y,1/2-z
1/2+x,y,1/2+z
1/2-x,-y,1/2+z
1/2+x,-y,1/2-z
1/2-x,y,1/2-z
1/2+x,1/2+y,z
1/2-x,1/2-y,z
1/2+x,1/2-y,-z
1/2-x,1/2+y,-z
loop_
_atom_site_type_symbol
_atom_site_label
_atom_site_fract_x
_atom_site_fract_y
_atom_site_fract_z
Si Si1 0.497191 0.611955 0.896719
Si Si2 0.679091 0.419458 0.600397
Si Si3 0.551656 0.152634 0.202593
Si Si4 0.250000 0.250000 0.750000
Si Si5 0.284634 0.448086 0.611138
O O1 0.341454 0.590501 0.881513
O O2 0.524492 0.654884 0.811688
O O3 0.617707 0.561505 0.893959
O O4 0.500000 0.637815 0.000000
O O5 0.586228 0.367763 0.646049
O O6 0.660536 0.486829 0.634346
O O7 0.662885 0.426719 0.489999
O O8 0.647956 0.209689 0.186710
O O9 0.648553 0.097082 0.180860
#
# Coordination Sequence:
#
# PCOD9327196 Si02
#       5
#    16  16  16   4  16
#     4  10  21  39  63  98 141 174 208 266 340 416
#     4  10  22  37  69 109 138 167 220 277 341 420
#     4  12  23  43  66  87 134 180 237 276 334 397
#     4  12  28  48  66  88 132 198 242 298 344 380
#     4  10  20  40  67 105 144 174 206 271 351 423
#
# _framework density 21.544957
#
# number of rings (size 3 to 8) (size 9 to 14) (size 15 to 20)
#    0.000    1.412    2.353    2.824    0.000   10.353 
#    0.000    4.706    0.000    0.000    0.000    0.000 
#    0.000    0.000    0.000    0.000    0.000    0.000 
#
# Total GULP energy -94755.718192 kJ/mol
# GULP energy per Si atom -5573.865776 kJ/mol
# Density = 2.149592 g / cm^3
# Si number density = 21.544957 Si / 1000 Ang^3
#
#
#
# Elastic Constant Matrix: (Units=GPa)
#
#
# Indices 1 2 3 4 5 6 
#
# 1 169.5933 37.9185 27.9883 0.0000 0.0000 0.0000
# 2 37.9185 77.2081 36.4688 0.0000 0.0000 0.0000
# 3 27.9883 36.4688 87.4819 0.0000 0.0000 0.0000
# 4 0.0000 0.0000 0.0000 -128.5278 0.0000 0.0000
# 5 0.0000 0.0000 0.0000 0.0000 35.3986 0.0000
# 6 0.0000 0.0000 0.0000 0.0000 0.0000 24.1778
#
#
#
# Elastic Compliance Matrix: (Units=1/GPa)
#
#
# Indices 1 2 3 4 5 6 
#
# 1 0.006688 -0.002831 -0.000959 0.000000 0.000000 0.000000
# 2 -0.002831 0.017326 -0.006317 0.000000 0.000000 0.000000
# 3 -0.000959 -0.006317 0.014371 0.000000 0.000000 0.000000
# 4 0.000000 0.000000 0.000000 -0.007780 0.000000 0.000000
# 5 0.000000 0.000000 0.000000 0.000000 0.028250 0.000000
# 6 0.000000 0.000000 0.000000 0.000000 0.000000 0.041360
#
#
# Mechanical properties :
#
#
# Convention : Reuss Voigt Hill
#
# Bulk Modulus (GPa) = 55.03592 59.89273 57.46432
# Shear Modulus (GPa) = 39.52972 1.67025 20.59998
#
# Velocity S-wave (km/s) = 4.28805 0.88143 3.09550
# Velocity P-wave (km/s) = 7.07931 5.37543 6.28537
#
# Compressibility (1/GPa) = 0.01816995
#
# Stress axis : x y z
#
# Youngs Moduli (GPa) = 149.52517 57.71547 69.58338
#
# Poissons Ratio (x) = 0.16342 0.06675
# Poissons Ratio (y) = 0.42337 0.43956
# Poissons Ratio (z) = 0.14344 0.36459
#
# Static dielectric constant tensor:
#      x y z
#    x 1.940120 0.000000 0.000000 
#    y 0.000000 1.789410 0.000000 
#    z 0.000000 0.000000 1.896490 
# 
# From -- ./inp_files/26993.got.cif
#   From: 2010.05.17/outbox.cif.g08.bks.cpg/sg22_14_cif.got.tgz:26993.got - 2010.06.03 23:40:54.
