data_PCOD9327613
_publ_section_title
;
Structure prediction by ZEFSAII (Michael W. Deem and Ramdas Pophale) SiO2 
 PCOD9327613
Probable space group: F 2 2 2
;
_chemical_formula_sum "Si O2"
_cell_formula_units_Z 112
_cell_length_a 13.402085
_cell_length_b 26.752603
_cell_length_c 14.955300
_cell_angle_alpha 90.000000
_cell_angle_beta 90.000000
_cell_angle_gamma 90.000000
_cell_volume 5362.083123
_symmetry_space_group_name_H-M "F 2 2 2"
_symmetry_group_IT_number 22
_symmetry_cell_setting 'orthorhombic'
loop_
_space_group_symop_operation_xyz
x,y,z
-x,-y,z
x,-y,-z
-x,y,-z
x,1/2+y,1/2+z
-x,1/2-y,1/2+z
x,1/2-y,1/2-z
-x,1/2+y,1/2-z
1/2+x,y,1/2+z
1/2-x,-y,1/2+z
1/2+x,-y,1/2-z
1/2-x,y,1/2-z
1/2+x,1/2+y,z
1/2-x,1/2-y,z
1/2+x,1/2-y,-z
1/2-x,1/2+y,-z
loop_
_atom_site_type_symbol
_atom_site_label
_atom_site_fract_x
_atom_site_fract_y
_atom_site_fract_z
Si Si1 0.414075 0.603187 0.068129
Si Si2 0.736837 0.143572 0.991504
Si Si3 0.050836 0.800792 0.165974
Si Si4 0.038915 0.098577 0.409326
Si Si5 0.657082 0.348099 0.817062
Si Si6 0.475788 0.442625 0.217499
Si Si7 0.391143 0.310843 0.641962
O O1 0.303162 0.598683 0.032338
O O2 0.430461 0.661953 0.084793
O O3 0.431384 0.582445 0.166707
O O4 0.500000 0.584505 0.000000
O O5 0.698347 0.178302 0.072460
O O6 0.645813 0.120808 0.934953
O O7 0.806317 0.167181 0.915345
O O8 0.940048 0.814363 0.203342
O O9 0.064359 0.744613 0.133109
O O10 0.123686 0.812458 0.250423
O O11 0.033950 0.064101 0.323159
O O12 0.000000 0.073845 0.500000
O O13 0.968870 0.145932 0.385576
O O14 0.750000 0.343353 0.750000
O O15 0.615197 0.405947 0.816851
O O16 0.500000 0.500000 0.196222
#
# Coordination Sequence:
#
# PCOD9327613 Si02
#       7
#    16  16  16  16  16  16  16
#     4  11  22  41  63  96 135 177 219 289 344 407
#     4  11  22  39  69  94 133 178 224 279 338 407
#     4  10  21  40  66  92 143 179 226 279 334 415
#     4  10  21  43  68  96 134 176 219 286 353 412
#     4  11  20  43  71 100 135 184 233 290 343 414
#     4  11  23  43  74  94 131 179 227 288 370 413
#     4  10  21  41  65  97 133 182 224 275 338 410
#
# _framework density 20.887404
#
# number of rings (size 3 to 8) (size 9 to 14) (size 15 to 20)
#    0.000    1.429    7.143    0.000    0.000    3.429 
#    2.571    8.571    6.286    0.000    0.000    0.000 
#    0.000    0.000    0.000    0.000    0.000    0.000 
#
# Total GULP energy -155925.417843 kJ/mol
# GULP energy per Si atom -5568.764923 kJ/mol
# Density = 2.083986 g / cm^3
# Si number density = 20.887404 Si / 1000 Ang^3
#
#
#
# Elastic Constant Matrix: (Units=GPa)
#
#
# Indices 1 2 3 4 5 6 
#
# 1 77.6388 23.8139 37.8585 0.0000 0.0000 0.0000
# 2 23.8139 71.6580 -6.5126 0.0000 0.0000 0.0000
# 3 37.8585 -6.5126 95.6475 0.0000 0.0000 0.0000
# 4 0.0000 0.0000 0.0000 -1.3478 0.0000 0.0000
# 5 0.0000 0.0000 0.0000 0.0000 40.6707 0.0000
# 6 0.0000 0.0000 0.0000 0.0000 0.0000 7.8487
#
#
#
# Elastic Compliance Matrix: (Units=1/GPa)
#
#
# Indices 1 2 3 4 5 6 
#
# 1 0.018913 -0.007009 -0.007963 0.000000 0.000000 0.000000
# 2 -0.007009 0.016640 0.003907 0.000000 0.000000 0.000000
# 3 -0.007963 0.003907 0.013873 0.000000 0.000000 0.000000
# 4 0.000000 0.000000 0.000000 -0.741935 0.000000 0.000000
# 5 0.000000 0.000000 0.000000 0.000000 0.024588 0.000000
# 6 0.000000 0.000000 0.000000 0.000000 0.000000 0.127410
#
#
# Mechanical properties :
#
#
# Convention : Reuss Voigt Hill
#
# Bulk Modulus (GPa) = 36.63601 39.47379 38.05490
# Shear Modulus (GPa) = -9.81772 22.08660 6.13444
#
# Velocity S-wave (km/s) = -2.17037 3.25532 1.71560
# Velocity P-wave (km/s) = 3.36112 5.75055 4.70988
#
# Compressibility (1/GPa) = 0.02729555
#
# Stress axis : x y z
#
# Youngs Moduli (GPa) = 52.87331 60.09759 72.08202
#
# Poissons Ratio (x) = 0.42123 0.57401
# Poissons Ratio (y) = 0.37059 -0.28164
# Poissons Ratio (z) = 0.42105 -0.23482
#
# Static dielectric constant tensor:
#      x y z
#    x 1.812770 0.000000 0.000000 
#    y 0.000000 1.753310 0.000000 
#    z 0.000000 0.000000 1.817720 
# 
# From -- ./inp_files/29832.got.cif
#   From: 2010.05.17/outbox.cif.g08.bks.cpg/sg22_15_cif.got.tgz:29832.got - 2010.06.03 23:40:54.
