data_PCOD9327127
_publ_section_title
;
Structure prediction by ZEFSAII (Michael W. Deem and Ramdas Pophale) SiO2 
 PCOD9327127
Probable space group: F 2 2 2
;
_chemical_formula_sum "Si O2"
_cell_formula_units_Z 52
_cell_length_a 16.234339
_cell_length_b 11.167416
_cell_length_c 12.008254
_cell_angle_alpha 90.000000
_cell_angle_beta 90.000000
_cell_angle_gamma 90.000000
_cell_volume 2177.043819
_symmetry_space_group_name_H-M "F 2 2 2"
_symmetry_group_IT_number 22
_symmetry_cell_setting 'orthorhombic'
loop_
_space_group_symop_operation_xyz
x,y,z
-x,-y,z
x,-y,-z
-x,y,-z
x,1/2+y,1/2+z
-x,1/2-y,1/2+z
x,1/2-y,1/2-z
-x,1/2+y,1/2-z
1/2+x,y,1/2+z
1/2-x,-y,1/2+z
1/2+x,-y,1/2-z
1/2-x,y,1/2-z
1/2+x,1/2+y,z
1/2-x,1/2-y,z
1/2+x,1/2-y,-z
1/2-x,1/2+y,-z
loop_
_atom_site_type_symbol
_atom_site_label
_atom_site_fract_x
_atom_site_fract_y
_atom_site_fract_z
Si Si1 0.011853 0.202995 0.379409
Si Si2 0.250000 0.250000 0.250000
Si Si3 0.314923 0.026815 0.379887
Si Si4 0.626670 0.984149 0.845489
O O1 0.010359 0.250000 0.250000
O O2 0.091305 0.114032 0.377878
O O3 0.000000 0.272210 0.500000
O O4 0.933739 0.115029 0.388729
O O5 0.300374 0.160990 0.331829
O O6 0.372767 0.970498 0.287519
O O7 0.222130 0.973108 0.377918
O O8 0.348560 0.000000 0.500000
#
# Coordination Sequence:
#
# PCOD9327127 Si02
#       4
#    16   4  16  16
#     4  11  23  40  63  89 123 167 208 255 320 382
#     4   8  20  36  60  92 116 176 204 242 346 354
#     4  10  20  39  65  94 124 162 210 266 314 384
#     4   9  21  41  60  88 122 162 206 257 316 376
#
# _framework density 23.885601000000001
#
# number of rings (size 3 to 8) (size 9 to 14) (size 15 to 20)
#    0.000    2.462    0.000    3.692    8.615    2.462 
#    5.538    4.615    0.000    0.000    0.000    0.000 
#    0.000    0.000    0.000    0.000    0.000    0.000 
#
# Total GULP energy -72407.728806 kJ/mol
# GULP energy per Si atom -5569.825293 kJ/mol
# Density = 2.383124 g / cm^3
# Si number density = 23.885601 Si / 1000 Ang^3
#
#
#
# Elastic Constant Matrix: (Units=GPa)
#
#
# Indices 1 2 3 4 5 6 
#
# 1 67.4948 5.7334 3.0598 0.0000 0.0000 0.0000
# 2 5.7334 40.6350 8.9854 0.0000 0.0000 0.0000
# 3 3.0598 8.9854 261.0192 0.0000 0.0000 0.0000
# 4 0.0000 0.0000 0.0000 17.8553 0.0000 0.0000
# 5 0.0000 0.0000 0.0000 0.0000 2.2887 0.0000
# 6 0.0000 0.0000 0.0000 0.0000 0.0000 -18.8511
#
#
#
# Elastic Compliance Matrix: (Units=1/GPa)
#
#
# Indices 1 2 3 4 5 6 
#
# 1 0.014998 -0.002093 -0.000104 0.000000 0.000000 0.000000
# 2 -0.002093 0.025090 -0.000839 0.000000 0.000000 0.000000
# 3 -0.000104 -0.000839 0.003861 0.000000 0.000000 0.000000
# 4 0.000000 0.000000 0.000000 0.056006 0.000000 0.000000
# 5 0.000000 0.000000 0.000000 0.000000 0.436930 0.000000
# 6 0.000000 0.000000 0.000000 0.000000 0.000000 -0.053047
#
#
# Mechanical properties :
#
#
# Convention : Reuss Voigt Hill
#
# Bulk Modulus (GPa) = 26.40087 44.96736 35.68412
# Shear Modulus (GPa) = 9.94952 23.68327 16.81640
#
# Velocity S-wave (km/s) = 2.04317 3.15227 2.65625
# Velocity P-wave (km/s) = 4.07959 5.66711 4.93757
#
# Compressibility (1/GPa) = 0.03787754
#
# Stress axis : x y z
#
# Youngs Moduli (GPa) = 66.67346 39.85617 258.98409
#
# Poissons Ratio (x) = 0.08343 0.02687
# Poissons Ratio (y) = 0.13956 0.21733
# Poissons Ratio (z) = 0.00692 0.03345
#
# Static dielectric constant tensor:
#      x y z
#    x 1.879050 0.000000 0.000000 
#    y 0.000000 1.926790 0.000000 
#    z 0.000000 0.000000 2.362190 
# 
# From -- ./inp_files/19510.got.cif
#   From: 2010.05.17/outbox.cif.g08.bks.cpg/sg22_10_cif.got.tgz:19510.got - 2010.06.03 23:40:54.
