data_PCOD9327581
_publ_section_title
;
Structure prediction by ZEFSAII (Michael W. Deem and Ramdas Pophale) SiO2 
 PCOD9327581
Probable space group: F 2 2 2
;
_chemical_formula_sum "Si O2"
_cell_formula_units_Z 84
_cell_length_a 19.750401
_cell_length_b 25.148549
_cell_length_c 8.766747
_cell_angle_alpha 90.000000
_cell_angle_beta 90.000000
_cell_angle_gamma 90.000000
_cell_volume 4354.389997
_symmetry_space_group_name_H-M "F 2 2 2"
_symmetry_group_IT_number 22
_symmetry_cell_setting 'orthorhombic'
loop_
_space_group_symop_operation_xyz
x,y,z
-x,-y,z
x,-y,-z
-x,y,-z
x,1/2+y,1/2+z
-x,1/2-y,1/2+z
x,1/2-y,1/2-z
-x,1/2+y,1/2-z
1/2+x,y,1/2+z
1/2-x,-y,1/2+z
1/2+x,-y,1/2-z
1/2-x,y,1/2-z
1/2+x,1/2+y,z
1/2-x,1/2-y,z
1/2+x,1/2-y,-z
1/2-x,1/2+y,-z
loop_
_atom_site_type_symbol
_atom_site_label
_atom_site_fract_x
_atom_site_fract_y
_atom_site_fract_z
Si Si1 0.500000 0.000000 0.500000
Si Si2 0.429564 0.807654 0.188452
Si Si3 0.827447 0.599231 0.313661
Si Si4 0.323069 0.008648 0.824179
Si Si5 0.894504 0.087554 0.133438
Si Si6 0.907757 0.695204 0.162241
O O1 0.549068 0.956608 0.584776
O O2 0.409127 0.750000 0.250000
O O3 0.416157 0.854242 0.310766
O O4 0.510983 0.808127 0.173286
O O5 0.395875 0.811308 0.020044
O O6 0.750000 0.603696 0.250000
O O7 0.856166 0.543988 0.246928
O O8 0.840617 0.593777 0.494863
O O9 0.870534 0.647935 0.250157
O O10 0.250000 0.012775 0.750000
O O11 0.362049 0.061210 0.781929
O O12 0.315526 0.000000 0.000000
O O13 0.888162 0.750000 0.250000
#
# Coordination Sequence:
#
# PCOD9327581 Si02
#       6
#     4  16  16  16  16  16
#     4  12  24  40  62 100 132 176 214 268 340 372
#     4  10  22  39  64  93 123 171 213 266 322 378
#     4  11  22  39  62  89 123 167 211 259 321 383
#     4  11  22  39  61  88 121 163 209 256 319 387
#     4  12  23  41  63  93 131 166 217 267 321 390
#     4  10  21  40  62  90 124 165 218 263 319 380
#
# _framework density 19.290876000000001
#
# number of rings (size 3 to 8) (size 9 to 14) (size 15 to 20)
#    0.000    1.143    1.905    5.714    0.000    3.429 
#    0.000    0.000    0.000    4.000    0.000    0.000 
#    0.000    0.000    0.000    0.000    0.000    0.000 
#
# Total GULP energy -117046.620127 kJ/mol
# GULP energy per Si atom -5573.648577 kJ/mol
# Density = 1.924697 g / cm^3
# Si number density = 19.290876 Si / 1000 Ang^3
#
#
#
# Elastic Constant Matrix: (Units=GPa)
#
#
# Indices 1 2 3 4 5 6 
#
# 1 37.5796 26.7227 27.6519 0.0000 0.0000 0.0000
# 2 26.7227 135.4661 26.7411 0.0000 0.0000 0.0000
# 3 27.6519 26.7411 126.9153 0.0000 0.0000 0.0000
# 4 0.0000 0.0000 0.0000 42.3601 0.0000 0.0000
# 5 0.0000 0.0000 0.0000 0.0000 22.6611 0.0000
# 6 0.0000 0.0000 0.0000 0.0000 0.0000 23.6480
#
#
#
# Elastic Compliance Matrix: (Units=1/GPa)
#
#
# Indices 1 2 3 4 5 6 
#
# 1 0.035471 -0.005709 -0.006526 0.000000 0.000000 0.000000
# 2 -0.005709 0.008621 -0.000573 0.000000 0.000000 0.000000
# 3 -0.006526 -0.000573 0.009422 0.000000 0.000000 0.000000
# 4 0.000000 0.000000 0.000000 0.023607 0.000000 0.000000
# 5 0.000000 0.000000 0.000000 0.000000 0.044129 0.000000
# 6 0.000000 0.000000 0.000000 0.000000 0.000000 0.042287
#
#
# Mechanical properties :
#
#
# Convention : Reuss Voigt Hill
#
# Bulk Modulus (GPa) = 35.84247 51.35471 43.59859
# Shear Modulus (GPa) = 25.19509 32.32352 28.75931
#
# Velocity S-wave (km/s) = 3.61787 4.09783 3.86531
# Velocity P-wave (km/s) = 6.00602 7.00490 6.52461
#
# Compressibility (1/GPa) = 0.02789986
#
# Stress axis : x y z
#
# Youngs Moduli (GPa) = 28.19165 115.99363 106.13829
#
# Poissons Ratio (x) = 0.66222 0.69261
# Poissons Ratio (y) = 0.16095 0.06077
# Poissons Ratio (z) = 0.18396 0.06642
#
# Static dielectric constant tensor:
#      x y z
#    x 1.681030 0.000000 0.000000 
#    y 0.000000 1.693500 0.000000 
#    z 0.000000 0.000000 1.711420 
# 
# From -- ./inp_files/12560.got.cif
#   From: 2010.05.17/outbox.cif.g08.bks.cpg/sg22_7_cif.got.tgz:12560.got - 2010.06.03 23:40:54.
