data_PCOD9327390
_publ_section_title
;
Structure prediction by ZEFSAII (Michael W. Deem and Ramdas Pophale) SiO2 
 PCOD9327390
Probable space group: F 2 2 2
;
_chemical_formula_sum "Si O2"
_cell_formula_units_Z 84
_cell_length_a 16.318326
_cell_length_b 27.971730
_cell_length_c 9.361085
_cell_angle_alpha 90.000000
_cell_angle_beta 90.000000
_cell_angle_gamma 90.000000
_cell_volume 4272.884182
_symmetry_space_group_name_H-M "F 2 2 2"
_symmetry_group_IT_number 22
_symmetry_cell_setting 'orthorhombic'
loop_
_space_group_symop_operation_xyz
x,y,z
-x,-y,z
x,-y,-z
-x,y,-z
x,1/2+y,1/2+z
-x,1/2-y,1/2+z
x,1/2-y,1/2-z
-x,1/2+y,1/2-z
1/2+x,y,1/2+z
1/2-x,-y,1/2+z
1/2+x,-y,1/2-z
1/2-x,y,1/2-z
1/2+x,1/2+y,z
1/2-x,1/2-y,z
1/2+x,1/2-y,-z
1/2-x,1/2+y,-z
loop_
_atom_site_type_symbol
_atom_site_label
_atom_site_fract_x
_atom_site_fract_y
_atom_site_fract_z
Si Si1 0.918141 0.754491 0.920871
Si Si2 0.356489 0.143790 0.614300
Si Si3 0.836406 0.158783 0.438709
Si Si4 0.500000 0.000000 0.000000
Si Si5 0.673904 0.947521 0.449794
Si Si6 0.139351 0.930655 0.617862
O O1 0.925620 0.750000 0.750000
O O2 0.898969 0.809729 0.952591
O O3 0.852290 0.714633 0.964974
O O4 0.000000 0.740112 0.000000
O O5 0.260212 0.152142 0.583845
O O6 0.373337 0.144440 0.783829
O O7 0.370283 0.092232 0.546451
O O8 0.871013 0.123404 0.559354
O O9 0.436874 0.964644 0.918925
O O10 0.773997 0.945469 0.457772
O O11 0.653790 0.935071 0.286411
O O12 0.648837 0.000000 0.500000
#
# Coordination Sequence:
#
# PCOD9327390 Si02
#       6
#    16  16  16   4  16  16
#     4  10  21  37  56  84 118 154 191 243 302 357
#     4   9  19  37  62  85 112 149 204 247 291 344
#     4   9  19  37  63  86 110 154 200 245 289 362
#     4  12  24  40  58  92 124 158 194 252 294 360
#     4  10  21  40  62  87 116 160 201 247 289 362
#     4  10  23  38  61  88 122 155 202 240 302 357
#
# _framework density 19.658853000000001
#
# number of rings (size 3 to 8) (size 9 to 14) (size 15 to 20)
#    0.000    2.286    0.952    0.571    4.000    5.333 
#    3.429    0.476    0.000    5.714    0.000    0.000 
#    0.000    0.000    0.000    0.000    0.000    0.000 
#
# Total GULP energy -117048.622936 kJ/mol
# GULP energy per Si atom -5573.743949 kJ/mol
# Density = 1.961411 g / cm^3
# Si number density = 19.658853 Si / 1000 Ang^3
#
#
#
# Elastic Constant Matrix: (Units=GPa)
#
#
# Indices 1 2 3 4 5 6 
#
# 1 39.5747 20.3163 14.9317 0.0000 0.0000 0.0000
# 2 20.3163 161.3931 48.2884 0.0000 0.0000 0.0000
# 3 14.9317 48.2884 35.5328 0.0000 0.0000 0.0000
# 4 0.0000 0.0000 0.0000 35.9893 0.0000 0.0000
# 5 0.0000 0.0000 0.0000 0.0000 16.2640 0.0000
# 6 0.0000 0.0000 0.0000 0.0000 0.0000 28.3141
#
#
#
# Elastic Compliance Matrix: (Units=1/GPa)
#
#
# Indices 1 2 3 4 5 6 
#
# 1 0.030030 -0.000008 -0.012609 0.000000 0.000000 0.000000
# 2 -0.000008 0.010442 -0.014187 0.000000 0.000000 0.000000
# 3 -0.012609 -0.014187 0.052721 0.000000 0.000000 0.000000
# 4 0.000000 0.000000 0.000000 0.027786 0.000000 0.000000
# 5 0.000000 0.000000 0.000000 0.000000 0.061486 0.000000
# 6 0.000000 0.000000 0.000000 0.000000 0.000000 0.035318
#
#
# Mechanical properties :
#
#
# Convention : Reuss Voigt Hill
#
# Bulk Modulus (GPa) = 25.26137 44.84147 35.05142
# Shear Modulus (GPa) = 17.56947 26.31109 21.94028
#
# Velocity S-wave (km/s) = 2.99276 3.66236 3.34436
# Velocity P-wave (km/s) = 4.98196 6.38304 5.72552
#
# Compressibility (1/GPa) = 0.03958613
#
# Stress axis : x y z
#
# Youngs Moduli (GPa) = 33.30005 95.77021 18.96773
#
# Poissons Ratio (x) = 0.00073 0.23916
# Poissons Ratio (y) = 0.00025 0.26909
# Poissons Ratio (z) = 0.41988 1.35867
#
# Static dielectric constant tensor:
#      x y z
#    x 1.678880 0.000000 0.000000 
#    y 0.000000 1.702950 0.000000 
#    z 0.000000 0.000000 1.676210 
# 
# From -- ./inp_files/21316.got.cif
#   From: 2010.05.17/outbox.cif.g08.bks.cpg/sg22_11_cif.got.tgz:21316.got - 2010.06.03 23:40:54.
