data_PCOD9327874
_publ_section_title
;
Structure prediction by ZEFSAII (Michael W. Deem and Ramdas Pophale) SiO2 
 PCOD9327874
Probable space group: F 2 2 2
;
_chemical_formula_sum "Si O2"
_cell_formula_units_Z 64
_cell_length_a 14.585457
_cell_length_b 4.920886
_cell_length_c 34.494299
_cell_angle_alpha 90.000000
_cell_angle_beta 90.000000
_cell_angle_gamma 90.000000
_cell_volume 2475.772125
_symmetry_space_group_name_H-M "F 2 2 2"
_symmetry_group_IT_number 22
_symmetry_cell_setting 'orthorhombic'
loop_
_space_group_symop_operation_xyz
x,y,z
-x,-y,z
x,-y,-z
-x,y,-z
x,1/2+y,1/2+z
-x,1/2-y,1/2+z
x,1/2-y,1/2-z
-x,1/2+y,1/2-z
1/2+x,y,1/2+z
1/2-x,-y,1/2+z
1/2+x,-y,1/2-z
1/2-x,y,1/2-z
1/2+x,1/2+y,z
1/2-x,1/2-y,z
1/2+x,1/2-y,-z
1/2-x,1/2+y,-z
loop_
_atom_site_type_symbol
_atom_site_label
_atom_site_fract_x
_atom_site_fract_y
_atom_site_fract_z
Si Si1 0.888772 0.136886 0.842299
Si Si2 0.142888 0.163916 0.707053
Si Si3 0.250000 0.750000 0.899351
Si Si4 0.000000 0.000000 0.403209
Si Si5 0.150709 0.403118 0.957073
O O1 0.866453 0.355838 0.808119
O O2 0.799918 0.053766 0.869042
O O3 0.948243 0.298908 0.873499
O O4 0.913387 0.857154 0.821859
O O5 0.111590 0.250000 0.750000
O O6 0.250000 0.250000 0.705624
O O7 0.175502 0.651800 0.929495
O O8 0.937430 0.188963 0.432258
O O9 0.250000 0.250000 0.958939
O O10 0.126843 0.500000 0.000000
#
# Coordination Sequence:
#
# PCOD9327874 Si02
#       5
#    16  16   8   8  16
#     4  11  23  42  66 108 146 192 248 305 373 449
#     4  11  22  41  72 108 147 193 250 312 380 451
#     4  10  22  38  67 100 140 184 238 294 369 446
#     4  10  27  44  72 108 150 196 258 312 372 464
#     4  11  23  46  73 105 146 193 243 311 381 450
#
# _framework density 25.850518000000001
#
# number of rings (size 3 to 8) (size 9 to 14) (size 15 to 20)
#    0.000    1.250    3.750    1.125    7.000    3.000 
#    4.500    2.500    0.000    0.000    0.000    0.000 
#    0.000    0.000    0.000    0.000    0.000    0.000 
#
# Total GULP energy -89216.197813 kJ/mol
# GULP energy per Si atom -5576.012363 kJ/mol
# Density = 2.579168 g / cm^3
# Si number density = 25.850518 Si / 1000 Ang^3
#
#
#
# Elastic Constant Matrix: (Units=GPa)
#
#
# Indices 1 2 3 4 5 6 
#
# 1 67.0090 3.5731 40.9533 0.0000 0.0000 0.0000
# 2 3.5731 84.0133 31.7512 0.0000 0.0000 0.0000
# 3 40.9533 31.7512 220.4097 0.0000 0.0000 0.0000
# 4 0.0000 0.0000 0.0000 24.4547 0.0000 0.0000
# 5 0.0000 0.0000 0.0000 0.0000 53.0505 0.0000
# 6 0.0000 0.0000 0.0000 0.0000 0.0000 79.1999
#
#
#
# Elastic Compliance Matrix: (Units=1/GPa)
#
#
# Indices 1 2 3 4 5 6 
#
# 1 0.016854 0.000494 -0.003203 0.000000 0.000000 0.000000
# 2 0.000494 0.012603 -0.001907 0.000000 0.000000 0.000000
# 3 -0.003203 -0.001907 0.005407 0.000000 0.000000 0.000000
# 4 0.000000 0.000000 0.000000 0.040892 0.000000 0.000000
# 5 0.000000 0.000000 0.000000 0.000000 0.018850 0.000000
# 6 0.000000 0.000000 0.000000 0.000000 0.000000 0.012626
#
#
# Mechanical properties :
#
#
# Convention : Reuss Voigt Hill
#
# Bulk Modulus (GPa) = 39.01485 58.22079 48.61782
# Shear Modulus (GPa) = 39.99723 51.01798 45.50761
#
# Velocity S-wave (km/s) = 3.93778 4.44732 4.20028
# Velocity P-wave (km/s) = 5.98331 6.99589 6.50932
#
# Compressibility (1/GPa) = 0.02563126
#
# Stress axis : x y z
#
# Youngs Moduli (GPa) = 59.33148 79.34824 184.95100
#
# Poissons Ratio (x) = -0.03917 0.59235
# Poissons Ratio (y) = -0.02929 0.35274
# Poissons Ratio (z) = 0.19002 0.15133
#
# Static dielectric constant tensor:
#      x y z
#    x 2.589240 0.000000 0.000000 
#    y 0.000000 2.011220 0.000000 
#    z 0.000000 0.000000 1.911000 
# 
# From -- ./inp_files/56670.got.cif
#   From: 2010.05.17/outbox.cif.g08.bks.cpg/sg22_29_cif.got.tgz:56670.got - 2010.06.03 23:40:54.
