data_PCOD9327140
_publ_section_title
;
Structure prediction by ZEFSAII (Michael W. Deem and Ramdas Pophale) SiO2 
 PCOD9327140
Probable space group: F 2 2 2
;
_chemical_formula_sum "Si O2"
_cell_formula_units_Z 84
_cell_length_a 20.445788
_cell_length_b 8.863264
_cell_length_c 24.632500
_cell_angle_alpha 90.000000
_cell_angle_beta 90.000000
_cell_angle_gamma 90.000000
_cell_volume 4463.813385
_symmetry_space_group_name_H-M "F 2 2 2"
_symmetry_group_IT_number 22
_symmetry_cell_setting 'orthorhombic'
loop_
_space_group_symop_operation_xyz
x,y,z
-x,-y,z
x,-y,-z
-x,y,-z
x,1/2+y,1/2+z
-x,1/2-y,1/2+z
x,1/2-y,1/2-z
-x,1/2+y,1/2-z
1/2+x,y,1/2+z
1/2-x,-y,1/2+z
1/2+x,-y,1/2-z
1/2-x,y,1/2-z
1/2+x,1/2+y,z
1/2-x,1/2-y,z
1/2+x,1/2-y,-z
1/2-x,1/2+y,-z
loop_
_atom_site_type_symbol
_atom_site_label
_atom_site_fract_x
_atom_site_fract_y
_atom_site_fract_z
Si Si1 0.063880 0.696007 0.080413
Si Si2 0.052379 0.136095 0.702769
Si Si3 0.822586 0.679504 0.507019
Si Si4 0.250000 0.750000 0.750000
Si Si5 0.585178 0.837834 0.079312
Si Si6 0.628231 0.637311 0.297075
O O1 0.062430 0.714570 0.145321
O O2 0.079893 0.518520 0.069444
O O3 0.987642 0.723559 0.064570
O O4 0.122280 0.788360 0.053146
O O5 0.037168 0.250000 0.750000
O O6 0.114562 0.035380 0.716581
O O7 0.000000 0.000000 0.696240
O O8 0.815596 0.500000 0.500000
O O9 0.750000 0.750000 0.516505
O O10 0.857980 0.759570 0.455331
O O11 0.295081 0.657092 0.709572
O O12 0.601064 0.821557 0.143538
O O13 0.602394 0.750000 0.250000
#
# Coordination Sequence:
#
# PCOD9327140 Si02
#       6
#    16  16  16   4  16  16
#     4  10  21  42  63  96 126 170 207 267 319 379
#     4  11  21  38  64  99 131 162 210 254 320 377
#     4  12  27  44  63  93 125 170 219 270 322 385
#     4   8  20  36  62  88 128 172 208 256 318 372
#     4  10  20  39  68  90 127 170 212 260 324 378
#     4   9  19  37  60  97 127 169 212 251 318 381
#
# _framework density 18.817990999999999
#
# number of rings (size 3 to 8) (size 9 to 14) (size 15 to 20)
#    0.571    1.143    3.810    2.857    1.333    4.571 
#    0.000    0.476    0.000    0.000    0.000    0.000 
#    0.000    0.000    0.000    0.000    0.000    0.000 
#
# Total GULP energy -116904.284247 kJ/mol
# GULP energy per Si atom -5566.870678 kJ/mol
# Density = 1.877516 g / cm^3
# Si number density = 18.817991 Si / 1000 Ang^3
#
#
#
# Elastic Constant Matrix: (Units=GPa)
#
#
# Indices 1 2 3 4 5 6 
#
# 1 161.5780 50.5903 39.0992 0.0000 0.0000 0.0000
# 2 50.5903 55.2825 33.8847 0.0000 0.0000 0.0000
# 3 39.0992 33.8847 121.3162 0.0000 0.0000 0.0000
# 4 0.0000 0.0000 0.0000 32.8692 0.0000 0.0000
# 5 0.0000 0.0000 0.0000 0.0000 72.6554 0.0000
# 6 0.0000 0.0000 0.0000 0.0000 0.0000 35.0841
#
#
#
# Elastic Compliance Matrix: (Units=1/GPa)
#
#
# Indices 1 2 3 4 5 6 
#
# 1 0.008724 -0.007553 -0.000702 0.000000 0.000000 0.000000
# 2 -0.007553 0.028365 -0.005488 0.000000 0.000000 0.000000
# 3 -0.000702 -0.005488 0.010002 0.000000 0.000000 0.000000
# 4 0.000000 0.000000 0.000000 0.030424 0.000000 0.000000
# 5 0.000000 0.000000 0.000000 0.000000 0.013764 0.000000
# 6 0.000000 0.000000 0.000000 0.000000 0.000000 0.028503
#
#
# Mechanical properties :
#
#
# Convention : Reuss Voigt Hill
#
# Bulk Modulus (GPa) = 51.00967 65.03610 58.02288
# Shear Modulus (GPa) = 32.50935 42.42857 37.46896
#
# Velocity S-wave (km/s) = 4.16091 4.75350 4.46704
# Velocity P-wave (km/s) = 7.08872 8.04757 7.58331
#
# Compressibility (1/GPa) = 0.01960413
#
# Stress axis : x y z
#
# Youngs Moduli (GPa) = 114.63062 35.25494 99.97912
#
# Poissons Ratio (x) = 0.26628 0.07018
# Poissons Ratio (y) = 0.86580 0.54871
# Poissons Ratio (z) = 0.08046 0.19349
#
# Static dielectric constant tensor:
#      x y z
#    x 1.745220 0.000000 0.000000 
#    y 0.000000 1.377110 0.000000 
#    z 0.000000 0.000000 1.684510 
# 
# From -- ./inp_files/49753.got.cif
#   From: 2010.05.17/outbox.cif.g08.bks.cpg/sg22_25_cif.got.tgz:49753.got - 2010.06.03 23:40:54.
