data_PCOD9327709
_publ_section_title
;
Structure prediction by ZEFSAII (Michael W. Deem and Ramdas Pophale) SiO2 
 PCOD9327709
Probable space group: F 2 2 2
;
_chemical_formula_sum "Si O2"
_cell_formula_units_Z 104
_cell_length_a 31.130968
_cell_length_b 8.208216
_cell_length_c 20.099757
_cell_angle_alpha 90.000000
_cell_angle_beta 90.000000
_cell_angle_gamma 90.000000
_cell_volume 5136.085070
_symmetry_space_group_name_H-M "F 2 2 2"
_symmetry_group_IT_number 22
_symmetry_cell_setting 'orthorhombic'
loop_
_space_group_symop_operation_xyz
x,y,z
-x,-y,z
x,-y,-z
-x,y,-z
x,1/2+y,1/2+z
-x,1/2-y,1/2+z
x,1/2-y,1/2-z
-x,1/2+y,1/2-z
1/2+x,y,1/2+z
1/2-x,-y,1/2+z
1/2+x,-y,1/2-z
1/2-x,y,1/2-z
1/2+x,1/2+y,z
1/2-x,1/2-y,z
1/2+x,1/2-y,-z
1/2-x,1/2+y,-z
loop_
_atom_site_type_symbol
_atom_site_label
_atom_site_fract_x
_atom_site_fract_y
_atom_site_fract_z
Si Si1 0.230646 0.920161 0.677052
Si Si2 0.855703 0.325281 0.871360
Si Si3 0.564977 0.846441 0.320351
Si Si4 0.250000 0.750000 0.404551
Si Si5 0.413322 0.400963 0.565810
Si Si6 0.029376 0.212282 0.829060
Si Si7 0.835227 0.308360 0.490528
O O1 0.250000 0.940464 0.750000
O O2 0.250000 0.750000 0.649641
O O3 0.179634 0.886924 0.680135
O O4 0.242168 0.083201 0.636755
O O5 0.888545 0.182841 0.852052
O O6 0.886819 0.471699 0.890285
O O7 0.830650 0.276381 0.937937
O O8 0.568302 0.750000 0.250000
O O9 0.520696 0.776248 0.350963
O O10 0.552422 0.035914 0.325220
O O11 0.206948 0.726793 0.447549
O O12 0.429379 0.500000 0.500000
O O13 0.446265 0.320269 0.616819
O O14 0.378393 0.269233 0.540412
O O15 0.029268 0.250000 0.750000
O O16 0.840235 0.500000 0.500000
#
# Coordination Sequence:
#
# PCOD9327709 Si02
#       7
#    16  16  16   8  16  16  16
#     4  11  26  46  67  97 137 177 231 293 352 419
#     4  11  23  43  62  95 136 172 224 281 346 415
#     4  10  22  40  70  99 140 180 226 293 352 419
#     4  12  25  46  70  96 133 182 236 290 354 418
#     4  10  22  42  65  95 137 176 227 283 343 420
#     4  10  21  42  68 105 135 180 236 280 352 431
#     4  11  24  40  66  93 129 179 229 282 344 416
#
# _framework density 20.248887
#
# number of rings (size 3 to 8) (size 9 to 14) (size 15 to 20)
#    0.000    1.385    1.538    3.000    5.385    1.846 
#    2.769    5.385    0.000    8.308    0.000    0.000 
#    0.000    0.000    0.000    0.000    0.000    0.000 
#
# Total GULP energy -144993.934336 kJ/mol
# GULP energy per Si atom -5576.689782 kJ/mol
# Density = 2.020280 g / cm^3
# Si number density = 20.248887 Si / 1000 Ang^3
#
#
#
# Elastic Constant Matrix: (Units=GPa)
#
#
# Indices 1 2 3 4 5 6 
#
# 1 114.9561 34.7990 63.8623 0.0000 0.0000 0.0000
# 2 34.7990 85.7743 14.4371 0.0001 0.0001 0.0000
# 3 63.8623 14.4371 63.7369 0.0000 0.0000 0.0000
# 4 0.0000 0.0001 0.0000 18.0612 0.0000 -0.0001
# 5 0.0000 0.0001 0.0000 0.0000 -6.0323 -0.0001
# 6 0.0000 0.0000 0.0000 -0.0001 -0.0001 -16.6970
#
#
#
# Elastic Compliance Matrix: (Units=1/GPa)
#
#
# Indices 1 2 3 4 5 6 
#
# 1 0.021760 -0.005363 -0.020588 0.000000 0.000000 0.000000
# 2 -0.005363 0.013442 0.002328 0.000000 0.000000 0.000000
# 3 -0.020588 0.002328 0.035790 0.000000 0.000000 0.000000
# 4 0.000000 0.000000 0.000000 0.055367 0.000000 0.000000
# 5 0.000000 0.000000 0.000000 0.000000 -0.165776 0.000001
# 6 0.000000 0.000000 0.000000 0.000000 0.000001 -0.059891
#
#
# Mechanical properties :
#
#
# Convention : Reuss Voigt Hill
#
# Bulk Modulus (GPa) = 42.10840 54.51824 48.31332
# Shear Modulus (GPa) = -113.25750 9.15765 -52.04993
#
# Velocity S-wave (km/s) = -7.48693 2.12893 -5.07552
# Velocity P-wave (km/s) = 7.34154 5.74680 3.23053
#
# Compressibility (1/GPa) = 0.02374823
#
# Stress axis : x y z
#
# Youngs Moduli (GPa) = 45.95686 74.39220 27.94059
#
# Poissons Ratio (x) = 0.39895 0.57523
# Poissons Ratio (y) = 0.24645 -0.06506
# Poissons Ratio (z) = 0.94614 -0.17322
#
# Static dielectric constant tensor:
#      x y z
#    x 1.746560 0.000000 0.000000 
#    y 0.000000 1.712620 0.000000 
#    z 0.000000 0.000000 1.784520 
# 
# From -- ./inp_files/45800.got.cif
#   From: 2010.05.17/outbox.cif.g08.bks.cpg/sg22_23_cif.got.tgz:45800.got - 2010.06.03 23:40:54.
