data_PCOD9327774
_publ_section_title
;
Structure prediction by ZEFSAII (Michael W. Deem and Ramdas Pophale) SiO2 
 PCOD9327774
Probable space group: F 2 2 2
;
_chemical_formula_sum "Si O2"
_cell_formula_units_Z 88
_cell_length_a 20.020096
_cell_length_b 23.183091
_cell_length_c 8.145395
_cell_angle_alpha 90.000000
_cell_angle_beta 90.000000
_cell_angle_gamma 90.000000
_cell_volume 3780.503507
_symmetry_space_group_name_H-M "F 2 2 2"
_symmetry_group_IT_number 22
_symmetry_cell_setting 'orthorhombic'
loop_
_space_group_symop_operation_xyz
x,y,z
-x,-y,z
x,-y,-z
-x,y,-z
x,1/2+y,1/2+z
-x,1/2-y,1/2+z
x,1/2-y,1/2-z
-x,1/2+y,1/2-z
1/2+x,y,1/2+z
1/2-x,-y,1/2+z
1/2+x,-y,1/2-z
1/2-x,y,1/2-z
1/2+x,1/2+y,z
1/2-x,1/2-y,z
1/2+x,1/2-y,-z
1/2-x,1/2+y,-z
loop_
_atom_site_type_symbol
_atom_site_label
_atom_site_fract_x
_atom_site_fract_y
_atom_site_fract_z
Si Si1 0.064408 0.178229 0.429970
Si Si2 0.638979 0.913304 0.896619
Si Si3 0.168785 0.471066 0.246310
Si Si4 0.250000 0.831697 0.250000
Si Si5 0.868647 0.722996 0.578792
Si Si6 0.068685 0.886525 0.917753
O O1 0.076888 0.127360 0.563066
O O2 0.121991 0.226478 0.445274
O O3 0.057846 0.147842 0.254909
O O4 0.000000 0.210665 0.500000
O O5 0.698180 0.871813 0.843769
O O6 0.635982 0.965508 0.768631
O O7 0.655844 0.940724 0.072216
O O8 0.250000 0.476327 0.250000
O O9 0.127865 0.432845 0.378383
O O10 0.206259 0.796259 0.120592
O O11 0.893807 0.750000 0.750000
O O12 0.905429 0.664233 0.534959
O O13 0.000000 0.909560 0.000000
#
# Coordination Sequence:
#
# PCOD9327774 Si02
#       6
#    16  16  16   8  16  16
#     4  11  24  45  72 100 145 194 245 305 380 463
#     4  10  22  40  72 102 140 196 240 314 372 453
#     4  10  21  44  70 105 147 194 254 311 383 441
#     4  12  23  42  72 106 146 180 257 298 386 462
#     4  12  24  41  71 103 143 189 242 311 376 456
#     4  11  25  45  72 108 148 196 256 307 383 458
#
# _framework density 23.277322000000002
#
# number of rings (size 3 to 8) (size 9 to 14) (size 15 to 20)
#    0.000    1.091    2.727    3.545    0.000    0.000 
#    0.000    7.273    8.000    0.000    0.000    0.000 
#    0.000    0.000    0.000    0.000    0.000    0.000 
#
# Total GULP energy -122891.186987 kJ/mol
# GULP energy per Si atom -5585.963045 kJ/mol
# Density = 2.322434 g / cm^3
# Si number density = 23.277322 Si / 1000 Ang^3
#
#
#
# Elastic Constant Matrix: (Units=GPa)
#
#
# Indices 1 2 3 4 5 6 
#
# 1 91.9753 51.7212 41.2432 0.0009 -0.0003 -0.0003
# 2 51.7212 123.3730 44.7575 0.0008 -0.0003 -0.0002
# 3 41.2432 44.7575 104.1168 0.0015 -0.0007 -0.0007
# 4 0.0009 0.0008 0.0015 50.8008 -0.0005 -0.0005
# 5 -0.0003 -0.0003 -0.0007 -0.0005 34.7833 0.0003
# 6 -0.0003 -0.0002 -0.0007 -0.0005 0.0003 28.5765
#
#
#
# Elastic Compliance Matrix: (Units=1/GPa)
#
#
# Indices 1 2 3 4 5 6 
#
# 1 0.015494 -0.005058 -0.003963 0.000000 0.000000 0.000000
# 2 -0.005058 0.011254 -0.002834 0.000000 0.000000 0.000000
# 3 -0.003963 -0.002834 0.012393 0.000000 0.000000 0.000000
# 4 0.000000 0.000000 0.000000 0.019685 0.000000 0.000000
# 5 0.000000 0.000000 0.000000 0.000000 0.028749 0.000000
# 6 0.000000 0.000000 0.000000 0.000000 0.000000 0.034994
#
#
# Mechanical properties :
#
#
# Convention : Reuss Voigt Hill
#
# Bulk Modulus (GPa) = 64.80804 66.10098 65.45451
# Shear Modulus (GPa) = 33.02012 34.94834 33.98423
#
# Velocity S-wave (km/s) = 3.77045 3.87898 3.82510
# Velocity P-wave (km/s) = 6.84524 6.96569 6.90572
#
# Compressibility (1/GPa) = 0.01543018
#
# Stress axis : x y z
#
# Youngs Moduli (GPa) = 64.54208 88.85691 80.69054
#
# Poissons Ratio (x) = 0.44940 0.31980
# Poissons Ratio (y) = 0.32643 0.22871
# Poissons Ratio (z) = 0.25580 0.25186
#
# Static dielectric constant tensor:
#      x y z
#    x 1.661350 0.000000 0.000000 
#    y 0.000000 1.912460 0.000000 
#    z 0.000000 0.000000 1.897620 
# 
# From -- ./inp_files/12671.got.cif
#   From: 2010.05.17/outbox.cif.g08.bks.cpg/sg22_7_cif.got.tgz:12671.got - 2010.06.03 23:40:54.
