data_PCOD9327325
_publ_section_title
;
Structure prediction by ZEFSAII (Michael W. Deem and Ramdas Pophale) SiO2 
 PCOD9327325
Probable space group: F 2 2 2
;
_chemical_formula_sum "Si O2"
_cell_formula_units_Z 100
_cell_length_a 19.728724
_cell_length_b 29.494029
_cell_length_c 9.233833
_cell_angle_alpha 90.000000
_cell_angle_beta 90.000000
_cell_angle_gamma 90.000000
_cell_volume 5372.978663
_symmetry_space_group_name_H-M "F 2 2 2"
_symmetry_group_IT_number 22
_symmetry_cell_setting 'orthorhombic'
loop_
_space_group_symop_operation_xyz
x,y,z
-x,-y,z
x,-y,-z
-x,y,-z
x,1/2+y,1/2+z
-x,1/2-y,1/2+z
x,1/2-y,1/2-z
-x,1/2+y,1/2-z
1/2+x,y,1/2+z
1/2-x,-y,1/2+z
1/2+x,-y,1/2-z
1/2-x,y,1/2-z
1/2+x,1/2+y,z
1/2-x,1/2-y,z
1/2+x,1/2-y,-z
1/2-x,1/2+y,-z
loop_
_atom_site_type_symbol
_atom_site_label
_atom_site_fract_x
_atom_site_fract_y
_atom_site_fract_z
Si Si1 0.824090 0.373634 0.314517
Si Si2 0.451108 0.923029 0.289970
Si Si3 0.500000 0.000000 0.500000
Si Si4 0.623246 0.318683 0.433410
Si Si5 0.766937 0.334952 0.589947
Si Si6 0.609268 0.228975 0.593146
Si Si7 0.500000 0.655978 0.000000
Si Si8 0.500000 0.887201 0.000000
O O1 0.750000 0.378718 0.250000
O O2 0.871398 0.414990 0.268542
O O3 0.858451 0.330202 0.233472
O O4 0.811234 0.367046 0.484623
O O5 0.473130 0.878033 0.377923
O O6 0.461589 0.966204 0.390901
O O7 0.492771 0.918987 0.141315
O O8 0.694480 0.325869 0.516381
O O9 0.601390 0.267967 0.472474
O O10 0.565737 0.353893 0.489384
O O11 0.750000 0.352185 0.750000
O O12 0.814206 0.290426 0.599466
O O13 0.593676 0.250000 0.750000
O O14 0.558494 0.188086 0.561227
#
# Coordination Sequence:
#
# PCOD9327325 Si02
#       8
#    16  16   4  16  16  16   8   8
#     4   9  20  39  60  82 115 158 197 250 296 357
#     4  10  21  42  62  92 116 148 192 239 311 368
#     4  10  24  38  70  92 116 146 174 238 300 384
#     4  10  21  35  55  82 116 160 206 244 296 335
#     4  11  21  35  54  77 111 164 204 256 292 338
#     4  12  22  34  52  82 118 162 213 258 292 344
#     4  11  23  37  58  78 118 160 202 255 297 355
#     4  10  21  39  63  86 120 150 191 249 289 372
#
# _framework density 18.611650000000001
#
# number of rings (size 3 to 8) (size 9 to 14) (size 15 to 20)
#    0.000    1.600    3.200    1.920    0.000    2.240 
#    0.000    2.400    0.000    6.720    0.000    0.000 
#    0.000    0.000    0.000    0.000    0.000    0.000 
#
# Total GULP energy -139415.947918 kJ/mol
# GULP energy per Si atom -5576.637917 kJ/mol
# Density = 1.856929 g / cm^3
# Si number density = 18.611650 Si / 1000 Ang^3
#
#
#
# Elastic Constant Matrix: (Units=GPa)
#
#
# Indices 1 2 3 4 5 6 
#
# 1 93.6280 40.8062 29.8652 0.0000 0.0000 0.0000
# 2 40.8062 82.2781 36.9184 0.0000 0.0000 0.0000
# 3 29.8652 36.9184 125.0634 0.0000 0.0000 0.0000
# 4 0.0000 0.0000 0.0000 26.4594 0.0000 0.0000
# 5 0.0000 0.0000 0.0000 0.0000 27.2304 0.0000
# 6 0.0000 0.0000 0.0000 0.0000 0.0000 4.7238
#
#
#
# Elastic Compliance Matrix: (Units=1/GPa)
#
#
# Indices 1 2 3 4 5 6 
#
# 1 0.013858 -0.006211 -0.001476 0.000000 0.000000 0.000000
# 2 -0.006211 0.016793 -0.003474 0.000000 0.000000 0.000000
# 3 -0.001476 -0.003474 0.009374 0.000000 0.000000 0.000000
# 4 0.000000 0.000000 0.000000 0.037794 0.000000 0.000000
# 5 0.000000 0.000000 0.000000 0.000000 0.036724 0.000000
# 6 0.000000 0.000000 0.000000 0.000000 0.000000 0.211692
#
#
# Mechanical properties :
#
#
# Convention : Reuss Voigt Hill
#
# Bulk Modulus (GPa) = 56.48601 57.34990 56.91796
# Shear Modulus (GPa) = 14.10606 24.57471 19.34038
#
# Velocity S-wave (km/s) = 2.75601 3.63766 3.22709
# Velocity P-wave (km/s) = 6.36735 6.96594 6.67336
#
# Compressibility (1/GPa) = 0.01770350
#
# Stress axis : x y z
#
# Youngs Moduli (GPa) = 72.15923 59.54848 106.67858
#
# Poissons Ratio (x) = 0.36984 0.15745
# Poissons Ratio (y) = 0.44817 0.37061
# Poissons Ratio (z) = 0.10650 0.20688
#
# Static dielectric constant tensor:
#      x y z
#    x 1.669910 0.000000 0.000000 
#    y 0.000000 1.630610 0.000000 
#    z 0.000000 0.000000 1.688900 
# 
# From -- ./inp_files/13000.got.cif
#   From: 2010.05.17/outbox.cif.g08.bks.cpg/sg22_7_cif.got.tgz:13000.got - 2010.06.03 23:40:54.
