data_PCOD9327028
_publ_section_title
;
Structure prediction by ZEFSAII (Michael W. Deem and Ramdas Pophale) SiO2 
 PCOD9327028
Probable space group: F 2 2 2
;
_chemical_formula_sum "Si O2"
_cell_formula_units_Z 96
_cell_length_a 23.205800
_cell_length_b 22.448265
_cell_length_c 8.720002
_cell_angle_alpha 90.000000
_cell_angle_beta 90.000000
_cell_angle_gamma 90.000000
_cell_volume 4542.510188
_symmetry_space_group_name_H-M "F 2 2 2"
_symmetry_group_IT_number 22
_symmetry_cell_setting 'orthorhombic'
loop_
_space_group_symop_operation_xyz
x,y,z
-x,-y,z
x,-y,-z
-x,y,-z
x,1/2+y,1/2+z
-x,1/2-y,1/2+z
x,1/2-y,1/2-z
-x,1/2+y,1/2-z
1/2+x,y,1/2+z
1/2-x,-y,1/2+z
1/2+x,-y,1/2-z
1/2-x,y,1/2-z
1/2+x,1/2+y,z
1/2-x,1/2-y,z
1/2+x,1/2-y,-z
1/2-x,1/2+y,-z
loop_
_atom_site_type_symbol
_atom_site_label
_atom_site_fract_x
_atom_site_fract_y
_atom_site_fract_z
Si Si1 0.807362 0.288123 0.561607
Si Si2 0.877058 0.314152 0.104716
Si Si3 0.696256 0.892663 0.667181
Si Si4 0.912319 0.065770 0.006238
Si Si5 0.979977 0.677393 0.659389
Si Si6 0.103775 0.352824 0.225486
O O1 0.750000 0.250000 0.588640
O O2 0.850778 0.248075 0.457621
O O3 0.788435 0.347567 0.470878
O O4 0.845464 0.311908 0.703168
O O5 0.831069 0.348108 0.208262
O O6 0.933388 0.306671 0.210160
O O7 0.887996 0.354714 0.955308
O O8 0.750000 0.922621 0.750000
O O9 0.646775 0.935034 0.603079
O O10 0.951386 0.116075 0.090038
O O11 0.898056 0.089460 0.835387
O O12 0.936885 0.000000 0.000000
O O13 0.000000 0.709987 0.500000
O O14 0.040409 0.673275 0.746032
#
# Coordination Sequence:
#
# PCOD9327028 Si02
#       6
#    16  16  16  16  16  16
#     4  11  22  39  62  91 129 174 216 253 324 400
#     4  11  21  36  60  88 126 165 205 264 317 376
#     4  10  20  38  59  88 120 161 212 256 309 392
#     4   9  20  41  66  87 117 164 212 262 333 394
#     4   9  20  40  60  83 121 162 211 259 318 388
#     4  10  22  38  58  93 125 159 208 270 316 381
#
# _framework density 21.133690999999999
#
# number of rings (size 3 to 8) (size 9 to 14) (size 15 to 20)
#    0.000    2.000    1.667    2.500    0.000    4.333 
#    0.000   26.667    0.000    8.000    0.000    0.000 
#    0.000    0.000    0.000    0.000    0.000    0.000 
#
# Total GULP energy -133904.424353 kJ/mol
# GULP energy per Si atom -5579.351015 kJ/mol
# Density = 2.108559 g / cm^3
# Si number density = 21.133691 Si / 1000 Ang^3
#
#
#
# Elastic Constant Matrix: (Units=GPa)
#
#
# Indices 1 2 3 4 5 6 
#
# 1 147.2306 12.1833 42.6272 -0.0004 0.0002 0.0001
# 2 12.1833 77.8360 36.0359 -0.0005 0.0003 0.0001
# 3 42.6272 36.0359 120.8228 -0.0014 0.0009 0.0002
# 4 -0.0004 -0.0005 -0.0014 19.0227 0.0007 0.0002
# 5 0.0002 0.0003 0.0009 0.0007 41.3629 -0.0001
# 6 0.0001 0.0001 0.0002 0.0002 -0.0001 -1.7615
#
#
#
# Elastic Compliance Matrix: (Units=1/GPa)
#
#
# Indices 1 2 3 4 5 6 
#
# 1 0.007565 0.000060 -0.002687 0.000000 0.000000 0.000000
# 2 0.000060 0.014906 -0.004467 0.000000 0.000000 0.000000
# 3 -0.002687 -0.004467 0.010557 0.000001 0.000000 0.000001
# 4 0.000000 0.000000 0.000001 0.052569 -0.000001 0.000006
# 5 0.000000 0.000000 0.000000 -0.000001 0.024176 -0.000002
# 6 0.000000 0.000000 0.000001 0.000006 -0.000002 -0.567705
#
#
# Mechanical properties :
#
#
# Convention : Reuss Voigt Hill
#
# Bulk Modulus (GPa) = 53.07822 58.62026 55.84924
# Shear Modulus (GPa) = -11.42950 28.72769 8.64909
#
# Velocity S-wave (km/s) = -2.32807 3.69091 2.02520
# Velocity P-wave (km/s) = 4.23597 6.77951 5.65266
#
# Compressibility (1/GPa) = 0.01884012
#
# Stress axis : x y z
#
# Youngs Moduli (GPa) = 132.18717 67.08597 94.72561
#
# Poissons Ratio (x) = -0.00401 0.25451
# Poissons Ratio (y) = -0.00791 0.42313
# Poissons Ratio (z) = 0.35517 0.29967
#
# Static dielectric constant tensor:
#      x y z
#    x 1.781700 0.000000 0.000000 
#    y 0.000000 1.805650 0.000000 
#    z 0.000000 0.000000 1.834250 
# 
# From -- ./inp_files/13883.got.cif
#   From: 2010.05.17/outbox.cif.g08.bks.cpg/sg22_7_cif.got.tgz:13883.got - 2010.06.03 23:40:54.
