data_PCOD9327173
_publ_section_title
;
Structure prediction by ZEFSAII (Michael W. Deem and Ramdas Pophale) SiO2 
 PCOD9327173
Probable space group: F 2 2 2
;
_chemical_formula_sum "Si O2"
_cell_formula_units_Z 120
_cell_length_a 22.392217
_cell_length_b 21.618702
_cell_length_c 12.073644
_cell_angle_alpha 90.000000
_cell_angle_beta 90.000000
_cell_angle_gamma 90.000000
_cell_volume 5844.738370
_symmetry_space_group_name_H-M "F 2 2 2"
_symmetry_group_IT_number 22
_symmetry_cell_setting 'orthorhombic'
loop_
_space_group_symop_operation_xyz
x,y,z
-x,-y,z
x,-y,-z
-x,y,-z
x,1/2+y,1/2+z
-x,1/2-y,1/2+z
x,1/2-y,1/2-z
-x,1/2+y,1/2-z
1/2+x,y,1/2+z
1/2-x,-y,1/2+z
1/2+x,-y,1/2-z
1/2-x,y,1/2-z
1/2+x,1/2+y,z
1/2-x,1/2-y,z
1/2+x,1/2-y,-z
1/2-x,1/2+y,-z
loop_
_atom_site_type_symbol
_atom_site_label
_atom_site_fract_x
_atom_site_fract_y
_atom_site_fract_z
Si Si1 0.807366 0.292827 0.567861
Si Si2 0.682572 0.089807 0.725033
Si Si3 0.874891 0.175519 0.584239
Si Si4 0.500000 0.648694 0.500000
Si Si5 0.308834 0.118133 0.623058
Si Si6 0.825718 0.601166 0.880008
Si Si7 0.053012 0.546794 0.153780
Si Si8 0.097728 0.015520 0.883884
O O1 0.750000 0.250000 0.579556
O O2 0.804653 0.354222 0.640527
O O3 0.856988 0.245542 0.608894
O O4 0.812955 0.317990 0.443133
O O5 0.750000 0.064245 0.750000
O O6 0.648799 0.124339 0.827632
O O7 0.637884 0.039031 0.672542
O O8 0.844316 0.152408 0.469496
O O9 0.945104 0.178857 0.562714
O O10 0.531103 0.608746 0.596475
O O11 0.243922 0.087454 0.600737
O O12 0.323052 0.125279 0.753382
O O13 0.357071 0.069700 0.582010
O O14 0.876307 0.546704 0.883435
O O15 0.056678 0.541625 0.285804
O O16 0.000000 0.500000 0.119879
O O17 0.067533 0.000000 0.000000
#
# Coordination Sequence:
#
# PCOD9327173 Si02
#       8
#    16  16  16   8  16  16  16  16
#     4  12  22  40  66  98 136 175 222 279 342 425
#     4  12  24  38  64 100 138 179 219 282 348 418
#     4  11  23  41  67  93 127 176 222 280 336 400
#     4  10  23  46  66  96 128 163 238 284 332 392
#     4  10  20  40  62  97 135 168 211 271 341 414
#     4   9  20  37  61  95 130 161 214 272 331 395
#     4  10  21  39  65  91 125 171 217 274 324 394
#     4  11  24  41  63  95 135 178 220 275 348 417
#
# _framework density 20.531286999999999
#
# number of rings (size 3 to 8) (size 9 to 14) (size 15 to 20)
#    0.000    1.333    4.000    1.400    3.733    1.867 
#    0.000    2.000   23.467    0.000    0.000    0.000 
#    0.000    0.000    0.000    0.000    0.000    0.000 
#
# Total GULP energy -167146.141309 kJ/mol
# GULP energy per Si atom -5571.538044 kJ/mol
# Density = 2.048456 g / cm^3
# Si number density = 20.531287 Si / 1000 Ang^3
#
#
#
# Elastic Constant Matrix: (Units=GPa)
#
#
# Indices 1 2 3 4 5 6 
#
# 1 96.1069 18.6048 32.7829 0.0000 0.0000 0.0000
# 2 18.6048 52.8226 16.8525 0.0000 0.0000 0.0000
# 3 32.7829 16.8525 98.3147 0.0000 0.0000 0.0000
# 4 0.0000 0.0000 0.0000 27.2138 0.0000 0.0000
# 5 0.0000 0.0000 0.0000 0.0000 -18.8353 0.0000
# 6 0.0000 0.0000 0.0000 0.0000 0.0000 -25.8687
#
#
#
# Elastic Compliance Matrix: (Units=1/GPa)
#
#
# Indices 1 2 3 4 5 6 
#
# 1 0.012225 -0.003179 -0.003532 0.000000 0.000000 0.000000
# 2 -0.003179 0.020853 -0.002514 0.000000 0.000000 0.000000
# 3 -0.003532 -0.002514 0.011780 0.000000 0.000000 0.000000
# 4 0.000000 0.000000 0.000000 0.036746 0.000000 0.000000
# 5 0.000000 0.000000 0.000000 0.000000 -0.053092 0.000000
# 6 0.000000 0.000000 0.000000 0.000000 0.000000 -0.038657
#
#
# Mechanical properties :
#
#
# Convention : Reuss Voigt Hill
#
# Bulk Modulus (GPa) = 37.86711 42.63609 40.25160
# Shear Modulus (GPa) = 292.25047 8.43558 150.34302
#
# Velocity S-wave (km/s) = 11.94374 2.02918 8.56652
# Velocity P-wave (km/s) = 14.44602 5.12851 10.83949
#
# Compressibility (1/GPa) = 0.02640814
#
# Stress axis : x y z
#
# Youngs Moduli (GPa) = 81.79864 47.95419 84.88957
#
# Poissons Ratio (x) = 0.15245 0.29979
# Poissons Ratio (y) = 0.26005 0.21345
# Poissons Ratio (z) = 0.28887 0.12058
#
# Static dielectric constant tensor:
#      x y z
#    x 1.895040 0.000000 0.000000 
#    y 0.000000 1.809150 0.000000 
#    z 0.000000 0.000000 1.771430 
# 
# From -- ./inp_files/23020.got.cif
#   From: 2010.05.17/outbox.cif.g08.bks.cpg/sg22_12_cif.got.tgz:23020.got - 2010.06.03 23:40:54.
