data_PCOD9327129
_publ_section_title
;
Structure prediction by ZEFSAII (Michael W. Deem and Ramdas Pophale) SiO2 
 PCOD9327129
Probable space group: F 2 2 2
;
_chemical_formula_sum "Si O2"
_cell_formula_units_Z 68
_cell_length_a 15.901916
_cell_length_b 17.990504
_cell_length_c 9.886636
_cell_angle_alpha 90.000000
_cell_angle_beta 90.000000
_cell_angle_gamma 90.000000
_cell_volume 2828.403266
_symmetry_space_group_name_H-M "F 2 2 2"
_symmetry_group_IT_number 22
_symmetry_cell_setting 'orthorhombic'
loop_
_space_group_symop_operation_xyz
x,y,z
-x,-y,z
x,-y,-z
-x,y,-z
x,1/2+y,1/2+z
-x,1/2-y,1/2+z
x,1/2-y,1/2-z
-x,1/2+y,1/2-z
1/2+x,y,1/2+z
1/2-x,-y,1/2+z
1/2+x,-y,1/2-z
1/2-x,y,1/2-z
1/2+x,1/2+y,z
1/2-x,1/2-y,z
1/2+x,1/2-y,-z
1/2-x,1/2+y,-z
loop_
_atom_site_type_symbol
_atom_site_label
_atom_site_fract_x
_atom_site_fract_y
_atom_site_fract_z
Si Si1 0.000000 0.000000 0.500000
Si Si2 0.095838 0.383756 0.199398
Si Si3 0.600040 0.786507 0.968537
Si Si4 0.419109 0.857001 0.313353
Si Si5 0.314921 0.506780 0.146156
O O1 0.054864 0.945997 0.597018
O O2 0.157405 0.428139 0.295556
O O3 0.019273 0.351162 0.289006
O O4 0.137715 0.321946 0.103370
O O5 0.616281 0.836366 0.835473
O O6 0.615364 0.702996 0.919428
O O7 0.500000 0.791004 0.000000
O O8 0.394636 0.938878 0.358717
O O9 0.250000 0.541591 0.250000
O O10 0.275375 0.500000 0.000000
#
# Coordination Sequence:
#
# PCOD9327129 Si02
#       5
#     4  16  16  16  16
#     4  12  16  36  70 100 128 180 214 280 332 420
#     4  11  20  39  70 100 137 177 227 282 345 414
#     4   9  19  35  67 101 133 169 210 276 341 412
#     4  10  20  39  66 103 130 168 223 277 341 404
#     4  12  29  44  66  94 137 185 236 288 337 409
#
# _framework density 24.041833
#
# number of rings (size 3 to 8) (size 9 to 14) (size 15 to 20)
#    0.000    1.412    5.882    0.000    8.235    0.941 
#    0.000    2.353    0.000    1.412    0.000    0.000 
#    0.000    0.000    0.000    0.000    0.000    0.000 
#
# Total GULP energy -95089.521475 kJ/mol
# GULP energy per Si atom -5593.501263 kJ/mol
# Density = 2.398711 g / cm^3
# Si number density = 24.041833 Si / 1000 Ang^3
#
#
#
# Elastic Constant Matrix: (Units=GPa)
#
#
# Indices 1 2 3 4 5 6 
#
# 1 21.0784 11.2729 22.2927 0.0000 0.0000 0.0000
# 2 11.2729 101.2587 55.4558 0.0000 0.0000 0.0000
# 3 22.2927 55.4558 133.9006 0.0000 0.0000 0.0000
# 4 0.0000 0.0000 0.0000 55.9542 0.0000 0.0000
# 5 0.0000 0.0000 0.0000 0.0000 15.9596 0.0000
# 6 0.0000 0.0000 0.0000 0.0000 0.0000 -4.2667
#
#
#
# Elastic Compliance Matrix: (Units=1/GPa)
#
#
# Indices 1 2 3 4 5 6 
#
# 1 0.057758 -0.001505 -0.008993 0.000000 0.000000 0.000000
# 2 -0.001505 0.012812 -0.005056 0.000000 0.000000 0.000000
# 3 -0.008993 -0.005056 0.011059 0.000000 0.000000 0.000000
# 4 0.000000 0.000000 0.000000 0.017872 0.000000 0.000000
# 5 0.000000 0.000000 0.000000 0.000000 0.062658 0.000000
# 6 0.000000 0.000000 0.000000 0.000000 0.000000 -0.234374
#
#
# Mechanical properties :
#
#
# Convention : Reuss Voigt Hill
#
# Bulk Modulus (GPa) = 19.79325 48.25336 34.02330
# Shear Modulus (GPa) = -206.03536 24.67718 -90.67909
#
# Velocity S-wave (km/s) = -9.26740 3.20726 -6.14810
# Velocity P-wave (km/s) = 10.30836 5.81632 6.01800
#
# Compressibility (1/GPa) = 0.05052228
#
# Stress axis : x y z
#
# Youngs Moduli (GPa) = 17.31375 78.05165 90.42262
#
# Poissons Ratio (x) = 0.11748 0.81313
# Poissons Ratio (y) = 0.02606 0.45714
# Poissons Ratio (z) = 0.15569 0.39460
#
# Static dielectric constant tensor:
#      x y z
#    x 1.899280 0.000000 0.000000 
#    y 0.000000 1.927040 0.000000 
#    z 0.000000 0.000000 1.948410 
# 
# From -- ./inp_files/11265.got.cif
#   From: 2010.05.17/outbox.cif.g08.bks.cpg/sg22_6_cif.got.tgz:11265.got - 2010.06.03 23:40:54.
