data_PCOD9327057
_publ_section_title
;
Structure prediction by ZEFSAII (Michael W. Deem and Ramdas Pophale) SiO2 
 PCOD9327057
Probable space group: F 2 2 2
;
_chemical_formula_sum "Si O2"
_cell_formula_units_Z 104
_cell_length_a 20.020659
_cell_length_b 16.136865
_cell_length_c 15.444084
_cell_angle_alpha 90.000000
_cell_angle_beta 90.000000
_cell_angle_gamma 90.000000
_cell_volume 4989.530588
_symmetry_space_group_name_H-M "F 2 2 2"
_symmetry_group_IT_number 22
_symmetry_cell_setting 'orthorhombic'
loop_
_space_group_symop_operation_xyz
x,y,z
-x,-y,z
x,-y,-z
-x,y,-z
x,1/2+y,1/2+z
-x,1/2-y,1/2+z
x,1/2-y,1/2-z
-x,1/2+y,1/2-z
1/2+x,y,1/2+z
1/2-x,-y,1/2+z
1/2+x,-y,1/2-z
1/2-x,y,1/2-z
1/2+x,1/2+y,z
1/2-x,1/2-y,z
1/2+x,1/2-y,-z
1/2-x,1/2+y,-z
loop_
_atom_site_type_symbol
_atom_site_label
_atom_site_fract_x
_atom_site_fract_y
_atom_site_fract_z
Si Si1 0.553778 0.168693 0.592144
Si Si2 0.652069 0.434188 0.826328
Si Si3 0.136372 0.116890 0.538625
Si Si4 0.805714 0.543617 0.129167
Si Si5 0.083554 0.407074 0.597981
Si Si6 0.000000 0.829235 0.500000
Si Si7 0.671939 0.233165 0.345234
O O1 0.617401 0.153276 0.652074
O O2 0.486551 0.128897 0.633685
O O3 0.572405 0.117893 0.503028
O O4 0.535011 0.262809 0.565636
O O5 0.725738 0.445565 0.866925
O O6 0.663425 0.445445 0.724228
O O7 0.601402 0.501731 0.868814
O O8 0.164399 0.105679 0.442247
O O9 0.147205 0.205499 0.581240
O O10 0.056671 0.111802 0.538101
O O11 0.173239 0.047357 0.595308
O O12 0.148370 0.356953 0.628812
O O13 0.643037 0.250000 0.250000
O O14 0.750000 0.250000 0.340557
#
# Coordination Sequence:
#
# PCOD9327057 Si02
#       7
#    16  16  16  16  16   8  16
#     4  10  21  39  64  98 122 173 210 266 329 367
#     4  11  22  43  61 101 131 156 230 262 319 389
#     4  11  22  45  63  91 130 175 212 254 341 379
#     4  10  26  40  66  94 129 175 207 273 314 390
#     4  10  20  38  63  95 130 165 208 275 322 377
#     4  10  22  45  67  92 132 162 228 260 306 418
#     4  11  22  36  64  99 129 164 214 268 318 383
#
# _framework density 20.843644000000001
#
# number of rings (size 3 to 8) (size 9 to 14) (size 15 to 20)
#    0.000    1.692    3.077    2.769    6.462    6.154 
#    8.308    0.769    0.000    1.846    0.000    0.000 
#    0.000    0.000    0.000    0.000    0.000    0.000 
#
# Total GULP energy -144987.271343 kJ/mol
# GULP energy per Si atom -5576.433513 kJ/mol
# Density = 2.079620 g / cm^3
# Si number density = 20.843644 Si / 1000 Ang^3
#
#
#
# Elastic Constant Matrix: (Units=GPa)
#
#
# Indices 1 2 3 4 5 6 
#
# 1 111.9906 15.7404 27.0727 0.0000 0.0000 0.0000
# 2 15.7404 47.7705 14.8073 0.0000 0.0000 0.0000
# 3 27.0727 14.8073 66.6978 0.0000 0.0000 0.0000
# 4 0.0000 0.0000 0.0000 5.3842 0.0000 0.0000
# 5 0.0000 0.0000 0.0000 0.0000 24.3216 0.0000
# 6 0.0000 0.0000 0.0000 0.0000 0.0000 43.1876
#
#
#
# Elastic Compliance Matrix: (Units=1/GPa)
#
#
# Indices 1 2 3 4 5 6 
#
# 1 0.010114 -0.002212 -0.003614 0.000000 0.000000 0.000000
# 2 -0.002212 0.022964 -0.004200 0.000000 0.000000 0.000000
# 3 -0.003614 -0.004200 0.017392 0.000000 0.000000 0.000000
# 4 0.000000 0.000000 0.000000 0.185729 0.000000 0.000000
# 5 0.000000 0.000000 0.000000 0.000000 0.041116 0.000000
# 6 0.000000 0.000000 0.000000 0.000000 0.000000 0.023155
#
#
# Mechanical properties :
#
#
# Convention : Reuss Voigt Hill
#
# Bulk Modulus (GPa) = 32.87591 37.96662 35.42127
# Shear Modulus (GPa) = 15.12114 25.83457 20.47786
#
# Velocity S-wave (km/s) = 2.69635 3.52440 3.13781
# Velocity P-wave (km/s) = 5.04981 5.90054 5.49167
#
# Compressibility (1/GPa) = 0.03041741
#
# Stress axis : x y z
#
# Youngs Moduli (GPa) = 98.87340 43.54585 57.49616
#
# Poissons Ratio (x) = 0.09634 0.20780
# Poissons Ratio (y) = 0.21874 0.24150
# Poissons Ratio (z) = 0.35734 0.18290
#
# Static dielectric constant tensor:
#      x y z
#    x 1.734350 0.000000 0.000000 
#    y 0.000000 1.758600 0.000000 
#    z 0.000000 0.000000 1.815150 
# 
# From -- ./inp_files/31693.got.cif
#   From: 2010.05.17/outbox.cif.g08.bks.cpg/sg22_16_cif.got.tgz:31693.got - 2010.06.03 23:40:54.
