data_PCOD9327026
_publ_section_title
;
Structure prediction by ZEFSAII (Michael W. Deem and Ramdas Pophale) SiO2 
 PCOD9327026
Probable space group: F 2 2 2
;
_chemical_formula_sum "Si O2"
_cell_formula_units_Z 112
_cell_length_a 27.174936
_cell_length_b 6.941539
_cell_length_c 28.332209
_cell_angle_alpha 90.000000
_cell_angle_beta 90.000000
_cell_angle_gamma 90.000000
_cell_volume 5344.471122
_symmetry_space_group_name_H-M "F 2 2 2"
_symmetry_group_IT_number 22
_symmetry_cell_setting 'orthorhombic'
loop_
_space_group_symop_operation_xyz
x,y,z
-x,-y,z
x,-y,-z
-x,y,-z
x,1/2+y,1/2+z
-x,1/2-y,1/2+z
x,1/2-y,1/2-z
-x,1/2+y,1/2-z
1/2+x,y,1/2+z
1/2-x,-y,1/2+z
1/2+x,-y,1/2-z
1/2-x,y,1/2-z
1/2+x,1/2+y,z
1/2-x,1/2-y,z
1/2+x,1/2-y,-z
1/2-x,1/2+y,-z
loop_
_atom_site_type_symbol
_atom_site_label
_atom_site_fract_x
_atom_site_fract_y
_atom_site_fract_z
Si Si1 0.140081 0.691210 0.196352
Si Si2 0.443660 0.062166 0.949417
Si Si3 0.295756 0.103458 0.949215
Si Si4 0.703382 0.881848 0.147818
Si Si5 0.556404 0.066254 0.844810
Si Si6 0.115444 0.098118 0.950548
Si Si7 0.885372 0.408541 0.645978
O O1 0.148169 0.750000 0.250000
O O2 0.187362 0.575695 0.175819
O O3 0.092472 0.553798 0.189036
O O4 0.126490 0.886166 0.168538
O O5 0.436225 0.290411 0.948693
O O6 0.500000 0.000000 0.951014
O O7 0.426007 0.980908 0.898939
O O8 0.420717 0.000000 0.000000
O O9 0.250000 0.250000 0.947256
O O10 0.344115 0.235359 0.942358
O O11 0.291772 0.950936 0.906565
O O12 0.296727 0.000000 0.000000
O O13 0.750000 0.750000 0.161135
O O14 0.658143 0.739066 0.156109
O O15 0.565748 0.294146 0.838341
O O16 0.500000 0.000000 0.840308
O O17 0.115247 0.943708 0.909730
O O18 0.125051 0.000000 0.000000
#
# Coordination Sequence:
#
# PCOD9327026 Si02
#       7
#    16  16  16  16  16  16  16
#     4  11  25  48  70  99 138 174 227 292 344 406
#     4  10  20  38  58  90 137 176 228 281 322 398
#     4  12  23  39  63 100 142 174 223 272 330 410
#     4  11  24  43  71  98 136 178 222 279 339 410
#     4  10  22  43  66  99 138 178 229 282 344 410
#     4  12  21  36  63  95 133 183 226 268 340 403
#     4  11  22  43  67  96 135 175 222 285 338 396
#
# _framework density 20.956237000000002
#
# number of rings (size 3 to 8) (size 9 to 14) (size 15 to 20)
#    0.000    1.000    2.857    4.714    0.000    2.857 
#    2.571    7.857    0.000    0.000    0.000    0.000 
#    0.000    0.000    0.000    0.000    0.000    0.000 
#
# Total GULP energy -156365.211410 kJ/mol
# GULP energy per Si atom -5584.471836 kJ/mol
# Density = 2.090854 g / cm^3
# Si number density = 20.956237 Si / 1000 Ang^3
#
#
#
# Elastic Constant Matrix: (Units=GPa)
#
#
# Indices 1 2 3 4 5 6 
#
# 1 110.0785 52.5297 19.4193 0.0000 -0.0002 -0.0010
# 2 52.5297 128.3534 31.3758 0.0002 0.0003 0.0006
# 3 19.4193 31.3758 103.3576 -0.0001 0.0000 0.0000
# 4 0.0000 0.0002 -0.0001 31.2958 0.0000 -0.0001
# 5 -0.0002 0.0003 0.0000 0.0000 13.8667 0.0003
# 6 -0.0010 0.0006 0.0000 -0.0001 0.0003 28.5490
#
#
#
# Elastic Compliance Matrix: (Units=1/GPa)
#
#
# Indices 1 2 3 4 5 6 
#
# 1 0.011347 -0.004453 -0.000780 0.000000 0.000000 0.000000
# 2 -0.004453 0.010163 -0.002248 0.000000 0.000000 0.000000
# 3 -0.000780 -0.002248 0.010504 0.000000 0.000000 0.000000
# 4 0.000000 0.000000 0.000000 0.031953 0.000000 0.000000
# 5 0.000000 0.000000 0.000000 0.000000 0.072115 -0.000001
# 6 0.000000 0.000000 0.000000 0.000000 -0.000001 0.035028
#
#
# Mechanical properties :
#
#
# Convention : Reuss Voigt Hill
#
# Bulk Modulus (GPa) = 58.64780 60.93767 59.79273
# Shear Modulus (GPa) = 26.07457 30.63994 28.35726
#
# Velocity S-wave (km/s) = 3.53120 3.82788 3.68253
# Velocity P-wave (km/s) = 6.68375 6.97700 6.83195
#
# Compressibility (1/GPa) = 0.01705094
#
# Stress axis : x y z
#
# Youngs Moduli (GPa) = 88.12800 98.39477 95.19926
#
# Poissons Ratio (x) = 0.43817 0.07427
# Poissons Ratio (y) = 0.39245 0.21405
# Poissons Ratio (z) = 0.06875 0.22124
#
# Static dielectric constant tensor:
#      x y z
#    x 1.791160 0.000000 0.000000 
#    y 0.000000 1.739620 0.000000 
#    z 0.000000 0.000000 1.778940 
# 
# From -- ./inp_files/55169.got.cif
#   From: 2010.05.17/outbox.cif.g08.bks.cpg/sg22_28_cif.got.tgz:55169.got - 2010.06.03 23:40:54.
