data_PCOD9327261
_publ_section_title
;
Structure prediction by ZEFSAII (Michael W. Deem and Ramdas Pophale) SiO2 
 PCOD9327261
Probable space group: F 2 2 2
;
_chemical_formula_sum "Si O2"
_cell_formula_units_Z 88
_cell_length_a 17.411132
_cell_length_b 13.995797
_cell_length_c 16.103155
_cell_angle_alpha 90.000000
_cell_angle_beta 90.000000
_cell_angle_gamma 90.000000
_cell_volume 3924.059790
_symmetry_space_group_name_H-M "F 2 2 2"
_symmetry_group_IT_number 22
_symmetry_cell_setting 'orthorhombic'
loop_
_space_group_symop_operation_xyz
x,y,z
-x,-y,z
x,-y,-z
-x,y,-z
x,1/2+y,1/2+z
-x,1/2-y,1/2+z
x,1/2-y,1/2-z
-x,1/2+y,1/2-z
1/2+x,y,1/2+z
1/2-x,-y,1/2+z
1/2+x,-y,1/2-z
1/2-x,y,1/2-z
1/2+x,1/2+y,z
1/2-x,1/2-y,z
1/2+x,1/2-y,-z
1/2-x,1/2+y,-z
loop_
_atom_site_type_symbol
_atom_site_label
_atom_site_fract_x
_atom_site_fract_y
_atom_site_fract_z
Si Si1 0.565488 0.816721 0.594417
Si Si2 0.412373 0.806728 0.670472
Si Si3 0.826381 0.329654 0.174690
Si Si4 0.082395 0.981516 0.234032
Si Si5 0.750000 0.250000 0.892384
Si Si6 0.715952 0.108373 0.472586
O O1 0.474239 0.797681 0.595445
O O2 0.606436 0.718521 0.621020
O O3 0.626830 0.860205 0.529964
O O4 0.567503 0.901129 0.664105
O O5 0.447128 0.750000 0.750000
O O6 0.396895 0.917530 0.693196
O O7 0.329355 0.761790 0.654961
O O8 0.820664 0.250000 0.250000
O O9 0.853733 0.431013 0.210661
O O10 0.754609 0.356047 0.114308
O O11 0.000000 0.000000 0.277429
O O12 0.759196 0.337705 0.954585
O O13 0.719933 0.000000 0.500000
#
# Coordination Sequence:
#
# PCOD9327261 Si02
#       6
#    16  16  16  16   8  16
#     4  10  20  43  70 101 128 181 244 298 348 419
#     4  11  24  43  71 101 143 189 236 299 362 442
#     4  10  21  41  73 103 140 184 250 308 346 424
#     4   9  19  37  67 106 130 171 240 303 353 407
#     4  12  27  48  61 100 150 186 232 278 375 448
#     4  12  26  45  68 106 148 191 235 294 369 436
#
# _framework density 22.425754000000001
#
# number of rings (size 3 to 8) (size 9 to 14) (size 15 to 20)
#    0.000    1.455    1.818    4.091    2.545    6.545 
#    3.273    0.909    0.000    0.000    0.000    0.000 
#    0.000    0.000    0.000    0.000    0.000    0.000 
#
# Total GULP energy -122672.149279 kJ/mol
# GULP energy per Si atom -5576.006785 kJ/mol
# Density = 2.237471 g / cm^3
# Si number density = 22.425754 Si / 1000 Ang^3
#
#
#
# Elastic Constant Matrix: (Units=GPa)
#
#
# Indices 1 2 3 4 5 6 
#
# 1 169.0398 66.2173 58.3363 0.0000 0.0000 0.0000
# 2 66.2173 115.2101 32.5679 0.0000 0.0000 0.0000
# 3 58.3363 32.5679 60.5650 0.0000 0.0000 0.0000
# 4 0.0000 0.0000 0.0000 22.9433 0.0000 0.0000
# 5 0.0000 0.0000 0.0000 0.0000 35.9812 0.0000
# 6 0.0000 0.0000 0.0000 0.0000 0.0000 20.7621
#
#
#
# Elastic Compliance Matrix: (Units=1/GPa)
#
#
# Indices 1 2 3 4 5 6 
#
# 1 0.009958 -0.003552 -0.007682 0.000000 0.000000 0.000000
# 2 -0.003552 0.011503 -0.002764 0.000000 0.000000 0.000000
# 3 -0.007682 -0.002764 0.025397 0.000000 0.000000 0.000000
# 4 0.000000 0.000000 0.000000 0.043586 0.000000 0.000000
# 5 0.000000 0.000000 0.000000 0.000000 0.027792 0.000000
# 6 0.000000 0.000000 0.000000 0.000000 0.000000 0.048165
#
#
# Mechanical properties :
#
#
# Convention : Reuss Voigt Hill
#
# Bulk Modulus (GPa) = 53.01714 73.22865 63.12290
# Shear Modulus (GPa) = 24.91493 28.45022 26.68258
#
# Velocity S-wave (km/s) = 3.33678 3.56566 3.45312
# Velocity P-wave (km/s) = 6.20789 7.04817 6.64133
#
# Compressibility (1/GPa) = 0.01886183
#
# Stress axis : x y z
#
# Youngs Moduli (GPa) = 100.42027 86.93635 39.37546
#
# Poissons Ratio (x) = 0.30880 0.30247
# Poissons Ratio (y) = 0.35669 0.10884
# Poissons Ratio (z) = 0.77140 0.24030
#
# Static dielectric constant tensor:
#      x y z
#    x 1.901320 0.000000 0.000000 
#    y 0.000000 1.712730 0.000000 
#    z 0.000000 0.000000 1.910550 
# 
# From -- ./inp_files/37902.got.cif
#   From: 2010.05.17/outbox.cif.g08.bks.cpg/sg22_19_cif.got.tgz:37902.got - 2010.06.03 23:40:54.
