data_PCOD9327759
_publ_section_title
;
Structure prediction by ZEFSAII (Michael W. Deem and Ramdas Pophale) SiO2 
 PCOD9327759
Probable space group: F 2 2 2
;
_chemical_formula_sum "Si O2"
_cell_formula_units_Z 92
_cell_length_a 8.955995
_cell_length_b 26.615747
_cell_length_c 19.815841
_cell_angle_alpha 90.000000
_cell_angle_beta 90.000000
_cell_angle_gamma 90.000000
_cell_volume 4723.511869
_symmetry_space_group_name_H-M "F 2 2 2"
_symmetry_group_IT_number 22
_symmetry_cell_setting 'orthorhombic'
loop_
_space_group_symop_operation_xyz
x,y,z
-x,-y,z
x,-y,-z
-x,y,-z
x,1/2+y,1/2+z
-x,1/2-y,1/2+z
x,1/2-y,1/2-z
-x,1/2+y,1/2-z
1/2+x,y,1/2+z
1/2-x,-y,1/2+z
1/2+x,-y,1/2-z
1/2-x,y,1/2-z
1/2+x,1/2+y,z
1/2-x,1/2-y,z
1/2+x,1/2-y,-z
1/2-x,1/2+y,-z
loop_
_atom_site_type_symbol
_atom_site_label
_atom_site_fract_x
_atom_site_fract_y
_atom_site_fract_z
Si Si1 0.371898 0.807519 0.809109
Si Si2 0.500000 0.500000 0.500000
Si Si3 0.250000 0.250000 0.972456
Si Si4 0.041889 0.284767 0.633468
Si Si5 0.694239 0.647824 0.683378
Si Si6 0.197179 0.654669 0.565341
Si Si7 0.352247 0.596647 0.461743
O O1 0.250000 0.812680 0.750000
O O2 0.419994 0.750019 0.828976
O O3 0.532737 0.831488 0.795535
O O4 0.308006 0.838855 0.872101
O O5 0.397361 0.538147 0.457370
O O6 0.106131 0.251277 0.924685
O O7 0.234097 0.201373 0.017038
O O8 0.185402 0.306998 0.671868
O O9 0.962634 0.332172 0.597673
O O10 0.750000 0.618372 0.750000
O O11 0.680168 0.620063 0.611263
O O12 0.223185 0.607427 0.516968
O O13 0.500000 0.619421 0.500000
#
# Coordination Sequence:
#
# PCOD9327759 Si02
#       7
#    16   4   8  16  16  16  16
#     4  12  24  41  53  82 130 187 235 265 309 384
#     4   8  20  44  76  98 116 160 220 288 344 410
#     4  12  22  36  58  86 130 174 224 264 318 376
#     4  12  24  38  56  83 131 180 222 272 319 379
#     4  12  25  39  61  90 133 170 217 277 342 394
#     4  12  23  35  62  90 123 169 226 271 319 390
#     4  10  21  43  71  98 119 162 221 281 342 413
#
# _framework density 19.477032999999999
#
# number of rings (size 3 to 8) (size 9 to 14) (size 15 to 20)
#    0.522    0.000    6.957    1.565    0.000    5.565 
#    0.000    0.000    0.000    8.348    0.000    0.000 
#    0.000    0.000    0.000    0.000    0.000    0.000 
#
# Total GULP energy -128291.211799 kJ/mol
# GULP energy per Si atom -5577.878774 kJ/mol
# Density = 1.943270 g / cm^3
# Si number density = 19.477033 Si / 1000 Ang^3
#
#
#
# Elastic Constant Matrix: (Units=GPa)
#
#
# Indices 1 2 3 4 5 6 
#
# 1 122.8760 24.9289 62.4390 0.0000 0.0000 0.0000
# 2 24.9289 71.5670 40.0342 0.0000 0.0000 0.0000
# 3 62.4390 40.0342 156.9438 0.0000 0.0000 0.0000
# 4 0.0000 0.0000 0.0000 8.2204 0.0000 0.0000
# 5 0.0000 0.0000 0.0000 0.0000 32.3247 0.0000
# 6 0.0000 0.0000 0.0000 0.0000 0.0000 23.9707
#
#
#
# Elastic Compliance Matrix: (Units=1/GPa)
#
#
# Indices 1 2 3 4 5 6 
#
# 1 0.010340 -0.001517 -0.003727 0.000000 0.000000 0.000000
# 2 -0.001517 0.016521 -0.003611 0.000000 0.000000 0.000000
# 3 -0.003727 -0.003611 0.008775 0.000000 0.000000 0.000000
# 4 0.000000 0.000000 0.000000 0.121649 0.000000 0.000000
# 5 0.000000 0.000000 0.000000 0.000000 0.030936 0.000000
# 6 0.000000 0.000000 0.000000 0.000000 0.000000 0.041718
#
#
# Mechanical properties :
#
#
# Convention : Reuss Voigt Hill
#
# Bulk Modulus (GPa) = 55.78030 67.35454 61.56742
# Shear Modulus (GPa) = 19.71427 27.83547 23.77487
#
# Velocity S-wave (km/s) = 3.18493 3.78450 3.49759
# Velocity P-wave (km/s) = 6.49817 7.33166 6.92746
#
# Compressibility (1/GPa) = 0.01792747
#
# Stress axis : x y z
#
# Youngs Moduli (GPa) = 96.71441 60.52837 113.95517
#
# Poissons Ratio (x) = 0.09182 0.42467
# Poissons Ratio (y) = 0.14671 0.41147
# Poissons Ratio (z) = 0.36042 0.21856
#
# Static dielectric constant tensor:
#      x y z
#    x 1.785770 0.000000 0.000000 
#    y 0.000000 1.669880 0.000000 
#    z 0.000000 0.000000 1.772710 
# 
# From -- ./inp_files/42089.got.cif
#   From: 2010.05.17/outbox.cif.g08.bks.cpg/sg22_22_cif.got.tgz:42089.got - 2010.06.03 23:40:54.
