data_PCOD9327263
_publ_section_title
;
Structure prediction by ZEFSAII (Michael W. Deem and Ramdas Pophale) SiO2 
 PCOD9327263
Probable space group: F 2 2 2
;
_chemical_formula_sum "Si O2"
_cell_formula_units_Z 56
_cell_length_a 8.136295
_cell_length_b 17.038793
_cell_length_c 18.981910
_cell_angle_alpha 90.000000
_cell_angle_beta 90.000000
_cell_angle_gamma 90.000000
_cell_volume 2631.512415
_symmetry_space_group_name_H-M "F 2 2 2"
_symmetry_group_IT_number 22
_symmetry_cell_setting 'orthorhombic'
loop_
_space_group_symop_operation_xyz
x,y,z
-x,-y,z
x,-y,-z
-x,y,-z
x,1/2+y,1/2+z
-x,1/2-y,1/2+z
x,1/2-y,1/2-z
-x,1/2+y,1/2-z
1/2+x,y,1/2+z
1/2-x,-y,1/2+z
1/2+x,-y,1/2-z
1/2-x,y,1/2-z
1/2+x,1/2+y,z
1/2-x,1/2-y,z
1/2+x,1/2-y,-z
1/2-x,1/2+y,-z
loop_
_atom_site_type_symbol
_atom_site_label
_atom_site_fract_x
_atom_site_fract_y
_atom_site_fract_z
Si Si1 0.668739 0.852070 0.111118
Si Si2 0.750000 0.250000 0.480012
Si Si3 0.250000 0.608642 0.250000
Si Si4 0.519721 0.296278 0.145059
Si Si5 0.000000 0.000000 0.337942
O O1 0.553313 0.791732 0.155847
O O2 0.598953 0.937924 0.115677
O O3 0.854154 0.847265 0.139990
O O4 0.679094 0.815085 0.033248
O O5 0.616236 0.211300 0.428801
O O6 0.354950 0.664867 0.198779
O O7 0.125554 0.551335 0.208556
#
# Coordination Sequence:
#
# PCOD9327263 Si02
#       5
#    16   8   8  16   8
#     4  10  22  42  68  97 127 165 214 267 317 371
#     4  10  20  43  72  95 120 166 224 264 306 372
#     4  12  26  45  64  95 132 172 214 255 320 384
#     4  10  22  43  70  93 125 172 218 260 304 383
#     4  12  26  42  65  96 135 168 204 268 326 376
#
# _framework density 21.280536000000001
#
# number of rings (size 3 to 8) (size 9 to 14) (size 15 to 20)
#    0.000    1.714    0.000    6.857    0.000    5.143 
#    0.000   20.000    0.000   20.571    0.000    0.000 
#    0.000    0.000    0.000    0.000    0.000    0.000 
#
# Total GULP energy -78302.922599 kJ/mol
# GULP energy per Si atom -5593.065900 kJ/mol
# Density = 2.123210 g / cm^3
# Si number density = 21.280536 Si / 1000 Ang^3
#
#
#
# Elastic Constant Matrix: (Units=GPa)
#
#
# Indices 1 2 3 4 5 6 
#
# 1 177.5790 104.1113 91.8423 0.0000 0.0000 0.0000
# 2 104.1113 176.0888 86.1714 0.0000 0.0000 0.0000
# 3 91.8423 86.1714 129.1842 0.0000 0.0000 0.0000
# 4 0.0000 0.0000 0.0000 -18.8373 0.0000 0.0000
# 5 0.0000 0.0000 0.0000 0.0000 43.4219 0.0000
# 6 0.0000 0.0000 0.0000 0.0000 0.0000 47.3671
#
#
#
# Elastic Compliance Matrix: (Units=1/GPa)
#
#
# Indices 1 2 3 4 5 6 
#
# 1 0.010330 -0.003732 -0.004855 0.000000 0.000000 0.000000
# 2 -0.003732 0.009779 -0.003870 0.000000 0.000000 0.000000
# 3 -0.004855 -0.003870 0.013774 0.000000 0.000000 0.000000
# 4 0.000000 0.000000 0.000000 -0.053086 0.000000 0.000000
# 5 0.000000 0.000000 0.000000 0.000000 0.023030 0.000000
# 6 0.000000 0.000000 0.000000 0.000000 0.000000 0.021112
#
#
# Mechanical properties :
#
#
# Convention : Reuss Voigt Hill
#
# Bulk Modulus (GPa) = 111.48508 116.34467 113.91488
# Shear Modulus (GPa) = 94.62243 27.77215 61.19729
#
# Velocity S-wave (km/s) = 6.67539 3.61647 5.36841
# Velocity P-wave (km/s) = 10.57906 8.49876 9.59545
#
# Compressibility (1/GPa) = 0.00896981
#
# Stress axis : x y z
#
# Youngs Moduli (GPa) = 96.80517 102.25750 72.60141
#
# Poissons Ratio (x) = 0.38161 0.35246
# Poissons Ratio (y) = 0.36126 0.28097
# Poissons Ratio (z) = 0.46997 0.39574
#
# Static dielectric constant tensor:
#      x y z
#    x 1.823970 0.000000 0.000000 
#    y 0.000000 1.725040 0.000000 
#    z 0.000000 0.000000 1.782230 
# 
# From -- ./inp_files/10965.got.cif
#   From: 2010.05.17/outbox.cif.g08.bks.cpg/sg22_6_cif.got.tgz:10965.got - 2010.06.03 23:40:54.
