data_PCOD9327018
_publ_section_title
;
Structure prediction by ZEFSAII (Michael W. Deem and Ramdas Pophale) SiO2 
 PCOD9327018
Probable space group: F 2 2 2
;
_chemical_formula_sum "Si O2"
_cell_formula_units_Z 44
_cell_length_a 4.947448
_cell_length_b 21.624313
_cell_length_c 20.613557
_cell_angle_alpha 90.000000
_cell_angle_beta 90.000000
_cell_angle_gamma 90.000000
_cell_volume 2205.344778
_symmetry_space_group_name_H-M "F 2 2 2"
_symmetry_group_IT_number 22
_symmetry_cell_setting 'orthorhombic'
loop_
_space_group_symop_operation_xyz
x,y,z
-x,-y,z
x,-y,-z
-x,y,-z
x,1/2+y,1/2+z
-x,1/2-y,1/2+z
x,1/2-y,1/2-z
-x,1/2+y,1/2-z
1/2+x,y,1/2+z
1/2-x,-y,1/2+z
1/2+x,-y,1/2-z
1/2-x,y,1/2-z
1/2+x,1/2+y,z
1/2-x,1/2-y,z
1/2+x,1/2-y,-z
1/2-x,1/2+y,-z
loop_
_atom_site_type_symbol
_atom_site_label
_atom_site_fract_x
_atom_site_fract_y
_atom_site_fract_z
Si Si1 0.500000 0.206735 0.500000
Si Si2 0.384165 0.569422 0.317425
Si Si3 0.869912 0.598780 0.402510
Si Si4 0.500000 0.000000 0.500000
O O1 0.750000 0.250000 0.482045
O O2 0.418467 0.161865 0.440963
O O3 0.500000 0.500000 0.307781
O O4 0.250000 0.590386 0.250000
O O5 0.636299 0.604701 0.349189
O O6 0.141791 0.574830 0.368315
O O7 0.817335 0.545619 0.456181
#
# Coordination Sequence:
#
# PCOD9327018 Si02
#       4
#     8  16  16   4
#     4  11  24  45  66  93 126 171 222 272 330 371
#     4  12  22  38  60  96 136 174 206 249 320 396
#     4  11  23  38  65  93 132 168 209 271 314 394
#     4  10  20  38  56  98 128 160 208 250 340 376
#
# _framework density 19.951530000000002
#
# number of rings (size 3 to 8) (size 9 to 14) (size 15 to 20)
#    0.000    0.727    3.636    5.455    0.000    5.818 
#    0.000    0.000    0.000   16.364    0.000    0.000 
#    0.000    0.000    0.000    0.000    0.000    0.000 
#
# Total GULP energy -61483.008649 kJ/mol
# GULP energy per Si atom -5589.364423 kJ/mol
# Density = 1.990612 g / cm^3
# Si number density = 19.951530 Si / 1000 Ang^3
#
#
#
# Elastic Constant Matrix: (Units=GPa)
#
#
# Indices 1 2 3 4 5 6 
#
# 1 143.7360 49.1724 51.2977 0.0000 0.0000 0.0000
# 2 49.1724 110.8381 62.7526 0.0000 0.0000 0.0000
# 3 51.2977 62.7526 98.5423 0.0000 0.0000 0.0000
# 4 0.0000 0.0000 0.0000 -40.5412 0.0000 0.0000
# 5 0.0000 0.0000 0.0000 0.0000 17.6080 0.0000
# 6 0.0000 0.0000 0.0000 0.0000 0.0000 23.5924
#
#
#
# Elastic Compliance Matrix: (Units=1/GPa)
#
#
# Indices 1 2 3 4 5 6 
#
# 1 0.008835 -0.002057 -0.003289 0.000000 0.000000 0.000000
# 2 -0.002057 0.014588 -0.008219 0.000000 0.000000 0.000000
# 3 -0.003289 -0.008219 0.017094 0.000000 0.000000 0.000000
# 4 0.000000 0.000000 0.000000 -0.024666 0.000000 0.000000
# 5 0.000000 0.000000 0.000000 0.000000 0.056792 0.000000
# 6 0.000000 0.000000 0.000000 0.000000 0.000000 0.042387
#
#
# Mechanical properties :
#
#
# Convention : Reuss Voigt Hill
#
# Bulk Modulus (GPa) = 74.70230 75.50684 75.10457
# Shear Modulus (GPa) = 34.10133 12.79142 23.44637
#
# Velocity S-wave (km/s) = 4.13874 2.53479 3.43179
# Velocity P-wave (km/s) = 7.76930 6.81866 7.30946
#
# Compressibility (1/GPa) = 0.01338647
#
# Stress axis : x y z
#
# Youngs Moduli (GPa) = 113.18842 68.54883 58.50057
#
# Poissons Ratio (x) = 0.14103 0.19240
# Poissons Ratio (y) = 0.23288 0.48081
# Poissons Ratio (z) = 0.37227 0.56339
#
# Static dielectric constant tensor:
#      x y z
#    x 1.726070 0.000000 0.000000 
#    y 0.000000 1.693190 0.000000 
#    z 0.000000 0.000000 1.752770 
# 
# From -- ./inp_files/46269.got.cif
#   From: 2010.05.17/outbox.cif.g08.bks.cpg/sg22_24_cif.got.tgz:46269.got - 2010.06.03 23:40:54.
