data_PCOD9327081
_publ_section_title
;
Structure prediction by ZEFSAII (Michael W. Deem and Ramdas Pophale) SiO2 
 PCOD9327081
Probable space group: F 2 2 2
;
_chemical_formula_sum "Si O2"
_cell_formula_units_Z 72
_cell_length_a 10.740100
_cell_length_b 35.292204
_cell_length_c 10.740100
_cell_angle_alpha 90.000000
_cell_angle_beta 90.000000
_cell_angle_gamma 90.000000
_cell_volume 4070.946838
_symmetry_space_group_name_H-M "F 2 2 2"
_symmetry_group_IT_number 22
_symmetry_cell_setting 'orthorhombic'
loop_
_space_group_symop_operation_xyz
x,y,z
-x,-y,z
x,-y,-z
-x,y,-z
x,1/2+y,1/2+z
-x,1/2-y,1/2+z
x,1/2-y,1/2-z
-x,1/2+y,1/2-z
1/2+x,y,1/2+z
1/2-x,-y,1/2+z
1/2+x,-y,1/2-z
1/2-x,y,1/2-z
1/2+x,1/2+y,z
1/2-x,1/2-y,z
1/2+x,1/2-y,-z
1/2-x,1/2+y,-z
loop_
_atom_site_type_symbol
_atom_site_label
_atom_site_fract_x
_atom_site_fract_y
_atom_site_fract_z
Si Si1 0.499431 0.125743 0.793792
Si Si2 0.500000 0.500000 0.000000
Si Si3 0.898331 0.312991 0.398331
Si Si4 0.706208 0.874257 0.999431
Si Si5 0.750000 0.250000 0.250000
Si Si6 0.854214 0.436350 0.645786
O O1 0.463013 0.160487 0.705659
O O2 0.382717 0.116851 0.882717
O O3 0.542117 0.090165 0.711259
O O4 0.615610 0.135062 0.884390
O O5 0.415146 0.472862 0.084854
O O6 0.794341 0.339513 0.463012
O O7 0.834238 0.277323 0.334238
O O8 0.000000 0.301831 0.500000
O O9 0.788741 0.909835 0.042117
O O10 0.750000 0.445342 0.750000
#
# Coordination Sequence:
#
# PCOD9327081 Si02
#       6
#    16   4  16  16   4  16
#     4  10  20  38  66  90 113 152 207 255 295 355
#     4  12  24  36  56  84 136 168 192 248 308 364
#     4  12  23  39  62  86 120 158 196 250 306 362
#     4  10  20  38  66  90 113 152 207 255 295 355
#     4  12  28  40  52  96 128 160 200 248 316 372
#     4  10  22  38  59  93 120 160 210 250 302 358
#
# _framework density 17.686304
#
# number of rings (size 3 to 8) (size 9 to 14) (size 15 to 20)
#    0.000    1.333    4.444    1.333    0.000    3.556 
#    0.000    0.000    0.000    0.000    0.000    0.000 
#    0.000    0.000    0.000    0.000    0.000    0.000 
#
# Total GULP energy -100582.484236 kJ/mol
# GULP energy per Si atom -5587.915791 kJ/mol
# Density = 1.764605 g / cm^3
# Si number density = 17.686304 Si / 1000 Ang^3
#
#
#
# Elastic Constant Matrix: (Units=GPa)
#
#
# Indices 1 2 3 4 5 6 
#
# 1 129.3232 95.4750 80.2292 0.0000 0.0000 0.0000
# 2 95.4750 161.4865 95.4752 0.0000 0.0000 0.0000
# 3 80.2292 95.4752 129.3232 0.0000 0.0000 0.0000
# 4 0.0000 0.0000 0.0000 -1.8695 0.0000 0.0000
# 5 0.0000 0.0000 0.0000 0.0000 34.8674 0.0000
# 6 0.0000 0.0000 0.0000 0.0000 0.0000 -1.8693
#
#
#
# Elastic Compliance Matrix: (Units=1/GPa)
#
#
# Indices 1 2 3 4 5 6 
#
# 1 0.015357 -0.006117 -0.005012 0.000000 0.000000 0.000000
# 2 -0.006117 0.013425 -0.006117 0.000000 0.000000 0.000000
# 3 -0.005012 -0.006117 0.015357 0.000000 0.000000 0.000000
# 4 0.000000 0.000000 0.000000 -0.534900 0.000000 0.000000
# 5 0.000000 0.000000 0.000000 0.000000 0.028680 0.000000
# 6 0.000000 0.000000 0.000000 0.000000 0.000000 -0.534958
#
#
# Mechanical properties :
#
#
# Convention : Reuss Voigt Hill
#
# Bulk Modulus (GPa) = 103.62750 106.94351 105.28550
# Shear Modulus (GPa) = -5.21197 16.15595 5.47199
#
# Velocity S-wave (km/s) = -1.71851 3.02565 1.76086
# Velocity P-wave (km/s) = 7.40145 8.53254 7.98704
#
# Compressibility (1/GPa) = 0.00964995
#
# Stress axis : x y z
#
# Youngs Moduli (GPa) = 65.11508 74.48686 65.11487
#
# Poissons Ratio (x) = 0.45561 0.32633
# Poissons Ratio (y) = 0.39829 0.39829
# Poissons Ratio (z) = 0.32633 0.45562
#
# Static dielectric constant tensor:
#      x y z
#    x 1.604950 0.000000 0.000000 
#    y 0.000000 1.544060 0.000000 
#    z 0.000000 0.000000 1.604950 
# 
# From -- ./inp_files/18143.got.cif
#   From: 2010.05.17/outbox.cif.g08.bks.cpg/sg22_10_cif.got.tgz:18143.got - 2010.06.03 23:40:54.
