data_PCOD9327916
_publ_section_title
;
Structure prediction by ZEFSAII (Michael W. Deem and Ramdas Pophale) SiO2 
 PCOD9327916
Probable space group: F 2 2 2
;
_chemical_formula_sum "Si O2"
_cell_formula_units_Z 80
_cell_length_a 15.348723
_cell_length_b 25.079091
_cell_length_c 11.690152
_cell_angle_alpha 90.000000
_cell_angle_beta 90.000000
_cell_angle_gamma 90.000000
_cell_volume 4499.913833
_symmetry_space_group_name_H-M "F 2 2 2"
_symmetry_group_IT_number 22
_symmetry_cell_setting 'orthorhombic'
loop_
_space_group_symop_operation_xyz
x,y,z
-x,-y,z
x,-y,-z
-x,y,-z
x,1/2+y,1/2+z
-x,1/2-y,1/2+z
x,1/2-y,1/2-z
-x,1/2+y,1/2-z
1/2+x,y,1/2+z
1/2-x,-y,1/2+z
1/2+x,-y,1/2-z
1/2-x,y,1/2-z
1/2+x,1/2+y,z
1/2-x,1/2-y,z
1/2+x,1/2-y,-z
1/2-x,1/2+y,-z
loop_
_atom_site_type_symbol
_atom_site_label
_atom_site_fract_x
_atom_site_fract_y
_atom_site_fract_z
Si Si1 0.852573 0.186879 0.763629
Si Si2 0.591742 0.521970 0.205343
Si Si3 0.654624 0.594701 0.782189
Si Si4 0.981360 0.890319 0.365225
Si Si5 0.399096 0.885728 0.534109
O O1 0.862670 0.250000 0.750000
O O2 0.750000 0.173553 0.750000
O O3 0.914551 0.155828 0.674036
O O4 0.881481 0.165609 0.888092
O O5 0.500000 0.500000 0.156861
O O6 0.648247 0.469854 0.225996
O O7 0.564387 0.555428 0.317932
O O8 0.627147 0.564310 0.114383
O O9 0.750000 0.613407 0.750000
O O10 0.572293 0.614387 0.706157
O O11 0.646091 0.611654 0.913203
O O12 0.000000 0.891352 0.500000
O O13 0.500000 0.889563 0.500000
#
# Coordination Sequence:
#
# PCOD9327916 Si02
#       5
#    16  16  16  16  16
#     4  10  23  42  66  91 111 149 201 253 313 366
#     4   9  18  34  56  83 118 161 204 231 281 345
#     4  11  23  36  57  90 124 160 204 242 292 347
#     4  10  22  40  59  84 127 162 192 254 304 353
#     4  11  19  38  65  83 117 159 203 246 290 354
#
# _framework density 17.778117000000002
#
# number of rings (size 3 to 8) (size 9 to 14) (size 15 to 20)
#    0.000    1.800    6.000    0.600    2.800    7.600 
#    3.600    0.000    0.000    0.600    0.000    0.000 
#    0.000    0.000    0.000    0.000    0.000    0.000 
#
# Total GULP energy -111487.153351 kJ/mol
# GULP energy per Si atom -5574.357668 kJ/mol
# Density = 1.773765 g / cm^3
# Si number density = 17.778117 Si / 1000 Ang^3
#
#
#
# Elastic Constant Matrix: (Units=GPa)
#
#
# Indices 1 2 3 4 5 6 
#
# 1 75.5168 27.1017 49.8408 0.0000 0.0000 0.0000
# 2 27.1017 80.2384 47.6802 0.0000 0.0000 0.0000
# 3 49.8408 47.6802 178.4698 0.0000 0.0000 0.0000
# 4 0.0000 0.0000 0.0000 12.6136 0.0000 0.0000
# 5 0.0000 0.0000 0.0000 0.0000 27.1428 0.0000
# 6 0.0000 0.0000 0.0000 0.0000 0.0000 14.3037
#
#
#
# Elastic Compliance Matrix: (Units=1/GPa)
#
#
# Indices 1 2 3 4 5 6 
#
# 1 0.017012 -0.003474 -0.003823 0.000000 0.000000 0.000000
# 2 -0.003474 0.015524 -0.003177 0.000000 0.000000 0.000000
# 3 -0.003823 -0.003177 0.007520 0.000000 0.000000 0.000000
# 4 0.000000 0.000000 0.000000 0.079280 0.000000 0.000000
# 5 0.000000 0.000000 0.000000 0.000000 0.036842 0.000000
# 6 0.000000 0.000000 0.000000 0.000000 0.000000 0.069912
#
#
# Mechanical properties :
#
#
# Convention : Reuss Voigt Hill
#
# Bulk Modulus (GPa) = 52.33616 64.83003 58.58309
# Shear Modulus (GPa) = 19.73105 24.78549 22.25827
#
# Velocity S-wave (km/s) = 3.33506 3.73789 3.54221
# Velocity P-wave (km/s) = 6.65827 7.42795 7.05362
#
# Compressibility (1/GPa) = 0.01910725
#
# Stress axis : x y z
#
# Youngs Moduli (GPa) = 58.78221 64.41459 132.98661
#
# Poissons Ratio (x) = 0.22381 0.50836
# Poissons Ratio (y) = 0.20424 0.42253
# Poissons Ratio (z) = 0.22470 0.20466
#
# Static dielectric constant tensor:
#      x y z
#    x 1.576560 0.000000 0.000000 
#    y 0.000000 1.619090 0.000000 
#    z 0.000000 0.000000 1.947850 
# 
# From -- ./inp_files/19811.got.cif
#   From: 2010.05.17/outbox.cif.g08.bks.cpg/sg22_10_cif.got.tgz:19811.got - 2010.06.03 23:40:54.
