data_PCOD9327318
_publ_section_title
;
Structure prediction by ZEFSAII (Michael W. Deem and Ramdas Pophale) SiO2 
 PCOD9327318
Probable space group: F 2 2 2
;
_chemical_formula_sum "Si O2"
_cell_formula_units_Z 92
_cell_length_a 25.644266
_cell_length_b 18.009196
_cell_length_c 9.797080
_cell_angle_alpha 90.000000
_cell_angle_beta 90.000000
_cell_angle_gamma 90.000000
_cell_volume 4524.611053
_symmetry_space_group_name_H-M "F 2 2 2"
_symmetry_group_IT_number 22
_symmetry_cell_setting 'orthorhombic'
loop_
_space_group_symop_operation_xyz
x,y,z
-x,-y,z
x,-y,-z
-x,y,-z
x,1/2+y,1/2+z
-x,1/2-y,1/2+z
x,1/2-y,1/2-z
-x,1/2+y,1/2-z
1/2+x,y,1/2+z
1/2-x,-y,1/2+z
1/2+x,-y,1/2-z
1/2-x,y,1/2-z
1/2+x,1/2+y,z
1/2-x,1/2-y,z
1/2+x,1/2-y,-z
1/2-x,1/2+y,-z
loop_
_atom_site_type_symbol
_atom_site_label
_atom_site_fract_x
_atom_site_fract_y
_atom_site_fract_z
Si Si1 0.162310 0.105381 0.092220
Si Si2 0.368690 0.750000 0.750000
Si Si3 0.938706 0.281267 0.003854
Si Si4 0.000000 0.500000 0.000000
Si Si5 0.807574 0.550539 0.704029
Si Si6 0.088965 0.084121 0.671224
Si Si7 0.558653 0.605411 0.972500
O O1 0.163508 0.184962 0.170054
O O2 0.191081 0.036460 0.161670
O O3 0.178382 0.100055 0.931475
O O4 0.100688 0.084591 0.086216
O O5 0.407169 0.711532 0.638486
O O6 0.911996 0.331927 0.116642
O O7 0.937349 0.194535 0.037223
O O8 0.000000 0.301184 0.000000
O O9 0.042014 0.454284 0.911029
O O10 0.750000 0.571185 0.750000
O O11 0.850835 0.558536 0.823723
O O12 0.073526 0.075276 0.827112
O O13 0.500000 0.584959 0.000000
#
# Coordination Sequence:
#
# PCOD9327318 Si02
#       7
#    16   8  16   4  16  16  16
#     4   9  21  42  66 100 119 170 215 264 325 389
#     4  10  22  40  65  94 140 158 219 272 316 396
#     4  10  21  34  60  90 129 173 203 249 323 398
#     4  12  28  32  50  96 140 164 208 274 340 392
#     4  10  23  45  70  87 125 173 229 272 329 397
#     4  11  24  38  56  92 130 165 215 263 326 401
#     4   9  20  36  65  89 127 168 203 252 319 395
#
# _framework density 20.333238000000001
#
# number of rings (size 3 to 8) (size 9 to 14) (size 15 to 20)
#    0.000    2.087    0.870    0.522   12.174    1.391 
#    0.000    0.435    3.826   12.522    0.000    0.000 
#    0.000    0.000    0.000    0.000    0.000    0.000 
#
# Total GULP energy -128157.144539 kJ/mol
# GULP energy per Si atom -5572.049763 kJ/mol
# Density = 2.028696 g / cm^3
# Si number density = 20.333238 Si / 1000 Ang^3
#
#
#
# Elastic Constant Matrix: (Units=GPa)
#
#
# Indices 1 2 3 4 5 6 
#
# 1 129.9184 33.0071 34.9667 0.0000 0.0000 0.0000
# 2 33.0071 99.1508 55.0121 0.0000 0.0000 0.0000
# 3 34.9667 55.0121 51.2811 0.0000 0.0000 0.0000
# 4 0.0000 0.0000 0.0000 50.3621 0.0000 0.0000
# 5 0.0000 0.0000 0.0000 0.0000 26.7963 0.0000
# 6 0.0000 0.0000 0.0000 0.0000 0.0000 20.3682
#
#
#
# Elastic Compliance Matrix: (Units=1/GPa)
#
#
# Indices 1 2 3 4 5 6 
#
# 1 0.009472 0.001063 -0.007599 0.000000 0.000000 0.000000
# 2 0.001063 0.025034 -0.027581 0.000000 0.000000 0.000000
# 3 -0.007599 -0.027581 0.054269 0.000000 0.000000 0.000000
# 4 0.000000 0.000000 0.000000 0.019856 0.000000 0.000000
# 5 0.000000 0.000000 0.000000 0.000000 0.037319 0.000000
# 6 0.000000 0.000000 0.000000 0.000000 0.000000 0.049096
#
#
# Mechanical properties :
#
#
# Convention : Reuss Voigt Hill
#
# Bulk Modulus (GPa) = 48.67984 58.48024 53.58004
# Shear Modulus (GPa) = 18.50976 29.99628 24.25302
#
# Velocity S-wave (km/s) = 3.02042 3.84504 3.45741
# Velocity P-wave (km/s) = 6.01306 6.96677 6.50741
#
# Compressibility (1/GPa) = 0.02054238
#
# Stress axis : x y z
#
# Youngs Moduli (GPa) = 105.57048 39.94501 18.42668
#
# Poissons Ratio (x) = -0.04246 0.14003
# Poissons Ratio (y) = -0.11221 0.50822
# Poissons Ratio (z) = 0.80224 1.10171
#
# Static dielectric constant tensor:
#      x y z
#    x 1.746440 0.000000 0.000000 
#    y 0.000000 1.770310 0.000000 
#    z 0.000000 0.000000 1.750310 
# 
# From -- ./inp_files/14761.got.cif
#   From: 2010.05.17/outbox.cif.g08.bks.cpg/sg22_8_cif.got.tgz:14761.got - 2010.06.03 23:40:54.
