data_PCOD9327049
_publ_section_title
;
Structure prediction by ZEFSAII (Michael W. Deem and Ramdas Pophale) SiO2 
 PCOD9327049
Probable space group: F 2 2 2
;
_chemical_formula_sum "Si O2"
_cell_formula_units_Z 88
_cell_length_a 23.276364
_cell_length_b 20.946833
_cell_length_c 9.092380
_cell_angle_alpha 90.000000
_cell_angle_beta 90.000000
_cell_angle_gamma 90.000000
_cell_volume 4433.136343
_symmetry_space_group_name_H-M "F 2 2 2"
_symmetry_group_IT_number 22
_symmetry_cell_setting 'orthorhombic'
loop_
_space_group_symop_operation_xyz
x,y,z
-x,-y,z
x,-y,-z
-x,y,-z
x,1/2+y,1/2+z
-x,1/2-y,1/2+z
x,1/2-y,1/2-z
-x,1/2+y,1/2-z
1/2+x,y,1/2+z
1/2-x,-y,1/2+z
1/2+x,-y,1/2-z
1/2-x,y,1/2-z
1/2+x,1/2+y,z
1/2-x,1/2-y,z
1/2+x,1/2-y,-z
1/2-x,1/2+y,-z
loop_
_atom_site_type_symbol
_atom_site_label
_atom_site_fract_x
_atom_site_fract_y
_atom_site_fract_z
Si Si1 0.531177 0.099490 0.236735
Si Si2 0.710146 0.439585 0.608877
Si Si3 0.500000 0.807011 0.500000
Si Si4 0.416740 0.475651 0.334339
Si Si5 0.720983 0.685224 0.587090
Si Si6 0.585674 0.213491 0.095459
O O1 0.520278 0.145322 0.373608
O O2 0.470026 0.068577 0.203271
O O3 0.555733 0.144875 0.109243
O O4 0.575832 0.040964 0.260227
O O5 0.715497 0.500000 0.500000
O O6 0.750000 0.445998 0.750000
O O7 0.644397 0.441228 0.667582
O O8 0.725984 0.376620 0.515589
O O9 0.553794 0.758235 0.476110
O O10 0.424972 0.500000 0.500000
O O11 0.750000 0.674498 0.750000
O O12 0.750000 0.750000 0.528260
O O13 0.653313 0.701305 0.590624
O O14 0.575525 0.250000 0.250000
#
# Coordination Sequence:
#
# PCOD9327049 Si02
#       6
#    16  16   8  16  16  16
#     4  10  21  39  61  94 125 165 216 261 338 393
#     4  11  25  45  66  98 127 175 231 293 347 410
#     4  10  24  35  60  97 134 168 202 282 320 396
#     4  10  22  40  66  87 122 171 216 271 332 399
#     4  11  23  43  70  98 132 185 229 278 345 415
#     4  10  20  38  62  93 133 170 217 257 329 404
#
# _framework density 19.850504999999998
#
# number of rings (size 3 to 8) (size 9 to 14) (size 15 to 20)
#    0.000    1.636    1.818    3.818    5.091    3.273 
#    3.273    0.000    0.000    0.000    0.000    0.000 
#    0.000    0.000    0.000    0.000    0.000    0.000 
#
# Total GULP energy -122702.016187 kJ/mol
# GULP energy per Si atom -5577.364372 kJ/mol
# Density = 1.980532 g / cm^3
# Si number density = 19.850505 Si / 1000 Ang^3
#
#
#
# Elastic Constant Matrix: (Units=GPa)
#
#
# Indices 1 2 3 4 5 6 
#
# 1 124.6116 68.3530 36.1741 0.0000 0.0000 0.0000
# 2 68.3530 146.7039 31.4532 -0.0001 0.0001 0.0000
# 3 36.1741 31.4532 36.4442 -0.0003 0.0002 0.0001
# 4 0.0000 -0.0001 -0.0003 37.1221 0.0001 0.0000
# 5 0.0000 0.0001 0.0002 0.0001 25.9950 0.0000
# 6 0.0000 0.0000 0.0001 0.0000 0.0000 28.1812
#
#
#
# Elastic Compliance Matrix: (Units=1/GPa)
#
#
# Indices 1 2 3 4 5 6 
#
# 1 0.012958 -0.004025 -0.009389 0.000000 0.000000 0.000000
# 2 -0.004025 0.009614 -0.004303 0.000000 0.000000 0.000000
# 3 -0.009389 -0.004303 0.040472 0.000000 0.000000 0.000000
# 4 0.000000 0.000000 0.000000 0.026938 0.000000 0.000000
# 5 0.000000 0.000000 0.000000 0.000000 0.038469 0.000000
# 6 0.000000 0.000000 0.000000 0.000000 0.000000 0.035485
#
#
# Mechanical properties :
#
#
# Convention : Reuss Voigt Hill
#
# Bulk Modulus (GPa) = 36.21602 64.41339 50.31471
# Shear Modulus (GPa) = 23.97263 29.71162 26.84212
#
# Velocity S-wave (km/s) = 3.47891 3.87301 3.68124
# Velocity P-wave (km/s) = 5.86695 7.24706 6.59322
#
# Compressibility (1/GPa) = 0.02761209
#
# Stress axis : x y z
#
# Youngs Moduli (GPa) = 77.17268 104.01400 24.70861
#
# Poissons Ratio (x) = 0.41861 0.23198
# Poissons Ratio (y) = 0.31058 0.10632
# Poissons Ratio (z) = 0.72454 0.44755
#
# Static dielectric constant tensor:
#      x y z
#    x 1.737410 0.000000 0.000000 
#    y 0.000000 1.749390 0.000000 
#    z 0.000000 0.000000 1.710220 
# 
# From -- ./inp_files/13738.got.cif
#   From: 2010.05.17/outbox.cif.g08.bks.cpg/sg22_7_cif.got.tgz:13738.got - 2010.06.03 23:40:54.
