data_PCOD9327365
_publ_section_title
;
Structure prediction by ZEFSAII (Michael W. Deem and Ramdas Pophale) SiO2 
 PCOD9327365
Probable space group: F 2 2 2
;
_chemical_formula_sum "Si O2"
_cell_formula_units_Z 96
_cell_length_a 16.073112
_cell_length_b 16.569661
_cell_length_c 19.231360
_cell_angle_alpha 90.000000
_cell_angle_beta 90.000000
_cell_angle_gamma 90.000000
_cell_volume 5121.811511
_symmetry_space_group_name_H-M "F 2 2 2"
_symmetry_group_IT_number 22
_symmetry_cell_setting 'orthorhombic'
loop_
_space_group_symop_operation_xyz
x,y,z
-x,-y,z
x,-y,-z
-x,y,-z
x,1/2+y,1/2+z
-x,1/2-y,1/2+z
x,1/2-y,1/2-z
-x,1/2+y,1/2-z
1/2+x,y,1/2+z
1/2-x,-y,1/2+z
1/2+x,-y,1/2-z
1/2-x,y,1/2-z
1/2+x,1/2+y,z
1/2-x,1/2-y,z
1/2+x,1/2-y,-z
1/2-x,1/2+y,-z
loop_
_atom_site_type_symbol
_atom_site_label
_atom_site_fract_x
_atom_site_fract_y
_atom_site_fract_z
Si Si1 0.157115 0.779010 0.644409
Si Si2 0.590885 0.345564 0.264892
Si Si3 0.313208 0.525077 0.186124
Si Si4 0.089252 0.398295 0.037764
Si Si5 0.159757 0.057577 0.600773
Si Si6 0.901736 0.369027 0.729122
O O1 0.250000 0.750000 0.627275
O O2 0.107337 0.820097 0.582654
O O3 0.107117 0.703596 0.674883
O O4 0.159401 0.844207 0.707407
O O5 0.600455 0.250000 0.250000
O O6 0.639121 0.392788 0.203932
O O7 0.625719 0.383851 0.337614
O O8 0.493969 0.368574 0.260188
O O9 0.250000 0.512477 0.250000
O O10 0.252930 0.531329 0.120526
O O11 0.376427 0.451269 0.192091
O O12 0.105042 0.476218 0.087457
O O13 0.154195 0.401363 0.974221
O O14 0.000000 0.400279 0.000000
#
# Coordination Sequence:
#
# PCOD9327365 Si02
#       6
#    16  16  16  16  16  16
#     4  11  21  36  58  91 125 159 205 264 317 370
#     4  11  22  39  61  95 126 161 205 260 318 377
#     4  10  21  36  60  86 120 162 197 251 308 370
#     4  11  23  40  62  92 122 166 215 264 315 378
#     4  10  22  39  59  88 123 161 206 255 317 378
#     4  11  20  36  61  91 124 157 209 260 313 373
#
# _framework density 18.743368
#
# number of rings (size 3 to 8) (size 9 to 14) (size 15 to 20)
#    0.000    1.333    1.667    7.500    0.000    5.667 
#    3.000    0.000    0.000    0.000    0.000    4.667 
#    0.000    0.000    0.000    0.000    0.000    0.000 
#
# Total GULP energy -133939.970454 kJ/mol
# GULP energy per Si atom -5580.832102 kJ/mol
# Density = 1.870071 g / cm^3
# Si number density = 18.743368 Si / 1000 Ang^3
#
#
#
# Elastic Constant Matrix: (Units=GPa)
#
#
# Indices 1 2 3 4 5 6 
#
# 1 75.5570 62.9157 27.9362 0.0000 0.0000 0.0000
# 2 62.9157 129.7883 61.4114 0.0000 0.0000 0.0000
# 3 27.9362 61.4114 82.3269 0.0000 0.0000 0.0000
# 4 0.0000 0.0000 0.0000 34.2433 0.0000 0.0000
# 5 0.0000 0.0000 0.0000 0.0000 39.0547 0.0000
# 6 0.0000 0.0000 0.0000 0.0000 0.0000 31.0268
#
#
#
# Elastic Compliance Matrix: (Units=1/GPa)
#
#
# Indices 1 2 3 4 5 6 
#
# 1 0.022225 -0.011135 0.000765 0.000000 0.000000 0.000000
# 2 -0.011135 0.017487 -0.009266 0.000000 0.000000 0.000000
# 3 0.000765 -0.009266 0.018799 0.000000 0.000000 0.000000
# 4 0.000000 0.000000 0.000000 0.029203 0.000000 0.000000
# 5 0.000000 0.000000 0.000000 0.000000 0.025605 0.000000
# 6 0.000000 0.000000 0.000000 0.000000 0.000000 0.032230
#
#
# Mechanical properties :
#
#
# Convention : Reuss Voigt Hill
#
# Bulk Modulus (GPa) = 51.98063 65.79987 58.89025
# Shear Modulus (GPa) = 26.14597 29.89222 28.01910
#
# Velocity S-wave (km/s) = 3.73895 3.99785 3.87056
# Velocity P-wave (km/s) = 6.81415 7.51613 7.17373
#
# Compressibility (1/GPa) = 0.01923793
#
# Stress axis : x y z
#
# Youngs Moduli (GPa) = 44.99514 57.18505 53.19456
#
# Poissons Ratio (x) = 0.63678 -0.04069
# Poissons Ratio (y) = 0.50104 0.49289
# Poissons Ratio (z) = -0.03442 0.52986
#
# Static dielectric constant tensor:
#      x y z
#    x 1.698250 0.000000 0.000000 
#    y 0.000000 1.677510 0.000000 
#    z 0.000000 0.000000 1.661600 
# 
# From -- ./inp_files/43484.got.cif
#   From: 2010.05.17/outbox.cif.g08.bks.cpg/sg22_22_cif.got.tgz:43484.got - 2010.06.03 23:40:54.
