data_PCOD9327849
_publ_section_title
;
Structure prediction by ZEFSAII (Michael W. Deem and Ramdas Pophale) SiO2 
 PCOD9327849
Probable space group: F 2 2 2
;
_chemical_formula_sum "Si O2"
_cell_formula_units_Z 120
_cell_length_a 21.376908
_cell_length_b 21.524010
_cell_length_c 13.060830
_cell_angle_alpha 90.000000
_cell_angle_beta 90.000000
_cell_angle_gamma 90.000000
_cell_volume 6009.507064
_symmetry_space_group_name_H-M "F 2 2 2"
_symmetry_group_IT_number 22
_symmetry_cell_setting 'orthorhombic'
loop_
_space_group_symop_operation_xyz
x,y,z
-x,-y,z
x,-y,-z
-x,y,-z
x,1/2+y,1/2+z
-x,1/2-y,1/2+z
x,1/2-y,1/2-z
-x,1/2+y,1/2-z
1/2+x,y,1/2+z
1/2-x,-y,1/2+z
1/2+x,-y,1/2-z
1/2-x,y,1/2-z
1/2+x,1/2+y,z
1/2-x,1/2-y,z
1/2+x,1/2-y,-z
1/2-x,1/2+y,-z
loop_
_atom_site_type_symbol
_atom_site_label
_atom_site_fract_x
_atom_site_fract_y
_atom_site_fract_z
Si Si1 0.469165 0.368622 0.284466
Si Si2 0.702658 0.405923 0.162219
Si Si3 0.859793 0.720801 0.140531
Si Si4 0.285599 0.313456 0.539357
Si Si5 0.088296 0.550111 0.417984
Si Si6 0.109441 0.180899 0.705540
Si Si7 0.438427 0.328718 0.051392
Si Si8 0.000000 0.000000 0.744415
O O1 0.417091 0.326860 0.340586
O O2 0.539152 0.344065 0.306465
O O3 0.455383 0.357490 0.162750
O O4 0.466788 0.442073 0.311145
O O5 0.750000 0.426947 0.250000
O O6 0.741431 0.368370 0.077950
O O7 0.660434 0.457945 0.111566
O O8 0.651825 0.360572 0.217493
O O9 0.842557 0.750000 0.250000
O O10 0.885571 0.777845 0.071375
O O11 0.803469 0.689257 0.079444
O O12 0.250000 0.250000 0.568558
O O13 0.350421 0.318233 0.601792
O O14 0.068626 0.500000 0.500000
O O15 0.079550 0.616349 0.473396
O O16 0.048385 0.536305 0.317481
O O17 0.105559 0.250000 0.750000
O O18 0.500000 0.298855 0.000000
#
# Coordination Sequence:
#
# PCOD9327849 Si02
#       8
#    16  16  16  16  16  16  16   8
#     4  11  23  37  57  96 131 166 205 266 334 398
#     4  10  22  38  58  92 125 157 215 271 327 386
#     4  10  25  40  58  93 135 173 219 262 332 406
#     4  11  22  38  62  87 123 173 215 262 321 387
#     4  12  21  37  64  93 120 161 215 271 331 392
#     4  11  20  34  62  97 128 151 200 272 337 386
#     4  11  19  33  58  94 127 154 201 269 336 386
#     4  12  21  38  64  95 130 164 208 267 330 397
#
# _framework density 19.968361000000002
#
# number of rings (size 3 to 8) (size 9 to 14) (size 15 to 20)
#    0.000    1.067    5.333    2.200    3.733    0.267 
#    0.000    1.333    0.000    0.800    0.000    0.000 
#    0.000    0.000    0.000    0.000    0.000    0.000 
#
# Total GULP energy -167577.195947 kJ/mol
# GULP energy per Si atom -5585.906532 kJ/mol
# Density = 1.992291 g / cm^3
# Si number density = 19.968361 Si / 1000 Ang^3
#
#
#
# Elastic Constant Matrix: (Units=GPa)
#
#
# Indices 1 2 3 4 5 6 
#
# 1 88.9408 10.0785 34.0508 0.0000 0.0000 0.0000
# 2 10.0785 58.1337 17.8961 0.0000 0.0000 0.0000
# 3 34.0508 17.8961 60.9560 0.0000 0.0000 0.0000
# 4 0.0000 0.0000 0.0000 16.7973 0.0000 0.0000
# 5 0.0000 0.0000 0.0000 0.0000 8.5105 0.0000
# 6 0.0000 0.0000 0.0000 0.0000 0.0000 18.9666
#
#
#
# Elastic Compliance Matrix: (Units=1/GPa)
#
#
# Indices 1 2 3 4 5 6 
#
# 1 0.014302 -0.000022 -0.007983 0.000000 0.000000 0.000000
# 2 -0.000022 0.018911 -0.005540 0.000000 0.000000 0.000000
# 3 -0.007983 -0.005540 0.022491 0.000000 0.000000 0.000000
# 4 0.000000 0.000000 0.000000 0.059533 0.000000 0.000000
# 5 0.000000 0.000000 0.000000 0.000000 0.117501 0.000000
# 6 0.000000 0.000000 0.000000 0.000000 0.000000 0.052724
#
#
# Mechanical properties :
#
#
# Convention : Reuss Voigt Hill
#
# Bulk Modulus (GPa) = 34.94702 36.89792 35.92247
# Shear Modulus (GPa) = 15.52357 18.58856 17.05607
#
# Velocity S-wave (km/s) = 2.79123 3.05438 2.92576
# Velocity P-wave (km/s) = 5.28461 5.56393 5.42607
#
# Compressibility (1/GPa) = 0.02861474
#
# Stress axis : x y z
#
# Youngs Moduli (GPa) = 69.91936 52.87954 44.46211
#
# Poissons Ratio (x) = 0.00117 0.35494
# Poissons Ratio (y) = 0.00154 0.24631
# Poissons Ratio (z) = 0.55816 0.29294
#
# Static dielectric constant tensor:
#      x y z
#    x 1.718260 0.000000 0.000000 
#    y 0.000000 1.739770 0.000000 
#    z 0.000000 0.000000 1.744370 
# 
# From -- ./inp_files/31891.got.cif
#   From: 2010.05.17/outbox.cif.g08.bks.cpg/sg22_16_cif.got.tgz:31891.got - 2010.06.03 23:40:54.
