data_PCOD9327350
_publ_section_title
;
Structure prediction by ZEFSAII (Michael W. Deem and Ramdas Pophale) SiO2 
 PCOD9327350
Probable space group: F 2 2 2
;
_chemical_formula_sum "Si O2"
_cell_formula_units_Z 108
_cell_length_a 14.287454
_cell_length_b 28.154236
_cell_length_c 12.364915
_cell_angle_alpha 90.000000
_cell_angle_beta 90.000000
_cell_angle_gamma 90.000000
_cell_volume 4973.816138
_symmetry_space_group_name_H-M "F 2 2 2"
_symmetry_group_IT_number 22
_symmetry_cell_setting 'orthorhombic'
loop_
_space_group_symop_operation_xyz
x,y,z
-x,-y,z
x,-y,-z
-x,y,-z
x,1/2+y,1/2+z
-x,1/2-y,1/2+z
x,1/2-y,1/2-z
-x,1/2+y,1/2-z
1/2+x,y,1/2+z
1/2-x,-y,1/2+z
1/2+x,-y,1/2-z
1/2-x,y,1/2-z
1/2+x,1/2+y,z
1/2-x,1/2-y,z
1/2+x,1/2-y,-z
1/2-x,1/2+y,-z
loop_
_atom_site_type_symbol
_atom_site_label
_atom_site_fract_x
_atom_site_fract_y
_atom_site_fract_z
Si Si1 0.500000 0.000000 0.000000
Si Si2 0.519108 0.070997 0.168067
Si Si3 0.234241 0.805829 0.524360
Si Si4 0.955504 0.174453 0.620081
Si Si5 0.723919 0.104022 0.124299
Si Si6 0.075462 0.750000 0.250000
Si Si7 0.570552 0.920685 0.594353
Si Si8 0.087158 0.188141 0.943271
O O1 0.460252 0.036465 0.090198
O O2 0.470214 0.121822 0.163989
O O3 0.624593 0.077372 0.118819
O O4 0.538281 0.057288 0.291992
O O5 0.250000 0.750000 0.504483
O O6 0.153201 0.812248 0.610177
O O7 0.209936 0.843770 0.428903
O O8 0.341052 0.821461 0.541079
O O9 0.011303 0.211247 0.692381
O O10 0.000000 0.175408 0.500000
O O11 0.750000 0.110924 0.250000
O O12 0.816051 0.076666 0.077544
O O13 0.125413 0.779602 0.154656
O O14 0.500000 0.936402 0.500000
O O15 0.559324 0.863070 0.602523
O O16 0.000000 0.212924 0.000000
#
# Coordination Sequence:
#
# PCOD9327350 Si02
#       8
#     4  16  16  16  16   8  16  16
#     4  12  24  40  78  96 130 168 236 286 356 410
#     4  11  21  42  68 102 127 176 223 288 352 398
#     4  11  21  32  51  82 123 167 216 267 318 384
#     4  12  23  40  59  89 133 166 223 279 336 387
#     4   9  19  35  63  94 126 169 218 276 336 392
#     4  12  22  36  60  86 124 180 214 274 322 400
#     4   9  19  38  67  93 132 173 211 267 334 412
#     4  10  21  36  54  84 121 166 222 259 316 385
#
# _framework density 21.713709000000001
#
# number of rings (size 3 to 8) (size 9 to 14) (size 15 to 20)
#    0.000    1.481    3.704    2.222    0.000    0.296 
#    0.000    4.444    9.778    1.778    0.000    0.000 
#    0.000    0.000    0.000    0.000    0.000    0.000 
#
# Total GULP energy -150353.810958 kJ/mol
# GULP energy per Si atom -5568.659665 kJ/mol
# Density = 2.166429 g / cm^3
# Si number density = 21.713709 Si / 1000 Ang^3
#
#
#
# Elastic Constant Matrix: (Units=GPa)
#
#
# Indices 1 2 3 4 5 6 
#
# 1 114.7425 6.1180 35.3382 0.0000 0.0000 0.0000
# 2 6.1180 58.2177 19.8357 0.0000 0.0000 0.0000
# 3 35.3382 19.8357 63.4071 0.0000 0.0000 0.0000
# 4 0.0000 0.0000 0.0000 26.5763 0.0000 0.0000
# 5 0.0000 0.0000 0.0000 0.0000 34.6603 0.0000
# 6 0.0000 0.0000 0.0000 0.0000 0.0000 -84.5043
#
#
#
# Elastic Compliance Matrix: (Units=1/GPa)
#
#
# Indices 1 2 3 4 5 6 
#
# 1 0.010573 0.001004 -0.006207 0.000000 0.000000 0.000000
# 2 0.001004 0.019321 -0.006604 0.000000 0.000000 0.000000
# 3 -0.006207 -0.006604 0.021296 0.000000 0.000000 0.000000
# 4 0.000000 0.000000 0.000000 0.037627 0.000000 0.000000
# 5 0.000000 0.000000 0.000000 0.000000 0.028851 0.000000
# 6 0.000000 0.000000 0.000000 0.000000 0.000000 -0.011834
#
#
# Mechanical properties :
#
#
# Convention : Reuss Voigt Hill
#
# Bulk Modulus (GPa) = 36.26182 39.88346 38.07264
# Shear Modulus (GPa) = 36.06423 7.01816 21.54120
#
# Velocity S-wave (km/s) = 4.07983 1.79976 3.15311
# Velocity P-wave (km/s) = 6.23936 4.76724 5.55231
#
# Compressibility (1/GPa) = 0.02757721
#
# Stress axis : x y z
#
# Youngs Moduli (GPa) = 94.57910 51.75603 46.95718
#
# Poissons Ratio (x) = -0.05194 0.29144
# Poissons Ratio (y) = -0.09492 0.31009
# Poissons Ratio (z) = 0.58702 0.34178
#
# Static dielectric constant tensor:
#      x y z
#    x 1.916170 0.000000 0.000000 
#    y 0.000000 1.825400 0.000000 
#    z 0.000000 0.000000 1.825460 
# 
# From -- ./inp_files/20358.got.cif
#   From: 2010.05.17/outbox.cif.g08.bks.cpg/sg22_11_cif.got.tgz:20358.got - 2010.06.03 23:40:54.
