data_PCOD9327030
_publ_section_title
;
Structure prediction by ZEFSAII (Michael W. Deem and Ramdas Pophale) SiO2 
 PCOD9327030
Probable space group: F 2 2 2
;
_chemical_formula_sum "Si O2"
_cell_formula_units_Z 112
_cell_length_a 21.987898
_cell_length_b 14.942806
_cell_length_c 14.290767
_cell_angle_alpha 90.000000
_cell_angle_beta 90.000000
_cell_angle_gamma 90.000000
_cell_volume 4695.387184
_symmetry_space_group_name_H-M "F 2 2 2"
_symmetry_group_IT_number 22
_symmetry_cell_setting 'orthorhombic'
loop_
_space_group_symop_operation_xyz
x,y,z
-x,-y,z
x,-y,-z
-x,y,-z
x,1/2+y,1/2+z
-x,1/2-y,1/2+z
x,1/2-y,1/2-z
-x,1/2+y,1/2-z
1/2+x,y,1/2+z
1/2-x,-y,1/2+z
1/2+x,-y,1/2-z
1/2-x,y,1/2-z
1/2+x,1/2+y,z
1/2-x,1/2-y,z
1/2+x,1/2-y,-z
1/2-x,1/2+y,-z
loop_
_atom_site_type_symbol
_atom_site_label
_atom_site_fract_x
_atom_site_fract_y
_atom_site_fract_z
Si Si1 0.451779 0.704617 0.345371
Si Si2 0.902359 0.178694 0.671793
Si Si3 0.590181 0.528917 0.105009
Si Si4 0.601623 0.699710 0.016777
Si Si5 0.734353 0.974980 0.357725
Si Si6 0.765889 0.646560 0.528542
Si Si7 0.067926 0.517146 0.196606
O O1 0.430704 0.750000 0.250000
O O2 0.523863 0.686630 0.334504
O O3 0.440166 0.766884 0.433759
O O4 0.415411 0.610545 0.350564
O O5 0.880359 0.250000 0.750000
O O6 0.877284 0.213877 0.574000
O O7 0.892529 0.072669 0.684798
O O8 0.573443 0.633987 0.096015
O O9 0.661592 0.524426 0.127095
O O10 0.562191 0.473961 0.190440
O O11 0.574537 0.500000 0.000000
O O12 0.660088 0.649991 0.974661
O O13 0.750000 0.960374 0.250000
O O14 0.754236 0.896325 0.428956
O O15 0.754652 0.072909 0.395274
O O16 0.750000 0.750000 0.544316
O O17 0.000000 0.500000 0.159337
#
# Coordination Sequence:
#
# PCOD9327030 Si02
#       7
#    16  16  16  16  16  16  16
#     4  10  22  37  58  89 128 162 206 253 306 364
#     4  10  20  38  59  88 126 163 208 254 302 364
#     4  11  20  39  64  88 119 159 212 256 304 361
#     4  11  21  39  63  85 120 162 203 256 305 360
#     4  10  22  42  66  91 124 158 199 261 314 369
#     4  10  23  44  62  94 124 154 210 255 304 383
#     4  10  22  38  57  91 130 168 208 256 301 364
#
# _framework density 23.853197999999999
#
# number of rings (size 3 to 8) (size 9 to 14) (size 15 to 20)
#    0.000    1.714    4.286    1.286    0.000    3.714 
#    2.571    3.571    0.000    0.000    0.000    0.000 
#    0.000    0.000    0.000    0.000    0.000    0.000 
#
# Total GULP energy -156303.424543 kJ/mol
# GULP energy per Si atom -5582.265162 kJ/mol
# Density = 2.379891 g / cm^3
# Si number density = 23.853198 Si / 1000 Ang^3
#
#
#
# Elastic Constant Matrix: (Units=GPa)
#
#
# Indices 1 2 3 4 5 6 
#
# 1 37.5006 12.1950 -2.4129 0.0000 0.0000 0.0000
# 2 12.1950 153.1448 29.4271 0.0000 0.0000 0.0000
# 3 -2.4129 29.4271 97.0251 0.0000 0.0000 0.0000
# 4 0.0000 0.0000 0.0000 38.3115 0.0000 0.0000
# 5 0.0000 0.0000 0.0000 0.0000 23.1312 0.0000
# 6 0.0000 0.0000 0.0000 0.0000 0.0000 22.5171
#
#
#
# Elastic Compliance Matrix: (Units=1/GPa)
#
#
# Indices 1 2 3 4 5 6 
#
# 1 0.027562 -0.002470 0.001435 0.000000 0.000000 0.000000
# 2 -0.002470 0.007155 -0.002232 0.000000 0.000000 0.000000
# 3 0.001435 -0.002232 0.011019 0.000000 0.000000 0.000000
# 4 0.000000 0.000000 0.000000 0.026102 0.000000 0.000000
# 5 0.000000 0.000000 0.000000 0.000000 0.043232 0.000000
# 6 0.000000 0.000000 0.000000 0.000000 0.000000 0.044411
#
#
# Mechanical properties :
#
#
# Convention : Reuss Voigt Hill
#
# Bulk Modulus (GPa) = 25.50909 40.67654 33.09281
# Shear Modulus (GPa) = 27.92009 33.35604 30.63806
#
# Velocity S-wave (km/s) = 3.42496 3.74356 3.58780
# Velocity P-wave (km/s) = 5.13400 5.98127 5.57375
#
# Compressibility (1/GPa) = 0.03920171
#
# Stress axis : x y z
#
# Youngs Moduli (GPa) = 36.28188 139.75657 90.75136
#
# Poissons Ratio (x) = 0.34526 -0.13020
# Poissons Ratio (y) = 0.08963 0.20252
# Poissons Ratio (z) = -0.05205 0.31188
#
# Static dielectric constant tensor:
#      x y z
#    x 1.939150 0.000000 0.000000 
#    y 0.000000 2.079590 0.000000 
#    z 0.000000 0.000000 1.888670 
# 
# From -- ./inp_files/33183.got.cif
#   From: 2010.05.17/outbox.cif.g08.bks.cpg/sg22_17_cif.got.tgz:33183.got - 2010.06.03 23:40:54.
