data_PCOD9327945
_publ_section_title
;
Structure prediction by ZEFSAII (Michael W. Deem and Ramdas Pophale) SiO2 
 PCOD9327945
Probable space group: F 2 2 2
;
_chemical_formula_sum "Si O2"
_cell_formula_units_Z 64
_cell_length_a 9.625857
_cell_length_b 26.026723
_cell_length_c 12.012865
_cell_angle_alpha 90.000000
_cell_angle_beta 90.000000
_cell_angle_gamma 90.000000
_cell_volume 3009.577228
_symmetry_space_group_name_H-M "F 2 2 2"
_symmetry_group_IT_number 22
_symmetry_cell_setting 'orthorhombic'
loop_
_space_group_symop_operation_xyz
x,y,z
-x,-y,z
x,-y,-z
-x,y,-z
x,1/2+y,1/2+z
-x,1/2-y,1/2+z
x,1/2-y,1/2-z
-x,1/2+y,1/2-z
1/2+x,y,1/2+z
1/2-x,-y,1/2+z
1/2+x,-y,1/2-z
1/2-x,y,1/2-z
1/2+x,1/2+y,z
1/2-x,1/2-y,z
1/2+x,1/2-y,-z
1/2-x,1/2+y,-z
loop_
_atom_site_type_symbol
_atom_site_label
_atom_site_fract_x
_atom_site_fract_y
_atom_site_fract_z
Si Si1 0.500000 0.083761 0.500000
Si Si2 0.000000 0.764594 0.500000
Si Si3 0.582951 0.549622 0.245351
Si Si4 0.661886 0.327345 0.088789
Si Si5 0.471977 0.842063 0.180550
O O1 0.531224 0.055779 0.616359
O O2 0.372564 0.122699 0.517319
O O3 0.877350 0.725426 0.530788
O O4 0.047872 0.801505 0.601344
O O5 0.500000 0.500000 0.290010
O O6 0.750000 0.543481 0.250000
O O7 0.536764 0.601156 0.311990
O O8 0.553372 0.326667 0.192127
O O9 0.816125 0.336713 0.131644
#
# Coordination Sequence:
#
# PCOD9327945 Si02
#       5
#     8   8  16  16  16
#     4   9  21  42  73  96 137 178 237 293 366 426
#     4  11  20  34  64 102 132 182 230 279 354 430
#     4  11  26  46  72 104 140 189 244 310 367 429
#     4   9  20  40  67  94 134 186 228 288 357 430
#     4  10  22  40  65  96 139 177 237 296 351 437
#
# _framework density 21.265447000000002
#
# number of rings (size 3 to 8) (size 9 to 14) (size 15 to 20)
#    0.000    2.000    0.000    1.875   10.500    2.000 
#    4.500    0.625    0.000    0.000    0.000    0.000 
#    0.000    0.000    0.000    0.000    0.000    0.000 
#
# Total GULP energy -89194.671227 kJ/mol
# GULP energy per Si atom -5574.666952 kJ/mol
# Density = 2.121705 g / cm^3
# Si number density = 21.265447 Si / 1000 Ang^3
#
#
#
# Elastic Constant Matrix: (Units=GPa)
#
#
# Indices 1 2 3 4 5 6 
#
# 1 109.5731 84.9998 20.6914 0.0000 0.0000 0.0000
# 2 84.9998 183.6240 48.7638 0.0000 0.0000 0.0000
# 3 20.6914 48.7638 39.5890 0.0000 0.0000 0.0000
# 4 0.0000 0.0000 0.0000 124.2022 0.0000 0.0000
# 5 0.0000 0.0000 0.0000 0.0000 24.5342 0.0000
# 6 0.0000 0.0000 0.0000 0.0000 0.0000 29.9995
#
#
#
# Elastic Compliance Matrix: (Units=1/GPa)
#
#
# Indices 1 2 3 4 5 6 
#
# 1 0.014267 -0.006872 0.001008 0.000000 0.000000 0.000000
# 2 -0.006872 0.011403 -0.010454 0.000000 0.000000 0.000000
# 3 0.001008 -0.010454 0.037610 0.000000 0.000000 0.000000
# 4 0.000000 0.000000 0.000000 0.008051 0.000000 0.000000
# 5 0.000000 0.000000 0.000000 0.000000 0.040759 0.000000
# 6 0.000000 0.000000 0.000000 0.000000 0.000000 0.033334
#
#
# Mechanical properties :
#
#
# Convention : Reuss Voigt Hill
#
# Bulk Modulus (GPa) = 32.63377 71.29958 51.96667
# Shear Modulus (GPa) = 26.55685 47.63590 37.09638
#
# Velocity S-wave (km/s) = 3.53771 4.73806 4.18119
# Velocity P-wave (km/s) = 5.66272 7.97079 6.91375
#
# Compressibility (1/GPa) = 0.03064310
#
# Stress axis : x y z
#
# Youngs Moduli (GPa) = 70.09362 87.69567 26.58870
#
# Poissons Ratio (x) = 0.60261 -0.02679
# Poissons Ratio (y) = 0.48166 0.27797
# Poissons Ratio (z) = -0.07063 0.91679
#
# Static dielectric constant tensor:
#      x y z
#    x 1.747120 0.000000 0.000000 
#    y 0.000000 1.771320 0.000000 
#    z 0.000000 0.000000 1.846420 
# 
# From -- ./inp_files/26913.got.cif
#   From: 2010.05.17/outbox.cif.g08.bks.cpg/sg22_14_cif.got.tgz:26913.got - 2010.06.03 23:40:54.
