data_PCOD9327705
_publ_section_title
;
Structure prediction by ZEFSAII (Michael W. Deem and Ramdas Pophale) SiO2 
 PCOD9327705
Probable space group: F 2 2 2
;
_chemical_formula_sum "Si O2"
_cell_formula_units_Z 120
_cell_length_a 21.689235
_cell_length_b 12.072522
_cell_length_c 21.043150
_cell_angle_alpha 90.000000
_cell_angle_beta 90.000000
_cell_angle_gamma 90.000000
_cell_volume 5510.017659
_symmetry_space_group_name_H-M "F 2 2 2"
_symmetry_group_IT_number 22
_symmetry_cell_setting 'orthorhombic'
loop_
_space_group_symop_operation_xyz
x,y,z
-x,-y,z
x,-y,-z
-x,y,-z
x,1/2+y,1/2+z
-x,1/2-y,1/2+z
x,1/2-y,1/2-z
-x,1/2+y,1/2-z
1/2+x,y,1/2+z
1/2-x,-y,1/2+z
1/2+x,-y,1/2-z
1/2-x,y,1/2-z
1/2+x,1/2+y,z
1/2-x,1/2-y,z
1/2+x,1/2-y,-z
1/2-x,1/2+y,-z
loop_
_atom_site_type_symbol
_atom_site_label
_atom_site_fract_x
_atom_site_fract_y
_atom_site_fract_z
Si Si1 0.429376 0.032806 0.360700
Si Si2 0.774193 0.863289 0.650389
Si Si3 0.750000 0.052935 0.750000
Si Si4 0.432826 0.044418 0.100202
Si Si5 0.385091 0.874114 0.764692
Si Si6 0.893145 0.310949 0.082409
Si Si7 0.668517 0.094406 0.445961
Si Si8 0.523758 0.270573 0.932972
O O1 0.417011 0.045306 0.286350
O O2 0.429675 0.151993 0.395480
O O3 0.500000 0.000000 0.372824
O O4 0.378651 0.955189 0.393218
O O5 0.750000 0.750000 0.679953
O O6 0.760453 0.970532 0.691173
O O7 0.845019 0.833278 0.638800
O O8 0.735175 0.882873 0.585377
O O9 0.687236 0.121207 0.746941
O O10 0.397740 0.086560 0.163480
O O11 0.444653 0.151873 0.057094
O O12 0.500000 0.000000 0.121356
O O13 0.403802 0.939365 0.064675
O O14 0.408156 0.750000 0.750000
O O15 0.860474 0.216230 0.039003
O O16 0.959287 0.259419 0.101906
O O17 0.671068 0.000000 0.500000
O O18 0.500000 0.319123 0.000000
#
# Coordination Sequence:
#
# PCOD9327705 Si02
#       8
#    16  16   8  16  16  16  16  16
#     4  12  24  40  67 101 134 176 222 283 355 408
#     4  10  22  41  66  95 130 174 222 282 335 404
#     4  12  22  42  68  94 124 176 230 268 346 418
#     4  10  22  41  64  94 132 170 215 274 339 407
#     4  12  24  43  64  95 132 173 222 283 341 419
#     4  10  21  42  67  91 134 172 219 280 338 400
#     4  11  23  42  67 100 134 174 231 284 342 410
#     4  11  23  41  67  98 130 178 228 274 340 418
#
# _framework density 21.778516
#
# number of rings (size 3 to 8) (size 9 to 14) (size 15 to 20)
#    0.000    1.067    5.333    1.600    0.000    2.400 
#    2.400    0.667    8.800    0.000    0.000    0.000 
#    0.000    0.000    0.000    0.000    0.000    0.000 
#
# Total GULP energy -167292.947174 kJ/mol
# GULP energy per Si atom -5576.431572 kJ/mol
# Density = 2.172895 g / cm^3
# Si number density = 21.778516 Si / 1000 Ang^3
#
#
#
# Elastic Constant Matrix: (Units=GPa)
#
#
# Indices 1 2 3 4 5 6 
#
# 1 65.6606 4.0638 8.6718 0.0000 0.0000 0.0000
# 2 4.0638 115.7773 19.5211 0.0000 0.0000 0.0000
# 3 8.6718 19.5211 80.3941 0.0000 0.0000 0.0000
# 4 0.0000 0.0000 0.0000 33.0371 0.0000 0.0000
# 5 0.0000 0.0000 0.0000 0.0000 14.4829 0.0000
# 6 0.0000 0.0000 0.0000 0.0000 0.0000 31.5858
#
#
#
# Elastic Compliance Matrix: (Units=1/GPa)
#
#
# Indices 1 2 3 4 5 6 
#
# 1 0.015458 -0.000273 -0.001601 0.000000 0.000000 0.000000
# 2 -0.000273 0.009011 -0.002159 0.000000 0.000000 0.000000
# 3 -0.001601 -0.002159 0.013136 0.000000 0.000000 0.000000
# 4 0.000000 0.000000 0.000000 0.030269 0.000000 0.000000
# 5 0.000000 0.000000 0.000000 0.000000 0.069047 0.000000
# 6 0.000000 0.000000 0.000000 0.000000 0.000000 0.031660
#
#
# Mechanical properties :
#
#
# Convention : Reuss Voigt Hill
#
# Bulk Modulus (GPa) = 33.85267 36.26059 35.05663
# Shear Modulus (GPa) = 26.81088 31.12620 28.96854
#
# Velocity S-wave (km/s) = 3.51247 3.78460 3.65107
# Velocity P-wave (km/s) = 5.65930 5.98193 5.82285
#
# Compressibility (1/GPa) = 0.02953977
#
# Stress axis : x y z
#
# Youngs Moduli (GPa) = 64.69067 110.97805 76.12907
#
# Poissons Ratio (x) = 0.03025 0.12190
# Poissons Ratio (y) = 0.01763 0.16433
# Poissons Ratio (z) = 0.10358 0.23955
#
# Static dielectric constant tensor:
#      x y z
#    x 1.773180 0.000000 0.000000 
#    y 0.000000 1.851540 0.000000 
#    z 0.000000 0.000000 1.788600 
# 
# From -- ./inp_files/45416.got.cif
#   From: 2010.05.17/outbox.cif.g08.bks.cpg/sg22_23_cif.got.tgz:45416.got - 2010.06.03 23:40:54.
