data_PCOD9327364
_publ_section_title
;
Structure prediction by ZEFSAII (Michael W. Deem and Ramdas Pophale) SiO2 
 PCOD9327364
Probable space group: F 2 2 2
;
_chemical_formula_sum "Si O2"
_cell_formula_units_Z 60
_cell_length_a 8.287873
_cell_length_b 17.036861
_cell_length_c 18.315057
_cell_angle_alpha 90.000000
_cell_angle_beta 90.000000
_cell_angle_gamma 90.000000
_cell_volume 2586.073966
_symmetry_space_group_name_H-M "F 2 2 2"
_symmetry_group_IT_number 22
_symmetry_cell_setting 'orthorhombic'
loop_
_space_group_symop_operation_xyz
x,y,z
-x,-y,z
x,-y,-z
-x,y,-z
x,1/2+y,1/2+z
-x,1/2-y,1/2+z
x,1/2-y,1/2-z
-x,1/2+y,1/2-z
1/2+x,y,1/2+z
1/2-x,-y,1/2+z
1/2+x,-y,1/2-z
1/2-x,y,1/2-z
1/2+x,1/2+y,z
1/2-x,1/2-y,z
1/2+x,1/2-y,-z
1/2-x,1/2+y,-z
loop_
_atom_site_type_symbol
_atom_site_label
_atom_site_fract_x
_atom_site_fract_y
_atom_site_fract_z
Si Si1 0.750000 0.750000 0.750000
Si Si2 0.656607 0.853376 0.122261
Si Si3 0.000000 0.500000 0.129564
Si Si4 0.724643 0.581731 0.968631
Si Si5 0.012910 0.192327 0.865213
O O1 0.863406 0.804000 0.799175
O O2 0.592581 0.928709 0.166000
O O3 0.526214 0.783703 0.116959
O O4 0.832457 0.834079 0.154039
O O5 0.699839 0.874275 0.038183
O O6 0.131034 0.548949 0.082257
O O7 0.598788 0.638092 0.926413
O O8 0.657461 0.500000 0.000000
#
# Coordination Sequence:
#
# PCOD9327364 Si02
#       5
#     4  16   8  16  16
#     4  12  28  46  64  92 136 190 240 276 320 410
#     4  10  22  39  66 103 134 171 224 290 347 397
#     4  10  21  36  60 100 146 170 200 266 351 420
#     4  10  21  40  69 105 139 169 212 285 358 405
#     4  11  25  42  66  95 133 182 231 275 332 409
#
# _framework density 23.201191999999999
#
# number of rings (size 3 to 8) (size 9 to 14) (size 15 to 20)
#    0.000    1.600    0.000    6.000    0.000   22.400 
#    0.000    0.000    0.000   57.600    0.000    0.000 
#    0.000    0.000    0.000    0.000    0.000    0.000 
#
# Total GULP energy -83723.029599 kJ/mol
# GULP energy per Si atom -5581.535307 kJ/mol
# Density = 2.314839 g / cm^3
# Si number density = 23.201192 Si / 1000 Ang^3
#
#
#
# Elastic Constant Matrix: (Units=GPa)
#
#
# Indices 1 2 3 4 5 6 
#
# 1 134.0420 78.1110 36.3040 0.0000 0.0000 0.0000
# 2 78.1110 178.0648 46.5900 0.0000 0.0000 0.0000
# 3 36.3040 46.5900 63.2720 0.0000 0.0000 0.0000
# 4 0.0000 0.0000 0.0000 -6.2908 0.0000 0.0000
# 5 0.0000 0.0000 0.0000 0.0000 -6.9423 0.0000
# 6 0.0000 0.0000 0.0000 0.0000 0.0000 39.5418
#
#
#
# Elastic Compliance Matrix: (Units=1/GPa)
#
#
# Indices 1 2 3 4 5 6 
#
# 1 0.010543 -0.003768 -0.003275 0.000000 0.000000 0.000000
# 2 -0.003768 0.008303 -0.003952 0.000000 0.000000 0.000000
# 3 -0.003275 -0.003952 0.020594 0.000000 0.000000 0.000000
# 4 0.000000 0.000000 0.000000 -0.158963 0.000000 0.000000
# 5 0.000000 0.000000 0.000000 0.000000 -0.144045 0.000000
# 6 0.000000 0.000000 0.000000 0.000000 0.000000 0.025290
#
#
# Mechanical properties :
#
#
# Convention : Reuss Voigt Hill
#
# Bulk Modulus (GPa) = 57.30536 77.48766 67.39651
# Shear Modulus (GPa) = -23.75602 19.55335 -2.10134
#
# Velocity S-wave (km/s) = -3.20334 2.90621 -0.95272
# Velocity P-wave (km/s) = 3.32733 6.68820 5.28219
#
# Compressibility (1/GPa) = 0.01745037
#
# Stress axis : x y z
#
# Youngs Moduli (GPa) = 94.84909 120.44136 48.55882
#
# Poissons Ratio (x) = 0.45383 0.15902
# Poissons Ratio (y) = 0.35740 0.19189
# Poissons Ratio (z) = 0.31061 0.47595
#
# Static dielectric constant tensor:
#      x y z
#    x 1.930310 0.000000 0.000000 
#    y 0.000000 1.943470 0.000000 
#    z 0.000000 0.000000 1.879270 
# 
# From -- ./inp_files/34707.got.cif
#   From: 2010.05.17/outbox.cif.g08.bks.cpg/sg22_18_cif.got.tgz:34707.got - 2010.06.03 23:40:54.
