data_PCOD9327267
_publ_section_title
;
Structure prediction by ZEFSAII (Michael W. Deem and Ramdas Pophale) SiO2 
 PCOD9327267
Probable space group: F 2 2 2
;
_chemical_formula_sum "Si O2"
_cell_formula_units_Z 72
_cell_length_a 6.317119
_cell_length_b 21.158813
_cell_length_c 21.514540
_cell_angle_alpha 90.000000
_cell_angle_beta 90.000000
_cell_angle_gamma 90.000000
_cell_volume 2875.692358
_symmetry_space_group_name_H-M "F 2 2 2"
_symmetry_group_IT_number 22
_symmetry_cell_setting 'orthorhombic'
loop_
_space_group_symop_operation_xyz
x,y,z
-x,-y,z
x,-y,-z
-x,y,-z
x,1/2+y,1/2+z
-x,1/2-y,1/2+z
x,1/2-y,1/2-z
-x,1/2+y,1/2-z
1/2+x,y,1/2+z
1/2-x,-y,1/2+z
1/2+x,-y,1/2-z
1/2-x,y,1/2-z
1/2+x,1/2+y,z
1/2-x,1/2-y,z
1/2+x,1/2-y,-z
1/2-x,1/2+y,-z
loop_
_atom_site_type_symbol
_atom_site_label
_atom_site_fract_x
_atom_site_fract_y
_atom_site_fract_z
Si Si1 0.235677 0.399019 0.930279
Si Si2 0.527304 0.348835 0.820951
Si Si3 0.250000 0.547536 0.750000
Si Si4 0.500000 0.000000 0.862369
Si Si5 0.000000 0.000000 0.000000
Si Si6 0.500000 0.300894 0.000000
Si Si7 0.750000 0.250000 0.891717
Si Si8 0.250000 0.250000 0.750000
O O1 0.376131 0.375376 0.873629
O O2 0.027184 0.435106 0.902866
O O3 0.351794 0.458859 0.958018
O O4 0.294476 0.345055 0.982548
O O5 0.570285 0.403654 0.771868
O O6 0.734504 0.313592 0.850347
O O7 0.400914 0.292436 0.790699
O O8 0.310597 0.509941 0.687703
O O9 0.444544 0.259387 0.060399
#
# Coordination Sequence:
#
# PCOD9327267 Si02
#       8
#    16  16   8   8   4   8   8   4
#     4  10  22  40  62  89 124 161 202 251 302 359
#     4  11  23  41  62  91 124 161 204 253 302 361
#     4  12  24  40  62  92 124 160 206 252 302 364
#     4  12  24  40  64  92 122 164 204 248 306 362
#     4  10  20  44  64  88 124 160 204 258 300 358
#     4   9  22  41  64  92 126 157 200 253 304 362
#     4  10  22  40  66  94 124 160 202 250 306 366
#     4  12  24  42  64  88 124 166 204 252 304 354
#
# _framework density 25.037448999999999
#
# number of rings (size 3 to 8) (size 9 to 14) (size 15 to 20)
#    0.000    1.333    0.000    5.333    0.000    5.778 
#    0.000    2.222    0.000    0.000    0.000    0.000 
#    0.000    0.000    0.000    0.000    0.000    0.000 
#
# Total GULP energy -100455.839118 kJ/mol
# GULP energy per Si atom -5580.879951 kJ/mol
# Density = 2.498046 g / cm^3
# Si number density = 25.037449 Si / 1000 Ang^3
#
#
#
# Elastic Constant Matrix: (Units=GPa)
#
#
# Indices 1 2 3 4 5 6 
#
# 1 45.7190 42.0979 17.8552 0.0000 0.0000 0.0000
# 2 42.0979 101.1104 40.7479 0.0000 0.0000 0.0000
# 3 17.8552 40.7479 95.5478 0.0000 0.0000 0.0000
# 4 0.0000 0.0000 0.0000 31.7843 0.0000 0.0000
# 5 0.0000 0.0000 0.0000 0.0000 40.2694 0.0000
# 6 0.0000 0.0000 0.0000 0.0000 0.0000 49.6413
#
#
#
# Elastic Compliance Matrix: (Units=1/GPa)
#
#
# Indices 1 2 3 4 5 6 
#
# 1 0.035485 -0.014613 -0.000399 0.000000 0.000000 0.000000
# 2 -0.014613 0.017961 -0.004929 0.000000 0.000000 0.000000
# 3 -0.000399 -0.004929 0.012643 0.000000 0.000000 0.000000
# 4 0.000000 0.000000 0.000000 0.031462 0.000000 0.000000
# 5 0.000000 0.000000 0.000000 0.000000 0.024833 0.000000
# 6 0.000000 0.000000 0.000000 0.000000 0.000000 0.020145
#
#
# Mechanical properties :
#
#
# Convention : Reuss Voigt Hill
#
# Bulk Modulus (GPa) = 38.15993 49.30881 43.73437
# Shear Modulus (GPa) = 26.15814 33.78408 29.97111
#
# Velocity S-wave (km/s) = 3.23578 3.67732 3.46360
# Velocity P-wave (km/s) = 5.40690 6.14549 5.78799
#
# Compressibility (1/GPa) = 0.02620550
#
# Stress axis : x y z
#
# Youngs Moduli (GPa) = 28.18126 55.67639 79.09823
#
# Poissons Ratio (x) = 0.81362 0.03155
# Poissons Ratio (y) = 0.41183 0.38987
# Poissons Ratio (z) = 0.01124 0.27442
#
# Static dielectric constant tensor:
#      x y z
#    x 0.792640 0.000000 0.000000 
#    y 0.000000 1.955070 0.000000 
#    z 0.000000 0.000000 2.056990 
# 
# From -- ./inp_files/4682.got.cif
#   From: 2010.05.17/outbox.cif.g08.bks.cpg/sg22_3_cif.got.tgz:4682.got - 2010.06.03 23:40:54.
