data_PCOD9327304
_publ_section_title
;
Structure prediction by ZEFSAII (Michael W. Deem and Ramdas Pophale) SiO2 
 PCOD9327304
Probable space group: F 2 2 2
;
_chemical_formula_sum "Si O2"
_cell_formula_units_Z 88
_cell_length_a 14.071001
_cell_length_b 24.218956
_cell_length_c 12.489447
_cell_angle_alpha 90.000000
_cell_angle_beta 90.000000
_cell_angle_gamma 90.000000
_cell_volume 4256.215623
_symmetry_space_group_name_H-M "F 2 2 2"
_symmetry_group_IT_number 22
_symmetry_cell_setting 'orthorhombic'
loop_
_space_group_symop_operation_xyz
x,y,z
-x,-y,z
x,-y,-z
-x,y,-z
x,1/2+y,1/2+z
-x,1/2-y,1/2+z
x,1/2-y,1/2-z
-x,1/2+y,1/2-z
1/2+x,y,1/2+z
1/2-x,-y,1/2+z
1/2+x,-y,1/2-z
1/2-x,y,1/2-z
1/2+x,1/2+y,z
1/2-x,1/2-y,z
1/2+x,1/2-y,-z
1/2-x,1/2+y,-z
loop_
_atom_site_type_symbol
_atom_site_label
_atom_site_fract_x
_atom_site_fract_y
_atom_site_fract_z
Si Si1 0.358203 0.758336 0.065279
Si Si2 0.690827 0.618980 0.506404
Si Si3 0.393258 0.649412 0.958736
Si Si4 0.507049 0.250000 0.750000
Si Si5 0.544729 0.940496 0.885079
Si Si6 0.905952 0.134144 0.717168
O O1 0.250000 0.750000 0.103378
O O2 0.434845 0.739115 0.152002
O O3 0.362098 0.823374 0.039231
O O4 0.375175 0.715842 0.967174
O O5 0.803201 0.625762 0.522880
O O6 0.653190 0.569851 0.582893
O O7 0.662545 0.614663 0.379640
O O8 0.377450 0.626529 0.839627
O O9 0.500000 0.637743 0.000000
O O10 0.570398 0.198724 0.785958
O O11 0.504726 0.898093 0.800050
O O12 0.500000 0.000000 0.860893
O O13 0.500000 0.924437 0.000000
#
# Coordination Sequence:
#
# PCOD9327304 Si02
#       6
#    16  16  16   8  16  16
#     4  10  21  34  52  85 128 171 202 244 300 372
#     4  10  21  37  59  87 120 161 211 250 307 362
#     4  11  22  37  55  87 128 166 196 246 308 372
#     4  12  19  32  57  90 128 162 208 245 313 366
#     4   9  19  38  65  91 113 151 209 265 304 353
#     4  11  21  33  61  89 122 158 198 255 312 366
#
# _framework density 20.675643000000001
#
# number of rings (size 3 to 8) (size 9 to 14) (size 15 to 20)
#    0.000    1.636    3.636    1.909    0.000    0.000 
#    0.000    4.545    0.000   18.000    0.000    0.000 
#    0.000    0.000    0.000    0.000    0.000    0.000 
#
# Total GULP energy -122525.529508 kJ/mol
# GULP energy per Si atom -5569.342250 kJ/mol
# Density = 2.062858 g / cm^3
# Si number density = 20.675643 Si / 1000 Ang^3
#
#
#
# Elastic Constant Matrix: (Units=GPa)
#
#
# Indices 1 2 3 4 5 6 
#
# 1 130.7101 33.4101 4.7832 0.0000 0.0000 0.0000
# 2 33.4101 74.0413 19.5370 0.0000 0.0000 0.0000
# 3 4.7832 19.5370 34.1168 0.0000 0.0000 0.0000
# 4 0.0000 0.0000 0.0000 17.4122 0.0000 0.0000
# 5 0.0000 0.0000 0.0000 0.0000 22.8596 0.0000
# 6 0.0000 0.0000 0.0000 0.0000 0.0000 19.9644
#
#
#
# Elastic Compliance Matrix: (Units=1/GPa)
#
#
# Indices 1 2 3 4 5 6 
#
# 1 0.008690 -0.004241 0.001210 0.000000 0.000000 0.000000
# 2 -0.004241 0.017979 -0.009701 0.000000 0.000000 0.000000
# 3 0.001210 -0.009701 0.034697 0.000000 0.000000 0.000000
# 4 0.000000 0.000000 0.000000 0.057431 0.000000 0.000000
# 5 0.000000 0.000000 0.000000 0.000000 0.043745 0.000000
# 6 0.000000 0.000000 0.000000 0.000000 0.000000 0.050089
#
#
# Mechanical properties :
#
#
# Convention : Reuss Voigt Hill
#
# Bulk Modulus (GPa) = 27.85319 39.36986 33.61153
# Shear Modulus (GPa) = 19.99495 24.12309 22.05902
#
# Velocity S-wave (km/s) = 3.11316 3.41946 3.26990
# Velocity P-wave (km/s) = 5.14034 5.88840 5.52704
#
# Compressibility (1/GPa) = 0.03590253
#
# Stress axis : x y z
#
# Youngs Moduli (GPa) = 115.07272 55.61943 28.82107
#
# Poissons Ratio (x) = 0.23586 -0.03487
# Poissons Ratio (y) = 0.48798 0.27960
# Poissons Ratio (z) = -0.13924 0.53958
#
# Static dielectric constant tensor:
#      x y z
#    x 1.845450 0.000000 0.000000 
#    y 0.000000 1.754570 0.000000 
#    z 0.000000 0.000000 1.793950 
# 
# From -- ./inp_files/20144.got.cif
#   From: 2010.05.17/outbox.cif.g08.bks.cpg/sg22_11_cif.got.tgz:20144.got - 2010.06.03 23:40:54.
