data_PCOD9327619
_publ_section_title
;
Structure prediction by ZEFSAII (Michael W. Deem and Ramdas Pophale) SiO2 
 PCOD9327619
Probable space group: F 2 2 2
;
_chemical_formula_sum "Si O2"
_cell_formula_units_Z 48
_cell_length_a 5.383776
_cell_length_b 20.003654
_cell_length_c 19.798991
_cell_angle_alpha 90.000000
_cell_angle_beta 90.000000
_cell_angle_gamma 90.000000
_cell_volume 2132.256143
_symmetry_space_group_name_H-M "F 2 2 2"
_symmetry_group_IT_number 22
_symmetry_cell_setting 'orthorhombic'
loop_
_space_group_symop_operation_xyz
x,y,z
-x,-y,z
x,-y,-z
-x,y,-z
x,1/2+y,1/2+z
-x,1/2-y,1/2+z
x,1/2-y,1/2-z
-x,1/2+y,1/2-z
1/2+x,y,1/2+z
1/2-x,-y,1/2+z
1/2+x,-y,1/2-z
1/2-x,y,1/2-z
1/2+x,1/2+y,z
1/2-x,1/2-y,z
1/2+x,1/2-y,-z
1/2-x,1/2+y,-z
loop_
_atom_site_type_symbol
_atom_site_label
_atom_site_fract_x
_atom_site_fract_y
_atom_site_fract_z
Si Si1 0.500000 0.500000 0.500000
Si Si2 0.097479 0.681276 0.145600
Si Si3 0.744198 0.961627 0.866100
Si Si4 0.250000 0.250000 0.250000
Si Si5 0.000000 0.706574 0.000000
O O1 0.681672 0.462592 0.447030
O O2 0.250000 0.750000 0.141408
O O3 0.250887 0.614394 0.159303
O O4 0.978453 0.669596 0.071618
O O5 0.903469 0.700287 0.202480
O O6 0.500000 0.000000 0.837187
O O7 0.000000 0.000000 0.853952
O O8 0.250000 0.750000 0.002675
#
# Coordination Sequence:
#
# PCOD9327619 Si02
#       5
#     4  16  16   4   8
#     4   8  20  40  70 108 150 194 240 318 364 456
#     4  11  25  45  75 108 153 195 254 310 375 452
#     4  10  23  41  69 103 150 195 246 306 377 442
#     4  12  26  48  76 114 148 206 248 324 374 456
#     4  10  21  40  67 110 145 191 244 308 371 440
#
# _framework density 22.511365999999999
#
# number of rings (size 3 to 8) (size 9 to 14) (size 15 to 20)
#    1.000    0.667    1.667    2.000    4.667    0.000 
#   12.000    0.000    7.333    0.000    0.000    0.000 
#    0.000    0.000    0.000    0.000    0.000    0.000 
#
# Total GULP energy -66903.347148 kJ/mol
# GULP energy per Si atom -5575.278929 kJ/mol
# Density = 2.246013 g / cm^3
# Si number density = 22.511366 Si / 1000 Ang^3
#
#
#
# Elastic Constant Matrix: (Units=GPa)
#
#
# Indices 1 2 3 4 5 6 
#
# 1 152.9554 85.3082 47.8330 0.0000 0.0000 0.0000
# 2 85.3082 195.2402 41.7392 0.0000 0.0000 0.0000
# 3 47.8330 41.7392 119.4545 0.0000 0.0000 0.0000
# 4 0.0000 0.0000 0.0000 3.2021 0.0000 0.0000
# 5 0.0000 0.0000 0.0000 0.0000 113.4123 0.0000
# 6 0.0000 0.0000 0.0000 0.0000 0.0000 34.2665
#
#
#
# Elastic Compliance Matrix: (Units=1/GPa)
#
#
# Indices 1 2 3 4 5 6 
#
# 1 0.009280 -0.003524 -0.002485 0.000000 0.000000 0.000000
# 2 -0.003524 0.006873 -0.000991 0.000000 0.000000 0.000000
# 3 -0.002485 -0.000991 0.009713 0.000000 0.000000 0.000000
# 4 0.000000 0.000000 0.000000 0.312299 0.000000 0.000000
# 5 0.000000 0.000000 0.000000 0.000000 0.008817 0.000000
# 6 0.000000 0.000000 0.000000 0.000000 0.000000 0.029183
#
#
# Mechanical properties :
#
#
# Convention : Reuss Voigt Hill
#
# Bulk Modulus (GPa) = 84.26219 90.82344 87.54281
# Shear Modulus (GPa) = 12.68649 49.69415 31.19032
#
# Velocity S-wave (km/s) = 2.37652 4.70352 3.72632
# Velocity P-wave (km/s) = 6.71138 8.36245 7.58199
#
# Compressibility (1/GPa) = 0.01186772
#
# Stress axis : x y z
#
# Youngs Moduli (GPa) = 107.75641 145.49027 102.95970
#
# Poissons Ratio (x) = 0.51266 0.25584
# Poissons Ratio (y) = 0.37970 0.10200
# Poissons Ratio (z) = 0.26776 0.14413
#
# Static dielectric constant tensor:
#      x y z
#    x 1.813050 0.000000 0.000000 
#    y 0.000000 1.621990 0.000000 
#    z 0.000000 0.000000 1.934220 
# 
# From -- ./inp_files/40749.got.cif
#   From: 2010.05.17/outbox.cif.g08.bks.cpg/sg22_21_cif.got.tgz:40749.got - 2010.06.03 23:40:54.
