data_PCOD9327413
_publ_section_title
;
Structure prediction by ZEFSAII (Michael W. Deem and Ramdas Pophale) SiO2 
 PCOD9327413
Probable space group: F 2 2 2
;
_chemical_formula_sum "Si O2"
_cell_formula_units_Z 104
_cell_length_a 22.358137
_cell_length_b 26.079437
_cell_length_c 8.662562
_cell_angle_alpha 90.000000
_cell_angle_beta 90.000000
_cell_angle_gamma 90.000000
_cell_volume 5051.032706
_symmetry_space_group_name_H-M "F 2 2 2"
_symmetry_group_IT_number 22
_symmetry_cell_setting 'orthorhombic'
loop_
_space_group_symop_operation_xyz
x,y,z
-x,-y,z
x,-y,-z
-x,y,-z
x,1/2+y,1/2+z
-x,1/2-y,1/2+z
x,1/2-y,1/2-z
-x,1/2+y,1/2-z
1/2+x,y,1/2+z
1/2-x,-y,1/2+z
1/2+x,-y,1/2-z
1/2-x,y,1/2-z
1/2+x,1/2+y,z
1/2-x,1/2-y,z
1/2+x,1/2-y,-z
1/2-x,1/2+y,-z
loop_
_atom_site_type_symbol
_atom_site_label
_atom_site_fract_x
_atom_site_fract_y
_atom_site_fract_z
Si Si1 0.750000 0.125102 0.250000
Si Si2 0.434790 0.393068 0.342926
Si Si3 0.814818 0.429788 0.691921
Si Si4 0.439465 0.911660 0.185809
Si Si5 0.175665 0.529414 0.155824
Si Si6 0.946474 0.295246 0.625243
Si Si7 0.858968 0.854479 0.930589
O O1 0.790379 0.083675 0.343497
O O2 0.799526 0.158465 0.164222
O O3 0.369904 0.415194 0.304451
O O4 0.435556 0.380562 0.524304
O O5 0.491798 0.428719 0.304220
O O6 0.450339 0.345605 0.232606
O O7 0.750000 0.410694 0.750000
O O8 0.811028 0.491526 0.700912
O O9 0.835237 0.401620 0.536738
O O10 0.394270 0.958339 0.164763
O O11 0.411851 0.877723 0.323727
O O12 0.191019 0.500000 0.000000
O O13 0.943802 0.250000 0.750000
O O14 0.886529 0.307931 0.527463
O O15 0.000000 0.289374 0.500000
#
# Coordination Sequence:
#
# PCOD9327413 Si02
#       7
#     8  16  16  16  16  16  16
#     4  10  22  34  64  90 137 184 221 278 322 382
#     4  10  22  41  61  91 134 168 214 274 351 403
#     4  11  22  37  59  92 135 182 233 286 315 383
#     4  10  21  37  61  91 129 179 215 276 338 403
#     4  11  20  34  55  93 130 176 245 273 315 376
#     4  11  24  43  73 107 127 157 214 283 350 431
#     4  10  23  41  65  98 135 175 222 279 349 403
#
# _framework density 20.589848
#
# number of rings (size 3 to 8) (size 9 to 14) (size 15 to 20)
#    0.000    1.538    3.846    0.923    4.308    2.462 
#    0.000    0.000    0.000   11.077    8.000    0.000 
#    0.000    0.000    0.000    0.000    0.000    0.000 
#
# Total GULP energy -144927.274635 kJ/mol
# GULP energy per Si atom -5574.125948 kJ/mol
# Density = 2.054298 g / cm^3
# Si number density = 20.589848 Si / 1000 Ang^3
#
#
#
# Elastic Constant Matrix: (Units=GPa)
#
#
# Indices 1 2 3 4 5 6 
#
# 1 188.9043 43.3907 61.7652 0.0005 0.0005 0.0001
# 2 43.3907 53.1604 31.4207 0.0001 0.0000 0.0001
# 3 61.7652 31.4207 99.7565 0.0009 0.0021 0.0010
# 4 0.0005 0.0001 0.0009 32.6198 -0.0004 0.0001
# 5 0.0005 0.0000 0.0021 -0.0004 40.0405 -0.0005
# 6 0.0001 0.0001 0.0010 0.0001 -0.0005 15.0088
#
#
#
# Elastic Compliance Matrix: (Units=1/GPa)
#
#
# Indices 1 2 3 4 5 6 
#
# 1 0.007277 -0.004026 -0.003238 0.000000 0.000000 0.000000
# 2 -0.004026 0.025342 -0.005489 0.000000 0.000000 0.000000
# 3 -0.003238 -0.005489 0.013758 0.000000 -0.000001 -0.000001
# 4 0.000000 0.000000 0.000000 0.030656 0.000000 0.000000
# 5 0.000000 0.000000 -0.000001 0.000000 0.024975 0.000001
# 6 0.000000 0.000000 -0.000001 0.000000 0.000001 0.066627
#
#
# Mechanical properties :
#
#
# Convention : Reuss Voigt Hill
#
# Bulk Modulus (GPa) = 47.91345 68.33049 58.12197
# Shear Modulus (GPa) = 24.86356 31.21678 28.04017
#
# Velocity S-wave (km/s) = 3.47877 3.89797 3.69432
# Velocity P-wave (km/s) = 6.28146 7.31556 6.81814
#
# Compressibility (1/GPa) = 0.02087097
#
# Stress axis : x y z
#
# Youngs Moduli (GPa) = 137.41860 39.46080 72.68564
#
# Poissons Ratio (x) = 0.15887 0.23532
# Poissons Ratio (y) = 0.55327 0.39898
# Poissons Ratio (z) = 0.44490 0.21660
#
# Static dielectric constant tensor:
#      x y z
#    x 1.800750 0.000000 0.000000 
#    y 0.000000 1.718270 0.000000 
#    z 0.000000 0.000000 1.824300 
# 
# From -- ./inp_files/12968.got.cif
#   From: 2010.05.17/outbox.cif.g08.bks.cpg/sg22_7_cif.got.tgz:12968.got - 2010.06.03 23:40:54.
