data_PCOD9327288
_publ_section_title
;
Structure prediction by ZEFSAII (Michael W. Deem and Ramdas Pophale) SiO2 
 PCOD9327288
Probable space group: F 2 2 2
;
_chemical_formula_sum "Si O2"
_cell_formula_units_Z 52
_cell_length_a 11.478233
_cell_length_b 9.063565
_cell_length_c 19.509907
_cell_angle_alpha 90.000000
_cell_angle_beta 90.000000
_cell_angle_gamma 90.000000
_cell_volume 2029.688024
_symmetry_space_group_name_H-M "F 2 2 2"
_symmetry_group_IT_number 22
_symmetry_cell_setting 'orthorhombic'
loop_
_space_group_symop_operation_xyz
x,y,z
-x,-y,z
x,-y,-z
-x,y,-z
x,1/2+y,1/2+z
-x,1/2-y,1/2+z
x,1/2-y,1/2-z
-x,1/2+y,1/2-z
1/2+x,y,1/2+z
1/2-x,-y,1/2+z
1/2+x,-y,1/2-z
1/2-x,y,1/2-z
1/2+x,1/2+y,z
1/2-x,1/2-y,z
1/2+x,1/2-y,-z
1/2-x,1/2+y,-z
loop_
_atom_site_type_symbol
_atom_site_label
_atom_site_fract_x
_atom_site_fract_y
_atom_site_fract_z
Si Si1 0.633355 0.338382 0.123708
Si Si2 0.250000 0.250000 0.750000
Si Si3 0.738509 0.918756 0.064957
Si Si4 0.565757 0.648470 0.316069
O O1 0.750000 0.250000 0.099719
O O2 0.669577 0.352167 0.203507
O O3 0.643698 0.489597 0.082578
O O4 0.518028 0.241277 0.131184
O O5 0.750000 0.750000 0.045876
O O6 0.670099 0.910286 0.136649
O O7 0.680832 0.000000 0.000000
O O8 0.500000 0.500000 0.294458
O O9 0.594283 0.750000 0.250000
#
# Coordination Sequence:
#
# PCOD9327288 Si02
#       4
#    16   4  16  16
#     4  10  20  45  75 110 153 201 253 333 396 474
#     4   8  16  36  78 100 158 188 240 336 404 428
#     4  12  30  51  75 115 165 214 272 330 409 494
#     4  12  26  48  84 119 158 206 274 339 414 479
#
# _framework density 25.619700999999999
#
# number of rings (size 3 to 8) (size 9 to 14) (size 15 to 20)
#    0.923    0.000    4.615    0.923    4.308    1.231 
#    0.000    1.538    0.000    0.000    0.000    0.000 
#    0.000    0.000    0.000    0.000    0.000    0.000 
#
# Total GULP energy -72543.830305 kJ/mol
# GULP energy per Si atom -5580.294639 kJ/mol
# Density = 2.556139 g / cm^3
# Si number density = 25.619701 Si / 1000 Ang^3
#
#
#
# Elastic Constant Matrix: (Units=GPa)
#
#
# Indices 1 2 3 4 5 6 
#
# 1 70.9119 37.4949 23.9586 0.0000 0.0000 0.0000
# 2 37.4949 190.3504 70.3315 0.0000 0.0000 0.0000
# 3 23.9586 70.3315 152.8590 0.0000 0.0000 0.0000
# 4 0.0000 0.0000 0.0000 27.0599 0.0000 0.0000
# 5 0.0000 0.0000 0.0000 0.0000 -0.5291 0.0000
# 6 0.0000 0.0000 0.0000 0.0000 0.0000 41.9968
#
#
#
# Elastic Compliance Matrix: (Units=1/GPa)
#
#
# Indices 1 2 3 4 5 6 
#
# 1 0.015944 -0.002671 -0.001270 0.000000 0.000000 0.000000
# 2 -0.002671 0.006777 -0.002699 0.000000 0.000000 0.000000
# 3 -0.001270 -0.002699 0.007983 0.000000 0.000000 0.000000
# 4 0.000000 0.000000 0.000000 0.036955 0.000000 0.000000
# 5 0.000000 0.000000 0.000000 0.000000 -1.890170 0.000000
# 6 0.000000 0.000000 0.000000 0.000000 0.000000 0.023811
#
#
# Mechanical properties :
#
#
# Convention : Reuss Voigt Hill
#
# Bulk Modulus (GPa) = 57.39758 75.29904 66.34831
# Shear Modulus (GPa) = -2.80960 32.52797 14.85918
#
# Velocity S-wave (km/s) = -1.04835 3.56708 2.41091
# Velocity P-wave (km/s) = 4.58115 6.81324 5.80548
#
# Compressibility (1/GPa) = 0.01742234
#
# Stress axis : x y z
#
# Youngs Moduli (GPa) = 62.72144 147.55610 125.26529
#
# Poissons Ratio (x) = 0.39417 0.15907
# Poissons Ratio (y) = 0.16755 0.33815
# Poissons Ratio (z) = 0.07965 0.39833
#
# Static dielectric constant tensor:
#      x y z
#    x 2.087630 0.000000 0.000000 
#    y 0.000000 2.080470 0.000000 
#    z 0.000000 0.000000 2.186220 
# 
# From -- ./inp_files/9463.got.cif
#   From: 2010.05.17/outbox.cif.g08.bks.cpg/sg22_5_cif.got.tgz:9463.got - 2010.06.03 23:40:54.
