data_PCOD9327587
_publ_section_title
;
Structure prediction by ZEFSAII (Michael W. Deem and Ramdas Pophale) SiO2 
 PCOD9327587
Probable space group: F 2 2 2
;
_chemical_formula_sum "Si O2"
_cell_formula_units_Z 104
_cell_length_a 24.869409
_cell_length_b 15.313251
_cell_length_c 14.552221
_cell_angle_alpha 90.000000
_cell_angle_beta 90.000000
_cell_angle_gamma 90.000000
_cell_volume 5541.944184
_symmetry_space_group_name_H-M "F 2 2 2"
_symmetry_group_IT_number 22
_symmetry_cell_setting 'orthorhombic'
loop_
_space_group_symop_operation_xyz
x,y,z
-x,-y,z
x,-y,-z
-x,y,-z
x,1/2+y,1/2+z
-x,1/2-y,1/2+z
x,1/2-y,1/2-z
-x,1/2+y,1/2-z
1/2+x,y,1/2+z
1/2-x,-y,1/2+z
1/2+x,-y,1/2-z
1/2-x,y,1/2-z
1/2+x,1/2+y,z
1/2-x,1/2-y,z
1/2+x,1/2-y,-z
1/2-x,1/2+y,-z
loop_
_atom_site_type_symbol
_atom_site_label
_atom_site_fract_x
_atom_site_fract_y
_atom_site_fract_z
Si Si1 0.935369 0.493828 0.398227
Si Si2 0.305089 0.793106 0.017048
Si Si3 0.533729 0.250000 0.250000
Si Si4 0.122872 0.183438 0.856773
Si Si5 0.305041 0.592998 0.299672
Si Si6 0.540206 0.582514 0.273611
Si Si7 0.133364 0.057644 0.409318
O O1 0.912190 0.500000 0.500000
O O2 0.913960 0.401184 0.367575
O O3 0.924204 0.562599 0.317737
O O4 0.000000 0.500000 0.405733
O O5 0.250000 0.750000 0.983364
O O6 0.344789 0.717512 0.055319
O O7 0.293313 0.848312 0.110425
O O8 0.331603 0.860130 0.944962
O O9 0.577223 0.254799 0.332497
O O10 0.495862 0.333411 0.255225
O O11 0.162485 0.152832 0.774076
O O12 0.250000 0.566786 0.250000
O O13 0.336885 0.508739 0.338348
O O14 0.500000 0.500000 0.286879
O O15 0.579522 0.589854 0.359591
O O16 0.121440 0.000000 0.500000
#
# Coordination Sequence:
#
# PCOD9327587 Si02
#       7
#    16  16   8  16  16  16  16
#     4  10  21  40  63  88 126 167 214 268 311 371
#     4  11  23  39  61  97 130 157 220 281 315 377
#     4  12  22  36  67  96 123 174 220 252 326 400
#     4  12  21  38  67  94 125 166 218 269 316 377
#     4  11  20  38  68  91 117 172 217 264 331 377
#     4  11  22  42  63  90 134 174 213 262 323 389
#     4  10  24  43  62  93 134 170 211 265 324 391
#
# _framework density 18.765976999999999
#
# number of rings (size 3 to 8) (size 9 to 14) (size 15 to 20)
#    0.000    1.077    7.692    0.000    2.154    1.538 
#    2.769    1.538    0.000    0.000    0.000    0.000 
#    0.000    0.000    0.000    0.000    0.000    0.000 
#
# Total GULP energy -144845.920781 kJ/mol
# GULP energy per Si atom -5570.996953 kJ/mol
# Density = 1.872327 g / cm^3
# Si number density = 18.765977 Si / 1000 Ang^3
#
#
#
# Elastic Constant Matrix: (Units=GPa)
#
#
# Indices 1 2 3 4 5 6 
#
# 1 92.0075 52.4848 42.2642 0.0000 0.0000 0.0000
# 2 52.4848 97.1323 26.5157 0.0000 0.0000 0.0000
# 3 42.2642 26.5157 79.2180 0.0000 0.0000 0.0000
# 4 0.0000 0.0000 0.0000 21.1963 0.0000 0.0000
# 5 0.0000 0.0000 0.0000 0.0000 26.2351 0.0000
# 6 0.0000 0.0000 0.0000 0.0000 0.0000 31.7501
#
#
#
# Elastic Compliance Matrix: (Units=1/GPa)
#
#
# Indices 1 2 3 4 5 6 
#
# 1 0.018938 -0.008226 -0.007350 0.000000 0.000000 0.000000
# 2 -0.008226 0.014904 -0.000600 0.000000 0.000000 0.000000
# 3 -0.007350 -0.000600 0.016745 0.000000 0.000000 0.000000
# 4 0.000000 0.000000 0.000000 0.047178 0.000000 0.000000
# 5 0.000000 0.000000 0.000000 0.000000 0.038117 0.000000
# 6 0.000000 0.000000 0.000000 0.000000 0.000000 0.031496
#
#
# Mechanical properties :
#
#
# Convention : Reuss Voigt Hill
#
# Bulk Modulus (GPa) = 54.83997 56.76522 55.80260
# Shear Modulus (GPa) = 24.29443 25.64252 24.96847
#
# Velocity S-wave (km/s) = 3.60196 3.70054 3.65158
# Velocity P-wave (km/s) = 6.82534 6.96946 6.89778
#
# Compressibility (1/GPa) = 0.01823487
#
# Stress axis : x y z
#
# Youngs Moduli (GPa) = 52.80496 67.09600 59.71757
#
# Poissons Ratio (x) = 0.55196 0.43893
# Poissons Ratio (y) = 0.43439 0.03581
# Poissons Ratio (z) = 0.38812 0.04024
#
# Static dielectric constant tensor:
#      x y z
#    x 1.647900 0.000000 0.000000 
#    y 0.000000 1.659320 0.000000 
#    z 0.000000 0.000000 1.721140 
# 
# From -- ./inp_files/38938.got.cif
#   From: 2010.05.17/outbox.cif.g08.bks.cpg/sg22_20_cif.got.tgz:38938.got - 2010.06.03 23:40:54.
