data_PCOD9327105
_publ_section_title
;
Structure prediction by ZEFSAII (Michael W. Deem and Ramdas Pophale) SiO2 
 PCOD9327105
Probable space group: F 2 2 2
;
_chemical_formula_sum "Si O2"
_cell_formula_units_Z 88
_cell_length_a 14.828813
_cell_length_b 16.545383
_cell_length_c 19.020522
_cell_angle_alpha 90.000000
_cell_angle_beta 90.000000
_cell_angle_gamma 90.000000
_cell_volume 4666.654460
_symmetry_space_group_name_H-M "F 2 2 2"
_symmetry_group_IT_number 22
_symmetry_cell_setting 'orthorhombic'
loop_
_space_group_symop_operation_xyz
x,y,z
-x,-y,z
x,-y,-z
-x,y,-z
x,1/2+y,1/2+z
-x,1/2-y,1/2+z
x,1/2-y,1/2-z
-x,1/2+y,1/2-z
1/2+x,y,1/2+z
1/2-x,-y,1/2+z
1/2+x,-y,1/2-z
1/2-x,y,1/2-z
1/2+x,1/2+y,z
1/2-x,1/2-y,z
1/2+x,1/2-y,-z
1/2-x,1/2+y,-z
loop_
_atom_site_type_symbol
_atom_site_label
_atom_site_fract_x
_atom_site_fract_y
_atom_site_fract_z
Si Si1 0.822638 0.818776 0.508768
Si Si2 0.603015 0.340546 0.771254
Si Si3 0.776516 0.616030 0.144534
Si Si4 0.714010 0.044388 0.426176
Si Si5 0.000000 0.719762 0.500000
Si Si6 0.977623 0.592682 0.615814
O O1 0.750000 0.750000 0.523848
O O2 0.810668 0.844989 0.427588
O O3 0.796113 0.896498 0.554601
O O4 0.918260 0.777742 0.519897
O O5 0.576842 0.250000 0.750000
O O6 0.688944 0.338028 0.824424
O O7 0.645319 0.382614 0.702605
O O8 0.521448 0.386759 0.809108
O O9 0.742526 0.526120 0.126593
O O10 0.629869 0.094665 0.395656
O O11 0.687404 0.000000 0.500000
O O12 0.021461 0.658292 0.563495
O O13 0.000000 0.500000 0.597616
#
# Coordination Sequence:
#
# PCOD9327105 Si02
#       6
#    16  16  16  16   8  16
#     4  11  21  38  62  94 129 159 202 272 328 379
#     4  11  22  37  62  90 122 162 218 271 312 377
#     4  10  20  39  61  87 120 164 212 262 323 377
#     4  10  21  39  64  94 126 161 205 270 331 380
#     4  12  23  36  65  96 126 164 212 262 331 390
#     4  12  22  37  61  94 124 159 215 264 320 388
#
# _framework density 18.857192999999999
#
# number of rings (size 3 to 8) (size 9 to 14) (size 15 to 20)
#    0.000    1.091    3.636    5.727    0.000    0.000 
#    0.000    7.727    0.000    0.000    0.000    0.000 
#    0.000    0.000    0.000    0.000    0.000    0.000 
#
# Total GULP energy -122874.922929 kJ/mol
# GULP energy per Si atom -5585.223770 kJ/mol
# Density = 1.881427 g / cm^3
# Si number density = 18.857193 Si / 1000 Ang^3
#
#
#
# Elastic Constant Matrix: (Units=GPa)
#
#
# Indices 1 2 3 4 5 6 
#
# 1 88.9443 41.1077 12.8576 0.0000 0.0000 0.0000
# 2 41.1077 85.7116 23.5220 0.0000 0.0000 0.0000
# 3 12.8576 23.5220 26.0618 0.0000 0.0000 0.0000
# 4 0.0000 0.0000 0.0000 29.4252 0.0000 0.0000
# 5 0.0000 0.0000 0.0000 0.0000 28.5738 0.0000
# 6 0.0000 0.0000 0.0000 0.0000 0.0000 23.9878
#
#
#
# Elastic Compliance Matrix: (Units=1/GPa)
#
#
# Indices 1 2 3 4 5 6 
#
# 1 0.014471 -0.006621 -0.001163 0.000000 0.000000 0.000000
# 2 -0.006621 0.018538 -0.013465 0.000000 0.000000 0.000000
# 3 -0.001163 -0.013465 0.051097 0.000000 0.000000 0.000000
# 4 0.000000 0.000000 0.000000 0.033984 0.000000 0.000000
# 5 0.000000 0.000000 0.000000 0.000000 0.034997 0.000000
# 6 0.000000 0.000000 0.000000 0.000000 0.000000 0.041688
#
#
# Mechanical properties :
#
#
# Convention : Reuss Voigt Hill
#
# Bulk Modulus (GPa) = 24.03423 39.52134 31.77779
# Shear Modulus (GPa) = 19.90899 24.61273 22.26086
#
# Velocity S-wave (km/s) = 3.25280 3.61670 3.43956
# Velocity P-wave (km/s) = 5.18466 6.20036 5.71511
#
# Compressibility (1/GPa) = 0.04160732
#
# Stress axis : x y z
#
# Youngs Moduli (GPa) = 69.10212 53.94415 19.57070
#
# Poissons Ratio (x) = 0.35718 0.02277
# Poissons Ratio (y) = 0.45754 0.26351
# Poissons Ratio (z) = 0.08040 0.72633
#
# Static dielectric constant tensor:
#      x y z
#    x 1.673310 0.000000 0.000000 
#    y 0.000000 1.651520 0.000000 
#    z 0.000000 0.000000 1.670080 
# 
# From -- ./inp_files/29261.got.cif
#   From: 2010.05.17/outbox.cif.g08.bks.cpg/sg22_15_cif.got.tgz:29261.got - 2010.06.03 23:40:54.
