data_PCOD9327282
_publ_section_title
;
Structure prediction by ZEFSAII (Michael W. Deem and Ramdas Pophale) SiO2 
 PCOD9327282
Probable space group: F 2 2 2
;
_chemical_formula_sum "Si O2"
_cell_formula_units_Z 36
_cell_length_a 22.032651
_cell_length_b 13.474780
_cell_length_c 5.039194
_cell_angle_alpha 90.000000
_cell_angle_beta 90.000000
_cell_angle_gamma 90.000000
_cell_volume 1496.061741
_symmetry_space_group_name_H-M "F 2 2 2"
_symmetry_group_IT_number 22
_symmetry_cell_setting 'orthorhombic'
loop_
_space_group_symop_operation_xyz
x,y,z
-x,-y,z
x,-y,-z
-x,y,-z
x,1/2+y,1/2+z
-x,1/2-y,1/2+z
x,1/2-y,1/2-z
-x,1/2+y,1/2-z
1/2+x,y,1/2+z
1/2-x,-y,1/2+z
1/2+x,-y,1/2-z
1/2-x,y,1/2-z
1/2+x,1/2+y,z
1/2-x,1/2-y,z
1/2+x,1/2-y,-z
1/2-x,1/2+y,-z
loop_
_atom_site_type_symbol
_atom_site_label
_atom_site_fract_x
_atom_site_fract_y
_atom_site_fract_z
Si Si1 0.000000 0.500000 0.500000
Si Si2 0.895623 0.639217 0.377038
Si Si3 0.211245 0.000000 0.000000
Si Si4 0.043416 0.750000 0.250000
O O1 0.045816 0.431754 0.322139
O O2 0.891049 0.750000 0.250000
O O3 0.833365 0.581360 0.368620
O O4 0.912134 0.659958 0.687437
O O5 0.250000 0.960846 0.250000
O O6 0.000000 0.760998 0.500000
#
# Coordination Sequence:
#
# PCOD9327282 Si02
#       4
#     4  16   8   8
#     4  10  20  44  74 118 154 194 246 306 390 476
#     4  11  24  47  77 113 157 204 250 319 388 460
#     4  11  30  53  74 113 152 205 274 326 372 447
#     4  12  22  40  71 114 153 190 246 296 392 470
#
# _framework density 24.063178000000001
#
# number of rings (size 3 to 8) (size 9 to 14) (size 15 to 20)
#    0.000    0.889    4.444    0.000    6.222    0.889 
#    0.000    2.222    0.000    0.000    0.000    0.000 
#    0.000    0.000    0.000    0.000    0.000    0.000 
#
# Total GULP energy -50104.346514 kJ/mol
# GULP energy per Si atom -5567.149613 kJ/mol
# Density = 2.400841 g / cm^3
# Si number density = 24.063178 Si / 1000 Ang^3
#
#
#
# Elastic Constant Matrix: (Units=GPa)
#
#
# Indices 1 2 3 4 5 6 
#
# 1 141.4499 65.1164 30.5840 -0.0001 0.0000 0.0000
# 2 65.1164 175.9634 32.1179 0.0004 0.0000 -0.0001
# 3 30.5840 32.1179 82.5664 0.0023 -0.0003 0.0000
# 4 -0.0001 0.0004 0.0023 51.7192 -0.0002 -0.0001
# 5 0.0000 0.0000 -0.0003 -0.0002 32.2905 0.0000
# 6 0.0000 -0.0001 0.0000 -0.0001 0.0000 25.3079
#
#
#
# Elastic Compliance Matrix: (Units=1/GPa)
#
#
# Indices 1 2 3 4 5 6 
#
# 1 0.008866 -0.002886 -0.002161 0.000000 0.000000 0.000000
# 2 -0.002886 0.007057 -0.001676 0.000000 0.000000 0.000000
# 3 -0.002161 -0.001676 0.013564 -0.000001 0.000000 0.000000
# 4 0.000000 0.000000 -0.000001 0.019335 0.000000 0.000000
# 5 0.000000 0.000000 0.000000 0.000000 0.030969 0.000000
# 6 0.000000 0.000000 0.000000 0.000000 0.000000 0.039513
#
#
# Mechanical properties :
#
#
# Convention : Reuss Voigt Hill
#
# Bulk Modulus (GPa) = 62.34588 72.84626 67.59607
# Shear Modulus (GPa) = 36.20629 40.00763 38.10696
#
# Velocity S-wave (km/s) = 3.88317 4.08193 3.98379
# Velocity P-wave (km/s) = 6.78755 7.24947 7.02231
#
# Compressibility (1/GPa) = 0.01603955
#
# Stress axis : x y z
#
# Youngs Moduli (GPa) = 112.79486 141.70309 73.72473
#
# Poissons Ratio (x) = 0.40900 0.15934
# Poissons Ratio (y) = 0.32556 0.12356
# Poissons Ratio (z) = 0.24378 0.23749
#
# Static dielectric constant tensor:
#      x y z
#    x 1.971850 0.000000 0.000000 
#    y 0.000000 2.118080 0.000000 
#    z 0.000000 0.000000 2.142240 
# 
# From -- ./inp_files/1304.got.cif
#   From: 2010.05.17/outbox.cif.g08.bks.cpg/sg22_1_cif.got.tgz:1304.got - 2010.06.03 23:40:54.
