data_PCOD9327844
_publ_section_title
;
Structure prediction by ZEFSAII (Michael W. Deem and Ramdas Pophale) SiO2 
 PCOD9327844
Probable space group: F 2 2 2
;
_chemical_formula_sum "Si O2"
_cell_formula_units_Z 88
_cell_length_a 18.030974
_cell_length_b 28.403083
_cell_length_c 8.524709
_cell_angle_alpha 90.000000
_cell_angle_beta 90.000000
_cell_angle_gamma 90.000000
_cell_volume 4365.803984
_symmetry_space_group_name_H-M "F 2 2 2"
_symmetry_group_IT_number 22
_symmetry_cell_setting 'orthorhombic'
loop_
_space_group_symop_operation_xyz
x,y,z
-x,-y,z
x,-y,-z
-x,y,-z
x,1/2+y,1/2+z
-x,1/2-y,1/2+z
x,1/2-y,1/2-z
-x,1/2+y,1/2-z
1/2+x,y,1/2+z
1/2-x,-y,1/2+z
1/2+x,-y,1/2-z
1/2-x,y,1/2-z
1/2+x,1/2+y,z
1/2-x,1/2-y,z
1/2+x,1/2-y,-z
1/2-x,1/2+y,-z
loop_
_atom_site_type_symbol
_atom_site_label
_atom_site_fract_x
_atom_site_fract_y
_atom_site_fract_z
Si Si1 0.296430 0.793953 0.492182
Si Si2 0.615031 0.630920 0.798850
Si Si3 0.316136 0.876216 0.949525
Si Si4 0.711626 0.048906 0.421747
Si Si5 0.964699 0.151015 0.669871
Si Si6 0.095654 0.250000 0.250000
O O1 0.250000 0.750000 0.427492
O O2 0.346025 0.823293 0.371675
O O3 0.238844 0.831825 0.564489
O O4 0.351403 0.771950 0.618875
O O5 0.647164 0.628232 0.622331
O O6 0.645175 0.585464 0.890043
O O7 0.526593 0.634928 0.792628
O O8 0.383529 0.872857 0.827020
O O9 0.268799 0.923701 0.962715
O O10 0.750000 0.042008 0.250000
O O11 0.690232 0.000000 0.500000
O O12 0.952202 0.206819 0.685283
O O13 0.000000 0.140901 0.500000
#
# Coordination Sequence:
#
# PCOD9327844 Si02
#       6
#    16  16  16  16  16   8
#     4  11  21  35  53  82 119 160 209 254 281 349
#     4   9  21  38  60  85 122 161 195 248 312 369
#     4   9  19  38  60  86 115 158 198 249 305 361
#     4   9  18  38  65  97 116 147 203 257 308 372
#     4  10  22  38  55  82 122 162 200 238 300 367
#     4  12  25  34  52  82 121 162 210 246 291 346
#
# _framework density 20.156654
#
# number of rings (size 3 to 8) (size 9 to 14) (size 15 to 20)
#    0.000    2.182    1.818    1.909    2.545    1.455 
#    6.545    0.000    0.000   13.636    9.455    0.000 
#    0.000    0.000    0.000    0.000    0.000    0.000 
#
# Total GULP energy -122892.911424 kJ/mol
# GULP energy per Si atom -5586.041428 kJ/mol
# Density = 2.011078 g / cm^3
# Si number density = 20.156654 Si / 1000 Ang^3
#
#
#
# Elastic Constant Matrix: (Units=GPa)
#
#
# Indices 1 2 3 4 5 6 
#
# 1 141.9681 60.9526 39.7694 0.0000 0.0000 0.0000
# 2 60.9526 133.1989 39.7751 0.0000 0.0000 0.0000
# 3 39.7694 39.7751 42.8310 0.0000 0.0000 0.0000
# 4 0.0000 0.0000 0.0000 23.9172 0.0000 0.0000
# 5 0.0000 0.0000 0.0000 0.0000 5.4568 0.0000
# 6 0.0000 0.0000 0.0000 0.0000 0.0000 -2.9513
#
#
#
# Elastic Compliance Matrix: (Units=1/GPa)
#
#
# Indices 1 2 3 4 5 6 
#
# 1 0.010096 -0.002519 -0.007035 0.000000 0.000000 0.000000
# 2 -0.002519 0.011017 -0.007892 0.000000 0.000000 0.000000
# 3 -0.007035 -0.007892 0.037208 0.000000 0.000000 0.000000
# 4 0.000000 0.000000 0.000000 0.041811 0.000000 0.000000
# 5 0.000000 0.000000 0.000000 0.000000 0.183258 0.000001
# 6 0.000000 0.000000 0.000000 0.000000 0.000001 -0.338837
#
#
# Mechanical properties :
#
#
# Convention : Reuss Voigt Hill
#
# Bulk Modulus (GPa) = 42.68116 66.55471 54.61794
# Shear Modulus (GPa) = -392.30434 17.11792 -187.59321
#
# Velocity S-wave (km/s) = -13.96604 2.91734 -9.65762
# Velocity P-wave (km/s) = 15.45465 6.66620 9.85921
#
# Compressibility (1/GPa) = 0.02342954
#
# Stress axis : x y z
#
# Youngs Moduli (GPa) = 99.04739 90.76864 26.87574
#
# Poissons Ratio (x) = 0.22868 0.18907
# Poissons Ratio (y) = 0.24954 0.21210
# Poissons Ratio (z) = 0.69679 0.71632
#
# Static dielectric constant tensor:
#      x y z
#    x 1.747460 0.000000 0.000000 
#    y 0.000000 1.665600 0.000000 
#    z 0.000000 0.000000 1.748830 
# 
# From -- ./inp_files/11801.got.cif
#   From: 2010.05.17/outbox.cif.g08.bks.cpg/sg22_6_cif.got.tgz:11801.got - 2010.06.03 23:40:54.
