data_PCOD9327083
_publ_section_title
;
Structure prediction by ZEFSAII (Michael W. Deem and Ramdas Pophale) SiO2 
 PCOD9327083
Probable space group: F 2 2 2
;
_chemical_formula_sum "Si O2"
_cell_formula_units_Z 64
_cell_length_a 17.413304
_cell_length_b 10.571704
_cell_length_c 15.581390
_cell_angle_alpha 90.000000
_cell_angle_beta 90.000000
_cell_angle_gamma 90.000000
_cell_volume 2868.351527
_symmetry_space_group_name_H-M "F 2 2 2"
_symmetry_group_IT_number 22
_symmetry_cell_setting 'orthorhombic'
loop_
_space_group_symop_operation_xyz
x,y,z
-x,-y,z
x,-y,-z
-x,y,-z
x,1/2+y,1/2+z
-x,1/2-y,1/2+z
x,1/2-y,1/2-z
-x,1/2+y,1/2-z
1/2+x,y,1/2+z
1/2-x,-y,1/2+z
1/2+x,-y,1/2-z
1/2-x,y,1/2-z
1/2+x,1/2+y,z
1/2-x,1/2-y,z
1/2+x,1/2-y,-z
1/2-x,1/2+y,-z
loop_
_atom_site_type_symbol
_atom_site_label
_atom_site_fract_x
_atom_site_fract_y
_atom_site_fract_z
Si Si1 0.770797 0.534911 0.840576
Si Si2 0.334665 0.703446 0.581147
Si Si3 0.514601 0.144345 0.603571
Si Si4 0.353512 0.273602 0.881720
O O1 0.750000 0.473691 0.750000
O O2 0.826063 0.443197 0.893968
O O3 0.691592 0.591252 0.880918
O O4 0.816175 0.664748 0.824753
O O5 0.250000 0.750000 0.606615
O O6 0.404463 0.786215 0.620055
O O7 0.342727 0.723476 0.479167
O O8 0.500000 0.144645 0.500000
O O9 0.442102 0.217894 0.640217
O O10 0.500000 0.000000 0.631453
#
# Coordination Sequence:
#
# PCOD9327083 Si02
#       4
#    16  16  16  16
#     4  11  23  39  63  92 130 165 208 265 323 389
#     4  11  21  36  66  95 122 163 221 266 310 377
#     4   9  19  35  60  97 130 159 210 274 321 375
#     4  10  20  38  66  92 122 171 216 261 321 383
#
# _framework density 22.312467000000002
#
# number of rings (size 3 to 8) (size 9 to 14) (size 15 to 20)
#    0.000    1.750    2.500    3.750    0.000    3.500 
#    0.000    3.750   27.500    0.000    0.000    0.000 
#    0.000    0.000    0.000    0.000    0.000    0.000 
#
# Total GULP energy -89220.405352 kJ/mol
# GULP energy per Si atom -5576.275335 kJ/mol
# Density = 2.226168 g / cm^3
# Si number density = 22.312467 Si / 1000 Ang^3
#
#
#
# Elastic Constant Matrix: (Units=GPa)
#
#
# Indices 1 2 3 4 5 6 
#
# 1 206.2921 75.6398 11.4300 0.0000 0.0000 0.0000
# 2 75.6398 127.9192 32.4804 0.0000 0.0000 0.0000
# 3 11.4300 32.4804 63.9926 0.0000 0.0000 0.0000
# 4 0.0000 0.0000 0.0000 23.2391 0.0000 0.0000
# 5 0.0000 0.0000 0.0000 0.0000 2.4571 0.0000
# 6 0.0000 0.0000 0.0000 0.0000 0.0000 37.9614
#
#
#
# Elastic Compliance Matrix: (Units=1/GPa)
#
#
# Indices 1 2 3 4 5 6 
#
# 1 0.006231 -0.003905 0.000869 0.000000 0.000000 0.000000
# 2 -0.003905 0.011422 -0.005100 0.000000 0.000000 0.000000
# 3 0.000869 -0.005100 0.018060 0.000000 0.000000 0.000000
# 4 0.000000 0.000000 0.000000 0.043031 0.000000 0.000000
# 5 0.000000 0.000000 0.000000 0.000000 0.406989 0.000000
# 6 0.000000 0.000000 0.000000 0.000000 0.000000 0.026343
#
#
# Mechanical properties :
#
#
# Convention : Reuss Voigt Hill
#
# Bulk Modulus (GPa) = 51.43692 70.81159 61.12426
# Shear Modulus (GPa) = 9.34881 31.30843 20.32862
#
# Velocity S-wave (km/s) = 2.04916 3.74997 3.02170
# Velocity P-wave (km/s) = 5.35740 7.11020 6.29511
#
# Compressibility (1/GPa) = 0.01944129
#
# Stress axis : x y z
#
# Youngs Moduli (GPa) = 160.48093 87.55379 55.37114
#
# Poissons Ratio (x) = 0.34192 -0.04813
# Poissons Ratio (y) = 0.62673 0.28237
# Poissons Ratio (z) = -0.13949 0.44649
#
# Static dielectric constant tensor:
#      x y z
#    x 1.846100 0.000000 0.000000 
#    y 0.000000 1.919480 0.000000 
#    z 0.000000 0.000000 1.884500 
# 
# From -- ./inp_files/43933.got.cif
#   From: 2010.05.17/outbox.cif.g08.bks.cpg/sg22_22_cif.got.tgz:43933.got - 2010.06.03 23:40:54.
