data_PCOD9327766
_publ_section_title
;
Structure prediction by ZEFSAII (Michael W. Deem and Ramdas Pophale) SiO2 
 PCOD9327766
Probable space group: F 2 2 2
;
_chemical_formula_sum "Si O2"
_cell_formula_units_Z 88
_cell_length_a 14.934013
_cell_length_b 12.860065
_cell_length_c 21.381398
_cell_angle_alpha 90.000000
_cell_angle_beta 90.000000
_cell_angle_gamma 90.000000
_cell_volume 4106.348329
_symmetry_space_group_name_H-M "F 2 2 2"
_symmetry_group_IT_number 22
_symmetry_cell_setting 'orthorhombic'
loop_
_space_group_symop_operation_xyz
x,y,z
-x,-y,z
x,-y,-z
-x,y,-z
x,1/2+y,1/2+z
-x,1/2-y,1/2+z
x,1/2-y,1/2-z
-x,1/2+y,1/2-z
1/2+x,y,1/2+z
1/2-x,-y,1/2+z
1/2+x,-y,1/2-z
1/2-x,y,1/2-z
1/2+x,1/2+y,z
1/2-x,1/2-y,z
1/2+x,1/2-y,-z
1/2-x,1/2+y,-z
loop_
_atom_site_type_symbol
_atom_site_label
_atom_site_fract_x
_atom_site_fract_y
_atom_site_fract_z
Si Si1 0.079544 0.418194 0.919792
Si Si2 0.227079 0.500000 0.000000
Si Si3 0.500000 0.243856 0.500000
Si Si4 0.447139 0.899188 0.684333
Si Si5 0.171185 0.163444 0.072546
Si Si6 0.654614 0.031706 0.216751
Si Si7 0.925547 0.250000 0.250000
O O1 0.160059 0.418631 0.969101
O O2 0.127905 0.459944 0.856406
O O3 0.000000 0.500000 0.930558
O O4 0.030890 0.310860 0.938796
O O5 0.285447 0.556129 0.949011
O O6 0.588347 0.186047 0.525546
O O7 0.369162 0.857259 0.640682
O O8 0.510728 0.801333 0.697900
O O9 0.500000 0.000000 0.656076
O O10 0.409920 0.947857 0.749347
O O11 0.250000 0.250000 0.072127
O O12 0.750000 0.009708 0.250000
O O13 0.633245 0.151175 0.233531
#
# Coordination Sequence:
#
# PCOD9327766 Si02
#       7
#    16   8   8  16  16  16   8
#     4  12  21  45  73  99 140 187 248 293 347 436
#     4  12  25  43  66 102 138 180 238 300 352 424
#     4  12  25  43  70 108 134 198 236 290 370 424
#     4  10  24  44  69 102 136 187 232 289 364 428
#     4  12  26  46  68 103 143 182 243 297 364 439
#     4  11  24  42  68 104 137 181 231 296 358 417
#     4  10  21  44  63 100 136 178 232 270 358 430
#
# _framework density 21.430233000000001
#
# number of rings (size 3 to 8) (size 9 to 14) (size 15 to 20)
#    0.000    0.727    3.636    4.091    2.545    2.909 
#    6.545    0.000    0.000    0.000    0.000    0.000 
#    0.000    0.000    0.000    0.000    0.000    0.000 
#
# Total GULP energy -122521.197493 kJ/mol
# GULP energy per Si atom -5569.145341 kJ/mol
# Density = 2.138146 g / cm^3
# Si number density = 21.430233 Si / 1000 Ang^3
#
#
#
# Elastic Constant Matrix: (Units=GPa)
#
#
# Indices 1 2 3 4 5 6 
#
# 1 114.4399 12.8497 23.3678 0.0000 0.0000 0.0000
# 2 12.8497 40.2152 -5.0816 0.0000 0.0000 0.0000
# 3 23.3678 -5.0816 78.5587 0.0000 0.0000 0.0000
# 4 0.0000 0.0000 0.0000 21.4336 0.0000 0.0000
# 5 0.0000 0.0000 0.0000 0.0000 37.4898 0.0000
# 6 0.0000 0.0000 0.0000 0.0000 0.0000 35.0334
#
#
#
# Elastic Compliance Matrix: (Units=1/GPa)
#
#
# Indices 1 2 3 4 5 6 
#
# 1 0.009773 -0.003519 -0.003135 0.000000 0.000000 0.000000
# 2 -0.003519 0.026338 0.002750 0.000000 0.000000 0.000000
# 3 -0.003135 0.002750 0.013840 0.000000 0.000000 0.000000
# 4 0.000000 0.000000 0.000000 0.046656 0.000000 0.000000
# 5 0.000000 0.000000 0.000000 0.000000 0.026674 0.000000
# 6 0.000000 0.000000 0.000000 0.000000 0.000000 0.028544
#
#
# Mechanical properties :
#
#
# Convention : Reuss Voigt Hill
#
# Bulk Modulus (GPa) = 23.72777 32.83172 28.27974
# Shear Modulus (GPa) = 28.78857 32.26323 30.52590
#
# Velocity S-wave (km/s) = 3.66917 3.88429 3.77826
# Velocity P-wave (km/s) = 5.38948 5.95571 5.67966
#
# Compressibility (1/GPa) = 0.04214472
#
# Stress axis : x y z
#
# Youngs Moduli (GPa) = 102.31815 37.96768 72.25581
#
# Poissons Ratio (x) = 0.13361 0.22651
# Poissons Ratio (y) = 0.36005 -0.19874
# Poissons Ratio (z) = 0.32075 -0.10443
#
# Static dielectric constant tensor:
#      x y z
#    x 1.787970 0.000000 0.000000 
#    y 0.000000 1.747810 0.000000 
#    z 0.000000 0.000000 1.786390 
# 
# From -- ./inp_files/19982.got.cif
#   From: 2010.05.17/outbox.cif.g08.bks.cpg/sg22_10_cif.got.tgz:19982.got - 2010.06.03 23:40:54.
