data_PCOD9327686
_publ_section_title
;
Structure prediction by ZEFSAII (Michael W. Deem and Ramdas Pophale) SiO2 
 PCOD9327686
Probable space group: F 2 2 2
;
_chemical_formula_sum "Si O2"
_cell_formula_units_Z 88
_cell_length_a 24.198927
_cell_length_b 11.890325
_cell_length_c 14.993288
_cell_angle_alpha 90.000000
_cell_angle_beta 90.000000
_cell_angle_gamma 90.000000
_cell_volume 4314.065336
_symmetry_space_group_name_H-M "F 2 2 2"
_symmetry_group_IT_number 22
_symmetry_cell_setting 'orthorhombic'
loop_
_space_group_symop_operation_xyz
x,y,z
-x,-y,z
x,-y,-z
-x,y,-z
x,1/2+y,1/2+z
-x,1/2-y,1/2+z
x,1/2-y,1/2-z
-x,1/2+y,1/2-z
1/2+x,y,1/2+z
1/2-x,-y,1/2+z
1/2+x,-y,1/2-z
1/2-x,y,1/2-z
1/2+x,1/2+y,z
1/2-x,1/2-y,z
1/2+x,1/2-y,-z
1/2-x,1/2+y,-z
loop_
_atom_site_type_symbol
_atom_site_label
_atom_site_fract_x
_atom_site_fract_y
_atom_site_fract_z
Si Si1 0.169348 0.326352 0.463472
Si Si2 0.548941 0.618892 0.055372
Si Si3 0.608740 0.378755 0.282170
Si Si4 0.500000 0.000000 0.722414
Si Si5 0.691201 0.606542 0.563582
Si Si6 0.196181 0.963332 0.137700
O O1 0.105347 0.314077 0.438545
O O2 0.195280 0.210706 0.495975
O O3 0.169405 0.400631 0.553292
O O4 0.197505 0.404544 0.388083
O O5 0.527663 0.588089 0.153283
O O6 0.557995 0.500000 0.000000
O O7 0.500000 0.676989 0.000000
O O8 0.602870 0.250000 0.250000
O O9 0.550251 0.441851 0.274535
O O10 0.635886 0.380095 0.379465
O O11 0.654832 0.437805 0.218213
O O12 0.691857 0.500000 0.500000
O O13 0.742399 0.590345 0.633134
#
# Coordination Sequence:
#
# PCOD9327686 Si02
#       6
#    16  16  16   8  16  16
#     4  11  19  38  67  95 130 170 213 269 331 394
#     4   9  16  31  64  95 117 149 224 273 309 365
#     4  12  25  43  70  96 131 173 229 281 330 390
#     4  10  21  42  61  94 124 170 224 286 311 391
#     4  12  27  41  63 103 143 172 210 276 353 402
#     4  11  21  40  69 101 126 170 227 273 320 404
#
# _framework density 20.398392999999999
#
# number of rings (size 3 to 8) (size 9 to 14) (size 15 to 20)
#    0.000    1.273    7.273    2.182    0.000    0.727 
#    3.273    1.364    0.000    2.182    0.000    0.000 
#    0.000    0.000    0.000    0.000    0.000    0.000 
#
# Total GULP energy -122705.276671 kJ/mol
# GULP energy per Si atom -5577.512576 kJ/mol
# Density = 2.035197 g / cm^3
# Si number density = 20.398393 Si / 1000 Ang^3
#
#
#
# Elastic Constant Matrix: (Units=GPa)
#
#
# Indices 1 2 3 4 5 6 
#
# 1 170.6100 53.1997 29.5736 0.0000 0.0000 0.0000
# 2 53.1997 120.1821 26.4888 0.0000 0.0000 0.0000
# 3 29.5736 26.4888 32.9077 0.0000 0.0000 0.0000
# 4 0.0000 0.0000 0.0000 5.1111 0.0000 0.0000
# 5 0.0000 0.0000 0.0000 0.0000 20.5242 0.0000
# 6 0.0000 0.0000 0.0000 0.0000 0.0000 14.7737
#
#
#
# Elastic Compliance Matrix: (Units=1/GPa)
#
#
# Indices 1 2 3 4 5 6 
#
# 1 0.007391 -0.002198 -0.004873 0.000000 0.000000 0.000000
# 2 -0.002198 0.010769 -0.006693 0.000000 0.000000 0.000000
# 3 -0.004873 -0.006693 0.040155 0.000000 0.000000 0.000000
# 4 0.000000 0.000000 0.000000 0.195652 0.000000 0.000000
# 5 0.000000 0.000000 0.000000 0.000000 0.048723 0.000000
# 6 0.000000 0.000000 0.000000 0.000000 0.000000 0.067688
#
#
# Mechanical properties :
#
#
# Convention : Reuss Voigt Hill
#
# Bulk Modulus (GPa) = 32.48149 60.24709 46.36429
# Shear Modulus (GPa) = 12.24983 22.37766 17.31375
#
# Velocity S-wave (km/s) = 2.45323 3.31574 2.91654
# Velocity P-wave (km/s) = 4.89720 6.65268 5.84126
#
# Compressibility (1/GPa) = 0.03078676
#
# Stress axis : x y z
#
# Youngs Moduli (GPa) = 135.29269 92.86116 24.90327
#
# Poissons Ratio (x) = 0.20408 0.12137
# Poissons Ratio (y) = 0.29734 0.16668
# Poissons Ratio (z) = 0.65934 0.62154
#
# Static dielectric constant tensor:
#      x y z
#    x 1.807680 0.000000 0.000000 
#    y 0.000000 1.743280 0.000000 
#    z 0.000000 0.000000 1.715510 
# 
# From -- ./inp_files/32349.got.cif
#   From: 2010.05.17/outbox.cif.g08.bks.cpg/sg22_17_cif.got.tgz:32349.got - 2010.06.03 23:40:54.
