data_PCOD9327224
_publ_section_title
;
Structure prediction by ZEFSAII (Michael W. Deem and Ramdas Pophale) SiO2 
 PCOD9327224
Probable space group: F 2 2 2
;
_chemical_formula_sum "Si O2"
_cell_formula_units_Z 48
_cell_length_a 16.383217
_cell_length_b 14.232949
_cell_length_c 9.439369
_cell_angle_alpha 90.000000
_cell_angle_beta 90.000000
_cell_angle_gamma 90.000000
_cell_volume 2201.086147
_symmetry_space_group_name_H-M "F 2 2 2"
_symmetry_group_IT_number 22
_symmetry_cell_setting 'orthorhombic'
loop_
_space_group_symop_operation_xyz
x,y,z
-x,-y,z
x,-y,-z
-x,y,-z
x,1/2+y,1/2+z
-x,1/2-y,1/2+z
x,1/2-y,1/2-z
-x,1/2+y,1/2-z
1/2+x,y,1/2+z
1/2-x,-y,1/2+z
1/2+x,-y,1/2-z
1/2-x,y,1/2-z
1/2+x,1/2+y,z
1/2-x,1/2-y,z
1/2+x,1/2-y,-z
1/2-x,1/2+y,-z
loop_
_atom_site_type_symbol
_atom_site_label
_atom_site_fract_x
_atom_site_fract_y
_atom_site_fract_z
Si Si1 0.500000 0.500000 0.250683
Si Si2 0.774553 0.909170 0.583733
Si Si3 0.873981 0.000000 0.000000
Si Si4 0.437047 0.688713 0.389173
O O1 0.425452 0.487629 0.141290
O O2 0.477970 0.589759 0.343768
O O3 0.750000 0.921879 0.750000
O O4 0.843495 0.831243 0.566255
O O5 0.810783 0.000000 0.500000
O O6 0.685202 0.909170 0.513044
O O7 0.500000 0.733243 0.500000
O O8 0.432957 0.750000 0.250000
#
# Coordination Sequence:
#
# PCOD9327224 Si02
#       4
#     8  16   8  16
#     4  11  21  46  70  96 140 180 222 282 328 418
#     4  10  20  41  65 101 127 172 224 271 330 407
#     4   9  22  36  75 100 128 174 225 268 350 389
#     4  12  27  42  68  99 138 179 232 278 338 397
#
# _framework density 21.807416
#
# number of rings (size 3 to 8) (size 9 to 14) (size 15 to 20)
#    1.000    0.333    3.333    2.500    4.667    0.667 
#    0.000    0.000    0.000    2.000    0.000    0.000 
#    0.000    0.000    0.000    0.000    0.000    0.000 
#
# Total GULP energy -66887.752840 kJ/mol
# GULP energy per Si atom -5573.979403 kJ/mol
# Density = 2.175778 g / cm^3
# Si number density = 21.807416 Si / 1000 Ang^3
#
#
#
# Elastic Constant Matrix: (Units=GPa)
#
#
# Indices 1 2 3 4 5 6 
#
# 1 165.9873 11.7239 44.4386 0.0000 0.0000 0.0000
# 2 11.7239 40.1066 -6.1626 0.0000 0.0000 0.0000
# 3 44.4386 -6.1626 71.9927 0.0000 0.0000 0.0000
# 4 0.0000 0.0000 0.0000 28.4906 0.0000 0.0000
# 5 0.0000 0.0000 0.0000 0.0000 7.5125 0.0000
# 6 0.0000 0.0000 0.0000 0.0000 0.0000 -1.0504
#
#
#
# Elastic Compliance Matrix: (Units=1/GPa)
#
#
# Indices 1 2 3 4 5 6 
#
# 1 0.007549 -0.002962 -0.004913 0.000000 0.000000 0.000000
# 2 -0.002962 0.026428 0.004090 0.000000 0.000000 0.000000
# 3 -0.004913 0.004090 0.017273 0.000000 0.000000 0.000000
# 4 0.000000 0.000000 0.000000 0.035099 0.000000 0.000000
# 5 0.000000 0.000000 0.000000 0.000000 0.133112 0.000000
# 6 0.000000 0.000000 0.000000 0.000000 0.000000 -0.951998
#
#
# Mechanical properties :
#
#
# Convention : Reuss Voigt Hill
#
# Bulk Modulus (GPa) = 22.89331 42.00963 32.45147
# Shear Modulus (GPa) = -7.03823 22.19629 7.57903
#
# Velocity S-wave (km/s) = -1.79846 3.19381 1.86628
# Velocity P-wave (km/s) = 2.49161 5.73640 4.42235
#
# Compressibility (1/GPa) = 0.04368088
#
# Stress axis : x y z
#
# Youngs Moduli (GPa) = 132.46487 37.83890 57.89285
#
# Poissons Ratio (x) = 0.11207 0.28445
# Poissons Ratio (y) = 0.39233 -0.23680
# Poissons Ratio (z) = 0.65085 -0.15478
#
# Static dielectric constant tensor:
#      x y z
#    x 1.835590 0.000000 0.000000 
#    y 0.000000 1.822660 0.000000 
#    z 0.000000 0.000000 1.837660 
# 
# From -- ./inp_files/9254.got.cif
#   From: 2010.05.17/outbox.cif.g08.bks.cpg/sg22_5_cif.got.tgz:9254.got - 2010.06.03 23:40:54.
