data_PCOD9327245
_publ_section_title
;
Structure prediction by ZEFSAII (Michael W. Deem and Ramdas Pophale) SiO2 
 PCOD9327245
Probable space group: F 2 2 2
;
_chemical_formula_sum "Si O2"
_cell_formula_units_Z 96
_cell_length_a 25.682957
_cell_length_b 22.369596
_cell_length_c 8.586111
_cell_angle_alpha 90.000000
_cell_angle_beta 90.000000
_cell_angle_gamma 90.000000
_cell_volume 4932.869929
_symmetry_space_group_name_H-M "F 2 2 2"
_symmetry_group_IT_number 22
_symmetry_cell_setting 'orthorhombic'
loop_
_space_group_symop_operation_xyz
x,y,z
-x,-y,z
x,-y,-z
-x,y,-z
x,1/2+y,1/2+z
-x,1/2-y,1/2+z
x,1/2-y,1/2-z
-x,1/2+y,1/2-z
1/2+x,y,1/2+z
1/2-x,-y,1/2+z
1/2+x,-y,1/2-z
1/2-x,y,1/2-z
1/2+x,1/2+y,z
1/2-x,1/2-y,z
1/2+x,1/2-y,-z
1/2-x,1/2+y,-z
loop_
_atom_site_type_symbol
_atom_site_label
_atom_site_fract_x
_atom_site_fract_y
_atom_site_fract_z
Si Si1 0.945700 0.122661 0.096175
Si Si2 0.808337 0.315507 0.687965
Si Si3 0.128674 0.269972 0.585577
Si Si4 0.555361 0.019136 0.179930
Si Si5 0.895234 0.592753 0.286442
Si Si6 0.450199 0.300993 0.385864
O O1 0.921006 0.187357 0.118178
O O2 0.941372 0.086350 0.257567
O O3 0.908420 0.092376 0.968588
O O4 0.000000 0.125505 0.000000
O O5 0.824023 0.250000 0.750000
O O6 0.750000 0.323616 0.750000
O O7 0.826576 0.305144 0.509364
O O8 0.842490 0.371362 0.742698
O O9 0.150135 0.250000 0.750000
O O10 0.100641 0.217994 0.485669
O O11 0.500000 0.000000 0.254605
O O12 0.600523 0.975335 0.236733
O O13 0.552268 0.000000 0.000000
O O14 0.937848 0.635509 0.197895
O O15 0.500000 0.303776 0.500000
O O16 0.456693 0.250000 0.250000
#
# Coordination Sequence:
#
# PCOD9327245 Si02
#       6
#    16  16  16  16  16  16
#     4  11  22  38  56  86 129 177 215 262 320 395
#     4  10  20  42  68  89 123 167 213 271 337 400
#     4  11  23  37  63  96 131 168 215 271 337 408
#     4  11  25  37  55  84 121 173 219 263 312 378
#     4  11  22  38  60  85 121 167 220 254 324 393
#     4  12  23  36  54  91 132 177 208 257 330 394
#
# _framework density 19.461288
#
# number of rings (size 3 to 8) (size 9 to 14) (size 15 to 20)
#    0.000    1.000    6.667    1.500    7.000    0.000 
#    0.000    1.667    0.000    4.000    0.000    0.000 
#    0.000    0.000    0.000    0.000    0.000    0.000 
#
# Total GULP energy -133672.534005 kJ/mol
# GULP energy per Si atom -5569.688917 kJ/mol
# Density = 1.941699 g / cm^3
# Si number density = 19.461288 Si / 1000 Ang^3
#
#
#
# Elastic Constant Matrix: (Units=GPa)
#
#
# Indices 1 2 3 4 5 6 
#
# 1 101.4466 17.6301 39.1939 0.0001 0.0000 -0.0001
# 2 17.6301 63.9139 19.5471 0.0004 -0.0001 -0.0002
# 3 39.1939 19.5471 91.8923 0.0006 -0.0002 -0.0003
# 4 0.0001 0.0004 0.0006 32.3104 -0.0001 -0.0003
# 5 0.0000 -0.0001 -0.0002 -0.0001 15.9144 0.0001
# 6 -0.0001 -0.0002 -0.0003 -0.0003 0.0001 18.2782
#
#
#
# Elastic Compliance Matrix: (Units=1/GPa)
#
#
# Indices 1 2 3 4 5 6 
#
# 1 0.012007 -0.001867 -0.004724 0.000000 0.000000 0.000000
# 2 -0.001867 0.017025 -0.002825 0.000000 0.000000 0.000000
# 3 -0.004724 -0.002825 0.013498 0.000000 0.000000 0.000000
# 4 0.000000 0.000000 0.000000 0.030950 0.000000 0.000000
# 5 0.000000 0.000000 0.000000 0.000000 0.062836 0.000000
# 6 0.000000 0.000000 0.000000 0.000000 0.000000 0.054710
#
#
# Mechanical properties :
#
#
# Convention : Reuss Voigt Hill
#
# Bulk Modulus (GPa) = 42.19857 45.55499 43.87678
# Shear Modulus (GPa) = 22.96124 25.35937 24.16030
#
# Velocity S-wave (km/s) = 3.43861 3.61372 3.52725
# Velocity P-wave (km/s) = 6.12338 6.39303 6.25965
#
# Compressibility (1/GPa) = 0.02369749
#
# Stress axis : x y z
#
# Youngs Moduli (GPa) = 83.28443 58.73666 74.08416
#
# Poissons Ratio (x) = 0.10968 0.34998
# Poissons Ratio (y) = 0.15551 0.20930
# Poissons Ratio (z) = 0.39344 0.16594
#
# Static dielectric constant tensor:
#      x y z
#    x 1.704370 0.000000 0.000000 
#    y 0.000000 1.702680 0.000000 
#    z 0.000000 0.000000 1.779870 
# 
# From -- ./inp_files/12853.got.cif
#   From: 2010.05.17/outbox.cif.g08.bks.cpg/sg22_7_cif.got.tgz:12853.got - 2010.06.03 23:40:54.
