data_PCOD9327011
_publ_section_title
;
Structure prediction by ZEFSAII (Michael W. Deem and Ramdas Pophale) SiO2 
 PCOD9327011
Probable space group: F 2 2 2
;
_chemical_formula_sum "Si O2"
_cell_formula_units_Z 92
_cell_length_a 18.559495
_cell_length_b 17.336699
_cell_length_c 13.127016
_cell_angle_alpha 90.000000
_cell_angle_beta 90.000000
_cell_angle_gamma 90.000000
_cell_volume 4223.753636
_symmetry_space_group_name_H-M "F 2 2 2"
_symmetry_group_IT_number 22
_symmetry_cell_setting 'orthorhombic'
loop_
_space_group_symop_operation_xyz
x,y,z
-x,-y,z
x,-y,-z
-x,y,-z
x,1/2+y,1/2+z
-x,1/2-y,1/2+z
x,1/2-y,1/2-z
-x,1/2+y,1/2-z
1/2+x,y,1/2+z
1/2-x,-y,1/2+z
1/2+x,-y,1/2-z
1/2-x,y,1/2-z
1/2+x,1/2+y,z
1/2-x,1/2-y,z
1/2+x,1/2-y,-z
1/2-x,1/2+y,-z
loop_
_atom_site_type_symbol
_atom_site_label
_atom_site_fract_x
_atom_site_fract_y
_atom_site_fract_z
Si Si1 0.895407 0.515287 0.331716
Si Si2 0.500000 0.000000 0.153033
Si Si3 0.709967 0.078780 0.049185
Si Si4 0.750000 0.250000 0.750000
Si Si5 0.862953 0.283967 0.935168
Si Si6 0.000000 0.129568 0.500000
Si Si7 0.876725 0.612211 0.518726
Si Si8 0.750000 0.983366 0.750000
O O1 0.915971 0.570740 0.424390
O O2 0.904255 0.427979 0.376580
O O3 0.811412 0.531176 0.306095
O O4 0.938848 0.529166 0.229702
O O5 0.530664 0.068829 0.083197
O O6 0.708195 0.068559 0.169612
O O7 0.675358 0.155516 0.009016
O O8 0.793956 0.084607 0.020555
O O9 0.680560 0.000000 0.000000
O O10 0.810792 0.281123 0.834349
O O11 0.872585 0.201731 0.991027
O O12 0.943672 0.319635 0.935030
#
# Coordination Sequence:
#
# PCOD9327011 Si02
#       8
#    16   8  16   4  16   8  16   8
#     4  10  22  40  69  96 131 186 245 289 365 448
#     4  11  26  47  70 102 136 209 246 281 380 490
#     4  11  21  39  67 101 145 179 249 311 368 441
#     4  12  28  46  88 106 146 206 278 300 374 474
#     4  12  27  46  70 113 148 197 239 331 370 448
#     4  11  30  48  64 101 160 186 242 319 386 434
#     4  10  21  43  66 103 142 174 245 324 362 418
#     4  10  20  37  69  97 127 192 226 308 367 435
#
# _framework density 21.781573000000002
#
# number of rings (size 3 to 8) (size 9 to 14) (size 15 to 20)
#    0.000    1.217    5.217    1.043    7.304    4.174 
#    0.000   10.435    0.000    0.000    0.000    0.000 
#    0.000    0.000    0.000    0.000    0.000    0.000 
#
# Total GULP energy -128131.706970 kJ/mol
# GULP energy per Si atom -5570.943781 kJ/mol
# Density = 2.173200 g / cm^3
# Si number density = 21.781573 Si / 1000 Ang^3
#
#
#
# Elastic Constant Matrix: (Units=GPa)
#
#
# Indices 1 2 3 4 5 6 
#
# 1 77.9229 7.2300 14.1145 0.0000 0.0000 0.0000
# 2 7.2300 138.6714 42.0171 0.0000 0.0000 0.0000
# 3 14.1145 42.0171 128.7761 0.0000 0.0000 0.0000
# 4 0.0000 0.0000 0.0000 19.6010 0.0000 0.0000
# 5 0.0000 0.0000 0.0000 0.0000 39.1510 0.0000
# 6 0.0000 0.0000 0.0000 0.0000 0.0000 126.5287
#
#
#
# Elastic Compliance Matrix: (Units=1/GPa)
#
#
# Indices 1 2 3 4 5 6 
#
# 1 0.013103 -0.000275 -0.001346 0.000000 0.000000 0.000000
# 2 -0.000275 0.008008 -0.002583 0.000000 0.000000 0.000000
# 3 -0.001346 -0.002583 0.008756 0.000000 0.000000 0.000000
# 4 0.000000 0.000000 0.000000 0.051018 0.000000 0.000000
# 5 0.000000 0.000000 0.000000 0.000000 0.025542 0.000000
# 6 0.000000 0.000000 0.000000 0.000000 0.000000 0.007903
#
#
# Mechanical properties :
#
#
# Convention : Reuss Voigt Hill
#
# Bulk Modulus (GPa) = 46.60282 52.45485 49.52883
# Shear Modulus (GPa) = 38.49380 55.85673 47.17526
#
# Velocity S-wave (km/s) = 4.20845 5.06949 4.65890
# Velocity P-wave (km/s) = 6.71243 7.64204 7.19227
#
# Compressibility (1/GPa) = 0.02145793
#
# Stress axis : x y z
#
# Youngs Moduli (GPa) = 76.32070 124.87190 114.21154
#
# Poissons Ratio (x) = 0.03437 0.15376
# Poissons Ratio (y) = 0.02100 0.29498
# Poissons Ratio (z) = 0.10275 0.32251
#
# Static dielectric constant tensor:
#      x y z
#    x 1.906260 0.000000 0.000000 
#    y 0.000000 1.804250 0.000000 
#    z 0.000000 0.000000 1.842690 
# 
# From -- ./inp_files/22677.got.cif
#   From: 2010.05.17/outbox.cif.g08.bks.cpg/sg22_12_cif.got.tgz:22677.got - 2010.06.03 23:40:54.
