data_PCOD9327984
_publ_section_title
;
Structure prediction by ZEFSAII (Michael W. Deem and Ramdas Pophale) SiO2 
 PCOD9327984
Probable space group: F 2 2 2
;
_chemical_formula_sum "Si O2"
_cell_formula_units_Z 120
_cell_length_a 22.555168
_cell_length_b 22.163016
_cell_length_c 11.497866
_cell_angle_alpha 90.000000
_cell_angle_beta 90.000000
_cell_angle_gamma 90.000000
_cell_volume 5747.674550
_symmetry_space_group_name_H-M "F 2 2 2"
_symmetry_group_IT_number 22
_symmetry_cell_setting 'orthorhombic'
loop_
_space_group_symop_operation_xyz
x,y,z
-x,-y,z
x,-y,-z
-x,y,-z
x,1/2+y,1/2+z
-x,1/2-y,1/2+z
x,1/2-y,1/2-z
-x,1/2+y,1/2-z
1/2+x,y,1/2+z
1/2-x,-y,1/2+z
1/2+x,-y,1/2-z
1/2-x,y,1/2-z
1/2+x,1/2+y,z
1/2-x,1/2-y,z
1/2+x,1/2-y,-z
1/2-x,1/2+y,-z
loop_
_atom_site_type_symbol
_atom_site_label
_atom_site_fract_x
_atom_site_fract_y
_atom_site_fract_z
Si Si1 0.974448 0.317750 0.879854
Si Si2 0.813804 0.936770 0.193133
Si Si3 0.472249 0.677866 0.881859
Si Si4 0.250000 0.250000 0.068090
Si Si5 0.334648 0.935918 0.333767
Si Si6 0.155329 0.841784 0.986939
Si Si7 0.659760 0.153153 0.887614
Si Si8 0.800631 0.438178 0.077337
O O1 0.985278 0.345067 0.749985
O O2 0.993794 0.247590 0.877429
O O3 0.903773 0.316921 0.895578
O O4 0.000000 0.345583 0.000000
O O5 0.750000 0.953866 0.250000
O O6 0.807532 0.889045 0.091219
O O7 0.845358 0.900203 0.294137
O O8 0.848031 0.993829 0.140915
O O9 0.401833 0.675903 0.910387
O O10 0.500000 0.649934 0.000000
O O11 0.200371 0.213452 0.994384
O O12 0.290013 0.202562 0.139604
O O13 0.364155 0.879949 0.399718
O O14 0.266189 0.931011 0.375831
O O15 0.339145 0.936889 0.194692
O O16 0.679314 0.118908 0.003400
O O17 0.804562 0.500000 0.000000
#
# Coordination Sequence:
#
# PCOD9327984 Si02
#       8
#    16  16  16   8  16  16  16  16
#     4  10  22  41  65  93 125 169 225 270 322 397
#     4  12  20  34  62  90 129 165 208 258 311 384
#     4  10  22  41  65  91 126 172 222 269 326 397
#     4  12  24  35  59 100 148 170 197 261 336 394
#     4  11  22  36  58  89 127 172 220 255 312 390
#     4  12  23  37  59  97 133 170 208 264 327 390
#     4  12  22  37  61  97 129 170 210 263 327 381
#     4  11  20  37  57  84 123 172 219 254 302 384
#
# _framework density 20.87801
#
# number of rings (size 3 to 8) (size 9 to 14) (size 15 to 20)
#    0.000    0.800    8.000    1.200    0.000    2.133 
#    0.000    1.333    0.000    2.000    0.000    0.000 
#    0.000    0.000    0.000    0.000    0.000    0.000 
#
# Total GULP energy -167124.037109 kJ/mol
# GULP energy per Si atom -5570.801237 kJ/mol
# Density = 2.083049 g / cm^3
# Si number density = 20.878010 Si / 1000 Ang^3
#
#
#
# Elastic Constant Matrix: (Units=GPa)
#
#
# Indices 1 2 3 4 5 6 
#
# 1 47.3668 -2.6390 28.8184 0.0000 0.0000 0.0000
# 2 -2.6390 65.0632 33.9346 0.0000 0.0000 0.0000
# 3 28.8184 33.9346 162.7154 0.0000 0.0000 0.0000
# 4 0.0000 0.0000 0.0000 30.8661 0.0000 0.0000
# 5 0.0000 0.0000 0.0000 0.0000 27.6749 0.0000
# 6 0.0000 0.0000 0.0000 0.0000 0.0000 8.6178
#
#
#
# Elastic Compliance Matrix: (Units=1/GPa)
#
#
# Indices 1 2 3 4 5 6 
#
# 1 0.024406 0.003640 -0.005082 0.000000 0.000000 0.000000
# 2 0.003640 0.017789 -0.004355 0.000000 0.000000 0.000000
# 3 -0.005082 -0.004355 0.007954 0.000000 0.000000 0.000000
# 4 0.000000 0.000000 0.000000 0.032398 0.000000 0.000000
# 5 0.000000 0.000000 0.000000 0.000000 0.036134 0.000000
# 6 0.000000 0.000000 0.000000 0.000000 0.000000 0.116039
#
#
# Mechanical properties :
#
#
# Convention : Reuss Voigt Hill
#
# Bulk Modulus (GPa) = 25.93569 43.93038 34.93304
# Shear Modulus (GPa) = 19.29283 27.76720 23.53001
#
# Velocity S-wave (km/s) = 3.04316 3.65084 3.36076
# Velocity P-wave (km/s) = 4.97968 6.23367 5.64162
#
# Compressibility (1/GPa) = 0.03855690
#
# Stress axis : x y z
#
# Youngs Moduli (GPa) = 40.97275 56.21607 125.72467
#
# Poissons Ratio (x) = -0.20465 0.63891
# Poissons Ratio (y) = -0.14916 0.54748
# Poissons Ratio (z) = 0.20822 0.24480
#
# Static dielectric constant tensor:
#      x y z
#    x 1.759900 0.000000 0.000000 
#    y 0.000000 1.823010 0.000000 
#    z 0.000000 0.000000 1.863760 
# 
# From -- ./inp_files/24020.got.cif
#   From: 2010.05.17/outbox.cif.g08.bks.cpg/sg22_13_cif.got.tgz:24020.got - 2010.06.03 23:40:54.
