data_PCOD9327823
_publ_section_title
;
Structure prediction by ZEFSAII (Michael W. Deem and Ramdas Pophale) SiO2 
 PCOD9327823
Probable space group: F 2 2 2
;
_chemical_formula_sum "Si O2"
_cell_formula_units_Z 68
_cell_length_a 8.062695
_cell_length_b 18.801305
_cell_length_c 18.102684
_cell_angle_alpha 90.000000
_cell_angle_beta 90.000000
_cell_angle_gamma 90.000000
_cell_volume 2744.171165
_symmetry_space_group_name_H-M "F 2 2 2"
_symmetry_group_IT_number 22
_symmetry_cell_setting 'orthorhombic'
loop_
_space_group_symop_operation_xyz
x,y,z
-x,-y,z
x,-y,-z
-x,y,-z
x,1/2+y,1/2+z
-x,1/2-y,1/2+z
x,1/2-y,1/2-z
-x,1/2+y,1/2-z
1/2+x,y,1/2+z
1/2-x,-y,1/2+z
1/2+x,-y,1/2-z
1/2-x,y,1/2-z
1/2+x,1/2+y,z
1/2-x,1/2-y,z
1/2+x,1/2-y,-z
1/2-x,1/2+y,-z
loop_
_atom_site_type_symbol
_atom_site_label
_atom_site_fract_x
_atom_site_fract_y
_atom_site_fract_z
Si Si1 0.250000 0.750000 0.250000
Si Si2 0.410175 0.636509 0.422774
Si Si3 0.235442 0.981138 0.162508
Si Si4 0.071353 0.843199 0.128339
Si Si5 0.721355 0.149327 0.837237
O O1 0.139712 0.802477 0.200153
O O2 0.500000 0.631748 0.500000
O O3 0.371353 0.561178 0.384850
O O4 0.224202 0.669091 0.427981
O O5 0.541549 0.671961 0.366604
O O6 0.250000 0.970110 0.250000
O O7 0.079750 0.929442 0.141556
O O8 0.264098 0.064160 0.151475
O O9 0.881165 0.823104 0.117561
O O10 0.750000 0.163872 0.750000
#
# Coordination Sequence:
#
# PCOD9327823 Si02
#       5
#     4  16  16  16  16
#     4  12  20  44  70  96 132 170 234 298 330 388
#     4  10  23  40  62  95 138 174 214 270 344 405
#     4   9  18  36  59  92 130 166 213 270 328 392
#     4  10  22  37  60  90 127 171 218 277 329 383
#     4  11  20  35  64  97 130 169 220 270 333 406
#
# _framework density 24.779795
#
# number of rings (size 3 to 8) (size 9 to 14) (size 15 to 20)
#    1.412    0.471    1.176    4.235    0.000    6.588 
#    0.000    5.294   10.353    0.000    0.000    0.000 
#    0.000    0.000    0.000    0.000    0.000    0.000 
#
# Total GULP energy -94756.327978 kJ/mol
# GULP energy per Si atom -5573.901646 kJ/mol
# Density = 2.472340 g / cm^3
# Si number density = 24.779795 Si / 1000 Ang^3
#
#
#
# Elastic Constant Matrix: (Units=GPa)
#
#
# Indices 1 2 3 4 5 6 
#
# 1 149.2611 -44.5220 36.0064 0.0000 0.0000 0.0000
# 2 -44.5220 124.1416 -3.0082 0.0000 0.0000 0.0000
# 3 36.0064 -3.0082 108.6080 0.0000 0.0000 0.0000
# 4 0.0000 0.0000 0.0000 -22.1979 0.0000 0.0000
# 5 0.0000 0.0000 0.0000 0.0000 22.3545 0.0000
# 6 0.0000 0.0000 0.0000 0.0000 0.0000 -74.7100
#
#
#
# Elastic Compliance Matrix: (Units=1/GPa)
#
#
# Indices 1 2 3 4 5 6 
#
# 1 0.008193 0.002874 -0.002637 0.000000 0.000000 0.000000
# 2 0.002874 0.009069 -0.000702 0.000000 0.000000 0.000000
# 3 -0.002637 -0.000702 0.010062 0.000000 0.000000 0.000000
# 4 0.000000 0.000000 0.000000 -0.045049 0.000000 0.000000
# 5 0.000000 0.000000 0.000000 0.000000 0.044734 0.000000
# 6 0.000000 0.000000 0.000000 0.000000 0.000000 -0.013385
#
#
# Mechanical properties :
#
#
# Convention : Reuss Voigt Hill
#
# Bulk Modulus (GPa) = 37.88366 39.88479 38.88422
# Shear Modulus (GPa) = 214.12913 11.32495 112.72704
#
# Velocity S-wave (km/s) = 9.30593 2.14013 6.75206
# Velocity P-wave (km/s) = 11.43628 4.71567 8.74717
#
# Compressibility (1/GPa) = 0.02639661
#
# Stress axis : x y z
#
# Youngs Moduli (GPa) = 122.05379 110.26319 99.38291
#
# Poissons Ratio (x) = -0.31695 0.26203
# Poissons Ratio (y) = -0.35084 0.06974
# Poissons Ratio (z) = 0.32181 0.07738
#
# Static dielectric constant tensor:
#      x y z
#    x 2.062230 0.000000 0.000000 
#    y 0.000000 2.007620 0.000000 
#    z 0.000000 0.000000 1.947780 
# 
# From -- ./inp_files/34863.got.cif
#   From: 2010.05.17/outbox.cif.g08.bks.cpg/sg22_18_cif.got.tgz:34863.got - 2010.06.03 23:40:54.
