data_PCOD9327871
_publ_section_title
;
Structure prediction by ZEFSAII (Michael W. Deem and Ramdas Pophale) SiO2 
 PCOD9327871
Probable space group: F 2 2 2
;
_chemical_formula_sum "Si O2"
_cell_formula_units_Z 68
_cell_length_a 10.552022
_cell_length_b 25.954697
_cell_length_c 10.887743
_cell_angle_alpha 90.000000
_cell_angle_beta 90.000000
_cell_angle_gamma 90.000000
_cell_volume 2981.875538
_symmetry_space_group_name_H-M "F 2 2 2"
_symmetry_group_IT_number 22
_symmetry_cell_setting 'orthorhombic'
loop_
_space_group_symop_operation_xyz
x,y,z
-x,-y,z
x,-y,-z
-x,y,-z
x,1/2+y,1/2+z
-x,1/2-y,1/2+z
x,1/2-y,1/2-z
-x,1/2+y,1/2-z
1/2+x,y,1/2+z
1/2-x,-y,1/2+z
1/2+x,-y,1/2-z
1/2-x,y,1/2-z
1/2+x,1/2+y,z
1/2-x,1/2-y,z
1/2+x,1/2-y,-z
1/2-x,1/2+y,-z
loop_
_atom_site_type_symbol
_atom_site_label
_atom_site_fract_x
_atom_site_fract_y
_atom_site_fract_z
Si Si1 0.448497 0.109485 0.695149
Si Si2 0.710511 0.000000 0.000000
Si Si3 0.289764 0.894752 0.610710
Si Si4 0.681856 0.655892 0.596620
Si Si5 0.000000 0.500000 0.787712
Si Si6 0.250000 0.250000 0.750000
O O1 0.571610 0.129958 0.626091
O O2 0.429041 0.124204 0.838145
O O3 0.319056 0.131923 0.639113
O O4 0.476118 0.048875 0.701439
O O5 0.785442 0.052616 0.970313
O O6 0.619601 0.997961 0.880445
O O7 0.250000 0.907343 0.750000
O O8 0.193687 0.854586 0.546949
O O9 0.675579 0.712218 0.657033
#
# Coordination Sequence:
#
# PCOD9327871 Si02
#       6
#    16   8  16  16   8   4
#     4  10  22  38  66  92 134 176 232 277 340 401
#     4  11  24  36  57  90 144 199 230 265 332 412
#     4  12  24  39  63  98 140 179 228 281 337 411
#     4  10  23  45  71  98 129 180 232 298 343 426
#     4  11  20  38  59  86 138 197 230 271 334 408
#     4   8  20  48  82  84 122 180 228 294 368 392
#
# _framework density 22.804438999999999
#
# number of rings (size 3 to 8) (size 9 to 14) (size 15 to 20)
#    0.000    1.647    4.706    0.706    3.294    0.941 
#    0.000    0.588   41.412    0.000    0.000    0.000 
#    0.000    0.000    0.000    0.000    0.000    0.000 
#
# Total GULP energy -94766.550884 kJ/mol
# GULP energy per Si atom -5574.502993 kJ/mol
# Density = 2.275254 g / cm^3
# Si number density = 22.804439 Si / 1000 Ang^3
#
#
#
# Elastic Constant Matrix: (Units=GPa)
#
#
# Indices 1 2 3 4 5 6 
#
# 1 113.7665 9.9637 34.3648 0.0000 0.0000 0.0000
# 2 9.9637 114.2076 29.9751 0.0000 0.0000 0.0000
# 3 34.3648 29.9751 114.0889 0.0000 0.0000 0.0000
# 4 0.0000 0.0000 0.0000 31.7838 0.0000 0.0000
# 5 0.0000 0.0000 0.0000 0.0000 46.6152 0.0000
# 6 0.0000 0.0000 0.0000 0.0000 0.0000 15.0054
#
#
#
# Elastic Compliance Matrix: (Units=1/GPa)
#
#
# Indices 1 2 3 4 5 6 
#
# 1 0.009671 -0.000085 -0.002891 0.000000 0.000000 0.000000
# 2 -0.000085 0.009405 -0.002445 0.000000 0.000000 0.000000
# 3 -0.002891 -0.002445 0.010278 0.000000 0.000000 0.000000
# 4 0.000000 0.000000 0.000000 0.031463 0.000000 0.000000
# 5 0.000000 0.000000 0.000000 0.000000 0.021452 0.000000
# 6 0.000000 0.000000 0.000000 0.000000 0.000000 0.066643
#
#
# Mechanical properties :
#
#
# Convention : Reuss Voigt Hill
#
# Bulk Modulus (GPa) = 54.01909 54.51891 54.26900
# Shear Modulus (GPa) = 30.13422 36.53150 33.33286
#
# Velocity S-wave (km/s) = 3.63908 4.00678 3.82734
# Velocity P-wave (km/s) = 6.43402 6.73533 6.58640
#
# Compressibility (1/GPa) = 0.01851198
#
# Stress axis : x y z
#
# Youngs Moduli (GPa) = 103.40716 106.32365 97.29272
#
# Poissons Ratio (x) = 0.00904 0.28123
# Poissons Ratio (y) = 0.00879 0.23793
# Poissons Ratio (z) = 0.29890 0.26001
#
# Static dielectric constant tensor:
#      x y z
#    x 1.937630 0.000000 0.000000 
#    y 0.000000 1.872970 0.000000 
#    z 0.000000 0.000000 2.092850 
# 
# From -- ./inp_files/18138.got.cif
#   From: 2010.05.17/outbox.cif.g08.bks.cpg/sg22_10_cif.got.tgz:18138.got - 2010.06.03 23:40:54.
