data_PCOD9327531
_publ_section_title
;
Structure prediction by ZEFSAII (Michael W. Deem and Ramdas Pophale) SiO2 
 PCOD9327531
Probable space group: F 2 2 2
;
_chemical_formula_sum "Si O2"
_cell_formula_units_Z 64
_cell_length_a 17.753365
_cell_length_b 26.429391
_cell_length_c 6.643890
_cell_angle_alpha 90.000000
_cell_angle_beta 90.000000
_cell_angle_gamma 90.000000
_cell_volume 3117.383780
_symmetry_space_group_name_H-M "F 2 2 2"
_symmetry_group_IT_number 22
_symmetry_cell_setting 'orthorhombic'
loop_
_space_group_symop_operation_xyz
x,y,z
-x,-y,z
x,-y,-z
-x,y,-z
x,1/2+y,1/2+z
-x,1/2-y,1/2+z
x,1/2-y,1/2-z
-x,1/2+y,1/2-z
1/2+x,y,1/2+z
1/2-x,-y,1/2+z
1/2+x,-y,1/2-z
1/2-x,y,1/2-z
1/2+x,1/2+y,z
1/2-x,1/2-y,z
1/2+x,1/2-y,-z
1/2-x,1/2+y,-z
loop_
_atom_site_type_symbol
_atom_site_label
_atom_site_fract_x
_atom_site_fract_y
_atom_site_fract_z
Si Si1 0.173090 0.463564 0.665384
Si Si2 0.910816 0.101709 0.483263
Si Si3 0.658866 0.191814 0.276649
Si Si4 0.676809 0.627195 0.129961
O O1 0.136567 0.500000 0.500000
O O2 0.250000 0.487932 0.750000
O O3 0.121033 0.443678 0.844529
O O4 0.198553 0.414166 0.538398
O O5 0.881506 0.153390 0.376568
O O6 0.876522 0.101673 0.706197
O O7 0.000000 0.100259 0.500000
O O8 0.637420 0.250000 0.250000
O O9 0.750000 0.188130 0.250000
O O10 0.641204 0.172240 0.501562
O O11 0.750000 0.644897 0.250000
#
# Coordination Sequence:
#
# PCOD9327531 Si02
#       4
#    16  16  16  16
#     4  11  23  39  69  97 123 166 225 267 318 389
#     4  11  24  43  63  95 135 173 209 269 333 387
#     4  10  21  39  63  97 128 168 230 268 313 388
#     4  11  19  40  67  89 126 171 212 268 322 376
#
# _framework density 20.530035999999999
#
# number of rings (size 3 to 8) (size 9 to 14) (size 15 to 20)
#    0.000    1.250    5.000    2.250    0.000    5.000 
#    4.500    3.750    0.000    0.000    0.000    0.000 
#    0.000    0.000    0.000    0.000    0.000    0.000 
#
# Total GULP energy -89413.183775 kJ/mol
# GULP energy per Si atom -5588.323986 kJ/mol
# Density = 2.048331 g / cm^3
# Si number density = 20.530036 Si / 1000 Ang^3
#
#
#
# Elastic Constant Matrix: (Units=GPa)
#
#
# Indices 1 2 3 4 5 6 
#
# 1 102.4129 6.4842 36.2745 0.0000 0.0005 -0.0001
# 2 6.4842 84.9321 31.6350 0.0001 -0.0001 -0.0001
# 3 36.2745 31.6350 133.9565 0.0001 0.0006 -0.0004
# 4 0.0000 0.0001 0.0001 29.4609 -0.0001 -0.0001
# 5 0.0005 -0.0001 0.0006 -0.0001 20.1394 0.0003
# 6 -0.0001 -0.0001 -0.0004 -0.0001 0.0003 6.8688
#
#
#
# Elastic Compliance Matrix: (Units=1/GPa)
#
#
# Indices 1 2 3 4 5 6 
#
# 1 0.010807 0.000291 -0.002995 0.000000 0.000000 0.000000
# 2 0.000291 0.012917 -0.003129 0.000000 0.000000 0.000000
# 3 -0.002995 -0.003129 0.009015 0.000000 0.000000 0.000000
# 4 0.000000 0.000000 0.000000 0.033943 0.000000 0.000000
# 5 0.000000 0.000000 0.000000 0.000000 0.049654 -0.000002
# 6 0.000000 0.000000 0.000000 0.000000 -0.000002 0.145586
#
#
# Mechanical properties :
#
#
# Convention : Reuss Voigt Hill
#
# Bulk Modulus (GPa) = 47.45646 52.23212 49.84429
# Shear Modulus (GPa) = 17.81806 27.75433 22.78619
#
# Velocity S-wave (km/s) = 2.94921 3.68079 3.33512
# Velocity P-wave (km/s) = 5.89601 6.60010 6.25797
#
# Compressibility (1/GPa) = 0.02107194
#
# Stress axis : x y z
#
# Youngs Moduli (GPa) = 92.53404 77.41436 110.92445
#
# Poissons Ratio (x) = -0.02249 0.33222
# Poissons Ratio (y) = -0.02688 0.34711
# Poissons Ratio (z) = 0.27714 0.24225
#
# Static dielectric constant tensor:
#      x y z
#    x 1.726170 0.000000 0.000000 
#    y 0.000000 1.764980 0.000000 
#    z 0.000000 0.000000 1.774440 
# 
# From -- ./inp_files/2851.got.cif
#   From: 2010.05.17/outbox.cif.g08.bks.cpg/sg22_2_cif.got.tgz:2851.got - 2010.06.03 23:40:54.
