data_PCOD9327682
_publ_section_title
;
Structure prediction by ZEFSAII (Michael W. Deem and Ramdas Pophale) SiO2 
 PCOD9327682
Probable space group: F 2 2 2
;
_chemical_formula_sum "Si O2"
_cell_formula_units_Z 96
_cell_length_a 8.697655
_cell_length_b 20.346435
_cell_length_c 24.410644
_cell_angle_alpha 90.000000
_cell_angle_beta 90.000000
_cell_angle_gamma 90.000000
_cell_volume 4319.860668
_symmetry_space_group_name_H-M "F 2 2 2"
_symmetry_group_IT_number 22
_symmetry_cell_setting 'orthorhombic'
loop_
_space_group_symop_operation_xyz
x,y,z
-x,-y,z
x,-y,-z
-x,y,-z
x,1/2+y,1/2+z
-x,1/2-y,1/2+z
x,1/2-y,1/2-z
-x,1/2+y,1/2-z
1/2+x,y,1/2+z
1/2-x,-y,1/2+z
1/2+x,-y,1/2-z
1/2-x,y,1/2-z
1/2+x,1/2+y,z
1/2-x,1/2-y,z
1/2+x,1/2-y,-z
1/2-x,1/2+y,-z
loop_
_atom_site_type_symbol
_atom_site_label
_atom_site_fract_x
_atom_site_fract_y
_atom_site_fract_z
Si Si1 0.416606 0.642311 0.919173
Si Si2 0.572378 0.116971 0.130965
Si Si3 0.722961 0.671401 0.311406
Si Si4 0.908847 0.274212 0.046805
Si Si5 0.361517 0.959175 0.367965
Si Si6 0.827768 0.050083 0.550982
O O1 0.335231 0.648472 0.859859
O O2 0.484798 0.712486 0.936451
O O3 0.555283 0.591889 0.908877
O O4 0.287096 0.612132 0.959665
O O5 0.444327 0.145217 0.171567
O O6 0.629258 0.180328 0.097804
O O7 0.717282 0.079979 0.158214
O O8 0.479313 0.074288 0.084493
O O9 0.750000 0.646807 0.250000
O O10 0.750000 0.750000 0.310773
O O11 0.750000 0.250000 0.023226
O O12 0.000000 0.312693 0.000000
O O13 0.500000 0.000000 0.338501
O O14 0.272919 0.011670 0.404423
O O15 0.843207 0.000000 0.500000
#
# Coordination Sequence:
#
# PCOD9327682 Si02
#       6
#    16  16  16  16  16  16
#     4  10  22  41  64  91 133 169 220 281 334 411
#     4  11  23  41  66  93 137 173 227 290 338 419
#     4  10  21  41  70 102 133 169 218 286 363 420
#     4  12  27  39  60  93 139 184 220 272 359 415
#     4  10  22  40  59  88 127 175 223 273 324 388
#     4  10  24  38  63  90 126 174 230 271 333 399
#
# _framework density 22.222940000000001
#
# number of rings (size 3 to 8) (size 9 to 14) (size 15 to 20)
#    0.000    1.500    3.333    0.500    9.333    3.000 
#    0.000    0.833    0.000   33.000    0.000    0.000 
#    0.000    0.000    0.000    0.000    0.000    0.000 
#
# Total GULP energy -133920.751777 kJ/mol
# GULP energy per Si atom -5580.031324 kJ/mol
# Density = 2.217236 g / cm^3
# Si number density = 22.222940 Si / 1000 Ang^3
#
#
#
# Elastic Constant Matrix: (Units=GPa)
#
#
# Indices 1 2 3 4 5 6 
#
# 1 161.9797 47.9251 33.3298 0.0000 0.0000 0.0000
# 2 47.9251 97.3568 19.3896 0.0000 0.0000 0.0000
# 3 33.3298 19.3896 69.7926 0.0000 0.0000 0.0000
# 4 0.0000 0.0000 0.0000 14.0824 0.0000 0.0000
# 5 0.0000 0.0000 0.0000 0.0000 15.8569 0.0000
# 6 0.0000 0.0000 0.0000 0.0000 0.0000 49.4374
#
#
#
# Elastic Compliance Matrix: (Units=1/GPa)
#
#
# Indices 1 2 3 4 5 6 
#
# 1 0.007704 -0.003239 -0.002779 0.000000 0.000000 0.000000
# 2 -0.003239 0.012235 -0.001852 0.000000 0.000000 0.000000
# 3 -0.002779 -0.001852 0.016170 0.000000 0.000000 0.000000
# 4 0.000000 0.000000 0.000000 0.071011 0.000000 0.000000
# 5 0.000000 0.000000 0.000000 0.000000 0.063064 0.000000
# 6 0.000000 0.000000 0.000000 0.000000 0.000000 0.020228
#
#
# Mechanical properties :
#
#
# Convention : Reuss Voigt Hill
#
# Bulk Modulus (GPa) = 49.09684 58.93534 54.01609
# Shear Modulus (GPa) = 23.48076 31.10766 27.29421
#
# Velocity S-wave (km/s) = 3.25407 3.74545 3.50837
# Velocity P-wave (km/s) = 6.02158 6.72920 6.38520
#
# Compressibility (1/GPa) = 0.02036791
#
# Stress axis : x y z
#
# Youngs Moduli (GPa) = 129.80739 81.73460 61.84302
#
# Poissons Ratio (x) = 0.26472 0.17187
# Poissons Ratio (y) = 0.42041 0.11455
# Poissons Ratio (z) = 0.36076 0.15140
#
# Static dielectric constant tensor:
#      x y z
#    x 1.892480 0.000000 0.000000 
#    y 0.000000 1.946020 0.000000 
#    z 0.000000 0.000000 1.763770 
# 
# From -- ./inp_files/51919.got.cif
#   From: 2010.05.17/outbox.cif.g08.bks.cpg/sg22_26_cif.got.tgz:51919.got - 2010.06.03 23:40:54.
