data_PCOD9327150
_publ_section_title
;
Structure prediction by ZEFSAII (Michael W. Deem and Ramdas Pophale) SiO2 
 PCOD9327150
Probable space group: F 2 2 2
;
_chemical_formula_sum "Si O2"
_cell_formula_units_Z 88
_cell_length_a 13.447892
_cell_length_b 11.214958
_cell_length_c 30.018758
_cell_angle_alpha 90.000000
_cell_angle_beta 90.000000
_cell_angle_gamma 90.000000
_cell_volume 4527.355355
_symmetry_space_group_name_H-M "F 2 2 2"
_symmetry_group_IT_number 22
_symmetry_cell_setting 'orthorhombic'
loop_
_space_group_symop_operation_xyz
x,y,z
-x,-y,z
x,-y,-z
-x,y,-z
x,1/2+y,1/2+z
-x,1/2-y,1/2+z
x,1/2-y,1/2-z
-x,1/2+y,1/2-z
1/2+x,y,1/2+z
1/2-x,-y,1/2+z
1/2+x,-y,1/2-z
1/2-x,y,1/2-z
1/2+x,1/2+y,z
1/2-x,1/2-y,z
1/2+x,1/2-y,-z
1/2-x,1/2+y,-z
loop_
_atom_site_type_symbol
_atom_site_label
_atom_site_fract_x
_atom_site_fract_y
_atom_site_fract_z
Si Si1 0.000000 0.703064 0.500000
Si Si2 0.881966 0.636284 0.324208
Si Si3 0.250000 0.750000 0.750000
Si Si4 0.750000 0.750000 0.104140
Si Si5 0.750000 0.750000 0.750000
Si Si6 0.385956 0.858869 0.326208
Si Si7 0.180791 0.051398 0.043420
Si Si8 0.859611 0.206943 0.075822
O O1 0.912995 0.627190 0.475252
O O2 0.940680 0.761497 0.541690
O O3 0.818338 0.669611 0.281311
O O4 0.843062 0.722173 0.363726
O O5 0.864673 0.498115 0.336193
O O6 0.997837 0.651929 0.315281
O O7 0.749047 0.865495 0.072733
O O8 0.680232 0.822607 0.715888
O O9 0.371004 0.780129 0.370985
O O10 0.137505 0.935956 0.068056
O O11 0.235171 0.000000 0.000000
O O12 0.750000 0.250000 0.062930
#
# Coordination Sequence:
#
# PCOD9327150 Si02
#       8
#     8  16   4   8   4  16  16  16
#     4  10  23  38  64  93 120 163 222 258 309 386
#     4  10  22  37  66  86 125 153 214 256 317 374
#     4  10  20  40  56 100 110 160 196 272 316 374
#     4  11  20  37  63  92 116 164 207 267 306 373
#     4  12  24  40  66  92 134 168 206 260 330 380
#     4  11  22  40  60  94 121 170 209 262 311 385
#     4  10  21  35  60  89 119 158 212 258 309 372
#     4  11  21  38  61  93 125 160 208 268 314 371
#
# _framework density 19.437397000000001
#
# number of rings (size 3 to 8) (size 9 to 14) (size 15 to 20)
#    0.000    1.455    2.727    4.636    7.636    0.000 
#    0.000    0.000    0.000   12.000    0.000    0.000 
#    0.000    0.000    0.000    0.000    0.000    0.000 
#
# Total GULP energy -122622.345506 kJ/mol
# GULP energy per Si atom -5573.742978 kJ/mol
# Density = 1.939316 g / cm^3
# Si number density = 19.437397 Si / 1000 Ang^3
#
#
#
# Elastic Constant Matrix: (Units=GPa)
#
#
# Indices 1 2 3 4 5 6 
#
# 1 105.3516 35.1810 63.9310 0.0000 0.0000 0.0000
# 2 35.1810 26.4172 24.0676 0.0000 0.0000 0.0000
# 3 63.9310 24.0676 152.7574 0.0000 0.0000 0.0000
# 4 0.0000 0.0000 0.0000 35.7337 0.0000 0.0000
# 5 0.0000 0.0000 0.0000 0.0000 20.2187 0.0000
# 6 0.0000 0.0000 0.0000 0.0000 0.0000 28.2784
#
#
#
# Elastic Compliance Matrix: (Units=1/GPa)
#
#
# Indices 1 2 3 4 5 6 
#
# 1 0.019712 -0.021875 -0.004803 0.000000 0.000000 0.000000
# 2 -0.021875 0.068474 -0.001633 0.000000 0.000000 0.000000
# 3 -0.004803 -0.001633 0.008814 0.000000 0.000000 0.000000
# 4 0.000000 0.000000 0.000000 0.027985 0.000000 0.000000
# 5 0.000000 0.000000 0.000000 0.000000 0.049459 0.000000
# 6 0.000000 0.000000 0.000000 0.000000 0.000000 0.035363
#
#
# Mechanical properties :
#
#
# Convention : Reuss Voigt Hill
#
# Bulk Modulus (GPa) = 24.76673 58.98724 41.87699
# Shear Modulus (GPa) = 17.86426 27.60259 22.73343
#
# Velocity S-wave (km/s) = 3.03490 3.77248 3.42361
# Velocity P-wave (km/s) = 5.00503 7.02771 6.10078
#
# Compressibility (1/GPa) = 0.04037674
#
# Stress axis : x y z
#
# Youngs Moduli (GPa) = 50.73156 14.60401 113.45804
#
# Poissons Ratio (x) = 0.31946 0.54495
# Poissons Ratio (y) = 1.10975 0.18533
# Poissons Ratio (z) = 0.24367 0.02385
#
# Static dielectric constant tensor:
#      x y z
#    x 1.663640 0.000000 0.000000 
#    y 0.000000 1.687980 0.000000 
#    z 0.000000 0.000000 1.740550 
# 
# From -- ./inp_files/56015.got.cif
#   From: 2010.05.17/outbox.cif.g08.bks.cpg/sg22_29_cif.got.tgz:56015.got - 2010.06.03 23:40:54.
