data_PCOD9327372
_publ_section_title
;
Structure prediction by ZEFSAII (Michael W. Deem and Ramdas Pophale) SiO2 
 PCOD9327372
Probable space group: F 2 2 2
;
_chemical_formula_sum "Si O2"
_cell_formula_units_Z 80
_cell_length_a 7.213660
_cell_length_b 29.854190
_cell_length_c 17.938021
_cell_angle_alpha 90.000000
_cell_angle_beta 90.000000
_cell_angle_gamma 90.000000
_cell_volume 3863.095900
_symmetry_space_group_name_H-M "F 2 2 2"
_symmetry_group_IT_number 22
_symmetry_cell_setting 'orthorhombic'
loop_
_space_group_symop_operation_xyz
x,y,z
-x,-y,z
x,-y,-z
-x,y,-z
x,1/2+y,1/2+z
-x,1/2-y,1/2+z
x,1/2-y,1/2-z
-x,1/2+y,1/2-z
1/2+x,y,1/2+z
1/2-x,-y,1/2+z
1/2+x,-y,1/2-z
1/2-x,y,1/2-z
1/2+x,1/2+y,z
1/2-x,1/2-y,z
1/2+x,1/2-y,-z
1/2-x,1/2+y,-z
loop_
_atom_site_type_symbol
_atom_site_label
_atom_site_fract_x
_atom_site_fract_y
_atom_site_fract_z
Si Si1 0.840631 0.193031 0.587308
Si Si2 0.030764 0.083506 0.738144
Si Si3 0.250000 0.663512 0.750000
Si Si4 0.136179 0.960096 0.412609
Si Si5 0.500000 0.613344 0.500000
Si Si6 0.000000 0.767805 0.000000
Si Si7 0.000000 0.500000 0.341498
O O1 0.771171 0.190861 0.672478
O O2 0.931082 0.146231 0.564553
O O3 0.674840 0.202503 0.526709
O O4 0.990801 0.232278 0.569472
O O5 0.250000 0.090016 0.750000
O O6 0.029724 0.064815 0.654844
O O7 0.922987 0.129127 0.753531
O O8 0.955924 0.042979 0.789638
O O9 0.158146 0.921054 0.473254
O O10 0.327388 0.982521 0.388609
O O11 0.000000 0.000000 0.430695
#
# Coordination Sequence:
#
# PCOD9327372 Si02
#       7
#    16  16   8  16   8   8   8
#     4  10  23  44  74  97 138 171 219 280 358 422
#     4  10  21  36  61  96 132 174 236 287 337 386
#     4  12  22  41  72 108 126 174 232 286 336 405
#     4  11  21  39  60  88 136 187 234 276 331 395
#     4  11  23  42  63  96 138 182 229 298 337 401
#     4   9  22  46  67  98 128 170 199 262 366 441
#     4  10  22  36  63  85 136 194 226 286 344 379
#
# _framework density 20.708777999999999
#
# number of rings (size 3 to 8) (size 9 to 14) (size 15 to 20)
#    0.000    1.600    3.000    1.500    1.400    4.800 
#    3.600    1.000    0.000    9.600    0.000    0.000 
#    0.000    0.000    0.000    0.000    0.000    0.000 
#
# Total GULP energy -111389.434625 kJ/mol
# GULP energy per Si atom -5569.471731 kJ/mol
# Density = 2.066164 g / cm^3
# Si number density = 20.708778 Si / 1000 Ang^3
#
#
#
# Elastic Constant Matrix: (Units=GPa)
#
#
# Indices 1 2 3 4 5 6 
#
# 1 79.0741 43.6516 34.4916 0.0000 0.0000 0.0000
# 2 43.6516 114.2604 40.0999 0.0000 0.0000 0.0000
# 3 34.4916 40.0999 107.2686 0.0000 0.0000 0.0000
# 4 0.0000 0.0000 0.0000 35.0593 0.0000 0.0000
# 5 0.0000 0.0000 0.0000 0.0000 39.8366 0.0000
# 6 0.0000 0.0000 0.0000 0.0000 0.0000 63.0267
#
#
#
# Elastic Compliance Matrix: (Units=1/GPa)
#
#
# Indices 1 2 3 4 5 6 
#
# 1 0.017108 -0.005301 -0.003519 0.000000 0.000000 0.000000
# 2 -0.005301 0.011716 -0.002675 0.000000 0.000000 0.000000
# 3 -0.003519 -0.002675 0.011454 0.000000 0.000000 0.000000
# 4 0.000000 0.000000 0.000000 0.028523 0.000000 0.000000
# 5 0.000000 0.000000 0.000000 0.000000 0.025103 0.000000
# 6 0.000000 0.000000 0.000000 0.000000 0.000000 0.015866
#
#
# Mechanical properties :
#
#
# Convention : Reuss Voigt Hill
#
# Bulk Modulus (GPa) = 57.84675 59.67656 58.76166
# Shear Modulus (GPa) = 36.09524 39.74185 37.91855
#
# Velocity S-wave (km/s) = 4.17945 4.38549 4.28370
# Velocity P-wave (km/s) = 7.16132 7.38396 7.27349
#
# Compressibility (1/GPa) = 0.01728705
#
# Stress axis : x y z
#
# Youngs Moduli (GPa) = 58.45359 85.35431 87.30475
#
# Poissons Ratio (x) = 0.45243 0.30726
# Poissons Ratio (y) = 0.30984 0.23357
# Poissons Ratio (z) = 0.20572 0.22835
#
# Static dielectric constant tensor:
#      x y z
#    x 1.760700 0.000000 0.000000 
#    y 0.000000 1.730670 0.000000 
#    z 0.000000 0.000000 1.722140 
# 
# From -- ./inp_files/35167.got.cif
#   From: 2010.05.17/outbox.cif.g08.bks.cpg/sg22_18_cif.got.tgz:35167.got - 2010.06.03 23:40:54.
