data_PCOD9327609
_publ_section_title
;
Structure prediction by ZEFSAII (Michael W. Deem and Ramdas Pophale) SiO2 
 PCOD9327609
Probable space group: F 2 2 2
;
_chemical_formula_sum "Si O2"
_cell_formula_units_Z 80
_cell_length_a 22.810126
_cell_length_b 12.868908
_cell_length_c 12.185977
_cell_angle_alpha 90.000000
_cell_angle_beta 90.000000
_cell_angle_gamma 90.000000
_cell_volume 3577.088907
_symmetry_space_group_name_H-M "F 2 2 2"
_symmetry_group_IT_number 22
_symmetry_cell_setting 'orthorhombic'
loop_
_space_group_symop_operation_xyz
x,y,z
-x,-y,z
x,-y,-z
-x,y,-z
x,1/2+y,1/2+z
-x,1/2-y,1/2+z
x,1/2-y,1/2-z
-x,1/2+y,1/2-z
1/2+x,y,1/2+z
1/2-x,-y,1/2+z
1/2+x,-y,1/2-z
1/2-x,y,1/2-z
1/2+x,1/2+y,z
1/2-x,1/2-y,z
1/2+x,1/2-y,-z
1/2-x,1/2+y,-z
loop_
_atom_site_type_symbol
_atom_site_label
_atom_site_fract_x
_atom_site_fract_y
_atom_site_fract_z
Si Si1 0.129456 0.639432 0.190100
Si Si2 0.992007 0.869970 0.279327
Si Si3 0.912141 0.404321 0.581292
Si Si4 0.600095 0.830104 0.056497
Si Si5 0.318286 0.580382 0.746010
O O1 0.144090 0.750000 0.250000
O O2 0.168723 0.542161 0.225964
O O3 0.061106 0.617274 0.216705
O O4 0.128915 0.639182 0.057954
O O5 0.981504 0.750000 0.250000
O O6 0.957698 0.921487 0.179411
O O7 0.957142 0.888181 0.393087
O O8 0.916182 0.500000 0.500000
O O9 0.920528 0.288880 0.534122
O O10 0.848763 0.398111 0.637872
O O11 0.647168 0.852505 0.153592
O O12 0.250000 0.602638 0.750000
#
# Coordination Sequence:
#
# PCOD9327609 Si02
#       5
#    16  16  16  16  16
#     4  11  22  40  64  95 132 169 214 273 326 381
#     4   8  18  37  62  95 133 166 204 255 324 400
#     4  10  21  40  65  96 127 164 213 268 329 394
#     4  10  21  40  66  94 128 170 211 262 327 397
#     4  11  25  43  61  88 126 171 225 271 324 395
#
# _framework density 22.364556
#
# number of rings (size 3 to 8) (size 9 to 14) (size 15 to 20)
#    0.000    2.000    0.000    4.200    0.000    6.800 
#    0.000   20.000    0.000    0.000    0.000    0.000 
#    0.000    0.000    0.000    0.000    0.000    0.000 
#
# Total GULP energy -111735.478790 kJ/mol
# GULP energy per Si atom -5586.773940 kJ/mol
# Density = 2.231365 g / cm^3
# Si number density = 22.364556 Si / 1000 Ang^3
#
#
#
# Elastic Constant Matrix: (Units=GPa)
#
#
# Indices 1 2 3 4 5 6 
#
# 1 95.1114 6.6803 10.8372 0.0000 0.0000 0.0000
# 2 6.6803 121.8088 18.0784 0.0000 0.0000 0.0000
# 3 10.8372 18.0784 87.2715 0.0000 0.0000 0.0000
# 4 0.0000 0.0000 0.0000 38.9700 0.0000 0.0000
# 5 0.0000 0.0000 0.0000 0.0000 11.2299 0.0000
# 6 0.0000 0.0000 0.0000 0.0000 0.0000 24.2714
#
#
#
# Elastic Compliance Matrix: (Units=1/GPa)
#
#
# Indices 1 2 3 4 5 6 
#
# 1 0.010684 -0.000401 -0.001244 0.000000 0.000000 0.000000
# 2 -0.000401 0.008485 -0.001708 0.000000 0.000000 0.000000
# 3 -0.001244 -0.001708 0.011967 0.000000 0.000000 0.000000
# 4 0.000000 0.000000 0.000000 0.025661 0.000000 0.000000
# 5 0.000000 0.000000 0.000000 0.000000 0.089048 0.000000
# 6 0.000000 0.000000 0.000000 0.000000 0.000000 0.041201
#
#
# Mechanical properties :
#
#
# Convention : Reuss Voigt Hill
#
# Bulk Modulus (GPa) = 40.93315 41.70930 41.32123
# Shear Modulus (GPa) = 24.76551 32.80065 28.78308
#
# Velocity S-wave (km/s) = 3.33131 3.83382 3.59136
# Velocity P-wave (km/s) = 5.75667 6.18771 5.97608
#
# Compressibility (1/GPa) = 0.02443008
#
# Stress axis : x y z
#
# Youngs Moduli (GPa) = 93.59905 117.85400 83.56519
#
# Poissons Ratio (x) = 0.04730 0.10392
# Poissons Ratio (y) = 0.03757 0.14272
# Poissons Ratio (z) = 0.11640 0.20128
#
# Static dielectric constant tensor:
#      x y z
#    x 1.772270 0.000000 0.000000 
#    y 0.000000 1.903380 0.000000 
#    z 0.000000 0.000000 1.842520 
# 
# From -- ./inp_files/23524.got.cif
#   From: 2010.05.17/outbox.cif.g08.bks.cpg/sg22_12_cif.got.tgz:23524.got - 2010.06.03 23:40:54.
