data_PCOD9327191
_publ_section_title
;
Structure prediction by ZEFSAII (Michael W. Deem and Ramdas Pophale) SiO2 
 PCOD9327191
Probable space group: F 2 2 2
;
_chemical_formula_sum "Si O2"
_cell_formula_units_Z 80
_cell_length_a 17.907061
_cell_length_b 26.728807
_cell_length_c 8.140082
_cell_angle_alpha 90.000000
_cell_angle_beta 90.000000
_cell_angle_gamma 90.000000
_cell_volume 3896.123080
_symmetry_space_group_name_H-M "F 2 2 2"
_symmetry_group_IT_number 22
_symmetry_cell_setting 'orthorhombic'
loop_
_space_group_symop_operation_xyz
x,y,z
-x,-y,z
x,-y,-z
-x,y,-z
x,1/2+y,1/2+z
-x,1/2-y,1/2+z
x,1/2-y,1/2-z
-x,1/2+y,1/2-z
1/2+x,y,1/2+z
1/2-x,-y,1/2+z
1/2+x,-y,1/2-z
1/2-x,y,1/2-z
1/2+x,1/2+y,z
1/2-x,1/2-y,z
1/2+x,1/2-y,-z
1/2-x,1/2+y,-z
loop_
_atom_site_type_symbol
_atom_site_label
_atom_site_fract_x
_atom_site_fract_y
_atom_site_fract_z
Si Si1 0.901890 0.599175 0.178045
Si Si2 0.426581 0.295171 0.880298
Si Si3 0.076407 0.598818 0.198743
Si Si4 0.666018 0.198564 0.677716
Si Si5 0.165879 0.496722 0.801347
O O1 0.879436 0.649933 0.267582
O O2 0.858394 0.552090 0.252417
O O3 0.988980 0.586630 0.188302
O O4 0.888979 0.606955 0.983151
O O5 0.431075 0.250000 0.750000
O O6 0.422188 0.349185 0.794397
O O7 0.500000 0.292885 0.000000
O O8 0.350067 0.293427 0.986177
O O9 0.117388 0.549481 0.265017
O O10 0.634280 0.250000 0.750000
O O11 0.750000 0.193477 0.750000
O O12 0.250000 0.487513 0.750000
O O13 0.157264 0.500000 0.000000
#
# Coordination Sequence:
#
# PCOD9327191 Si02
#       5
#    16  16  16  16  16
#     4  10  20  40  66  92 132 181 223 277 337 402
#     4  12  25  42  70 102 135 175 231 285 345 412
#     4  10  22  38  65  97 129 169 229 281 333 402
#     4  11  24  43  65  96 138 178 222 278 345 403
#     4  10  22  40  62  92 130 180 226 276 339 403
#
# _framework density 20.533232000000002
#
# number of rings (size 3 to 8) (size 9 to 14) (size 15 to 20)
#    0.000    1.400    2.000    3.000    2.800    7.200 
#    0.000    6.000    0.000    0.000    0.000    0.000 
#    0.000    0.000    0.000    0.000    0.000    0.000 
#
# Total GULP energy -111603.781110 kJ/mol
# GULP energy per Si atom -5580.189055 kJ/mol
# Density = 2.048650 g / cm^3
# Si number density = 20.533232 Si / 1000 Ang^3
#
#
#
# Elastic Constant Matrix: (Units=GPa)
#
#
# Indices 1 2 3 4 5 6 
#
# 1 89.2093 61.9476 33.1658 0.0000 0.0000 0.0002
# 2 61.9476 192.7381 47.1260 0.0000 0.0000 0.0001
# 3 33.1658 47.1260 62.7427 0.0000 -0.0001 0.0003
# 4 0.0000 0.0000 0.0000 1.6114 0.0000 -0.0001
# 5 0.0000 0.0000 -0.0001 0.0000 31.4667 -0.0002
# 6 0.0002 0.0001 0.0003 -0.0001 -0.0002 -153.6588
#
#
#
# Elastic Compliance Matrix: (Units=1/GPa)
#
#
# Indices 1 2 3 4 5 6 
#
# 1 0.015883 -0.003739 -0.005588 0.000000 0.000000 0.000000
# 2 -0.003739 0.007236 -0.003458 0.000000 0.000000 0.000000
# 3 -0.005588 -0.003458 0.021489 0.000000 0.000000 0.000000
# 4 0.000000 0.000000 0.000000 0.620567 0.000000 0.000000
# 5 0.000000 0.000000 0.000000 0.000000 0.031780 0.000000
# 6 0.000000 0.000000 0.000000 0.000000 0.000000 -0.006508
#
#
# Mechanical properties :
#
#
# Convention : Reuss Voigt Hill
#
# Bulk Modulus (GPa) = 52.52504 69.90766 61.21635
# Shear Modulus (GPa) = 6.92173 -10.61942 -1.84884
#
# Velocity S-wave (km/s) = 1.83802 -2.27663 -0.94993
# Velocity P-wave (km/s) = 5.49003 5.21625 5.35489
#
# Compressibility (1/GPa) = 0.01903854
#
# Stress axis : x y z
#
# Youngs Moduli (GPa) = 62.95977 138.20448 46.53474
#
# Poissons Ratio (x) = 0.51671 0.26002
# Poissons Ratio (y) = 0.23539 0.16094
# Poissons Ratio (z) = 0.35180 0.47796
#
# Static dielectric constant tensor:
#      x y z
#    x 1.725960 0.000000 0.000000 
#    y 0.000000 1.723880 0.000000 
#    z 0.000000 0.000000 1.822020 
# 
# From -- ./inp_files/11668.got.cif
#   From: 2010.05.17/outbox.cif.g08.bks.cpg/sg22_6_cif.got.tgz:11668.got - 2010.06.03 23:40:54.
