data_PCOD9327312
_publ_section_title
;
Structure prediction by ZEFSAII (Michael W. Deem and Ramdas Pophale) SiO2 
 PCOD9327312
Probable space group: F 2 2 2
;
_chemical_formula_sum "Si O2"
_cell_formula_units_Z 108
_cell_length_a 12.400491
_cell_length_b 30.657163
_cell_length_c 15.355356
_cell_angle_alpha 90.000000
_cell_angle_beta 90.000000
_cell_angle_gamma 90.000000
_cell_volume 5837.551622
_symmetry_space_group_name_H-M "F 2 2 2"
_symmetry_group_IT_number 22
_symmetry_cell_setting 'orthorhombic'
loop_
_space_group_symop_operation_xyz
x,y,z
-x,-y,z
x,-y,-z
-x,y,-z
x,1/2+y,1/2+z
-x,1/2-y,1/2+z
x,1/2-y,1/2-z
-x,1/2+y,1/2-z
1/2+x,y,1/2+z
1/2-x,-y,1/2+z
1/2+x,-y,1/2-z
1/2-x,y,1/2-z
1/2+x,1/2+y,z
1/2-x,1/2-y,z
1/2+x,1/2-y,-z
1/2-x,1/2+y,-z
loop_
_atom_site_type_symbol
_atom_site_label
_atom_site_fract_x
_atom_site_fract_y
_atom_site_fract_z
Si Si1 0.966392 0.607344 0.399856
Si Si2 0.157909 0.285589 0.584427
Si Si3 0.089561 0.705215 0.616088
Si Si4 0.344357 0.539387 0.803644
Si Si5 0.000000 0.000000 0.330876
Si Si6 0.250000 0.250000 0.250000
Si Si7 0.281946 0.528875 0.413400
Si Si8 0.799786 0.382889 0.346869
O O1 0.913282 0.653080 0.377321
O O2 0.888607 0.567533 0.381975
O O3 0.000000 0.609148 0.500000
O O4 0.075042 0.603459 0.344137
O O5 0.250000 0.250000 0.606776
O O6 0.133643 0.284100 0.480770
O O7 0.198789 0.333931 0.612975
O O8 0.036548 0.279667 0.624212
O O9 0.169860 0.723499 0.687489
O O10 0.250000 0.562652 0.750000
O O11 0.437884 0.531921 0.734352
O O12 0.293479 0.494820 0.840982
O O13 0.093477 0.977828 0.386981
O O14 0.263912 0.500000 0.500000
O O15 0.255058 0.580149 0.408033
O O16 0.750000 0.383345 0.250000
#
# Coordination Sequence:
#
# PCOD9327312 Si02
#       8
#    16  16  16  16   8   4  16  16
#     4  11  20  38  60  86 124 156 196 256 310 364
#     4  10  21  43  69  90 134 164 208 270 321 385
#     4  10  22  40  63  96 125 169 200 259 338 365
#     4  10  21  34  56  84 113 158 202 246 289 359
#     4  10  21  40  53  78 126 162 194 256 305 354
#     4  12  24  40  70  92 126 168 212 254 312 412
#     4  11  22  37  59  84 119 163 205 246 311 364
#     4  11  22  37  63  93 121 161 208 259 312 364
#
# _framework density 18.500907000000002
#
# number of rings (size 3 to 8) (size 9 to 14) (size 15 to 20)
#    0.000    1.481    3.704    4.222    1.037    2.667 
#    0.000    1.481    6.519    0.000    0.000    0.000 
#    0.000    0.000    0.000    0.000    0.000    0.000 
#
# Total GULP energy -150564.260825 kJ/mol
# GULP energy per Si atom -5576.454105 kJ/mol
# Density = 1.845880 g / cm^3
# Si number density = 18.500907 Si / 1000 Ang^3
#
#
#
# Elastic Constant Matrix: (Units=GPa)
#
#
# Indices 1 2 3 4 5 6 
#
# 1 112.5869 83.5342 50.6108 0.0000 0.0000 0.0000
# 2 83.5342 113.3001 43.5028 0.0000 0.0000 0.0000
# 3 50.6108 43.5028 106.1796 0.0000 0.0000 0.0000
# 4 0.0000 0.0000 0.0000 36.7922 0.0000 0.0000
# 5 0.0000 0.0000 0.0000 0.0000 31.3029 0.0000
# 6 0.0000 0.0000 0.0000 0.0000 0.0000 8.8651
#
#
#
# Elastic Compliance Matrix: (Units=1/GPa)
#
#
# Indices 1 2 3 4 5 6 
#
# 1 0.021205 -0.013947 -0.004393 0.000000 0.000000 0.000000
# 2 -0.013947 0.019648 -0.001402 0.000000 0.000000 0.000000
# 3 -0.004393 -0.001402 0.012086 0.000000 0.000000 0.000000
# 4 0.000000 0.000000 0.000000 0.027180 0.000000 0.000000
# 5 0.000000 0.000000 0.000000 0.000000 0.031946 0.000000
# 6 0.000000 0.000000 0.000000 0.000000 0.000000 0.112802
#
#
# Mechanical properties :
#
#
# Convention : Reuss Voigt Hill
#
# Bulk Modulus (GPa) = 74.32456 76.37358 75.34907
# Shear Modulus (GPa) = 18.59875 25.68664 22.14269
#
# Velocity S-wave (km/s) = 3.17407 3.73016 3.46330
# Velocity P-wave (km/s) = 7.32759 7.74098 7.53712
#
# Compressibility (1/GPa) = 0.01345450
#
# Stress axis : x y z
#
# Youngs Moduli (GPa) = 47.15833 50.89704 82.73847
#
# Poissons Ratio (x) = 0.70988 0.36348
# Poissons Ratio (y) = 0.65774 0.11597
# Poissons Ratio (z) = 0.20717 0.07134
#
# Static dielectric constant tensor:
#      x y z
#    x 1.626410 0.000000 0.000000 
#    y 0.000000 1.621190 0.000000 
#    z 0.000000 0.000000 1.666160 
# 
# From -- ./inp_files/28475.got.cif
#   From: 2010.05.17/outbox.cif.g08.bks.cpg/sg22_15_cif.got.tgz:28475.got - 2010.06.03 23:40:54.
