data_PCOD9327959
_publ_section_title
;
Structure prediction by ZEFSAII (Michael W. Deem and Ramdas Pophale) SiO2 
 PCOD9327959
Probable space group: F 2 2 2
;
_chemical_formula_sum "Si O2"
_cell_formula_units_Z 116
_cell_length_a 9.144948
_cell_length_b 25.908068
_cell_length_c 23.226306
_cell_angle_alpha 90.000000
_cell_angle_beta 90.000000
_cell_angle_gamma 90.000000
_cell_volume 5502.960710
_symmetry_space_group_name_H-M "F 2 2 2"
_symmetry_group_IT_number 22
_symmetry_cell_setting 'orthorhombic'
loop_
_space_group_symop_operation_xyz
x,y,z
-x,-y,z
x,-y,-z
-x,y,-z
x,1/2+y,1/2+z
-x,1/2-y,1/2+z
x,1/2-y,1/2-z
-x,1/2+y,1/2-z
1/2+x,y,1/2+z
1/2-x,-y,1/2+z
1/2+x,-y,1/2-z
1/2-x,y,1/2-z
1/2+x,1/2+y,z
1/2-x,1/2-y,z
1/2+x,1/2-y,-z
1/2-x,1/2+y,-z
loop_
_atom_site_type_symbol
_atom_site_label
_atom_site_fract_x
_atom_site_fract_y
_atom_site_fract_z
Si Si1 0.957831 0.301178 0.434170
Si Si2 0.292301 0.369747 0.092290
Si Si3 0.196764 0.139640 0.608945
Si Si4 0.175172 0.056296 0.312261
Si Si5 0.677258 0.557334 0.688816
Si Si6 0.250000 0.250000 0.250000
Si Si7 0.420675 0.207799 0.139879
Si Si8 0.672234 0.557946 0.507696
O O1 0.790522 0.316314 0.422323
O O2 0.000000 0.287078 0.500000
O O3 0.042430 0.354281 0.419566
O O4 0.012305 0.258986 0.388634
O O5 0.253488 0.401087 0.149263
O O6 0.206789 0.315640 0.099691
O O7 0.235157 0.404411 0.040669
O O8 0.255440 0.107874 0.663365
O O9 0.182283 0.091179 0.565879
O O10 0.048994 0.165890 0.632170
O O11 0.250000 0.058412 0.250000
O O12 0.999404 0.064189 0.308454
O O13 0.197745 0.999213 0.339942
O O14 0.750000 0.550080 0.750000
O O15 0.353475 0.218639 0.203908
O O16 0.735342 0.500000 0.500000
O O17 0.500000 0.552800 0.500000
#
# Coordination Sequence:
#
# PCOD9327959 Si02
#       8
#    16  16  16  16  16   4  16  16
#     4  12  28  46  69 103 145 182 244 296 357 431
#     4  12  23  43  70 102 130 193 226 286 360 416
#     4  12  25  44  67 105 139 187 230 292 364 416
#     4  10  22  40  68  97 133 180 234 279 350 430
#     4  10  22  41  64  99 135 175 227 291 346 427
#     4  12  28  52  74 112 144 184 258 306 372 432
#     4  12  27  46  77  99 139 186 241 298 355 431
#     4  11  22  40  70 106 142 181 240 294 351 435
#
# _framework density 21.079561000000002
#
# number of rings (size 3 to 8) (size 9 to 14) (size 15 to 20)
#    0.000    0.690    5.517    1.241    4.828    4.414 
#    0.000    3.448    0.000    0.000    0.000    0.000 
#    0.000    0.000    0.000    0.000    0.000    0.000 
#
# Total GULP energy -161693.871162 kJ/mol
# GULP energy per Si atom -5575.650730 kJ/mol
# Density = 2.103158 g / cm^3
# Si number density = 21.079561 Si / 1000 Ang^3
#
#
#
# Elastic Constant Matrix: (Units=GPa)
#
#
# Indices 1 2 3 4 5 6 
#
# 1 44.9981 19.6657 23.7736 0.0000 0.0000 0.0000
# 2 19.6657 105.7710 42.1809 0.0000 0.0000 0.0000
# 3 23.7736 42.1809 87.1141 0.0000 0.0000 0.0000
# 4 0.0000 0.0000 0.0000 34.3006 0.0000 0.0000
# 5 0.0000 0.0000 0.0000 0.0000 32.7487 0.0000
# 6 0.0000 0.0000 0.0000 0.0000 0.0000 16.8578
#
#
#
# Elastic Compliance Matrix: (Units=1/GPa)
#
#
# Indices 1 2 3 4 5 6 
#
# 1 0.026503 -0.002532 -0.006007 0.000000 0.000000 0.000000
# 2 -0.002532 0.011959 -0.005099 0.000000 0.000000 0.000000
# 3 -0.006007 -0.005099 0.015588 0.000000 0.000000 0.000000
# 4 0.000000 0.000000 0.000000 0.029154 0.000000 0.000000
# 5 0.000000 0.000000 0.000000 0.000000 0.030536 0.000000
# 6 0.000000 0.000000 0.000000 0.000000 0.000000 0.059320
#
#
# Mechanical properties :
#
#
# Convention : Reuss Voigt Hill
#
# Bulk Modulus (GPa) = 37.35107 45.45818 41.40462
# Shear Modulus (GPa) = 23.89370 26.93229 25.41299
#
# Velocity S-wave (km/s) = 3.37040 3.57830 3.47591
# Velocity P-wave (km/s) = 5.73618 6.21966 5.98280
#
# Compressibility (1/GPa) = 0.02677300
#
# Stress axis : x y z
#
# Youngs Moduli (GPa) = 37.73114 83.62019 64.15356
#
# Poissons Ratio (x) = 0.21175 0.38535
# Poissons Ratio (y) = 0.09554 0.32715
# Poissons Ratio (z) = 0.22664 0.42642
#
# Static dielectric constant tensor:
#      x y z
#    x 1.734490 0.000000 0.000000 
#    y 0.000000 1.847150 0.000000 
#    z 0.000000 0.000000 1.824590 
# 
# From -- ./inp_files/47536.got.cif
#   From: 2010.05.17/outbox.cif.g08.bks.cpg/sg22_24_cif.got.tgz:47536.got - 2010.06.03 23:40:54.
