data_PCOD9327652
_publ_section_title
;
Structure prediction by ZEFSAII (Michael W. Deem and Ramdas Pophale) SiO2 
 PCOD9327652
Probable space group: F 2 2 2
;
_chemical_formula_sum "Si O2"
_cell_formula_units_Z 104
_cell_length_a 23.847786
_cell_length_b 25.259086
_cell_length_c 7.708047
_cell_angle_alpha 90.000000
_cell_angle_beta 90.000000
_cell_angle_gamma 90.000000
_cell_volume 4643.121534
_symmetry_space_group_name_H-M "F 2 2 2"
_symmetry_group_IT_number 22
_symmetry_cell_setting 'orthorhombic'
loop_
_space_group_symop_operation_xyz
x,y,z
-x,-y,z
x,-y,-z
-x,y,-z
x,1/2+y,1/2+z
-x,1/2-y,1/2+z
x,1/2-y,1/2-z
-x,1/2+y,1/2-z
1/2+x,y,1/2+z
1/2-x,-y,1/2+z
1/2+x,-y,1/2-z
1/2-x,y,1/2-z
1/2+x,1/2+y,z
1/2-x,1/2-y,z
1/2+x,1/2-y,-z
1/2-x,1/2+y,-z
loop_
_atom_site_type_symbol
_atom_site_label
_atom_site_fract_x
_atom_site_fract_y
_atom_site_fract_z
Si Si1 0.055607 0.916644 0.103087
Si Si2 0.750000 0.464359 0.750000
Si Si3 0.134204 0.527225 0.173168
Si Si4 0.339786 0.613954 0.875770
Si Si5 0.044449 0.308409 0.840451
Si Si6 0.261129 0.808473 0.540006
Si Si7 0.848450 0.359221 0.028635
O O1 0.081248 0.968064 0.200956
O O2 0.042199 0.861605 0.215275
O O3 0.105939 0.906464 0.968393
O O4 0.000000 0.928596 0.000000
O O5 0.804493 0.500378 0.794304
O O6 0.715989 0.424157 0.879423
O O7 0.113593 0.500000 0.000000
O O8 0.144023 0.588794 0.140351
O O9 0.322016 0.667374 0.974045
O O10 0.352698 0.624275 0.674021
O O11 0.038069 0.250000 0.750000
O O12 0.106179 0.315131 0.924820
O O13 0.000000 0.312908 0.000000
O O14 0.250000 0.811037 0.750000
O O15 0.250000 0.750000 0.484130
O O16 0.214271 0.841073 0.444492
#
# Coordination Sequence:
#
# PCOD9327652 Si02
#       7
#    16   8  16  16  16  16  16
#     4  11  27  47  73 109 147 189 249 307 362 439
#     4  12  24  42  73 104 145 188 258 290 364 444
#     4  11  24  43  72 101 142 192 239 305 370 420
#     4  11  21  41  72 105 143 193 241 296 362 438
#     4  11  25  47  74 102 140 193 246 301 360 432
#     4   9  18  34  58  98 139 180 221 275 359 429
#     4  10  21  41  65 100 141 179 234 303 356 422
#
# _framework density 22.398724000000001
#
# number of rings (size 3 to 8) (size 9 to 14) (size 15 to 20)
#    0.000    1.385    3.846    1.385    6.462    0.000 
#    2.769    1.538   10.154    0.000    0.000    0.000 
#    0.000    0.000    0.000    0.000    0.000    0.000 
#
# Total GULP energy -144895.965117 kJ/mol
# GULP energy per Si atom -5572.921735 kJ/mol
# Density = 2.234774 g / cm^3
# Si number density = 22.398724 Si / 1000 Ang^3
#
#
#
# Elastic Constant Matrix: (Units=GPa)
#
#
# Indices 1 2 3 4 5 6 
#
# 1 165.6015 53.5812 63.7809 -0.0091 0.0104 0.0151
# 2 53.5812 102.0443 34.6945 -0.0058 0.0082 0.0072
# 3 63.7809 34.6945 75.6980 -0.0027 0.0104 0.0277
# 4 -0.0091 -0.0058 -0.0027 7.7470 0.0060 0.0132
# 5 0.0104 0.0082 0.0104 0.0060 38.4250 -0.0176
# 6 0.0151 0.0072 0.0277 0.0132 -0.0176 23.7821
#
#
#
# Elastic Compliance Matrix: (Units=1/GPa)
#
#
# Indices 1 2 3 4 5 6 
#
# 1 0.009526 -0.002692 -0.006792 0.000007 0.000000 0.000003
# 2 -0.002692 0.012370 -0.003401 0.000005 -0.000001 0.000002
# 3 -0.006792 -0.003401 0.020492 -0.000003 -0.000003 -0.000018
# 4 0.000007 0.000005 -0.000003 0.129083 -0.000020 -0.000071
# 5 0.000000 -0.000001 -0.000003 -0.000020 0.026025 0.000019
# 6 0.000003 0.000002 -0.000018 -0.000071 0.000019 0.042048
#
#
# Mechanical properties :
#
#
# Convention : Reuss Voigt Hill
#
# Bulk Modulus (GPa) = 60.18061 71.93965 66.06013
# Shear Modulus (GPa) = 18.46025 26.74330 22.60177
#
# Velocity S-wave (km/s) = 2.87394 3.45913 3.18002
# Velocity P-wave (km/s) = 6.15946 6.93841 6.56051
#
# Compressibility (1/GPa) = 0.01661665
#
# Stress axis : x y z
#
# Youngs Moduli (GPa) = 104.97934 80.84295 48.80000
#
# Poissons Ratio (x) = 0.21767 0.33145
# Poissons Ratio (y) = 0.28265 0.16596
# Poissons Ratio (z) = 0.71302 0.27493
#
# Static dielectric constant tensor:
#      x y z
#    x 1.806190 0.000020 0.000000 
#    y 0.000020 1.853840 -0.000010 
#    z 0.000000 -0.000010 2.030860 
# 
# From -- ./inp_files/12945.got.cif
#   From: 2010.05.17/outbox.cif.g08.bks.cpg/sg22_7_cif.got.tgz:12945.got - 2010.06.03 23:40:54.
