data_PCOD9327821
_publ_section_title
;
Structure prediction by ZEFSAII (Michael W. Deem and Ramdas Pophale) SiO2 
 PCOD9327821
Probable space group: F 2 2 2
;
_chemical_formula_sum "Si O2"
_cell_formula_units_Z 80
_cell_length_a 13.333316
_cell_length_b 10.283458
_cell_length_c 27.691225
_cell_angle_alpha 90.000000
_cell_angle_beta 90.000000
_cell_angle_gamma 90.000000
_cell_volume 3796.815721
_symmetry_space_group_name_H-M "F 2 2 2"
_symmetry_group_IT_number 22
_symmetry_cell_setting 'orthorhombic'
loop_
_space_group_symop_operation_xyz
x,y,z
-x,-y,z
x,-y,-z
-x,y,-z
x,1/2+y,1/2+z
-x,1/2-y,1/2+z
x,1/2-y,1/2-z
-x,1/2+y,1/2-z
1/2+x,y,1/2+z
1/2-x,-y,1/2+z
1/2+x,-y,1/2-z
1/2-x,y,1/2-z
1/2+x,1/2+y,z
1/2-x,1/2-y,z
1/2+x,1/2-y,-z
1/2-x,1/2+y,-z
loop_
_atom_site_type_symbol
_atom_site_label
_atom_site_fract_x
_atom_site_fract_y
_atom_site_fract_z
Si Si1 0.218540 0.901293 0.956497
Si Si2 0.452919 0.136726 0.714039
Si Si3 0.259172 0.509383 0.198256
Si Si4 0.597349 0.837167 0.367902
Si Si5 0.384613 0.965393 0.879539
O O1 0.250000 0.750000 0.968602
O O2 0.121351 0.885196 0.921741
O O3 0.308788 0.968087 0.925075
O O4 0.199239 0.000000 0.000000
O O5 0.485431 0.250000 0.750000
O O6 0.492187 0.148106 0.659076
O O7 0.500000 0.000000 0.732168
O O8 0.333683 0.126774 0.710911
O O9 0.250000 0.441484 0.250000
O O10 0.324459 0.415774 0.164523
O O11 0.160987 0.540680 0.166936
O O12 0.619365 0.685512 0.365450
O O13 0.500000 0.000000 0.890067
#
# Coordination Sequence:
#
# PCOD9327821 Si02
#       5
#    16  16  16  16  16
#     4   9  19  42  70  99 126 163 218 273 338 405
#     4  10  23  40  62  92 131 174 223 271 318 381
#     4  10  22  37  57  90 126 174 225 261 318 373
#     4   9  21  39  64  90 131 173 218 265 331 407
#     4  10  22  38  63  95 129 172 217 273 331 394
#
# _framework density 21.070288000000001
#
# number of rings (size 3 to 8) (size 9 to 14) (size 15 to 20)
#    0.000    2.400    0.000    1.800    8.400    1.600 
#    0.000    8.000    0.000   34.200    0.000    0.000 
#    0.000    0.000    0.000    0.000    0.000    0.000 
#
# Total GULP energy -111489.415495 kJ/mol
# GULP energy per Si atom -5574.470775 kJ/mol
# Density = 2.102233 g / cm^3
# Si number density = 21.070288 Si / 1000 Ang^3
#
#
#
# Elastic Constant Matrix: (Units=GPa)
#
#
# Indices 1 2 3 4 5 6 
#
# 1 95.9169 24.5087 37.2187 0.0000 0.0000 0.0000
# 2 24.5087 87.0869 64.5775 0.0000 0.0000 0.0000
# 3 37.2187 64.5775 129.1097 0.0000 0.0000 0.0000
# 4 0.0000 0.0000 0.0000 28.1309 0.0000 0.0000
# 5 0.0000 0.0000 0.0000 0.0000 15.8718 0.0000
# 6 0.0000 0.0000 0.0000 0.0000 0.0000 10.4295
#
#
#
# Elastic Compliance Matrix: (Units=1/GPa)
#
#
# Indices 1 2 3 4 5 6 
#
# 1 0.011827 -0.001272 -0.002773 0.000000 0.000000 0.000000
# 2 -0.001272 0.018389 -0.008831 0.000000 0.000000 0.000000
# 3 -0.002773 -0.008831 0.012962 0.000000 0.000000 0.000000
# 4 0.000000 0.000000 0.000000 0.035548 0.000000 0.000000
# 5 0.000000 0.000000 0.000000 0.000000 0.063005 0.000000
# 6 0.000000 0.000000 0.000000 0.000000 0.000000 0.095882
#
#
# Mechanical properties :
#
#
# Convention : Reuss Voigt Hill
#
# Bulk Modulus (GPa) = 57.38766 62.74702 60.06734
# Shear Modulus (GPa) = 18.57536 23.27369 20.92452
#
# Velocity S-wave (km/s) = 2.97238 3.32712 3.15474
# Velocity P-wave (km/s) = 6.25104 6.67863 6.46837
#
# Compressibility (1/GPa) = 0.01742535
#
# Stress axis : x y z
#
# Youngs Moduli (GPa) = 84.55393 54.37924 77.14920
#
# Poissons Ratio (x) = 0.06917 0.21394
# Poissons Ratio (y) = 0.10756 0.68132
# Poissons Ratio (z) = 0.23447 0.48023
#
# Static dielectric constant tensor:
#      x y z
#    x 1.875920 0.000000 0.000000 
#    y 0.000000 1.789010 0.000000 
#    z 0.000000 0.000000 1.811040 
# 
# From -- ./inp_files/48721.got.cif
#   From: 2010.05.17/outbox.cif.g08.bks.cpg/sg22_25_cif.got.tgz:48721.got - 2010.06.03 23:40:54.
