data_PCOD9327467
_publ_section_title
;
Structure prediction by ZEFSAII (Michael W. Deem and Ramdas Pophale) SiO2 
 PCOD9327467
Probable space group: F 2 2 2
;
_chemical_formula_sum "Si O2"
_cell_formula_units_Z 116
_cell_length_a 27.451558
_cell_length_b 8.084402
_cell_length_c 25.061458
_cell_angle_alpha 90.000000
_cell_angle_beta 90.000000
_cell_angle_gamma 90.000000
_cell_volume 5561.875099
_symmetry_space_group_name_H-M "F 2 2 2"
_symmetry_group_IT_number 22
_symmetry_cell_setting 'orthorhombic'
loop_
_space_group_symop_operation_xyz
x,y,z
-x,-y,z
x,-y,-z
-x,y,-z
x,1/2+y,1/2+z
-x,1/2-y,1/2+z
x,1/2-y,1/2-z
-x,1/2+y,1/2-z
1/2+x,y,1/2+z
1/2-x,-y,1/2+z
1/2+x,-y,1/2-z
1/2-x,y,1/2-z
1/2+x,1/2+y,z
1/2-x,1/2-y,z
1/2+x,1/2-y,-z
1/2-x,1/2+y,-z
loop_
_atom_site_type_symbol
_atom_site_label
_atom_site_fract_x
_atom_site_fract_y
_atom_site_fract_z
Si Si1 0.434315 0.677246 0.974163
Si Si2 0.831006 0.700849 0.996566
Si Si3 0.393288 0.192170 0.688679
Si Si4 0.096974 0.159530 0.146093
Si Si5 0.997400 0.806627 0.689038
Si Si6 0.000000 0.000000 0.500000
Si Si7 0.698174 0.197311 0.118529
Si Si8 0.802294 0.305229 0.886278
O O1 0.416748 0.625171 0.915367
O O2 0.451082 0.500000 0.000000
O O3 0.386367 0.736433 0.005420
O O4 0.466231 0.853276 0.971194
O O5 0.806296 0.762604 0.942316
O O6 0.831056 0.500000 0.000000
O O7 0.807667 0.758966 0.052442
O O8 0.388788 0.250000 0.750000
O O9 0.445634 0.250115 0.664978
O O10 0.347833 0.249901 0.653513
O O11 0.395370 0.996254 0.683876
O O12 0.148669 0.251998 0.144027
O O13 0.047854 0.244483 0.165810
O O14 0.995209 0.750000 0.750000
O O15 0.000000 0.000000 0.686181
O O16 0.750000 0.250000 0.141879
O O17 0.697593 0.001455 0.113461
O O18 0.750000 0.250000 0.864400
#
# Coordination Sequence:
#
# PCOD9327467 Si02
#       8
#    16  16  16  16  16   4  16  16
#     4  11  24  41  63  94 135 187 230 282 335 417
#     4   9  19  38  62  90 131 173 223 277 328 393
#     4  11  24  43  66  93 128 166 219 287 337 405
#     4  11  24  42  68  97 129 174 228 277 340 414
#     4  11  23  42  67  95 125 164 214 273 334 396
#     4  12  26  40  60  90 152 180 238 276 356 404
#     4  11  22  38  65  95 128 177 220 272 340 402
#     4  10  21  38  61  95 133 170 216 273 332 399
#
# _framework density 20.856275
#
# number of rings (size 3 to 8) (size 9 to 14) (size 15 to 20)
#    0.000    1.379    0.690    5.172    0.966    4.690 
#    0.000    0.690    0.000    2.897    0.000    0.000 
#    0.000    0.000    0.000    0.000    0.000    0.000 
#
# Total GULP energy -161649.021101 kJ/mol
# GULP energy per Si atom -5574.104176 kJ/mol
# Density = 2.080881 g / cm^3
# Si number density = 20.856275 Si / 1000 Ang^3
#
#
#
# Elastic Constant Matrix: (Units=GPa)
#
#
# Indices 1 2 3 4 5 6 
#
# 1 204.3138 47.2644 49.6410 0.0000 0.0000 0.0001
# 2 47.2644 101.6677 29.6034 0.0000 0.0001 0.0001
# 3 49.6410 29.6034 57.8110 0.0000 0.0000 0.0000
# 4 0.0000 0.0000 0.0000 25.7883 0.0000 0.0000
# 5 0.0000 0.0001 0.0000 0.0000 22.3977 0.0000
# 6 0.0001 0.0001 0.0000 0.0000 0.0000 31.1959
#
#
#
# Elastic Compliance Matrix: (Units=1/GPa)
#
#
# Indices 1 2 3 4 5 6 
#
# 1 0.006403 -0.001617 -0.004670 0.000000 0.000000 0.000000
# 2 -0.001617 0.011968 -0.004740 0.000000 0.000000 0.000000
# 3 -0.004670 -0.004740 0.023735 0.000000 0.000000 0.000000
# 4 0.000000 0.000000 0.000000 0.038777 0.000000 0.000000
# 5 0.000000 0.000000 0.000000 0.000000 0.044647 0.000000
# 6 0.000000 0.000000 0.000000 0.000000 0.000000 0.032056
#
#
# Mechanical properties :
#
#
# Convention : Reuss Voigt Hill
#
# Bulk Modulus (GPa) = 49.87066 68.53445 59.20256
# Shear Modulus (GPa) = 26.83484 31.69528 29.26506
#
# Velocity S-wave (km/s) = 3.59089 3.90256 3.74997
# Velocity P-wave (km/s) = 6.41531 7.29646 6.87003
#
# Compressibility (1/GPa) = 0.02005187
#
# Stress axis : x y z
#
# Youngs Moduli (GPa) = 156.17207 83.55735 42.13141
#
# Poissons Ratio (x) = 0.13510 0.19677
# Poissons Ratio (y) = 0.25251 0.19970
# Poissons Ratio (z) = 0.72937 0.39606
#
# Static dielectric constant tensor:
#      x y z
#    x 1.741880 0.000000 0.000000 
#    y 0.000000 1.782570 0.000000 
#    z 0.000000 0.000000 1.764060 
# 
# From -- ./inp_files/50496.got.cif
#   From: 2010.05.17/outbox.cif.g08.bks.cpg/sg22_26_cif.got.tgz:50496.got - 2010.06.03 23:40:54.
