data_PCOD9327886
_publ_section_title
;
Structure prediction by ZEFSAII (Michael W. Deem and Ramdas Pophale) SiO2 
 PCOD9327886
Probable space group: F 2 2 2
;
_chemical_formula_sum "Si O2"
_cell_formula_units_Z 64
_cell_length_a 35.087668
_cell_length_b 17.675807
_cell_length_c 5.059467
_cell_angle_alpha 90.000000
_cell_angle_beta 90.000000
_cell_angle_gamma 90.000000
_cell_volume 3137.895841
_symmetry_space_group_name_H-M "F 2 2 2"
_symmetry_group_IT_number 22
_symmetry_cell_setting 'orthorhombic'
loop_
_space_group_symop_operation_xyz
x,y,z
-x,-y,z
x,-y,-z
-x,y,-z
x,1/2+y,1/2+z
-x,1/2-y,1/2+z
x,1/2-y,1/2-z
-x,1/2+y,1/2-z
1/2+x,y,1/2+z
1/2-x,-y,1/2+z
1/2+x,-y,1/2-z
1/2-x,y,1/2-z
1/2+x,1/2+y,z
1/2-x,1/2-y,z
1/2+x,1/2-y,-z
1/2-x,1/2+y,-z
loop_
_atom_site_type_symbol
_atom_site_label
_atom_site_fract_x
_atom_site_fract_y
_atom_site_fract_z
Si Si1 0.179789 0.080271 0.875691
Si Si2 0.208217 0.661701 0.843707
Si Si3 0.024879 0.340662 0.750114
Si Si4 0.592723 0.550587 0.750024
O O1 0.201289 0.129288 0.642807
O O2 0.137868 0.066216 0.762154
O O3 0.177284 0.127557 0.145074
O O4 0.195335 0.000000 0.000000
O O5 0.208128 0.750000 0.750000
O O6 0.250000 0.633807 0.750000
O O7 0.028033 0.250000 0.750000
O O8 0.066615 0.375944 0.751286
O O9 0.000000 0.364410 0.500000
O O10 0.000000 0.364525 0.000000
O O11 0.584035 0.500000 0.500000
O O12 0.582858 0.500000 0.000000
#
# Coordination Sequence:
#
# PCOD9327886 Si02
#       4
#    16  16  16  16
#     4  11  23  42  63  91 127 163 206 257 312 373
#     4  11  24  42  65  93 125 162 209 261 312 373
#     4  10  22  39  59  87 120 153 195 245 296 355
#     4  11  23  40  61  87 120 157 200 248 297 359
#
# _framework density 20.395831999999999
#
# number of rings (size 3 to 8) (size 9 to 14) (size 15 to 20)
#    0.000    1.250    0.000    6.750    0.000    9.000 
#    0.000    3.750    0.000    0.000    0.000    0.000 
#    0.000    0.000    0.000    0.000    0.000    0.000 
#
# Total GULP energy -89149.885170 kJ/mol
# GULP energy per Si atom -5571.867823 kJ/mol
# Density = 2.034941 g / cm^3
# Si number density = 20.395832 Si / 1000 Ang^3
#
#
#
# Elastic Constant Matrix: (Units=GPa)
#
#
# Indices 1 2 3 4 5 6 
#
# 1 46.0025 27.7132 23.2581 0.0031 -0.0004 0.0000
# 2 27.7132 74.0883 35.9179 0.0033 -0.0003 -0.0001
# 3 23.2581 35.9179 169.0516 0.0080 -0.0014 -0.0006
# 4 0.0031 0.0033 0.0080 -142.9268 -0.0025 -0.0008
# 5 -0.0004 -0.0003 -0.0014 -0.0025 35.1077 0.0005
# 6 0.0000 -0.0001 -0.0006 -0.0008 0.0005 33.0534
#
#
#
# Elastic Compliance Matrix: (Units=1/GPa)
#
#
# Indices 1 2 3 4 5 6 
#
# 1 0.028571 -0.009790 -0.001851 0.000000 0.000000 0.000000
# 2 -0.009790 0.018402 -0.002563 0.000000 0.000000 0.000000
# 3 -0.001851 -0.002563 0.006715 0.000000 0.000000 0.000000
# 4 0.000000 0.000000 0.000000 -0.006997 0.000000 0.000000
# 5 0.000000 0.000000 0.000000 0.000000 0.028484 0.000000
# 6 0.000000 0.000000 0.000000 0.000000 0.000000 0.030254
#
#
# Mechanical properties :
#
#
# Convention : Reuss Voigt Hill
#
# Bulk Modulus (GPa) = 39.55633 51.43566 45.49600
# Shear Modulus (GPa) = 35.14605 -1.46959 16.83823
#
# Velocity S-wave (km/s) = 4.15565 -0.84976 2.87639
# Velocity P-wave (km/s) = 6.51631 4.93058 5.77810
#
# Compressibility (1/GPa) = 0.02528041
#
# Stress axis : x y z
#
# Youngs Moduli (GPa) = 34.99994 54.34214 148.93110
#
# Poissons Ratio (x) = 0.53201 0.27564
# Poissons Ratio (y) = 0.34265 0.38169
# Poissons Ratio (z) = 0.06478 0.13927
#
# Static dielectric constant tensor:
#      x y z
#    x 1.721910 0.000000 0.000000 
#    y 0.000000 1.826490 0.000000 
#    z 0.000000 0.000000 1.726020 
# 
# From -- ./inp_files/6139.got.cif
#   From: 2010.05.17/outbox.cif.g08.bks.cpg/sg22_4_cif.got.tgz:6139.got - 2010.06.03 23:40:54.
