data_PCOD9327216
_publ_section_title
;
Structure prediction by ZEFSAII (Michael W. Deem and Ramdas Pophale) SiO2 
 PCOD9327216
Probable space group: F 2 2 2
;
_chemical_formula_sum "Si O2"
_cell_formula_units_Z 112
_cell_length_a 25.171058
_cell_length_b 15.241565
_cell_length_c 14.205850
_cell_angle_alpha 90.000000
_cell_angle_beta 90.000000
_cell_angle_gamma 90.000000
_cell_volume 5450.022027
_symmetry_space_group_name_H-M "F 2 2 2"
_symmetry_group_IT_number 22
_symmetry_cell_setting 'orthorhombic'
loop_
_space_group_symop_operation_xyz
x,y,z
-x,-y,z
x,-y,-z
-x,y,-z
x,1/2+y,1/2+z
-x,1/2-y,1/2+z
x,1/2-y,1/2-z
-x,1/2+y,1/2-z
1/2+x,y,1/2+z
1/2-x,-y,1/2+z
1/2+x,-y,1/2-z
1/2-x,y,1/2-z
1/2+x,1/2+y,z
1/2-x,1/2-y,z
1/2+x,1/2-y,-z
1/2-x,1/2+y,-z
loop_
_atom_site_type_symbol
_atom_site_label
_atom_site_fract_x
_atom_site_fract_y
_atom_site_fract_z
Si Si1 0.209829 0.166469 0.059565
Si Si2 0.642181 0.701360 0.881615
Si Si3 0.191016 0.131353 0.707128
Si Si4 0.714686 0.948075 0.153203
Si Si5 0.366313 0.654113 0.759470
Si Si6 0.019608 0.600647 0.742438
Si Si7 0.980812 0.752846 0.607272
O O1 0.250000 0.250000 0.057940
O O2 0.248009 0.082861 0.069953
O O3 0.173004 0.162958 0.152307
O O4 0.169595 0.162954 0.973397
O O5 0.678081 0.784810 0.854371
O O6 0.649831 0.634811 0.794258
O O7 0.582764 0.737202 0.891022
O O8 0.250000 0.138867 0.750000
O O9 0.188853 0.042895 0.648042
O O10 0.750000 0.950666 0.250000
O O11 0.670037 0.875521 0.172771
O O12 0.390764 0.750000 0.750000
O O13 0.416625 0.592201 0.764101
O O14 0.000000 0.500000 0.744243
O O15 0.003057 0.662953 0.654452
O O16 0.999145 0.662066 0.830533
O O17 0.000000 0.762389 0.500000
#
# Coordination Sequence:
#
# PCOD9327216 Si02
#       7
#    16  16  16  16  16  16  16
#     4  11  21  38  64  99 128 174 212 270 329 414
#     4  11  23  38  70  86 132 176 226 261 342 394
#     4  10  20  41  60  95 125 174 214 272 318 399
#     4   9  21  35  62  89 133 161 211 260 327 398
#     4  11  20  38  67  93 128 174 213 274 348 403
#     4  11  25  44  73  99 133 183 238 292 359 417
#     4  11  25  46  67 102 137 177 236 297 345 414
#
# _framework density 20.550374999999999
#
# number of rings (size 3 to 8) (size 9 to 14) (size 15 to 20)
#    0.000    1.429    2.857    4.286    4.000    0.571 
#    0.000   11.429    3.143    0.000    0.000    0.000 
#    0.000    0.000    0.000    0.000    0.000    0.000 
#
# Total GULP energy -156243.861882 kJ/mol
# GULP energy per Si atom -5580.137924 kJ/mol
# Density = 2.050360 g / cm^3
# Si number density = 20.550375 Si / 1000 Ang^3
#
#
#
# Elastic Constant Matrix: (Units=GPa)
#
#
# Indices 1 2 3 4 5 6 
#
# 1 96.3032 26.6728 13.8089 0.0000 0.0000 0.0000
# 2 26.6728 113.9338 24.0733 0.0000 0.0000 0.0000
# 3 13.8089 24.0733 80.6098 0.0000 0.0000 0.0000
# 4 0.0000 0.0000 0.0000 9.7343 0.0000 0.0000
# 5 0.0000 0.0000 0.0000 0.0000 29.0909 0.0000
# 6 0.0000 0.0000 0.0000 0.0000 0.0000 18.8203
#
#
#
# Elastic Compliance Matrix: (Units=1/GPa)
#
#
# Indices 1 2 3 4 5 6 
#
# 1 0.011214 -0.002369 -0.001214 0.000000 0.000000 0.000000
# 2 -0.002369 0.009869 -0.002541 0.000000 0.000000 0.000000
# 3 -0.001214 -0.002541 0.013372 0.000000 0.000000 0.000000
# 4 0.000000 0.000000 0.000000 0.102730 0.000000 0.000000
# 5 0.000000 0.000000 0.000000 0.000000 0.034375 0.000000
# 6 0.000000 0.000000 0.000000 0.000000 0.000000 0.053134
#
#
# Mechanical properties :
#
#
# Convention : Reuss Voigt Hill
#
# Bulk Modulus (GPa) = 45.03036 46.66188 45.84612
# Shear Modulus (GPa) = 20.46295 26.61520 23.53907
#
# Velocity S-wave (km/s) = 3.15897 3.60268 3.38810
# Velocity P-wave (km/s) = 5.93845 6.32939 6.13703
#
# Compressibility (1/GPa) = 0.02220724
#
# Stress axis : x y z
#
# Youngs Moduli (GPa) = 89.17439 101.33190 74.78159
#
# Poissons Ratio (x) = 0.24004 0.09075
# Poissons Ratio (y) = 0.21124 0.19005
# Poissons Ratio (z) = 0.10822 0.25752
#
# Static dielectric constant tensor:
#      x y z
#    x 1.780950 0.000000 0.000000 
#    y 0.000000 1.738800 0.000000 
#    z 0.000000 0.000000 1.778840 
# 
# From -- ./inp_files/32513.got.cif
#   From: 2010.05.17/outbox.cif.g08.bks.cpg/sg22_17_cif.got.tgz:32513.got - 2010.06.03 23:40:54.
