data_PCOD9327444
_publ_section_title
;
Structure prediction by ZEFSAII (Michael W. Deem and Ramdas Pophale) SiO2 
 PCOD9327444
Probable space group: F 2 2 2
;
_chemical_formula_sum "Si O2"
_cell_formula_units_Z 64
_cell_length_a 14.014704
_cell_length_b 16.017973
_cell_length_c 13.063188
_cell_angle_alpha 90.000000
_cell_angle_beta 90.000000
_cell_angle_gamma 90.000000
_cell_volume 2932.517848
_symmetry_space_group_name_H-M "F 2 2 2"
_symmetry_group_IT_number 22
_symmetry_cell_setting 'orthorhombic'
loop_
_space_group_symop_operation_xyz
x,y,z
-x,-y,z
x,-y,-z
-x,y,-z
x,1/2+y,1/2+z
-x,1/2-y,1/2+z
x,1/2-y,1/2-z
-x,1/2+y,1/2-z
1/2+x,y,1/2+z
1/2-x,-y,1/2+z
1/2+x,-y,1/2-z
1/2-x,y,1/2-z
1/2+x,1/2+y,z
1/2-x,1/2-y,z
1/2+x,1/2-y,-z
1/2-x,1/2+y,-z
loop_
_atom_site_type_symbol
_atom_site_label
_atom_site_fract_x
_atom_site_fract_y
_atom_site_fract_z
Si Si1 0.610984 0.975481 0.611204
Si Si2 0.133289 0.761749 0.579012
Si Si3 0.359669 0.372100 0.242289
Si Si4 0.860419 0.720501 0.642515
O O1 0.630798 0.879089 0.631871
O O2 0.500000 0.000000 0.604037
O O3 0.654627 0.000000 0.500000
O O4 0.641544 0.033112 0.706097
O O5 0.250000 0.750000 0.570574
O O6 0.099316 0.682887 0.648135
O O7 0.104571 0.842206 0.646925
O O8 0.099372 0.758838 0.462497
O O9 0.250000 0.346155 0.250000
O O10 0.903814 0.750000 0.750000
O O11 0.750000 0.750000 0.645803
#
# Coordination Sequence:
#
# PCOD9327444 Si02
#       4
#    16  16  16  16
#     4  11  23  40  58  89 127 170 211 256 315 385
#     4   8  15  32  55  87 112 144 197 257 308 351
#     4   9  17  32  61  85 111 155 211 258 297 368
#     4  10  21  38  58  88 126 160 205 266 319 364
#
# _framework density 21.824248000000001
#
# number of rings (size 3 to 8) (size 9 to 14) (size 15 to 20)
#    0.000    2.500    2.500    1.500    3.500    0.000 
#    4.500    1.250    0.000    1.500    0.000    0.000 
#    0.000    0.000    0.000    0.000    0.000    0.000 
#
# Total GULP energy -89173.893797 kJ/mol
# GULP energy per Si atom -5573.368362 kJ/mol
# Density = 2.177457 g / cm^3
# Si number density = 21.824248 Si / 1000 Ang^3
#
#
#
# Elastic Constant Matrix: (Units=GPa)
#
#
# Indices 1 2 3 4 5 6 
#
# 1 58.0652 16.1300 15.3003 0.0000 0.0000 0.0000
# 2 16.1300 167.7712 96.9985 0.0000 0.0000 0.0000
# 3 15.3003 96.9985 252.7303 0.0000 0.0000 0.0000
# 4 0.0000 0.0000 0.0000 44.0800 0.0000 0.0000
# 5 0.0000 0.0000 0.0000 0.0000 12.2397 0.0000
# 6 0.0000 0.0000 0.0000 0.0000 0.0000 23.0953
#
#
#
# Elastic Compliance Matrix: (Units=1/GPa)
#
#
# Indices 1 2 3 4 5 6 
#
# 1 0.017752 -0.001395 -0.000539 0.000000 0.000000 0.000000
# 2 -0.001395 0.007770 -0.002898 0.000000 0.000000 0.000000
# 3 -0.000539 -0.002898 0.005102 0.000000 0.000000 0.000000
# 4 0.000000 0.000000 0.000000 0.022686 0.000000 0.000000
# 5 0.000000 0.000000 0.000000 0.000000 0.081701 0.000000
# 6 0.000000 0.000000 0.000000 0.000000 0.000000 0.043299
#
#
# Mechanical properties :
#
#
# Convention : Reuss Voigt Hill
#
# Bulk Modulus (GPa) = 47.71138 81.71381 64.71259
# Shear Modulus (GPa) = 25.64635 39.22554 32.43595
#
# Velocity S-wave (km/s) = 3.43174 4.24410 3.85935
# Velocity P-wave (km/s) = 6.13282 7.84472 7.04099
#
# Compressibility (1/GPa) = 0.02095936
#
# Stress axis : x y z
#
# Youngs Moduli (GPa) = 56.33292 128.70153 196.01815
#
# Poissons Ratio (x) = 0.17952 0.10572
# Poissons Ratio (y) = 0.07858 0.56799
# Poissons Ratio (z) = 0.03038 0.37293
#
# Static dielectric constant tensor:
#      x y z
#    x 1.767800 0.000000 0.000000 
#    y 0.000000 1.808850 0.000000 
#    z 0.000000 0.000000 1.893810 
# 
# From -- ./inp_files/19554.got.cif
#   From: 2010.05.17/outbox.cif.g08.bks.cpg/sg22_10_cif.got.tgz:19554.got - 2010.06.03 23:40:54.
