data_PCOD9327297
_publ_section_title
;
Structure prediction by ZEFSAII (Michael W. Deem and Ramdas Pophale) SiO2 
 PCOD9327297
Probable space group: F 2 2 2
;
_chemical_formula_sum "Si O2"
_cell_formula_units_Z 88
_cell_length_a 21.584206
_cell_length_b 11.243881
_cell_length_c 16.564666
_cell_angle_alpha 90.000000
_cell_angle_beta 90.000000
_cell_angle_gamma 90.000000
_cell_volume 4020.082829
_symmetry_space_group_name_H-M "F 2 2 2"
_symmetry_group_IT_number 22
_symmetry_cell_setting 'orthorhombic'
loop_
_space_group_symop_operation_xyz
x,y,z
-x,-y,z
x,-y,-z
-x,y,-z
x,1/2+y,1/2+z
-x,1/2-y,1/2+z
x,1/2-y,1/2-z
-x,1/2+y,1/2-z
1/2+x,y,1/2+z
1/2-x,-y,1/2+z
1/2+x,-y,1/2-z
1/2-x,y,1/2-z
1/2+x,1/2+y,z
1/2-x,1/2-y,z
1/2+x,1/2-y,-z
1/2-x,1/2+y,-z
loop_
_atom_site_type_symbol
_atom_site_label
_atom_site_fract_x
_atom_site_fract_y
_atom_site_fract_z
Si Si1 0.000000 0.500000 0.720414
Si Si2 0.812301 0.192144 0.029966
Si Si3 0.526783 0.162764 0.586274
Si Si4 0.662066 0.952760 0.383039
Si Si5 0.623905 0.387081 0.720928
Si Si6 0.599016 0.620832 0.453758
O O1 0.987357 0.612049 0.660263
O O2 0.060522 0.537308 0.769311
O O3 0.750000 0.250000 0.061480
O O4 0.834508 0.086971 0.087561
O O5 0.797802 0.127745 0.943714
O O6 0.864448 0.290682 0.013548
O O7 0.500000 0.129279 0.500000
O O8 0.592948 0.098445 0.599344
O O9 0.541015 0.302917 0.580756
O O10 0.671190 0.935753 0.288081
O O11 0.612921 0.250000 0.750000
O O12 0.640465 0.395222 0.627095
O O13 0.584807 0.500000 0.500000
#
# Coordination Sequence:
#
# PCOD9327297 Si02
#       6
#     8  16  16  16  16  16
#     4  10  21  32  65  88 126 174 206 258 311 377
#     4  10  21  39  68  95 127 168 220 266 329 387
#     4  10  21  34  64  95 128 170 221 251 311 396
#     4   9  21  39  66 100 120 174 219 265 319 390
#     4  11  20  43  62  94 132 163 218 266 314 389
#     4  11  25  42  60  95 139 167 213 281 325 371
#
# _framework density 21.890094999999999
#
# number of rings (size 3 to 8) (size 9 to 14) (size 15 to 20)
#    0.000    1.818    5.455    0.273   20.364    1.818 
#    0.000    2.727    0.000    1.091    0.000    0.000 
#    0.000    0.000    0.000    0.000    0.000    0.000 
#
# Total GULP energy -122799.899198 kJ/mol
# GULP energy per Si atom -5581.813600 kJ/mol
# Density = 2.184027 g / cm^3
# Si number density = 21.890095 Si / 1000 Ang^3
#
#
#
# Elastic Constant Matrix: (Units=GPa)
#
#
# Indices 1 2 3 4 5 6 
#
# 1 25.6710 29.6257 1.5496 0.0000 0.0000 0.0000
# 2 29.6257 175.6124 53.3888 0.0000 0.0000 0.0000
# 3 1.5496 53.3888 88.3526 0.0000 0.0000 0.0000
# 4 0.0000 0.0000 0.0000 38.1423 0.0000 0.0000
# 5 0.0000 0.0000 0.0000 0.0000 8.5566 0.0000
# 6 0.0000 0.0000 0.0000 0.0000 0.0000 14.5306
#
#
#
# Elastic Compliance Matrix: (Units=1/GPa)
#
#
# Indices 1 2 3 4 5 6 
#
# 1 0.050246 -0.010056 0.005195 0.000000 0.000000 0.000000
# 2 -0.010056 0.008988 -0.005255 0.000000 0.000000 0.000000
# 3 0.005195 -0.005255 0.014403 0.000000 0.000000 0.000000
# 4 0.000000 0.000000 0.000000 0.026218 0.000000 0.000000
# 5 0.000000 0.000000 0.000000 0.000000 0.116869 0.000000
# 6 0.000000 0.000000 0.000000 0.000000 0.000000 0.068820
#
#
# Mechanical properties :
#
#
# Convention : Reuss Voigt Hill
#
# Bulk Modulus (GPa) = 18.72468 50.97378 34.84923
# Shear Modulus (GPa) = 15.45228 25.91736 20.68482
#
# Velocity S-wave (km/s) = 2.65977 3.44463 3.07732
# Velocity P-wave (km/s) = 4.24323 6.25759 5.34614
#
# Compressibility (1/GPa) = 0.05340545
#
# Stress axis : x y z
#
# Youngs Moduli (GPa) = 19.90217 111.25480 69.43178
#
# Poissons Ratio (x) = 1.11876 -0.36071
# Poissons Ratio (y) = 0.20013 0.36487
# Poissons Ratio (z) = -0.10340 0.58465
#
# Static dielectric constant tensor:
#      x y z
#    x 1.830080 0.000000 0.000000 
#    y 0.000000 1.823370 0.000000 
#    z 0.000000 0.000000 1.899570 
# 
# From -- ./inp_files/38790.got.cif
#   From: 2010.05.17/outbox.cif.g08.bks.cpg/sg22_20_cif.got.tgz:38790.got - 2010.06.03 23:40:54.
