data_PCOD9327472
_publ_section_title
;
Structure prediction by ZEFSAII (Michael W. Deem and Ramdas Pophale) SiO2 
 PCOD9327472
Probable space group: F 2 2 2
;
_chemical_formula_sum "Si O2"
_cell_formula_units_Z 56
_cell_length_a 21.684541
_cell_length_b 24.863019
_cell_length_c 4.986457
_cell_angle_alpha 90.000000
_cell_angle_beta 90.000000
_cell_angle_gamma 90.000000
_cell_volume 2688.414159
_symmetry_space_group_name_H-M "F 2 2 2"
_symmetry_group_IT_number 22
_symmetry_cell_setting 'orthorhombic'
loop_
_space_group_symop_operation_xyz
x,y,z
-x,-y,z
x,-y,-z
-x,y,-z
x,1/2+y,1/2+z
-x,1/2-y,1/2+z
x,1/2-y,1/2-z
-x,1/2+y,1/2-z
1/2+x,y,1/2+z
1/2-x,-y,1/2+z
1/2+x,-y,1/2-z
1/2-x,y,1/2-z
1/2+x,1/2+y,z
1/2-x,1/2-y,z
1/2+x,1/2-y,-z
1/2-x,1/2+y,-z
loop_
_atom_site_type_symbol
_atom_site_label
_atom_site_fract_x
_atom_site_fract_y
_atom_site_fract_z
Si Si1 0.750000 0.962576 0.750000
Si Si2 0.929734 0.789298 0.499345
Si Si3 0.430130 0.440010 0.094769
Si Si4 0.130786 0.897030 0.394588
O O1 0.803006 0.925268 0.619788
O O2 0.728306 0.000000 0.500000
O O3 0.924789 0.750000 0.750000
O O4 0.879691 0.836445 0.507847
O O5 0.000000 0.813213 0.500000
O O6 0.923940 0.750000 0.250000
O O7 0.413210 0.431289 0.404089
O O8 0.413935 0.500000 0.000000
O O9 0.500000 0.431632 0.000000
O O10 0.391820 0.399360 0.911759
#
# Coordination Sequence:
#
# PCOD9327472 Si02
#       4
#     8  16  16  16
#     4  12  26  44  65  92 129 176 226 268 312 380
#     4  10  21  38  62  93 125 158 204 265 330 389
#     4  11  22  36  59  92 125 158 203 263 329 394
#     4  12  23  40  63  89 125 171 213 261 320 382
#
# _framework density 20.830121999999999
#
# number of rings (size 3 to 8) (size 9 to 14) (size 15 to 20)
#    0.000    0.857    0.000    9.429    0.000    4.571 
#    0.000    0.714    0.000    1.714    0.000    0.000 
#    0.000    0.000    0.000    0.000    0.000    0.000 
#
# Total GULP energy -78220.733313 kJ/mol
# GULP energy per Si atom -5587.195237 kJ/mol
# Density = 2.078271 g / cm^3
# Si number density = 20.830122 Si / 1000 Ang^3
#
#
#
# Elastic Constant Matrix: (Units=GPa)
#
#
# Indices 1 2 3 4 5 6 
#
# 1 125.5928 49.3011 20.4650 -0.0039 -0.0637 0.1575
# 2 49.3011 110.0279 25.4518 0.0288 0.0029 0.4773
# 3 20.4650 25.4518 115.2615 0.0345 -0.0110 0.6595
# 4 -0.0039 0.0288 0.0345 14.1173 -0.0190 0.4237
# 5 -0.0637 0.0029 -0.0110 -0.0190 28.9401 0.1841
# 6 0.1575 0.4773 0.6595 0.4237 0.1841 109.3485
#
#
#
# Elastic Compliance Matrix: (Units=1/GPa)
#
#
# Indices 1 2 3 4 5 6 
#
# 1 0.009732 -0.004174 -0.000806 0.000013 0.000021 0.000009
# 2 -0.004174 0.011368 -0.001769 -0.000019 -0.000011 -0.000033
# 3 -0.000806 -0.001769 0.009210 -0.000018 0.000002 -0.000047
# 4 0.000013 -0.000019 -0.000018 0.070844 0.000048 -0.000274
# 5 0.000021 -0.000011 0.000002 0.000048 0.034555 -0.000058
# 6 0.000009 -0.000033 -0.000047 -0.000274 -0.000058 0.009147
#
#
# Mechanical properties :
#
#
# Convention : Reuss Voigt Hill
#
# Bulk Modulus (GPa) = 59.48340 60.14644 59.81492
# Shear Modulus (GPa) = 30.49553 47.52546 39.01049
#
# Velocity S-wave (km/s) = 3.83039 4.78176 4.33227
# Velocity P-wave (km/s) = 6.94125 7.70873 7.33503
#
# Compressibility (1/GPa) = 0.01681141
#
# Stress axis : x y z
#
# Youngs Moduli (GPa) = 102.75122 87.96324 108.57793
#
# Poissons Ratio (x) = 0.36719 0.08754
# Poissons Ratio (y) = 0.42892 0.19207
# Poissons Ratio (z) = 0.08285 0.15561
#
# Static dielectric constant tensor:
#      x y z
#    x 1.803830 0.000050 0.000210 
#    y 0.000050 1.759460 -0.000340 
#    z 0.000210 -0.000340 1.690040 
# 
# From -- ./inp_files/3448.got.cif
#   From: 2010.05.17/outbox.cif.g08.bks.cpg/sg22_2_cif.got.tgz:3448.got - 2010.06.03 23:40:54.
