data_PCOD9327966
_publ_section_title
;
Structure prediction by ZEFSAII (Michael W. Deem and Ramdas Pophale) SiO2 
 PCOD9327966
Probable space group: F 2 2 2
;
_chemical_formula_sum "Si O2"
_cell_formula_units_Z 44
_cell_length_a 13.241445
_cell_length_b 25.974805
_cell_length_c 5.038543
_cell_angle_alpha 90.000000
_cell_angle_beta 90.000000
_cell_angle_gamma 90.000000
_cell_volume 1732.976391
_symmetry_space_group_name_H-M "F 2 2 2"
_symmetry_group_IT_number 22
_symmetry_cell_setting 'orthorhombic'
loop_
_space_group_symop_operation_xyz
x,y,z
-x,-y,z
x,-y,-z
-x,y,-z
x,1/2+y,1/2+z
-x,1/2-y,1/2+z
x,1/2-y,1/2-z
-x,1/2+y,1/2-z
1/2+x,y,1/2+z
1/2-x,-y,1/2+z
1/2+x,-y,1/2-z
1/2-x,y,1/2-z
1/2+x,1/2+y,z
1/2-x,1/2-y,z
1/2+x,1/2-y,-z
1/2-x,1/2+y,-z
loop_
_atom_site_type_symbol
_atom_site_label
_atom_site_fract_x
_atom_site_fract_y
_atom_site_fract_z
Si Si1 0.750000 0.750000 0.750000
Si Si2 0.590486 0.695993 0.349318
Si Si3 0.323419 0.889686 0.501164
Si Si4 0.325122 0.000000 0.500000
O O1 0.680544 0.715309 0.548208
O O2 0.500000 0.667430 0.500000
O O3 0.547875 0.750000 0.250000
O O4 0.619017 0.661239 0.096720
O O5 0.250000 0.896395 0.750000
O O6 0.380228 0.944669 0.484119
O O7 0.250000 0.883995 0.250000
O O8 0.250000 0.998734 0.250000
#
# Coordination Sequence:
#
# PCOD9327966 Si02
#       4
#     4  16  16   8
#     4  12  26  52  70 106 162 208 254 312 390 468
#     4  12  27  45  74 111 161 202 259 314 390 470
#     4  10  22  40  73 108 148 198 252 315 385 450
#     4   8  16  36  64 110 138 182 256 306 373 454
#
# _framework density 25.389842000000002
#
# number of rings (size 3 to 8) (size 9 to 14) (size 15 to 20)
#    0.000    1.455    1.818    2.727   10.182    0.000 
#    0.000    0.000    0.000    0.000   28.364    8.909 
#    0.000    0.000    0.000    0.000    0.000    0.000 
#
# Total GULP energy -61404.972002 kJ/mol
# GULP energy per Si atom -5582.270182 kJ/mol
# Density = 2.533205 g / cm^3
# Si number density = 25.389842 Si / 1000 Ang^3
#
#
#
# Elastic Constant Matrix: (Units=GPa)
#
#
# Indices 1 2 3 4 5 6 
#
# 1 104.9663 31.5689 58.5318 -0.0001 -0.0031 0.0004
# 2 31.5689 230.0295 46.9486 0.0000 0.0000 0.0000
# 3 58.5318 46.9486 215.2269 -0.0006 -0.0071 0.0009
# 4 -0.0001 0.0000 -0.0006 41.9018 0.0002 0.0001
# 5 -0.0031 0.0000 -0.0071 0.0002 46.4692 -0.0005
# 6 0.0004 0.0000 0.0009 0.0001 -0.0005 -19.5408
#
#
#
# Elastic Compliance Matrix: (Units=1/GPa)
#
#
# Indices 1 2 3 4 5 6 
#
# 1 0.011436 -0.000978 -0.002897 0.000000 0.000000 0.000000
# 2 -0.000978 0.004634 -0.000745 0.000000 0.000000 0.000000
# 3 -0.002897 -0.000745 0.005596 0.000000 0.000001 0.000000
# 4 0.000000 0.000000 0.000000 0.023865 0.000000 0.000000
# 5 0.000000 0.000000 0.000001 0.000000 0.021520 -0.000001
# 6 0.000000 0.000000 0.000000 0.000000 -0.000001 -0.051175
#
#
# Mechanical properties :
#
#
# Convention : Reuss Voigt Hill
#
# Bulk Modulus (GPa) = 80.47052 91.59127 86.03090
# Shear Modulus (GPa) = 170.89291 41.31094 106.10193
#
# Velocity S-wave (km/s) = 8.21302 4.03807 6.47146
# Velocity P-wave (km/s) = 11.03182 7.60878 9.47615
#
# Compressibility (1/GPa) = 0.01242691
#
# Stress axis : x y z
#
# Youngs Moduli (GPa) = 87.44006 215.81877 178.68341
#
# Poissons Ratio (x) = 0.21113 0.51761
# Poissons Ratio (y) = 0.08554 0.13306
# Poissons Ratio (z) = 0.25329 0.16072
#
# Static dielectric constant tensor:
#      x y z
#    x 2.001020 0.000000 0.000000 
#    y 0.000000 2.200070 0.000000 
#    z 0.000000 0.000000 1.994890 
# 
# From -- ./inp_files/1554.got.cif
#   From: 2010.05.17/outbox.cif.g08.bks.cpg/sg22_1_cif.got.tgz:1554.got - 2010.06.03 23:40:54.
