data_PCOD9327564
_publ_section_title
;
Structure prediction by ZEFSAII (Michael W. Deem and Ramdas Pophale) SiO2 
 PCOD9327564
Probable space group: F 2 2 2
;
_chemical_formula_sum "Si O2"
_cell_formula_units_Z 80
_cell_length_a 15.387981
_cell_length_b 9.702198
_cell_length_c 27.054573
_cell_angle_alpha 90.000000
_cell_angle_beta 90.000000
_cell_angle_gamma 90.000000
_cell_volume 4039.173037
_symmetry_space_group_name_H-M "F 2 2 2"
_symmetry_group_IT_number 22
_symmetry_cell_setting 'orthorhombic'
loop_
_space_group_symop_operation_xyz
x,y,z
-x,-y,z
x,-y,-z
-x,y,-z
x,1/2+y,1/2+z
-x,1/2-y,1/2+z
x,1/2-y,1/2-z
-x,1/2+y,1/2-z
1/2+x,y,1/2+z
1/2-x,-y,1/2+z
1/2+x,-y,1/2-z
1/2-x,y,1/2-z
1/2+x,1/2+y,z
1/2-x,1/2-y,z
1/2+x,1/2-y,-z
1/2-x,1/2+y,-z
loop_
_atom_site_type_symbol
_atom_site_label
_atom_site_fract_x
_atom_site_fract_y
_atom_site_fract_z
Si Si1 0.750000 0.250000 0.068171
Si Si2 0.872671 0.729952 0.120576
Si Si3 0.750000 0.978874 0.250000
Si Si4 0.439379 0.629099 0.716387
Si Si5 0.778632 0.494618 0.641441
Si Si6 0.100641 0.834888 0.506682
O O1 0.733964 0.383299 0.102666
O O2 0.833275 0.270024 0.032663
O O3 0.943668 0.674213 0.158985
O O4 0.859562 0.891308 0.133491
O O5 0.795678 0.621482 0.133420
O O6 0.880411 0.711991 0.062333
O O7 0.660495 0.898216 0.235270
O O8 0.773235 0.049274 0.197725
O O9 0.500000 0.500000 0.723545
O O10 0.474267 0.750000 0.750000
O O11 0.000000 0.799094 0.500000
O O12 0.109733 0.000000 0.500000
#
# Coordination Sequence:
#
# PCOD9327564 Si02
#       6
#     8  16   8  16  16  16
#     4  12  24  43  66 104 135 170 224 290 332 388
#     4  10  21  41  68  95 127 183 220 267 333 411
#     4  10  21  45  66  92 131 181 218 266 343 403
#     4  11  23  43  68 100 132 174 228 276 332 408
#     4  10  21  39  71  96 131 174 223 271 336 404
#     4  11  25  43  67  96 133 179 226 275 329 400
#
# _framework density 19.806034
#
# number of rings (size 3 to 8) (size 9 to 14) (size 15 to 20)
#    0.000    1.400    4.000    1.500    2.800    0.400 
#   10.800    2.000    0.000    0.000    0.000    0.000 
#    0.000    0.000    0.000    0.000    0.000    0.000 
#
# Total GULP energy -111372.284978 kJ/mol
# GULP energy per Si atom -5568.614249 kJ/mol
# Density = 1.976095 g / cm^3
# Si number density = 19.806034 Si / 1000 Ang^3
#
#
#
# Elastic Constant Matrix: (Units=GPa)
#
#
# Indices 1 2 3 4 5 6 
#
# 1 67.9294 56.7193 53.5999 0.0000 0.0000 0.0000
# 2 56.7193 121.2516 71.7804 0.0000 0.0000 0.0000
# 3 53.5999 71.7804 205.3857 0.0000 0.0000 0.0000
# 4 0.0000 0.0000 0.0000 11.4634 0.0000 0.0000
# 5 0.0000 0.0000 0.0000 0.0000 -7.1242 0.0000
# 6 0.0000 0.0000 0.0000 0.0000 0.0000 8.8501
#
#
#
# Elastic Compliance Matrix: (Units=1/GPa)
#
#
# Indices 1 2 3 4 5 6 
#
# 1 0.025683 -0.010145 -0.003157 0.000000 0.000000 0.000000
# 2 -0.010145 0.014406 -0.002387 0.000000 0.000000 0.000000
# 3 -0.003157 -0.002387 0.006527 0.000000 0.000000 0.000000
# 4 0.000000 0.000000 0.000000 0.087234 0.000000 0.000000
# 5 0.000000 0.000000 0.000000 0.000000 -0.140367 0.000000
# 6 0.000000 0.000000 0.000000 0.000000 0.000000 0.112993
#
#
# Mechanical properties :
#
#
# Convention : Reuss Voigt Hill
#
# Bulk Modulus (GPa) = 65.62652 84.30730 74.96691
# Shear Modulus (GPa) = 34.98111 16.80234 25.89173
#
# Velocity S-wave (km/s) = 4.20716 2.91580 3.61953
# Velocity P-wave (km/s) = 7.53703 7.34811 7.44317
#
# Compressibility (1/GPa) = 0.01523774
#
# Stress axis : x y z
#
# Youngs Moduli (GPa) = 38.93602 69.41405 153.20792
#
# Poissons Ratio (x) = 0.70422 0.48367
# Poissons Ratio (y) = 0.39501 0.36575
# Poissons Ratio (z) = 0.12292 0.16571
#
# Static dielectric constant tensor:
#      x y z
#    x 1.796940 0.000000 0.000000 
#    y 0.000000 1.668320 0.000000 
#    z 0.000000 0.000000 1.721320 
# 
# From -- ./inp_files/53493.got.cif
#   From: 2010.05.17/outbox.cif.g08.bks.cpg/sg22_27_cif.got.tgz:53493.got - 2010.06.03 23:40:54.
