data_PCOD9327988
_publ_section_title
;
Structure prediction by ZEFSAII (Michael W. Deem and Ramdas Pophale) SiO2 
 PCOD9327988
Probable space group: F 2 2 2
;
_chemical_formula_sum "Si O2"
_cell_formula_units_Z 68
_cell_length_a 16.712439
_cell_length_b 16.716883
_cell_length_c 8.846367
_cell_angle_alpha 90.000000
_cell_angle_beta 90.000000
_cell_angle_gamma 90.000000
_cell_volume 2471.497016
_symmetry_space_group_name_H-M "F 2 2 2"
_symmetry_group_IT_number 22
_symmetry_cell_setting 'orthorhombic'
loop_
_space_group_symop_operation_xyz
x,y,z
-x,-y,z
x,-y,-z
-x,y,-z
x,1/2+y,1/2+z
-x,1/2-y,1/2+z
x,1/2-y,1/2-z
-x,1/2+y,1/2-z
1/2+x,y,1/2+z
1/2-x,-y,1/2+z
1/2+x,-y,1/2-z
1/2-x,y,1/2-z
1/2+x,1/2+y,z
1/2-x,1/2-y,z
1/2+x,1/2-y,-z
1/2-x,1/2+y,-z
loop_
_atom_site_type_symbol
_atom_site_label
_atom_site_fract_x
_atom_site_fract_y
_atom_site_fract_z
Si Si1 0.290312 0.590894 0.397583
Si Si2 0.849874 0.301984 0.510924
Si Si3 0.000000 0.000000 0.000000
Si Si4 0.448610 0.129567 0.727770
Si Si5 0.872213 0.132733 0.670834
O O1 0.250000 0.549350 0.250000
O O2 0.225485 0.663003 0.420996
O O3 0.376045 0.619783 0.339207
O O4 0.320105 0.570643 0.571190
O O5 0.924556 0.301836 0.393534
O O6 0.848800 0.218250 0.597886
O O7 0.854836 0.364597 0.650542
O O8 0.050311 0.945427 0.112785
O O9 0.531343 0.128785 0.818780
#
# Coordination Sequence:
#
# PCOD9327988 Si02
#       5
#    16  16   4  16  16
#     4  10  23  40  65 102 144 188 229 296 374 447
#     4  10  22  41  66 104 150 181 230 302 382 454
#     4  12  24  52  74  96 140 200 264 334 328 416
#     4  11  24  44  73  99 141 198 252 302 368 430
#     4  11  21  39  67 108 141 186 228 299 381 465
#
# _framework density 27.51369
#
# number of rings (size 3 to 8) (size 9 to 14) (size 15 to 20)
#    0.000    1.412    2.353    2.118    0.000   16.000 
#    0.000    2.353   31.059    0.000    0.000    0.000 
#    0.000    0.000    0.000    0.000    0.000    0.000 
#
# Total GULP energy -94880.530227 kJ/mol
# GULP energy per Si atom -5581.207660 kJ/mol
# Density = 2.745107 g / cm^3
# Si number density = 27.513690 Si / 1000 Ang^3
#
#
#
# Elastic Constant Matrix: (Units=GPa)
#
#
# Indices 1 2 3 4 5 6 
#
# 1 199.4713 19.3789 87.2029 0.0000 0.0000 0.0000
# 2 19.3789 44.9972 47.0954 0.0000 0.0000 0.0000
# 3 87.2029 47.0954 221.3326 0.0000 0.0000 0.0000
# 4 0.0000 0.0000 0.0000 38.0783 0.0000 0.0000
# 5 0.0000 0.0000 0.0000 0.0000 90.2496 0.0000
# 6 0.0000 0.0000 0.0000 0.0000 0.0000 5.7981
#
#
#
# Elastic Compliance Matrix: (Units=1/GPa)
#
#
# Indices 1 2 3 4 5 6 
#
# 1 0.006057 -0.000143 -0.002356 0.000000 0.000000 0.000000
# 2 -0.000143 0.028594 -0.006028 0.000000 0.000000 0.000000
# 3 -0.002356 -0.006028 0.006729 0.000000 0.000000 0.000000
# 4 0.000000 0.000000 0.000000 0.026262 0.000000 0.000000
# 5 0.000000 0.000000 0.000000 0.000000 0.011080 0.000000
# 6 0.000000 0.000000 0.000000 0.000000 0.000000 0.172471
#
#
# Mechanical properties :
#
#
# Convention : Reuss Voigt Hill
#
# Bulk Modulus (GPa) = 41.10716 85.90618 63.50667
# Shear Modulus (GPa) = 18.09261 47.63347 32.86304
#
# Velocity S-wave (km/s) = 2.56713 4.16536 3.45979
# Velocity P-wave (km/s) = 4.87441 7.37730 6.25237
#
# Compressibility (1/GPa) = 0.02432667
#
# Stress axis : x y z
#
# Youngs Moduli (GPa) = 165.09480 34.97208 148.60976
#
# Poissons Ratio (x) = 0.00499 0.35014
# Poissons Ratio (y) = 0.02355 0.89584
# Poissons Ratio (z) = 0.38898 0.21082
#
# Static dielectric constant tensor:
#      x y z
#    x 2.165220 0.000000 0.000000 
#    y 0.000000 2.376480 0.000000 
#    z 0.000000 0.000000 2.226330 
# 
# From -- ./inp_files/11271.got.cif
#   From: 2010.05.17/outbox.cif.g08.bks.cpg/sg22_6_cif.got.tgz:11271.got - 2010.06.03 23:40:54.
