data_PCOD9327569
_publ_section_title
;
Structure prediction by ZEFSAII (Michael W. Deem and Ramdas Pophale) SiO2 
 PCOD9327569
Probable space group: F 2 2 2
;
_chemical_formula_sum "Si O2"
_cell_formula_units_Z 88
_cell_length_a 23.105719
_cell_length_b 12.223741
_cell_length_c 16.025410
_cell_angle_alpha 90.000000
_cell_angle_beta 90.000000
_cell_angle_gamma 90.000000
_cell_volume 4526.189953
_symmetry_space_group_name_H-M "F 2 2 2"
_symmetry_group_IT_number 22
_symmetry_cell_setting 'orthorhombic'
loop_
_space_group_symop_operation_xyz
x,y,z
-x,-y,z
x,-y,-z
-x,y,-z
x,1/2+y,1/2+z
-x,1/2-y,1/2+z
x,1/2-y,1/2-z
-x,1/2+y,1/2-z
1/2+x,y,1/2+z
1/2-x,-y,1/2+z
1/2+x,-y,1/2-z
1/2-x,y,1/2-z
1/2+x,1/2+y,z
1/2-x,1/2-y,z
1/2+x,1/2-y,-z
1/2-x,1/2+y,-z
loop_
_atom_site_type_symbol
_atom_site_label
_atom_site_fract_x
_atom_site_fract_y
_atom_site_fract_z
Si Si1 0.250000 0.972687 0.250000
Si Si2 0.188930 0.772589 0.463303
Si Si3 0.633684 0.851005 0.805402
Si Si4 0.599385 0.750000 0.250000
Si Si5 0.062651 0.541477 0.849185
Si Si6 0.800038 0.159596 0.865739
Si Si7 0.347994 0.500000 0.500000
O O1 0.226264 0.048686 0.173727
O O2 0.303733 0.901925 0.216861
O O3 0.250000 0.750000 0.419255
O O4 0.138371 0.796624 0.397721
O O5 0.183223 0.683633 0.537013
O O6 0.192920 0.894500 0.500556
O O7 0.619022 0.750000 0.750000
O O8 0.587873 0.946466 0.790397
O O9 0.565048 0.658658 0.303670
O O10 0.642842 0.812558 0.312757
O O11 0.109165 0.530507 0.923894
O O12 0.000000 0.500000 0.877042
O O13 0.750000 0.250000 0.849827
#
# Coordination Sequence:
#
# PCOD9327569 Si02
#       7
#     8  16  16   8  16  16   8
#     4  12  20  36  66  88 126 169 207 240 316 386
#     4  10  22  35  56  88 123 158 197 244 302 373
#     4  11  24  42  57  88 130 171 202 253 321 386
#     4  12  19  40  60  94 116 153 210 258 316 362
#     4  11  24  40  66  87 119 162 215 271 311 372
#     4  11  19  33  58  92 121 153 193 258 297 364
#     4  10  21  40  60  90 122 156 207 258 312 366
#
# _framework density 19.442401
#
# number of rings (size 3 to 8) (size 9 to 14) (size 15 to 20)
#    0.000    1.091    5.455    1.636    8.909    0.000 
#    0.000    0.000    0.000    0.000    0.000    1.273 
#    0.000    0.000    0.000    0.000    0.000    0.000 
#
# Total GULP energy -122520.213308 kJ/mol
# GULP energy per Si atom -5569.100605 kJ/mol
# Density = 1.939815 g / cm^3
# Si number density = 19.442401 Si / 1000 Ang^3
#
#
#
# Elastic Constant Matrix: (Units=GPa)
#
#
# Indices 1 2 3 4 5 6 
#
# 1 48.0838 15.0092 -23.1262 0.0000 0.0000 0.0000
# 2 15.0092 92.1720 19.9548 0.0000 0.0000 0.0000
# 3 -23.1262 19.9548 55.7065 0.0000 0.0000 0.0000
# 4 0.0000 0.0000 0.0000 27.1703 0.0000 0.0000
# 5 0.0000 0.0000 0.0000 0.0000 14.2002 0.0000
# 6 0.0000 0.0000 0.0000 0.0000 0.0000 15.5477
#
#
#
# Elastic Compliance Matrix: (Units=1/GPa)
#
#
# Indices 1 2 3 4 5 6 
#
# 1 0.031151 -0.008534 0.015989 0.000000 0.000000 0.000000
# 2 -0.008534 0.014099 -0.008594 0.000000 0.000000 0.000000
# 3 0.015989 -0.008594 0.027667 0.000000 0.000000 0.000000
# 4 0.000000 0.000000 0.000000 0.036805 0.000000 0.000000
# 5 0.000000 0.000000 0.000000 0.000000 0.070422 0.000000
# 6 0.000000 0.000000 0.000000 0.000000 0.000000 0.064318
#
#
# Mechanical properties :
#
#
# Convention : Reuss Voigt Hill
#
# Bulk Modulus (GPa) = 14.15610 24.40421 19.28016
# Shear Modulus (GPa) = 18.49889 23.65861 21.07875
#
# Velocity S-wave (km/s) = 3.08794 3.49213 3.29624
# Velocity P-wave (km/s) = 4.47333 5.37022 4.94216
#
# Compressibility (1/GPa) = 0.07064090
#
# Stress axis : x y z
#
# Youngs Moduli (GPa) = 32.10163 70.92482 36.14364
#
# Poissons Ratio (x) = 0.60529 -0.57791
# Poissons Ratio (y) = 0.27396 0.31060
# Poissons Ratio (z) = -0.51328 0.60949
#
# Static dielectric constant tensor:
#      x y z
#    x 1.654720 0.000000 0.000000 
#    y 0.000000 1.702430 0.000000 
#    z 0.000000 0.000000 1.937730 
# 
# From -- ./inp_files/38819.got.cif
#   From: 2010.05.17/outbox.cif.g08.bks.cpg/sg22_20_cif.got.tgz:38819.got - 2010.06.03 23:40:54.
