data_PCOD9327863
_publ_section_title
;
Structure prediction by ZEFSAII (Michael W. Deem and Ramdas Pophale) SiO2 
 PCOD9327863
Probable space group: F 2 2 2
;
_chemical_formula_sum "Si O2"
_cell_formula_units_Z 112
_cell_length_a 24.947442
_cell_length_b 11.639459
_cell_length_c 17.696155
_cell_angle_alpha 90.000000
_cell_angle_beta 90.000000
_cell_angle_gamma 90.000000
_cell_volume 5138.516200
_symmetry_space_group_name_H-M "F 2 2 2"
_symmetry_group_IT_number 22
_symmetry_cell_setting 'orthorhombic'
loop_
_space_group_symop_operation_xyz
x,y,z
-x,-y,z
x,-y,-z
-x,y,-z
x,1/2+y,1/2+z
-x,1/2-y,1/2+z
x,1/2-y,1/2-z
-x,1/2+y,1/2-z
1/2+x,y,1/2+z
1/2-x,-y,1/2+z
1/2+x,-y,1/2-z
1/2-x,y,1/2-z
1/2+x,1/2+y,z
1/2-x,1/2-y,z
1/2+x,1/2-y,-z
1/2-x,1/2+y,-z
loop_
_atom_site_type_symbol
_atom_site_label
_atom_site_fract_x
_atom_site_fract_y
_atom_site_fract_z
Si Si1 0.008134 0.628811 0.409345
Si Si2 0.669646 0.433864 0.226933
Si Si3 0.193632 0.188807 0.170067
Si Si4 0.087714 0.214997 0.390742
Si Si5 0.694906 0.207854 0.131397
Si Si6 0.438898 0.991329 0.195213
Si Si7 0.585812 0.319390 0.435645
O O1 0.063390 0.698019 0.404018
O O2 0.000000 0.500000 0.384372
O O3 0.000000 0.627750 0.500000
O O4 0.960617 0.700032 0.371787
O O5 0.691682 0.551985 0.189649
O O6 0.676434 0.322822 0.174843
O O7 0.698608 0.393678 0.305653
O O8 0.606629 0.445354 0.248314
O O9 0.181625 0.250000 0.250000
O O10 0.250000 0.250000 0.146131
O O11 0.144729 0.221279 0.114704
O O12 0.084554 0.111888 0.332553
O O13 0.074996 0.170904 0.475591
O O14 0.750000 0.250000 0.095635
O O15 0.649200 0.171702 0.074482
O O16 0.500000 0.000000 0.221721
O O17 0.440174 0.911924 0.119980
#
# Coordination Sequence:
#
# PCOD9327863 Si02
#       7
#    16  16  16  16  16  16  16
#     4   9  19  36  57  83 120 160 194 235 294 364
#     4  10  22  43  61  91 115 162 209 245 301 355
#     4  11  25  40  62  87 122 161 201 252 301 362
#     4  11  22  39  62  92 122 159 201 247 306 367
#     4  10  23  40  67  86 120 162 203 254 297 361
#     4  11  21  39  63  91 125 157 201 253 300 358
#     4  10  22  38  62  93 122 157 204 246 305 366
#
# _framework density 21.796175999999999
#
# number of rings (size 3 to 8) (size 9 to 14) (size 15 to 20)
#    0.000    1.714    2.857    1.286    6.000    1.143 
#    2.571    1.429    0.000    0.000    0.000    0.000 
#    0.000    0.000    0.000    0.000    0.000    0.000 
#
# Total GULP energy -156316.286310 kJ/mol
# GULP energy per Si atom -5582.724511 kJ/mol
# Density = 2.174657 g / cm^3
# Si number density = 21.796176 Si / 1000 Ang^3
#
#
#
# Elastic Constant Matrix: (Units=GPa)
#
#
# Indices 1 2 3 4 5 6 
#
# 1 117.6821 10.1997 10.1405 0.0000 0.0000 0.0000
# 2 10.1997 108.0567 14.6438 0.0000 0.0000 0.0000
# 3 10.1405 14.6438 32.9494 0.0000 0.0000 0.0000
# 4 0.0000 0.0000 0.0000 12.0009 0.0000 0.0000
# 5 0.0000 0.0000 0.0000 0.0000 -88.1464 0.0000
# 6 0.0000 0.0000 0.0000 0.0000 0.0000 33.0981
#
#
#
# Elastic Compliance Matrix: (Units=1/GPa)
#
#
# Indices 1 2 3 4 5 6 
#
# 1 0.008753 -0.000491 -0.002476 0.000000 0.000000 0.000000
# 2 -0.000491 0.009875 -0.004238 0.000000 0.000000 0.000000
# 3 -0.002476 -0.004238 0.032995 0.000000 0.000000 0.000000
# 4 0.000000 0.000000 0.000000 0.083327 0.000000 0.000000
# 5 0.000000 0.000000 0.000000 0.000000 -0.011345 0.000000
# 6 0.000000 0.000000 0.000000 0.000000 0.000000 0.030213
#
#
# Mechanical properties :
#
#
# Convention : Reuss Voigt Hill
#
# Bulk Modulus (GPa) = 26.87113 36.51735 31.69424
# Shear Modulus (GPa) = 27.68053 6.30413 16.99233
#
# Velocity S-wave (km/s) = 3.56753 1.70252 2.79516
# Velocity P-wave (km/s) = 5.41524 4.54480 4.99900
#
# Compressibility (1/GPa) = 0.03721466
#
# Stress axis : x y z
#
# Youngs Moduli (GPa) = 114.24215 101.26559 30.30768
#
# Poissons Ratio (x) = 0.04969 0.07504
# Poissons Ratio (y) = 0.05606 0.12844
# Poissons Ratio (z) = 0.28284 0.42914
#
# Static dielectric constant tensor:
#      x y z
#    x 1.891330 0.000000 0.000000 
#    y 0.000000 4.024110 0.000000 
#    z 0.000000 0.000000 1.778840 
# 
# From -- ./inp_files/45334.got.cif
#   From: 2010.05.17/outbox.cif.g08.bks.cpg/sg22_23_cif.got.tgz:45334.got - 2010.06.03 23:40:54.
