data_PCOD9327729
_publ_section_title
;
Structure prediction by ZEFSAII (Michael W. Deem and Ramdas Pophale) SiO2 
 PCOD9327729
Probable space group: F 2 2 2
;
_chemical_formula_sum "Si O2"
_cell_formula_units_Z 112
_cell_length_a 11.388846
_cell_length_b 15.275285
_cell_length_c 28.302880
_cell_angle_alpha 90.000000
_cell_angle_beta 90.000000
_cell_angle_gamma 90.000000
_cell_volume 4923.791705
_symmetry_space_group_name_H-M "F 2 2 2"
_symmetry_group_IT_number 22
_symmetry_cell_setting 'orthorhombic'
loop_
_space_group_symop_operation_xyz
x,y,z
-x,-y,z
x,-y,-z
-x,y,-z
x,1/2+y,1/2+z
-x,1/2-y,1/2+z
x,1/2-y,1/2-z
-x,1/2+y,1/2-z
1/2+x,y,1/2+z
1/2-x,-y,1/2+z
1/2+x,-y,1/2-z
1/2-x,y,1/2-z
1/2+x,1/2+y,z
1/2-x,1/2-y,z
1/2+x,1/2-y,-z
1/2-x,1/2+y,-z
loop_
_atom_site_type_symbol
_atom_site_label
_atom_site_fract_x
_atom_site_fract_y
_atom_site_fract_z
Si Si1 0.117476 0.644648 0.477053
Si Si2 0.048773 0.632869 0.128426
Si Si3 0.921028 0.706658 0.699317
Si Si4 0.807914 0.334929 0.699499
Si Si5 0.682736 0.964820 0.135618
Si Si6 0.609357 0.433598 0.122107
Si Si7 0.378645 0.350791 0.521302
O O1 0.093417 0.633861 0.420977
O O2 0.248977 0.612773 0.490897
O O3 0.121220 0.747445 0.490694
O O4 0.000000 0.605036 0.500000
O O5 0.069554 0.713927 0.162291
O O6 0.108430 0.548219 0.152109
O O7 0.107175 0.645092 0.077767
O O8 0.912919 0.605980 0.119500
O O9 0.882071 0.750000 0.750000
O O10 0.864308 0.624898 0.669596
O O11 0.054578 0.674483 0.705811
O O12 0.750000 0.337755 0.750000
O O13 0.750000 0.250000 0.674515
O O14 0.764501 0.420493 0.674047
O O15 0.782749 0.006755 0.103374
O O16 0.500000 0.500000 0.128939
O O17 0.500000 0.389641 0.500000
#
# Coordination Sequence:
#
# PCOD9327729 Si02
#       7
#    16  16  16  16  16  16  16
#     4  10  22  43  71 103 144 182 234 300 361 422
#     4  11  23  43  69  98 141 182 233 288 345 420
#     4  12  24  43  68 101 136 190 237 283 353 424
#     4  11  20  40  68  94 136 184 240 297 341 414
#     4  11  24  40  64 102 136 183 223 288 358 409
#     4  12  25  42  70 102 143 181 230 292 357 422
#     4  10  21  42  73 101 134 188 241 288 353 437
#
# _framework density 22.746697000000001
#
# number of rings (size 3 to 8) (size 9 to 14) (size 15 to 20)
#    0.000    1.000    7.143    0.000    0.000    3.143 
#    2.571    3.571    0.000    0.000    0.000    0.000 
#    0.000    0.000    0.000    0.000    0.000    0.000 
#
# Total GULP energy -156009.025038 kJ/mol
# GULP energy per Si atom -5571.750894 kJ/mol
# Density = 2.269492 g / cm^3
# Si number density = 22.746697 Si / 1000 Ang^3
#
#
#
# Elastic Constant Matrix: (Units=GPa)
#
#
# Indices 1 2 3 4 5 6 
#
# 1 171.6336 25.3854 33.1318 0.0000 0.0000 0.0000
# 2 25.3854 64.4880 4.6609 0.0000 0.0000 0.0000
# 3 33.1318 4.6609 74.4579 0.0000 0.0000 0.0000
# 4 0.0000 0.0000 0.0000 20.1762 0.0000 0.0000
# 5 0.0000 0.0000 0.0000 0.0000 43.2567 0.0000
# 6 0.0000 0.0000 0.0000 0.0000 0.0000 4.5231
#
#
#
# Elastic Compliance Matrix: (Units=1/GPa)
#
#
# Indices 1 2 3 4 5 6 
#
# 1 0.006737 -0.002447 -0.002845 0.000000 0.000000 0.000000
# 2 -0.002447 0.016466 0.000058 0.000000 0.000000 0.000000
# 3 -0.002845 0.000058 0.014693 0.000000 0.000000 0.000000
# 4 0.000000 0.000000 0.000000 0.049563 0.000000 0.000000
# 5 0.000000 0.000000 0.000000 0.000000 0.023118 0.000000
# 6 0.000000 0.000000 0.000000 0.000000 0.000000 0.221085
#
#
# Mechanical properties :
#
#
# Convention : Reuss Voigt Hill
#
# Bulk Modulus (GPa) = 36.45796 48.54840 42.50318
# Shear Modulus (GPa) = 14.23400 30.08464 22.15932
#
# Velocity S-wave (km/s) = 2.50424 3.64069 3.12457
# Velocity P-wave (km/s) = 4.94208 6.24998 5.63411
#
# Compressibility (1/GPa) = 0.02742885
#
# Stress axis : x y z
#
# Youngs Moduli (GPa) = 148.42588 60.73254 68.06129
#
# Poissons Ratio (x) = 0.14858 0.19362
# Poissons Ratio (y) = 0.36313 -0.00394
# Poissons Ratio (z) = 0.42224 -0.00352
#
# Static dielectric constant tensor:
#      x y z
#    x 1.913540 0.000000 0.000000 
#    y 0.000000 2.176450 0.000000 
#    z 0.000000 0.000000 1.797550 
# 
# From -- ./inp_files/56117.got.cif
#   From: 2010.05.17/outbox.cif.g08.bks.cpg/sg22_29_cif.got.tgz:56117.got - 2010.06.03 23:40:54.
