data_PCOD9327717
_publ_section_title
;
Structure prediction by ZEFSAII (Michael W. Deem and Ramdas Pophale) SiO2 
 PCOD9327717
Probable space group: F 2 2 2
;
_chemical_formula_sum "Si O2"
_cell_formula_units_Z 120
_cell_length_a 20.793384
_cell_length_b 24.060486
_cell_length_c 12.335901
_cell_angle_alpha 90.000000
_cell_angle_beta 90.000000
_cell_angle_gamma 90.000000
_cell_volume 6171.638005
_symmetry_space_group_name_H-M "F 2 2 2"
_symmetry_group_IT_number 22
_symmetry_cell_setting 'orthorhombic'
loop_
_space_group_symop_operation_xyz
x,y,z
-x,-y,z
x,-y,-z
-x,y,-z
x,1/2+y,1/2+z
-x,1/2-y,1/2+z
x,1/2-y,1/2-z
-x,1/2+y,1/2-z
1/2+x,y,1/2+z
1/2-x,-y,1/2+z
1/2+x,-y,1/2-z
1/2-x,y,1/2-z
1/2+x,1/2+y,z
1/2-x,1/2-y,z
1/2+x,1/2-y,-z
1/2-x,1/2+y,-z
loop_
_atom_site_type_symbol
_atom_site_label
_atom_site_fract_x
_atom_site_fract_y
_atom_site_fract_z
Si Si1 0.000000 0.362440 0.000000
Si Si2 0.685953 0.811525 0.301235
Si Si3 0.859407 0.129006 0.155917
Si Si4 0.379863 0.843034 0.098026
Si Si5 0.954964 0.844008 0.259939
Si Si6 0.956562 0.226476 0.106129
Si Si7 0.477951 0.563275 0.120386
Si Si8 0.745788 0.312319 0.036231
O O1 0.966696 0.337548 0.888874
O O2 0.065730 0.384890 0.946877
O O3 0.679594 0.750000 0.250000
O O4 0.750000 0.838345 0.250000
O O5 0.619283 0.841203 0.274349
O O6 0.704484 0.805889 0.426949
O O7 0.857501 0.137953 0.284339
O O8 0.902921 0.178517 0.105078
O O9 0.901427 0.074486 0.129916
O O10 0.790105 0.141268 0.106968
O O11 0.416723 0.783829 0.114482
O O12 0.319135 0.832045 0.021588
O O13 0.994311 0.796750 0.196102
O O14 0.987363 0.899798 0.212180
O O15 0.000000 0.229712 0.000000
O O16 0.500000 0.500000 0.131231
O O17 0.500000 0.582435 0.000000
O O18 0.750000 0.250000 0.087116
#
# Coordination Sequence:
#
# PCOD9327717 Si02
#       8
#     8  16  16  16  16  16  16  16
#     4  12  24  36  55  86 126 162 209 258 314 382
#     4  11  23  38  53  84 124 174 218 248 295 373
#     4  11  22  38  55  85 122 157 210 255 322 378
#     4  12  24  35  52  85 125 172 208 249 305 373
#     4  11  24  37  60  86 122 163 207 269 326 378
#     4  11  21  32  52  81 119 164 208 253 304 365
#     4  10  21  42  69  95 116 147 207 275 336 380
#     4  12  23  35  55  82 127 178 214 248 297 372
#
# _framework density 19.443784000000001
#
# number of rings (size 3 to 8) (size 9 to 14) (size 15 to 20)
#    0.000    0.800    6.000    4.800    1.867    0.533 
#    0.000    0.333    0.000    1.600    0.000    0.000 
#    0.000    0.000    0.000    0.000    0.000    0.000 
#
# Total GULP energy -167212.841179 kJ/mol
# GULP energy per Si atom -5573.761373 kJ/mol
# Density = 1.939953 g / cm^3
# Si number density = 19.443784 Si / 1000 Ang^3
#
#
#
# Elastic Constant Matrix: (Units=GPa)
#
#
# Indices 1 2 3 4 5 6 
#
# 1 147.9361 13.1312 29.1162 0.0000 0.0000 0.0000
# 2 13.1312 52.6460 15.6626 0.0000 0.0000 0.0000
# 3 29.1162 15.6626 130.3776 0.0000 0.0000 0.0000
# 4 0.0000 0.0000 0.0000 14.2197 0.0000 0.0000
# 5 0.0000 0.0000 0.0000 0.0000 36.9918 0.0000
# 6 0.0000 0.0000 0.0000 0.0000 0.0000 11.7436
#
#
#
# Elastic Compliance Matrix: (Units=1/GPa)
#
#
# Indices 1 2 3 4 5 6 
#
# 1 0.007163 -0.001359 -0.001436 0.000000 0.000000 0.000000
# 2 -0.001359 0.019957 -0.002094 0.000000 0.000000 0.000000
# 3 -0.001436 -0.002094 0.008242 0.000000 0.000000 0.000000
# 4 0.000000 0.000000 0.000000 0.070325 0.000000 0.000000
# 5 0.000000 0.000000 0.000000 0.000000 0.027033 0.000000
# 6 0.000000 0.000000 0.000000 0.000000 0.000000 0.085153
#
#
# Mechanical properties :
#
#
# Convention : Reuss Voigt Hill
#
# Bulk Modulus (GPa) = 39.08842 49.64219 44.36531
# Shear Modulus (GPa) = 21.17035 30.79435 25.98235
#
# Velocity S-wave (km/s) = 3.30327 3.98397 3.65948
# Velocity P-wave (km/s) = 5.89031 6.83734 6.38142
#
# Compressibility (1/GPa) = 0.02558302
#
# Stress axis : x y z
#
# Youngs Moduli (GPa) = 139.60576 50.10831 121.32468
#
# Poissons Ratio (x) = 0.06811 0.17427
# Poissons Ratio (y) = 0.18977 0.25404
# Poissons Ratio (z) = 0.20053 0.10492
#
# Static dielectric constant tensor:
#      x y z
#    x 1.739100 0.000000 0.000000 
#    y 0.000000 1.694630 0.000000 
#    z 0.000000 0.000000 1.787480 
# 
# From -- ./inp_files/23010.got.cif
#   From: 2010.05.17/outbox.cif.g08.bks.cpg/sg22_12_cif.got.tgz:23010.got - 2010.06.03 23:40:54.
