data_PCOD9327632
_publ_section_title
;
Structure prediction by ZEFSAII (Michael W. Deem and Ramdas Pophale) SiO2 
 PCOD9327632
Probable space group: F 2 2 2
;
_chemical_formula_sum "Si O2"
_cell_formula_units_Z 104
_cell_length_a 27.656299
_cell_length_b 18.009418
_cell_length_c 9.650322
_cell_angle_alpha 90.000000
_cell_angle_beta 90.000000
_cell_angle_gamma 90.000000
_cell_volume 4806.573023
_symmetry_space_group_name_H-M "F 2 2 2"
_symmetry_group_IT_number 22
_symmetry_cell_setting 'orthorhombic'
loop_
_space_group_symop_operation_xyz
x,y,z
-x,-y,z
x,-y,-z
-x,y,-z
x,1/2+y,1/2+z
-x,1/2-y,1/2+z
x,1/2-y,1/2-z
-x,1/2+y,1/2-z
1/2+x,y,1/2+z
1/2-x,-y,1/2+z
1/2+x,-y,1/2-z
1/2-x,y,1/2-z
1/2+x,1/2+y,z
1/2-x,1/2-y,z
1/2+x,1/2-y,-z
1/2-x,1/2+y,-z
loop_
_atom_site_type_symbol
_atom_site_label
_atom_site_fract_x
_atom_site_fract_y
_atom_site_fract_z
Si Si1 0.848830 0.374030 0.006327
Si Si2 0.848832 0.203854 0.950876
Si Si3 0.501552 0.411186 0.841166
Si Si4 0.240308 0.374750 0.416425
Si Si5 0.097948 0.338402 0.724072
Si Si6 0.390398 0.583300 0.762734
Si Si7 0.837309 0.500000 0.500000
O O1 0.791367 0.382106 0.991833
O O2 0.873319 0.427917 0.893988
O O3 0.862360 0.289271 0.963392
O O4 0.868454 0.377153 0.161528
O O5 0.875630 0.160009 0.075527
O O6 0.790814 0.198650 0.949881
O O7 0.863994 0.157892 0.816671
O O8 0.500000 0.500000 0.843458
O O9 0.454390 0.376225 0.772365
O O10 0.553285 0.397172 0.773099
O O11 0.500000 0.383889 0.000000
O O12 0.250000 0.382212 0.250000
O O13 0.202000 0.434418 0.476356
O O14 0.092786 0.250000 0.750000
O O15 0.373248 0.517968 0.869061
#
# Coordination Sequence:
#
# PCOD9327632 Si02
#       7
#    16  16  16  16  16  16   8
#     4  11  23  42  65 104 134 177 221 289 351 404
#     4  10  21  40  70  97 137 171 227 282 344 420
#     4  11  23  43  73  98 125 183 238 278 343 424
#     4  11  22  41  67  99 132 180 232 281 336 411
#     4  10  24  45  65 104 147 175 222 295 364 421
#     4  11  22  40  69  95 129 177 230 282 335 412
#     4  10  22  42  59  94 136 169 226 284 336 400
#
# _framework density 21.637038
#
# number of rings (size 3 to 8) (size 9 to 14) (size 15 to 20)
#    0.000    1.385    4.615    1.846    2.154    3.077 
#    8.308    3.077    0.000    0.000    0.000    0.000 
#    0.000    0.000    0.000    0.000    0.000    0.000 
#
# Total GULP energy -145055.156664 kJ/mol
# GULP energy per Si atom -5579.044487 kJ/mol
# Density = 2.158779 g / cm^3
# Si number density = 21.637038 Si / 1000 Ang^3
#
#
#
# Elastic Constant Matrix: (Units=GPa)
#
#
# Indices 1 2 3 4 5 6 
#
# 1 186.8401 7.6892 51.5803 0.0000 0.0000 0.0000
# 2 7.6892 46.0813 23.1279 0.0000 0.0000 0.0000
# 3 51.5803 23.1279 111.4786 0.0000 0.0000 0.0000
# 4 0.0000 0.0000 0.0000 43.1838 0.0000 0.0000
# 5 0.0000 0.0000 0.0000 0.0000 33.7132 0.0000
# 6 0.0000 0.0000 0.0000 0.0000 0.0000 40.9319
#
#
#
# Elastic Compliance Matrix: (Units=1/GPa)
#
#
# Indices 1 2 3 4 5 6 
#
# 1 0.006144 0.000448 -0.002936 0.000000 0.000000 0.000000
# 2 0.000448 0.024256 -0.005240 0.000000 0.000000 0.000000
# 3 -0.002936 -0.005240 0.011416 0.000000 0.000000 0.000000
# 4 0.000000 0.000000 0.000000 0.023157 0.000000 0.000000
# 5 0.000000 0.000000 0.000000 0.000000 0.029662 0.000000
# 6 0.000000 0.000000 0.000000 0.000000 0.000000 0.024431
#
#
# Mechanical properties :
#
#
# Convention : Reuss Voigt Hill
#
# Bulk Modulus (GPa) = 37.93445 56.57719 47.25582
# Shear Modulus (GPa) = 34.89014 41.03260 37.96137
#
# Velocity S-wave (km/s) = 4.01997 4.35950 4.19317
# Velocity P-wave (km/s) = 6.25437 7.17951 6.73285
#
# Compressibility (1/GPa) = 0.02636126
#
# Stress axis : x y z
#
# Youngs Moduli (GPa) = 162.75447 41.22736 87.59799
#
# Poissons Ratio (x) = -0.01848 0.25718
# Poissons Ratio (y) = -0.07296 0.45898
# Poissons Ratio (z) = 0.47783 0.21602
#
# Static dielectric constant tensor:
#      x y z
#    x 1.437100 0.000000 0.000000 
#    y 0.000000 1.883700 0.000000 
#    z 0.000000 0.000000 1.789310 
# 
# From -- ./inp_files/14806.got.cif
#   From: 2010.05.17/outbox.cif.g08.bks.cpg/sg22_8_cif.got.tgz:14806.got - 2010.06.03 23:40:54.
