data_PCOD9327408
_publ_section_title
;
Structure prediction by ZEFSAII (Michael W. Deem and Ramdas Pophale) SiO2 
 PCOD9327408
Probable space group: F 2 2 2
;
_chemical_formula_sum "Si O2"
_cell_formula_units_Z 104
_cell_length_a 26.104641
_cell_length_b 20.882129
_cell_length_c 9.725647
_cell_angle_alpha 90.000000
_cell_angle_beta 90.000000
_cell_angle_gamma 90.000000
_cell_volume 5301.649369
_symmetry_space_group_name_H-M "F 2 2 2"
_symmetry_group_IT_number 22
_symmetry_cell_setting 'orthorhombic'
loop_
_space_group_symop_operation_xyz
x,y,z
-x,-y,z
x,-y,-z
-x,y,-z
x,1/2+y,1/2+z
-x,1/2-y,1/2+z
x,1/2-y,1/2-z
-x,1/2+y,1/2-z
1/2+x,y,1/2+z
1/2-x,-y,1/2+z
1/2+x,-y,1/2-z
1/2-x,y,1/2-z
1/2+x,1/2+y,z
1/2-x,1/2-y,z
1/2+x,1/2-y,-z
1/2-x,1/2+y,-z
loop_
_atom_site_type_symbol
_atom_site_label
_atom_site_fract_x
_atom_site_fract_y
_atom_site_fract_z
Si Si1 0.939319 0.946422 0.885894
Si Si2 0.105333 0.732387 0.591230
Si Si3 0.359527 0.156805 0.886509
Si Si4 0.657579 0.630750 0.919173
Si Si5 0.762829 0.436135 0.090518
Si Si6 0.500000 0.672905 0.000000
Si Si7 0.552945 0.556740 0.581696
O O1 0.879228 0.929744 0.892637
O O2 0.969666 0.878960 0.905430
O O3 0.952949 0.969117 0.735101
O O4 0.948949 0.000000 0.000000
O O5 0.111382 0.750000 0.750000
O O6 0.131582 0.784609 0.490322
O O7 0.134183 0.667680 0.547941
O O8 0.045019 0.717194 0.561951
O O9 0.348840 0.170679 0.724172
O O10 0.313566 0.107578 0.921526
O O11 0.412699 0.118728 0.902388
O O12 0.714632 0.608506 0.947767
O O13 0.750000 0.452950 0.250000
O O14 0.766000 0.500000 0.000000
O O15 0.580749 0.500000 0.500000
O O16 0.500000 0.568861 0.500000
#
# Coordination Sequence:
#
# PCOD9327408 Si02
#       7
#    16  16  16  16  16   8  16
#     4  10  21  37  61  84 120 158 198 246 299 362
#     4  11  25  40  62  89 119 161 210 255 301 359
#     4  10  22  40  62  86 126 164 200 250 302 368
#     4   9  21  42  61  91 121 162 203 249 307 361
#     4  10  21  39  67  96 124 160 200 249 309 365
#     4  10  25  38  58  84 115 156 206 244 304 360
#     4  10  23  35  55  87 120 155 198 246 301 355
#
# _framework density 19.616537000000001
#
# number of rings (size 3 to 8) (size 9 to 14) (size 15 to 20)
#    0.000    2.000    0.000    1.615    7.538    5.538 
#    0.000    3.077    0.000    0.000    0.000    0.000 
#    0.000    0.000    0.000    0.000    0.000    0.000 
#
# Total GULP energy -144892.393036 kJ/mol
# GULP energy per Si atom -5572.784348 kJ/mol
# Density = 1.957189 g / cm^3
# Si number density = 19.616537 Si / 1000 Ang^3
#
#
#
# Elastic Constant Matrix: (Units=GPa)
#
#
# Indices 1 2 3 4 5 6 
#
# 1 113.8726 31.4416 49.8419 0.0000 0.0000 0.0000
# 2 31.4416 63.4895 54.2453 0.0000 0.0000 0.0000
# 3 49.8419 54.2453 142.2878 0.0000 0.0000 0.0000
# 4 0.0000 0.0000 0.0000 32.4879 0.0000 0.0000
# 5 0.0000 0.0000 0.0000 0.0000 20.1283 0.0000
# 6 0.0000 0.0000 0.0000 0.0000 0.0000 24.1021
#
#
#
# Elastic Compliance Matrix: (Units=1/GPa)
#
#
# Indices 1 2 3 4 5 6 
#
# 1 0.010776 -0.003131 -0.002581 0.000000 0.000000 0.000000
# 2 -0.003131 0.024269 -0.008155 0.000000 0.000000 0.000000
# 3 -0.002581 -0.008155 0.011041 0.000000 0.000000 0.000000
# 4 0.000000 0.000000 0.000000 0.030781 0.000000 0.000000
# 5 0.000000 0.000000 0.000000 0.000000 0.049681 0.000000
# 6 0.000000 0.000000 0.000000 0.000000 0.000000 0.041490
#
#
# Mechanical properties :
#
#
# Convention : Reuss Voigt Hill
#
# Bulk Modulus (GPa) = 54.49280 65.63416 60.06348
# Shear Modulus (GPa) = 24.76576 27.61839 26.19207
#
# Velocity S-wave (km/s) = 3.55701 3.75629 3.65801
# Velocity P-wave (km/s) = 6.68649 7.23493 6.96611
#
# Compressibility (1/GPa) = 0.01835105
#
# Stress axis : x y z
#
# Youngs Moduli (GPa) = 92.79845 41.20408 90.56950
#
# Poissons Ratio (x) = 0.12903 0.23375
# Poissons Ratio (y) = 0.29059 0.73864
# Poissons Ratio (z) = 0.23951 0.33604
#
# Static dielectric constant tensor:
#      x y z
#    x 1.708130 0.000000 0.000000 
#    y 0.000000 1.673800 0.000000 
#    z 0.000000 0.000000 1.700700 
# 
# From -- ./inp_files/14826.got.cif
#   From: 2010.05.17/outbox.cif.g08.bks.cpg/sg22_8_cif.got.tgz:14826.got - 2010.06.03 23:40:54.
