data_PCOD9327708
_publ_section_title
;
Structure prediction by ZEFSAII (Michael W. Deem and Ramdas Pophale) SiO2 
 PCOD9327708
Probable space group: F 2 2 2
;
_chemical_formula_sum "Si O2"
_cell_formula_units_Z 92
_cell_length_a 16.278450
_cell_length_b 22.086256
_cell_length_c 11.234015
_cell_angle_alpha 90.000000
_cell_angle_beta 90.000000
_cell_angle_gamma 90.000000
_cell_volume 4038.965570
_symmetry_space_group_name_H-M "F 2 2 2"
_symmetry_group_IT_number 22
_symmetry_cell_setting 'orthorhombic'
loop_
_space_group_symop_operation_xyz
x,y,z
-x,-y,z
x,-y,-z
-x,y,-z
x,1/2+y,1/2+z
-x,1/2-y,1/2+z
x,1/2-y,1/2-z
-x,1/2+y,1/2-z
1/2+x,y,1/2+z
1/2-x,-y,1/2+z
1/2+x,-y,1/2-z
1/2-x,y,1/2-z
1/2+x,1/2+y,z
1/2-x,1/2-y,z
1/2+x,1/2-y,-z
1/2-x,1/2+y,-z
loop_
_atom_site_type_symbol
_atom_site_label
_atom_site_fract_x
_atom_site_fract_y
_atom_site_fract_z
Si Si1 0.845959 0.228038 0.120857
Si Si2 0.841961 0.275015 0.872303
Si Si3 0.270397 0.000000 0.000000
Si Si4 0.545373 0.565489 0.649393
Si Si5 0.362838 0.083241 0.622098
Si Si6 0.881664 0.906455 0.393641
Si Si7 0.000000 0.000000 0.000000
O O1 0.879574 0.250000 0.250000
O O2 0.750000 0.250000 0.122856
O O3 0.854783 0.155474 0.107627
O O4 0.882122 0.256738 0.998978
O O5 0.881265 0.250000 0.750000
O O6 0.750000 0.250000 0.874984
O O7 0.831883 0.346835 0.869990
O O8 0.214665 0.050216 0.936528
O O9 0.325108 0.965723 0.900332
O O10 0.500000 0.500000 0.634307
O O11 0.619336 0.571648 0.739809
O O12 0.580710 0.590603 0.526526
O O13 0.462240 0.599721 0.689445
O O14 0.440412 0.046161 0.568929
#
# Coordination Sequence:
#
# PCOD9327708 Si02
#       7
#    16  16   8  16  16  16   4
#     4  10  21  42  67  97 138 184 243 311 370 433
#     4  10  22  42  64  98 141 184 243 311 366 430
#     4  11  22  40  70 111 136 186 246 317 384 436
#     4  11  22  45  66  99 145 186 233 293 372 461
#     4  11  24  42  68 103 145 185 241 308 383 450
#     4  11  22  44  71  98 139 189 246 298 370 447
#     4  10  24  44  60 100 148 190 220 300 400 466
#
# _framework density 22.778110000000002
#
# number of rings (size 3 to 8) (size 9 to 14) (size 15 to 20)
#    0.000    1.391    2.609    3.652    0.000    3.478 
#    6.261    7.826    0.000    0.000    0.000    0.000 
#    0.000    0.000    0.000    0.000    0.000    0.000 
#
# Total GULP energy -128202.989742 kJ/mol
# GULP energy per Si atom -5574.043032 kJ/mol
# Density = 2.272627 g / cm^3
# Si number density = 22.778110 Si / 1000 Ang^3
#
#
#
# Elastic Constant Matrix: (Units=GPa)
#
#
# Indices 1 2 3 4 5 6 
#
# 1 59.3677 17.6106 0.4252 0.0000 0.0000 0.0000
# 2 17.6106 162.3298 19.9051 0.0000 0.0000 0.0000
# 3 0.4252 19.9051 120.9856 0.0000 0.0000 0.0000
# 4 0.0000 0.0000 0.0000 26.2860 0.0000 0.0000
# 5 0.0000 0.0000 0.0000 0.0000 -24.1099 0.0000
# 6 0.0000 0.0000 0.0000 0.0000 0.0000 3.4950
#
#
#
# Elastic Compliance Matrix: (Units=1/GPa)
#
#
# Indices 1 2 3 4 5 6 
#
# 1 0.017412 -0.001920 0.000255 0.000000 0.000000 0.000000
# 2 -0.001920 0.006499 -0.001062 0.000000 0.000000 0.000000
# 3 0.000255 -0.001062 0.008439 0.000000 0.000000 0.000000
# 4 0.000000 0.000000 0.000000 0.038043 0.000000 0.000000
# 5 0.000000 0.000000 0.000000 0.000000 -0.041477 0.000000
# 6 0.000000 0.000000 0.000000 0.000000 0.000000 0.286123
#
#
# Mechanical properties :
#
#
# Convention : Reuss Voigt Hill
#
# Bulk Modulus (GPa) = 37.18258 46.50720 41.84489
# Shear Modulus (GPa) = 15.17633 21.45037 18.31335
#
# Velocity S-wave (km/s) = 2.58402 3.07206 2.83855
# Velocity P-wave (km/s) = 5.02614 5.74850 5.39941
#
# Compressibility (1/GPa) = 0.02689431
#
# Stress axis : x y z
#
# Youngs Moduli (GPa) = 57.43177 153.87232 118.49243
#
# Poissons Ratio (x) = 0.29547 -0.03018
# Poissons Ratio (y) = 0.11028 0.12590
# Poissons Ratio (z) = -0.01463 0.16349
#
# Static dielectric constant tensor:
#      x y z
#    x 1.906360 0.000000 0.000000 
#    y 0.000000 1.713960 0.000000 
#    z 0.000000 0.000000 2.193740 
# 
# From -- ./inp_files/21451.got.cif
#   From: 2010.05.17/outbox.cif.g08.bks.cpg/sg22_11_cif.got.tgz:21451.got - 2010.06.03 23:40:54.
