data_PCOD9327319
_publ_section_title
;
Structure prediction by ZEFSAII (Michael W. Deem and Ramdas Pophale) SiO2 
 PCOD9327319
Probable space group: F 2 2 2
;
_chemical_formula_sum "Si O2"
_cell_formula_units_Z 80
_cell_length_a 5.691528
_cell_length_b 19.407859
_cell_length_c 28.022805
_cell_angle_alpha 90.000000
_cell_angle_beta 90.000000
_cell_angle_gamma 90.000000
_cell_volume 3095.409491
_symmetry_space_group_name_H-M "F 2 2 2"
_symmetry_group_IT_number 22
_symmetry_cell_setting 'orthorhombic'
loop_
_space_group_symop_operation_xyz
x,y,z
-x,-y,z
x,-y,-z
-x,y,-z
x,1/2+y,1/2+z
-x,1/2-y,1/2+z
x,1/2-y,1/2-z
-x,1/2+y,1/2-z
1/2+x,y,1/2+z
1/2-x,-y,1/2+z
1/2+x,-y,1/2-z
1/2-x,y,1/2-z
1/2+x,1/2+y,z
1/2-x,1/2-y,z
1/2+x,1/2-y,-z
1/2-x,1/2+y,-z
loop_
_atom_site_type_symbol
_atom_site_label
_atom_site_fract_x
_atom_site_fract_y
_atom_site_fract_z
Si Si1 0.247968 0.392644 0.017002
Si Si2 0.895084 0.433182 0.130603
Si Si3 0.500000 0.500000 0.804846
Si Si4 0.750000 0.750000 0.959258
Si Si5 0.725415 0.362864 0.799578
Si Si6 0.517007 0.835945 0.396317
O O1 0.287044 0.378248 0.073551
O O2 0.500000 0.423130 0.000000
O O3 0.242356 0.317222 0.991658
O O4 0.000000 0.423333 0.000000
O O5 0.715271 0.476854 0.163101
O O6 0.724618 0.381090 0.102205
O O7 0.000000 0.500000 0.102601
O O8 0.055513 0.391045 0.168701
O O9 0.573871 0.429342 0.781064
O O10 0.535173 0.734577 0.923612
O O11 0.750000 0.323761 0.750000
O O12 0.578562 0.326139 0.841387
#
# Coordination Sequence:
#
# PCOD9327319 Si02
#       6
#    16  16   8   8  16  16
#     4  10  21  38  64 101 135 159 221 296 358 410
#     4   9  19  38  60  95 139 184 230 282 346 421
#     4   8  18  32  56  90 129 178 233 286 326 394
#     4  10  22  42  66 103 129 166 234 300 352 424
#     4  10  21  34  60  96 140 183 232 283 346 415
#     4  10  22  38  63 102 140 175 224 303 361 420
#
# _framework density 25.844723999999999
#
# number of rings (size 3 to 8) (size 9 to 14) (size 15 to 20)
#    0.000    2.400    0.000    1.800    9.800    2.400 
#    0.000    0.000    0.000    3.600    0.000  289.800 
#    0.000    0.000    0.000    0.000    0.000    0.000 
#
# Total GULP energy -111537.608203 kJ/mol
# GULP energy per Si atom -5576.880410 kJ/mol
# Density = 2.578590 g / cm^3
# Si number density = 25.844724 Si / 1000 Ang^3
#
#
#
# Elastic Constant Matrix: (Units=GPa)
#
#
# Indices 1 2 3 4 5 6 
#
# 1 134.3494 21.2757 37.7921 0.0000 0.0000 0.0000
# 2 21.2757 114.4290 30.8423 0.0000 0.0000 0.0000
# 3 37.7921 30.8423 204.7277 0.0000 0.0000 0.0000
# 4 0.0000 0.0000 0.0000 63.3843 0.0000 0.0000
# 5 0.0000 0.0000 0.0000 0.0000 47.4245 0.0000
# 6 0.0000 0.0000 0.0000 0.0000 0.0000 23.8073
#
#
#
# Elastic Compliance Matrix: (Units=1/GPa)
#
#
# Indices 1 2 3 4 5 6 
#
# 1 0.007990 -0.001134 -0.001304 0.000000 0.000000 0.000000
# 2 -0.001134 0.009270 -0.001187 0.000000 0.000000 0.000000
# 3 -0.001304 -0.001187 0.005304 0.000000 0.000000 0.000000
# 4 0.000000 0.000000 0.000000 0.015777 0.000000 0.000000
# 5 0.000000 0.000000 0.000000 0.000000 0.021086 0.000000
# 6 0.000000 0.000000 0.000000 0.000000 0.000000 0.042004
#
#
# Mechanical properties :
#
#
# Convention : Reuss Voigt Hill
#
# Bulk Modulus (GPa) = 65.30315 70.36956 67.83635
# Shear Modulus (GPa) = 43.94236 51.16294 47.55265
#
# Velocity S-wave (km/s) = 4.12788 4.45413 4.29410
# Velocity P-wave (km/s) = 6.93120 7.33071 7.13375
#
# Compressibility (1/GPa) = 0.01531320
#
# Stress axis : x y z
#
# Youngs Moduli (GPa) = 125.16135 107.87632 188.53324
#
# Poissons Ratio (x) = 0.12234 0.24585
# Poissons Ratio (y) = 0.14194 0.22382
# Poissons Ratio (z) = 0.16321 0.12807
#
# Static dielectric constant tensor:
#      x y z
#    x 2.240710 0.000000 0.000000 
#    y 0.000000 2.092630 0.000000 
#    z 0.000000 0.000000 2.014640 
# 
# From -- ./inp_files/54954.got.cif
#   From: 2010.05.17/outbox.cif.g08.bks.cpg/sg22_28_cif.got.tgz:54954.got - 2010.06.03 23:40:54.
