data_PCOD9327157
_publ_section_title
;
Structure prediction by ZEFSAII (Michael W. Deem and Ramdas Pophale) SiO2 
 PCOD9327157
Probable space group: F 2 2 2
;
_chemical_formula_sum "Si O2"
_cell_formula_units_Z 104
_cell_length_a 9.401061
_cell_length_b 19.232551
_cell_length_c 28.610338
_cell_angle_alpha 90.000000
_cell_angle_beta 90.000000
_cell_angle_gamma 90.000000
_cell_volume 5172.931791
_symmetry_space_group_name_H-M "F 2 2 2"
_symmetry_group_IT_number 22
_symmetry_cell_setting 'orthorhombic'
loop_
_space_group_symop_operation_xyz
x,y,z
-x,-y,z
x,-y,-z
-x,y,-z
x,1/2+y,1/2+z
-x,1/2-y,1/2+z
x,1/2-y,1/2-z
-x,1/2+y,1/2-z
1/2+x,y,1/2+z
1/2-x,-y,1/2+z
1/2+x,-y,1/2-z
1/2-x,y,1/2-z
1/2+x,1/2+y,z
1/2-x,1/2-y,z
1/2+x,1/2-y,-z
1/2-x,1/2+y,-z
loop_
_atom_site_type_symbol
_atom_site_label
_atom_site_fract_x
_atom_site_fract_y
_atom_site_fract_z
Si Si1 0.917595 0.353999 0.751315
Si Si2 0.715701 0.059787 0.361501
Si Si3 0.663294 0.527131 0.049036
Si Si4 0.255635 0.827628 0.585799
Si Si5 0.977577 0.658971 0.855093
Si Si6 0.019550 0.810765 0.151811
Si Si7 0.500000 0.500000 0.213034
O O1 0.750000 0.340786 0.750000
O O2 0.000204 0.318761 0.707751
O O3 0.963329 0.334685 0.802881
O O4 0.953813 0.434804 0.743379
O O5 0.865604 0.096817 0.353516
O O6 0.609126 0.125056 0.368188
O O7 0.635798 0.018716 0.319792
O O8 0.728504 0.009323 0.405478
O O9 0.500000 0.500000 0.050344
O O10 0.683367 0.609829 0.054468
O O11 0.724137 0.500000 0.000000
O O12 0.250000 0.750000 0.563725
O O13 0.363401 0.817719 0.629308
O O14 0.103646 0.849517 0.607339
O O15 0.917410 0.736699 0.863062
#
# Coordination Sequence:
#
# PCOD9327157 Si02
#       7
#    16  16  16  16  16  16   8
#     4  11  22  35  56  86 120 167 218 263 301 360
#     4  11  22  42  61  90 123 160 210 259 323 379
#     4  11  22  42  73  97 117 163 212 260 318 397
#     4  10  21  41  64  95 129 164 203 256 320 380
#     4  11  24  35  63  89 124 174 207 255 318 376
#     4  10  20  40  59  88 129 164 211 262 308 370
#     4  10  24  36  55  78 128 156 205 274 310 358
#
# _framework density 20.104652000000002
#
# number of rings (size 3 to 8) (size 9 to 14) (size 15 to 20)
#    0.000    1.385    3.846    1.846    2.154    3.077 
#    0.000    6.154    0.000    0.000    0.000    0.000 
#    0.000    0.000    0.000    0.000    0.000    0.000 
#
# Total GULP energy -145118.111183 kJ/mol
# GULP energy per Si atom -5581.465815 kJ/mol
# Density = 2.005889 g / cm^3
# Si number density = 20.104652 Si / 1000 Ang^3
#
#
#
# Elastic Constant Matrix: (Units=GPa)
#
#
# Indices 1 2 3 4 5 6 
#
# 1 70.8489 24.1427 -7.6710 0.0000 0.0000 0.0000
# 2 24.1427 140.3378 37.4863 0.0000 0.0000 0.0000
# 3 -7.6710 37.4863 26.5820 0.0000 0.0000 0.0000
# 4 0.0000 0.0000 0.0000 9.4415 0.0000 0.0000
# 5 0.0000 0.0000 0.0000 0.0000 8.7834 0.0000
# 6 0.0000 0.0000 0.0000 0.0000 0.0000 32.3777
#
#
#
# Elastic Compliance Matrix: (Units=1/GPa)
#
#
# Indices 1 2 3 4 5 6 
#
# 1 0.018294 -0.007312 0.015590 0.000000 0.000000 0.000000
# 2 -0.007312 0.014354 -0.022352 0.000000 0.000000 0.000000
# 3 0.015590 -0.022352 0.073640 0.000000 0.000000 0.000000
# 4 0.000000 0.000000 0.000000 0.105916 0.000000 0.000000
# 5 0.000000 0.000000 0.000000 0.000000 0.113851 0.000000
# 6 0.000000 0.000000 0.000000 0.000000 0.000000 0.030885
#
#
# Mechanical properties :
#
#
# Convention : Reuss Voigt Hill
#
# Bulk Modulus (GPa) = 12.79742 38.40940 25.60341
# Shear Modulus (GPa) = 12.16146 22.37456 17.26801
#
# Velocity S-wave (km/s) = 2.46216 3.33964 2.93389
# Velocity P-wave (km/s) = 3.80292 5.83242 4.92338
#
# Compressibility (1/GPa) = 0.07814077
#
# Stress axis : x y z
#
# Youngs Moduli (GPa) = 54.66266 69.66631 13.57954
#
# Poissons Ratio (x) = 0.50937 -0.21171
# Poissons Ratio (y) = 0.39967 0.30354
# Poissons Ratio (z) = -0.85220 1.55721
#
# Static dielectric constant tensor:
#      x y z
#    x 1.735300 0.000000 0.000000 
#    y 0.000000 1.761540 0.000000 
#    z 0.000000 0.000000 1.679510 
# 
# From -- ./inp_files/55598.got.cif
#   From: 2010.05.17/outbox.cif.g08.bks.cpg/sg22_28_cif.got.tgz:55598.got - 2010.06.03 23:40:54.
