data_PCOD9327533
_publ_section_title
;
Structure prediction by ZEFSAII (Michael W. Deem and Ramdas Pophale) SiO2 
 PCOD9327533
Probable space group: F 2 2 2
;
_chemical_formula_sum "Si O2"
_cell_formula_units_Z 80
_cell_length_a 8.354175
_cell_length_b 27.515124
_cell_length_c 17.644788
_cell_angle_alpha 90.000000
_cell_angle_beta 90.000000
_cell_angle_gamma 90.000000
_cell_volume 4055.939680
_symmetry_space_group_name_H-M "F 2 2 2"
_symmetry_group_IT_number 22
_symmetry_cell_setting 'orthorhombic'
loop_
_space_group_symop_operation_xyz
x,y,z
-x,-y,z
x,-y,-z
-x,y,-z
x,1/2+y,1/2+z
-x,1/2-y,1/2+z
x,1/2-y,1/2-z
-x,1/2+y,1/2-z
1/2+x,y,1/2+z
1/2-x,-y,1/2+z
1/2+x,-y,1/2-z
1/2-x,y,1/2-z
1/2+x,1/2+y,z
1/2-x,1/2-y,z
1/2+x,1/2-y,-z
1/2-x,1/2+y,-z
loop_
_atom_site_type_symbol
_atom_site_label
_atom_site_fract_x
_atom_site_fract_y
_atom_site_fract_z
Si Si1 0.405706 0.871678 0.425040
Si Si2 0.185125 0.442364 0.012742
Si Si3 0.142982 0.793430 0.442987
Si Si4 0.221159 0.613783 0.665961
Si Si5 0.887590 0.720075 0.172046
O O1 0.500000 0.853733 0.500000
O O2 0.315388 0.920202 0.454185
O O3 0.259247 0.835544 0.415529
O O4 0.535319 0.875158 0.357469
O O5 0.225930 0.420945 0.096345
O O6 0.192973 0.500000 0.000000
O O7 0.000000 0.427657 0.000000
O O8 0.250000 0.750000 0.473877
O O9 0.000000 0.808734 0.500000
O O10 0.051551 0.774818 0.370033
O O11 0.250000 0.592070 0.750000
O O12 0.323991 0.664329 0.670786
O O13 0.904259 0.750000 0.250000
O O14 0.750000 0.750000 0.130460
#
# Coordination Sequence:
#
# PCOD9327533 Si02
#       5
#    16  16  16  16  16
#     4  10  21  39  64  92 127 172 221 272 336 393
#     4  10  22  44  70  97 131 171 218 279 341 401
#     4  12  23  36  58  90 126 172 232 282 320 394
#     4  11  22  41  67  96 132 177 218 278 337 401
#     4  11  22  40  60  84 132 177 217 265 336 392
#
# _framework density 19.724157999999999
#
# number of rings (size 3 to 8) (size 9 to 14) (size 15 to 20)
#    0.000    1.200    2.000    6.600    0.000    4.000 
#    0.000    7.000    0.000    0.000    0.000    0.000 
#    0.000    0.000    0.000    0.000    0.000    0.000 
#
# Total GULP energy -111431.016135 kJ/mol
# GULP energy per Si atom -5571.550807 kJ/mol
# Density = 1.967927 g / cm^3
# Si number density = 19.724158 Si / 1000 Ang^3
#
#
#
# Elastic Constant Matrix: (Units=GPa)
#
#
# Indices 1 2 3 4 5 6 
#
# 1 144.6887 33.8337 76.4409 0.0000 0.0000 0.0000
# 2 33.8337 97.1228 55.7846 0.0000 0.0000 0.0000
# 3 76.4409 55.7846 138.7804 0.0000 0.0000 0.0000
# 4 0.0000 0.0000 0.0000 20.8298 0.0000 0.0000
# 5 0.0000 0.0000 0.0000 0.0000 -20.7286 0.0000
# 6 0.0000 0.0000 0.0000 0.0000 0.0000 30.4819
#
#
#
# Elastic Compliance Matrix: (Units=1/GPa)
#
#
# Indices 1 2 3 4 5 6 
#
# 1 0.009760 -0.000406 -0.005213 0.000000 0.000000 0.000000
# 2 -0.000406 0.013404 -0.005164 0.000000 0.000000 0.000000
# 3 -0.005213 -0.005164 0.012153 0.000000 0.000000 0.000000
# 4 0.000000 0.000000 0.000000 0.048008 0.000000 0.000000
# 5 0.000000 0.000000 0.000000 0.000000 -0.048243 0.000000
# 6 0.000000 0.000000 0.000000 0.000000 0.000000 0.032806
#
#
# Mechanical properties :
#
#
# Convention : Reuss Voigt Hill
#
# Bulk Modulus (GPa) = 72.72322 79.19006 75.95664
# Shear Modulus (GPa) = 53.16964 20.41880 36.79422
#
# Velocity S-wave (km/s) = 5.19761 3.22097 4.32376
# Velocity P-wave (km/s) = 8.54227 7.35315 7.96992
#
# Compressibility (1/GPa) = 0.01375077
#
# Stress axis : x y z
#
# Youngs Moduli (GPa) = 102.45538 74.60532 82.28603
#
# Poissons Ratio (x) = 0.03029 0.42894
# Poissons Ratio (y) = 0.04160 0.42494
# Poissons Ratio (z) = 0.53408 0.38528
#
# Static dielectric constant tensor:
#      x y z
#    x 1.511190 0.000000 0.000000 
#    y 0.000000 1.730550 0.000000 
#    z 0.000000 0.000000 1.825330 
# 
# From -- ./inp_files/11604.got.cif
#   From: 2010.05.17/outbox.cif.g08.bks.cpg/sg22_6_cif.got.tgz:11604.got - 2010.06.03 23:40:54.
