data_PCOD9327511
_publ_section_title
;
Structure prediction by ZEFSAII (Michael W. Deem and Ramdas Pophale) SiO2 
 PCOD9327511
Probable space group: F 2 2 2
;
_chemical_formula_sum "Si O2"
_cell_formula_units_Z 96
_cell_length_a 8.439674
_cell_length_b 24.109827
_cell_length_c 24.097930
_cell_angle_alpha 90.000000
_cell_angle_beta 90.000000
_cell_angle_gamma 90.000000
_cell_volume 4903.424628
_symmetry_space_group_name_H-M "F 2 2 2"
_symmetry_group_IT_number 22
_symmetry_cell_setting 'orthorhombic'
loop_
_space_group_symop_operation_xyz
x,y,z
-x,-y,z
x,-y,-z
-x,y,-z
x,1/2+y,1/2+z
-x,1/2-y,1/2+z
x,1/2-y,1/2-z
-x,1/2+y,1/2-z
1/2+x,y,1/2+z
1/2-x,-y,1/2+z
1/2+x,-y,1/2-z
1/2-x,y,1/2-z
1/2+x,1/2+y,z
1/2-x,1/2-y,z
1/2+x,1/2-y,-z
1/2-x,1/2+y,-z
loop_
_atom_site_type_symbol
_atom_site_label
_atom_site_fract_x
_atom_site_fract_y
_atom_site_fract_z
Si Si1 0.322673 0.078572 0.024590
Si Si2 0.823034 0.524695 0.579549
Si Si3 0.059900 0.841543 0.763332
Si Si4 0.875341 0.049085 0.202432
Si Si5 0.123119 0.701465 0.950658
Si Si6 0.440008 0.740393 0.666691
O O1 0.302507 0.139555 0.051103
O O2 0.288734 0.028848 0.067728
O O3 0.500000 0.074511 0.000000
O O4 0.211292 0.066530 0.971258
O O5 0.802851 0.552180 0.640086
O O6 0.000000 0.500000 0.575103
O O7 0.250000 0.849637 0.750000
O O8 0.010095 0.801336 0.814565
O O9 0.005510 0.805842 0.710178
O O10 0.971620 0.897763 0.776247
O O11 0.750000 0.035913 0.250000
O O12 0.000000 0.000000 0.198168
O O13 0.250000 0.750000 0.959405
O O14 0.033755 0.717871 0.894228
O O15 0.000000 0.700755 0.000000
O O16 0.250000 0.750000 0.672639
#
# Coordination Sequence:
#
# PCOD9327511 Si02
#       6
#    16  16  16  16  16  16
#     4  10  21  39  61  84 111 152 194 228 278 344
#     4  10  22  39  58  83 113 152 192 230 285 344
#     4   9  18  38  62  82 109 149 191 229 274 343
#     4  11  25  38  55  86 116 148 190 240 291 328
#     4  10  22  35  54  86 115 145 185 232 282 325
#     4   8  17  35  60  83 109 150 189 219 276 348
#
# _framework density 19.578151999999999
#
# number of rings (size 3 to 8) (size 9 to 14) (size 15 to 20)
#    0.000    2.333    0.000    3.500    0.000   16.000 
#    0.000    1.667    0.000    0.000    0.000    0.000 
#    0.000    0.000    0.000    0.000    0.000    0.000 
#
# Total GULP energy -133719.345854 kJ/mol
# GULP energy per Si atom -5571.639411 kJ/mol
# Density = 1.953359 g / cm^3
# Si number density = 19.578152 Si / 1000 Ang^3
#
#
#
# Elastic Constant Matrix: (Units=GPa)
#
#
# Indices 1 2 3 4 5 6 
#
# 1 35.0418 10.7628 20.2110 0.0000 0.0000 0.0000
# 2 10.7628 94.2042 33.5757 0.0000 0.0000 0.0000
# 3 20.2110 33.5757 122.6624 0.0000 0.0000 0.0000
# 4 0.0000 0.0000 0.0000 8.9608 0.0000 0.0000
# 5 0.0000 0.0000 0.0000 0.0000 18.1792 0.0000
# 6 0.0000 0.0000 0.0000 0.0000 0.0000 25.6803
#
#
#
# Elastic Compliance Matrix: (Units=1/GPa)
#
#
# Indices 1 2 3 4 5 6 
#
# 1 0.031857 -0.001960 -0.004713 0.000000 0.000000 0.000000
# 2 -0.001960 0.011883 -0.002930 0.000000 0.000000 0.000000
# 3 -0.004713 -0.002930 0.009731 0.000000 0.000000 0.000000
# 4 0.000000 0.000000 0.000000 0.111598 0.000000 0.000000
# 5 0.000000 0.000000 0.000000 0.000000 0.055008 0.000000
# 6 0.000000 0.000000 0.000000 0.000000 0.000000 0.038940
#
#
# Mechanical properties :
#
#
# Convention : Reuss Voigt Hill
#
# Bulk Modulus (GPa) = 29.18278 42.33415 35.75847
# Shear Modulus (GPa) = 17.26250 23.05464 20.15857
#
# Velocity S-wave (km/s) = 2.97260 3.43530 3.21229
# Velocity P-wave (km/s) = 5.16914 6.11597 5.66238
#
# Compressibility (1/GPa) = 0.03426679
#
# Stress axis : x y z
#
# Youngs Moduli (GPa) = 31.38983 84.15101 102.76530
#
# Poissons Ratio (x) = 0.16494 0.48429
# Poissons Ratio (y) = 0.06153 0.30108
# Poissons Ratio (z) = 0.14793 0.24655
#
# Static dielectric constant tensor:
#      x y z
#    x 1.705260 0.000000 0.000000 
#    y 0.000000 1.712980 0.000000 
#    z 0.000000 0.000000 1.716300 
# 
# From -- ./inp_files/47396.got.cif
#   From: 2010.05.17/outbox.cif.g08.bks.cpg/sg22_24_cif.got.tgz:47396.got - 2010.06.03 23:40:54.
