data_PCOD9327380
_publ_section_title
;
Structure prediction by ZEFSAII (Michael W. Deem and Ramdas Pophale) SiO2 
 PCOD9327380
Probable space group: F 2 2 2
;
_chemical_formula_sum "Si O2"
_cell_formula_units_Z 120
_cell_length_a 17.454531
_cell_length_b 18.341740
_cell_length_c 17.877551
_cell_angle_alpha 90.000000
_cell_angle_beta 90.000000
_cell_angle_gamma 90.000000
_cell_volume 5723.434835
_symmetry_space_group_name_H-M "F 2 2 2"
_symmetry_group_IT_number 22
_symmetry_cell_setting 'orthorhombic'
loop_
_space_group_symop_operation_xyz
x,y,z
-x,-y,z
x,-y,-z
-x,y,-z
x,1/2+y,1/2+z
-x,1/2-y,1/2+z
x,1/2-y,1/2-z
-x,1/2+y,1/2-z
1/2+x,y,1/2+z
1/2-x,-y,1/2+z
1/2+x,-y,1/2-z
1/2-x,y,1/2-z
1/2+x,1/2+y,z
1/2-x,1/2-y,z
1/2+x,1/2-y,-z
1/2-x,1/2+y,-z
loop_
_atom_site_type_symbol
_atom_site_label
_atom_site_fract_x
_atom_site_fract_y
_atom_site_fract_z
Si Si1 0.187528 0.602169 0.197869
Si Si2 0.663153 0.979881 0.080895
Si Si3 0.183097 0.106573 0.051886
Si Si4 0.930736 0.687206 0.697513
Si Si5 0.833104 0.376733 0.787541
Si Si6 0.201161 0.689047 0.406448
Si Si7 0.949636 0.926525 0.157525
Si Si8 0.750000 0.250000 0.862575
O O1 0.250000 0.561543 0.250000
O O2 0.159001 0.550634 0.132581
O O3 0.120530 0.635317 0.248303
O O4 0.240906 0.661821 0.157684
O O5 0.749420 0.951243 0.065489
O O6 0.637012 0.915871 0.136498
O O7 0.628904 0.000000 0.000000
O O8 0.105767 0.074289 0.086068
O O9 0.207655 0.182824 0.093876
O O10 0.179416 0.126545 0.964506
O O11 0.963867 0.750000 0.750000
O O12 0.872703 0.718659 0.635945
O O13 0.991115 0.639411 0.654299
O O14 0.750000 0.397814 0.750000
O O15 0.894212 0.403252 0.726265
O O16 0.814016 0.294449 0.814950
O O17 0.250000 0.750000 0.448578
O O18 0.000000 0.000000 0.167505
#
# Coordination Sequence:
#
# PCOD9327380 Si02
#       8
#    16  16  16  16  16  16  16   8
#     4  10  21  36  66  92 126 167 221 273 318 398
#     4  11  21  36  62  99 124 166 214 280 340 390
#     4  11  24  39  66 101 135 173 223 281 351 406
#     4  11  25  42  68  97 132 181 221 279 348 411
#     4  11  22  40  70  96 128 171 241 289 335 407
#     4  11  21  41  66  99 134 166 228 284 329 407
#     4  12  28  44  65 100 143 183 224 287 361 429
#     4  10  21  38  68 104 121 166 226 302 327 388
#
# _framework density 20.966429999999999
#
# number of rings (size 3 to 8) (size 9 to 14) (size 15 to 20)
#    0.000    1.067    6.000    1.400    5.600    0.533 
#    0.000    0.667    0.000    3.600    0.000    0.000 
#    0.000    0.000    0.000    0.000    0.000    0.000 
#
# Total GULP energy -167210.701391 kJ/mol
# GULP energy per Si atom -5573.690046 kJ/mol
# Density = 2.091871 g / cm^3
# Si number density = 20.966430 Si / 1000 Ang^3
#
#
#
# Elastic Constant Matrix: (Units=GPa)
#
#
# Indices 1 2 3 4 5 6 
#
# 1 54.1273 9.4646 9.3163 0.0000 0.0000 0.0000
# 2 9.4646 62.4663 -5.1999 0.0000 0.0000 0.0000
# 3 9.3163 -5.1999 86.4681 0.0000 0.0000 0.0000
# 4 0.0000 0.0000 0.0000 41.6246 0.0000 0.0000
# 5 0.0000 0.0000 0.0000 0.0000 18.4675 0.0000
# 6 0.0000 0.0000 0.0000 0.0000 0.0000 21.5476
#
#
#
# Elastic Compliance Matrix: (Units=1/GPa)
#
#
# Indices 1 2 3 4 5 6 
#
# 1 0.019415 -0.003131 -0.002280 0.000000 0.000000 0.000000
# 2 -0.003131 0.016594 0.001335 0.000000 0.000000 0.000000
# 3 -0.002280 0.001335 0.011891 0.000000 0.000000 0.000000
# 4 0.000000 0.000000 0.000000 0.024024 0.000000 0.000000
# 5 0.000000 0.000000 0.000000 0.000000 0.054149 0.000000
# 6 0.000000 0.000000 0.000000 0.000000 0.000000 0.046409
#
#
# Mechanical properties :
#
#
# Convention : Reuss Voigt Hill
#
# Bulk Modulus (GPa) = 25.15877 25.58042 25.36960
# Shear Modulus (GPa) = 25.78859 28.95999 27.37429
#
# Velocity S-wave (km/s) = 3.51093 3.72056 3.61726
# Velocity P-wave (km/s) = 5.33490 5.53930 5.43806
#
# Compressibility (1/GPa) = 0.03974757
#
# Stress axis : x y z
#
# Youngs Moduli (GPa) = 51.50665 60.26186 84.09779
#
# Poissons Ratio (x) = 0.18871 0.19175
# Poissons Ratio (y) = 0.16129 -0.11230
# Poissons Ratio (z) = 0.11744 -0.08047
#
# Static dielectric constant tensor:
#      x y z
#    x 1.758220 0.000000 0.000000 
#    y 0.000000 1.827090 0.000000 
#    z 0.000000 0.000000 1.841640 
# 
# From -- ./inp_files/38297.got.cif
#   From: 2010.05.17/outbox.cif.g08.bks.cpg/sg22_20_cif.got.tgz:38297.got - 2010.06.03 23:40:54.
