data_PCOD9327601
_publ_section_title
;
Structure prediction by ZEFSAII (Michael W. Deem and Ramdas Pophale) SiO2 
 PCOD9327601
Probable space group: F 2 2 2
;
_chemical_formula_sum "Si O2"
_cell_formula_units_Z 72
_cell_length_a 14.289287
_cell_length_b 8.146115
_cell_length_c 24.909587
_cell_angle_alpha 90.000000
_cell_angle_beta 90.000000
_cell_angle_gamma 90.000000
_cell_volume 2899.530109
_symmetry_space_group_name_H-M "F 2 2 2"
_symmetry_group_IT_number 22
_symmetry_cell_setting 'orthorhombic'
loop_
_space_group_symop_operation_xyz
x,y,z
-x,-y,z
x,-y,-z
-x,y,-z
x,1/2+y,1/2+z
-x,1/2-y,1/2+z
x,1/2-y,1/2-z
-x,1/2+y,1/2-z
1/2+x,y,1/2+z
1/2-x,-y,1/2+z
1/2+x,-y,1/2-z
1/2-x,y,1/2-z
1/2+x,1/2+y,z
1/2-x,1/2-y,z
1/2+x,1/2-y,-z
1/2-x,1/2+y,-z
loop_
_atom_site_type_symbol
_atom_site_label
_atom_site_fract_x
_atom_site_fract_y
_atom_site_fract_z
Si Si1 0.440108 0.714651 0.949094
Si Si2 0.750000 0.750000 0.174357
Si Si3 0.574905 0.250000 0.750000
Si Si4 0.820134 0.500000 0.000000
Si Si5 0.791094 0.534054 0.602403
Si Si6 0.544570 0.814403 0.655543
O O1 0.373812 0.576255 0.924070
O O2 0.506065 0.758727 0.899637
O O3 0.500000 0.663178 0.000000
O O4 0.380321 0.863491 0.970893
O O5 0.657866 0.695723 0.207568
O O6 0.729342 0.908064 0.137678
O O7 0.495967 0.293275 0.704348
O O8 0.762918 0.418537 0.048697
O O9 0.845710 0.658332 0.642085
O O10 0.500000 0.000000 0.665991
#
# Coordination Sequence:
#
# PCOD9327601 Si02
#       6
#    16   8   8   8  16  16
#     4  11  22  39  61  97 134 178 223 268 340 412
#     4  11  20  38  70  98 128 168 226 287 336 403
#     4  11  20  38  68  92 129 170 232 277 330 412
#     4  12  21  36  65  96 136 174 218 284 325 405
#     4  11  21  41  66  99 132 177 223 273 345 405
#     4  10  21  40  64  95 127 178 223 276 339 411
#
# _framework density 24.831609
#
# number of rings (size 3 to 8) (size 9 to 14) (size 15 to 20)
#    0.000    1.111    6.667    1.667    0.000    3.111 
#    0.000    4.444    0.000    5.333    0.000    0.000 
#    0.000    0.000    0.000    0.000    0.000    0.000 
#
# Total GULP energy -100260.393073 kJ/mol
# GULP energy per Si atom -5570.021837 kJ/mol
# Density = 2.477509 g / cm^3
# Si number density = 24.831609 Si / 1000 Ang^3
#
#
#
# Elastic Constant Matrix: (Units=GPa)
#
#
# Indices 1 2 3 4 5 6 
#
# 1 99.0296 38.9493 38.6289 0.0000 0.0000 0.0000
# 2 38.9493 61.1678 26.3302 0.0000 0.0000 0.0000
# 3 38.6289 26.3302 169.5208 0.0000 0.0000 0.0000
# 4 0.0000 0.0000 0.0000 -58.9674 0.0000 0.0000
# 5 0.0000 0.0000 0.0000 0.0000 -308.3919 0.0000
# 6 0.0000 0.0000 0.0000 0.0000 0.0000 28.2664
#
#
#
# Elastic Compliance Matrix: (Units=1/GPa)
#
#
# Indices 1 2 3 4 5 6 
#
# 1 0.014044 -0.008107 -0.001941 0.000000 0.000000 0.000000
# 2 -0.008107 0.022200 -0.001601 0.000000 0.000000 0.000000
# 3 -0.001941 -0.001601 0.006590 0.000000 0.000000 0.000000
# 4 0.000000 0.000000 0.000000 -0.016959 0.000000 0.000000
# 5 0.000000 0.000000 0.000000 0.000000 -0.003243 0.000000
# 6 0.000000 0.000000 0.000000 0.000000 0.000000 0.035378
#
#
# Mechanical properties :
#
#
# Convention : Reuss Voigt Hill
#
# Bulk Modulus (GPa) = 51.18770 59.72612 55.45691
# Shear Modulus (GPa) = 56.93518 -52.76458 2.08530
#
# Velocity S-wave (km/s) = 4.79357 -4.61466 0.91739
# Velocity P-wave (km/s) = 7.16215 2.07094 4.84807
#
# Compressibility (1/GPa) = 0.01953594
#
# Stress axis : x y z
#
# Youngs Moduli (GPa) = 71.20653 45.04562 151.74741
#
# Poissons Ratio (x) = 0.36518 0.29454
# Poissons Ratio (y) = 0.57727 0.24291
# Poissons Ratio (z) = 0.13821 0.07211
#
# Static dielectric constant tensor:
#      x y z
#    x 2.032360 0.000000 0.000000 
#    y 0.000000 2.714620 0.000000 
#    z 0.000000 0.000000 1.820810 
# 
# From -- ./inp_files/53049.got.cif
#   From: 2010.05.17/outbox.cif.g08.bks.cpg/sg22_27_cif.got.tgz:53049.got - 2010.06.03 23:40:54.
