data_PCOD9327711
_publ_section_title
;
Structure prediction by ZEFSAII (Michael W. Deem and Ramdas Pophale) SiO2 
 PCOD9327711
Probable space group: F 2 2 2
;
_chemical_formula_sum "Si O2"
_cell_formula_units_Z 68
_cell_length_a 20.786708
_cell_length_b 15.990297
_cell_length_c 7.884435
_cell_angle_alpha 90.000000
_cell_angle_beta 90.000000
_cell_angle_gamma 90.000000
_cell_volume 2620.672931
_symmetry_space_group_name_H-M "F 2 2 2"
_symmetry_group_IT_number 22
_symmetry_cell_setting 'orthorhombic'
loop_
_space_group_symop_operation_xyz
x,y,z
-x,-y,z
x,-y,-z
-x,y,-z
x,1/2+y,1/2+z
-x,1/2-y,1/2+z
x,1/2-y,1/2-z
-x,1/2+y,1/2-z
1/2+x,y,1/2+z
1/2-x,-y,1/2+z
1/2+x,-y,1/2-z
1/2-x,y,1/2-z
1/2+x,1/2+y,z
1/2-x,1/2-y,z
1/2+x,1/2-y,-z
1/2-x,1/2+y,-z
loop_
_atom_site_type_symbol
_atom_site_label
_atom_site_fract_x
_atom_site_fract_y
_atom_site_fract_z
Si Si1 0.685542 0.056136 0.329611
Si Si2 0.500000 0.000000 0.000000
Si Si3 0.060854 0.698452 0.577719
Si Si4 0.596883 0.357411 0.377974
Si Si5 0.324133 0.119430 0.207037
O O1 0.750000 0.093503 0.250000
O O2 0.630008 0.123661 0.302342
O O3 0.693986 0.000000 0.500000
O O4 0.669486 0.979954 0.205292
O O5 0.453864 0.933276 0.095786
O O6 0.043910 0.750000 0.750000
O O7 0.068636 0.769192 0.434016
O O8 0.125158 0.653234 0.652832
O O9 0.000000 0.646493 0.500000
O O10 0.653537 0.357010 0.520633
O O11 0.250000 0.142039 0.250000
#
# Coordination Sequence:
#
# PCOD9327711 Si02
#       5
#    16   4  16  16  16
#     4  11  22  40  67 100 131 173 233 296 346 412
#     4  12  20  40  70  92 128 188 218 288 344 412
#     4  10  23  40  64  97 139 184 228 286 353 420
#     4  11  22  41  68  93 132 182 233 280 351 413
#     4  10  21  42  68  98 133 183 232 285 347 421
#
# _framework density 25.947534999999998
#
# number of rings (size 3 to 8) (size 9 to 14) (size 15 to 20)
#    0.000    1.412    3.529    2.824    0.000    6.118 
#    0.000    0.588    0.000    1.412    0.000    0.000 
#    0.000    0.000    0.000    0.000    0.000    0.000 
#
# Total GULP energy -94755.361091 kJ/mol
# GULP energy per Si atom -5573.844770 kJ/mol
# Density = 2.588848 g / cm^3
# Si number density = 25.947535 Si / 1000 Ang^3
#
#
#
# Elastic Constant Matrix: (Units=GPa)
#
#
# Indices 1 2 3 4 5 6 
#
# 1 217.4488 54.6983 68.0710 0.0000 0.0000 0.0000
# 2 54.6983 92.0024 13.6731 -0.0001 0.0000 0.0000
# 3 68.0710 13.6731 161.8671 -0.0003 0.0001 0.0001
# 4 0.0000 -0.0001 -0.0003 30.0559 0.0001 0.0000
# 5 0.0000 0.0000 0.0001 0.0001 49.4479 0.0000
# 6 0.0000 0.0000 0.0001 0.0000 0.0000 36.0503
#
#
#
# Elastic Compliance Matrix: (Units=1/GPa)
#
#
# Indices 1 2 3 4 5 6 
#
# 1 0.006156 -0.003317 -0.002309 0.000000 0.000000 0.000000
# 2 -0.003317 0.012794 0.000314 0.000000 0.000000 0.000000
# 3 -0.002309 0.000314 0.007122 0.000000 0.000000 0.000000
# 4 0.000000 0.000000 0.000000 0.033271 0.000000 0.000000
# 5 0.000000 0.000000 0.000000 0.000000 0.020223 0.000000
# 6 0.000000 0.000000 0.000000 0.000000 0.000000 0.027739
#
#
# Mechanical properties :
#
#
# Convention : Reuss Voigt Hill
#
# Bulk Modulus (GPa) = 64.72488 82.68921 73.70704
# Shear Modulus (GPa) = 40.62444 45.43588 43.03016
#
# Velocity S-wave (km/s) = 3.96111 4.18912 4.07671
# Velocity P-wave (km/s) = 6.77637 7.43877 7.11528
#
# Compressibility (1/GPa) = 0.01545001
#
# Stress axis : x y z
#
# Youngs Moduli (GPa) = 162.44941 78.15861 140.40579
#
# Poissons Ratio (x) = 0.25923 0.32413
# Poissons Ratio (y) = 0.53880 -0.04409
# Poissons Ratio (z) = 0.37502 -0.02454
#
# Static dielectric constant tensor:
#      x y z
#    x 2.194250 0.000000 0.000000 
#    y 0.000000 1.998340 0.000000 
#    z 0.000000 0.000000 2.147200 
# 
# From -- ./inp_files/12298.got.cif
#   From: 2010.05.17/outbox.cif.g08.bks.cpg/sg22_7_cif.got.tgz:12298.got - 2010.06.03 23:40:54.
