data_PCOD9327820
_publ_section_title
;
Structure prediction by ZEFSAII (Michael W. Deem and Ramdas Pophale) SiO2 
 PCOD9327820
Probable space group: F 2 2 2
;
_chemical_formula_sum "Si O2"
_cell_formula_units_Z 96
_cell_length_a 21.257811
_cell_length_b 8.938950
_cell_length_c 24.376110
_cell_angle_alpha 90.000000
_cell_angle_beta 90.000000
_cell_angle_gamma 90.000000
_cell_volume 4632.009597
_symmetry_space_group_name_H-M "F 2 2 2"
_symmetry_group_IT_number 22
_symmetry_cell_setting 'orthorhombic'
loop_
_space_group_symop_operation_xyz
x,y,z
-x,-y,z
x,-y,-z
-x,y,-z
x,1/2+y,1/2+z
-x,1/2-y,1/2+z
x,1/2-y,1/2-z
-x,1/2+y,1/2-z
1/2+x,y,1/2+z
1/2-x,-y,1/2+z
1/2+x,-y,1/2-z
1/2-x,y,1/2-z
1/2+x,1/2+y,z
1/2-x,1/2-y,z
1/2+x,1/2-y,-z
1/2-x,1/2+y,-z
loop_
_atom_site_type_symbol
_atom_site_label
_atom_site_fract_x
_atom_site_fract_y
_atom_site_fract_z
Si Si1 0.268051 0.910981 0.148054
Si Si2 0.532703 0.153198 0.345446
Si Si3 0.087080 0.792932 0.617999
Si Si4 0.138646 0.478359 0.317458
Si Si5 0.402361 0.433403 0.697792
Si Si6 0.801713 0.877419 0.452649
O O1 0.250000 0.750000 0.123947
O O2 0.331702 0.885591 0.181700
O O3 0.210635 0.973534 0.184032
O O4 0.279678 0.033452 0.101550
O O5 0.481439 0.216760 0.388016
O O6 0.550201 0.293980 0.307216
O O7 0.500000 0.000000 0.323880
O O8 0.601367 0.088286 0.359954
O O9 0.127025 0.685930 0.659030
O O10 0.129746 0.813116 0.564381
O O11 0.078812 0.946205 0.651705
O O12 0.106469 0.500195 0.258293
O O13 0.750000 0.750000 0.464834
O O14 0.806649 0.000000 0.500000
#
# Coordination Sequence:
#
# PCOD9327820 Si02
#       6
#    16  16  16  16  16  16
#     4  11  22  38  61  95 135 170 219 282 331 388
#     4  10  22  37  57  86 131 185 225 268 306 374
#     4  10  23  40  60  93 133 165 222 278 326 391
#     4  11  21  37  58  94 137 182 222 266 318 389
#     4  11  22  34  61  91 132 191 227 258 319 382
#     4  11  23  44  71  99 121 159 215 282 355 412
#
# _framework density 20.725345999999998
#
# number of rings (size 3 to 8) (size 9 to 14) (size 15 to 20)
#    0.000    1.333    3.333    2.500    0.000    7.333 
#    0.000    1.667    0.000    8.000    0.000    5.833 
#    0.000    0.000    0.000    0.000    0.000    0.000 
#
# Total GULP energy -133790.368903 kJ/mol
# GULP energy per Si atom -5574.598704 kJ/mol
# Density = 2.067817 g / cm^3
# Si number density = 20.725346 Si / 1000 Ang^3
#
#
#
# Elastic Constant Matrix: (Units=GPa)
#
#
# Indices 1 2 3 4 5 6 
#
# 1 123.3002 29.9873 31.2439 0.0000 0.0000 0.0000
# 2 29.9873 110.1636 27.5904 0.0000 0.0000 0.0000
# 3 31.2439 27.5904 65.3322 0.0000 0.0000 0.0000
# 4 0.0000 0.0000 0.0000 26.7323 0.0000 0.0000
# 5 0.0000 0.0000 0.0000 0.0000 13.2063 0.0000
# 6 0.0000 0.0000 0.0000 0.0000 0.0000 32.2335
#
#
#
# Elastic Compliance Matrix: (Units=1/GPa)
#
#
# Indices 1 2 3 4 5 6 
#
# 1 0.009479 -0.001616 -0.003851 0.000000 0.000000 0.000000
# 2 -0.001616 0.010426 -0.003630 0.000000 0.000000 0.000000
# 3 -0.003851 -0.003630 0.018681 0.000000 0.000000 0.000000
# 4 0.000000 0.000000 0.000000 0.037408 0.000000 0.000000
# 5 0.000000 0.000000 0.000000 0.000000 0.075721 0.000000
# 6 0.000000 0.000000 0.000000 0.000000 0.000000 0.031024
#
#
# Mechanical properties :
#
#
# Convention : Reuss Voigt Hill
#
# Bulk Modulus (GPa) = 49.03765 52.93769 50.98767
# Shear Modulus (GPa) = 24.06958 28.43274 26.25116
#
# Velocity S-wave (km/s) = 3.41157 3.70791 3.56282
# Velocity P-wave (km/s) = 6.26342 6.62793 6.44825
#
# Compressibility (1/GPa) = 0.02039250
#
# Stress axis : x y z
#
# Youngs Moduli (GPa) = 105.49586 95.90949 53.52999
#
# Poissons Ratio (x) = 0.15497 0.20613
# Poissons Ratio (y) = 0.17046 0.19434
# Poissons Ratio (z) = 0.40624 0.34819
#
# Static dielectric constant tensor:
#      x y z
#    x 1.806380 0.000000 0.000000 
#    y 0.000000 1.794550 0.000000 
#    z 0.000000 0.000000 1.707660 
# 
# From -- ./inp_files/45687.got.cif
#   From: 2010.05.17/outbox.cif.g08.bks.cpg/sg22_23_cif.got.tgz:45687.got - 2010.06.03 23:40:54.
