data_PCOD9327432
_publ_section_title
;
Structure prediction by ZEFSAII (Michael W. Deem and Ramdas Pophale) SiO2 
 PCOD9327432
Probable space group: F 2 2 2
;
_chemical_formula_sum "Si O2"
_cell_formula_units_Z 96
_cell_length_a 10.009147
_cell_length_b 18.041805
_cell_length_c 22.514728
_cell_angle_alpha 90.000000
_cell_angle_beta 90.000000
_cell_angle_gamma 90.000000
_cell_volume 4065.778891
_symmetry_space_group_name_H-M "F 2 2 2"
_symmetry_group_IT_number 22
_symmetry_cell_setting 'orthorhombic'
loop_
_space_group_symop_operation_xyz
x,y,z
-x,-y,z
x,-y,-z
-x,y,-z
x,1/2+y,1/2+z
-x,1/2-y,1/2+z
x,1/2-y,1/2-z
-x,1/2+y,1/2-z
1/2+x,y,1/2+z
1/2-x,-y,1/2+z
1/2+x,-y,1/2-z
1/2-x,y,1/2-z
1/2+x,1/2+y,z
1/2-x,1/2-y,z
1/2+x,1/2-y,-z
1/2-x,1/2+y,-z
loop_
_atom_site_type_symbol
_atom_site_label
_atom_site_fract_x
_atom_site_fract_y
_atom_site_fract_z
Si Si1 0.517043 0.827760 0.824522
Si Si2 0.758397 0.444247 0.315761
Si Si3 0.349878 0.313023 0.983781
Si Si4 0.985971 0.658043 0.309953
Si Si5 0.151284 0.528641 0.435552
Si Si6 0.758926 0.838076 0.387401
O O1 0.646353 0.879791 0.821310
O O2 0.539285 0.739083 0.832349
O O3 0.451240 0.833371 0.759315
O O4 0.410361 0.857197 0.871983
O O5 0.750000 0.481101 0.250000
O O6 0.899884 0.402762 0.314134
O O7 0.759545 0.488656 0.377893
O O8 0.250000 0.250000 0.961427
O O9 0.284040 0.343460 0.044588
O O10 0.500000 0.286392 0.000000
O O11 0.359029 0.382496 0.940884
O O12 0.858316 0.632314 0.346266
O O13 0.199994 0.500000 0.500000
O O14 0.000000 0.500000 0.429233
O O15 0.750000 0.750000 0.373876
#
# Coordination Sequence:
#
# PCOD9327432 Si02
#       6
#    16  16  16  16  16  16
#     4   9  17  31  51  94 145 182 223 291 369 411
#     4  10  21  37  65  99 131 174 244 299 345 417
#     4  11  23  41  68 106 138 182 244 305 356 425
#     4   9  16  28  56  93 140 189 228 284 350 430
#     4  11  24  45  74  99 140 195 246 283 353 443
#     4   9  18  31  53  87 136 183 232 279 347 425
#
# _framework density 23.611711
#
# number of rings (size 3 to 8) (size 9 to 14) (size 15 to 20)
#    0.000    2.167    1.667    2.000    0.000    9.333 
#    0.000    0.000    7.333    3.500    0.000    0.000 
#    0.000    0.000    0.000    0.000    0.000    0.000 
#
# Total GULP energy -134171.633349 kJ/mol
# GULP energy per Si atom -5590.484723 kJ/mol
# Density = 2.355797 g / cm^3
# Si number density = 23.611711 Si / 1000 Ang^3
#
#
#
# Elastic Constant Matrix: (Units=GPa)
#
#
# Indices 1 2 3 4 5 6 
#
# 1 41.1986 18.7590 27.1606 0.0000 0.0000 0.0000
# 2 18.7590 84.4374 29.4630 0.0000 0.0000 0.0000
# 3 27.1606 29.4630 127.9179 0.0000 0.0000 0.0000
# 4 0.0000 0.0000 0.0000 27.3729 0.0000 0.0000
# 5 0.0000 0.0000 0.0000 0.0000 37.9500 0.0000
# 6 0.0000 0.0000 0.0000 0.0000 0.0000 24.7490
#
#
#
# Elastic Compliance Matrix: (Units=1/GPa)
#
#
# Indices 1 2 3 4 5 6 
#
# 1 0.029924 -0.004818 -0.005244 0.000000 0.000000 0.000000
# 2 -0.004818 0.013654 -0.002122 0.000000 0.000000 0.000000
# 3 -0.005244 -0.002122 0.009420 0.000000 0.000000 0.000000
# 4 0.000000 0.000000 0.000000 0.036532 0.000000 0.000000
# 5 0.000000 0.000000 0.000000 0.000000 0.026350 0.000000
# 6 0.000000 0.000000 0.000000 0.000000 0.000000 0.040406
#
#
# Mechanical properties :
#
#
# Convention : Reuss Voigt Hill
#
# Bulk Modulus (GPa) = 34.92917 44.92434 39.92676
# Shear Modulus (GPa) = 26.28858 29.89247 28.09053
#
# Velocity S-wave (km/s) = 3.34034 3.56195 3.45292
# Velocity P-wave (km/s) = 5.44999 5.99869 5.73091
#
# Compressibility (1/GPa) = 0.02862937
#
# Stress axis : x y z
#
# Youngs Moduli (GPa) = 33.41843 73.23909 106.16101
#
# Poissons Ratio (x) = 0.35288 0.55669
# Poissons Ratio (y) = 0.16102 0.22526
# Poissons Ratio (z) = 0.17524 0.15540
#
# Static dielectric constant tensor:
#      x y z
#    x 1.830720 0.000000 0.000000 
#    y 0.000000 1.963060 0.000000 
#    z 0.000000 0.000000 1.962910 
# 
# From -- ./inp_files/42769.got.cif
#   From: 2010.05.17/outbox.cif.g08.bks.cpg/sg22_22_cif.got.tgz:42769.got - 2010.06.03 23:40:54.
