data_PCOD9327179
_publ_section_title
;
Structure prediction by ZEFSAII (Michael W. Deem and Ramdas Pophale) SiO2 
 PCOD9327179
Probable space group: F 2 2 2
;
_chemical_formula_sum "Si O2"
_cell_formula_units_Z 100
_cell_length_a 9.333445
_cell_length_b 25.465464
_cell_length_c 20.502214
_cell_angle_alpha 90.000000
_cell_angle_beta 90.000000
_cell_angle_gamma 90.000000
_cell_volume 4872.976631
_symmetry_space_group_name_H-M "F 2 2 2"
_symmetry_group_IT_number 22
_symmetry_cell_setting 'orthorhombic'
loop_
_space_group_symop_operation_xyz
x,y,z
-x,-y,z
x,-y,-z
-x,y,-z
x,1/2+y,1/2+z
-x,1/2-y,1/2+z
x,1/2-y,1/2-z
-x,1/2+y,1/2-z
1/2+x,y,1/2+z
1/2-x,-y,1/2+z
1/2+x,-y,1/2-z
1/2-x,y,1/2-z
1/2+x,1/2+y,z
1/2-x,1/2-y,z
1/2+x,1/2-y,-z
1/2-x,1/2+y,-z
loop_
_atom_site_type_symbol
_atom_site_label
_atom_site_fract_x
_atom_site_fract_y
_atom_site_fract_z
Si Si1 0.216584 0.451433 0.682861
Si Si2 0.916551 0.312535 0.433672
Si Si3 0.438872 0.612697 0.830754
Si Si4 0.512874 0.115958 0.186610
Si Si5 0.579473 0.686631 0.567144
Si Si6 0.000000 0.500000 0.000000
Si Si7 0.818293 0.453526 0.889285
O O1 0.250000 0.482030 0.750000
O O2 0.320270 0.400820 0.689868
O O3 0.256132 0.489233 0.624678
O O4 0.054624 0.433960 0.675408
O O5 0.748374 0.326940 0.437347
O O6 0.928004 0.249684 0.425585
O O7 0.000000 0.326789 0.500000
O O8 0.991373 0.341955 0.374122
O O9 0.436003 0.630697 0.754609
O O10 0.302789 0.589333 0.869705
O O11 0.506727 0.158653 0.129133
O O12 0.441220 0.062605 0.161317
O O13 0.500000 0.672351 0.500000
O O14 0.898660 0.538695 0.042415
#
# Coordination Sequence:
#
# PCOD9327179 Si02
#       7
#    16  16  16  16  16   4  16
#     4  10  20  40  64  91 126 166 210 263 328 398
#     4  10  23  43  64  96 129 170 223 276 332 394
#     4  11  24  40  67 101 130 167 219 281 334 391
#     4  11  22  40  68  97 129 174 217 266 342 398
#     4  10  23  42  68  91 129 178 218 271 337 405
#     4  12  28  44  66  92 128 196 228 272 336 416
#     4  12  25  42  63  92 134 170 225 268 327 394
#
# _framework density 20.521339000000001
#
# number of rings (size 3 to 8) (size 9 to 14) (size 15 to 20)
#    0.000    1.280    3.200    1.920    3.360    4.480 
#    0.000    2.400    0.000    1.920    0.000    0.000 
#    0.000    0.000    0.000    0.000    0.000    0.000 
#
# Total GULP energy -139431.392625 kJ/mol
# GULP energy per Si atom -5577.255705 kJ/mol
# Density = 2.047463 g / cm^3
# Si number density = 20.521339 Si / 1000 Ang^3
#
#
#
# Elastic Constant Matrix: (Units=GPa)
#
#
# Indices 1 2 3 4 5 6 
#
# 1 110.3366 30.0731 61.1741 0.0000 0.0000 0.0000
# 2 30.0731 45.2266 55.4763 0.0000 0.0000 0.0000
# 3 61.1741 55.4763 177.5002 0.0000 0.0000 0.0000
# 4 0.0000 0.0000 0.0000 0.0540 0.0000 0.0000
# 5 0.0000 0.0000 0.0000 0.0000 38.7291 0.0000
# 6 0.0000 0.0000 0.0000 0.0000 0.0000 33.8267
#
#
#
# Elastic Compliance Matrix: (Units=1/GPa)
#
#
# Indices 1 2 3 4 5 6 
#
# 1 0.011771 -0.004624 -0.002612 0.000000 0.000000 0.000000
# 2 -0.004624 0.037674 -0.010181 0.000000 0.000000 0.000000
# 3 -0.002612 -0.010181 0.009716 0.000000 0.000000 0.000000
# 4 0.000000 0.000000 0.000000 18.530485 0.000000 0.000000
# 5 0.000000 0.000000 0.000000 0.000000 0.025820 0.000000
# 6 0.000000 0.000000 0.000000 0.000000 0.000000 0.029562
#
#
# Mechanical properties :
#
#
# Convention : Reuss Voigt Hill
#
# Bulk Modulus (GPa) = 41.10475 69.61226 55.35851
# Shear Modulus (GPa) = 0.26755 26.94463 13.60609
#
# Velocity S-wave (km/s) = 0.36147 3.62747 2.57771
# Velocity P-wave (km/s) = 4.49977 7.17916 5.99117
#
# Compressibility (1/GPa) = 0.02432809
#
# Stress axis : x y z
#
# Youngs Moduli (GPa) = 84.95111 26.54363 102.92281
#
# Poissons Ratio (x) = 0.12272 0.26883
# Poissons Ratio (y) = 0.39277 1.04788
# Poissons Ratio (z) = 0.22188 0.27025
#
# Static dielectric constant tensor:
#      x y z
#    x 1.793570 0.000000 0.000000 
#    y 0.000000 1.702650 0.000000 
#    z 0.000000 0.000000 1.787740 
# 
# From -- ./inp_files/42033.got.cif
#   From: 2010.05.17/outbox.cif.g08.bks.cpg/sg22_22_cif.got.tgz:42033.got - 2010.06.03 23:40:54.
