data_PCOD9327836
_publ_section_title
;
Structure prediction by ZEFSAII (Michael W. Deem and Ramdas Pophale) SiO2 
 PCOD9327836
Probable space group: F 2 2 2
;
_chemical_formula_sum "Si O2"
_cell_formula_units_Z 52
_cell_length_a 16.592722
_cell_length_b 7.237452
_cell_length_c 19.206082
_cell_angle_alpha 90.000000
_cell_angle_beta 90.000000
_cell_angle_gamma 90.000000
_cell_volume 2306.439739
_symmetry_space_group_name_H-M "F 2 2 2"
_symmetry_group_IT_number 22
_symmetry_cell_setting 'orthorhombic'
loop_
_space_group_symop_operation_xyz
x,y,z
-x,-y,z
x,-y,-z
-x,y,-z
x,1/2+y,1/2+z
-x,1/2-y,1/2+z
x,1/2-y,1/2-z
-x,1/2+y,1/2-z
1/2+x,y,1/2+z
1/2-x,-y,1/2+z
1/2+x,-y,1/2-z
1/2-x,y,1/2-z
1/2+x,1/2+y,z
1/2-x,1/2-y,z
1/2+x,1/2-y,-z
1/2-x,1/2+y,-z
loop_
_atom_site_type_symbol
_atom_site_label
_atom_site_fract_x
_atom_site_fract_y
_atom_site_fract_z
Si Si1 0.750000 0.750000 0.750000
Si Si2 0.655047 0.611308 0.093172
Si Si3 0.582650 0.741826 0.957293
Si Si4 0.830651 0.011898 0.640606
O O1 0.808463 0.884048 0.705782
O O2 0.592004 0.443934 0.088802
O O3 0.742954 0.527204 0.104088
O O4 0.643246 0.774444 0.149394
O O5 0.647722 0.711505 0.018572
O O6 0.605467 0.911251 0.908856
O O7 0.500000 0.756617 0.000000
#
# Coordination Sequence:
#
# PCOD9327836 Si02
#       4
#     4  16  16  16
#     4  12  24  46  64 100 146 192 262 284 324 436
#     4  10  22  37  66 103 137 175 231 298 366 418
#     4  11  23  40  67 107 145 170 221 302 376 429
#     4  11  24  39  67  99 139 187 236 290 346 417
#
# _framework density 22.545572
#
# number of rings (size 3 to 8) (size 9 to 14) (size 15 to 20)
#    0.000    1.231    3.077    2.769   17.231    6.154 
#    0.000    0.000    0.000    7.385    0.000    0.000 
#    0.000    0.000    0.000    0.000    0.000    0.000 
#
# Total GULP energy -72611.080215 kJ/mol
# GULP energy per Si atom -5585.467709 kJ/mol
# Density = 2.249426 g / cm^3
# Si number density = 22.545572 Si / 1000 Ang^3
#
#
#
# Elastic Constant Matrix: (Units=GPa)
#
#
# Indices 1 2 3 4 5 6 
#
# 1 119.9239 68.3497 44.5005 0.0000 0.0000 0.0000
# 2 68.3497 179.8985 52.5484 0.0000 0.0000 0.0000
# 3 44.5005 52.5484 65.6007 0.0000 0.0000 0.0000
# 4 0.0000 0.0000 0.0000 26.3827 0.0000 0.0000
# 5 0.0000 0.0000 0.0000 0.0000 22.3568 0.0000
# 6 0.0000 0.0000 0.0000 0.0000 0.0000 25.0111
#
#
#
# Elastic Compliance Matrix: (Units=1/GPa)
#
#
# Indices 1 2 3 4 5 6 
#
# 1 0.012199 -0.002895 -0.005956 0.000000 0.000000 0.000000
# 2 -0.002895 0.007944 -0.004399 0.000000 0.000000 0.000000
# 3 -0.005956 -0.004399 0.022808 0.000000 0.000000 0.000000
# 4 0.000000 0.000000 0.000000 0.037904 0.000000 0.000000
# 5 0.000000 0.000000 0.000000 0.000000 0.044729 0.000000
# 6 0.000000 0.000000 0.000000 0.000000 0.000000 0.039982
#
#
# Mechanical properties :
#
#
# Convention : Reuss Voigt Hill
#
# Bulk Modulus (GPa) = 60.79132 77.35781 69.07456
# Shear Modulus (GPa) = 25.31011 28.08507 26.69759
#
# Velocity S-wave (km/s) = 3.35419 3.53328 3.44490
# Velocity P-wave (km/s) = 6.48252 7.14364 6.82110
#
# Compressibility (1/GPa) = 0.01644972
#
# Stress axis : x y z
#
# Youngs Moduli (GPa) = 81.97585 125.88706 43.84405
#
# Poissons Ratio (x) = 0.36444 0.26114
# Poissons Ratio (y) = 0.23732 0.19288
# Poissons Ratio (z) = 0.48826 0.55382
#
# Static dielectric constant tensor:
#      x y z
#    x 1.831140 0.000000 0.000000 
#    y 0.000000 1.961570 0.000000 
#    z 0.000000 0.000000 1.851880 
# 
# From -- ./inp_files/37589.got.cif
#   From: 2010.05.17/outbox.cif.g08.bks.cpg/sg22_19_cif.got.tgz:37589.got - 2010.06.03 23:40:54.
