data_PCOD9327407
_publ_section_title
;
Structure prediction by ZEFSAII (Michael W. Deem and Ramdas Pophale) SiO2 
 PCOD9327407
Probable space group: F 2 2 2
;
_chemical_formula_sum "Si O2"
_cell_formula_units_Z 64
_cell_length_a 5.086577
_cell_length_b 24.824181
_cell_length_c 21.347223
_cell_angle_alpha 90.000000
_cell_angle_beta 90.000000
_cell_angle_gamma 90.000000
_cell_volume 2695.516156
_symmetry_space_group_name_H-M "F 2 2 2"
_symmetry_group_IT_number 22
_symmetry_cell_setting 'orthorhombic'
loop_
_space_group_symop_operation_xyz
x,y,z
-x,-y,z
x,-y,-z
-x,y,-z
x,1/2+y,1/2+z
-x,1/2-y,1/2+z
x,1/2-y,1/2-z
-x,1/2+y,1/2-z
1/2+x,y,1/2+z
1/2-x,-y,1/2+z
1/2+x,-y,1/2-z
1/2-x,y,1/2-z
1/2+x,1/2+y,z
1/2-x,1/2-y,z
1/2+x,1/2-y,-z
1/2-x,1/2+y,-z
loop_
_atom_site_type_symbol
_atom_site_label
_atom_site_fract_x
_atom_site_fract_y
_atom_site_fract_z
Si Si1 0.260054 0.580434 0.040643
Si Si2 0.381721 0.692907 0.428221
Si Si3 0.761157 0.965106 0.671246
Si Si4 0.481170 0.153225 0.792076
O O1 0.310431 0.641435 0.065260
O O2 0.227512 0.541081 0.097332
O O3 0.500000 0.563349 0.000000
O O4 0.000000 0.582564 0.000000
O O5 0.500000 0.697159 0.500000
O O6 0.250000 0.750000 0.416839
O O7 0.533922 0.678468 0.362192
O O8 0.843518 0.904791 0.692921
O O9 0.500000 0.000000 0.683012
O O10 0.000000 0.000000 0.693948
O O11 0.250000 0.181201 0.750000
O O12 0.750000 0.149255 0.750000
#
# Coordination Sequence:
#
# PCOD9327407 Si02
#       4
#    16  16  16  16
#     4  10  21  37  60  95 139 182 227 285 354 424
#     4  10  23  44  74 106 140 184 238 295 357 427
#     4  11  23  39  64  97 134 182 238 292 348 417
#     4  11  26  48  72 103 145 190 239 296 361 432
#
# _framework density 23.743136
#
# number of rings (size 3 to 8) (size 9 to 14) (size 15 to 20)
#    0.000    1.500    0.000    3.750    0.000   17.500 
#    0.000    1.250    0.000    0.000    0.000    0.000 
#    0.000    0.000    0.000    0.000    0.000    0.000 
#
# Total GULP energy -89113.563126 kJ/mol
# GULP energy per Si atom -5569.597695 kJ/mol
# Density = 2.368910 g / cm^3
# Si number density = 23.743136 Si / 1000 Ang^3
#
#
#
# Elastic Constant Matrix: (Units=GPa)
#
#
# Indices 1 2 3 4 5 6 
#
# 1 150.2211 50.6143 69.0618 0.0000 0.0000 0.0000
# 2 50.6143 131.2179 67.8687 0.0000 0.0000 0.0000
# 3 69.0618 67.8687 220.6703 0.0000 0.0000 0.0000
# 4 0.0000 0.0000 0.0000 -9.0449 0.0000 0.0000
# 5 0.0000 0.0000 0.0000 0.0000 45.6005 0.0000
# 6 0.0000 0.0000 0.0000 0.0000 0.0000 18.2267
#
#
#
# Elastic Compliance Matrix: (Units=1/GPa)
#
#
# Indices 1 2 3 4 5 6 
#
# 1 0.008279 -0.002204 -0.001913 0.000000 0.000000 0.000000
# 2 -0.002204 0.009649 -0.002278 0.000000 0.000000 0.000000
# 3 -0.001913 -0.002278 0.005831 0.000000 0.000000 0.000000
# 4 0.000000 0.000000 0.000000 -0.110559 0.000000 0.000000
# 5 0.000000 0.000000 0.000000 0.000000 0.021930 0.000000
# 6 0.000000 0.000000 0.000000 0.000000 0.000000 0.054865
#
#
# Mechanical properties :
#
#
# Convention : Reuss Voigt Hill
#
# Bulk Modulus (GPa) = 91.16482 97.46654 94.31568
# Shear Modulus (GPa) = 776.35126 31.92743 404.13934
#
# Velocity S-wave (km/s) = 18.10218 3.67100 13.06073
# Velocity P-wave (km/s) = 21.80363 7.68816 16.34788
#
# Compressibility (1/GPa) = 0.01096914
#
# Stress axis : x y z
#
# Youngs Moduli (GPa) = 120.78791 103.63542 171.49689
#
# Poissons Ratio (x) = 0.22840 0.32811
# Poissons Ratio (y) = 0.26620 0.39066
# Poissons Ratio (z) = 0.23109 0.23608
#
# Static dielectric constant tensor:
#      x y z
#    x 1.860770 0.000000 0.000000 
#    y 0.000000 1.867620 0.000000 
#    z 0.000000 0.000000 1.954850 
# 
# From -- ./inp_files/4385.got.cif
#   From: 2010.05.17/outbox.cif.g08.bks.cpg/sg22_3_cif.got.tgz:4385.got - 2010.06.03 23:40:54.
