data_PCOD9327339
_publ_section_title
;
Structure prediction by ZEFSAII (Michael W. Deem and Ramdas Pophale) SiO2 
 PCOD9327339
Probable space group: F 2 2 2
;
_chemical_formula_sum "Si O2"
_cell_formula_units_Z 44
_cell_length_a 22.188312
_cell_length_b 5.158038
_cell_length_c 15.389283
_cell_angle_alpha 90.000000
_cell_angle_beta 90.000000
_cell_angle_gamma 90.000000
_cell_volume 1761.275068
_symmetry_space_group_name_H-M "F 2 2 2"
_symmetry_group_IT_number 22
_symmetry_cell_setting 'orthorhombic'
loop_
_space_group_symop_operation_xyz
x,y,z
-x,-y,z
x,-y,-z
-x,y,-z
x,1/2+y,1/2+z
-x,1/2-y,1/2+z
x,1/2-y,1/2-z
-x,1/2+y,1/2-z
1/2+x,y,1/2+z
1/2-x,-y,1/2+z
1/2+x,-y,1/2-z
1/2-x,y,1/2-z
1/2+x,1/2+y,z
1/2-x,1/2-y,z
1/2+x,1/2-y,-z
1/2-x,1/2+y,-z
loop_
_atom_site_type_symbol
_atom_site_label
_atom_site_fract_x
_atom_site_fract_y
_atom_site_fract_z
Si Si1 0.649349 0.908705 0.165736
Si Si2 0.750000 0.750000 0.750000
Si Si3 0.462830 0.742094 0.355459
Si Si4 0.750000 0.750000 0.057092
O O1 0.622850 0.750000 0.250000
O O2 0.684872 0.706733 0.105142
O O3 0.707002 0.067304 0.196537
O O4 0.604451 0.127393 0.128391
O O5 0.500000 0.500000 0.389244
O O6 0.464614 0.750000 0.250000
O O7 0.500000 0.000000 0.384098
O O8 0.761578 0.500000 0.000000
#
# Coordination Sequence:
#
# PCOD9327339 Si02
#       4
#    16   4  16   8
#     4  12  23  41  70 103 145 192 237 295 362 439
#     4  12  20  36  68 104 140 182 242 280 362 430
#     4  10  21  35  59  99 137 172 224 293 350 401
#     4  12  28  44  65 107 154 188 238 294 368 434
#
# _framework density 24.981898999999999
#
# number of rings (size 3 to 8) (size 9 to 14) (size 15 to 20)
#    0.000    0.727    5.455    4.364    0.000    0.000 
#    0.000    0.000    0.000    1.091    0.000   30.545 
#    0.000    0.000    0.000    0.000    0.000    0.000 
#
# Total GULP energy -61300.721003 kJ/mol
# GULP energy per Si atom -5572.792818 kJ/mol
# Density = 2.492504 g / cm^3
# Si number density = 24.981899 Si / 1000 Ang^3
#
#
#
# Elastic Constant Matrix: (Units=GPa)
#
#
# Indices 1 2 3 4 5 6 
#
# 1 197.7150 64.6482 7.9758 0.0001 -0.0001 -0.0002
# 2 64.6482 160.4008 3.4722 0.0023 -0.0003 -0.0005
# 3 7.9758 3.4722 37.0515 0.0003 -0.0004 -0.0001
# 4 0.0001 0.0023 0.0003 8.8722 -0.0005 -0.0005
# 5 -0.0001 -0.0003 -0.0004 -0.0005 -5.4867 -0.0003
# 6 -0.0002 -0.0005 -0.0001 -0.0005 -0.0003 67.7059
#
#
#
# Elastic Compliance Matrix: (Units=1/GPa)
#
#
# Indices 1 2 3 4 5 6 
#
# 1 0.005865 -0.002341 -0.001043 0.000001 0.000000 0.000000
# 2 -0.002341 0.007182 -0.000169 -0.000002 0.000000 0.000000
# 3 -0.001043 -0.000169 0.027230 -0.000001 -0.000002 0.000000
# 4 0.000001 -0.000002 -0.000001 0.112711 -0.000011 0.000001
# 5 0.000000 0.000000 -0.000002 -0.000011 -0.182260 -0.000001
# 6 0.000000 0.000000 0.000000 0.000001 -0.000001 0.014770
#
#
# Mechanical properties :
#
#
# Convention : Reuss Voigt Hill
#
# Bulk Modulus (GPa) = 30.14790 60.81774 45.48282
# Shear Modulus (GPa) = 1365.55338 35.48970 700.52154
#
# Velocity S-wave (km/s) = 23.40521 3.77320 16.76366
# Velocity P-wave (km/s) = 27.24884 6.58637 19.82271
#
# Compressibility (1/GPa) = 0.03316981
#
# Stress axis : x y z
#
# Youngs Moduli (GPa) = 170.48946 139.24199 36.72437
#
# Poissons Ratio (x) = 0.32603 0.03831
# Poissons Ratio (y) = 0.39919 0.00621
# Poissons Ratio (z) = 0.17785 0.02353
#
# Static dielectric constant tensor:
#      x y z
#    x 2.147300 0.000000 0.000000 
#    y 0.000000 2.188490 -0.000010 
#    z 0.000000 -0.000010 2.990770 
# 
# From -- ./inp_files/4240.got.cif
#   From: 2010.05.17/outbox.cif.g08.bks.cpg/sg22_3_cif.got.tgz:4240.got - 2010.06.03 23:40:54.
