data_PCOD9327700
_publ_section_title
;
Structure prediction by ZEFSAII (Michael W. Deem and Ramdas Pophale) SiO2 
 PCOD9327700
Probable space group: F 2 2 2
;
_chemical_formula_sum "Si O2"
_cell_formula_units_Z 52
_cell_length_a 7.650665
_cell_length_b 20.264470
_cell_length_c 13.762618
_cell_angle_alpha 90.000000
_cell_angle_beta 90.000000
_cell_angle_gamma 90.000000
_cell_volume 2133.710484
_symmetry_space_group_name_H-M "F 2 2 2"
_symmetry_group_IT_number 22
_symmetry_cell_setting 'orthorhombic'
loop_
_space_group_symop_operation_xyz
x,y,z
-x,-y,z
x,-y,-z
-x,y,-z
x,1/2+y,1/2+z
-x,1/2-y,1/2+z
x,1/2-y,1/2-z
-x,1/2+y,1/2-z
1/2+x,y,1/2+z
1/2-x,-y,1/2+z
1/2+x,-y,1/2-z
1/2-x,y,1/2-z
1/2+x,1/2+y,z
1/2-x,1/2-y,z
1/2+x,1/2-y,-z
1/2-x,1/2+y,-z
loop_
_atom_site_type_symbol
_atom_site_label
_atom_site_fract_x
_atom_site_fract_y
_atom_site_fract_z
Si Si1 0.500857 0.337349 0.115623
Si Si2 0.791748 0.063929 0.612695
Si Si3 0.750000 0.250000 0.750000
Si Si4 0.164837 0.913236 0.380654
O O1 0.395320 0.405590 0.129619
O O2 0.383689 0.288170 0.178236
O O3 0.698400 0.356300 0.144027
O O4 0.500000 0.319372 0.000000
O O5 0.817523 0.075347 0.497102
O O6 0.965871 0.100923 0.650695
O O7 0.798089 0.988961 0.648164
#
# Coordination Sequence:
#
# PCOD9327700 Si02
#       4
#    16  16   4  16
#     4  10  21  42  66  93 136 189 228 293 349 396
#     4   8  14  29  62 103 135 165 223 278 352 435
#     4  12  28  48  66 102 144 186 264 290 314 434
#     4   8  14  29  62 104 133 171 216 280 360 424
#
# _framework density 24.370691999999998
#
# number of rings (size 3 to 8) (size 9 to 14) (size 15 to 20)
#    0.000    3.077    0.000    2.769    0.000    3.692 
#   11.077    3.077   13.538    0.000    0.000    0.000 
#    0.000    0.000    0.000    0.000    0.000    0.000 
#
# Total GULP energy -72502.625417 kJ/mol
# GULP energy per Si atom -5577.125032 kJ/mol
# Density = 2.431522 g / cm^3
# Si number density = 24.370692 Si / 1000 Ang^3
#
#
#
# Elastic Constant Matrix: (Units=GPa)
#
#
# Indices 1 2 3 4 5 6 
#
# 1 103.2843 22.2483 61.9934 0.0000 0.0000 0.0000
# 2 22.2483 38.5071 26.7199 0.0000 0.0000 0.0000
# 3 61.9934 26.7199 157.2834 0.0000 0.0000 0.0000
# 4 0.0000 0.0000 0.0000 25.8562 0.0000 0.0000
# 5 0.0000 0.0000 0.0000 0.0000 3.3674 0.0000
# 6 0.0000 0.0000 0.0000 0.0000 0.0000 39.2119
#
#
#
# Elastic Compliance Matrix: (Units=1/GPa)
#
#
# Indices 1 2 3 4 5 6 
#
# 1 0.013368 -0.004611 -0.004486 0.000000 0.000000 0.000000
# 2 -0.004611 0.031030 -0.003454 0.000000 0.000000 0.000000
# 3 -0.004486 -0.003454 0.008713 0.000000 0.000000 0.000000
# 4 0.000000 0.000000 0.000000 0.038675 0.000000 0.000000
# 5 0.000000 0.000000 0.000000 0.000000 0.296962 0.000000
# 6 0.000000 0.000000 0.000000 0.000000 0.000000 0.025502
#
#
# Mechanical properties :
#
#
# Convention : Reuss Voigt Hill
#
# Bulk Modulus (GPa) = 35.70245 57.88868 46.79556
# Shear Modulus (GPa) = 11.14360 26.22798 18.68579
#
# Velocity S-wave (km/s) = 2.14067 3.28412 2.77200
# Velocity P-wave (km/s) = 4.55977 6.17945 5.43034
#
# Compressibility (1/GPa) = 0.02800928
#
# Stress axis : x y z
#
# Youngs Moduli (GPa) = 74.80805 32.22675 114.77477
#
# Poissons Ratio (x) = 0.14859 0.51482
# Poissons Ratio (y) = 0.34493 0.39645
# Poissons Ratio (z) = 0.33555 0.11132
#
# Static dielectric constant tensor:
#      x y z
#    x 1.902500 0.000000 0.000000 
#    y 0.000000 1.915530 0.000000 
#    z 0.000000 0.000000 2.092680 
# 
# From -- ./inp_files/9459.got.cif
#   From: 2010.05.17/outbox.cif.g08.bks.cpg/sg22_5_cif.got.tgz:9459.got - 2010.06.03 23:40:54.
