data_PCOD9327250
_publ_section_title
;
Structure prediction by ZEFSAII (Michael W. Deem and Ramdas Pophale) SiO2 
 PCOD9327250
Probable space group: F 2 2 2
;
_chemical_formula_sum "Si O2"
_cell_formula_units_Z 68
_cell_length_a 13.463422
_cell_length_b 20.371924
_cell_length_c 13.033389
_cell_angle_alpha 90.000000
_cell_angle_beta 90.000000
_cell_angle_gamma 90.000000
_cell_volume 3574.743322
_symmetry_space_group_name_H-M "F 2 2 2"
_symmetry_group_IT_number 22
_symmetry_cell_setting 'orthorhombic'
loop_
_space_group_symop_operation_xyz
x,y,z
-x,-y,z
x,-y,-z
-x,y,-z
x,1/2+y,1/2+z
-x,1/2-y,1/2+z
x,1/2-y,1/2-z
-x,1/2+y,1/2-z
1/2+x,y,1/2+z
1/2-x,-y,1/2+z
1/2+x,-y,1/2-z
1/2-x,y,1/2-z
1/2+x,1/2+y,z
1/2-x,1/2-y,z
1/2+x,1/2-y,-z
1/2-x,1/2+y,-z
loop_
_atom_site_type_symbol
_atom_site_label
_atom_site_fract_x
_atom_site_fract_y
_atom_site_fract_z
Si Si1 0.750000 0.023416 0.250000
Si Si2 0.000000 0.500000 0.000000
Si Si3 0.159995 0.400389 0.936905
Si Si4 0.631032 0.743064 0.630092
Si Si5 0.339098 0.559370 0.921337
Si Si6 0.500000 0.656472 0.000000
O O1 0.676175 0.973705 0.310246
O O2 0.780792 0.073846 0.338651
O O3 0.928295 0.547788 0.939986
O O4 0.115698 0.328761 0.918461
O O5 0.235115 0.409345 0.034053
O O6 0.604303 0.750000 0.750000
O O7 0.750000 0.750000 0.622492
O O8 0.571720 0.797988 0.567963
O O9 0.361088 0.500000 0.000000
O O10 0.427689 0.611120 0.931317
#
# Coordination Sequence:
#
# PCOD9327250 Si02
#       6
#     8   4  16  16  16   8
#     4  10  20  42  69  93 130 162 208 274 314 366
#     4  12  22  40  68  92 130 168 202 260 332 360
#     4  11  22  42  64  96 129 164 211 264 313 375
#     4  11  24  43  67  91 128 174 216 256 306 387
#     4  10  22  42  65  97 130 162 207 270 319 368
#     4  12  24  44  66  94 130 172 208 264 320 370
#
# _framework density 19.022345000000001
#
# number of rings (size 3 to 8) (size 9 to 14) (size 15 to 20)
#    0.000    1.176    5.882    2.471    3.294    1.882 
#    4.235    0.000    0.000    0.000    0.000    0.000 
#    0.000    0.000    0.000    0.000    0.000    0.000 
#
# Total GULP energy -94793.371493 kJ/mol
# GULP energy per Si atom -5576.080676 kJ/mol
# Density = 1.897905 g / cm^3
# Si number density = 19.022345 Si / 1000 Ang^3
#
#
#
# Elastic Constant Matrix: (Units=GPa)
#
#
# Indices 1 2 3 4 5 6 
#
# 1 47.4141 12.3140 -8.1567 0.0000 0.0000 0.0000
# 2 12.3140 116.7622 -1.0231 0.0000 0.0000 0.0000
# 3 -8.1567 -1.0231 31.7495 0.0000 0.0000 0.0000
# 4 0.0000 0.0000 0.0000 22.9494 0.0000 0.0000
# 5 0.0000 0.0000 0.0000 0.0000 9.0246 0.0000
# 6 0.0000 0.0000 0.0000 0.0000 0.0000 42.5356
#
#
#
# Elastic Compliance Matrix: (Units=1/GPa)
#
#
# Indices 1 2 3 4 5 6 
#
# 1 0.022689 -0.002342 0.005753 0.000000 0.000000 0.000000
# 2 -0.002342 0.008809 -0.000318 0.000000 0.000000 0.000000
# 3 0.005753 -0.000318 0.032964 0.000000 0.000000 0.000000
# 4 0.000000 0.000000 0.000000 0.043574 0.000000 0.000000
# 5 0.000000 0.000000 0.000000 0.000000 0.110808 0.000000
# 6 0.000000 0.000000 0.000000 0.000000 0.000000 0.023510
#
#
# Mechanical properties :
#
#
# Convention : Reuss Voigt Hill
#
# Bulk Modulus (GPa) = 14.15464 22.46603 18.31034
# Shear Modulus (GPa) = 19.25168 27.75467 23.50318
#
# Velocity S-wave (km/s) = 3.18473 3.82390 3.51886
# Velocity P-wave (km/s) = 4.58046 5.59753 5.11434
#
# Compressibility (1/GPa) = 0.07064820
#
# Stress axis : x y z
#
# Youngs Moduli (GPa) = 44.07440 113.52457 30.33577
#
# Poissons Ratio (x) = 0.26592 -0.17454
# Poissons Ratio (y) = 0.10324 0.00964
# Poissons Ratio (z) = -0.25358 0.03609
#
# Static dielectric constant tensor:
#      x y z
#    x 1.694670 0.000000 0.000000 
#    y 0.000000 1.704470 0.000000 
#    z 0.000000 0.000000 1.656930 
# 
# From -- ./inp_files/19646.got.cif
#   From: 2010.05.17/outbox.cif.g08.bks.cpg/sg22_10_cif.got.tgz:19646.got - 2010.06.03 23:40:54.
