data_PCOD9327283
_publ_section_title
;
Structure prediction by ZEFSAII (Michael W. Deem and Ramdas Pophale) SiO2 
 PCOD9327283
Probable space group: F 2 2 2
;
_chemical_formula_sum "Si O2"
_cell_formula_units_Z 92
_cell_length_a 8.157256
_cell_length_b 28.344018
_cell_length_c 18.425655
_cell_angle_alpha 90.000000
_cell_angle_beta 90.000000
_cell_angle_gamma 90.000000
_cell_volume 4260.184838
_symmetry_space_group_name_H-M "F 2 2 2"
_symmetry_group_IT_number 22
_symmetry_cell_setting 'orthorhombic'
loop_
_space_group_symop_operation_xyz
x,y,z
-x,-y,z
x,-y,-z
-x,y,-z
x,1/2+y,1/2+z
-x,1/2-y,1/2+z
x,1/2-y,1/2-z
-x,1/2+y,1/2-z
1/2+x,y,1/2+z
1/2-x,-y,1/2+z
1/2+x,-y,1/2-z
1/2-x,y,1/2-z
1/2+x,1/2+y,z
1/2-x,1/2-y,z
1/2+x,1/2-y,-z
1/2-x,1/2+y,-z
loop_
_atom_site_type_symbol
_atom_site_label
_atom_site_fract_x
_atom_site_fract_y
_atom_site_fract_z
Si Si1 0.000000 0.158876 0.500000
Si Si2 0.175834 0.107978 0.676573
Si Si3 0.000000 0.500000 0.000000
Si Si4 0.593203 0.220995 0.577221
Si Si5 0.010173 0.386101 0.412857
Si Si6 0.349993 0.420645 0.403901
Si Si7 0.112733 0.789506 0.358285
O O1 0.877655 0.124826 0.543427
O O2 0.903591 0.188283 0.439603
O O3 0.250000 0.087660 0.750000
O O4 0.328057 0.105980 0.619769
O O5 0.132211 0.163663 0.688036
O O6 0.005050 0.084828 0.650614
O O7 0.112531 0.466763 0.049383
O O8 0.500000 0.218930 0.500000
O O9 0.750000 0.250000 0.553583
O O10 0.568292 0.167652 0.603479
O O11 0.542053 0.255586 0.643572
O O12 0.160224 0.417542 0.381026
O O13 0.000000 0.393214 0.500000
O O14 0.250000 0.750000 0.351357
#
# Coordination Sequence:
#
# PCOD9327283 Si02
#       7
#     8  16   4  16  16  16  16
#     4   9  18  29  52  84 124 152 194 269 334 377
#     4  11  25  43  62  89 137 189 227 265 327 405
#     4  10  20  44  78 108 132 150 194 300 362 402
#     4  11  21  28  48  82 124 164 217 280 332 373
#     4  11  22  38  64  97 125 166 219 275 340 401
#     4  10  22  40  66  97 132 160 208 272 350 413
#     4  11  19  31  51  83 119 170 224 274 307 362
#
# _framework density 21.595306999999998
#
# number of rings (size 3 to 8) (size 9 to 14) (size 15 to 20)
#    0.000    1.391    2.609    5.739    4.870    1.043 
#    0.000    3.913    3.826    0.000    0.000    0.000 
#    0.000    0.000    0.000    0.000    0.000    0.000 
#
# Total GULP energy -128065.182701 kJ/mol
# GULP energy per Si atom -5568.051422 kJ/mol
# Density = 2.154616 g / cm^3
# Si number density = 21.595307 Si / 1000 Ang^3
#
#
#
# Elastic Constant Matrix: (Units=GPa)
#
#
# Indices 1 2 3 4 5 6 
#
# 1 125.8337 19.9118 19.0565 0.0000 0.0000 0.0000
# 2 19.9118 66.9072 4.4671 0.0000 0.0000 0.0000
# 3 19.0565 4.4671 53.7272 0.0000 0.0000 0.0000
# 4 0.0000 0.0000 0.0000 5.4336 0.0000 0.0000
# 5 0.0000 0.0000 0.0000 0.0000 23.0592 0.0000
# 6 0.0000 0.0000 0.0000 0.0000 0.0000 44.4262
#
#
#
# Elastic Compliance Matrix: (Units=1/GPa)
#
#
# Indices 1 2 3 4 5 6 
#
# 1 0.008770 -0.002416 -0.002910 0.000000 0.000000 0.000000
# 2 -0.002416 0.015695 -0.000448 0.000000 0.000000 0.000000
# 3 -0.002910 -0.000448 0.019682 0.000000 0.000000 0.000000
# 4 0.000000 0.000000 0.000000 0.184040 0.000000 0.000000
# 5 0.000000 0.000000 0.000000 0.000000 0.043367 0.000000
# 6 0.000000 0.000000 0.000000 0.000000 0.000000 0.022509
#
#
# Mechanical properties :
#
#
# Convention : Reuss Voigt Hill
#
# Bulk Modulus (GPa) = 30.67525 37.03766 33.85646
# Shear Modulus (GPa) = 15.79898 28.11932 21.95915
#
# Velocity S-wave (km/s) = 2.70773 3.61238 3.19227
# Velocity P-wave (km/s) = 4.90012 5.88108 5.41287
#
# Compressibility (1/GPa) = 0.03259957
#
# Stress axis : x y z
#
# Youngs Moduli (GPa) = 114.02627 63.71493 50.80823
#
# Poissons Ratio (x) = 0.15391 0.14784
# Poissons Ratio (y) = 0.27545 0.02277
# Poissons Ratio (z) = 0.33179 0.02855
#
# Static dielectric constant tensor:
#      x y z
#    x 1.947020 0.000000 0.000000 
#    y 0.000000 1.803340 0.000000 
#    z 0.000000 0.000000 1.742830 
# 
# From -- ./inp_files/42081.got.cif
#   From: 2010.05.17/outbox.cif.g08.bks.cpg/sg22_22_cif.got.tgz:42081.got - 2010.06.03 23:40:54.
