data_PCOD9327477
_publ_section_title
;
Structure prediction by ZEFSAII (Michael W. Deem and Ramdas Pophale) SiO2 
 PCOD9327477
Probable space group: F 2 2 2
;
_chemical_formula_sum "Si O2"
_cell_formula_units_Z 80
_cell_length_a 12.086408
_cell_length_b 22.348108
_cell_length_c 14.420209
_cell_angle_alpha 90.000000
_cell_angle_beta 90.000000
_cell_angle_gamma 90.000000
_cell_volume 3895.018879
_symmetry_space_group_name_H-M "F 2 2 2"
_symmetry_group_IT_number 22
_symmetry_cell_setting 'orthorhombic'
loop_
_space_group_symop_operation_xyz
x,y,z
-x,-y,z
x,-y,-z
-x,y,-z
x,1/2+y,1/2+z
-x,1/2-y,1/2+z
x,1/2-y,1/2-z
-x,1/2+y,1/2-z
1/2+x,y,1/2+z
1/2-x,-y,1/2+z
1/2+x,-y,1/2-z
1/2-x,y,1/2-z
1/2+x,1/2+y,z
1/2-x,1/2-y,z
1/2+x,1/2-y,-z
1/2-x,1/2+y,-z
loop_
_atom_site_type_symbol
_atom_site_label
_atom_site_fract_x
_atom_site_fract_y
_atom_site_fract_z
Si Si1 0.834975 0.665347 0.665145
Si Si2 0.353443 0.140966 0.191783
Si Si3 0.526896 0.253119 0.604172
Si Si4 0.476580 0.069418 0.342107
Si Si5 0.685600 0.354727 0.956445
O O1 0.750000 0.672886 0.750000
O O2 0.784008 0.657158 0.562548
O O3 0.922492 0.718766 0.647497
O O4 0.911149 0.606414 0.674511
O O5 0.250000 0.165946 0.250000
O O6 0.438596 0.193197 0.170123
O O7 0.402716 0.087713 0.252634
O O8 0.295644 0.125049 0.095725
O O9 0.500000 0.274767 0.500000
O O10 0.626432 0.205294 0.585283
O O11 0.407999 0.096258 0.429742
O O12 0.500000 0.000000 0.351098
#
# Coordination Sequence:
#
# PCOD9327477 Si02
#       5
#    16  16  16  16  16
#     4  10  22  39  60  90 124 156 197 246 301 360
#     4  10  21  38  63  87 115 155 202 248 294 354
#     4   9  19  37  60  89 124 158 193 240 304 368
#     4  10  22  40  61  87 118 156 203 249 295 355
#     4   9  20  38  61  90 118 155 200 242 298 364
#
# _framework density 20.539052999999999
#
# number of rings (size 3 to 8) (size 9 to 14) (size 15 to 20)
#    0.000    2.400    0.000    2.400    0.000   16.800 
#    0.000   14.000    0.000    4.200    0.000    0.000 
#    0.000    0.000    0.000    0.000    0.000    0.000 
#
# Total GULP energy -111653.037788 kJ/mol
# GULP energy per Si atom -5582.651889 kJ/mol
# Density = 2.049230 g / cm^3
# Si number density = 20.539053 Si / 1000 Ang^3
#
#
#
# Elastic Constant Matrix: (Units=GPa)
#
#
# Indices 1 2 3 4 5 6 
#
# 1 44.4208 9.0602 27.6878 0.0000 0.0000 0.0000
# 2 9.0602 89.6563 12.3058 0.0000 0.0000 0.0000
# 3 27.6878 12.3058 122.2984 0.0000 0.0000 0.0000
# 4 0.0000 0.0000 0.0000 -0.1698 0.0000 0.0000
# 5 0.0000 0.0000 0.0000 0.0000 50.4868 0.0000
# 6 0.0000 0.0000 0.0000 0.0000 0.0000 8.4796
#
#
#
# Elastic Compliance Matrix: (Units=1/GPa)
#
#
# Indices 1 2 3 4 5 6 
#
# 1 0.026520 -0.001882 -0.005815 0.000000 0.000000 0.000000
# 2 -0.001882 0.011443 -0.000725 0.000000 0.000000 0.000000
# 3 -0.005815 -0.000725 0.009566 0.000000 0.000000 0.000000
# 4 0.000000 0.000000 0.000000 -5.890528 0.000000 0.000000
# 5 0.000000 0.000000 0.000000 0.000000 0.019807 0.000000
# 6 0.000000 0.000000 0.000000 0.000000 0.000000 0.117930
#
#
# Mechanical properties :
#
#
# Convention : Reuss Voigt Hill
#
# Bulk Modulus (GPa) = 32.58841 39.38703 35.98772
# Shear Modulus (GPa) = -0.88056 25.58078 12.35011
#
# Velocity S-wave (km/s) = -0.65548 3.53295 2.45480
# Velocity P-wave (km/s) = 3.91512 5.98837 5.05909
#
# Compressibility (1/GPa) = 0.03068576
#
# Stress axis : x y z
#
# Youngs Moduli (GPa) = 37.70718 87.38629 104.53553
#
# Poissons Ratio (x) = 0.16445 0.60784
# Poissons Ratio (y) = 0.07096 0.07583
# Poissons Ratio (z) = 0.21926 0.06339
#
# Static dielectric constant tensor:
#      x y z
#    x 1.780430 0.000000 0.000000 
#    y 0.000000 1.709530 0.000000 
#    z 0.000000 0.000000 1.829200 
# 
# From -- ./inp_files/19807.got.cif
#   From: 2010.05.17/outbox.cif.g08.bks.cpg/sg22_10_cif.got.tgz:19807.got - 2010.06.03 23:40:54.
