data_PCOD9327716
_publ_section_title
;
Structure prediction by ZEFSAII (Michael W. Deem and Ramdas Pophale) SiO2 
 PCOD9327716
Probable space group: F 2 2 2
;
_chemical_formula_sum "Si O2"
_cell_formula_units_Z 96
_cell_length_a 25.649617
_cell_length_b 17.721971
_cell_length_c 9.903879
_cell_angle_alpha 90.000000
_cell_angle_beta 90.000000
_cell_angle_gamma 90.000000
_cell_volume 4501.924755
_symmetry_space_group_name_H-M "F 2 2 2"
_symmetry_group_IT_number 22
_symmetry_cell_setting 'orthorhombic'
loop_
_space_group_symop_operation_xyz
x,y,z
-x,-y,z
x,-y,-z
-x,y,-z
x,1/2+y,1/2+z
-x,1/2-y,1/2+z
x,1/2-y,1/2-z
-x,1/2+y,1/2-z
1/2+x,y,1/2+z
1/2-x,-y,1/2+z
1/2+x,-y,1/2-z
1/2-x,y,1/2-z
1/2+x,1/2+y,z
1/2-x,1/2-y,z
1/2+x,1/2-y,-z
1/2-x,1/2+y,-z
loop_
_atom_site_type_symbol
_atom_site_label
_atom_site_fract_x
_atom_site_fract_y
_atom_site_fract_z
Si Si1 0.629472 0.071745 0.260267
Si Si2 0.885003 0.215612 0.394281
Si Si3 0.795857 0.695072 0.077109
Si Si4 0.859129 0.100097 0.798200
Si Si5 0.277415 0.420723 0.956290
Si Si6 0.560014 0.850181 0.506610
O O1 0.615873 0.126092 0.133902
O O2 0.688390 0.082104 0.320296
O O3 0.590580 0.099931 0.380311
O O4 0.625632 0.982089 0.239962
O O5 0.871184 0.250000 0.250000
O O6 0.840220 0.238899 0.497453
O O7 0.934507 0.262719 0.445521
O O8 0.750000 0.750000 0.120032
O O9 0.826458 0.649367 0.191970
O O10 0.766884 0.640534 0.971986
O O11 0.819712 0.087644 0.923185
O O12 0.910161 0.137573 0.864839
O O13 0.252032 0.500000 0.000000
O O14 0.500000 0.872072 0.500000
#
# Coordination Sequence:
#
# PCOD9327716 Si02
#       6
#    16  16  16  16  16  16
#     4   9  20  41  62  89 130 163 220 271 315 390
#     4  10  23  41  59  89 127 169 216 269 316 395
#     4  12  24  37  60  92 136 172 210 258 326 382
#     4  10  22  38  60  94 129 163 212 277 318 384
#     4   9  20  36  58  88 123 171 213 251 309 384
#     4  10  21  42  69  91 116 166 223 274 341 402
#
# _framework density 21.324211999999999
#
# number of rings (size 3 to 8) (size 9 to 14) (size 15 to 20)
#    0.000    2.000    0.000    5.000    2.333    8.333 
#    9.000    0.000    0.000    0.000    0.000    0.000 
#    0.000    0.000    0.000    0.000    0.000    0.000 
#
# Total GULP energy -133954.538099 kJ/mol
# GULP energy per Si atom -5581.439087 kJ/mol
# Density = 2.127568 g / cm^3
# Si number density = 21.324212 Si / 1000 Ang^3
#
#
#
# Elastic Constant Matrix: (Units=GPa)
#
#
# Indices 1 2 3 4 5 6 
#
# 1 99.2811 36.0332 23.6217 0.0000 0.0000 0.0000
# 2 36.0332 128.3721 34.8957 0.0000 0.0000 0.0000
# 3 23.6217 34.8957 59.6161 0.0000 0.0000 0.0000
# 4 0.0000 0.0000 0.0000 17.0064 0.0000 0.0000
# 5 0.0000 0.0000 0.0000 0.0000 19.4499 0.0000
# 6 0.0000 0.0000 0.0000 0.0000 0.0000 15.6587
#
#
#
# Elastic Compliance Matrix: (Units=1/GPa)
#
#
# Indices 1 2 3 4 5 6 
#
# 1 0.011716 -0.002410 -0.003231 0.000000 0.000000 0.000000
# 2 -0.002410 0.009760 -0.004758 0.000000 0.000000 0.000000
# 3 -0.003231 -0.004758 0.020839 0.000000 0.000000 0.000000
# 4 0.000000 0.000000 0.000000 0.058801 0.000000 0.000000
# 5 0.000000 0.000000 0.000000 0.000000 0.051414 0.000000
# 6 0.000000 0.000000 0.000000 0.000000 0.000000 0.063862
#
#
# Mechanical properties :
#
#
# Convention : Reuss Voigt Hill
#
# Bulk Modulus (GPa) = 46.47660 52.93006 49.70333
# Shear Modulus (GPa) = 20.46131 23.27091 21.86611
#
# Velocity S-wave (km/s) = 3.10100 3.30705 3.20568
# Velocity P-wave (km/s) = 5.88762 6.28153 6.08776
#
# Compressibility (1/GPa) = 0.02151620
#
# Stress axis : x y z
#
# Youngs Moduli (GPa) = 85.35316 102.46227 47.98631
#
# Poissons Ratio (x) = 0.24695 0.15507
# Poissons Ratio (y) = 0.20572 0.22831
# Poissons Ratio (z) = 0.27581 0.48749
#
# Static dielectric constant tensor:
#      x y z
#    x 1.704420 0.000000 0.000000 
#    y 0.000000 1.892710 0.000000 
#    z 0.000000 0.000000 1.789450 
# 
# From -- ./inp_files/23781.got.cif
#   From: 2010.05.17/outbox.cif.g08.bks.cpg/sg22_12_cif.got.tgz:23781.got - 2010.06.03 23:40:54.
