data_PCOD9327351
_publ_section_title
;
Structure prediction by ZEFSAII (Michael W. Deem and Ramdas Pophale) SiO2 
 PCOD9327351
Probable space group: F 2 2 2
;
_chemical_formula_sum "Si O2"
_cell_formula_units_Z 120
_cell_length_a 25.140305
_cell_length_b 11.271609
_cell_length_c 20.545845
_cell_angle_alpha 90.000000
_cell_angle_beta 90.000000
_cell_angle_gamma 90.000000
_cell_volume 5822.110781
_symmetry_space_group_name_H-M "F 2 2 2"
_symmetry_group_IT_number 22
_symmetry_cell_setting 'orthorhombic'
loop_
_space_group_symop_operation_xyz
x,y,z
-x,-y,z
x,-y,-z
-x,y,-z
x,1/2+y,1/2+z
-x,1/2-y,1/2+z
x,1/2-y,1/2-z
-x,1/2+y,1/2-z
1/2+x,y,1/2+z
1/2-x,-y,1/2+z
1/2+x,-y,1/2-z
1/2-x,y,1/2-z
1/2+x,1/2+y,z
1/2-x,1/2-y,z
1/2+x,1/2-y,-z
1/2-x,1/2+y,-z
loop_
_atom_site_type_symbol
_atom_site_label
_atom_site_fract_x
_atom_site_fract_y
_atom_site_fract_z
Si Si1 0.313006 0.250230 0.542602
Si Si2 0.112253 0.899260 0.950676
Si Si3 0.951908 0.224337 0.326984
Si Si4 0.859134 0.250000 0.750000
Si Si5 0.189999 0.499369 0.765893
Si Si6 0.132399 0.597008 0.351593
Si Si7 0.930985 0.692833 0.123202
Si Si8 0.630301 0.043671 0.107217
O O1 0.250000 0.250000 0.533449
O O2 0.340920 0.172422 0.486730
O O3 0.327639 0.182608 0.609716
O O4 0.342269 0.377634 0.550913
O O5 0.071500 0.800330 0.927598
O O6 0.132468 0.972251 0.888517
O O7 0.092026 0.000000 0.000000
O O8 0.955206 0.250000 0.250000
O O9 0.926152 0.345365 0.355455
O O10 0.910268 0.126135 0.351644
O O11 0.008775 0.182728 0.353018
O O12 0.823132 0.366399 0.744806
O O13 0.896150 0.271555 0.813176
O O14 0.250000 0.467725 0.750000
O O15 0.151236 0.418790 0.721974
O O16 0.176727 0.488326 0.841699
O O17 0.903432 0.575301 0.093449
#
# Coordination Sequence:
#
# PCOD9327351 Si02
#       8
#    16  16  16   8  16  16  16  16
#     4  10  22  44  67  92 127 184 226 266 327 388
#     4  10  23  46  65  89 133 170 223 281 306 393
#     4  11  21  39  67  97 134 179 211 265 347 405
#     4  10  21  36  54  90 136 162 213 260 334 408
#     4  11  20  35  59  91 134 172 201 273 345 390
#     4  10  21  40  62  95 132 159 231 271 311 403
#     4  11  22  41  64  96 133 168 216 279 333 395
#     4  10  23  40  62 102 134 163 229 277 328 409
#
# _framework density 20.611082
#
# number of rings (size 3 to 8) (size 9 to 14) (size 15 to 20)
#    0.000    1.600    3.333    1.400    0.000    1.067 
#   14.400   11.333    0.000    4.800    0.000    0.000 
#    0.000    0.000    0.000    0.000    0.000    0.000 
#
# Total GULP energy -167457.583845 kJ/mol
# GULP energy per Si atom -5581.919462 kJ/mol
# Density = 2.056417 g / cm^3
# Si number density = 20.611082 Si / 1000 Ang^3
#
#
#
# Elastic Constant Matrix: (Units=GPa)
#
#
# Indices 1 2 3 4 5 6 
#
# 1 90.7020 39.7092 19.9807 0.0000 0.0000 0.0000
# 2 39.7092 117.7532 29.6669 0.0000 0.0000 0.0000
# 3 19.9807 29.6669 50.9903 0.0000 0.0000 0.0000
# 4 0.0000 0.0000 0.0000 28.1080 0.0000 0.0000
# 5 0.0000 0.0000 0.0000 0.0000 19.3328 0.0000
# 6 0.0000 0.0000 0.0000 0.0000 0.0000 18.1072
#
#
#
# Elastic Compliance Matrix: (Units=1/GPa)
#
#
# Indices 1 2 3 4 5 6 
#
# 1 0.013329 -0.003725 -0.003056 0.000000 0.000000 0.000000
# 2 -0.003725 0.010992 -0.004936 0.000000 0.000000 0.000000
# 3 -0.003056 -0.004936 0.023681 0.000000 0.000000 0.000000
# 4 0.000000 0.000000 0.000000 0.035577 0.000000 0.000000
# 5 0.000000 0.000000 0.000000 0.000000 0.051726 0.000000
# 6 0.000000 0.000000 0.000000 0.000000 0.000000 0.055227
#
#
# Mechanical properties :
#
#
# Convention : Reuss Voigt Hill
#
# Bulk Modulus (GPa) = 40.70198 48.68437 44.69318
# Shear Modulus (GPa) = 22.50695 24.44884 23.47789
#
# Velocity S-wave (km/s) = 3.30810 3.44786 3.37870
# Velocity P-wave (km/s) = 5.86361 6.28666 6.07881
#
# Compressibility (1/GPa) = 0.02456883
#
# Stress axis : x y z
#
# Youngs Moduli (GPa) = 75.02397 90.97531 42.22857
#
# Poissons Ratio (x) = 0.33888 0.12904
# Poissons Ratio (y) = 0.27946 0.20843
# Poissons Ratio (z) = 0.22926 0.44902
#
# Static dielectric constant tensor:
#      x y z
#    x 1.684490 0.000000 0.000000 
#    y 0.000000 1.767550 0.000000 
#    z 0.000000 0.000000 1.742940 
# 
# From -- ./inp_files/45422.got.cif
#   From: 2010.05.17/outbox.cif.g08.bks.cpg/sg22_23_cif.got.tgz:45422.got - 2010.06.03 23:40:54.
