data_PCOD9327445
_publ_section_title
;
Structure prediction by ZEFSAII (Michael W. Deem and Ramdas Pophale) SiO2 
 PCOD9327445
Probable space group: F 2 2 2
;
_chemical_formula_sum "Si O2"
_cell_formula_units_Z 88
_cell_length_a 30.681939
_cell_length_b 5.516290
_cell_length_c 24.514803
_cell_angle_alpha 90.000000
_cell_angle_beta 90.000000
_cell_angle_gamma 90.000000
_cell_volume 4149.142010
_symmetry_space_group_name_H-M "F 2 2 2"
_symmetry_group_IT_number 22
_symmetry_cell_setting 'orthorhombic'
loop_
_space_group_symop_operation_xyz
x,y,z
-x,-y,z
x,-y,-z
-x,y,-z
x,1/2+y,1/2+z
-x,1/2-y,1/2+z
x,1/2-y,1/2-z
-x,1/2+y,1/2-z
1/2+x,y,1/2+z
1/2-x,-y,1/2+z
1/2+x,-y,1/2-z
1/2-x,y,1/2-z
1/2+x,1/2+y,z
1/2-x,1/2-y,z
1/2+x,1/2-y,-z
1/2-x,1/2+y,-z
loop_
_atom_site_type_symbol
_atom_site_label
_atom_site_fract_x
_atom_site_fract_y
_atom_site_fract_z
Si Si1 0.662982 0.953265 0.402638
Si Si2 0.292987 0.360008 0.670334
Si Si3 0.250000 0.250000 0.090155
Si Si4 0.872669 0.613337 0.195876
Si Si5 0.432669 0.528495 0.938215
Si Si6 0.451609 0.965431 0.125770
O O1 0.680261 0.184211 0.369719
O O2 0.619956 0.997333 0.437163
O O3 0.705490 0.855143 0.435722
O O4 0.645261 0.778757 0.353951
O O5 0.250000 0.250000 0.695921
O O6 0.270697 0.551733 0.629820
O O7 0.328920 0.466857 0.710502
O O8 0.887208 0.750000 0.250000
O O9 0.912998 0.468896 0.170206
O O10 0.443890 0.794347 0.912793
O O11 0.449606 0.294441 0.904617
O O12 0.448188 0.500000 0.000000
O O13 0.500000 0.000000 0.149217
#
# Coordination Sequence:
#
# PCOD9327445 Si02
#       6
#    16  16   8  16  16  16
#     4   9  18  35  57  83 121 163 208 266 316 379
#     4   9  16  33  56  82 118 165 209 261 316 372
#     4   8  16  30  57  80 116 166 206 258 319 368
#     4  10  21  38  58  88 126 169 213 264 325 385
#     4  11  23  41  69  96 127 168 212 271 338 399
#     4  11  24  44  66  95 131 168 216 273 331 400
#
# _framework density 21.209205000000001
#
# number of rings (size 3 to 8) (size 9 to 14) (size 15 to 20)
#    0.000    2.182    1.818    1.091    0.000    2.909 
#    0.000   24.545    6.000    0.000    0.000    0.000 
#    0.000    0.000    0.000    0.000    0.000    0.000 
#
# Total GULP energy -122533.213068 kJ/mol
# GULP energy per Si atom -5569.691503 kJ/mol
# Density = 2.116093 g / cm^3
# Si number density = 21.209205 Si / 1000 Ang^3
#
#
#
# Elastic Constant Matrix: (Units=GPa)
#
#
# Indices 1 2 3 4 5 6 
#
# 1 137.3058 2.8739 8.3318 -0.0003 -0.0017 0.0095
# 2 2.8739 68.3009 1.4158 0.0033 -0.0017 0.0032
# 3 8.3318 1.4158 51.9801 0.0002 -0.0001 0.0006
# 4 -0.0003 0.0033 0.0002 18.2313 -0.0013 0.0016
# 5 -0.0017 -0.0017 -0.0001 -0.0013 -9.4421 -0.0001
# 6 0.0095 0.0032 0.0006 0.0016 -0.0001 32.7515
#
#
#
# Elastic Compliance Matrix: (Units=1/GPa)
#
#
# Indices 1 2 3 4 5 6 
#
# 1 0.007360 -0.000285 -0.001172 0.000000 -0.000001 -0.000002
# 2 -0.000285 0.014660 -0.000354 -0.000003 -0.000003 -0.000001
# 3 -0.001172 -0.000354 0.019436 0.000000 0.000000 0.000000
# 4 0.000000 -0.000003 0.000000 0.054851 -0.000008 -0.000003
# 5 -0.000001 -0.000003 0.000000 -0.000008 -0.105908 0.000000
# 6 -0.000002 -0.000001 0.000000 -0.000003 0.000000 0.030533
#
#
# Mechanical properties :
#
#
# Convention : Reuss Voigt Hill
#
# Bulk Modulus (GPa) = 26.43105 31.42553 28.92829
# Shear Modulus (GPa) = 134.53632 24.63915 79.58774
#
# Velocity S-wave (km/s) = 7.97312 3.41210 6.13242
# Velocity P-wave (km/s) = 9.86154 5.51111 7.98819
#
# Compressibility (1/GPa) = 0.03783429
#
# Stress axis : x y z
#
# Youngs Moduli (GPa) = 135.86767 68.21078 51.45192
#
# Poissons Ratio (x) = 0.01947 0.06030
# Poissons Ratio (y) = 0.03878 0.01819
# Poissons Ratio (z) = 0.15923 0.02412
#
# Static dielectric constant tensor:
#      x y z
#    x 1.743980 0.000000 0.000000 
#    y 0.000000 1.877200 0.000000 
#    z 0.000000 0.000000 1.721160 
# 
# From -- ./inp_files/6570.got.cif
#   From: 2010.05.17/outbox.cif.g08.bks.cpg/sg22_4_cif.got.tgz:6570.got - 2010.06.03 23:40:54.
