data_PCOD9327981
_publ_section_title
;
Structure prediction by ZEFSAII (Michael W. Deem and Ramdas Pophale) SiO2 
 PCOD9327981
Probable space group: F 2 2 2
;
_chemical_formula_sum "Si O2"
_cell_formula_units_Z 80
_cell_length_a 15.484289
_cell_length_b 12.152203
_cell_length_c 20.589008
_cell_angle_alpha 90.000000
_cell_angle_beta 90.000000
_cell_angle_gamma 90.000000
_cell_volume 3874.197054
_symmetry_space_group_name_H-M "F 2 2 2"
_symmetry_group_IT_number 22
_symmetry_cell_setting 'orthorhombic'
loop_
_space_group_symop_operation_xyz
x,y,z
-x,-y,z
x,-y,-z
-x,y,-z
x,1/2+y,1/2+z
-x,1/2-y,1/2+z
x,1/2-y,1/2-z
-x,1/2+y,1/2-z
1/2+x,y,1/2+z
1/2-x,-y,1/2+z
1/2+x,-y,1/2-z
1/2-x,y,1/2-z
1/2+x,1/2+y,z
1/2-x,1/2-y,z
1/2+x,1/2-y,-z
1/2-x,1/2+y,-z
loop_
_atom_site_type_symbol
_atom_site_label
_atom_site_fract_x
_atom_site_fract_y
_atom_site_fract_z
Si Si1 0.900657 0.369373 0.012034
Si Si2 0.149489 0.781448 0.345966
Si Si3 0.594501 0.006234 0.792507
Si Si4 0.478491 0.166009 0.310122
Si Si5 0.160943 0.800290 0.621203
O O1 0.870167 0.331941 0.082820
O O2 0.898452 0.500000 0.000000
O O3 0.841320 0.322426 0.954975
O O4 0.000000 0.334603 0.000000
O O5 0.250000 0.750000 0.340822
O O6 0.077535 0.684893 0.334420
O O7 0.131622 0.883681 0.296481
O O8 0.570321 0.060091 0.722388
O O9 0.647324 0.090072 0.836283
O O10 0.500000 0.000000 0.825907
O O11 0.473013 0.250000 0.250000
O O12 0.416633 0.216564 0.364055
O O13 0.250000 0.750000 0.643237
#
# Coordination Sequence:
#
# PCOD9327981 Si02
#       5
#    16  16  16  16  16
#     4  11  20  38  75 100 135 186 233 292 351 419
#     4  12  24  43  69 109 141 183 243 295 356 415
#     4  11  21  45  67  93 139 179 235 286 342 422
#     4  10  22  41  63  95 141 180 227 284 349 414
#     4  11  22  40  67 103 131 177 235 281 347 415
#
# _framework density 20.649439999999998
#
# number of rings (size 3 to 8) (size 9 to 14) (size 15 to 20)
#    0.000    1.000    8.000    0.600    0.000    4.000 
#    7.200    0.000    0.000    0.000    0.000    4.200 
#    0.000    0.000    0.000    0.000    0.000    0.000 
#
# Total GULP energy -111506.507599 kJ/mol
# GULP energy per Si atom -5575.325380 kJ/mol
# Density = 2.060244 g / cm^3
# Si number density = 20.649440 Si / 1000 Ang^3
#
#
#
# Elastic Constant Matrix: (Units=GPa)
#
#
# Indices 1 2 3 4 5 6 
#
# 1 158.5364 59.4842 19.3827 0.0000 0.0000 0.0000
# 2 59.4842 95.1837 42.6778 0.0000 0.0000 0.0000
# 3 19.3827 42.6778 103.4678 0.0000 0.0000 0.0000
# 4 0.0000 0.0000 0.0000 36.0262 0.0000 0.0000
# 5 0.0000 0.0000 0.0000 0.0000 254.1456 0.0000
# 6 0.0000 0.0000 0.0000 0.0000 0.0000 43.1497
#
#
#
# Elastic Compliance Matrix: (Units=1/GPa)
#
#
# Indices 1 2 3 4 5 6 
#
# 1 0.008283 -0.005497 0.000716 0.000000 0.000000 0.000000
# 2 -0.005497 0.016538 -0.005792 0.000000 0.000000 0.000000
# 3 0.000716 -0.005792 0.011920 0.000000 0.000000 0.000000
# 4 0.000000 0.000000 0.000000 0.027758 0.000000 0.000000
# 5 0.000000 0.000000 0.000000 0.000000 0.003935 0.000000
# 6 0.000000 0.000000 0.000000 0.000000 0.000000 0.023175
#
#
# Mechanical properties :
#
#
# Convention : Reuss Voigt Hill
#
# Bulk Modulus (GPa) = 64.12548 66.69745 65.41146
# Shear Modulus (GPa) = 42.38980 82.37384 62.38182
#
# Velocity S-wave (km/s) = 4.53573 6.32283 5.50232
# Velocity P-wave (km/s) = 7.65194 9.25604 8.49195
#
# Compressibility (1/GPa) = 0.01559443
#
# Stress axis : x y z
#
# Youngs Moduli (GPa) = 120.73238 60.46553 83.89449
#
# Poissons Ratio (x) = 0.33239 -0.06006
# Poissons Ratio (y) = 0.66369 0.48590
# Poissons Ratio (z) = -0.08643 0.35021
#
# Static dielectric constant tensor:
#      x y z
#    x 1.748780 0.000000 0.000000 
#    y 0.000000 1.875140 0.000000 
#    z 0.000000 0.000000 1.744760 
# 
# From -- ./inp_files/43366.got.cif
#   From: 2010.05.17/outbox.cif.g08.bks.cpg/sg22_22_cif.got.tgz:43366.got - 2010.06.03 23:40:54.
