data_PCOD9327031
_publ_section_title
;
Structure prediction by ZEFSAII (Michael W. Deem and Ramdas Pophale) SiO2 
 PCOD9327031
Probable space group: F 2 2 2
;
_chemical_formula_sum "Si O2"
_cell_formula_units_Z 72
_cell_length_a 15.114147
_cell_length_b 22.311625
_cell_length_c 10.827249
_cell_angle_alpha 90.000000
_cell_angle_beta 90.000000
_cell_angle_gamma 90.000000
_cell_volume 3651.177685
_symmetry_space_group_name_H-M "F 2 2 2"
_symmetry_group_IT_number 22
_symmetry_cell_setting 'orthorhombic'
loop_
_space_group_symop_operation_xyz
x,y,z
-x,-y,z
x,-y,-z
-x,y,-z
x,1/2+y,1/2+z
-x,1/2-y,1/2+z
x,1/2-y,1/2-z
-x,1/2+y,1/2-z
1/2+x,y,1/2+z
1/2-x,-y,1/2+z
1/2+x,-y,1/2-z
1/2-x,y,1/2-z
1/2+x,1/2+y,z
1/2-x,1/2-y,z
1/2+x,1/2-y,-z
1/2-x,1/2+y,-z
loop_
_atom_site_type_symbol
_atom_site_label
_atom_site_fract_x
_atom_site_fract_y
_atom_site_fract_z
Si Si1 0.637546 0.794092 0.866725
Si Si2 0.459360 0.622303 0.184717
Si Si3 0.232405 0.605449 0.394885
Si Si4 0.500000 0.783588 0.500000
Si Si5 0.000000 0.500000 0.798404
Si Si6 0.654950 0.500000 0.500000
O O1 0.652128 0.750000 0.750000
O O2 0.576484 0.847281 0.810582
O O3 0.724290 0.828820 0.911249
O O4 0.583207 0.757753 0.967340
O O5 0.373046 0.610016 0.099299
O O6 0.515355 0.672763 0.115971
O O7 0.502037 0.559604 0.216801
O O8 0.250000 0.588909 0.250000
O O9 0.281734 0.557507 0.480271
O O10 0.087623 0.500966 0.884031
#
# Coordination Sequence:
#
# PCOD9327031 Si02
#       6
#    16  16  16   8   8   8
#     4   9  19  36  60  82 116 151 206 250 295 365
#     4  10  22  39  58  90 122 155 207 251 310 362
#     4  10  20  38  59  89 115 160 203 247 304 363
#     4  10  22  35  56  91 114 162 192 262 304 350
#     4  11  22  37  62  92 124 159 204 261 300 370
#     4  11  22  36  64  89 124 162 206 249 314 358
#
# _framework density 19.719664999999999
#
# number of rings (size 3 to 8) (size 9 to 14) (size 15 to 20)
#    0.000    2.000    4.444    0.000    3.111   12.444 
#    0.000    0.000    0.000    0.000   11.556    0.000 
#    0.000    0.000    0.000    0.000    0.000    0.000 
#
# Total GULP energy -100440.281474 kJ/mol
# GULP energy per Si atom -5580.015637 kJ/mol
# Density = 1.967478 g / cm^3
# Si number density = 19.719665 Si / 1000 Ang^3
#
#
#
# Elastic Constant Matrix: (Units=GPa)
#
#
# Indices 1 2 3 4 5 6 
#
# 1 77.7858 47.8754 31.8243 0.0000 0.0000 0.0000
# 2 47.8754 140.7742 27.7014 0.0000 0.0000 0.0000
# 3 31.8243 27.7014 35.0820 0.0000 0.0000 0.0000
# 4 0.0000 0.0000 0.0000 37.0091 0.0000 0.0000
# 5 0.0000 0.0000 0.0000 0.0000 24.0646 0.0000
# 6 0.0000 0.0000 0.0000 0.0000 0.0000 29.2312
#
#
#
# Elastic Compliance Matrix: (Units=1/GPa)
#
#
# Indices 1 2 3 4 5 6 
#
# 1 0.022439 -0.004293 -0.016966 0.000000 0.000000 0.000000
# 2 -0.004293 0.009232 -0.003395 0.000000 0.000000 0.000000
# 3 -0.016966 -0.003395 0.046576 0.000000 0.000000 0.000000
# 4 0.000000 0.000000 0.000000 0.027020 0.000000 0.000000
# 5 0.000000 0.000000 0.000000 0.000000 0.041555 0.000000
# 6 0.000000 0.000000 0.000000 0.000000 0.000000 0.034210
#
#
# Mechanical properties :
#
#
# Convention : Reuss Voigt Hill
#
# Bulk Modulus (GPa) = 34.55543 52.04936 43.30240
# Shear Modulus (GPa) = 20.83455 27.81037 24.32246
#
# Velocity S-wave (km/s) = 3.25397 3.75945 3.51581
# Velocity P-wave (km/s) = 5.62842 6.73027 6.20386
#
# Compressibility (1/GPa) = 0.02893901
#
# Stress axis : x y z
#
# Youngs Moduli (GPa) = 44.56511 108.32358 21.47027
#
# Poissons Ratio (x) = 0.46500 0.36426
# Poissons Ratio (y) = 0.19131 0.07290
# Poissons Ratio (z) = 0.75608 0.36779
#
# Static dielectric constant tensor:
#      x y z
#    x 1.728780 0.000000 0.000000 
#    y 0.000000 1.713950 0.000000 
#    z 0.000000 0.000000 1.697540 
# 
# From -- ./inp_files/19778.got.cif
#   From: 2010.05.17/outbox.cif.g08.bks.cpg/sg22_10_cif.got.tgz:19778.got - 2010.06.03 23:40:54.
