data_PCOD9327043
_publ_section_title
;
Structure prediction by ZEFSAII (Michael W. Deem and Ramdas Pophale) SiO2 
 PCOD9327043
Probable space group: F 2 2 2
;
_chemical_formula_sum "Si O2"
_cell_formula_units_Z 104
_cell_length_a 26.956729
_cell_length_b 21.989926
_cell_length_c 8.269216
_cell_angle_alpha 90.000000
_cell_angle_beta 90.000000
_cell_angle_gamma 90.000000
_cell_volume 4901.796719
_symmetry_space_group_name_H-M "F 2 2 2"
_symmetry_group_IT_number 22
_symmetry_cell_setting 'orthorhombic'
loop_
_space_group_symop_operation_xyz
x,y,z
-x,-y,z
x,-y,-z
-x,y,-z
x,1/2+y,1/2+z
-x,1/2-y,1/2+z
x,1/2-y,1/2-z
-x,1/2+y,1/2-z
1/2+x,y,1/2+z
1/2-x,-y,1/2+z
1/2+x,-y,1/2-z
1/2-x,y,1/2-z
1/2+x,1/2+y,z
1/2-x,1/2-y,z
1/2+x,1/2-y,-z
1/2-x,1/2+y,-z
loop_
_atom_site_type_symbol
_atom_site_label
_atom_site_fract_x
_atom_site_fract_y
_atom_site_fract_z
Si Si1 0.647092 0.750000 0.750000
Si Si2 0.803647 0.994324 0.192797
Si Si3 0.022593 0.859474 0.658565
Si Si4 0.146842 0.885245 0.274378
Si Si5 0.586784 0.255992 0.920478
Si Si6 0.890628 0.061582 0.598996
Si Si7 0.450226 0.376697 0.930546
O O1 0.668995 0.818246 0.742059
O O2 0.615849 0.746421 0.585032
O O3 0.750000 0.972155 0.250000
O O4 0.812962 0.062177 0.259058
O O5 0.846198 0.954517 0.278863
O O6 0.807150 0.000000 0.000000
O O7 0.046095 0.795828 0.604538
O O8 0.065546 0.907953 0.700929
O O9 0.000000 0.890449 0.500000
O O10 0.976166 0.847960 0.773225
O O11 0.125309 0.892123 0.456138
O O12 0.101937 0.900173 0.144437
O O13 0.616213 0.250000 0.750000
O O14 0.562958 0.322543 0.945545
O O15 0.903718 0.000000 0.500000
O O16 0.500000 0.411513 0.000000
#
# Coordination Sequence:
#
# PCOD9327043 Si02
#       7
#     8  16  16  16  16  16  16
#     4  10  20  38  61  94 138 172 214 272 325 396
#     4  11  25  47  77  97 119 161 220 286 343 408
#     4  12  21  35  56  85 130 183 218 264 312 370
#     4  10  21  41  61  97 133 169 219 267 326 392
#     4  11  21  33  53  84 129 181 228 263 302 370
#     4  10  22  41  64  91 127 167 222 270 329 391
#     4  11  22  33  53  87 135 178 225 261 310 382
#
# _framework density 21.216712000000001
#
# number of rings (size 3 to 8) (size 9 to 14) (size 15 to 20)
#    0.000    1.231    4.615    2.769    2.154    2.769 
#    0.000    0.385    0.000    0.000    0.000    1.077 
#    0.000    0.000    0.000    0.000    0.000    0.000 
#
# Total GULP energy -144836.790513 kJ/mol
# GULP energy per Si atom -5570.645789 kJ/mol
# Density = 2.116842 g / cm^3
# Si number density = 21.216712 Si / 1000 Ang^3
#
#
#
# Elastic Constant Matrix: (Units=GPa)
#
#
# Indices 1 2 3 4 5 6 
#
# 1 67.3411 25.5789 20.6556 0.0000 0.0001 -0.0146
# 2 25.5789 77.9092 9.7367 -0.0002 0.0000 -0.0043
# 3 20.6556 9.7367 119.6505 -0.0009 0.0001 -0.0810
# 4 0.0000 -0.0002 -0.0009 34.2698 0.0000 -0.0268
# 5 0.0001 0.0000 0.0001 0.0000 24.9009 0.0087
# 6 -0.0146 -0.0043 -0.0810 -0.0268 0.0087 403.2773
#
#
#
# Elastic Compliance Matrix: (Units=1/GPa)
#
#
# Indices 1 2 3 4 5 6 
#
# 1 0.017740 -0.005498 -0.002615 0.000000 0.000000 0.000000
# 2 -0.005498 0.014671 -0.000245 0.000000 0.000000 0.000000
# 3 -0.002615 -0.000245 0.008829 0.000000 0.000000 0.000002
# 4 0.000000 0.000000 0.000000 0.029180 0.000000 0.000002
# 5 0.000000 0.000000 0.000000 0.000000 0.040159 -0.000001
# 6 0.000000 0.000000 0.000002 0.000002 -0.000001 0.002480
#
#
# Mechanical properties :
#
#
# Convention : Reuss Voigt Hill
#
# Bulk Modulus (GPa) = 40.77452 41.87148 41.32300
# Shear Modulus (GPa) = 36.24519 106.41823 71.33171
#
# Velocity S-wave (km/s) = 4.13768 7.08990 5.80461
# Velocity P-wave (km/s) = 6.48745 9.31666 8.02768
#
# Compressibility (1/GPa) = 0.02452512
#
# Stress axis : x y z
#
# Youngs Moduli (GPa) = 56.36946 68.16177 113.26232
#
# Poissons Ratio (x) = 0.37472 0.29620
# Poissons Ratio (y) = 0.30989 0.02773
# Poissons Ratio (z) = 0.14741 0.01669
#
# Static dielectric constant tensor:
#      x y z
#    x 1.767900 0.000000 0.000000 
#    y 0.000000 1.808480 -0.000060 
#    z 0.000000 -0.000060 -0.783180 
# 
# From -- ./inp_files/14930.got.cif
#   From: 2010.05.17/outbox.cif.g08.bks.cpg/sg22_8_cif.got.tgz:14930.got - 2010.06.03 23:40:54.
