data_PCOD9327681
_publ_section_title
;
Structure prediction by ZEFSAII (Michael W. Deem and Ramdas Pophale) SiO2 
 PCOD9327681
Probable space group: F 2 2 2
;
_chemical_formula_sum "Si O2"
_cell_formula_units_Z 104
_cell_length_a 16.008664
_cell_length_b 12.061655
_cell_length_c 22.388673
_cell_angle_alpha 90.000000
_cell_angle_beta 90.000000
_cell_angle_gamma 90.000000
_cell_volume 4323.050859
_symmetry_space_group_name_H-M "F 2 2 2"
_symmetry_group_IT_number 22
_symmetry_cell_setting 'orthorhombic'
loop_
_space_group_symop_operation_xyz
x,y,z
-x,-y,z
x,-y,-z
-x,y,-z
x,1/2+y,1/2+z
-x,1/2-y,1/2+z
x,1/2-y,1/2-z
-x,1/2+y,1/2-z
1/2+x,y,1/2+z
1/2-x,-y,1/2+z
1/2+x,-y,1/2-z
1/2-x,y,1/2-z
1/2+x,1/2+y,z
1/2-x,1/2-y,z
1/2+x,1/2-y,-z
1/2-x,1/2+y,-z
loop_
_atom_site_type_symbol
_atom_site_label
_atom_site_fract_x
_atom_site_fract_y
_atom_site_fract_z
Si Si1 0.738692 0.876120 0.078154
Si Si2 0.008455 0.756911 0.679400
Si Si3 0.409373 0.028278 0.307175
Si Si4 0.375032 0.679338 0.414816
Si Si5 0.832052 0.640856 0.205440
Si Si6 0.103609 0.500000 0.000000
Si Si7 0.684284 0.909511 0.589905
O O1 0.750000 0.750000 0.060481
O O2 0.730822 0.874408 0.150811
O O3 0.808590 0.967171 0.062763
O O4 0.659586 0.922584 0.043056
O O5 0.989153 0.750000 0.750000
O O6 0.060971 0.644780 0.661728
O O7 0.928432 0.792930 0.643253
O O8 0.079828 0.848645 0.672532
O O9 0.371165 0.937928 0.351535
O O10 0.500000 0.000000 0.280510
O O11 0.344129 0.046170 0.253968
O O12 0.429116 0.593812 0.454666
O O13 0.356052 0.802346 0.441205
O O14 0.282771 0.625972 0.401484
O O15 0.827636 0.750000 0.250000
#
# Coordination Sequence:
#
# PCOD9327681 Si02
#       7
#    16  16  16  16  16   8  16
#     4  11  24  41  70 103 138 200 264 324 382 461
#     4  10  23  40  70 104 155 202 248 316 394 477
#     4  11  21  37  64 106 148 194 240 308 389 472
#     4  10  22  46  70 108 146 204 256 327 395 473
#     4  11  24  41  68 103 152 195 255 306 383 483
#     4  10  26  46  73 104 145 202 266 330 397 466
#     4  10  21  41  70 101 151 192 254 325 388 472
#
# _framework density 24.057085000000001
#
# number of rings (size 3 to 8) (size 9 to 14) (size 15 to 20)
#    0.000    1.538    3.077    0.923    8.615    4.923 
#    2.769    2.308    0.000    0.000    0.000    8.615 
#    0.000    0.000    0.000    0.000    0.000    0.000 
#
# Total GULP energy -144737.365708 kJ/mol
# GULP energy per Si atom -5566.821758 kJ/mol
# Density = 2.400233 g / cm^3
# Si number density = 24.057085 Si / 1000 Ang^3
#
#
#
# Elastic Constant Matrix: (Units=GPa)
#
#
# Indices 1 2 3 4 5 6 
#
# 1 76.3553 20.5555 28.0457 0.0000 0.0000 0.0000
# 2 20.5555 171.9014 52.2856 0.0000 0.0000 0.0000
# 3 28.0457 52.2856 112.0394 0.0000 0.0000 0.0000
# 4 0.0000 0.0000 0.0000 38.5503 0.0000 0.0000
# 5 0.0000 0.0000 0.0000 0.0000 24.5278 0.0000
# 6 0.0000 0.0000 0.0000 0.0000 0.0000 10.8125
#
#
#
# Elastic Compliance Matrix: (Units=1/GPa)
#
#
# Indices 1 2 3 4 5 6 
#
# 1 0.014502 -0.000734 -0.003287 0.000000 0.000000 0.000000
# 2 -0.000734 0.006817 -0.002997 0.000000 0.000000 0.000000
# 3 -0.003287 -0.002997 0.011147 0.000000 0.000000 0.000000
# 4 0.000000 0.000000 0.000000 0.025940 0.000000 0.000000
# 5 0.000000 0.000000 0.000000 0.000000 0.040770 0.000000
# 6 0.000000 0.000000 0.000000 0.000000 0.000000 0.092485
#
#
# Mechanical properties :
#
#
# Convention : Reuss Voigt Hill
#
# Bulk Modulus (GPa) = 54.26637 62.45221 58.35929
# Shear Modulus (GPa) = 23.60249 32.07207 27.83728
#
# Velocity S-wave (km/s) = 3.13566 3.65521 3.40536
# Velocity P-wave (km/s) = 5.97629 6.62046 6.30661
#
# Compressibility (1/GPa) = 0.01842762
#
# Stress axis : x y z
#
# Youngs Moduli (GPa) = 68.95688 146.69695 89.70886
#
# Poissons Ratio (x) = 0.10770 0.29492
# Poissons Ratio (y) = 0.05063 0.26890
# Poissons Ratio (z) = 0.22669 0.43971
#
# Static dielectric constant tensor:
#      x y z
#    x 2.068040 0.000000 0.000000 
#    y 0.000000 2.052050 0.000000 
#    z 0.000000 0.000000 1.952890 
# 
# From -- ./inp_files/53586.got.cif
#   From: 2010.05.17/outbox.cif.g08.bks.cpg/sg22_27_cif.got.tgz:53586.got - 2010.06.03 23:40:54.
