data_PCOD9327810
_publ_section_title
;
Structure prediction by ZEFSAII (Michael W. Deem and Ramdas Pophale) SiO2 
 PCOD9327810
Probable space group: F 2 2 2
;
_chemical_formula_sum "Si O2"
_cell_formula_units_Z 120
_cell_length_a 25.277284
_cell_length_b 19.875194
_cell_length_c 11.734185
_cell_angle_alpha 90.000000
_cell_angle_beta 90.000000
_cell_angle_gamma 90.000000
_cell_volume 5895.148036
_symmetry_space_group_name_H-M "F 2 2 2"
_symmetry_group_IT_number 22
_symmetry_cell_setting 'orthorhombic'
loop_
_space_group_symop_operation_xyz
x,y,z
-x,-y,z
x,-y,-z
-x,y,-z
x,1/2+y,1/2+z
-x,1/2-y,1/2+z
x,1/2-y,1/2-z
-x,1/2+y,1/2-z
1/2+x,y,1/2+z
1/2-x,-y,1/2+z
1/2+x,-y,1/2-z
1/2-x,y,1/2-z
1/2+x,1/2+y,z
1/2-x,1/2-y,z
1/2+x,1/2-y,-z
1/2-x,1/2+y,-z
loop_
_atom_site_type_symbol
_atom_site_label
_atom_site_fract_x
_atom_site_fract_y
_atom_site_fract_z
Si Si1 0.864561 0.598991 0.374147
Si Si2 0.449401 0.411990 0.677658
Si Si3 0.554891 0.422985 0.049463
Si Si4 0.694928 0.718778 0.063612
Si Si5 0.927491 0.064804 0.651368
Si Si6 0.792229 0.000000 0.000000
Si Si7 0.255327 0.871961 0.115636
Si Si8 0.370898 0.340167 0.527158
O O1 0.896365 0.613886 0.490660
O O2 0.828172 0.663018 0.351123
O O3 0.905665 0.580599 0.277110
O O4 0.828156 0.535885 0.404949
O O5 0.445052 0.417623 0.814831
O O6 0.427244 0.484269 0.633903
O O7 0.511390 0.411633 0.644877
O O8 0.416792 0.350440 0.622614
O O9 0.558104 0.500000 0.000000
O O10 0.500000 0.395653 0.000000
O O11 0.750000 0.750000 0.108156
O O12 0.716659 0.680243 0.949914
O O13 0.647823 0.770481 0.032013
O O14 0.890692 0.107406 0.568011
O O15 0.759350 0.056166 0.063972
O O16 0.250000 0.867890 0.250000
O O17 0.315944 0.860085 0.084833
#
# Coordination Sequence:
#
# PCOD9327810 Si02
#       8
#    16  16  16  16  16   8  16  16
#     4  11  20  38  68  92 132 166 211 272 329 385
#     4  11  22  39  65  99 137 164 209 271 339 400
#     4  11  18  35  62  97 128 162 210 259 326 395
#     4   9  23  47  62  91 124 180 229 263 319 391
#     4  11  22  40  65  99 130 172 206 265 342 403
#     4  10  22  36  61 104 123 148 212 278 328 376
#     4  10  24  42  66  92 130 165 221 274 322 389
#     4  11  25  40  64  88 131 178 217 259 323 392
#
# _framework density 20.355723999999999
#
# number of rings (size 3 to 8) (size 9 to 14) (size 15 to 20)
#    0.000    1.467    3.333    1.600    7.467    4.000 
#    0.000    8.667    2.933    0.000    0.000    0.000 
#    0.000    0.000    0.000    0.000    0.000    0.000 
#
# Total GULP energy -167458.573870 kJ/mol
# GULP energy per Si atom -5581.952462 kJ/mol
# Density = 2.030939 g / cm^3
# Si number density = 20.355724 Si / 1000 Ang^3
#
#
#
# Elastic Constant Matrix: (Units=GPa)
#
#
# Indices 1 2 3 4 5 6 
#
# 1 48.7813 25.8432 -7.8845 0.0000 0.0000 0.0000
# 2 25.8432 77.1477 -0.4462 0.0000 0.0000 0.0000
# 3 -7.8845 -0.4462 69.0536 0.0000 0.0000 0.0000
# 4 0.0000 0.0000 0.0000 0.5656 0.0000 0.0000
# 5 0.0000 0.0000 0.0000 0.0000 37.0478 0.0000
# 6 0.0000 0.0000 0.0000 0.0000 0.0000 26.6890
#
#
#
# Elastic Compliance Matrix: (Units=1/GPa)
#
#
# Indices 1 2 3 4 5 6 
#
# 1 0.025473 -0.008516 0.002853 0.000000 0.000000 0.000000
# 2 -0.008516 0.015810 -0.000870 0.000000 0.000000 0.000000
# 3 0.002853 -0.000870 0.014802 0.000000 0.000000 0.000000
# 4 0.000000 0.000000 0.000000 1.768146 0.000000 0.000000
# 5 0.000000 0.000000 0.000000 0.000000 0.026992 0.000000
# 6 0.000000 0.000000 0.000000 0.000000 0.000000 0.037469
#
#
# Mechanical properties :
#
#
# Convention : Reuss Voigt Hill
#
# Bulk Modulus (GPa) = 23.24615 25.55639 24.40127
# Shear Modulus (GPa) = 2.60947 24.69183 13.65065
#
# Velocity S-wave (km/s) = 1.13345 3.48662 2.59241
# Velocity P-wave (km/s) = 3.62736 5.36571 4.57977
#
# Compressibility (1/GPa) = 0.04301787
#
# Stress axis : x y z
#
# Youngs Moduli (GPa) = 39.25777 63.25121 67.55991
#
# Poissons Ratio (x) = 0.53867 -0.19278
# Poissons Ratio (y) = 0.33434 0.05879
# Poissons Ratio (z) = -0.11202 0.05504
#
# Static dielectric constant tensor:
#      x y z
#    x 1.736530 0.000000 0.000000 
#    y 0.000000 1.763420 0.000000 
#    z 0.000000 0.000000 1.742160 
# 
# From -- ./inp_files/24009.got.cif
#   From: 2010.05.17/outbox.cif.g08.bks.cpg/sg22_13_cif.got.tgz:24009.got - 2010.06.03 23:40:54.
