data_PCOD9327905
_publ_section_title
;
Structure prediction by ZEFSAII (Michael W. Deem and Ramdas Pophale) SiO2 
 PCOD9327905
Probable space group: F 2 2 2
;
_chemical_formula_sum "Si O2"
_cell_formula_units_Z 80
_cell_length_a 14.205422
_cell_length_b 18.546880
_cell_length_c 14.603300
_cell_angle_alpha 90.000000
_cell_angle_beta 90.000000
_cell_angle_gamma 90.000000
_cell_volume 3847.476794
_symmetry_space_group_name_H-M "F 2 2 2"
_symmetry_group_IT_number 22
_symmetry_cell_setting 'orthorhombic'
loop_
_space_group_symop_operation_xyz
x,y,z
-x,-y,z
x,-y,-z
-x,y,-z
x,1/2+y,1/2+z
-x,1/2-y,1/2+z
x,1/2-y,1/2-z
-x,1/2+y,1/2-z
1/2+x,y,1/2+z
1/2-x,-y,1/2+z
1/2+x,-y,1/2-z
1/2-x,y,1/2-z
1/2+x,1/2+y,z
1/2-x,1/2-y,z
1/2+x,1/2-y,-z
1/2-x,1/2+y,-z
loop_
_atom_site_type_symbol
_atom_site_label
_atom_site_fract_x
_atom_site_fract_y
_atom_site_fract_z
Si Si1 0.968778 0.883044 0.856623
Si Si2 0.523561 0.732229 0.397499
Si Si3 0.848889 0.081775 0.977209
Si Si4 0.990272 0.422499 0.837391
Si Si5 0.800143 0.846699 0.345386
O O1 0.992031 0.799235 0.836087
O O2 0.058610 0.915290 0.911576
O O3 0.958837 0.923387 0.760869
O O4 0.881578 0.886395 0.925426
O O5 0.500000 0.756180 0.500000
O O6 0.521482 0.652554 0.614862
O O7 0.634249 0.718595 0.380632
O O8 0.768936 0.124576 0.923318
O O9 0.821573 0.000000 0.000000
O O10 0.879317 0.407381 0.823649
O O11 0.000000 0.500000 0.883777
O O12 0.750000 0.831476 0.250000
#
# Coordination Sequence:
#
# PCOD9327905 Si02
#       5
#    16  16  16  16  16
#     4  11  20  39  59  97 126 166 212 267 325 374
#     4  10  22  40  61  91 132 169 210 257 332 388
#     4  11  21  36  63  93 128 162 213 269 317 374
#     4  10  22  39  66  86 128 171 215 260 323 380
#     4  10  23  40  63  96 125 160 223 270 309 367
#
# _framework density 20.792847999999999
#
# number of rings (size 3 to 8) (size 9 to 14) (size 15 to 20)
#    1.200    0.400    4.000    3.000    0.000    2.800 
#    3.600    0.000    0.000    0.000    0.000    2.800 
#    0.000    0.000    0.000    0.000    0.000    0.000 
#
# Total GULP energy -111548.480059 kJ/mol
# GULP energy per Si atom -5577.424003 kJ/mol
# Density = 2.074552 g / cm^3
# Si number density = 20.792848 Si / 1000 Ang^3
#
#
#
# Elastic Constant Matrix: (Units=GPa)
#
#
# Indices 1 2 3 4 5 6 
#
# 1 70.6643 15.1321 30.4845 0.0000 0.0000 0.0000
# 2 15.1321 140.3147 10.0620 0.0000 0.0000 0.0000
# 3 30.4845 10.0620 73.0443 0.0000 0.0000 0.0000
# 4 0.0000 0.0000 0.0000 25.5712 0.0000 0.0000
# 5 0.0000 0.0000 0.0000 0.0000 19.3252 0.0000
# 6 0.0000 0.0000 0.0000 0.0000 0.0000 12.5662
#
#
#
# Elastic Compliance Matrix: (Units=1/GPa)
#
#
# Indices 1 2 3 4 5 6 
#
# 1 0.017519 -0.001379 -0.007121 0.000000 0.000000 0.000000
# 2 -0.001379 0.007306 -0.000431 0.000000 0.000000 0.000000
# 3 -0.007121 -0.000431 0.016722 0.000000 0.000000 0.000000
# 4 0.000000 0.000000 0.000000 0.039107 0.000000 0.000000
# 5 0.000000 0.000000 0.000000 0.000000 0.051746 0.000000
# 6 0.000000 0.000000 0.000000 0.000000 0.000000 0.079579
#
#
# Mechanical properties :
#
#
# Convention : Reuss Voigt Hill
#
# Bulk Modulus (GPa) = 42.22140 43.93117 43.07628
# Shear Modulus (GPa) = 21.03179 26.71549 23.87364
#
# Velocity S-wave (km/s) = 3.18385 3.58836 3.39214
# Velocity P-wave (km/s) = 5.81942 6.19211 6.00866
#
# Compressibility (1/GPa) = 0.02368467
#
# Stress axis : x y z
#
# Youngs Moduli (GPa) = 57.08143 136.86577 59.80219
#
# Poissons Ratio (x) = 0.18868 0.42588
# Poissons Ratio (y) = 0.07869 0.02578
# Poissons Ratio (z) = 0.40650 0.05901
#
# Static dielectric constant tensor:
#      x y z
#    x 1.738520 0.000000 0.000000 
#    y 0.000000 1.804340 0.000000 
#    z 0.000000 0.000000 1.729410 
# 
# From -- ./inp_files/30679.got.cif
#   From: 2010.05.17/outbox.cif.g08.bks.cpg/sg22_16_cif.got.tgz:30679.got - 2010.06.03 23:40:54.
