data_PCOD9327678
_publ_section_title
;
Structure prediction by ZEFSAII (Michael W. Deem and Ramdas Pophale) SiO2 
 PCOD9327678
Probable space group: F 2 2 2
;
_chemical_formula_sum "Si O2"
_cell_formula_units_Z 104
_cell_length_a 20.201538
_cell_length_b 29.047323
_cell_length_c 8.513413
_cell_angle_alpha 90.000000
_cell_angle_beta 90.000000
_cell_angle_gamma 90.000000
_cell_volume 4995.675851
_symmetry_space_group_name_H-M "F 2 2 2"
_symmetry_group_IT_number 22
_symmetry_cell_setting 'orthorhombic'
loop_
_space_group_symop_operation_xyz
x,y,z
-x,-y,z
x,-y,-z
-x,y,-z
x,1/2+y,1/2+z
-x,1/2-y,1/2+z
x,1/2-y,1/2-z
-x,1/2+y,1/2-z
1/2+x,y,1/2+z
1/2-x,-y,1/2+z
1/2+x,-y,1/2-z
1/2-x,y,1/2-z
1/2+x,1/2+y,z
1/2-x,1/2-y,z
1/2+x,1/2-y,-z
1/2-x,1/2+y,-z
loop_
_atom_site_type_symbol
_atom_site_label
_atom_site_fract_x
_atom_site_fract_y
_atom_site_fract_z
Si Si1 0.323531 0.698668 0.177414
Si Si2 0.182032 0.470496 0.158304
Si Si3 0.608560 0.880448 0.207030
Si Si4 0.926149 0.373949 0.438894
Si Si5 0.817904 0.698084 0.301008
Si Si6 0.435857 0.471016 0.768435
Si Si7 0.000000 0.578997 0.000000
O O1 0.338374 0.750000 0.250000
O O2 0.250000 0.685703 0.250000
O O3 0.384473 0.660624 0.177308
O O4 0.317765 0.701006 0.988864
O O5 0.250000 0.470230 0.250000
O O6 0.157636 0.418119 0.134885
O O7 0.126478 0.495754 0.264432
O O8 0.188670 0.500000 0.000000
O O9 0.611023 0.883438 0.396165
O O10 0.627620 0.827496 0.195352
O O11 0.538442 0.891722 0.129696
O O12 0.930349 0.424199 0.363523
O O13 0.000000 0.358018 0.500000
O O14 0.818425 0.750000 0.250000
O O15 0.750000 0.674062 0.250000
O O16 0.500000 0.500000 0.816626
O O17 0.449477 0.453504 0.591450
#
# Coordination Sequence:
#
# PCOD9327678 Si02
#       7
#    16  16  16  16  16  16   8
#     4  10  22  43  71 101 137 180 226 283 355 426
#     4  12  26  43  62  98 141 175 227 288 345 403
#     4  11  24  43  66  96 134 177 225 282 341 410
#     4  11  24  43  66 101 136 176 234 289 347 417
#     4  10  21  41  69  98 134 172 222 275 344 411
#     4  12  23  43  70  91 127 181 234 275 340 411
#     4  12  21  42  70  90 126 176 230 274 332 409
#
# _framework density 20.818004999999999
#
# number of rings (size 3 to 8) (size 9 to 14) (size 15 to 20)
#    0.000    0.923    4.615    2.538    2.154    4.615 
#    2.769    3.077    3.385    0.000    0.000    0.000 
#    0.000    0.000    0.000    0.000    0.000    0.000 
#
# Total GULP energy -144881.409099 kJ/mol
# GULP energy per Si atom -5572.361888 kJ/mol
# Density = 2.077062 g / cm^3
# Si number density = 20.818005 Si / 1000 Ang^3
#
#
#
# Elastic Constant Matrix: (Units=GPa)
#
#
# Indices 1 2 3 4 5 6 
#
# 1 103.2420 53.8794 11.5013 0.0001 -0.0004 0.0001
# 2 53.8794 130.2928 32.6061 0.0000 -0.0002 0.0000
# 3 11.5013 32.6061 59.8247 0.0002 -0.0010 0.0000
# 4 0.0001 0.0000 0.0002 38.9124 -0.0001 -0.0001
# 5 -0.0004 -0.0002 -0.0010 -0.0001 24.1070 0.0000
# 6 0.0001 0.0000 0.0000 -0.0001 0.0000 30.9019
#
#
#
# Elastic Compliance Matrix: (Units=1/GPa)
#
#
# Indices 1 2 3 4 5 6 
#
# 1 0.012363 -0.005231 0.000474 0.000000 0.000000 0.000000
# 2 -0.005231 0.011101 -0.005044 0.000000 0.000000 0.000000
# 3 0.000474 -0.005044 0.019374 0.000000 0.000001 0.000000
# 4 0.000000 0.000000 0.000000 0.025699 0.000000 0.000000
# 5 0.000000 0.000000 0.000001 0.000000 0.041482 0.000000
# 6 0.000000 0.000000 0.000000 0.000000 0.000000 0.032360
#
#
# Mechanical properties :
#
#
# Convention : Reuss Voigt Hill
#
# Bulk Modulus (GPa) = 43.03882 54.37035 48.70458
# Shear Modulus (GPa) = 29.45925 31.80911 30.63418
#
# Velocity S-wave (km/s) = 3.76584 3.91316 3.84021
# Velocity P-wave (km/s) = 6.29504 6.82574 6.56575
#
# Compressibility (1/GPa) = 0.02323484
#
# Stress axis : x y z
#
# Youngs Moduli (GPa) = 80.88552 90.08497 51.61642
#
# Poissons Ratio (x) = 0.47125 -0.02448
# Poissons Ratio (y) = 0.42313 0.26038
# Poissons Ratio (z) = -0.03837 0.45443
#
# Static dielectric constant tensor:
#      x y z
#    x 1.695780 0.000000 0.000000 
#    y 0.000000 1.781490 0.000000 
#    z 0.000000 0.000000 1.760300 
# 
# From -- ./inp_files/14045.got.cif
#   From: 2010.05.17/outbox.cif.g08.bks.cpg/sg22_8_cif.got.tgz:14045.got - 2010.06.03 23:40:54.
