data_PCOD9327303
_publ_section_title
;
Structure prediction by ZEFSAII (Michael W. Deem and Ramdas Pophale) SiO2 
 PCOD9327303
Probable space group: F 2 2 2
;
_chemical_formula_sum "Si O2"
_cell_formula_units_Z 56
_cell_length_a 32.896793
_cell_length_b 14.332902
_cell_length_c 5.196156
_cell_angle_alpha 90.000000
_cell_angle_beta 90.000000
_cell_angle_gamma 90.000000
_cell_volume 2450.021382
_symmetry_space_group_name_H-M "F 2 2 2"
_symmetry_group_IT_number 22
_symmetry_cell_setting 'orthorhombic'
loop_
_space_group_symop_operation_xyz
x,y,z
-x,-y,z
x,-y,-z
-x,y,-z
x,1/2+y,1/2+z
-x,1/2-y,1/2+z
x,1/2-y,1/2-z
-x,1/2+y,1/2-z
1/2+x,y,1/2+z
1/2-x,-y,1/2+z
1/2+x,-y,1/2-z
1/2-x,y,1/2-z
1/2+x,1/2+y,z
1/2-x,1/2-y,z
1/2+x,1/2-y,-z
1/2-x,1/2+y,-z
loop_
_atom_site_type_symbol
_atom_site_label
_atom_site_fract_x
_atom_site_fract_y
_atom_site_fract_z
Si Si1 0.481499 0.103492 0.253666
Si Si2 0.888583 0.361939 0.762656
Si Si3 0.274207 0.000000 0.000000
Si Si4 0.661719 0.362033 0.242210
O O1 0.500000 0.151886 0.500000
O O2 0.433208 0.097707 0.273173
O O3 0.500000 0.000000 0.252525
O O4 0.500000 0.147634 0.000000
O O5 0.892770 0.250000 0.750000
O O6 0.855792 0.387116 0.540379
O O7 0.872922 0.383664 0.047429
O O8 0.250000 0.040800 0.250000
O O9 0.300724 0.920852 0.146120
O O10 0.669828 0.250000 0.250000
#
# Coordination Sequence:
#
# PCOD9327303 Si02
#       4
#    16  16   8  16
#     4  10  21  34  51  82 119 158 209 265 326 376
#     4  10  21  39  62  87 122 171 224 274 326 393
#     4  12  26  44  70 106 139 170 215 276 344 420
#     4  10  23  44  68  95 128 172 221 271 332 401
#
# _framework density 22.856943000000001
#
# number of rings (size 3 to 8) (size 9 to 14) (size 15 to 20)
#    0.000    1.714    0.000    3.429    0.000    8.571 
#    0.000    1.429    0.000    0.000    0.000    0.000 
#    0.000    0.000    0.000    0.000    0.000    0.000 
#
# Total GULP energy -78204.393923 kJ/mol
# GULP energy per Si atom -5586.028137 kJ/mol
# Density = 2.280492 g / cm^3
# Si number density = 22.856943 Si / 1000 Ang^3
#
#
#
# Elastic Constant Matrix: (Units=GPa)
#
#
# Indices 1 2 3 4 5 6 
#
# 1 115.5509 40.4243 40.1691 0.0000 0.0000 -0.0001
# 2 40.4243 116.4118 20.1187 0.0002 0.0000 -0.0001
# 3 40.1691 20.1187 182.4218 0.0006 0.0001 -0.0001
# 4 0.0000 0.0002 0.0006 -2.4618 0.0000 0.0000
# 5 0.0000 0.0000 0.0001 0.0000 43.5599 0.0000
# 6 -0.0001 -0.0001 -0.0001 0.0000 0.0000 25.3074
#
#
#
# Elastic Compliance Matrix: (Units=1/GPa)
#
#
# Indices 1 2 3 4 5 6 
#
# 1 0.010487 -0.003305 -0.001945 -0.000001 0.000000 0.000000
# 2 -0.003305 0.009799 -0.000353 0.000000 0.000000 0.000000
# 3 -0.001945 -0.000353 0.005949 0.000001 0.000000 0.000000
# 4 -0.000001 0.000000 0.000001 -0.406210 0.000000 0.000000
# 5 0.000000 0.000000 0.000000 0.000000 0.022957 0.000000
# 6 0.000000 0.000000 0.000000 0.000000 0.000000 0.039514
#
#
# Mechanical properties :
#
#
# Convention : Reuss Voigt Hill
#
# Bulk Modulus (GPa) = 66.53907 68.42316 67.48112
# Shear Modulus (GPa) = -16.59533 34.19260 8.79864
#
# Velocity S-wave (km/s) = -2.69746 3.87193 1.96413
# Velocity P-wave (km/s) = 4.41277 7.07033 5.89331
#
# Compressibility (1/GPa) = 0.01502876
#
# Stress axis : x y z
#
# Youngs Moduli (GPa) = 95.36017 102.05134 168.09795
#
# Poissons Ratio (x) = 0.33732 0.32688
# Poissons Ratio (y) = 0.31520 0.05931
# Poissons Ratio (z) = 0.18544 0.03601
#
# Static dielectric constant tensor:
#      x y z
#    x 1.840470 0.000000 0.000000 
#    y 0.000000 1.839050 0.000000 
#    z 0.000000 0.000000 1.850800 
# 
# From -- ./inp_files/1865.got.cif
#   From: 2010.05.17/outbox.cif.g08.bks.cpg/sg22_1_cif.got.tgz:1865.got - 2010.06.03 23:40:54.
