data_PCOD9327239
_publ_section_title
;
Structure prediction by ZEFSAII (Michael W. Deem and Ramdas Pophale) SiO2 
 PCOD9327239
Probable space group: F 2 2 2
;
_chemical_formula_sum "Si O2"
_cell_formula_units_Z 56
_cell_length_a 5.143625
_cell_length_b 15.171564
_cell_length_c 30.873456
_cell_angle_alpha 90.000000
_cell_angle_beta 90.000000
_cell_angle_gamma 90.000000
_cell_volume 2409.266819
_symmetry_space_group_name_H-M "F 2 2 2"
_symmetry_group_IT_number 22
_symmetry_cell_setting 'orthorhombic'
loop_
_space_group_symop_operation_xyz
x,y,z
-x,-y,z
x,-y,-z
-x,y,-z
x,1/2+y,1/2+z
-x,1/2-y,1/2+z
x,1/2-y,1/2-z
-x,1/2+y,1/2-z
1/2+x,y,1/2+z
1/2-x,-y,1/2+z
1/2+x,-y,1/2-z
1/2-x,y,1/2-z
1/2+x,1/2+y,z
1/2-x,1/2-y,z
1/2+x,1/2-y,-z
1/2-x,1/2+y,-z
loop_
_atom_site_type_symbol
_atom_site_label
_atom_site_fract_x
_atom_site_fract_y
_atom_site_fract_z
Si Si1 0.612952 0.090995 0.359135
Si Si2 0.997872 0.151867 0.230106
Si Si3 0.500000 0.188274 0.000000
Si Si4 0.856960 0.648751 0.093575
O O1 0.533454 0.158512 0.321186
O O2 0.410448 0.098117 0.398434
O O3 0.906859 0.113711 0.375150
O O4 0.500000 0.000000 0.338644
O O5 0.999384 0.250000 0.250000
O O6 0.750000 0.105161 0.250000
O O7 0.250000 0.108455 0.250000
O O8 0.250000 0.250000 0.992961
O O9 0.545031 0.137607 0.955332
O O10 0.750000 0.750000 0.098884
#
# Coordination Sequence:
#
# PCOD9327239 Si02
#       4
#    16  16   8  16
#     4  12  26  43  65 103 143 178 227 292 357 418
#     4  10  23  40  63  92 130 169 236 279 342 413
#     4  10  20  42  65 106 133 168 234 290 324 396
#     4  11  24  42  73  98 135 183 232 283 344 414
#
# _framework density 23.243583999999998
#
# number of rings (size 3 to 8) (size 9 to 14) (size 15 to 20)
#    0.000    1.143    0.000    6.857   12.000    1.143 
#    0.000    4.286    0.000    0.000    0.000    0.000 
#    0.000    0.000    0.000    0.000    0.000    0.000 
#
# Total GULP energy -77975.413371 kJ/mol
# GULP energy per Si atom -5569.672384 kJ/mol
# Density = 2.319068 g / cm^3
# Si number density = 23.243584 Si / 1000 Ang^3
#
#
#
# Elastic Constant Matrix: (Units=GPa)
#
#
# Indices 1 2 3 4 5 6 
#
# 1 199.8337 15.5191 21.2114 0.0000 0.0000 0.0000
# 2 15.5191 82.9829 14.4460 0.0000 0.0000 0.0000
# 3 21.2114 14.4460 111.6972 0.0000 0.0000 0.0000
# 4 0.0000 0.0000 0.0000 -7.2698 0.0000 0.0000
# 5 0.0000 0.0000 0.0000 0.0000 42.3745 0.0000
# 6 0.0000 0.0000 0.0000 0.0000 0.0000 22.3233
#
#
#
# Elastic Compliance Matrix: (Units=1/GPa)
#
#
# Indices 1 2 3 4 5 6 
#
# 1 0.005160 -0.000813 -0.000875 0.000000 0.000000 0.000000
# 2 -0.000813 0.012456 -0.001457 0.000000 0.000000 0.000000
# 3 -0.000875 -0.001457 0.009307 0.000000 0.000000 0.000000
# 4 0.000000 0.000000 0.000000 -0.137555 0.000000 0.000000
# 5 0.000000 0.000000 0.000000 0.000000 0.023599 0.000000
# 6 0.000000 0.000000 0.000000 0.000000 0.000000 0.044796
#
#
# Mechanical properties :
#
#
# Convention : Reuss Voigt Hill
#
# Bulk Modulus (GPa) = 48.46065 55.20742 51.83403
# Shear Modulus (GPa) = -172.00564 34.37474 -68.81545
#
# Velocity S-wave (km/s) = -8.61174 3.84981 -5.44706
# Velocity P-wave (km/s) = 8.83110 6.60035 4.14872
#
# Compressibility (1/GPa) = 0.02063530
#
# Stress axis : x y z
#
# Youngs Moduli (GPa) = 193.79343 80.28095 107.44258
#
# Poissons Ratio (x) = 0.06525 0.09399
# Poissons Ratio (y) = 0.15750 0.15651
# Poissons Ratio (z) = 0.16953 0.11694
#
# Static dielectric constant tensor:
#      x y z
#    x 1.875610 0.000000 0.000000 
#    y 0.000000 2.153420 0.000000 
#    z 0.000000 0.000000 1.951100 
# 
# From -- ./inp_files/1902.got.cif
#   From: 2010.05.17/outbox.cif.g08.bks.cpg/sg22_1_cif.got.tgz:1902.got - 2010.06.03 23:40:54.
