data_PCOD9327094
_publ_section_title
;
Structure prediction by ZEFSAII (Michael W. Deem and Ramdas Pophale) SiO2 
 PCOD9327094
Probable space group: F 2 2 2
;
_chemical_formula_sum "Si O2"
_cell_formula_units_Z 108
_cell_length_a 19.384624
_cell_length_b 14.641632
_cell_length_c 14.206142
_cell_angle_alpha 90.000000
_cell_angle_beta 90.000000
_cell_angle_gamma 90.000000
_cell_volume 4032.023179
_symmetry_space_group_name_H-M "F 2 2 2"
_symmetry_group_IT_number 22
_symmetry_cell_setting 'orthorhombic'
loop_
_space_group_symop_operation_xyz
x,y,z
-x,-y,z
x,-y,-z
-x,y,-z
x,1/2+y,1/2+z
-x,1/2-y,1/2+z
x,1/2-y,1/2-z
-x,1/2+y,1/2-z
1/2+x,y,1/2+z
1/2-x,-y,1/2+z
1/2+x,-y,1/2-z
1/2-x,y,1/2-z
1/2+x,1/2+y,z
1/2-x,1/2-y,z
1/2+x,1/2-y,-z
1/2-x,1/2+y,-z
loop_
_atom_site_type_symbol
_atom_site_label
_atom_site_fract_x
_atom_site_fract_y
_atom_site_fract_z
Si Si1 0.925819 0.947589 0.295166
Si Si2 0.672378 0.087485 0.644708
Si Si3 0.247689 0.860223 0.360976
Si Si4 0.280121 0.500000 0.500000
Si Si5 0.888157 0.848086 0.961867
Si Si6 0.430354 0.662688 0.537886
Si Si7 0.004552 0.306933 0.672996
Si Si8 0.750000 0.750000 0.250000
O O1 0.861736 0.973476 0.227863
O O2 0.896236 0.913228 0.395663
O O3 0.951392 0.860436 0.236072
O O4 0.000000 0.000000 0.305153
O O5 0.615795 0.106651 0.563581
O O6 0.701454 0.182302 0.689217
O O7 0.736351 0.050855 0.583096
O O8 0.250000 0.882636 0.250000
O O9 0.250000 0.750000 0.367111
O O10 0.321013 0.880714 0.408706
O O11 0.194287 0.915701 0.430338
O O12 0.951574 0.870456 0.894726
O O13 0.891219 0.736881 0.973591
O O14 0.500000 0.615389 0.500000
O O15 0.466988 0.736010 0.606636
O O16 0.049766 0.250000 0.750000
#
# Coordination Sequence:
#
# PCOD9327094 Si02
#       8
#    16  16  16   8  16  16  16   4
#     4  11  23  38  64 102 148 179 225 299 386 460
#     4  11  25  44  69 107 141 190 259 315 385 453
#     4  10  24  45  71  98 137 188 248 317 382 461
#     4  10  26  46  67 102 144 182 245 332 386 468
#     4  10  20  38  68  95 130 176 239 308 368 448
#     4   9  18  38  62  91 130 179 230 286 345 449
#     4   9  19  35  60  91 127 174 218 282 360 436
#     4  12  28  48  84  96 140 220 280 318 372 460
#
# _framework density 26.785561000000001
#
# number of rings (size 3 to 8) (size 9 to 14) (size 15 to 20)
#    0.000    1.926    1.481    0.889   12.444    0.296 
#    0.000    0.000    0.000    0.000    0.000    0.000 
#    0.000    0.000    0.000    0.000    0.000    0.000 
#
# Total GULP energy -150453.113162 kJ/mol
# GULP energy per Si atom -5572.337525 kJ/mol
# Density = 2.672460 g / cm^3
# Si number density = 26.785561 Si / 1000 Ang^3
#
#
#
# Elastic Constant Matrix: (Units=GPa)
#
#
# Indices 1 2 3 4 5 6 
#
# 1 44.0712 12.1556 18.0055 0.0000 0.0000 0.0000
# 2 12.1556 97.6107 35.6316 0.0000 0.0000 0.0000
# 3 18.0055 35.6316 148.3049 0.0000 0.0000 0.0000
# 4 0.0000 0.0000 0.0000 62.6622 0.0000 0.0000
# 5 0.0000 0.0000 0.0000 0.0000 36.1247 0.0000
# 6 0.0000 0.0000 0.0000 0.0000 0.0000 40.6039
#
#
#
# Elastic Compliance Matrix: (Units=1/GPa)
#
#
# Indices 1 2 3 4 5 6 
#
# 1 0.024274 -0.002134 -0.002434 0.000000 0.000000 0.000000
# 2 -0.002134 0.011417 -0.002484 0.000000 0.000000 0.000000
# 3 -0.002434 -0.002484 0.007635 0.000000 0.000000 0.000000
# 4 0.000000 0.000000 0.000000 0.015959 0.000000 0.000000
# 5 0.000000 0.000000 0.000000 0.000000 0.027682 0.000000
# 6 0.000000 0.000000 0.000000 0.000000 0.000000 0.024628
#
#
# Mechanical properties :
#
#
# Convention : Reuss Voigt Hill
#
# Bulk Modulus (GPa) = 34.22169 46.84136 40.53152
# Shear Modulus (GPa) = 36.91662 42.82443 39.87053
#
# Velocity S-wave (km/s) = 3.71648 4.00282 3.86230
# Velocity P-wave (km/s) = 5.58750 6.23610 5.92069
#
# Compressibility (1/GPa) = 0.02922124
#
# Stress axis : x y z
#
# Youngs Moduli (GPa) = 41.19680 87.58631 130.97213
#
# Poissons Ratio (x) = 0.18693 0.31882
# Poissons Ratio (y) = 0.08792 0.32533
# Poissons Ratio (z) = 0.10028 0.21756
#
# Static dielectric constant tensor:
#      x y z
#    x 1.620310 0.000000 0.000000 
#    y 0.000000 2.224870 0.000000 
#    z 0.000000 0.000000 2.149630 
# 
# From -- ./inp_files/32546.got.cif
#   From: 2010.05.17/outbox.cif.g08.bks.cpg/sg22_17_cif.got.tgz:32546.got - 2010.06.03 23:40:54.
