data_PCOD9327561
_publ_section_title
;
Structure prediction by ZEFSAII (Michael W. Deem and Ramdas Pophale) SiO2 
 PCOD9327561
Probable space group: F 2 2 2
;
_chemical_formula_sum "Si O2"
_cell_formula_units_Z 88
_cell_length_a 10.056525
_cell_length_b 14.591601
_cell_length_c 25.453712
_cell_angle_alpha 90.000000
_cell_angle_beta 90.000000
_cell_angle_gamma 90.000000
_cell_volume 3735.098068
_symmetry_space_group_name_H-M "F 2 2 2"
_symmetry_group_IT_number 22
_symmetry_cell_setting 'orthorhombic'
loop_
_space_group_symop_operation_xyz
x,y,z
-x,-y,z
x,-y,-z
-x,y,-z
x,1/2+y,1/2+z
-x,1/2-y,1/2+z
x,1/2-y,1/2-z
-x,1/2+y,1/2-z
1/2+x,y,1/2+z
1/2-x,-y,1/2+z
1/2+x,-y,1/2-z
1/2-x,y,1/2-z
1/2+x,1/2+y,z
1/2-x,1/2-y,z
1/2+x,1/2-y,-z
1/2-x,1/2+y,-z
loop_
_atom_site_type_symbol
_atom_site_label
_atom_site_fract_x
_atom_site_fract_y
_atom_site_fract_z
Si Si1 0.527474 0.696800 0.396226
Si Si2 0.220865 0.444864 0.672575
Si Si3 0.750000 0.750000 0.845536
Si Si4 0.500000 0.784455 0.500000
Si Si5 0.643036 0.049343 0.449940
Si Si6 0.750000 0.586757 0.250000
Si Si7 0.500000 0.000000 0.145306
Si Si8 0.250000 0.750000 0.825908
O O1 0.375287 0.716535 0.379897
O O2 0.559627 0.721540 0.455410
O O3 0.547801 0.588788 0.386888
O O4 0.622194 0.763923 0.362433
O O5 0.198268 0.338837 0.685772
O O6 0.196909 0.454176 0.609555
O O7 0.162441 0.520628 0.711959
O O8 0.377206 0.465624 0.679298
O O9 0.393391 0.849707 0.470851
O O10 0.500000 0.000000 0.445093
O O11 0.713822 0.000000 0.500000
O O12 0.798278 0.662785 0.207763
#
# Coordination Sequence:
#
# PCOD9327561 Si02
#       8
#    16  16   8   8  16   8   8   8
#     4  11  23  46  72 103 155 184 248 292 374 439
#     4  11  22  48  66 102 140 187 238 303 354 445
#     4  10  24  44  70  99 145 187 232 307 362 434
#     4  10  21  39  70 112 130 200 228 301 347 454
#     4   9  21  39  66 102 138 176 240 287 349 423
#     4  11  26  45  74 104 136 195 250 301 380 424
#     4  10  24  45  64  96 148 190 231 306 356 436
#     4  11  26  49  70 107 145 197 238 317 354 463
#
# _framework density 23.560290999999999
#
# number of rings (size 3 to 8) (size 9 to 14) (size 15 to 20)
#    0.000    1.818    3.636    0.000    5.091    1.455 
#   11.455    0.000    0.000    0.000    0.000    0.000 
#    0.000    0.000    0.000    0.000    0.000    0.000 
#
# Total GULP energy -122568.547844 kJ/mol
# GULP energy per Si atom -5571.297629 kJ/mol
# Density = 2.350667 g / cm^3
# Si number density = 23.560291 Si / 1000 Ang^3
#
#
#
# Elastic Constant Matrix: (Units=GPa)
#
#
# Indices 1 2 3 4 5 6 
#
# 1 64.8756 -9.5643 8.8811 0.0000 0.0000 0.0000
# 2 -9.5643 148.4051 45.3480 0.0000 0.0000 0.0000
# 3 8.8811 45.3480 162.1591 0.0000 0.0000 0.0000
# 4 0.0000 0.0000 0.0000 27.1799 0.0000 0.0000
# 5 0.0000 0.0000 0.0000 0.0000 7.5025 0.0000
# 6 0.0000 0.0000 0.0000 0.0000 0.0000 15.7582
#
#
#
# Elastic Compliance Matrix: (Units=1/GPa)
#
#
# Indices 1 2 3 4 5 6 
#
# 1 0.015793 0.001402 -0.001257 0.000000 0.000000 0.000000
# 2 0.001402 0.007492 -0.002172 0.000000 0.000000 0.000000
# 3 -0.001257 -0.002172 0.006843 0.000000 0.000000 0.000000
# 4 0.000000 0.000000 0.000000 0.036792 0.000000 0.000000
# 5 0.000000 0.000000 0.000000 0.000000 0.133288 0.000000
# 6 0.000000 0.000000 0.000000 0.000000 0.000000 0.063459
#
#
# Mechanical properties :
#
#
# Convention : Reuss Voigt Hill
#
# Bulk Modulus (GPa) = 38.35229 51.64104 44.99666
# Shear Modulus (GPa) = 18.08886 32.13978 25.11432
#
# Velocity S-wave (km/s) = 2.77387 3.69745 3.26845
# Velocity P-wave (km/s) = 5.15489 6.33991 5.77786
#
# Compressibility (1/GPa) = 0.02607406
#
# Stress axis : x y z
#
# Youngs Moduli (GPa) = 63.31968 133.46919 146.13396
#
# Poissons Ratio (x) = -0.18711 0.18369
# Poissons Ratio (y) = -0.08877 0.31741
# Poissons Ratio (z) = 0.07959 0.28990
#
# Static dielectric constant tensor:
#      x y z
#    x 1.916490 0.000000 0.000000 
#    y 0.000000 1.976860 0.000000 
#    z 0.000000 0.000000 1.972040 
# 
# From -- ./inp_files/48837.got.cif
#   From: 2010.05.17/outbox.cif.g08.bks.cpg/sg22_25_cif.got.tgz:48837.got - 2010.06.03 23:40:54.
