data_PCOD9327454
_publ_section_title
;
Structure prediction by ZEFSAII (Michael W. Deem and Ramdas Pophale) SiO2 
 PCOD9327454
Probable space group: F 2 2 2
;
_chemical_formula_sum "Si O2"
_cell_formula_units_Z 88
_cell_length_a 24.071123
_cell_length_b 9.394649
_cell_length_c 18.663230
_cell_angle_alpha 90.000000
_cell_angle_beta 90.000000
_cell_angle_gamma 90.000000
_cell_volume 4220.498197
_symmetry_space_group_name_H-M "F 2 2 2"
_symmetry_group_IT_number 22
_symmetry_cell_setting 'orthorhombic'
loop_
_space_group_symop_operation_xyz
x,y,z
-x,-y,z
x,-y,-z
-x,y,-z
x,1/2+y,1/2+z
-x,1/2-y,1/2+z
x,1/2-y,1/2-z
-x,1/2+y,1/2-z
1/2+x,y,1/2+z
1/2-x,-y,1/2+z
1/2+x,-y,1/2-z
1/2-x,y,1/2-z
1/2+x,1/2+y,z
1/2-x,1/2-y,z
1/2+x,1/2-y,-z
1/2-x,1/2+y,-z
loop_
_atom_site_type_symbol
_atom_site_label
_atom_site_fract_x
_atom_site_fract_y
_atom_site_fract_z
Si Si1 0.261086 0.085155 0.170443
Si Si2 0.887231 0.250000 0.250000
Si Si3 0.547486 0.619643 0.619351
Si Si4 0.306012 0.652385 0.127134
Si Si5 0.141662 0.921216 0.565123
Si Si6 0.905598 0.666851 0.517469
O O1 0.250000 0.025692 0.250000
O O2 0.250000 0.250000 0.172636
O O3 0.321306 0.071335 0.136124
O O4 0.217301 0.005813 0.120971
O O5 0.927427 0.336427 0.196278
O O6 0.844841 0.331677 0.302765
O O7 0.500000 0.500000 0.626840
O O8 0.593442 0.532681 0.576976
O O9 0.545724 0.761083 0.567780
O O10 0.250000 0.750000 0.130146
O O11 0.348748 0.679408 0.063745
O O12 0.112123 0.770138 0.548635
O O13 0.174781 0.000000 0.500000
O O14 0.916030 0.500000 0.500000
#
# Coordination Sequence:
#
# PCOD9327454 Si02
#       6
#    16   8  16  16  16  16
#     4  11  22  34  52  84 124 166 205 249 311 380
#     4  10  21  40  64  90 120 158 215 266 314 390
#     4  10  22  43  67  88 118 162 208 266 334 387
#     4  11  20  34  60  90 126 169 204 245 308 388
#     4  10  21  38  60  88 123 164 209 259 318 386
#     4  10  22  38  60  93 128 163 212 267 315 381
#
# _framework density 20.850618999999998
#
# number of rings (size 3 to 8) (size 9 to 14) (size 15 to 20)
#    0.000    1.636    0.000    6.818    0.000    7.636 
#    0.000    9.091    0.000    0.000    0.000    0.000 
#    0.000    0.000    0.000    0.000    0.000    0.000 
#
# Total GULP energy -122499.586046 kJ/mol
# GULP energy per Si atom -5568.163002 kJ/mol
# Density = 2.080316 g / cm^3
# Si number density = 20.850619 Si / 1000 Ang^3
#
#
#
# Elastic Constant Matrix: (Units=GPa)
#
#
# Indices 1 2 3 4 5 6 
#
# 1 66.3148 40.6867 23.8381 0.0000 0.0000 0.0000
# 2 40.6867 140.3818 39.3633 0.0000 0.0000 0.0000
# 3 23.8381 39.3633 82.9755 0.0000 0.0000 0.0000
# 4 0.0000 0.0000 0.0000 2.8954 0.0000 0.0000
# 5 0.0000 0.0000 0.0000 0.0000 20.3068 0.0000
# 6 0.0000 0.0000 0.0000 0.0000 0.0000 12.7540
#
#
#
# Elastic Compliance Matrix: (Units=1/GPa)
#
#
# Indices 1 2 3 4 5 6 
#
# 1 0.019093 -0.004609 -0.003299 0.000000 0.000000 0.000000
# 2 -0.004609 0.009329 -0.003102 0.000000 0.000000 0.000000
# 3 -0.003299 -0.003102 0.014471 0.000000 0.000000 0.000000
# 4 0.000000 0.000000 0.000000 0.345371 0.000000 0.000000
# 5 0.000000 0.000000 0.000000 0.000000 0.049245 0.000000
# 6 0.000000 0.000000 0.000000 0.000000 0.000000 0.078407
#
#
# Mechanical properties :
#
#
# Convention : Reuss Voigt Hill
#
# Bulk Modulus (GPa) = 47.90542 55.27204 51.58873
# Shear Modulus (GPa) = 9.17614 19.57683 14.37648
#
# Velocity S-wave (km/s) = 2.10011 3.06749 2.62868
# Velocity P-wave (km/s) = 5.37643 6.25397 5.83173
#
# Compressibility (1/GPa) = 0.02087447
#
# Stress axis : x y z
#
# Youngs Moduli (GPa) = 52.37503 107.19444 69.10441
#
# Poissons Ratio (x) = 0.49403 0.22797
# Poissons Ratio (y) = 0.24138 0.21433
# Poissons Ratio (z) = 0.17278 0.33247
#
# Static dielectric constant tensor:
#      x y z
#    x 1.893010 0.000000 0.000000 
#    y 0.000000 1.798030 0.000000 
#    z 0.000000 0.000000 1.932630 
# 
# From -- ./inp_files/12660.got.cif
#   From: 2010.05.17/outbox.cif.g08.bks.cpg/sg22_7_cif.got.tgz:12660.got - 2010.06.03 23:40:54.
