data_PCOD9327642
_publ_section_title
;
Structure prediction by ZEFSAII (Michael W. Deem and Ramdas Pophale) SiO2 
 PCOD9327642
Probable space group: F 2 2 2
;
_chemical_formula_sum "Si O2"
_cell_formula_units_Z 56
_cell_length_a 23.994916
_cell_length_b 11.909361
_cell_length_c 9.136184
_cell_angle_alpha 90.000000
_cell_angle_beta 90.000000
_cell_angle_gamma 90.000000
_cell_volume 2610.793552
_symmetry_space_group_name_H-M "F 2 2 2"
_symmetry_group_IT_number 22
_symmetry_cell_setting 'orthorhombic'
loop_
_space_group_symop_operation_xyz
x,y,z
-x,-y,z
x,-y,-z
-x,y,-z
x,1/2+y,1/2+z
-x,1/2-y,1/2+z
x,1/2-y,1/2-z
-x,1/2+y,1/2-z
1/2+x,y,1/2+z
1/2-x,-y,1/2+z
1/2+x,-y,1/2-z
1/2-x,y,1/2-z
1/2+x,1/2+y,z
1/2-x,1/2-y,z
1/2+x,1/2-y,-z
1/2-x,1/2+y,-z
loop_
_atom_site_type_symbol
_atom_site_label
_atom_site_fract_x
_atom_site_fract_y
_atom_site_fract_z
Si Si1 0.250000 0.750000 0.750000
Si Si2 0.940365 0.333266 0.937987
Si Si3 0.250000 0.750000 0.250000
Si Si4 0.442277 0.068784 0.365944
Si Si5 0.179741 0.631657 0.006907
O O1 0.208343 0.816505 0.639806
O O2 0.949140 0.200317 0.905443
O O3 0.922400 0.412701 0.800499
O O4 0.884742 0.335977 0.032206
O O5 0.000000 0.371173 0.000000
O O6 0.213088 0.675416 0.144756
O O7 0.500000 0.000000 0.351746
O O8 0.412653 0.000000 0.500000
O O9 0.184777 0.500000 0.000000
#
# Coordination Sequence:
#
# PCOD9327642 Si02
#       5
#     4  16   4  16  16
#     4  10  22  50  70  92 136 174 254 288 332 420
#     4  11  24  40  66 107 142 176 234 279 347 438
#     4  10  26  50  74 104 136 182 250 288 344 416
#     4  10  21  41  62  89 144 193 218 275 335 404
#     4  11  25  45  73 103 136 187 228 297 351 404
#
# _framework density 21.449417
#
# number of rings (size 3 to 8) (size 9 to 14) (size 15 to 20)
#    0.000    1.429    2.857    2.571    4.000    4.571 
#    0.000    7.143    0.000    0.000    0.000    0.000 
#    0.000    0.000    0.000    0.000    0.000    0.000 
#
# Total GULP energy -77992.535996 kJ/mol
# GULP energy per Si atom -5570.895428 kJ/mol
# Density = 2.140060 g / cm^3
# Si number density = 21.449417 Si / 1000 Ang^3
#
#
#
# Elastic Constant Matrix: (Units=GPa)
#
#
# Indices 1 2 3 4 5 6 
#
# 1 153.0437 47.7339 55.3501 0.0000 0.0000 0.0000
# 2 47.7339 148.1864 42.1629 0.0000 0.0000 0.0000
# 3 55.3501 42.1629 114.7864 0.0000 0.0000 0.0000
# 4 0.0000 0.0000 0.0000 14.5338 0.0000 0.0000
# 5 0.0000 0.0000 0.0000 0.0000 -3.3279 0.0000
# 6 0.0000 0.0000 0.0000 0.0000 0.0000 19.5256
#
#
#
# Elastic Compliance Matrix: (Units=1/GPa)
#
#
# Indices 1 2 3 4 5 6 
#
# 1 0.008285 -0.001711 -0.003367 0.000000 0.000000 0.000000
# 2 -0.001711 0.007889 -0.002073 0.000000 0.000000 0.000000
# 3 -0.003367 -0.002073 0.011097 0.000000 0.000000 0.000000
# 4 0.000000 0.000000 0.000000 0.068805 0.000000 0.000000
# 5 0.000000 0.000000 0.000000 0.000000 -0.300494 0.000000
# 6 0.000000 0.000000 0.000000 0.000000 0.000000 0.051215
#
#
# Mechanical properties :
#
#
# Convention : Reuss Voigt Hill
#
# Bulk Modulus (GPa) = 77.09993 78.50114 77.80053
# Shear Modulus (GPa) = -37.15298 24.19763 -6.47768
#
# Velocity S-wave (km/s) = -4.16639 3.36240 -1.73969
# Velocity P-wave (km/s) = 3.58859 7.19389 5.68463
#
# Compressibility (1/GPa) = 0.01297018
#
# Stress axis : x y z
#
# Youngs Moduli (GPa) = 120.69500 126.75632 90.11733
#
# Poissons Ratio (x) = 0.21687 0.30340
# Poissons Ratio (y) = 0.20650 0.18679
# Poissons Ratio (z) = 0.40635 0.26274
#
# Static dielectric constant tensor:
#      x y z
#    x 1.804120 0.000000 0.000000 
#    y 0.000000 1.752300 0.000000 
#    z 0.000000 0.000000 1.919680 
# 
# From -- ./inp_files/14348.got.cif
#   From: 2010.05.17/outbox.cif.g08.bks.cpg/sg22_8_cif.got.tgz:14348.got - 2010.06.03 23:40:54.
