data_PCOD9327614
_publ_section_title
;
Structure prediction by ZEFSAII (Michael W. Deem and Ramdas Pophale) SiO2 
 PCOD9327614
Probable space group: F 2 2 2
;
_chemical_formula_sum "Si O2"
_cell_formula_units_Z 56
_cell_length_a 22.179484
_cell_length_b 7.386887
_cell_length_c 16.428894
_cell_angle_alpha 90.000000
_cell_angle_beta 90.000000
_cell_angle_gamma 90.000000
_cell_volume 2691.666325
_symmetry_space_group_name_H-M "F 2 2 2"
_symmetry_group_IT_number 22
_symmetry_cell_setting 'orthorhombic'
loop_
_space_group_symop_operation_xyz
x,y,z
-x,-y,z
x,-y,-z
-x,y,-z
x,1/2+y,1/2+z
-x,1/2-y,1/2+z
x,1/2-y,1/2-z
-x,1/2+y,1/2-z
1/2+x,y,1/2+z
1/2-x,-y,1/2+z
1/2+x,-y,1/2-z
1/2-x,y,1/2-z
1/2+x,1/2+y,z
1/2-x,1/2-y,z
1/2+x,1/2-y,-z
1/2-x,1/2+y,-z
loop_
_atom_site_type_symbol
_atom_site_label
_atom_site_fract_x
_atom_site_fract_y
_atom_site_fract_z
Si Si1 0.865932 0.401830 0.075440
Si Si2 0.250000 0.750000 0.979427
Si Si3 0.429708 0.036583 0.596449
Si Si4 0.833703 0.727168 0.341498
O O1 0.905064 0.239350 0.110768
O O2 0.849210 0.568247 0.132309
O O3 0.899624 0.500000 0.000000
O O4 0.803140 0.326204 0.036303
O O5 0.211203 0.858581 0.910343
O O6 0.500000 0.000000 0.609744
O O7 0.417720 0.000000 0.500000
O O8 0.391946 0.898005 0.650781
O O9 0.812298 0.750000 0.250000
#
# Coordination Sequence:
#
# PCOD9327614 Si02
#       4
#    16   8  16  16
#     4  10  22  40  69  96 126 176 215 270 323 385
#     4  10  21  40  66  95 132 172 214 266 321 394
#     4  11  23  43  70  99 127 175 229 266 319 399
#     4  11  25  43  65 103 134 171 213 278 338 386
#
# _framework density 20.804956000000001
#
# number of rings (size 3 to 8) (size 9 to 14) (size 15 to 20)
#    0.000    1.429    5.714    0.429   12.000    2.286 
#    5.143    0.000    0.000    0.000    0.000    0.000 
#    0.000    0.000    0.000    0.000    0.000    0.000 
#
# Total GULP energy -77988.831622 kJ/mol
# GULP energy per Si atom -5570.630830 kJ/mol
# Density = 2.075760 g / cm^3
# Si number density = 20.804956 Si / 1000 Ang^3
#
#
#
# Elastic Constant Matrix: (Units=GPa)
#
#
# Indices 1 2 3 4 5 6 
#
# 1 135.0457 70.8104 32.2170 0.0000 0.0000 0.0000
# 2 70.8104 146.8605 48.7109 0.0000 0.0000 0.0000
# 3 32.2170 48.7109 83.4028 0.0000 0.0000 0.0000
# 4 0.0000 0.0000 0.0000 18.6694 0.0000 0.0000
# 5 0.0000 0.0000 0.0000 0.0000 -59.8780 0.0000
# 6 0.0000 0.0000 0.0000 0.0000 0.0000 12.4726
#
#
#
# Elastic Compliance Matrix: (Units=1/GPa)
#
#
# Indices 1 2 3 4 5 6 
#
# 1 0.010023 -0.004401 -0.001301 0.000000 0.000000 0.000000
# 2 -0.004401 0.010378 -0.004361 0.000000 0.000000 0.000000
# 3 -0.001301 -0.004361 0.015040 0.000000 0.000000 0.000000
# 4 0.000000 0.000000 0.000000 0.053564 0.000000 0.000000
# 5 0.000000 0.000000 0.000000 0.000000 -0.016701 0.000000
# 6 0.000000 0.000000 0.000000 0.000000 0.000000 0.080176
#
#
# Mechanical properties :
#
#
# Convention : Reuss Voigt Hill
#
# Bulk Modulus (GPa) = 65.30101 74.30948 69.80525
# Shear Modulus (GPa) = 28.13569 8.49085 18.31327
#
# Velocity S-wave (km/s) = 3.68143 2.02238 2.97010
# Velocity P-wave (km/s) = 7.03747 6.42247 6.73699
#
# Compressibility (1/GPa) = 0.01531370
#
# Stress axis : x y z
#
# Youngs Moduli (GPa) = 99.77017 96.36069 66.49090
#
# Poissons Ratio (x) = 0.42409 0.08652
# Poissons Ratio (y) = 0.43910 0.28996
# Poissons Ratio (z) = 0.12983 0.42022
#
# Static dielectric constant tensor:
#      x y z
#    x 1.793630 0.000000 0.000000 
#    y 0.000000 1.824630 0.000000 
#    z 0.000000 0.000000 1.786030 
# 
# From -- ./inp_files/34758.got.cif
#   From: 2010.05.17/outbox.cif.g08.bks.cpg/sg22_18_cif.got.tgz:34758.got - 2010.06.03 23:40:54.
