data_PCOD9327409
_publ_section_title
;
Structure prediction by ZEFSAII (Michael W. Deem and Ramdas Pophale) SiO2 
 PCOD9327409
Probable space group: F 2 2 2
;
_chemical_formula_sum "Si O2"
_cell_formula_units_Z 96
_cell_length_a 11.657690
_cell_length_b 25.246883
_cell_length_c 16.124174
_cell_angle_alpha 90.000000
_cell_angle_beta 90.000000
_cell_angle_gamma 90.000000
_cell_volume 4745.672301
_symmetry_space_group_name_H-M "F 2 2 2"
_symmetry_group_IT_number 22
_symmetry_cell_setting 'orthorhombic'
loop_
_space_group_symop_operation_xyz
x,y,z
-x,-y,z
x,-y,-z
-x,y,-z
x,1/2+y,1/2+z
-x,1/2-y,1/2+z
x,1/2-y,1/2-z
-x,1/2+y,1/2-z
1/2+x,y,1/2+z
1/2-x,-y,1/2+z
1/2+x,-y,1/2-z
1/2-x,y,1/2-z
1/2+x,1/2+y,z
1/2-x,1/2-y,z
1/2+x,1/2-y,-z
1/2-x,1/2+y,-z
loop_
_atom_site_type_symbol
_atom_site_label
_atom_site_fract_x
_atom_site_fract_y
_atom_site_fract_z
Si Si1 0.473292 0.438931 0.402689
Si Si2 0.590029 0.846891 0.805845
Si Si3 0.771794 0.813233 0.923948
Si Si4 0.522014 0.164856 0.621520
Si Si5 0.398637 0.727047 0.658284
Si Si6 0.739287 0.868389 0.091544
O O1 0.500000 0.500000 0.384858
O O2 0.500000 0.430219 0.500000
O O3 0.552198 0.402470 0.344516
O O4 0.342661 0.418238 0.390610
O O5 0.718189 0.833380 0.836425
O O6 0.533274 0.841307 0.714360
O O7 0.519667 0.801427 0.854334
O O8 0.750000 0.750000 0.930982
O O9 0.905159 0.830051 0.929330
O O10 0.716297 0.846326 0.998877
O O11 0.590499 0.220005 0.605340
O O12 0.625183 0.123362 0.607886
O O13 0.386890 0.750000 0.750000
O O14 0.307489 0.680921 0.645998
#
# Coordination Sequence:
#
# PCOD9327409 Si02
#       6
#    16  16  16  16  16  16
#     4  10  21  42  71  90 112 152 216 282 334 386
#     4  10  21  37  61  88 121 168 216 256 308 391
#     4  12  22  36  57  90 136 180 216 250 304 393
#     4  11  22  35  56  87 133 171 203 254 326 385
#     4   9  19  34  53  82 121 162 203 247 309 378
#     4  11  23  37  60  92 126 162 220 274 324 379
#
# _framework density 20.228957000000001
#
# number of rings (size 3 to 8) (size 9 to 14) (size 15 to 20)
#    0.000    1.500    3.333    2.500    0.000    8.667 
#    0.000    0.000    7.333    0.000    0.000    0.000 
#    0.000    0.000    0.000    0.000    0.000    0.000 
#
# Total GULP energy -133679.189896 kJ/mol
# GULP energy per Si atom -5569.966246 kJ/mol
# Density = 2.018291 g / cm^3
# Si number density = 20.228957 Si / 1000 Ang^3
#
#
#
# Elastic Constant Matrix: (Units=GPa)
#
#
# Indices 1 2 3 4 5 6 
#
# 1 155.0552 48.4182 11.2682 0.0000 0.0000 0.0000
# 2 48.4182 110.5555 34.0950 0.0000 0.0000 0.0000
# 3 11.2682 34.0950 67.2843 0.0000 0.0000 0.0000
# 4 0.0000 0.0000 0.0000 14.9584 0.0000 0.0000
# 5 0.0000 0.0000 0.0000 0.0000 25.4783 0.0000
# 6 0.0000 0.0000 0.0000 0.0000 0.0000 7.1244
#
#
#
# Elastic Compliance Matrix: (Units=1/GPa)
#
#
# Indices 1 2 3 4 5 6 
#
# 1 0.007484 -0.003427 0.000483 0.000000 0.000000 0.000000
# 2 -0.003427 0.012290 -0.005654 0.000000 0.000000 0.000000
# 3 0.000483 -0.005654 0.017646 0.000000 0.000000 0.000000
# 4 0.000000 0.000000 0.000000 0.066852 0.000000 0.000000
# 5 0.000000 0.000000 0.000000 0.000000 0.039249 0.000000
# 6 0.000000 0.000000 0.000000 0.000000 0.000000 0.140364
#
#
# Mechanical properties :
#
#
# Convention : Reuss Voigt Hill
#
# Bulk Modulus (GPa) = 49.44263 57.82864 53.63563
# Shear Modulus (GPa) = 16.24319 25.45311 20.84815
#
# Velocity S-wave (km/s) = 2.83674 3.55103 3.21379
# Velocity P-wave (km/s) = 5.93498 6.74257 6.35162
#
# Compressibility (1/GPa) = 0.02022546
#
# Stress axis : x y z
#
# Youngs Moduli (GPa) = 133.61390 81.37016 56.66922
#
# Poissons Ratio (x) = 0.27883 -0.02737
# Poissons Ratio (y) = 0.45786 0.32038
# Poissons Ratio (z) = -0.06454 0.46003
#
# Static dielectric constant tensor:
#      x y z
#    x 1.836070 0.000000 0.000000 
#    y 0.000000 1.683220 0.000000 
#    z 0.000000 0.000000 1.829830 
# 
# From -- ./inp_files/21586.got.cif
#   From: 2010.05.17/outbox.cif.g08.bks.cpg/sg22_11_cif.got.tgz:21586.got - 2010.06.03 23:40:54.
