data_PCOD9327547
_publ_section_title
;
Structure prediction by ZEFSAII (Michael W. Deem and Ramdas Pophale) SiO2 
 PCOD9327547
Probable space group: F 2 2 2
;
_chemical_formula_sum "Si O2"
_cell_formula_units_Z 72
_cell_length_a 12.618542
_cell_length_b 10.502763
_cell_length_c 24.948659
_cell_angle_alpha 90.000000
_cell_angle_beta 90.000000
_cell_angle_gamma 90.000000
_cell_volume 3306.434701
_symmetry_space_group_name_H-M "F 2 2 2"
_symmetry_group_IT_number 22
_symmetry_cell_setting 'orthorhombic'
loop_
_space_group_symop_operation_xyz
x,y,z
-x,-y,z
x,-y,-z
-x,y,-z
x,1/2+y,1/2+z
-x,1/2-y,1/2+z
x,1/2-y,1/2-z
-x,1/2+y,1/2-z
1/2+x,y,1/2+z
1/2-x,-y,1/2+z
1/2+x,-y,1/2-z
1/2-x,y,1/2-z
1/2+x,1/2+y,z
1/2-x,1/2-y,z
1/2+x,1/2-y,-z
1/2-x,1/2+y,-z
loop_
_atom_site_type_symbol
_atom_site_label
_atom_site_fract_x
_atom_site_fract_y
_atom_site_fract_z
Si Si1 0.750000 0.250000 0.936271
Si Si2 0.197090 0.000000 0.500000
Si Si3 0.662882 0.349842 0.400488
Si Si4 0.971991 0.250000 0.250000
Si Si5 0.169856 0.479131 0.795794
Si Si6 0.937864 0.781042 0.352325
O O1 0.850897 0.248496 0.896359
O O2 0.745493 0.378308 0.972316
O O3 0.135877 0.057606 0.550555
O O4 0.750000 0.250000 0.419343
O O5 0.719305 0.417900 0.349669
O O6 0.551761 0.295100 0.380208
O O7 0.897593 0.364638 0.230129
O O8 0.041614 0.303408 0.299461
O O9 0.250000 0.524255 0.750000
O O10 0.100222 0.589941 0.822350
#
# Coordination Sequence:
#
# PCOD9327547 Si02
#       6
#     8   8  16   8  16  16
#     4  12  28  49  72 110 143 192 256 314 378 434
#     4  12  26  49  79 104 142 196 255 311 376 440
#     4  11  23  46  72 104 141 195 243 296 368 446
#     4  10  21  39  66 102 142 192 231 279 372 440
#     4  11  22  41  69 104 143 190 240 295 361 445
#     4  11  26  44  70 109 144 191 244 301 372 440
#
# _framework density 21.775721000000001
#
# number of rings (size 3 to 8) (size 9 to 14) (size 15 to 20)
#    0.000    0.889    3.333    5.667    3.111    1.778 
#    0.000    2.222    0.000    0.000    0.000    0.000 
#    0.000    0.000    0.000    0.000    0.000    0.000 
#
# Total GULP energy -100398.880039 kJ/mol
# GULP energy per Si atom -5577.715558 kJ/mol
# Density = 2.172616 g / cm^3
# Si number density = 21.775721 Si / 1000 Ang^3
#
#
#
# Elastic Constant Matrix: (Units=GPa)
#
#
# Indices 1 2 3 4 5 6 
#
# 1 111.3766 27.1973 60.4114 0.0000 0.0000 0.0000
# 2 27.1973 62.6907 38.3593 0.0000 0.0000 0.0000
# 3 60.4114 38.3593 180.0839 0.0000 0.0000 0.0000
# 4 0.0000 0.0000 0.0000 48.6185 0.0000 0.0000
# 5 0.0000 0.0000 0.0000 0.0000 13.5043 0.0000
# 6 0.0000 0.0000 0.0000 0.0000 0.0000 16.5363
#
#
#
# Elastic Compliance Matrix: (Units=1/GPa)
#
#
# Indices 1 2 3 4 5 6 
#
# 1 0.011449 -0.003009 -0.003200 0.000000 0.000000 0.000000
# 2 -0.003009 0.019133 -0.003066 0.000000 0.000000 0.000000
# 3 -0.003200 -0.003066 0.007279 0.000000 0.000000 0.000000
# 4 0.000000 0.000000 0.000000 0.020568 0.000000 0.000000
# 5 0.000000 0.000000 0.000000 0.000000 0.074051 0.000000
# 6 0.000000 0.000000 0.000000 0.000000 0.000000 0.060473
#
#
# Mechanical properties :
#
#
# Convention : Reuss Voigt Hill
#
# Bulk Modulus (GPa) = 51.78250 67.34302 59.56276
# Shear Modulus (GPa) = 22.94212 30.94403 26.94308
#
# Velocity S-wave (km/s) = 3.24939 3.77375 3.52134
# Velocity P-wave (km/s) = 6.15707 7.06973 6.62913
#
# Compressibility (1/GPa) = 0.01931154
#
# Stress axis : x y z
#
# Youngs Moduli (GPa) = 87.34474 52.26630 137.37314
#
# Poissons Ratio (x) = 0.15727 0.43956
# Poissons Ratio (y) = 0.26282 0.42119
# Poissons Ratio (z) = 0.27948 0.16025
#
# Static dielectric constant tensor:
#      x y z
#    x 1.836280 0.000000 0.000000 
#    y 0.000000 1.925700 0.000000 
#    z 0.000000 0.000000 1.863410 
# 
# From -- ./inp_files/52486.got.cif
#   From: 2010.05.17/outbox.cif.g08.bks.cpg/sg22_27_cif.got.tgz:52486.got - 2010.06.03 23:40:54.
