data_PCOD9327461
_publ_section_title
;
Structure prediction by ZEFSAII (Michael W. Deem and Ramdas Pophale) SiO2 
 PCOD9327461
Probable space group: F 2 2 2
;
_chemical_formula_sum "Si O2"
_cell_formula_units_Z 116
_cell_length_a 15.516054
_cell_length_b 23.194242
_cell_length_c 16.728174
_cell_angle_alpha 90.000000
_cell_angle_beta 90.000000
_cell_angle_gamma 90.000000
_cell_volume 6020.187307
_symmetry_space_group_name_H-M "F 2 2 2"
_symmetry_group_IT_number 22
_symmetry_cell_setting 'orthorhombic'
loop_
_space_group_symop_operation_xyz
x,y,z
-x,-y,z
x,-y,-z
-x,y,-z
x,1/2+y,1/2+z
-x,1/2-y,1/2+z
x,1/2-y,1/2-z
-x,1/2+y,1/2-z
1/2+x,y,1/2+z
1/2-x,-y,1/2+z
1/2+x,-y,1/2-z
1/2-x,y,1/2-z
1/2+x,1/2+y,z
1/2-x,1/2-y,z
1/2+x,1/2-y,-z
1/2-x,1/2+y,-z
loop_
_atom_site_type_symbol
_atom_site_label
_atom_site_fract_x
_atom_site_fract_y
_atom_site_fract_z
Si Si1 0.813947 0.950616 0.322457
Si Si2 0.695462 0.116035 0.982460
Si Si3 0.923813 0.788658 0.435623
Si Si4 0.530252 0.662030 0.113231
Si Si5 0.884848 0.396981 0.475664
Si Si6 0.500000 0.500000 0.000000
Si Si7 0.525961 0.126262 0.793546
Si Si8 0.580042 0.454688 0.401557
O O1 0.750000 0.958623 0.250000
O O2 0.785161 0.908824 0.394413
O O3 0.899134 0.921040 0.287084
O O4 0.841866 0.008892 0.365692
O O5 0.661119 0.181332 0.972947
O O6 0.782886 0.107301 0.032303
O O7 0.616651 0.078702 0.020735
O O8 0.945126 0.826066 0.357345
O O9 0.000000 0.795621 0.500000
O O10 0.925520 0.722574 0.408267
O O11 0.589633 0.614700 0.068505
O O12 0.515630 0.652824 0.206482
O O13 0.437012 0.652593 0.071564
O O14 0.933176 0.457050 0.454465
O O15 0.448504 0.092395 0.836246
O O16 0.500000 0.500000 0.413185
#
# Coordination Sequence:
#
# PCOD9327461 Si02
#       8
#    16  16  16  16  16   4  16  16
#     4  10  22  37  55  88 128 160 205 264 312 379
#     4  11  23  37  65  93 124 163 215 263 314 386
#     4  11  20  39  65  88 120 158 203 264 321 370
#     4  10  21  42  61  87 123 161 211 256 318 381
#     4  10  22  40  60  91 123 163 213 256 302 391
#     4   8  20  40  56  84 126 172 202 236 318 380
#     4  10  21  38  61  87 120 163 207 254 322 388
#     4  10  22  38  58  91 126 168 206 260 323 384
#
# _framework density 19.268504
#
# number of rings (size 3 to 8) (size 9 to 14) (size 15 to 20)
#    0.000    1.931    2.759    1.655    1.931    4.414 
#   17.379    0.000    0.000    2.483    3.586    0.000 
#    0.000    0.000    0.000    0.000    0.000    0.000 
#
# Total GULP energy -161640.738790 kJ/mol
# GULP energy per Si atom -5573.818579 kJ/mol
# Density = 1.922465 g / cm^3
# Si number density = 19.268504 Si / 1000 Ang^3
#
#
#
# Elastic Constant Matrix: (Units=GPa)
#
#
# Indices 1 2 3 4 5 6 
#
# 1 80.6023 24.2613 17.7039 0.0000 0.0000 0.0000
# 2 24.2613 94.3408 15.9671 0.0000 0.0000 0.0000
# 3 17.7039 15.9671 100.4049 0.0000 0.0000 0.0000
# 4 0.0000 0.0000 0.0000 21.9602 0.0000 0.0000
# 5 0.0000 0.0000 0.0000 0.0000 25.0637 0.0000
# 6 0.0000 0.0000 0.0000 0.0000 0.0000 19.5706
#
#
#
# Elastic Compliance Matrix: (Units=1/GPa)
#
#
# Indices 1 2 3 4 5 6 
#
# 1 0.013799 -0.003224 -0.001920 0.000000 0.000000 0.000000
# 2 -0.003224 0.011646 -0.001284 0.000000 0.000000 0.000000
# 3 -0.001920 -0.001284 0.010502 0.000000 0.000000 0.000000
# 4 0.000000 0.000000 0.000000 0.045537 0.000000 0.000000
# 5 0.000000 0.000000 0.000000 0.000000 0.039898 0.000000
# 6 0.000000 0.000000 0.000000 0.000000 0.000000 0.051097
#
#
# Mechanical properties :
#
#
# Convention : Reuss Voigt Hill
#
# Bulk Modulus (GPa) = 43.30505 43.46808 43.38656
# Shear Modulus (GPa) = 25.90242 27.81328 26.85785
#
# Velocity S-wave (km/s) = 3.67043 3.80341 3.73751
# Velocity P-wave (km/s) = 6.36287 6.47271 6.41802
#
# Compressibility (1/GPa) = 0.02309199
#
# Stress axis : x y z
#
# Youngs Moduli (GPa) = 72.47063 85.86557 95.21606
#
# Poissons Ratio (x) = 0.27679 0.18286
# Poissons Ratio (y) = 0.23361 0.12222
# Poissons Ratio (z) = 0.13917 0.11022
#
# Static dielectric constant tensor:
#      x y z
#    x 1.704640 0.000000 0.000000 
#    y 0.000000 1.719070 0.000000 
#    z 0.000000 0.000000 1.686260 
# 
# From -- ./inp_files/37378.got.cif
#   From: 2010.05.17/outbox.cif.g08.bks.cpg/sg22_19_cif.got.tgz:37378.got - 2010.06.03 23:40:54.
