data_PCOD9327854
_publ_section_title
;
Structure prediction by ZEFSAII (Michael W. Deem and Ramdas Pophale) SiO2 
 PCOD9327854
Probable space group: F 2 2 2
;
_chemical_formula_sum "Si O2"
_cell_formula_units_Z 72
_cell_length_a 27.361098
_cell_length_b 11.063104
_cell_length_c 10.586278
_cell_angle_alpha 90.000000
_cell_angle_beta 90.000000
_cell_angle_gamma 90.000000
_cell_volume 3204.452300
_symmetry_space_group_name_H-M "F 2 2 2"
_symmetry_group_IT_number 22
_symmetry_cell_setting 'orthorhombic'
loop_
_space_group_symop_operation_xyz
x,y,z
-x,-y,z
x,-y,-z
-x,y,-z
x,1/2+y,1/2+z
-x,1/2-y,1/2+z
x,1/2-y,1/2-z
-x,1/2+y,1/2-z
1/2+x,y,1/2+z
1/2-x,-y,1/2+z
1/2+x,-y,1/2-z
1/2-x,y,1/2-z
1/2+x,1/2+y,z
1/2-x,1/2-y,z
1/2+x,1/2-y,-z
1/2-x,1/2+y,-z
loop_
_atom_site_type_symbol
_atom_site_label
_atom_site_fract_x
_atom_site_fract_y
_atom_site_fract_z
Si Si1 0.305983 0.300867 0.876243
Si Si2 0.500000 0.213407 0.500000
Si Si3 0.500000 0.500000 0.800295
Si Si4 0.762518 0.000000 0.000000
Si Si5 0.423210 0.860492 0.849934
Si Si6 0.182128 0.170578 0.375164
O O1 0.329574 0.250000 0.750000
O O2 0.250000 0.250000 0.875736
O O3 0.296753 0.441786 0.892810
O O4 0.328818 0.259195 0.006870
O O5 0.489962 0.119070 0.614474
O O6 0.454417 0.299406 0.463015
O O7 0.454877 0.534818 0.712532
O O8 0.727240 0.090199 0.922815
O O9 0.418682 0.750000 0.750000
O O10 0.367900 0.904035 0.867317
O O11 0.191441 0.250000 0.250000
#
# Coordination Sequence:
#
# PCOD9327854 Si02
#       6
#    16   8   8   8  16  16
#     4   9  20  38  57  82 114 150 196 241 288 351
#     4   9  18  35  58  80 112 155 188 229 286 348
#     4   9  18  35  58  80 110 155 194 227 288 352
#     4  10  22  40  64  83 114 161 196 238 300 354
#     4   9  19  37  57  85 118 147 191 243 286 343
#     4  10  22  38  59  89 120 150 195 249 295 347
#
# _framework density 22.468738999999999
#
# number of rings (size 3 to 8) (size 9 to 14) (size 15 to 20)
#    0.000    2.667    0.000    0.000    0.000   13.333 
#    0.000   18.889    0.000    0.000    0.000    0.000 
#    0.000    0.000    0.000    0.000    0.000    0.000 
#
# Total GULP energy -100386.478808 kJ/mol
# GULP energy per Si atom -5577.026600 kJ/mol
# Density = 2.241760 g / cm^3
# Si number density = 22.468739 Si / 1000 Ang^3
#
#
#
# Elastic Constant Matrix: (Units=GPa)
#
#
# Indices 1 2 3 4 5 6 
#
# 1 66.0774 19.3472 39.9635 0.0000 0.0000 0.0000
# 2 19.3472 73.0408 54.3323 0.0000 0.0000 0.0000
# 3 39.9635 54.3323 151.7737 0.0000 0.0000 0.0000
# 4 0.0000 0.0000 0.0000 19.8616 0.0000 0.0000
# 5 0.0000 0.0000 0.0000 0.0000 49.4508 0.0000
# 6 0.0000 0.0000 0.0000 0.0000 0.0000 9.5433
#
#
#
# Elastic Compliance Matrix: (Units=1/GPa)
#
#
# Indices 1 2 3 4 5 6 
#
# 1 0.018155 -0.001708 -0.004169 0.000000 0.000000 0.000000
# 2 -0.001708 0.018821 -0.006288 0.000000 0.000000 0.000000
# 3 -0.004169 -0.006288 0.009937 0.000000 0.000000 0.000000
# 4 0.000000 0.000000 0.000000 0.050348 0.000000 0.000000
# 5 0.000000 0.000000 0.000000 0.000000 0.020222 0.000000
# 6 0.000000 0.000000 0.000000 0.000000 0.000000 0.104785
#
#
# Mechanical properties :
#
#
# Convention : Reuss Voigt Hill
#
# Bulk Modulus (GPa) = 44.27913 57.57534 50.92723
# Shear Modulus (GPa) = 19.67525 27.58774 23.63150
#
# Velocity S-wave (km/s) = 2.96239 3.50784 3.24659
# Velocity P-wave (km/s) = 5.60810 6.48744 6.06373
#
# Compressibility (1/GPa) = 0.02258400
#
# Stress axis : x y z
#
# Youngs Moduli (GPa) = 55.08041 53.13338 100.62960
#
# Poissons Ratio (x) = 0.09074 0.41954
# Poissons Ratio (y) = 0.09406 0.63274
# Poissons Ratio (z) = 0.22964 0.33409
#
# Static dielectric constant tensor:
#      x y z
#    x 1.842940 0.000000 0.000000 
#    y 0.000000 1.898550 0.000000 
#    z 0.000000 0.000000 1.880840 
# 
# From -- ./inp_files/24402.got.cif
#   From: 2010.05.17/outbox.cif.g08.bks.cpg/sg22_13_cif.got.tgz:24402.got - 2010.06.03 23:40:54.
