data_PCOD9327555
_publ_section_title
;
Structure prediction by ZEFSAII (Michael W. Deem and Ramdas Pophale) SiO2 
 PCOD9327555
Probable space group: F 2 2 2
;
_chemical_formula_sum "Si O2"
_cell_formula_units_Z 88
_cell_length_a 11.394912
_cell_length_b 12.343677
_cell_length_c 28.058602
_cell_angle_alpha 90.000000
_cell_angle_beta 90.000000
_cell_angle_gamma 90.000000
_cell_volume 3946.585840
_symmetry_space_group_name_H-M "F 2 2 2"
_symmetry_group_IT_number 22
_symmetry_cell_setting 'orthorhombic'
loop_
_space_group_symop_operation_xyz
x,y,z
-x,-y,z
x,-y,-z
-x,y,-z
x,1/2+y,1/2+z
-x,1/2-y,1/2+z
x,1/2-y,1/2-z
-x,1/2+y,1/2-z
1/2+x,y,1/2+z
1/2-x,-y,1/2+z
1/2+x,-y,1/2-z
1/2-x,y,1/2-z
1/2+x,1/2+y,z
1/2-x,1/2-y,z
1/2+x,1/2-y,-z
1/2-x,1/2+y,-z
loop_
_atom_site_type_symbol
_atom_site_label
_atom_site_fract_x
_atom_site_fract_y
_atom_site_fract_z
Si Si1 0.315735 0.427457 0.545170
Si Si2 0.928630 0.198911 0.048871
Si Si3 0.197985 0.921723 0.635309
Si Si4 0.868897 0.481157 0.769929
Si Si5 0.437701 0.302933 0.145920
Si Si6 0.940771 0.250000 0.750000
O O1 0.345967 0.500000 0.500000
O O2 0.190782 0.367202 0.541084
O O3 0.404069 0.327812 0.553043
O O4 0.304060 0.512882 0.587268
O O5 0.985751 0.165488 0.099773
O O6 0.000000 0.180849 0.000000
O O7 0.138414 0.000011 0.674071
O O8 0.330432 0.888754 0.651278
O O9 0.125278 0.810459 0.632254
O O10 0.750000 0.532231 0.750000
O O11 0.863792 0.351957 0.764623
O O12 0.000000 0.500000 0.751152
O O13 0.497899 0.283100 0.198326
#
# Coordination Sequence:
#
# PCOD9327555 Si02
#       6
#    16  16  16  16  16   8
#     4  11  25  43  63  95 134 165 220 281 347 411
#     4  11  25  43  66  94 128 173 219 279 346 412
#     4  10  22  38  65  94 127 169 220 274 330 395
#     4  11  23  41  68  99 135 179 237 281 340 411
#     4  10  21  39  67  94 128 170 227 269 336 398
#     4  10  21  42  67  94 137 184 225 282 331 406
#
# _framework density 22.297753
#
# number of rings (size 3 to 8) (size 9 to 14) (size 15 to 20)
#    0.000    1.455    1.818    2.455    5.091    8.727 
#    0.000    0.455    0.000    0.000    0.000    0.000 
#    0.000    0.000    0.000    0.000    0.000    0.000 
#
# Total GULP energy -122665.921745 kJ/mol
# GULP energy per Si atom -5575.723716 kJ/mol
# Density = 2.224700 g / cm^3
# Si number density = 22.297753 Si / 1000 Ang^3
#
#
#
# Elastic Constant Matrix: (Units=GPa)
#
#
# Indices 1 2 3 4 5 6 
#
# 1 94.8861 -0.6470 29.8416 0.0000 0.0000 0.0000
# 2 -0.6470 54.6377 15.3992 0.0000 0.0000 0.0000
# 3 29.8416 15.3992 143.6237 0.0000 0.0000 0.0000
# 4 0.0000 0.0000 0.0000 24.9266 0.0000 0.0000
# 5 0.0000 0.0000 0.0000 0.0000 28.2481 0.0000
# 6 0.0000 0.0000 0.0000 0.0000 0.0000 14.3214
#
#
#
# Elastic Compliance Matrix: (Units=1/GPa)
#
#
# Indices 1 2 3 4 5 6 
#
# 1 0.011311 0.000821 -0.002438 0.000000 0.000000 0.000000
# 2 0.000821 0.018932 -0.002201 0.000000 0.000000 0.000000
# 3 -0.002438 -0.002201 0.007705 0.000000 0.000000 0.000000
# 4 0.000000 0.000000 0.000000 0.040118 0.000000 0.000000
# 5 0.000000 0.000000 0.000000 0.000000 0.035401 0.000000
# 6 0.000000 0.000000 0.000000 0.000000 0.000000 0.069826
#
#
# Mechanical properties :
#
#
# Convention : Reuss Voigt Hill
#
# Bulk Modulus (GPa) = 32.98852 42.48167 37.73509
# Shear Modulus (GPa) = 24.87155 30.06945 27.47050
#
# Velocity S-wave (km/s) = 3.34343 3.67623 3.51377
# Velocity P-wave (km/s) = 5.45264 6.09204 5.78119
#
# Compressibility (1/GPa) = 0.03031358
#
# Stress axis : x y z
#
# Youngs Moduli (GPa) = 88.40650 52.81981 129.78259
#
# Poissons Ratio (x) = -0.04337 0.31645
# Poissons Ratio (y) = -0.07259 0.28559
# Poissons Ratio (z) = 0.21556 0.11623
#
# Static dielectric constant tensor:
#      x y z
#    x 1.903010 0.000000 0.000000 
#    y 0.000000 1.806970 0.000000 
#    z 0.000000 0.000000 1.859940 
# 
# From -- ./inp_files/18396.got.cif
#   From: 2010.05.17/outbox.cif.g08.bks.cpg/sg22_10_cif.got.tgz:18396.got - 2010.06.03 23:40:54.
