data_PCOD9327442
_publ_section_title
;
Structure prediction by ZEFSAII (Michael W. Deem and Ramdas Pophale) SiO2 
 PCOD9327442
Probable space group: F 2 2 2
;
_chemical_formula_sum "Si O2"
_cell_formula_units_Z 128
_cell_length_a 23.197837
_cell_length_b 24.298857
_cell_length_c 11.525898
_cell_angle_alpha 90.000000
_cell_angle_beta 90.000000
_cell_angle_gamma 90.000000
_cell_volume 6496.928834
_symmetry_space_group_name_H-M "F 2 2 2"
_symmetry_group_IT_number 22
_symmetry_cell_setting 'orthorhombic'
loop_
_space_group_symop_operation_xyz
x,y,z
-x,-y,z
x,-y,-z
-x,y,-z
x,1/2+y,1/2+z
-x,1/2-y,1/2+z
x,1/2-y,1/2-z
-x,1/2+y,1/2-z
1/2+x,y,1/2+z
1/2-x,-y,1/2+z
1/2+x,-y,1/2-z
1/2-x,y,1/2-z
1/2+x,1/2+y,z
1/2-x,1/2-y,z
1/2+x,1/2-y,-z
1/2-x,1/2+y,-z
loop_
_atom_site_type_symbol
_atom_site_label
_atom_site_fract_x
_atom_site_fract_y
_atom_site_fract_z
Si Si1 0.683136 0.036568 0.758384
Si Si2 0.410618 0.547517 0.913529
Si Si3 0.370608 0.614182 0.568782
Si Si4 0.978882 0.938875 0.330864
Si Si5 0.066377 0.660416 0.479605
Si Si6 0.569677 0.281267 0.501699
Si Si7 0.919704 0.351632 0.220180
Si Si8 0.189739 0.416557 0.827952
O O1 0.750000 0.042790 0.750000
O O2 0.650184 0.027683 0.638457
O O3 0.659908 0.090893 0.818685
O O4 0.674456 0.981115 0.832327
O O5 0.450034 0.556741 0.798735
O O6 0.402331 0.605528 0.978403
O O7 0.432487 0.500000 0.000000
O O8 0.430892 0.579295 0.574334
O O9 0.395134 0.675663 0.579571
O O10 0.326534 0.605023 0.459888
O O11 0.030250 0.894242 0.319663
O O12 0.000000 0.000000 0.357176
O O13 0.083454 0.718613 0.534654
O O14 0.067107 0.672661 0.343846
O O15 0.000000 0.646936 0.500000
O O16 0.500000 0.286336 0.500000
O O17 0.587117 0.304294 0.374976
O O18 0.860737 0.385054 0.238884
O O19 0.250000 0.411000 0.750000
#
# Coordination Sequence:
#
# PCOD9327442 Si02
#       8
#    16  16  16  16  16  16  16  16
#     4  10  22  39  59  87 117 160 208 247 299 361
#     4  11  23  38  58  88 127 163 194 248 307 369
#     4  10  21  39  60  87 121 157 201 255 303 362
#     4  11  21  34  56  91 128 159 194 246 312 377
#     4  11  22  36  59  86 121 163 194 239 302 370
#     4  10  21  38  58  85 118 157 202 246 299 363
#     4  11  20  37  58  88 121 154 200 250 300 361
#     4  10  22  39  61  87 118 158 204 250 301 358
#
# _framework density 19.701616999999999
#
# number of rings (size 3 to 8) (size 9 to 14) (size 15 to 20)
#    0.000    1.500    2.500    3.750    0.000    4.000 
#    0.000    3.750    0.000   10.500    0.000    0.000 
#    0.000    0.000    0.000    0.000    0.000    0.000 
#
# Total GULP energy -178201.997816 kJ/mol
# GULP energy per Si atom -5568.812432 kJ/mol
# Density = 1.965677 g / cm^3
# Si number density = 19.701617 Si / 1000 Ang^3
#
#
#
# Elastic Constant Matrix: (Units=GPa)
#
#
# Indices 1 2 3 4 5 6 
#
# 1 76.7165 21.8012 15.5712 0.0000 0.0000 0.0000
# 2 21.8012 111.4123 7.1370 0.0000 0.0000 0.0000
# 3 15.5712 7.1370 52.4904 0.0000 0.0000 0.0000
# 4 0.0000 0.0000 0.0000 22.8433 0.0000 0.0000
# 5 0.0000 0.0000 0.0000 0.0000 10.0475 0.0000
# 6 0.0000 0.0000 0.0000 0.0000 0.0000 100.6930
#
#
#
# Elastic Compliance Matrix: (Units=1/GPa)
#
#
# Indices 1 2 3 4 5 6 
#
# 1 0.014580 -0.002599 -0.003972 0.000000 0.000000 0.000000
# 2 -0.002599 0.009518 -0.000523 0.000000 0.000000 0.000000
# 3 -0.003972 -0.000523 0.020300 0.000000 0.000000 0.000000
# 4 0.000000 0.000000 0.000000 0.043777 0.000000 0.000000
# 5 0.000000 0.000000 0.000000 0.000000 0.099527 0.000000
# 6 0.000000 0.000000 0.000000 0.000000 0.000000 0.009931
#
#
# Mechanical properties :
#
#
# Convention : Reuss Voigt Hill
#
# Bulk Modulus (GPa) = 33.10074 36.62641 34.86357
# Shear Modulus (GPa) = 22.53373 39.79074 31.16224
#
# Velocity S-wave (km/s) = 3.38561 4.49895 3.98139
# Velocity P-wave (km/s) = 5.66750 6.75413 6.23454
#
# Compressibility (1/GPa) = 0.03021081
#
# Stress axis : x y z
#
# Youngs Moduli (GPa) = 68.58910 105.06778 49.25999
#
# Poissons Ratio (x) = 0.27302 0.19565
# Poissons Ratio (y) = 0.17823 0.02578
# Poissons Ratio (z) = 0.27241 0.05498
#
# Static dielectric constant tensor:
#      x y z
#    x 1.721150 0.000000 0.000000 
#    y 0.000000 1.768490 0.000000 
#    z 0.000000 0.000000 1.678740 
# 
# From -- ./inp_files/24088.got.cif
#   From: 2010.05.17/outbox.cif.g08.bks.cpg/sg22_13_cif.got.tgz:24088.got - 2010.06.03 23:40:54.
