data_PCOD9327691
_publ_section_title
;
Structure prediction by ZEFSAII (Michael W. Deem and Ramdas Pophale) SiO2 
 PCOD9327691
Probable space group: F 2 2 2
;
_chemical_formula_sum "Si O2"
_cell_formula_units_Z 120
_cell_length_a 19.919729
_cell_length_b 12.354097
_cell_length_c 23.928534
_cell_angle_alpha 90.000000
_cell_angle_beta 90.000000
_cell_angle_gamma 90.000000
_cell_volume 5888.579256
_symmetry_space_group_name_H-M "F 2 2 2"
_symmetry_group_IT_number 22
_symmetry_cell_setting 'orthorhombic'
loop_
_space_group_symop_operation_xyz
x,y,z
-x,-y,z
x,-y,-z
-x,y,-z
x,1/2+y,1/2+z
-x,1/2-y,1/2+z
x,1/2-y,1/2-z
-x,1/2+y,1/2-z
1/2+x,y,1/2+z
1/2-x,-y,1/2+z
1/2+x,-y,1/2-z
1/2-x,y,1/2-z
1/2+x,1/2+y,z
1/2-x,1/2-y,z
1/2+x,1/2-y,-z
1/2-x,1/2+y,-z
loop_
_atom_site_type_symbol
_atom_site_label
_atom_site_fract_x
_atom_site_fract_y
_atom_site_fract_z
Si Si1 0.401276 0.581478 0.613135
Si Si2 0.573634 0.968343 0.434974
Si Si3 0.250000 0.250000 0.540455
Si Si4 0.114430 0.742226 0.976974
Si Si5 0.551379 0.842609 0.909892
Si Si6 0.360179 0.770945 0.189176
Si Si7 0.203549 0.512392 0.804222
Si Si8 0.701215 0.580754 0.878801
O O1 0.365476 0.644846 0.563640
O O2 0.475234 0.635825 0.609300
O O3 0.413169 0.459337 0.592804
O O4 0.361156 0.578686 0.672076
O O5 0.585733 0.839778 0.439385
O O6 0.500000 0.000000 0.412319
O O7 0.574632 0.000000 0.500000
O O8 0.633255 0.034108 0.405375
O O9 0.183554 0.272584 0.506328
O O10 0.248753 0.145078 0.580058
O O11 0.065744 0.707911 0.028906
O O12 0.587532 0.776574 0.861335
O O13 0.390690 0.750000 0.250000
O O14 0.315747 0.668543 0.169718
O O15 0.322959 0.887095 0.196501
O O16 0.250000 0.537255 0.750000
O O17 0.257311 0.517577 0.853891
#
# Coordination Sequence:
#
# PCOD9327691 Si02
#       8
#    16  16   8  16  16  16  16  16
#     4  10  24  39  66  96 132 178 231 272 347 408
#     4  11  26  42  62  95 133 178 216 266 337 408
#     4  12  22  36  57  98 129 166 208 276 332 400
#     4  12  24  40  65  90 140 181 224 274 346 423
#     4  10  21  42  64  99 133 172 227 291 330 404
#     4  11  20  36  67 103 125 168 222 285 341 391
#     4  11  22  39  66  99 133 169 219 285 339 401
#     4  12  22  39  63  98 136 159 220 278 341 399
#
# _framework density 20.378430999999999
#
# number of rings (size 3 to 8) (size 9 to 14) (size 15 to 20)
#    0.000    0.933    5.333    1.600    7.467    1.067 
#    0.000    1.333    0.000    0.800    0.000    0.000 
#    0.000    0.000    0.000    0.000    0.000    0.000 
#
# Total GULP energy -167204.752534 kJ/mol
# GULP energy per Si atom -5573.491751 kJ/mol
# Density = 2.033205 g / cm^3
# Si number density = 20.378431 Si / 1000 Ang^3
#
#
#
# Elastic Constant Matrix: (Units=GPa)
#
#
# Indices 1 2 3 4 5 6 
#
# 1 98.0167 31.1709 32.5048 0.0000 0.0000 0.0000
# 2 31.1709 61.0942 34.9323 0.0000 0.0000 0.0000
# 3 32.5048 34.9323 86.5459 0.0000 0.0000 0.0000
# 4 0.0000 0.0000 0.0000 12.9895 0.0000 0.0000
# 5 0.0000 0.0000 0.0000 0.0000 32.7441 0.0000
# 6 0.0000 0.0000 0.0000 0.0000 0.0000 29.1834
#
#
#
# Elastic Compliance Matrix: (Units=1/GPa)
#
#
# Indices 1 2 3 4 5 6 
#
# 1 0.012678 -0.004870 -0.002796 0.000000 0.000000 0.000000
# 2 -0.004870 0.023150 -0.007515 0.000000 0.000000 0.000000
# 3 -0.002796 -0.007515 0.015638 0.000000 0.000000 0.000000
# 4 0.000000 0.000000 0.000000 0.076985 0.000000 0.000000
# 5 0.000000 0.000000 0.000000 0.000000 0.030540 0.000000
# 6 0.000000 0.000000 0.000000 0.000000 0.000000 0.034266
#
#
# Mechanical properties :
#
#
# Convention : Reuss Voigt Hill
#
# Bulk Modulus (GPa) = 47.38371 49.20809 48.29590
# Shear Modulus (GPa) = 21.67758 24.78666 23.23212
#
# Velocity S-wave (km/s) = 3.26506 3.49136 3.38010
# Velocity P-wave (km/s) = 6.12507 6.36022 6.24375
#
# Compressibility (1/GPa) = 0.02110430
#
# Stress axis : x y z
#
# Youngs Moduli (GPa) = 78.87494 43.19723 63.94717
#
# Poissons Ratio (x) = 0.21036 0.17880
# Poissons Ratio (y) = 0.38411 0.48055
# Poissons Ratio (z) = 0.22054 0.32462
#
# Static dielectric constant tensor:
#      x y z
#    x 1.820380 0.000000 0.000000 
#    y 0.000000 1.809060 0.000000 
#    z 0.000000 0.000000 1.738170 
# 
# From -- ./inp_files/50023.got.cif
#   From: 2010.05.17/outbox.cif.g08.bks.cpg/sg22_26_cif.got.tgz:50023.got - 2010.06.03 23:40:54.
