data_PCOD9327639
_publ_section_title
;
Structure prediction by ZEFSAII (Michael W. Deem and Ramdas Pophale) SiO2 
 PCOD9327639
Probable space group: F 2 2 2
;
_chemical_formula_sum "Si O2"
_cell_formula_units_Z 104
_cell_length_a 22.288792
_cell_length_b 7.583516
_cell_length_c 30.143563
_cell_angle_alpha 90.000000
_cell_angle_beta 90.000000
_cell_angle_gamma 90.000000
_cell_volume 5095.088405
_symmetry_space_group_name_H-M "F 2 2 2"
_symmetry_group_IT_number 22
_symmetry_cell_setting 'orthorhombic'
loop_
_space_group_symop_operation_xyz
x,y,z
-x,-y,z
x,-y,-z
-x,y,-z
x,1/2+y,1/2+z
-x,1/2-y,1/2+z
x,1/2-y,1/2-z
-x,1/2+y,1/2-z
1/2+x,y,1/2+z
1/2-x,-y,1/2+z
1/2+x,-y,1/2-z
1/2-x,y,1/2-z
1/2+x,1/2+y,z
1/2-x,1/2-y,z
1/2+x,1/2-y,-z
1/2-x,1/2+y,-z
loop_
_atom_site_type_symbol
_atom_site_label
_atom_site_fract_x
_atom_site_fract_y
_atom_site_fract_z
Si Si1 0.239282 0.042491 0.200051
Si Si2 0.000000 0.500000 0.665312
Si Si3 0.549004 0.643050 0.710712
Si Si4 0.688248 0.535080 0.951993
Si Si5 0.369073 0.512739 0.137203
Si Si6 0.174853 0.457415 0.951682
Si Si7 0.646487 0.069858 0.143856
O O1 0.250000 0.971519 0.250000
O O2 0.250000 0.250000 0.201950
O O3 0.172990 0.030029 0.179165
O O4 0.288615 0.961512 0.166304
O O5 0.984101 0.688757 0.688345
O O6 0.062213 0.540433 0.640702
O O7 0.500000 0.500000 0.726474
O O8 0.582814 0.750000 0.750000
O O9 0.594178 0.533214 0.679406
O O10 0.658280 0.450099 0.909174
O O11 0.757085 0.470944 0.952441
O O12 0.684139 0.746659 0.948254
O O13 0.660541 0.500000 0.000000
O O14 0.364567 0.723754 0.136559
O O15 0.144396 0.513921 0.905308
O O16 0.147278 0.500000 0.000000
#
# Coordination Sequence:
#
# PCOD9327639 Si02
#       7
#    16   8  16  16  16  16  16
#     4  11  25  37  55  87 123 155 194 256 314 366
#     4  10  24  42  63  88 120 174 205 256 306 364
#     4  11  24  42  65  91 124 166 220 257 305 374
#     4   9  17  32  55  85 115 152 193 246 304 365
#     4  10  21  41  61  84 122 157 204 247 305 377
#     4   9  17  33  55  83 120 151 194 250 309 372
#     4  10  22  39  60  89 117 161 206 251 314 371
#
# _framework density 20.411815000000001
#
# number of rings (size 3 to 8) (size 9 to 14) (size 15 to 20)
#    0.000    2.000    2.308    0.462    6.462    1.846 
#    0.000    0.385    0.000    0.462    0.000    0.000 
#    0.000    0.000    0.000    0.000    0.000    0.000 
#
# Total GULP energy -144767.946575 kJ/mol
# GULP energy per Si atom -5567.997945 kJ/mol
# Density = 2.036536 g / cm^3
# Si number density = 20.411815 Si / 1000 Ang^3
#
#
#
# Elastic Constant Matrix: (Units=GPa)
#
#
# Indices 1 2 3 4 5 6 
#
# 1 102.4318 7.9258 66.3361 0.0004 0.0000 0.0006
# 2 7.9258 37.4831 -2.6230 0.0016 0.0000 0.0014
# 3 66.3361 -2.6230 162.3719 -0.0006 0.0000 0.0001
# 4 0.0004 0.0016 -0.0006 358.1582 0.0000 -0.0014
# 5 0.0000 0.0000 0.0000 0.0000 27.5537 0.0000
# 6 0.0006 0.0014 0.0001 -0.0014 0.0000 18.7030
#
#
#
# Elastic Compliance Matrix: (Units=1/GPa)
#
#
# Indices 1 2 3 4 5 6 
#
# 1 0.013667 -0.003284 -0.005637 0.000000 0.000000 0.000000
# 2 -0.003284 0.027498 0.001786 0.000000 0.000000 -0.000002
# 3 -0.005637 0.001786 0.008490 0.000000 0.000000 0.000000
# 4 0.000000 0.000000 0.000000 0.002792 0.000000 0.000000
# 5 0.000000 0.000000 0.000000 0.000000 0.036293 0.000000
# 6 0.000000 -0.000002 0.000000 0.000000 0.000000 0.053467
#
#
# Mechanical properties :
#
#
# Convention : Reuss Voigt Hill
#
# Bulk Modulus (GPa) = 28.26007 49.50716 38.88361
# Shear Modulus (GPa) = 29.71363 96.25951 62.98657
#
# Velocity S-wave (km/s) = 3.81951 6.87467 5.56101
# Velocity P-wave (km/s) = 5.77292 9.34460 7.76686
#
# Compressibility (1/GPa) = 0.03538562
#
# Stress axis : x y z
#
# Youngs Moduli (GPa) = 73.16838 36.36611 117.78028
#
# Poissons Ratio (x) = 0.11944 0.66389
# Poissons Ratio (y) = 0.24031 -0.21036
# Poissons Ratio (z) = 0.41243 -0.06495
#
# Static dielectric constant tensor:
#      x y z
#    x 1.651300 0.000000 0.000000 
#    y 0.000000 1.736940 0.000000 
#    z 0.000000 0.000000 1.858720 
# 
# From -- ./inp_files/53909.got.cif
#   From: 2010.05.17/outbox.cif.g08.bks.cpg/sg22_27_cif.got.tgz:53909.got - 2010.06.03 23:40:54.
