data_PCOD9327813
_publ_section_title
;
Structure prediction by ZEFSAII (Michael W. Deem and Ramdas Pophale) SiO2 
 PCOD9327813
Probable space group: F 2 2 2
;
_chemical_formula_sum "Si O2"
_cell_formula_units_Z 88
_cell_length_a 16.622156
_cell_length_b 10.500525
_cell_length_c 22.687549
_cell_angle_alpha 90.000000
_cell_angle_beta 90.000000
_cell_angle_gamma 90.000000
_cell_volume 3959.915763
_symmetry_space_group_name_H-M "F 2 2 2"
_symmetry_group_IT_number 22
_symmetry_cell_setting 'orthorhombic'
loop_
_space_group_symop_operation_xyz
x,y,z
-x,-y,z
x,-y,-z
-x,y,-z
x,1/2+y,1/2+z
-x,1/2-y,1/2+z
x,1/2-y,1/2-z
-x,1/2+y,1/2-z
1/2+x,y,1/2+z
1/2-x,-y,1/2+z
1/2+x,-y,1/2-z
1/2-x,y,1/2-z
1/2+x,1/2+y,z
1/2-x,1/2-y,z
1/2+x,1/2-y,-z
1/2-x,1/2+y,-z
loop_
_atom_site_type_symbol
_atom_site_label
_atom_site_fract_x
_atom_site_fract_y
_atom_site_fract_z
Si Si1 0.250000 0.444186 0.750000
Si Si2 0.018816 0.863642 0.138279
Si Si3 0.595909 0.112914 0.751131
Si Si4 0.941398 0.107476 0.612254
Si Si5 0.267044 0.096702 0.055543
Si Si6 0.207744 0.369293 0.628603
O O1 0.333195 0.516686 0.762460
O O2 0.261197 0.376121 0.687958
O O3 0.975248 0.873779 0.202885
O O4 0.977732 0.747530 0.104730
O O5 0.114064 0.840782 0.140507
O O6 0.000000 0.000000 0.109882
O O7 0.637559 0.250000 0.750000
O O8 0.565897 0.089501 0.816991
O O9 0.854929 0.095184 0.584096
O O10 0.000000 0.000000 0.588217
O O11 0.250000 0.250000 0.047968
O O12 0.212189 0.011282 0.100121
O O13 0.266321 0.000000 0.000000
O O14 0.250000 0.250000 0.594425
#
# Coordination Sequence:
#
# PCOD9327813 Si02
#       6
#     8  16  16  16  16  16
#     4  12  22  36  66 106 153 196 243 282 357 422
#     4  11  22  40  65 103 145 189 232 289 352 429
#     4  10  22  36  63 102 151 195 236 286 346 433
#     4  11  24  42  70 102 143 186 237 289 360 428
#     4  12  28  52  78 102 135 188 248 310 369 434
#     4  12  26  43  70 109 153 193 240 297 362 434
#
# _framework density 22.222695000000002
#
# number of rings (size 3 to 8) (size 9 to 14) (size 15 to 20)
#    0.000    0.727    3.636    3.818    2.545    3.273 
#    0.000    0.000    0.000    3.818    0.000    0.000 
#    0.000    0.000    0.000    0.000    0.000    0.000 
#
# Total GULP energy -122717.548459 kJ/mol
# GULP energy per Si atom -5578.070384 kJ/mol
# Density = 2.217212 g / cm^3
# Si number density = 22.222695 Si / 1000 Ang^3
#
#
#
# Elastic Constant Matrix: (Units=GPa)
#
#
# Indices 1 2 3 4 5 6 
#
# 1 141.9944 36.6173 16.2510 0.0000 0.0000 0.0000
# 2 36.6173 155.4907 30.8242 0.0000 0.0000 0.0000
# 3 16.2510 30.8242 58.2384 0.0000 0.0000 0.0000
# 4 0.0000 0.0000 0.0000 -166.0809 0.0000 0.0000
# 5 0.0000 0.0000 0.0000 0.0000 -72.9740 0.0000
# 6 0.0000 0.0000 0.0000 0.0000 0.0000 37.0340
#
#
#
# Elastic Compliance Matrix: (Units=1/GPa)
#
#
# Indices 1 2 3 4 5 6 
#
# 1 0.007586 -0.001527 -0.001309 0.000000 0.000000 0.000000
# 2 -0.001527 0.007493 -0.003539 0.000000 0.000000 0.000000
# 3 -0.001309 -0.003539 0.019409 0.000000 0.000000 0.000000
# 4 0.000000 0.000000 0.000000 -0.006021 0.000000 0.000000
# 5 0.000000 0.000000 0.000000 0.000000 -0.013704 0.000000
# 6 0.000000 0.000000 0.000000 0.000000 0.000000 0.027002
#
#
# Mechanical properties :
#
#
# Convention : Reuss Voigt Hill
#
# Bulk Modulus (GPa) = 46.00323 58.12316 52.06320
# Shear Modulus (GPa) = 80.95630 -22.26878 29.34376
#
# Velocity S-wave (km/s) = 6.04224 -3.16899 3.63773
# Velocity P-wave (km/s) = 8.33212 3.58073 6.41271
#
# Compressibility (1/GPa) = 0.02173761
#
# Stress axis : x y z
#
# Youngs Moduli (GPa) = 131.82011 133.46616 51.52165
#
# Poissons Ratio (x) = 0.20381 0.06742
# Poissons Ratio (y) = 0.20130 0.18236
# Poissons Ratio (z) = 0.17250 0.47240
#
# Static dielectric constant tensor:
#      x y z
#    x 1.820650 0.000000 0.000000 
#    y 0.000000 1.970420 0.000000 
#    z 0.000000 0.000000 1.920910 
# 
# From -- ./inp_files/48797.got.cif
#   From: 2010.05.17/outbox.cif.g08.bks.cpg/sg22_25_cif.got.tgz:48797.got - 2010.06.03 23:40:54.
