data_PCOD9327253
_publ_section_title
;
Structure prediction by ZEFSAII (Michael W. Deem and Ramdas Pophale) SiO2 
 PCOD9327253
Probable space group: F 2 2 2
;
_chemical_formula_sum "Si O2"
_cell_formula_units_Z 108
_cell_length_a 15.939435
_cell_length_b 29.006207
_cell_length_c 11.571888
_cell_angle_alpha 90.000000
_cell_angle_beta 90.000000
_cell_angle_gamma 90.000000
_cell_volume 5350.176219
_symmetry_space_group_name_H-M "F 2 2 2"
_symmetry_group_IT_number 22
_symmetry_cell_setting 'orthorhombic'
loop_
_space_group_symop_operation_xyz
x,y,z
-x,-y,z
x,-y,-z
-x,y,-z
x,1/2+y,1/2+z
-x,1/2-y,1/2+z
x,1/2-y,1/2-z
-x,1/2+y,1/2-z
1/2+x,y,1/2+z
1/2-x,-y,1/2+z
1/2+x,-y,1/2-z
1/2-x,y,1/2-z
1/2+x,1/2+y,z
1/2-x,1/2-y,z
1/2+x,1/2-y,-z
1/2-x,1/2+y,-z
loop_
_atom_site_type_symbol
_atom_site_label
_atom_site_fract_x
_atom_site_fract_y
_atom_site_fract_z
Si Si1 0.250000 0.750000 0.750000
Si Si2 0.261575 0.875388 0.560032
Si Si3 0.901910 0.996063 0.638131
Si Si4 0.167907 0.395460 0.824777
Si Si5 0.639499 0.908872 0.239922
Si Si6 0.616565 0.296602 0.917236
Si Si7 0.005351 0.158802 0.729170
Si Si8 0.500000 0.721472 0.500000
O O1 0.313571 0.721754 0.829103
O O2 0.201816 0.887879 0.454603
O O3 0.325719 0.909017 0.629490
O O4 0.192518 0.871778 0.663344
O O5 0.327663 0.835963 0.522075
O O6 0.869105 0.946915 0.679463
O O7 0.894132 0.000000 0.500000
O O8 0.854761 0.040221 0.689937
O O9 0.000000 0.000000 0.667759
O O10 0.250000 0.392806 0.750000
O O11 0.100995 0.358054 0.779187
O O12 0.547075 0.888729 0.226564
O O13 0.537740 0.315864 0.840215
O O14 0.580257 0.255644 0.995125
O O15 0.993805 0.190499 0.615213
#
# Coordination Sequence:
#
# PCOD9327253 Si02
#       8
#     4  16  16  16  16  16  16   8
#     4  12  20  44  60 104 116 152 224 296 328 370
#     4  10  23  41  65  97 124 174 217 270 338 385
#     4  11  22  39  67 102 131 167 222 270 338 398
#     4  12  27  41  64  97 145 182 218 273 334 412
#     4  10  20  42  71  95 129 168 217 287 322 395
#     4  11  25  42  67  93 132 170 227 283 337 406
#     4  11  23  44  63  97 130 173 227 271 346 397
#     4  12  24  40  72  91 126 173 226 282 340 404
#
# _framework density 20.186250999999999
#
# number of rings (size 3 to 8) (size 9 to 14) (size 15 to 20)
#    0.000    1.037    4.444    2.667    6.222    0.000 
#    0.000    0.000    0.000    0.889    0.000    0.000 
#    0.000    0.000    0.000    0.000    0.000    0.000 
#
# Total GULP energy -150407.838935 kJ/mol
# GULP energy per Si atom -5570.660701 kJ/mol
# Density = 2.014031 g / cm^3
# Si number density = 20.186251 Si / 1000 Ang^3
#
#
#
# Elastic Constant Matrix: (Units=GPa)
#
#
# Indices 1 2 3 4 5 6 
#
# 1 132.1763 40.1264 24.5387 0.0000 0.0000 0.0000
# 2 40.1264 80.7146 4.7883 0.0000 0.0000 0.0000
# 3 24.5387 4.7883 34.7017 0.0000 0.0000 0.0000
# 4 0.0000 0.0000 0.0000 18.9310 0.0000 0.0000
# 5 0.0000 0.0000 0.0000 0.0000 26.0964 0.0000
# 6 0.0000 0.0000 0.0000 0.0000 0.0000 37.5316
#
#
#
# Elastic Compliance Matrix: (Units=1/GPa)
#
#
# Indices 1 2 3 4 5 6 
#
# 1 0.010208 -0.004685 -0.006572 0.000000 0.000000 0.000000
# 2 -0.004685 0.014642 0.001293 0.000000 0.000000 0.000000
# 3 -0.006572 0.001293 0.033286 0.000000 0.000000 0.000000
# 4 0.000000 0.000000 0.000000 0.052823 0.000000 0.000000
# 5 0.000000 0.000000 0.000000 0.000000 0.038319 0.000000
# 6 0.000000 0.000000 0.000000 0.000000 0.000000 0.026644
#
#
# Mechanical properties :
#
#
# Convention : Reuss Voigt Hill
#
# Bulk Modulus (GPa) = 26.17323 42.94440 34.55882
# Shear Modulus (GPa) = 23.97078 28.38774 26.17926
#
# Velocity S-wave (km/s) = 3.44972 3.75412 3.60514
# Velocity P-wave (km/s) = 5.37229 6.33337 5.87252
#
# Compressibility (1/GPa) = 0.03820697
#
# Stress axis : x y z
#
# Youngs Moduli (GPa) = 97.96221 68.29801 30.04265
#
# Poissons Ratio (x) = 0.31997 0.19744
# Poissons Ratio (y) = 0.45895 -0.03883
# Poissons Ratio (z) = 0.64381 -0.08828
#
# Static dielectric constant tensor:
#      x y z
#    x 1.732380 0.000000 0.000000 
#    y 0.000000 1.793540 0.000000 
#    z 0.000000 0.000000 1.453970 
# 
# From -- ./inp_files/20340.got.cif
#   From: 2010.05.17/outbox.cif.g08.bks.cpg/sg22_11_cif.got.tgz:20340.got - 2010.06.03 23:40:54.
