data_PCOD9327378
_publ_section_title
;
Structure prediction by ZEFSAII (Michael W. Deem and Ramdas Pophale) SiO2 
 PCOD9327378
Probable space group: F 2 2 2
;
_chemical_formula_sum "Si O2"
_cell_formula_units_Z 64
_cell_length_a 26.535658
_cell_length_b 12.914847
_cell_length_c 8.158567
_cell_angle_alpha 90.000000
_cell_angle_beta 90.000000
_cell_angle_gamma 90.000000
_cell_volume 2795.973244
_symmetry_space_group_name_H-M "F 2 2 2"
_symmetry_group_IT_number 22
_symmetry_cell_setting 'orthorhombic'
loop_
_space_group_symop_operation_xyz
x,y,z
-x,-y,z
x,-y,-z
-x,y,-z
x,1/2+y,1/2+z
-x,1/2-y,1/2+z
x,1/2-y,1/2-z
-x,1/2+y,1/2-z
1/2+x,y,1/2+z
1/2-x,-y,1/2+z
1/2+x,-y,1/2-z
1/2-x,y,1/2-z
1/2+x,1/2+y,z
1/2-x,1/2-y,z
1/2+x,1/2-y,-z
1/2-x,1/2+y,-z
loop_
_atom_site_type_symbol
_atom_site_label
_atom_site_fract_x
_atom_site_fract_y
_atom_site_fract_z
Si Si1 0.301273 0.452104 0.322424
Si Si2 0.371988 0.374448 0.763781
Si Si3 0.905654 0.633228 0.097282
Si Si4 0.944068 0.366672 0.564466
O O1 0.290413 0.500000 0.500000
O O2 0.250000 0.409192 0.250000
O O3 0.323478 0.551633 0.225387
O O4 0.347552 0.371922 0.340099
O O5 0.361727 0.250000 0.750000
O O6 0.399654 0.404411 0.591080
O O7 0.405601 0.396876 0.921453
O O8 0.935932 0.588562 0.253423
O O9 0.931173 0.744791 0.078240
O O10 0.000000 0.382100 0.500000
#
# Coordination Sequence:
#
# PCOD9327378 Si02
#       4
#    16  16  16  16
#     4  10  22  40  63  87 123 164 199 260 318 359
#     4   9  20  38  60  86 125 156 204 252 299 371
#     4   9  21  37  57  92 120 150 208 249 299 368
#     4  10  21  36  65  86 118 165 198 247 309 365
#
# _framework density 22.890060999999999
#
# number of rings (size 3 to 8) (size 9 to 14) (size 15 to 20)
#    0.000    2.500    0.000    0.000   14.000    0.500 
#    0.000    5.000    5.500    0.000    0.000    0.000 
#    0.000    0.000    0.000    0.000    0.000    0.000 
#
# Total GULP energy -89225.676522 kJ/mol
# GULP energy per Si atom -5576.604783 kJ/mol
# Density = 2.283796 g / cm^3
# Si number density = 22.890061 Si / 1000 Ang^3
#
#
#
# Elastic Constant Matrix: (Units=GPa)
#
#
# Indices 1 2 3 4 5 6 
#
# 1 131.5672 17.8627 59.2719 0.0000 0.0000 0.0000
# 2 17.8627 93.4851 21.7471 0.0000 0.0000 0.0000
# 3 59.2719 21.7471 136.6626 0.0000 0.0000 0.0000
# 4 0.0000 0.0000 0.0000 40.4305 0.0000 0.0000
# 5 0.0000 0.0000 0.0000 0.0000 31.8419 0.0000
# 6 0.0000 0.0000 0.0000 0.0000 0.0000 126.6941
#
#
#
# Elastic Compliance Matrix: (Units=1/GPa)
#
#
# Indices 1 2 3 4 5 6 
#
# 1 0.009517 -0.000891 -0.003986 0.000000 0.000000 0.000000
# 2 -0.000891 0.011192 -0.001394 0.000000 0.000000 0.000000
# 3 -0.003986 -0.001394 0.009268 0.000000 0.000000 0.000000
# 4 0.000000 0.000000 0.000000 0.024734 0.000000 0.000000
# 5 0.000000 0.000000 0.000000 0.000000 0.031405 0.000000
# 6 0.000000 0.000000 0.000000 0.000000 0.000000 0.007893
#
#
# Mechanical properties :
#
#
# Convention : Reuss Voigt Hill
#
# Bulk Modulus (GPa) = 57.36028 62.16426 59.76227
# Shear Modulus (GPa) = 44.49852 57.31551 50.90702
#
# Velocity S-wave (km/s) = 4.41388 5.00937 4.72102
# Velocity P-wave (km/s) = 7.14772 7.78943 7.47546
#
# Compressibility (1/GPa) = 0.01743367
#
# Stress axis : x y z
#
# Youngs Moduli (GPa) = 105.07088 89.35309 107.89909
#
# Poissons Ratio (x) = 0.07964 0.43008
# Poissons Ratio (y) = 0.09365 0.15045
# Poissons Ratio (z) = 0.41881 0.12459
#
# Static dielectric constant tensor:
#      x y z
#    x 1.789890 0.000000 0.000000 
#    y 0.000000 1.994550 0.000000 
#    z 0.000000 0.000000 1.895210 
# 
# From -- ./inp_files/11148.got.cif
#   From: 2010.05.17/outbox.cif.g08.bks.cpg/sg22_6_cif.got.tgz:11148.got - 2010.06.03 23:40:54.
