data_PCOD9327702
_publ_section_title
;
Structure prediction by ZEFSAII (Michael W. Deem and Ramdas Pophale) SiO2 
 PCOD9327702
Probable space group: F 2 2 2
;
_chemical_formula_sum "Si O2"
_cell_formula_units_Z 64
_cell_length_a 10.887562
_cell_length_b 7.338473
_cell_length_c 36.732751
_cell_angle_alpha 90.000000
_cell_angle_beta 90.000000
_cell_angle_gamma 90.000000
_cell_volume 2934.876270
_symmetry_space_group_name_H-M "F 2 2 2"
_symmetry_group_IT_number 22
_symmetry_cell_setting 'orthorhombic'
loop_
_space_group_symop_operation_xyz
x,y,z
-x,-y,z
x,-y,-z
-x,y,-z
x,1/2+y,1/2+z
-x,1/2-y,1/2+z
x,1/2-y,1/2-z
-x,1/2+y,1/2-z
1/2+x,y,1/2+z
1/2-x,-y,1/2+z
1/2+x,-y,1/2-z
1/2-x,y,1/2-z
1/2+x,1/2+y,z
1/2-x,1/2-y,z
1/2+x,1/2-y,-z
1/2-x,1/2+y,-z
loop_
_atom_site_type_symbol
_atom_site_label
_atom_site_fract_x
_atom_site_fract_y
_atom_site_fract_z
Si Si1 0.250000 0.250000 0.191216
Si Si2 0.017708 0.715757 0.210280
Si Si3 0.820464 0.420872 0.351554
Si Si4 0.000000 0.000000 0.910640
Si Si5 0.891051 0.189515 0.022475
O O1 0.122453 0.211298 0.211227
O O2 0.233754 0.433164 0.167783
O O3 0.075952 0.750000 0.250000
O O4 0.000000 0.500000 0.205007
O O5 0.091210 0.821905 0.178543
O O6 0.750000 0.250000 0.368515
O O7 0.890940 0.534963 0.382325
O O8 0.050282 0.153247 0.937916
O O9 0.750000 0.250000 0.025171
O O10 0.000000 0.290970 0.000000
O O11 0.878789 0.000000 0.000000
#
# Coordination Sequence:
#
# PCOD9327702 Si02
#       5
#     8  16  16   8  16
#     4  12  23  44  64  90 132 170 222 288 342 410
#     4  12  25  43  66  95 126 174 232 291 351 412
#     4  12  24  42  66  94 135 177 224 278 346 410
#     4  10  21  42  66  96 138 176 216 282 328 406
#     4   9  20  41  69 100 138 177 221 273 332 396
#
# _framework density 21.806712999999998
#
# number of rings (size 3 to 8) (size 9 to 14) (size 15 to 20)
#    0.000    1.250    5.000    2.625    0.000    1.000 
#    9.000    0.000   11.000    0.000    0.000    0.000 
#    0.000    0.000    0.000    0.000    0.000    0.000 
#
# Total GULP energy -89085.412925 kJ/mol
# GULP energy per Si atom -5567.838308 kJ/mol
# Density = 2.175708 g / cm^3
# Si number density = 21.806713 Si / 1000 Ang^3
#
#
#
# Elastic Constant Matrix: (Units=GPa)
#
#
# Indices 1 2 3 4 5 6 
#
# 1 127.7420 15.9176 48.7416 0.0000 0.0000 0.0000
# 2 15.9176 105.6670 19.1172 0.0000 0.0000 0.0000
# 3 48.7416 19.1172 131.2419 0.0000 0.0000 0.0000
# 4 0.0000 0.0000 0.0000 -1.4843 0.0000 0.0000
# 5 0.0000 0.0000 0.0000 0.0000 2.0285 0.0000
# 6 0.0000 0.0000 0.0000 0.0000 0.0000 38.8196
#
#
#
# Elastic Compliance Matrix: (Units=1/GPa)
#
#
# Indices 1 2 3 4 5 6 
#
# 1 0.009184 -0.000787 -0.003296 0.000000 0.000000 0.000000
# 2 -0.000787 0.009787 -0.001133 0.000000 0.000000 0.000000
# 3 -0.003296 -0.001133 0.009009 0.000000 0.000000 0.000000
# 4 0.000000 0.000000 0.000000 -0.673712 0.000000 0.000000
# 5 0.000000 0.000000 0.000000 0.000000 0.492986 0.000000
# 6 0.000000 0.000000 0.000000 0.000000 0.000000 0.025760
#
#
# Mechanical properties :
#
#
# Convention : Reuss Voigt Hill
#
# Bulk Modulus (GPa) = 56.99034 59.13375 58.06205
# Shear Modulus (GPa) = -45.16559 26.59771 -9.28394
#
# Velocity S-wave (km/s) = -4.55596 3.49621 -2.06558
# Velocity P-wave (km/s) = 1.21845 6.59349 4.58200
#
# Compressibility (1/GPa) = 0.01754683
#
# Stress axis : x y z
#
# Youngs Moduli (GPa) = 108.88420 102.17312 111.00298
#
# Poissons Ratio (x) = 0.08042 0.36589
# Poissons Ratio (y) = 0.08571 0.12580
# Poissons Ratio (z) = 0.35890 0.11580
#
# Static dielectric constant tensor:
#      x y z
#    x 1.885280 0.000000 0.000000 
#    y 0.000000 1.893520 0.000000 
#    z 0.000000 0.000000 1.818650 
# 
# From -- ./inp_files/55822.got.cif
#   From: 2010.05.17/outbox.cif.g08.bks.cpg/sg22_28_cif.got.tgz:55822.got - 2010.06.03 23:40:54.
