data_PCOD9327577
_publ_section_title
;
Structure prediction by ZEFSAII (Michael W. Deem and Ramdas Pophale) SiO2 
 PCOD9327577
Probable space group: F 2 2 2
;
_chemical_formula_sum "Si O2"
_cell_formula_units_Z 120
_cell_length_a 19.768732
_cell_length_b 15.615704
_cell_length_c 19.222928
_cell_angle_alpha 90.000000
_cell_angle_beta 90.000000
_cell_angle_gamma 90.000000
_cell_volume 5934.169148
_symmetry_space_group_name_H-M "F 2 2 2"
_symmetry_group_IT_number 22
_symmetry_cell_setting 'orthorhombic'
loop_
_space_group_symop_operation_xyz
x,y,z
-x,-y,z
x,-y,-z
-x,y,-z
x,1/2+y,1/2+z
-x,1/2-y,1/2+z
x,1/2-y,1/2-z
-x,1/2+y,1/2-z
1/2+x,y,1/2+z
1/2-x,-y,1/2+z
1/2+x,-y,1/2-z
1/2-x,y,1/2-z
1/2+x,1/2+y,z
1/2-x,1/2-y,z
1/2+x,1/2-y,-z
1/2-x,1/2+y,-z
loop_
_atom_site_type_symbol
_atom_site_label
_atom_site_fract_x
_atom_site_fract_y
_atom_site_fract_z
Si Si1 0.185738 0.705460 0.527716
Si Si2 0.145094 0.167726 0.704245
Si Si3 0.140020 0.029703 0.078858
Si Si4 0.490567 0.253178 0.832028
Si Si5 0.555121 0.060591 0.307245
Si Si6 0.871844 0.500000 0.000000
Si Si7 0.239929 0.096301 0.590259
Si Si8 0.433788 0.830365 0.953920
O O1 0.250000 0.750000 0.563267
O O2 0.154309 0.629731 0.573090
O O3 0.282390 0.837729 0.458088
O O4 0.128267 0.775297 0.515654
O O5 0.163836 0.250000 0.750000
O O6 0.080274 0.201314 0.659587
O O7 0.112700 0.095814 0.754954
O O8 0.207254 0.137333 0.658142
O O9 0.084730 0.998879 0.132553
O O10 0.208213 0.980979 0.101959
O O11 0.124004 0.000000 0.000000
O O12 0.507356 0.250000 0.750000
O O13 0.475449 0.353632 0.842997
O O14 0.546424 0.208708 0.879255
O O15 0.500000 0.000000 0.269969
O O16 0.822485 0.555643 0.951674
O O17 0.914831 0.430594 0.956885
O O18 0.500000 0.816777 0.000000
#
# Coordination Sequence:
#
# PCOD9327577 Si02
#       8
#    16  16  16  16  16   8  16  16
#     4  11  22  41  64  96 136 176 217 282 345 403
#     4   9  22  41  65  96 129 177 224 274 348 422
#     4  10  22  37  60  92 127 171 221 277 333 402
#     4   9  22  43  63  97 138 178 229 277 350 425
#     4  10  21  40  61  91 133 173 228 277 341 412
#     4  12  23  44  62 106 135 180 230 294 341 408
#     4  11  21  41  66  94 138 173 222 282 343 409
#     4  12  25  39  70 104 139 181 234 286 354 416
#
# _framework density 20.221869999999999
#
# number of rings (size 3 to 8) (size 9 to 14) (size 15 to 20)
#    0.000    1.867    3.333    1.800    3.733    5.067 
#    0.000    2.667    0.000    2.000    0.000    0.000 
#    0.000    0.000    0.000    0.000    0.000    0.000 
#
# Total GULP energy -167558.855454 kJ/mol
# GULP energy per Si atom -5585.295182 kJ/mol
# Density = 2.017584 g / cm^3
# Si number density = 20.221870 Si / 1000 Ang^3
#
#
#
# Elastic Constant Matrix: (Units=GPa)
#
#
# Indices 1 2 3 4 5 6 
#
# 1 89.6275 56.5146 44.0590 0.0000 0.0000 0.0000
# 2 56.5146 139.1873 42.4256 0.0000 0.0000 0.0000
# 3 44.0590 42.4256 80.8208 0.0000 0.0000 0.0000
# 4 0.0000 0.0000 0.0000 22.9907 0.0000 0.0000
# 5 0.0000 0.0000 0.0000 0.0000 11.6144 0.0000
# 6 0.0000 0.0000 0.0000 0.0000 0.0000 22.1436
#
#
#
# Elastic Compliance Matrix: (Units=1/GPa)
#
#
# Indices 1 2 3 4 5 6 
#
# 1 0.017833 -0.005092 -0.007048 0.000000 0.000000 0.000000
# 2 -0.005092 0.010007 -0.002477 0.000000 0.000000 0.000000
# 3 -0.007048 -0.002477 0.017516 0.000000 0.000000 0.000000
# 4 0.000000 0.000000 0.000000 0.043496 0.000000 0.000000
# 5 0.000000 0.000000 0.000000 0.000000 0.086100 0.000000
# 6 0.000000 0.000000 0.000000 0.000000 0.000000 0.045160
#
#
# Mechanical properties :
#
#
# Convention : Reuss Voigt Hill
#
# Bulk Modulus (GPa) = 62.03341 66.18155 64.10748
# Shear Modulus (GPa) = 19.62927 22.45882 21.04405
#
# Velocity S-wave (km/s) = 3.11898 3.33621 3.22942
# Velocity P-wave (km/s) = 6.61163 6.90211 6.75843
#
# Compressibility (1/GPa) = 0.01612035
#
# Stress axis : x y z
#
# Youngs Moduli (GPa) = 56.07520 99.92722 57.09139
#
# Poissons Ratio (x) = 0.50887 0.40241
# Poissons Ratio (y) = 0.28556 0.14142
# Poissons Ratio (z) = 0.39524 0.24753
#
# Static dielectric constant tensor:
#      x y z
#    x 1.734380 0.000000 0.000000 
#    y 0.000000 1.921020 0.000000 
#    z 0.000000 0.000000 1.729270 
# 
# From -- ./inp_files/44910.got.cif
#   From: 2010.05.17/outbox.cif.g08.bks.cpg/sg22_23_cif.got.tgz:44910.got - 2010.06.03 23:40:54.
