data_PCOD9327275
_publ_section_title
;
Structure prediction by ZEFSAII (Michael W. Deem and Ramdas Pophale) SiO2 
 PCOD9327275
Probable space group: F 2 2 2
;
_chemical_formula_sum "Si O2"
_cell_formula_units_Z 60
_cell_length_a 10.130923
_cell_length_b 11.484959
_cell_length_c 20.693036
_cell_angle_alpha 90.000000
_cell_angle_beta 90.000000
_cell_angle_gamma 90.000000
_cell_volume 2407.701687
_symmetry_space_group_name_H-M "F 2 2 2"
_symmetry_group_IT_number 22
_symmetry_cell_setting 'orthorhombic'
loop_
_space_group_symop_operation_xyz
x,y,z
-x,-y,z
x,-y,-z
-x,y,-z
x,1/2+y,1/2+z
-x,1/2-y,1/2+z
x,1/2-y,1/2-z
-x,1/2+y,1/2-z
1/2+x,y,1/2+z
1/2-x,-y,1/2+z
1/2+x,-y,1/2-z
1/2-x,y,1/2-z
1/2+x,1/2+y,z
1/2-x,1/2-y,z
1/2+x,1/2-y,-z
1/2-x,1/2+y,-z
loop_
_atom_site_type_symbol
_atom_site_label
_atom_site_fract_x
_atom_site_fract_y
_atom_site_fract_z
Si Si1 0.558410 0.671572 0.568941
Si Si2 0.613680 0.178715 0.806212
Si Si3 0.000000 0.000000 0.000000
Si Si4 0.500000 0.000000 0.720032
Si Si5 0.835497 0.076546 0.099113
O O1 0.500000 0.637921 0.500000
O O2 0.451147 0.670665 0.625022
O O3 0.679871 0.592750 0.593572
O O4 0.608678 0.805811 0.565119
O O5 0.535202 0.250000 0.750000
O O6 0.750000 0.250000 0.813445
O O7 0.604892 0.057132 0.769517
O O8 0.110937 0.970058 0.944528
O O9 0.403514 0.066404 0.668816
#
# Coordination Sequence:
#
# PCOD9327275 Si02
#       5
#    16  16   4   8  16
#     4  11  24  46  72 112 150 196 251 325 391 480
#     4  11  26  47  74 110 152 203 260 319 393 472
#     4  10  20  44  70 108 142 194 238 302 398 472
#     4  11  24  53  77 114 149 210 262 334 393 474
#     4  10  23  43  76 105 146 196 252 315 395 469
#
# _framework density 24.920031999999999
#
# number of rings (size 3 to 8) (size 9 to 14) (size 15 to 20)
#    0.000    1.333    4.000    0.000    3.733    5.333 
#    9.600    0.000    0.000    0.000    0.000    0.000 
#    0.000    0.000    0.000    0.000    0.000    0.000 
#
# Total GULP energy -83524.416493 kJ/mol
# GULP energy per Si atom -5568.294433 kJ/mol
# Density = 2.486331 g / cm^3
# Si number density = 24.920032 Si / 1000 Ang^3
#
#
#
# Elastic Constant Matrix: (Units=GPa)
#
#
# Indices 1 2 3 4 5 6 
#
# 1 207.9217 54.8556 123.2170 0.0000 0.0000 0.0000
# 2 54.8556 55.1761 47.4076 0.0000 0.0000 0.0000
# 3 123.2170 47.4076 248.5521 0.0000 0.0000 0.0000
# 4 0.0000 0.0000 0.0000 21.3211 0.0000 0.0000
# 5 0.0000 0.0000 0.0000 0.0000 29.3145 0.0000
# 6 0.0000 0.0000 0.0000 0.0000 0.0000 41.8634
#
#
#
# Elastic Compliance Matrix: (Units=1/GPa)
#
#
# Indices 1 2 3 4 5 6 
#
# 1 0.007966 -0.005414 -0.002917 0.000000 0.000000 0.000000
# 2 -0.005414 0.025356 -0.002152 0.000000 0.000000 0.000000
# 3 -0.002917 -0.002152 0.005880 0.000000 0.000000 0.000000
# 4 0.000000 0.000000 0.000000 0.046902 0.000000 0.000000
# 5 0.000000 0.000000 0.000000 0.000000 0.034113 0.000000
# 6 0.000000 0.000000 0.000000 0.000000 0.000000 0.023887
#
#
# Mechanical properties :
#
#
# Convention : Reuss Voigt Hill
#
# Bulk Modulus (GPa) = 54.83710 106.95671 80.89690
# Shear Modulus (GPa) = 29.21453 37.57779 33.39616
#
# Velocity S-wave (km/s) = 3.42765 3.88743 3.66475
# Velocity P-wave (km/s) = 6.14150 7.94749 7.10213
#
# Compressibility (1/GPa) = 0.01823583
#
# Stress axis : x y z
#
# Youngs Moduli (GPa) = 125.52939 39.43897 170.07826
#
# Poissons Ratio (x) = 0.21353 0.49604
# Poissons Ratio (y) = 0.67963 0.36605
# Poissons Ratio (z) = 0.36611 0.08488
#
# Static dielectric constant tensor:
#      x y z
#    x 2.043580 0.000000 0.000000 
#    y 0.000000 2.605820 0.000000 
#    z 0.000000 0.000000 1.892940 
# 
# From -- ./inp_files/35676.got.cif
#   From: 2010.05.17/outbox.cif.g08.bks.cpg/sg22_18_cif.got.tgz:35676.got - 2010.06.03 23:40:54.
