data_PCOD9327347
_publ_section_title
;
Structure prediction by ZEFSAII (Michael W. Deem and Ramdas Pophale) SiO2 
 PCOD9327347
Probable space group: F 2 2 2
;
_chemical_formula_sum "Si O2"
_cell_formula_units_Z 112
_cell_length_a 33.225441
_cell_length_b 11.055296
_cell_length_c 14.284402
_cell_angle_alpha 90.000000
_cell_angle_beta 90.000000
_cell_angle_gamma 90.000000
_cell_volume 5246.904903
_symmetry_space_group_name_H-M "F 2 2 2"
_symmetry_group_IT_number 22
_symmetry_cell_setting 'orthorhombic'
loop_
_space_group_symop_operation_xyz
x,y,z
-x,-y,z
x,-y,-z
-x,y,-z
x,1/2+y,1/2+z
-x,1/2-y,1/2+z
x,1/2-y,1/2-z
-x,1/2+y,1/2-z
1/2+x,y,1/2+z
1/2-x,-y,1/2+z
1/2+x,-y,1/2-z
1/2-x,y,1/2-z
1/2+x,1/2+y,z
1/2-x,1/2-y,z
1/2+x,1/2-y,-z
1/2-x,1/2+y,-z
loop_
_atom_site_type_symbol
_atom_site_label
_atom_site_fract_x
_atom_site_fract_y
_atom_site_fract_z
Si Si1 0.044443 0.630365 0.042565
Si Si2 0.254719 0.895851 0.640626
Si Si3 0.168194 0.073921 0.414034
Si Si4 0.456038 0.955773 0.253963
Si Si5 0.086460 0.118961 0.942659
Si Si6 0.840227 0.861681 0.058366
Si Si7 0.616411 0.108591 0.743056
O O1 0.041518 0.614158 0.155354
O O2 0.070391 0.750239 0.020234
O O3 0.058204 0.500000 0.000000
O O4 0.000000 0.649153 0.000000
O O5 0.250000 0.930107 0.750000
O O6 0.250000 0.750000 0.639316
O O7 0.215416 0.952999 0.595104
O O8 0.296855 0.917176 0.587314
O O9 0.164584 0.217301 0.430417
O O10 0.145387 0.045294 0.317740
O O11 0.150950 0.000000 0.500000
O O12 0.431302 0.891169 0.337493
O O13 0.500000 0.000000 0.283839
O O14 0.428715 0.073217 0.234992
O O15 0.134803 0.123159 0.962558
O O16 0.070939 0.000000 0.000000
O O17 0.870463 0.912510 0.137311
O O18 0.622807 0.250000 0.750000
#
# Coordination Sequence:
#
# PCOD9327347 Si02
#       7
#    16  16  16  16  16  16  16
#     4  11  27  51  74 103 135 187 247 307 360 429
#     4   9  16  34  62  92 134 180 235 294 350 419
#     4  10  21  35  64 103 131 180 236 296 349 426
#     4  12  27  47  71 104 141 189 239 306 364 430
#     4  12  28  45  70 108 146 190 235 295 367 439
#     4  10  21  40  62  96 141 184 232 284 358 431
#     4  10  22  39  67  98 135 179 235 295 350 425
#
# _framework density 21.345918000000001
#
# number of rings (size 3 to 8) (size 9 to 14) (size 15 to 20)
#    0.000    1.429    4.286    0.429    8.000    1.714 
#    0.000    0.000    0.000    0.000    0.000    0.000 
#    0.000    0.000    0.000    0.000    0.000    0.000 
#
# Total GULP energy -156128.410844 kJ/mol
# GULP energy per Si atom -5576.014673 kJ/mol
# Density = 2.129733 g / cm^3
# Si number density = 21.345918 Si / 1000 Ang^3
#
#
#
# Elastic Constant Matrix: (Units=GPa)
#
#
# Indices 1 2 3 4 5 6 
#
# 1 159.2436 18.0380 59.7365 0.0000 0.0000 0.0000
# 2 18.0380 70.5334 38.8901 0.0000 0.0000 0.0000
# 3 59.7365 38.8901 137.8113 0.0000 0.0000 0.0000
# 4 0.0000 0.0000 0.0000 37.5083 0.0000 0.0000
# 5 0.0000 0.0000 0.0000 0.0000 28.6369 0.0000
# 6 0.0000 0.0000 0.0000 0.0000 0.0000 18.8717
#
#
#
# Elastic Compliance Matrix: (Units=1/GPa)
#
#
# Indices 1 2 3 4 5 6 
#
# 1 0.007500 -0.000149 -0.003209 0.000000 0.000000 0.000000
# 2 -0.000149 0.016793 -0.004675 0.000000 0.000000 0.000000
# 3 -0.003209 -0.004675 0.009967 0.000000 0.000000 0.000000
# 4 0.000000 0.000000 0.000000 0.026661 0.000000 0.000000
# 5 0.000000 0.000000 0.000000 0.000000 0.034920 0.000000
# 6 0.000000 0.000000 0.000000 0.000000 0.000000 0.052989
#
#
# Mechanical properties :
#
#
# Convention : Reuss Voigt Hill
#
# Bulk Modulus (GPa) = 54.95960 66.76863 60.86411
# Shear Modulus (GPa) = 29.24660 33.73161 31.48910
#
# Velocity S-wave (km/s) = 3.70554 3.97953 3.84498
# Velocity P-wave (km/s) = 6.64161 7.24312 6.94888
#
# Compressibility (1/GPa) = 0.01819518
#
# Stress axis : x y z
#
# Youngs Moduli (GPa) = 133.32644 59.54827 100.33580
#
# Poissons Ratio (x) = 0.00885 0.32200
# Poissons Ratio (y) = 0.01982 0.46902
# Poissons Ratio (z) = 0.42787 0.27836
#
# Static dielectric constant tensor:
#      x y z
#    x 1.775130 0.000000 0.000000 
#    y 0.000000 1.835180 0.000000 
#    z 0.000000 0.000000 1.851540 
# 
# From -- ./inp_files/33536.got.cif
#   From: 2010.05.17/outbox.cif.g08.bks.cpg/sg22_17_cif.got.tgz:33536.got - 2010.06.03 23:40:54.
