data_PCOD9327334
_publ_section_title
;
Structure prediction by ZEFSAII (Michael W. Deem and Ramdas Pophale) SiO2 
 PCOD9327334
Probable space group: F 2 2 2
;
_chemical_formula_sum "Si O2"
_cell_formula_units_Z 120
_cell_length_a 21.498959
_cell_length_b 24.635469
_cell_length_c 11.973919
_cell_angle_alpha 90.000000
_cell_angle_beta 90.000000
_cell_angle_gamma 90.000000
_cell_volume 6341.829795
_symmetry_space_group_name_H-M "F 2 2 2"
_symmetry_group_IT_number 22
_symmetry_cell_setting 'orthorhombic'
loop_
_space_group_symop_operation_xyz
x,y,z
-x,-y,z
x,-y,-z
-x,y,-z
x,1/2+y,1/2+z
-x,1/2-y,1/2+z
x,1/2-y,1/2-z
-x,1/2+y,1/2-z
1/2+x,y,1/2+z
1/2-x,-y,1/2+z
1/2+x,-y,1/2-z
1/2-x,y,1/2-z
1/2+x,1/2+y,z
1/2-x,1/2-y,z
1/2+x,1/2-y,-z
1/2-x,1/2+y,-z
loop_
_atom_site_type_symbol
_atom_site_label
_atom_site_fract_x
_atom_site_fract_y
_atom_site_fract_z
Si Si1 0.653789 0.560983 0.969851
Si Si2 0.797707 0.436576 0.993392
Si Si3 0.682357 0.647331 0.305771
Si Si4 0.909107 0.202204 0.337686
Si Si5 0.321088 0.612574 0.264974
Si Si6 0.500000 0.244296 0.500000
Si Si7 0.684638 0.258865 0.518481
Si Si8 0.894561 0.337782 0.589571
O O1 0.666101 0.572269 0.838660
O O2 0.633857 0.500000 0.000000
O O3 0.722883 0.568534 0.022375
O O4 0.607914 0.606161 0.021274
O O5 0.827615 0.400674 0.895575
O O6 0.812898 0.500000 0.000000
O O7 0.816105 0.414174 0.114045
O O8 0.750000 0.638070 0.250000
O O9 0.688121 0.704522 0.371182
O O10 0.625992 0.650724 0.216926
O O11 0.904169 0.250000 0.250000
O O12 0.882100 0.150771 0.271688
O O13 0.860096 0.210315 0.436239
O O14 0.972500 0.215533 0.404753
O O15 0.250000 0.636629 0.250000
O O16 0.547967 0.202489 0.561327
O O17 0.750000 0.250000 0.461650
O O18 0.661610 0.199007 0.544349
#
# Coordination Sequence:
#
# PCOD9327334 Si02
#       8
#    16  16  16  16  16   8  16  16
#     4  10  21  38  61  92 127 174 214 266 325 389
#     4  10  21  35  57  94 137 170 203 255 338 406
#     4  12  21  34  59  93 132 170 210 267 332 399
#     4  11  24  39  63  88 126 172 213 266 325 387
#     4  10  21  36  58  92 132 166 214 264 322 399
#     4  10  26  46  59  90 127 178 232 266 320 390
#     4  11  21  34  55  93 128 161 207 267 338 396
#     4  11  23  39  62  87 129 171 224 268 320 385
#
# _framework density 18.921983000000001
#
# number of rings (size 3 to 8) (size 9 to 14) (size 15 to 20)
#    0.000    1.333    4.000    2.000    5.600    2.667 
#    0.000    0.333    0.000    0.000    0.000    0.467 
#    0.000    0.000    0.000    0.000    0.000    0.000 
#
# Total GULP energy -167112.456303 kJ/mol
# GULP energy per Si atom -5570.415210 kJ/mol
# Density = 1.887892 g / cm^3
# Si number density = 18.921983 Si / 1000 Ang^3
#
#
#
# Elastic Constant Matrix: (Units=GPa)
#
#
# Indices 1 2 3 4 5 6 
#
# 1 53.3432 22.4658 14.8108 0.0000 0.0000 0.0000
# 2 22.4658 97.9402 19.6245 0.0000 0.0000 0.0000
# 3 14.8108 19.6245 79.5569 0.0000 0.0000 0.0000
# 4 0.0000 0.0000 0.0000 28.1545 0.0000 0.0000
# 5 0.0000 0.0000 0.0000 0.0000 41.5651 0.0000
# 6 0.0000 0.0000 0.0000 0.0000 0.0000 33.3935
#
#
#
# Elastic Compliance Matrix: (Units=1/GPa)
#
#
# Indices 1 2 3 4 5 6 
#
# 1 0.021375 -0.004319 -0.002914 0.000000 0.000000 0.000000
# 2 -0.004319 0.011614 -0.002061 0.000000 0.000000 0.000000
# 3 -0.002914 -0.002061 0.013620 0.000000 0.000000 0.000000
# 4 0.000000 0.000000 0.000000 0.035518 0.000000 0.000000
# 5 0.000000 0.000000 0.000000 0.000000 0.024059 0.000000
# 6 0.000000 0.000000 0.000000 0.000000 0.000000 0.029946
#
#
# Mechanical properties :
#
#
# Convention : Reuss Voigt Hill
#
# Bulk Modulus (GPa) = 35.68682 38.29360 36.99021
# Shear Modulus (GPa) = 30.47672 32.21859 31.34766
#
# Velocity S-wave (km/s) = 4.01765 4.13086 4.07465
# Velocity P-wave (km/s) = 6.35790 6.56000 6.45974
#
# Compressibility (1/GPa) = 0.02802155
#
# Stress axis : x y z
#
# Youngs Moduli (GPa) = 46.78459 86.10324 73.41927
#
# Poissons Ratio (x) = 0.37189 0.21393
# Poissons Ratio (y) = 0.20207 0.15130
# Poissons Ratio (z) = 0.13632 0.17744
#
# Static dielectric constant tensor:
#      x y z
#    x 1.704530 0.000000 0.000000 
#    y 0.000000 1.661490 0.000000 
#    z 0.000000 0.000000 1.573460 
# 
# From -- ./inp_files/23002.got.cif
#   From: 2010.05.17/outbox.cif.g08.bks.cpg/sg22_12_cif.got.tgz:23002.got - 2010.06.03 23:40:54.
