data_PCOD9327883
_publ_section_title
;
Structure prediction by ZEFSAII (Michael W. Deem and Ramdas Pophale) SiO2 
 PCOD9327883
Probable space group: F 2 2 2
;
_chemical_formula_sum "Si O2"
_cell_formula_units_Z 104
_cell_length_a 25.517112
_cell_length_b 23.862101
_cell_length_c 9.055504
_cell_angle_alpha 90.000000
_cell_angle_beta 90.000000
_cell_angle_gamma 90.000000
_cell_volume 5513.823070
_symmetry_space_group_name_H-M "F 2 2 2"
_symmetry_group_IT_number 22
_symmetry_cell_setting 'orthorhombic'
loop_
_space_group_symop_operation_xyz
x,y,z
-x,-y,z
x,-y,-z
-x,y,-z
x,1/2+y,1/2+z
-x,1/2-y,1/2+z
x,1/2-y,1/2-z
-x,1/2+y,1/2-z
1/2+x,y,1/2+z
1/2-x,-y,1/2+z
1/2+x,-y,1/2-z
1/2-x,y,1/2-z
1/2+x,1/2+y,z
1/2-x,1/2-y,z
1/2+x,1/2-y,-z
1/2-x,1/2+y,-z
loop_
_atom_site_type_symbol
_atom_site_label
_atom_site_fract_x
_atom_site_fract_y
_atom_site_fract_z
Si Si1 0.539448 0.400757 0.756200
Si Si2 0.130521 0.250000 0.250000
Si Si3 0.444116 0.809582 0.983634
Si Si4 0.798459 0.039842 0.860458
Si Si5 0.139230 0.853126 0.932886
Si Si6 0.077883 0.131256 0.777489
Si Si7 0.602098 0.505711 0.676630
O O1 0.544082 0.368101 0.600731
O O2 0.586931 0.376336 0.851845
O O3 0.482928 0.382740 0.819650
O O4 0.553714 0.465820 0.729004
O O5 0.094136 0.223652 0.377533
O O6 0.158512 0.200130 0.161685
O O7 0.500000 0.779095 0.000000
O O8 0.423004 0.824981 0.143401
O O9 0.750000 0.044617 0.750000
O O10 0.817155 0.099188 0.924977
O O11 0.847251 0.016675 0.764274
O O12 0.787527 0.000000 0.000000
O O13 0.116433 0.845769 0.096849
O O14 0.096059 0.070329 0.720396
O O15 0.607353 0.500000 0.500000
#
# Coordination Sequence:
#
# PCOD9327883 Si02
#       7
#    16   8  16  16  16  16  16
#     4   9  19  31  50  82 124 167 198 241 295 354
#     4  10  22  40  55  78 118 162 204 258 307 348
#     4   9  19  32  51  77 113 165 216 248 287 337
#     4  11  23  43  65  93 117 152 192 251 314 376
#     4  10  22  39  58  85 119 156 206 247 303 360
#     4  11  19  32  54  86 123 162 207 244 287 358
#     4  11  20  33  56  86 127 162 199 243 302 368
#
# _framework density 18.861687
#
# number of rings (size 3 to 8) (size 9 to 14) (size 15 to 20)
#    0.000    1.846    3.077    1.385    0.000    4.923 
#    0.000    1.923    0.000    0.000    0.000    0.000 
#    0.000    0.000    0.000    0.000    0.000    0.000 
#
# Total GULP energy -145000.740597 kJ/mol
# GULP energy per Si atom -5576.951561 kJ/mol
# Density = 1.881876 g / cm^3
# Si number density = 18.861687 Si / 1000 Ang^3
#
#
#
# Elastic Constant Matrix: (Units=GPa)
#
#
# Indices 1 2 3 4 5 6 
#
# 1 68.0365 18.6763 28.9452 -0.0003 0.0003 0.0004
# 2 18.6763 68.1975 39.6360 -0.0005 0.0005 0.0007
# 3 28.9452 39.6360 115.7368 0.0015 -0.0004 0.0006
# 4 -0.0003 -0.0005 0.0015 23.7538 0.0000 0.0003
# 5 0.0003 0.0005 -0.0004 0.0000 19.1999 -0.0006
# 6 0.0004 0.0007 0.0006 0.0003 -0.0006 -5.6446
#
#
#
# Elastic Compliance Matrix: (Units=1/GPa)
#
#
# Indices 1 2 3 4 5 6 
#
# 1 0.016837 -0.002701 -0.003286 0.000000 0.000000 0.000001
# 2 -0.002701 0.018741 -0.005742 0.000001 -0.000001 0.000001
# 3 -0.003286 -0.005742 0.011429 -0.000001 0.000000 0.000000
# 4 0.000000 0.000001 -0.000001 0.042099 0.000000 0.000002
# 5 0.000000 -0.000001 0.000000 0.000000 0.052084 -0.000006
# 6 0.000001 0.000001 0.000000 0.000002 -0.000006 -0.177160
#
#
# Mechanical properties :
#
#
# Convention : Reuss Voigt Hill
#
# Bulk Modulus (GPa) = 42.46744 47.38730 44.92737
# Shear Modulus (GPa) = -1072.21219 18.44270 -526.88474
#
# Velocity S-wave (km/s) = -23.86827 3.13035 -16.73164
# Velocity P-wave (km/s) = 27.14827 6.18414 18.69204
#
# Compressibility (1/GPa) = 0.02354745
#
# Stress axis : x y z
#
# Youngs Moduli (GPa) = 59.39147 53.36028 87.49943
#
# Poissons Ratio (x) = 0.14414 0.28751
# Poissons Ratio (y) = 0.16044 0.50246
# Poissons Ratio (z) = 0.19515 0.30642
#
# Static dielectric constant tensor:
#      x y z
#    x 1.640850 0.000000 0.000000 
#    y 0.000000 1.683990 0.000000 
#    z 0.000000 0.000000 1.666910 
# 
# From -- ./inp_files/14033.got.cif
#   From: 2010.05.17/outbox.cif.g08.bks.cpg/sg22_8_cif.got.tgz:14033.got - 2010.06.03 23:40:54.
