data_PCOD9327721
_publ_section_title
;
Structure prediction by ZEFSAII (Michael W. Deem and Ramdas Pophale) SiO2 
 PCOD9327721
Probable space group: F 2 2 2
;
_chemical_formula_sum "Si O2"
_cell_formula_units_Z 116
_cell_length_a 24.414916
_cell_length_b 11.906854
_cell_length_c 17.358149
_cell_angle_alpha 90.000000
_cell_angle_beta 90.000000
_cell_angle_gamma 90.000000
_cell_volume 5046.097932
_symmetry_space_group_name_H-M "F 2 2 2"
_symmetry_group_IT_number 22
_symmetry_cell_setting 'orthorhombic'
loop_
_space_group_symop_operation_xyz
x,y,z
-x,-y,z
x,-y,-z
-x,y,-z
x,1/2+y,1/2+z
-x,1/2-y,1/2+z
x,1/2-y,1/2-z
-x,1/2+y,1/2-z
1/2+x,y,1/2+z
1/2-x,-y,1/2+z
1/2+x,-y,1/2-z
1/2-x,y,1/2-z
1/2+x,1/2+y,z
1/2-x,1/2-y,z
1/2+x,1/2-y,-z
1/2-x,1/2+y,-z
loop_
_atom_site_type_symbol
_atom_site_label
_atom_site_fract_x
_atom_site_fract_y
_atom_site_fract_z
Si Si1 0.336654 0.935826 0.174613
Si Si2 0.250000 0.750000 0.750000
Si Si3 0.266248 0.060976 0.572834
Si Si4 0.857966 0.235849 0.070892
Si Si5 0.162313 0.081346 0.172139
Si Si6 0.556053 0.224051 0.662816
Si Si7 0.528815 0.378621 0.075682
Si Si8 0.599672 0.406412 0.556014
O O1 0.274022 0.928859 0.145586
O O2 0.359636 0.814044 0.147985
O O3 0.343668 0.986576 0.260225
O O4 0.363323 0.027794 0.117579
O O5 0.207512 0.828439 0.797527
O O6 0.299957 0.174934 0.560857
O O7 0.237878 0.000000 0.500000
O O8 0.312218 0.972909 0.597227
O O9 0.907242 0.145334 0.070865
O O10 0.867996 0.321309 0.000154
O O11 0.104986 0.136238 0.146835
O O12 0.567039 0.250000 0.750000
O O13 0.495779 0.177448 0.651156
O O14 0.561031 0.331078 0.608310
O O15 0.500000 0.500000 0.077585
O O16 0.500000 0.325026 0.000000
O O17 0.574042 0.500000 0.500000
#
# Coordination Sequence:
#
# PCOD9327721 Si02
#       8
#    16   4  16  16  16  16  16  16
#     4  11  23  45  67 105 144 183 232 297 360 441
#     4  12  20  44  72 102 132 188 222 284 354 418
#     4  12  25  41  67 104 141 188 238 290 359 441
#     4  11  24  44  70  98 142 189 239 296 365 427
#     4  12  24  42  71 102 140 184 236 292 358 430
#     4  12  23  44  72 102 140 184 241 302 363 420
#     4  11  25  47  72  97 133 186 245 297 354 428
#     4  10  21  42  70 101 144 183 233 298 356 432
#
# _framework density 22.988060999999998
#
# number of rings (size 3 to 8) (size 9 to 14) (size 15 to 20)
#    0.000    0.690    4.828    3.310    1.931    0.552 
#    7.448    6.207    0.000    0.000    0.000    0.000 
#    0.000    0.000    0.000    0.000    0.000    0.000 
#
# Total GULP energy -161960.134972 kJ/mol
# GULP energy per Si atom -5584.832240 kJ/mol
# Density = 2.293574 g / cm^3
# Si number density = 22.988061 Si / 1000 Ang^3
#
#
#
# Elastic Constant Matrix: (Units=GPa)
#
#
# Indices 1 2 3 4 5 6 
#
# 1 94.9066 24.3476 -8.5771 0.0000 0.0000 0.0000
# 2 24.3476 100.0244 23.1249 0.0000 0.0000 0.0000
# 3 -8.5771 23.1249 51.8030 0.0000 0.0000 0.0000
# 4 0.0000 0.0000 0.0000 29.1790 0.0000 0.0000
# 5 0.0000 0.0000 0.0000 0.0000 -3.4081 0.0000
# 6 0.0000 0.0000 0.0000 0.0000 0.0000 265.8422
#
#
#
# Elastic Compliance Matrix: (Units=1/GPa)
#
#
# Indices 1 2 3 4 5 6 
#
# 1 0.011815 -0.003711 0.003613 0.000000 0.000000 0.000000
# 2 -0.003711 0.012314 -0.006111 0.000000 0.000000 0.000000
# 3 0.003613 -0.006111 0.022630 0.000000 0.000000 0.000000
# 4 0.000000 0.000000 0.000000 0.034271 0.000000 0.000000
# 5 0.000000 0.000000 0.000000 0.000000 -0.293415 0.000000
# 6 0.000000 0.000000 0.000000 0.000000 0.000000 0.003762
#
#
# Mechanical properties :
#
#
# Convention : Reuss Voigt Hill
#
# Bulk Modulus (GPa) = 29.12058 36.05832 32.58945
# Shear Modulus (GPa) = -27.06263 72.17851 22.55794
#
# Velocity S-wave (km/s) = -3.43483 5.60949 3.13595
# Velocity P-wave (km/s) = 1.74227 7.59440 5.22683
#
# Compressibility (1/GPa) = 0.03433997
#
# Stress axis : x y z
#
# Youngs Moduli (GPa) = 84.63589 81.20917 44.18859
#
# Poissons Ratio (x) = 0.30140 -0.15965
# Poissons Ratio (y) = 0.31411 0.27006
# Poissons Ratio (z) = -0.30579 0.49630
#
# Static dielectric constant tensor:
#      x y z
#    x 1.849090 0.000000 0.000000 
#    y 0.000000 1.976160 0.000000 
#    z 0.000000 0.000000 1.321280 
# 
# From -- ./inp_files/40060.got.cif
#   From: 2010.05.17/outbox.cif.g08.bks.cpg/sg22_21_cif.got.tgz:40060.got - 2010.06.03 23:40:54.
