data_PCOD9327389
_publ_section_title
;
Structure prediction by ZEFSAII (Michael W. Deem and Ramdas Pophale) SiO2 
 PCOD9327389
Probable space group: F 2 2 2
;
_chemical_formula_sum "Si O2"
_cell_formula_units_Z 116
_cell_length_a 26.936721
_cell_length_b 8.918455
_cell_length_c 24.184284
_cell_angle_alpha 90.000000
_cell_angle_beta 90.000000
_cell_angle_gamma 90.000000
_cell_volume 5809.885688
_symmetry_space_group_name_H-M "F 2 2 2"
_symmetry_group_IT_number 22
_symmetry_cell_setting 'orthorhombic'
loop_
_space_group_symop_operation_xyz
x,y,z
-x,-y,z
x,-y,-z
-x,y,-z
x,1/2+y,1/2+z
-x,1/2-y,1/2+z
x,1/2-y,1/2-z
-x,1/2+y,1/2-z
1/2+x,y,1/2+z
1/2-x,-y,1/2+z
1/2+x,-y,1/2-z
1/2-x,y,1/2-z
1/2+x,1/2+y,z
1/2-x,1/2-y,z
1/2+x,1/2-y,-z
1/2-x,1/2+y,-z
loop_
_atom_site_type_symbol
_atom_site_label
_atom_site_fract_x
_atom_site_fract_y
_atom_site_fract_z
Si Si1 0.129832 0.870492 0.124308
Si Si2 0.889464 0.415725 0.772124
Si Si3 0.000000 0.500000 0.500000
Si Si4 0.693075 0.088755 0.269071
Si Si5 0.084889 0.157758 0.063817
Si Si6 0.442374 0.462328 0.384925
Si Si7 0.373532 0.138155 0.966983
Si Si8 0.458497 0.373588 0.797623
O O1 0.173481 0.912771 0.167706
O O2 0.147892 0.738371 0.083146
O O3 0.076186 0.815980 0.151514
O O4 0.114999 0.022830 0.091815
O O5 0.900276 0.250000 0.750000
O O6 0.832228 0.453480 0.763856
O O7 0.908811 0.472713 0.830693
O O8 0.917561 0.525519 0.731400
O O9 0.035323 0.594963 0.537847
O O10 0.672175 0.250000 0.250000
O O11 0.750000 0.088303 0.250000
O O12 0.065922 0.286321 0.104169
O O13 0.113253 0.241454 0.014099
O O14 0.500000 0.500000 0.375037
O O15 0.420444 0.554944 0.436944
O O16 0.347387 0.000000 0.000000
O O17 0.500000 0.500000 0.812899
O O18 0.474494 0.250000 0.750000
#
# Coordination Sequence:
#
# PCOD9327389 Si02
#       8
#    16  16   4  16  16  16  16  16
#     4  11  21  38  59  85 118 160 202 252 311 364
#     4  11  22  38  57  87 122 153 198 255 312 381
#     4  12  20  36  50  76 124 160 222 252 272 332
#     4  10  22  42  67  92 115 150 198 253 317 388
#     4  11  23  35  54  83 122 165 213 255 292 346
#     4  11  22  35  54  81 120 168 206 249 302 352
#     4  10  21  37  55  83 120 160 206 250 291 347
#     4  11  23  36  53  80 119 165 210 251 303 369
#
# _framework density 19.965969999999999
#
# number of rings (size 3 to 8) (size 9 to 14) (size 15 to 20)
#    0.000    1.241    1.379    6.621    0.966    4.414 
#    0.000    0.690    0.000    0.000    0.000   36.690 
#    0.000    0.000    0.000    0.000    0.000    0.000 
#
# Total GULP energy -161510.880668 kJ/mol
# GULP energy per Si atom -5569.340713 kJ/mol
# Density = 1.992053 g / cm^3
# Si number density = 19.965970 Si / 1000 Ang^3
#
#
#
# Elastic Constant Matrix: (Units=GPa)
#
#
# Indices 1 2 3 4 5 6 
#
# 1 68.0036 19.8278 32.9142 0.0000 0.0001 0.0000
# 2 19.8278 103.2334 41.0809 0.0000 0.0003 0.0000
# 3 32.9142 41.0809 100.1921 0.0000 0.0000 0.0000
# 4 0.0000 0.0000 0.0000 48.0690 0.0001 0.0000
# 5 0.0001 0.0003 0.0000 0.0001 -51.5832 -0.0001
# 6 0.0000 0.0000 0.0000 0.0000 -0.0001 18.0322
#
#
#
# Elastic Compliance Matrix: (Units=1/GPa)
#
#
# Indices 1 2 3 4 5 6 
#
# 1 0.017628 -0.001292 -0.005261 0.000000 0.000000 0.000000
# 2 -0.001292 0.011670 -0.004361 0.000000 0.000000 0.000000
# 3 -0.005261 -0.004361 0.013497 0.000000 0.000000 0.000000
# 4 0.000000 0.000000 0.000000 0.020803 0.000000 0.000000
# 5 0.000000 0.000000 0.000000 0.000000 -0.019386 0.000000
# 6 0.000000 0.000000 0.000000 0.000000 0.000000 0.055456
#
#
# Mechanical properties :
#
#
# Convention : Reuss Voigt Hill
#
# Bulk Modulus (GPa) = 47.69238 51.00833 49.35035
# Shear Modulus (GPa) = 38.91461 14.74402 26.82932
#
# Velocity S-wave (km/s) = 4.41959 2.72041 3.66970
# Velocity P-wave (km/s) = 7.06982 5.95572 6.53655
#
# Compressibility (1/GPa) = 0.02096771
#
# Stress axis : x y z
#
# Youngs Moduli (GPa) = 56.72679 85.68818 74.08975
#
# Poissons Ratio (x) = 0.11072 0.38981
# Poissons Ratio (y) = 0.07330 0.32307
# Poissons Ratio (z) = 0.29846 0.37365
#
# Static dielectric constant tensor:
#      x y z
#    x 1.735630 0.000000 0.000000 
#    y 0.000000 2.867480 0.000000 
#    z 0.000000 0.000000 1.669850 
# 
# From -- ./inp_files/47526.got.cif
#   From: 2010.05.17/outbox.cif.g08.bks.cpg/sg22_24_cif.got.tgz:47526.got - 2010.06.03 23:40:54.
