data_PCOD9327749
_publ_section_title
;
Structure prediction by ZEFSAII (Michael W. Deem and Ramdas Pophale) SiO2 
 PCOD9327749
Probable space group: F 2 2 2
;
_chemical_formula_sum "Si O2"
_cell_formula_units_Z 64
_cell_length_a 21.551365
_cell_length_b 12.553543
_cell_length_c 9.660221
_cell_angle_alpha 90.000000
_cell_angle_beta 90.000000
_cell_angle_gamma 90.000000
_cell_volume 2613.534027
_symmetry_space_group_name_H-M "F 2 2 2"
_symmetry_group_IT_number 22
_symmetry_cell_setting 'orthorhombic'
loop_
_space_group_symop_operation_xyz
x,y,z
-x,-y,z
x,-y,-z
-x,y,-z
x,1/2+y,1/2+z
-x,1/2-y,1/2+z
x,1/2-y,1/2-z
-x,1/2+y,1/2-z
1/2+x,y,1/2+z
1/2-x,-y,1/2+z
1/2+x,-y,1/2-z
1/2-x,y,1/2-z
1/2+x,1/2+y,z
1/2-x,1/2-y,z
1/2+x,1/2-y,-z
1/2-x,1/2+y,-z
loop_
_atom_site_type_symbol
_atom_site_label
_atom_site_fract_x
_atom_site_fract_y
_atom_site_fract_z
Si Si1 0.744813 0.124916 0.596556
Si Si2 0.386952 0.855509 0.450803
Si Si3 0.880185 0.381894 0.977945
Si Si4 0.432450 0.459659 0.213706
O O1 0.750000 0.073158 0.750000
O O2 0.750000 0.250000 0.618796
O O3 0.680528 0.115232 0.515031
O O4 0.806367 0.105016 0.508012
O O5 0.396177 0.727988 0.444663
O O6 0.395429 0.929623 0.316262
O O7 0.434038 0.898615 0.567435
O O8 0.898578 0.376611 0.815764
O O9 0.908696 0.500000 0.000000
O O10 0.500000 0.500000 0.256676
#
# Coordination Sequence:
#
# PCOD9327749 Si02
#       4
#    16  16  16  16
#     4   9  17  34  65  94 126 161 205 265 327 390
#     4  10  21  43  68  95 124 170 221 269 330 393
#     4  11  24  40  63 102 133 168 215 272 339 396
#     4  11  24  44  66  92 126 176 229 269 320 391
#
# _framework density 24.487915000000001
#
# number of rings (size 3 to 8) (size 9 to 14) (size 15 to 20)
#    0.000    1.750    2.500    2.250    3.500    1.500 
#   13.500    0.000    0.000    4.500    0.000    0.000 
#    0.000    0.000    0.000    0.000    0.000    0.000 
#
# Total GULP energy -89149.913780 kJ/mol
# GULP energy per Si atom -5571.869611 kJ/mol
# Density = 2.443218 g / cm^3
# Si number density = 24.487915 Si / 1000 Ang^3
#
#
#
# Elastic Constant Matrix: (Units=GPa)
#
#
# Indices 1 2 3 4 5 6 
#
# 1 126.4049 11.0301 16.4229 0.0000 0.0000 0.0000
# 2 11.0301 200.7975 21.1035 0.0000 0.0000 0.0000
# 3 16.4229 21.1035 13.8991 0.0000 0.0000 0.0000
# 4 0.0000 0.0000 0.0000 39.5659 0.0000 0.0000
# 5 0.0000 0.0000 0.0000 0.0000 37.8517 0.0000
# 6 0.0000 0.0000 0.0000 0.0000 0.0000 -2.3736
#
#
#
# Elastic Compliance Matrix: (Units=1/GPa)
#
#
# Indices 1 2 3 4 5 6 
#
# 1 0.009447 0.000778 -0.012344 0.000000 0.000000 0.000000
# 2 0.000778 0.005990 -0.010014 0.000000 0.000000 0.000000
# 3 -0.012344 -0.010014 0.101739 0.000000 0.000000 0.000000
# 4 0.000000 0.000000 0.000000 0.025274 0.000000 0.000000
# 5 0.000000 0.000000 0.000000 0.000000 0.026419 0.000000
# 6 0.000000 0.000000 0.000000 0.000000 0.000000 -0.421295
#
#
# Mechanical properties :
#
#
# Convention : Reuss Voigt Hill
#
# Bulk Modulus (GPa) = 13.51082 48.69053 31.10067
# Shear Modulus (GPa) = -27.08654 34.51178 3.71262
#
# Velocity S-wave (km/s) = -3.32944 3.75819 1.23264
# Velocity P-wave (km/s) = 3.04154 6.22564 3.84107
#
# Compressibility (1/GPa) = 0.07401473
#
# Stress axis : x y z
#
# Youngs Moduli (GPa) = 105.85398 166.94804 9.82910
#
# Poissons Ratio (x) = -0.12996 0.12133
# Poissons Ratio (y) = -0.08240 0.09843
# Poissons Ratio (z) = 1.30670 1.67190
#
# Static dielectric constant tensor:
#      x y z
#    x 1.931600 0.000000 0.000000 
#    y 0.000000 1.960210 0.000000 
#    z 0.000000 0.000000 2.289720 
# 
# From -- ./inp_files/17746.got.cif
#   From: 2010.05.17/outbox.cif.g08.bks.cpg/sg22_9_cif.got.tgz:17746.got - 2010.06.03 23:40:54.
