data_PCOD9327943
_publ_section_title
;
Structure prediction by ZEFSAII (Michael W. Deem and Ramdas Pophale) SiO2 
 PCOD9327943
Probable space group: F 2 2 2
;
_chemical_formula_sum "Si O2"
_cell_formula_units_Z 104
_cell_length_a 8.613638
_cell_length_b 25.015591
_cell_length_c 24.094716
_cell_angle_alpha 90.000000
_cell_angle_beta 90.000000
_cell_angle_gamma 90.000000
_cell_volume 5191.814839
_symmetry_space_group_name_H-M "F 2 2 2"
_symmetry_group_IT_number 22
_symmetry_cell_setting 'orthorhombic'
loop_
_space_group_symop_operation_xyz
x,y,z
-x,-y,z
x,-y,-z
-x,y,-z
x,1/2+y,1/2+z
-x,1/2-y,1/2+z
x,1/2-y,1/2-z
-x,1/2+y,1/2-z
1/2+x,y,1/2+z
1/2-x,-y,1/2+z
1/2+x,-y,1/2-z
1/2-x,y,1/2-z
1/2+x,1/2+y,z
1/2-x,1/2-y,z
1/2+x,1/2-y,-z
1/2-x,1/2+y,-z
loop_
_atom_site_type_symbol
_atom_site_label
_atom_site_fract_x
_atom_site_fract_y
_atom_site_fract_z
Si Si1 0.819806 0.689782 0.014563
Si Si2 0.184843 0.942440 0.690533
Si Si3 0.850740 0.638128 0.385607
Si Si4 0.687136 0.135290 0.415335
Si Si5 0.078376 0.765765 0.813866
Si Si6 0.317212 0.069188 0.810255
Si Si7 0.750000 0.250000 0.364407
O O1 0.750000 0.750000 0.007574
O O2 0.768421 0.670856 0.075848
O O3 0.763595 0.640129 0.975681
O O4 0.000000 0.695995 0.000000
O O5 0.250000 0.924644 0.750000
O O6 0.267887 0.912058 0.641012
O O7 0.003353 0.928332 0.690201
O O8 0.216675 0.005746 0.685777
O O9 0.920507 0.672961 0.334073
O O10 0.004482 0.624656 0.420216
O O11 0.753574 0.099597 0.364757
O O12 0.715596 0.196687 0.397667
O O13 0.081531 0.750000 0.750000
O O14 0.250000 0.750000 0.835271
O O15 0.915404 0.740655 0.834064
O O16 0.250000 0.088086 0.750000
#
# Coordination Sequence:
#
# PCOD9327943 Si02
#       7
#    16  16  16  16  16  16   8
#     4  12  25  42  66  91 126 170 218 266 316 383
#     4  10  22  40  65  94 130 168 218 263 323 387
#     4  11  24  40  63  91 124 168 213 269 318 387
#     4  11  23  41  64  91 125 167 214 263 323 379
#     4  10  23  37  56  87 128 166 205 256 317 382
#     4  10  22  41  65  95 127 171 213 268 323 385
#     4  10  23  38  58  88 126 166 211 254 316 392
#
# _framework density 20.03153
#
# number of rings (size 3 to 8) (size 9 to 14) (size 15 to 20)
#    0.000    1.385    0.769    3.923    8.615    4.308 
#    0.000    0.769    0.000    4.615    0.000    0.000 
#    0.000    0.000    0.000    0.000    0.000    0.000 
#
# Total GULP energy -144859.173328 kJ/mol
# GULP energy per Si atom -5571.506666 kJ/mol
# Density = 1.998594 g / cm^3
# Si number density = 20.031530 Si / 1000 Ang^3
#
#
#
# Elastic Constant Matrix: (Units=GPa)
#
#
# Indices 1 2 3 4 5 6 
#
# 1 111.0332 43.4412 45.5610 0.0000 0.0000 0.0000
# 2 43.4412 47.0957 38.8211 0.0000 0.0000 0.0000
# 3 45.5610 38.8211 104.7168 0.0000 0.0000 0.0000
# 4 0.0000 0.0000 0.0000 37.6534 0.0000 0.0000
# 5 0.0000 0.0000 0.0000 0.0000 24.1275 0.0000
# 6 0.0000 0.0000 0.0000 0.0000 0.0000 32.6238
#
#
#
# Elastic Compliance Matrix: (Units=1/GPa)
#
#
# Indices 1 2 3 4 5 6 
#
# 1 0.014356 -0.011655 -0.001925 0.000000 0.000000 0.000000
# 2 -0.011655 0.040040 -0.009773 0.000000 0.000000 0.000000
# 3 -0.001925 -0.009773 0.014010 0.000000 0.000000 0.000000
# 4 0.000000 0.000000 0.000000 0.026558 0.000000 0.000000
# 5 0.000000 0.000000 0.000000 0.000000 0.041447 0.000000
# 6 0.000000 0.000000 0.000000 0.000000 0.000000 0.030652
#
#
# Mechanical properties :
#
#
# Convention : Reuss Voigt Hill
#
# Bulk Modulus (GPa) = 46.08341 57.61025 51.84683
# Shear Modulus (GPa) = 22.62406 27.88244 25.25325
#
# Velocity S-wave (km/s) = 3.36433 3.73490 3.55445
# Velocity P-wave (km/s) = 6.17633 6.88633 6.54097
#
# Compressibility (1/GPa) = 0.02169978
#
# Stress axis : x y z
#
# Youngs Moduli (GPa) = 69.65494 24.97510 71.37627
#
# Poissons Ratio (x) = 0.29109 0.13743
# Poissons Ratio (y) = 0.81185 0.69754
# Poissons Ratio (z) = 0.13411 0.24407
#
# Static dielectric constant tensor:
#      x y z
#    x 1.755090 0.000000 0.000000 
#    y 0.000000 1.692420 0.000000 
#    z 0.000000 0.000000 1.890720 
# 
# From -- ./inp_files/51962.got.cif
#   From: 2010.05.17/outbox.cif.g08.bks.cpg/sg22_26_cif.got.tgz:51962.got - 2010.06.03 23:40:54.
