data_PCOD9327055
_publ_section_title
;
Structure prediction by ZEFSAII (Michael W. Deem and Ramdas Pophale) SiO2 
 PCOD9327055
Probable space group: F 2 2 2
;
_chemical_formula_sum "Si O2"
_cell_formula_units_Z 88
_cell_length_a 22.893246
_cell_length_b 21.198036
_cell_length_c 8.784879
_cell_angle_alpha 90.000000
_cell_angle_beta 90.000000
_cell_angle_gamma 90.000000
_cell_volume 4263.230207
_symmetry_space_group_name_H-M "F 2 2 2"
_symmetry_group_IT_number 22
_symmetry_cell_setting 'orthorhombic'
loop_
_space_group_symop_operation_xyz
x,y,z
-x,-y,z
x,-y,-z
-x,y,-z
x,1/2+y,1/2+z
-x,1/2-y,1/2+z
x,1/2-y,1/2-z
-x,1/2+y,1/2-z
1/2+x,y,1/2+z
1/2-x,-y,1/2+z
1/2+x,-y,1/2-z
1/2-x,y,1/2-z
1/2+x,1/2+y,z
1/2-x,1/2-y,z
1/2+x,1/2-y,-z
1/2-x,1/2+y,-z
loop_
_atom_site_type_symbol
_atom_site_label
_atom_site_fract_x
_atom_site_fract_y
_atom_site_fract_z
Si Si1 0.500000 0.500000 0.000000
Si Si2 0.927718 0.181920 0.669040
Si Si3 0.330345 0.134756 0.655863
Si Si4 0.250000 0.750000 0.250000
Si Si5 0.439538 0.681420 0.320231
Si Si6 0.612926 0.428156 0.871860
Si Si7 0.808982 0.985503 0.676709
O O1 0.548365 0.547680 0.076544
O O2 0.923899 0.250000 0.750000
O O3 0.913526 0.185462 0.490162
O O4 0.891302 0.132269 0.763451
O O5 0.994632 0.157167 0.673495
O O6 0.292781 0.200249 0.658549
O O7 0.396582 0.147690 0.706400
O O8 0.340788 0.093514 0.503140
O O9 0.308004 0.088918 0.789685
O O10 0.445662 0.750000 0.250000
O O11 0.638554 0.484659 0.771527
O O12 0.750000 0.012568 0.750000
O O13 0.813217 0.000000 0.500000
#
# Coordination Sequence:
#
# PCOD9327055 Si02
#       7
#     4  16  16   4  16  16  16
#     4  12  24  44  78 108 144 196 242 304 380 436
#     4  10  22  38  63 101 135 180 228 288 360 428
#     4  12  23  45  69  98 138 180 240 297 361 431
#     4  12  28  40  76 106 132 192 236 300 366 432
#     4  10  20  38  63  94 135 178 223 282 358 426
#     4  12  25  46  70 105 142 187 243 304 365 442
#     4  12  26  47  73  98 137 194 246 303 363 426
#
# _framework density 20.641624
#
# number of rings (size 3 to 8) (size 9 to 14) (size 15 to 20)
#    0.000    0.727    3.636    4.364    0.000    2.909 
#    0.000    0.000    0.000    2.182    0.000    0.000 
#    0.000    0.000    0.000    0.000    0.000    0.000 
#
# Total GULP energy -122619.331544 kJ/mol
# GULP energy per Si atom -5573.605979 kJ/mol
# Density = 2.059464 g / cm^3
# Si number density = 20.641624 Si / 1000 Ang^3
#
#
#
# Elastic Constant Matrix: (Units=GPa)
#
#
# Indices 1 2 3 4 5 6 
#
# 1 68.3883 16.7265 10.8106 0.0000 0.0000 0.0000
# 2 16.7265 101.1544 34.2886 -0.0001 0.0001 0.0000
# 3 10.8106 34.2886 102.5788 -0.0003 0.0002 0.0000
# 4 0.0000 -0.0001 -0.0003 17.7565 0.0002 0.0001
# 5 0.0000 0.0001 0.0002 0.0002 27.6547 0.0000
# 6 0.0000 0.0000 0.0000 0.0001 0.0000 79.1195
#
#
#
# Elastic Compliance Matrix: (Units=1/GPa)
#
#
# Indices 1 2 3 4 5 6 
#
# 1 0.015306 -0.002238 -0.000865 0.000000 0.000000 0.000000
# 2 -0.002238 0.011476 -0.003600 0.000000 0.000000 0.000000
# 3 -0.000865 -0.003600 0.011043 0.000000 0.000000 0.000000
# 4 0.000000 0.000000 0.000000 0.056318 0.000000 0.000000
# 5 0.000000 0.000000 0.000000 0.000000 0.036160 0.000000
# 6 0.000000 0.000000 0.000000 0.000000 0.000000 0.012639
#
#
# Mechanical properties :
#
#
# Convention : Reuss Voigt Hill
#
# Bulk Modulus (GPa) = 40.95067 43.97479 42.46273
# Shear Modulus (GPa) = 30.39714 38.92585 34.66150
#
# Velocity S-wave (km/s) = 3.84163 4.34728 4.10225
# Velocity P-wave (km/s) = 6.28963 6.82266 6.56156
#
# Compressibility (1/GPa) = 0.02441962
#
# Stress axis : x y z
#
# Youngs Moduli (GPa) = 65.33194 87.13602 90.55316
#
# Poissons Ratio (x) = 0.19499 0.07834
# Poissons Ratio (y) = 0.14620 0.32602
# Poissons Ratio (z) = 0.05652 0.31372
#
# Static dielectric constant tensor:
#      x y z
#    x 1.955160 0.000000 0.000000 
#    y 0.000000 1.709320 0.000000 
#    z 0.000000 0.000000 1.742460 
# 
# From -- ./inp_files/13791.got.cif
#   From: 2010.05.17/outbox.cif.g08.bks.cpg/sg22_7_cif.got.tgz:13791.got - 2010.06.03 23:40:54.
