data_PCOD9327571
_publ_section_title
;
Structure prediction by ZEFSAII (Michael W. Deem and Ramdas Pophale) SiO2 
 PCOD9327571
Probable space group: F 2 2 2
;
_chemical_formula_sum "Si O2"
_cell_formula_units_Z 104
_cell_length_a 17.373441
_cell_length_b 27.522341
_cell_length_c 9.495129
_cell_angle_alpha 90.000000
_cell_angle_beta 90.000000
_cell_angle_gamma 90.000000
_cell_volume 4540.169685
_symmetry_space_group_name_H-M "F 2 2 2"
_symmetry_group_IT_number 22
_symmetry_cell_setting 'orthorhombic'
loop_
_space_group_symop_operation_xyz
x,y,z
-x,-y,z
x,-y,-z
-x,y,-z
x,1/2+y,1/2+z
-x,1/2-y,1/2+z
x,1/2-y,1/2-z
-x,1/2+y,1/2-z
1/2+x,y,1/2+z
1/2-x,-y,1/2+z
1/2+x,-y,1/2-z
1/2-x,y,1/2-z
1/2+x,1/2+y,z
1/2-x,1/2-y,z
1/2+x,1/2-y,-z
1/2-x,1/2+y,-z
loop_
_atom_site_type_symbol
_atom_site_label
_atom_site_fract_x
_atom_site_fract_y
_atom_site_fract_z
Si Si1 0.951492 0.049193 0.247004
Si Si2 0.805003 0.948167 0.961366
Si Si3 0.098904 0.891409 0.815979
Si Si4 0.369835 0.305213 0.722500
Si Si5 0.750000 0.879527 0.750000
Si Si6 0.465730 0.790440 0.647396
Si Si7 0.088151 0.375991 0.993293
O O1 0.878196 0.042491 0.144352
O O2 0.922308 0.079077 0.383686
O O3 0.015464 0.082806 0.171358
O O4 0.000000 0.000000 0.279517
O O5 0.743075 0.915400 0.881422
O O6 0.839293 0.920893 0.095760
O O7 0.771432 0.000000 0.000000
O O8 0.088660 0.836501 0.871187
O O9 0.114641 0.890420 0.648530
O O10 0.345449 0.250000 0.750000
O O11 0.317164 0.343912 0.801090
O O12 0.457240 0.308195 0.772894
O O13 0.366027 0.329652 0.568486
O O14 0.500000 0.771186 0.500000
O O15 0.430991 0.750000 0.750000
O O16 0.000000 0.357948 0.000000
#
# Coordination Sequence:
#
# PCOD9327571 Si02
#       7
#    16  16  16  16   8  16  16
#     4  11  20  38  67  98 139 171 228 278 352 421
#     4  12  25  45  67  96 131 191 232 292 336 412
#     4  11  22  38  64 101 142 167 221 281 354 408
#     4  11  23  40  71  94 132 181 230 278 340 411
#     4  12  25  50  64  90 136 174 253 274 330 414
#     4  11  23  36  64 101 137 170 214 277 359 413
#     4  10  21  40  61 105 143 174 210 285 358 417
#
# _framework density 22.906631999999998
#
# number of rings (size 3 to 8) (size 9 to 14) (size 15 to 20)
#    0.000    0.923    6.154    2.538    4.308    2.769 
#    2.769    0.000    0.000    0.000    0.000    2.154 
#    0.000    0.000    0.000    0.000    0.000    0.000 
#
# Total GULP energy -145257.553273 kJ/mol
# GULP energy per Si atom -5586.828972 kJ/mol
# Density = 2.285450 g / cm^3
# Si number density = 22.906632 Si / 1000 Ang^3
#
#
#
# Elastic Constant Matrix: (Units=GPa)
#
#
# Indices 1 2 3 4 5 6 
#
# 1 45.1709 27.2790 5.8671 0.0000 0.0000 0.0000
# 2 27.2790 189.6050 52.1898 0.0000 0.0000 0.0000
# 3 5.8671 52.1898 140.6567 0.0000 0.0000 0.0000
# 4 0.0000 0.0000 0.0000 33.1241 0.0000 0.0000
# 5 0.0000 0.0000 0.0000 0.0000 21.8304 0.0000
# 6 0.0000 0.0000 0.0000 0.0000 0.0000 22.1671
#
#
#
# Elastic Compliance Matrix: (Units=1/GPa)
#
#
# Indices 1 2 3 4 5 6 
#
# 1 0.024257 -0.003577 0.000315 0.000000 0.000000 0.000000
# 2 -0.003577 0.006401 -0.002226 0.000000 0.000000 0.000000
# 3 0.000315 -0.002226 0.007922 0.000000 0.000000 0.000000
# 4 0.000000 0.000000 0.000000 0.030189 0.000000 0.000000
# 5 0.000000 0.000000 0.000000 0.000000 0.045808 0.000000
# 6 0.000000 0.000000 0.000000 0.000000 0.000000 0.045112
#
#
# Mechanical properties :
#
#
# Convention : Reuss Voigt Hill
#
# Bulk Modulus (GPa) = 36.22391 60.67826 48.45108
# Shear Modulus (GPa) = 27.79833 34.76410 31.28122
#
# Velocity S-wave (km/s) = 3.48738 3.89992 3.69941
# Velocity P-wave (km/s) = 5.66249 6.84296 6.28052
#
# Compressibility (1/GPa) = 0.02760607
#
# Stress axis : x y z
#
# Youngs Moduli (GPa) = 41.22481 156.21468 126.22577
#
# Poissons Ratio (x) = 0.55874 -0.03980
# Poissons Ratio (y) = 0.14745 0.28098
# Poissons Ratio (z) = -0.01300 0.34774
#
# Static dielectric constant tensor:
#      x y z
#    x 1.876360 0.000000 0.000000 
#    y 0.000000 1.887520 0.000000 
#    z 0.000000 0.000000 1.918120 
# 
# From -- ./inp_files/13064.got.cif
#   From: 2010.05.17/outbox.cif.g08.bks.cpg/sg22_7_cif.got.tgz:13064.got - 2010.06.03 23:40:54.
