data_PCOD9327146
_publ_section_title
;
Structure prediction by ZEFSAII (Michael W. Deem and Ramdas Pophale) SiO2 
 PCOD9327146
Probable space group: F 2 2 2
;
_chemical_formula_sum "Si O2"
_cell_formula_units_Z 56
_cell_length_a 9.074073
_cell_length_b 17.600310
_cell_length_c 14.118984
_cell_angle_alpha 90.000000
_cell_angle_beta 90.000000
_cell_angle_gamma 90.000000
_cell_volume 2254.893487
_symmetry_space_group_name_H-M "F 2 2 2"
_symmetry_group_IT_number 22
_symmetry_cell_setting 'orthorhombic'
loop_
_space_group_symop_operation_xyz
x,y,z
-x,-y,z
x,-y,-z
-x,y,-z
x,1/2+y,1/2+z
-x,1/2-y,1/2+z
x,1/2-y,1/2-z
-x,1/2+y,1/2-z
1/2+x,y,1/2+z
1/2-x,-y,1/2+z
1/2+x,-y,1/2-z
1/2-x,y,1/2-z
1/2+x,1/2+y,z
1/2-x,1/2-y,z
1/2+x,1/2-y,-z
1/2-x,1/2+y,-z
loop_
_atom_site_type_symbol
_atom_site_label
_atom_site_fract_x
_atom_site_fract_y
_atom_site_fract_z
Si Si1 0.779330 0.558463 0.415298
Si Si2 0.750000 0.455849 0.250000
Si Si3 0.593580 0.294037 0.869736
Si Si4 0.497998 0.644260 0.336486
O O1 0.775079 0.500000 0.500000
O O2 0.830735 0.511626 0.323067
O O3 0.878875 0.632266 0.432765
O O4 0.617653 0.592228 0.389362
O O5 0.646444 0.403385 0.314190
O O6 0.750000 0.250000 0.868032
O O7 0.558720 0.329818 0.766693
O O8 0.478597 0.225904 0.888371
#
# Coordination Sequence:
#
# PCOD9327146 Si02
#       4
#    16   8  16  16
#     4  11  22  40  72 102 137 185 242 294 358 428
#     4  12  24  37  65 108 140 176 244 300 354 415
#     4   9  18  40  71  92 125 192 235 274 361 428
#     4  10  20  39  70  95 136 185 232 287 361 428
#
# _framework density 24.834876000000001
#
# number of rings (size 3 to 8) (size 9 to 14) (size 15 to 20)
#    0.000    1.714    2.857    6.000    0.000    4.571 
#    0.000    2.857   56.571    0.000    0.000    0.000 
#    0.000    0.000    0.000    0.000    0.000    0.000 
#
# Total GULP energy -78293.946702 kJ/mol
# GULP energy per Si atom -5592.424764 kJ/mol
# Density = 2.477835 g / cm^3
# Si number density = 24.834876 Si / 1000 Ang^3
#
#
#
# Elastic Constant Matrix: (Units=GPa)
#
#
# Indices 1 2 3 4 5 6 
#
# 1 75.0028 68.4667 13.3059 0.0000 0.0000 0.0000
# 2 68.4667 255.0137 58.7359 0.0000 0.0000 0.0000
# 3 13.3059 58.7359 83.1953 0.0000 0.0000 0.0000
# 4 0.0000 0.0000 0.0000 50.1782 0.0000 0.0000
# 5 0.0000 0.0000 0.0000 0.0000 26.9112 0.0000
# 6 0.0000 0.0000 0.0000 0.0000 0.0000 25.0700
#
#
#
# Elastic Compliance Matrix: (Units=1/GPa)
#
#
# Indices 1 2 3 4 5 6 
#
# 1 0.017689 -0.004893 0.000626 0.000000 0.000000 0.000000
# 2 -0.004893 0.006036 -0.003479 0.000000 0.000000 0.000000
# 3 0.000626 -0.003479 0.014376 0.000000 0.000000 0.000000
# 4 0.000000 0.000000 0.000000 0.019929 0.000000 0.000000
# 5 0.000000 0.000000 0.000000 0.000000 0.037159 0.000000
# 6 0.000000 0.000000 0.000000 0.000000 0.000000 0.039888
#
#
# Mechanical properties :
#
#
# Convention : Reuss Voigt Hill
#
# Bulk Modulus (GPa) = 44.23282 77.13652 60.68467
# Shear Modulus (GPa) = 31.62415 38.61210 35.11813
#
# Velocity S-wave (km/s) = 3.57231 3.94731 3.76448
# Velocity P-wave (km/s) = 5.90463 7.20432 6.58661
#
# Compressibility (1/GPa) = 0.02260765
#
# Stress axis : x y z
#
# Youngs Moduli (GPa) = 56.53360 165.66145 69.55980
#
# Poissons Ratio (x) = 0.81061 -0.04351
# Poissons Ratio (y) = 0.27663 0.24201
# Poissons Ratio (z) = -0.03536 0.57635
#
# Static dielectric constant tensor:
#      x y z
#    x 1.975400 0.000000 0.000000 
#    y 0.000000 2.005170 0.000000 
#    z 0.000000 0.000000 2.038610 
# 
# From -- ./inp_files/26720.got.cif
#   From: 2010.05.17/outbox.cif.g08.bks.cpg/sg22_14_cif.got.tgz:26720.got - 2010.06.03 23:40:54.
