data_PCOD9327098
_publ_section_title
;
Structure prediction by ZEFSAII (Michael W. Deem and Ramdas Pophale) SiO2 
 PCOD9327098
Probable space group: F 2 2 2
;
_chemical_formula_sum "Si O2"
_cell_formula_units_Z 60
_cell_length_a 7.851432
_cell_length_b 15.206642
_cell_length_c 19.500847
_cell_angle_alpha 90.000000
_cell_angle_beta 90.000000
_cell_angle_gamma 90.000000
_cell_volume 2328.282481
_symmetry_space_group_name_H-M "F 2 2 2"
_symmetry_group_IT_number 22
_symmetry_cell_setting 'orthorhombic'
loop_
_space_group_symop_operation_xyz
x,y,z
-x,-y,z
x,-y,-z
-x,y,-z
x,1/2+y,1/2+z
-x,1/2-y,1/2+z
x,1/2-y,1/2-z
-x,1/2+y,1/2-z
1/2+x,y,1/2+z
1/2-x,-y,1/2+z
1/2+x,-y,1/2-z
1/2-x,y,1/2-z
1/2+x,1/2+y,z
1/2-x,1/2-y,z
1/2+x,1/2-y,-z
1/2-x,1/2+y,-z
loop_
_atom_site_type_symbol
_atom_site_label
_atom_site_fract_x
_atom_site_fract_y
_atom_site_fract_z
Si Si1 0.750000 0.103686 0.250000
Si Si2 0.916814 0.308499 0.073187
Si Si3 0.500000 0.000000 0.500000
Si Si4 0.103434 0.340687 0.192951
Si Si5 0.745617 0.006184 0.114766
O O1 0.582042 0.153862 0.227033
O O2 0.640130 0.929686 0.151112
O O3 0.750000 0.250000 0.082051
O O4 0.849593 0.410339 0.079826
O O5 0.057302 0.277400 0.129602
O O6 0.000000 0.297038 0.000000
O O7 0.632282 0.037256 0.557253
O O8 0.250000 0.332806 0.250000
O O9 0.681043 0.449900 0.184145
#
# Coordination Sequence:
#
# PCOD9327098 Si02
#       5
#     8  16   4  16  16
#     4  10  20  38  69 108 152 183 236 320 398 442
#     4  11  26  48  75 103 160 212 259 310 390 471
#     4  12  24  36  70 116 152 188 262 324 390 436
#     4  11  23  45  81 118 151 191 261 333 391 451
#     4  11  23  40  73 114 149 196 256 327 382 458
#
# _framework density 25.770067000000001
#
# number of rings (size 3 to 8) (size 9 to 14) (size 15 to 20)
#    0.000    1.067    1.333    6.400    1.867    1.067 
#    4.800   10.667    0.000    0.000    0.000    0.000 
#    0.000    0.000    0.000    0.000    0.000    0.000 
#
# Total GULP energy -83617.071818 kJ/mol
# GULP energy per Si atom -5574.471455 kJ/mol
# Density = 2.571141 g / cm^3
# Si number density = 25.770067 Si / 1000 Ang^3
#
#
#
# Elastic Constant Matrix: (Units=GPa)
#
#
# Indices 1 2 3 4 5 6 
#
# 1 198.0003 49.2525 108.1316 0.0000 0.0000 0.0000
# 2 49.2525 91.6960 25.1931 0.0000 0.0000 0.0000
# 3 108.1316 25.1931 235.1285 0.0000 0.0000 0.0000
# 4 0.0000 0.0000 0.0000 14.7347 0.0000 0.0000
# 5 0.0000 0.0000 0.0000 0.0000 61.4515 0.0000
# 6 0.0000 0.0000 0.0000 0.0000 0.0000 -37.9418
#
#
#
# Elastic Compliance Matrix: (Units=1/GPa)
#
#
# Indices 1 2 3 4 5 6 
#
# 1 0.007557 -0.003198 -0.003133 0.000000 0.000000 0.000000
# 2 -0.003198 0.012590 0.000122 0.000000 0.000000 0.000000
# 3 -0.003133 0.000122 0.005681 0.000000 0.000000 0.000000
# 4 0.000000 0.000000 0.000000 0.067867 0.000000 0.000000
# 5 0.000000 0.000000 0.000000 0.000000 0.016273 0.000000
# 6 0.000000 0.000000 0.000000 0.000000 0.000000 -0.026356
#
#
# Mechanical properties :
#
#
# Convention : Reuss Voigt Hill
#
# Bulk Modulus (GPa) = 74.57467 98.88660 86.73063
# Shear Modulus (GPa) = 49.75173 30.46537 40.10855
#
# Velocity S-wave (km/s) = 4.39863 3.44204 3.94940
# Velocity P-wave (km/s) = 7.40260 7.36565 7.38415
#
# Compressibility (1/GPa) = 0.01340938
#
# Stress axis : x y z
#
# Youngs Moduli (GPa) = 132.33048 79.42795 176.03919
#
# Poissons Ratio (x) = 0.25404 0.55146
# Poissons Ratio (y) = 0.42324 -0.02146
# Poissons Ratio (z) = 0.41454 -0.00968
#
# Static dielectric constant tensor:
#      x y z
#    x 2.114200 0.000000 0.000000 
#    y 0.000000 2.103660 0.000000 
#    z 0.000000 0.000000 2.093020 
# 
# From -- ./inp_files/40888.got.cif
#   From: 2010.05.17/outbox.cif.g08.bks.cpg/sg22_21_cif.got.tgz:40888.got - 2010.06.03 23:40:54.
