data_PCOD9327435
_publ_section_title
;
Structure prediction by ZEFSAII (Michael W. Deem and Ramdas Pophale) SiO2 
 PCOD9327435
Probable space group: F 2 2 2
;
_chemical_formula_sum "Si O2"
_cell_formula_units_Z 84
_cell_length_a 11.443932
_cell_length_b 20.989453
_cell_length_c 15.888989
_cell_angle_alpha 90.000000
_cell_angle_beta 90.000000
_cell_angle_gamma 90.000000
_cell_volume 3816.564915
_symmetry_space_group_name_H-M "F 2 2 2"
_symmetry_group_IT_number 22
_symmetry_cell_setting 'orthorhombic'
loop_
_space_group_symop_operation_xyz
x,y,z
-x,-y,z
x,-y,-z
-x,y,-z
x,1/2+y,1/2+z
-x,1/2-y,1/2+z
x,1/2-y,1/2-z
-x,1/2+y,1/2-z
1/2+x,y,1/2+z
1/2-x,-y,1/2+z
1/2+x,-y,1/2-z
1/2-x,y,1/2-z
1/2+x,1/2+y,z
1/2-x,1/2-y,z
1/2+x,1/2-y,-z
1/2-x,1/2+y,-z
loop_
_atom_site_type_symbol
_atom_site_label
_atom_site_fract_x
_atom_site_fract_y
_atom_site_fract_z
Si Si1 0.000000 0.196485 0.000000
Si Si2 0.000000 0.000000 0.699924
Si Si3 0.355359 0.117293 0.801011
Si Si4 0.391002 0.097297 0.069064
Si Si5 0.687878 0.091647 0.455461
Si Si6 0.059384 0.282703 0.161461
Si Si7 0.500000 0.000000 0.500000
O O1 0.115043 0.154985 0.978209
O O2 0.974639 0.235121 0.913975
O O3 0.070064 0.952906 0.638528
O O4 0.912423 0.947004 0.739622
O O5 0.250000 0.146734 0.750000
O O6 0.286117 0.098294 0.884862
O O7 0.450573 0.171337 0.815273
O O8 0.361685 0.164843 0.113432
O O9 0.500000 0.103503 0.000000
O O10 0.270198 0.072618 0.032429
O O11 0.584360 0.042040 0.442771
O O12 0.097125 0.250000 0.250000
#
# Coordination Sequence:
#
# PCOD9327435 Si02
#       7
#     8   8  16  16  16  16   4
#     4  11  24  41  60  95 132 177 220 278 326 401
#     4  10  21  37  66  95 126 159 224 271 326 407
#     4  11  23  39  63  95 128 176 215 276 335 398
#     4  11  20  40  68  97 121 169 223 271 327 393
#     4  11  22  39  64  91 130 170 220 269 337 391
#     4  11  23  42  64  96 132 171 230 277 328 391
#     4  10  24  38  62  98 128 170 216 274 328 412
#
# _framework density 22.009319000000001
#
# number of rings (size 3 to 8) (size 9 to 14) (size 15 to 20)
#    0.000    1.143    4.762    2.571    0.000    5.714 
#    0.000    7.619    0.000    0.000    0.000    0.000 
#    0.000    0.000    0.000    0.000    0.000    0.000 
#
# Total GULP energy -116969.910346 kJ/mol
# GULP energy per Si atom -5569.995731 kJ/mol
# Density = 2.195923 g / cm^3
# Si number density = 22.009319 Si / 1000 Ang^3
#
#
#
# Elastic Constant Matrix: (Units=GPa)
#
#
# Indices 1 2 3 4 5 6 
#
# 1 84.2511 21.5101 7.7250 0.0000 0.0000 0.0000
# 2 21.5101 101.0015 20.5030 0.0000 0.0000 0.0000
# 3 7.7250 20.5030 62.8406 0.0000 0.0000 0.0000
# 4 0.0000 0.0000 0.0000 59.7188 0.0000 0.0000
# 5 0.0000 0.0000 0.0000 0.0000 6.6177 0.0000
# 6 0.0000 0.0000 0.0000 0.0000 0.0000 17.5522
#
#
#
# Elastic Compliance Matrix: (Units=1/GPa)
#
#
# Indices 1 2 3 4 5 6 
#
# 1 0.012582 -0.002533 -0.000720 0.000000 0.000000 0.000000
# 2 -0.002533 0.011113 -0.003314 0.000000 0.000000 0.000000
# 3 -0.000720 -0.003314 0.017083 0.000000 0.000000 0.000000
# 4 0.000000 0.000000 0.000000 0.016745 0.000000 0.000000
# 5 0.000000 0.000000 0.000000 0.000000 0.151109 0.000000
# 6 0.000000 0.000000 0.000000 0.000000 0.000000 0.056973
#
#
# Mechanical properties :
#
#
# Convention : Reuss Voigt Hill
#
# Bulk Modulus (GPa) = 36.17618 38.61881 37.39749
# Shear Modulus (GPa) = 17.36378 30.00141 23.68260
#
# Velocity S-wave (km/s) = 2.81183 3.69606 3.28384
# Velocity P-wave (km/s) = 5.19753 5.98323 5.60417
#
# Compressibility (1/GPa) = 0.02764250
#
# Stress axis : x y z
#
# Youngs Moduli (GPa) = 79.47789 89.98301 58.53697
#
# Poissons Ratio (x) = 0.22796 0.04216
# Poissons Ratio (y) = 0.20135 0.19402
# Poissons Ratio (z) = 0.05724 0.29825
#
# Static dielectric constant tensor:
#      x y z
#    x 1.553520 0.000000 0.000000 
#    y 0.000000 1.847830 0.000000 
#    z 0.000000 0.000000 2.157700 
# 
# From -- ./inp_files/22547.got.cif
#   From: 2010.05.17/outbox.cif.g08.bks.cpg/sg22_12_cif.got.tgz:22547.got - 2010.06.03 23:40:54.
