data_PCOD9327155
_publ_section_title
;
Structure prediction by ZEFSAII (Michael W. Deem and Ramdas Pophale) SiO2 
 PCOD9327155
Probable space group: F 2 2 2
;
_chemical_formula_sum "Si O2"
_cell_formula_units_Z 80
_cell_length_a 28.811808
_cell_length_b 25.141602
_cell_length_c 5.232282
_cell_angle_alpha 90.000000
_cell_angle_beta 90.000000
_cell_angle_gamma 90.000000
_cell_volume 3790.134324
_symmetry_space_group_name_H-M "F 2 2 2"
_symmetry_group_IT_number 22
_symmetry_cell_setting 'orthorhombic'
loop_
_space_group_symop_operation_xyz
x,y,z
-x,-y,z
x,-y,-z
-x,y,-z
x,1/2+y,1/2+z
-x,1/2-y,1/2+z
x,1/2-y,1/2-z
-x,1/2+y,1/2-z
1/2+x,y,1/2+z
1/2-x,-y,1/2+z
1/2+x,-y,1/2-z
1/2-x,y,1/2-z
1/2+x,1/2+y,z
1/2-x,1/2-y,z
1/2+x,1/2-y,-z
1/2-x,1/2+y,-z
loop_
_atom_site_type_symbol
_atom_site_label
_atom_site_fract_x
_atom_site_fract_y
_atom_site_fract_z
Si Si1 0.304563 0.363868 0.757868
Si Si2 0.945393 0.035851 0.749606
Si Si3 0.860143 0.109972 0.723226
Si Si4 0.422297 0.201017 0.384139
Si Si5 0.845577 0.250000 0.250000
Si Si6 0.500000 0.374803 0.000000
O O1 0.250000 0.373947 0.750000
O O2 0.330262 0.394666 0.530901
O O3 0.314216 0.301442 0.696373
O O4 0.328266 0.378627 0.028743
O O5 0.893979 0.060439 0.757434
O O6 0.950777 0.000000 0.500000
O O7 0.981095 0.085310 0.782361
O O8 0.950535 0.000000 0.000000
O O9 0.895755 0.159946 0.698576
O O10 0.448522 0.250000 0.250000
O O11 0.380916 0.229480 0.534915
O O12 0.456534 0.164286 0.552179
#
# Coordination Sequence:
#
# PCOD9327155 Si02
#       6
#    16  16  16  16   8   8
#     4  11  21  37  63  95 133 167 217 271 315 390
#     4  11  24  47  71  93 127 170 222 288 337 391
#     4  10  22  40  64  95 127 173 219 260 339 400
#     4  10  20  40  58  89 140 177 220 260 316 394
#     4  10  21  36  56  88 128 188 218 242 319 386
#     4  10  25  40  62 106 122 176 229 276 326 392
#
# _framework density 21.107430000000001
#
# number of rings (size 3 to 8) (size 9 to 14) (size 15 to 20)
#    0.000    1.600    2.000    2.400    1.400    1.600 
#    3.600    2.000    0.000   12.000    0.000    0.000 
#    0.000    0.000    0.000    0.000    0.000    0.000 
#
# Total GULP energy -111661.175139 kJ/mol
# GULP energy per Si atom -5583.058757 kJ/mol
# Density = 2.105939 g / cm^3
# Si number density = 21.107430 Si / 1000 Ang^3
#
#
#
# Elastic Constant Matrix: (Units=GPa)
#
#
# Indices 1 2 3 4 5 6 
#
# 1 125.0053 52.9520 28.6481 -0.0081 0.2972 0.0156
# 2 52.9520 99.5033 43.3002 0.1939 -0.5314 -0.2319
# 3 28.6481 43.3002 97.1066 -0.0329 -0.3842 -0.0497
# 4 -0.0081 0.1939 -0.0329 17.5577 -0.8434 -0.1994
# 5 0.2972 -0.5314 -0.3842 -0.8434 -130.8913 -0.3425
# 6 0.0156 -0.2319 -0.0497 -0.1994 -0.3425 19.3437
#
#
#
# Elastic Compliance Matrix: (Units=1/GPa)
#
#
# Indices 1 2 3 4 5 6 
#
# 1 0.010371 -0.005196 -0.000743 0.000062 0.000047 -0.000071
# 2 -0.005196 0.015073 -0.005189 -0.000179 -0.000057 0.000169
# 3 -0.000743 -0.005189 0.012831 0.000080 -0.000019 -0.000028
# 4 0.000062 -0.000179 0.000080 0.056946 -0.000368 0.000578
# 5 0.000047 -0.000057 -0.000019 -0.000368 -0.007637 -0.000140
# 6 -0.000071 0.000169 -0.000028 0.000578 -0.000140 0.051702
#
#
# Mechanical properties :
#
#
# Convention : Reuss Voigt Hill
#
# Bulk Modulus (GPa) = 62.41934 63.49065 62.95500
# Shear Modulus (GPa) = 29.96168 -5.68366 12.13901
#
# Velocity S-wave (km/s) = 3.77169 -1.64273 2.40074
# Velocity P-wave (km/s) = 6.97165 5.15237 6.12988
#
# Compressibility (1/GPa) = 0.01602068
#
# Stress axis : x y z
#
# Youngs Moduli (GPa) = 96.42577 66.34268 77.93889
#
# Poissons Ratio (x) = 0.34470 0.05787
# Poissons Ratio (y) = 0.50101 0.40439
# Poissons Ratio (z) = 0.07160 0.34422
#
# Static dielectric constant tensor:
#      x y z
#    x 1.755180 -0.000320 -0.000020 
#    y -0.000320 2.077700 0.000600 
#    z -0.000020 0.000600 1.786810 
# 
# From -- ./inp_files/6540.got.cif
#   From: 2010.05.17/outbox.cif.g08.bks.cpg/sg22_4_cif.got.tgz:6540.got - 2010.06.03 23:40:54.
