data_PCOD9327589
_publ_section_title
;
Structure prediction by ZEFSAII (Michael W. Deem and Ramdas Pophale) SiO2 
 PCOD9327589
Probable space group: F 2 2 2
;
_chemical_formula_sum "Si O2"
_cell_formula_units_Z 112
_cell_length_a 25.625650
_cell_length_b 12.063094
_cell_length_c 16.393319
_cell_angle_alpha 90.000000
_cell_angle_beta 90.000000
_cell_angle_gamma 90.000000
_cell_volume 5067.578584
_symmetry_space_group_name_H-M "F 2 2 2"
_symmetry_group_IT_number 22
_symmetry_cell_setting 'orthorhombic'
loop_
_space_group_symop_operation_xyz
x,y,z
-x,-y,z
x,-y,-z
-x,y,-z
x,1/2+y,1/2+z
-x,1/2-y,1/2+z
x,1/2-y,1/2-z
-x,1/2+y,1/2-z
1/2+x,y,1/2+z
1/2-x,-y,1/2+z
1/2+x,-y,1/2-z
1/2-x,y,1/2-z
1/2+x,1/2+y,z
1/2-x,1/2-y,z
1/2+x,1/2-y,-z
1/2-x,1/2+y,-z
loop_
_atom_site_type_symbol
_atom_site_label
_atom_site_fract_x
_atom_site_fract_y
_atom_site_fract_z
Si Si1 0.611491 0.348883 0.182377
Si Si2 0.188659 0.731761 0.877069
Si Si3 0.953796 0.079084 0.639250
Si Si4 0.311512 0.740104 0.428577
Si Si5 0.152740 0.496074 0.907239
Si Si6 0.502095 0.208208 0.654418
Si Si7 0.103936 0.605359 0.701646
O O1 0.614899 0.250000 0.250000
O O2 0.657205 0.334584 0.117374
O O3 0.555165 0.337378 0.138569
O O4 0.614968 0.474888 0.213346
O O5 0.250000 0.750000 0.861906
O O6 0.177081 0.601281 0.860967
O O7 0.151892 0.820894 0.830851
O O8 0.177246 0.743322 0.974400
O O9 0.909952 0.011482 0.591847
O O10 0.983297 0.183547 0.601463
O O11 0.919034 0.135584 0.709641
O O12 0.000000 0.000000 0.671033
O O13 0.250000 0.750000 0.418902
O O14 0.331062 0.627221 0.384843
O O15 0.172865 0.500000 0.000000
O O16 0.496209 0.250000 0.750000
O O17 0.551425 0.126317 0.648149
#
# Coordination Sequence:
#
# PCOD9327589 Si02
#       7
#    16  16  16  16  16  16  16
#     4  11  22  38  60  93 129 166 205 256 322 390
#     4  10  23  42  65  91 120 165 219 269 323 378
#     4  11  20  36  63  94 127 167 205 256 321 383
#     4  10  23  41  62  87 122 171 215 262 323 386
#     4  10  21  40  63  91 125 161 215 266 311 386
#     4   9  18  34  58  88 123 162 205 251 315 383
#     4  11  21  37  63  92 124 163 207 259 311 383
#
# _framework density 22.101285000000001
#
# number of rings (size 3 to 8) (size 9 to 14) (size 15 to 20)
#    0.000    1.714    1.429    4.714    2.000    1.143 
#    0.000    2.143    0.000    3.429    0.000    0.000 
#    0.000    0.000    0.000    0.000    0.000    0.000 
#
# Total GULP energy -156057.079701 kJ/mol
# GULP energy per Si atom -5573.467132 kJ/mol
# Density = 2.205098 g / cm^3
# Si number density = 22.101285 Si / 1000 Ang^3
#
#
#
# Elastic Constant Matrix: (Units=GPa)
#
#
# Indices 1 2 3 4 5 6 
#
# 1 100.4642 34.8846 38.3578 0.0000 0.0000 0.0000
# 2 34.8846 109.0779 25.6955 0.0000 0.0000 0.0000
# 3 38.3578 25.6955 42.1133 0.0000 0.0000 0.0000
# 4 0.0000 0.0000 0.0000 19.8259 0.0000 0.0000
# 5 0.0000 0.0000 0.0000 0.0000 -17.6443 0.0000
# 6 0.0000 0.0000 0.0000 0.0000 0.0000 37.6202
#
#
#
# Elastic Compliance Matrix: (Units=1/GPa)
#
#
# Indices 1 2 3 4 5 6 
#
# 1 0.015597 -0.001917 -0.013036 0.000000 0.000000 0.000000
# 2 -0.001917 0.010942 -0.004930 0.000000 0.000000 0.000000
# 3 -0.013036 -0.004930 0.038627 0.000000 0.000000 0.000000
# 4 0.000000 0.000000 0.000000 0.050439 0.000000 0.000000
# 5 0.000000 0.000000 0.000000 0.000000 -0.056676 0.000000
# 6 0.000000 0.000000 0.000000 0.000000 0.000000 0.026581
#
#
# Mechanical properties :
#
#
# Convention : Reuss Voigt Hill
#
# Bulk Modulus (GPa) = 39.37129 49.94790 44.65960
# Shear Modulus (GPa) = 37.38459 18.14153 27.76306
#
# Velocity S-wave (km/s) = 4.11726 2.86813 3.54810
# Velocity P-wave (km/s) = 6.36044 5.79800 6.08572
#
# Compressibility (1/GPa) = 0.02539922
#
# Stress axis : x y z
#
# Youngs Moduli (GPa) = 64.11588 91.38831 25.88841
#
# Poissons Ratio (x) = 0.17520 0.33749
# Poissons Ratio (y) = 0.12292 0.12764
# Poissons Ratio (z) = 0.83582 0.45057
#
# Static dielectric constant tensor:
#      x y z
#    x 1.825070 0.000000 0.000000 
#    y 0.000000 2.016680 0.000000 
#    z 0.000000 0.000000 1.867820 
# 
# From -- ./inp_files/45335.got.cif
#   From: 2010.05.17/outbox.cif.g08.bks.cpg/sg22_23_cif.got.tgz:45335.got - 2010.06.03 23:40:54.
