data_PCOD9327024
_publ_section_title
;
Structure prediction by ZEFSAII (Michael W. Deem and Ramdas Pophale) SiO2 
 PCOD9327024
Probable space group: F 2 2 2
;
_chemical_formula_sum "Si O2"
_cell_formula_units_Z 52
_cell_length_a 8.100526
_cell_length_b 17.446375
_cell_length_c 15.230382
_cell_angle_alpha 90.000000
_cell_angle_beta 90.000000
_cell_angle_gamma 90.000000
_cell_volume 2152.430908
_symmetry_space_group_name_H-M "F 2 2 2"
_symmetry_group_IT_number 22
_symmetry_cell_setting 'orthorhombic'
loop_
_space_group_symop_operation_xyz
x,y,z
-x,-y,z
x,-y,-z
-x,y,-z
x,1/2+y,1/2+z
-x,1/2-y,1/2+z
x,1/2-y,1/2-z
-x,1/2+y,1/2-z
1/2+x,y,1/2+z
1/2-x,-y,1/2+z
1/2+x,-y,1/2-z
1/2-x,y,1/2-z
1/2+x,1/2+y,z
1/2-x,1/2-y,z
1/2+x,1/2-y,-z
1/2-x,1/2+y,-z
loop_
_atom_site_type_symbol
_atom_site_label
_atom_site_fract_x
_atom_site_fract_y
_atom_site_fract_z
Si Si1 0.000000 0.000000 0.000000
Si Si2 0.379849 0.371298 0.123385
Si Si3 0.533602 0.216379 0.849206
Si Si4 0.078809 0.573024 0.205875
O O1 0.108542 0.057799 0.058140
O O2 0.486243 0.295163 0.098672
O O3 0.199554 0.332366 0.131116
O O4 0.454210 0.404532 0.214533
O O5 0.544691 0.250000 0.750000
O O6 0.397072 0.150227 0.850385
O O7 0.250000 0.551981 0.250000
O O8 0.000000 0.500000 0.158775
#
# Coordination Sequence:
#
# PCOD9327024 Si02
#       4
#     4  16  16  16
#     4  12  24  36  64  82 122 176 210 230 276 372
#     4  10  20  38  58  87 117 165 195 239 298 360
#     4   9  19  39  67  88 119 152 195 256 319 345
#     4  11  20  33  62  97 120 145 194 260 314 356
#
# _framework density 24.158732000000001
#
# number of rings (size 3 to 8) (size 9 to 14) (size 15 to 20)
#    0.000    1.846    1.538    8.308    0.000    5.538 
#    0.000    6.154    0.000    1.846    0.000    0.000 
#    0.000    0.000    0.000    0.000    0.000    0.000 
#
# Total GULP energy -72507.790770 kJ/mol
# GULP energy per Si atom -5577.522367 kJ/mol
# Density = 2.410375 g / cm^3
# Si number density = 24.158732 Si / 1000 Ang^3
#
#
#
# Elastic Constant Matrix: (Units=GPa)
#
#
# Indices 1 2 3 4 5 6 
#
# 1 57.3666 36.6318 -11.3715 0.0000 0.0000 0.0000
# 2 36.6318 252.1836 42.9400 0.0000 0.0000 0.0000
# 3 -11.3715 42.9400 56.2296 0.0000 0.0000 0.0000
# 4 0.0000 0.0000 0.0000 36.4924 0.0000 0.0000
# 5 0.0000 0.0000 0.0000 0.0000 4.4160 0.0000
# 6 0.0000 0.0000 0.0000 0.0000 0.0000 37.7966
#
#
#
# Elastic Compliance Matrix: (Units=1/GPa)
#
#
# Indices 1 2 3 4 5 6 
#
# 1 0.021879 -0.004519 0.007876 0.000000 0.000000 0.000000
# 2 -0.004519 0.005491 -0.005107 0.000000 0.000000 0.000000
# 3 0.007876 -0.005107 0.023277 0.000000 0.000000 0.000000
# 4 0.000000 0.000000 0.000000 0.027403 0.000000 0.000000
# 5 0.000000 0.000000 0.000000 0.000000 0.226450 0.000000
# 6 0.000000 0.000000 0.000000 0.000000 0.000000 0.026457
#
#
# Mechanical properties :
#
#
# Convention : Reuss Voigt Hill
#
# Bulk Modulus (GPa) = 21.21099 55.79782 38.50440
# Shear Modulus (GPa) = 14.27860 35.57962 24.92911
#
# Velocity S-wave (km/s) = 2.43375 3.84180 3.21579
# Velocity P-wave (km/s) = 4.08613 6.54413 5.45537
#
# Compressibility (1/GPa) = 0.04714537
#
# Stress axis : x y z
#
# Youngs Moduli (GPa) = 45.70688 182.10101 42.96033
#
# Poissons Ratio (x) = 0.82292 -0.33834
# Poissons Ratio (y) = 0.20655 0.21942
# Poissons Ratio (z) = -0.35997 0.93008
#
# Static dielectric constant tensor:
#      x y z
#    x 2.039970 0.000000 0.000000 
#    y 0.000000 2.034750 0.000000 
#    z 0.000000 0.000000 2.000530 
# 
# From -- ./inp_files/9461.got.cif
#   From: 2010.05.17/outbox.cif.g08.bks.cpg/sg22_5_cif.got.tgz:9461.got - 2010.06.03 23:40:54.
