data_PCOD9327648
_publ_section_title
;
Structure prediction by ZEFSAII (Michael W. Deem and Ramdas Pophale) SiO2 
 PCOD9327648
Probable space group: F 2 2 2
;
_chemical_formula_sum "Si O2"
_cell_formula_units_Z 88
_cell_length_a 11.812736
_cell_length_b 20.374837
_cell_length_c 18.994470
_cell_angle_alpha 90.000000
_cell_angle_beta 90.000000
_cell_angle_gamma 90.000000
_cell_volume 4571.637865
_symmetry_space_group_name_H-M "F 2 2 2"
_symmetry_group_IT_number 22
_symmetry_cell_setting 'orthorhombic'
loop_
_space_group_symop_operation_xyz
x,y,z
-x,-y,z
x,-y,-z
-x,y,-z
x,1/2+y,1/2+z
-x,1/2-y,1/2+z
x,1/2-y,1/2-z
-x,1/2+y,1/2-z
1/2+x,y,1/2+z
1/2-x,-y,1/2+z
1/2+x,-y,1/2-z
1/2-x,y,1/2-z
1/2+x,1/2+y,z
1/2-x,1/2-y,z
1/2+x,1/2-y,-z
1/2-x,1/2+y,-z
loop_
_atom_site_type_symbol
_atom_site_label
_atom_site_fract_x
_atom_site_fract_y
_atom_site_fract_z
Si Si1 0.000000 0.000000 0.000000
Si Si2 0.370140 0.812017 0.710011
Si Si3 0.008080 0.229154 0.083165
Si Si4 0.368907 0.846576 0.137808
Si Si5 0.855959 0.101795 0.099304
Si Si6 0.957285 0.572661 0.740973
Si Si7 0.250000 0.250000 0.750000
O O1 0.920621 0.950816 0.951806
O O2 0.427195 0.750000 0.750000
O O3 0.250000 0.819330 0.750000
O O4 0.379459 0.790335 0.627894
O O5 0.442192 0.877212 0.720255
O O6 0.963603 0.301076 0.102936
O O7 0.922239 0.170790 0.103509
O O8 0.000000 0.225594 0.000000
O O9 0.272983 0.875688 0.085899
O O10 0.417532 0.905822 0.182720
O O11 0.316464 0.797987 0.197254
O O12 0.863531 0.076485 0.179536
O O13 0.000000 0.500000 0.741375
#
# Coordination Sequence:
#
# PCOD9327648 Si02
#       7
#     4  16  16  16  16  16   4
#     4  12  24  44  56  96 142 164 196 272 320 424
#     4  10  21  41  64  93 130 172 214 275 330 381
#     4  11  22  41  64  97 131 166 220 273 324 392
#     4  12  21  39  65  97 120 161 218 272 322 370
#     4  11  22  39  64  90 128 167 211 262 325 382
#     4  11  22  39  62  95 128 161 217 267 317 392
#     4  12  16  32  68  92 114 136 216 280 300 348
#
# _framework density 19.249117999999999
#
# number of rings (size 3 to 8) (size 9 to 14) (size 15 to 20)
#    0.000    0.909    7.273    1.091    0.000    1.455 
#    6.545    1.818    0.000    0.000    0.000    0.000 
#    0.000    0.000    0.000    0.000    0.000    0.000 
#
# Total GULP energy -122523.608137 kJ/mol
# GULP energy per Si atom -5569.254915 kJ/mol
# Density = 1.920531 g / cm^3
# Si number density = 19.249118 Si / 1000 Ang^3
#
#
#
# Elastic Constant Matrix: (Units=GPa)
#
#
# Indices 1 2 3 4 5 6 
#
# 1 81.2970 24.0089 28.5152 0.0000 0.0000 0.0000
# 2 24.0089 112.7580 12.0926 0.0000 0.0000 0.0000
# 3 28.5152 12.0926 82.9738 0.0000 0.0000 0.0000
# 4 0.0000 0.0000 0.0000 30.8152 0.0000 0.0000
# 5 0.0000 0.0000 0.0000 0.0000 14.9578 0.0000
# 6 0.0000 0.0000 0.0000 0.0000 0.0000 10.0496
#
#
#
# Elastic Compliance Matrix: (Units=1/GPa)
#
#
# Indices 1 2 3 4 5 6 
#
# 1 0.014717 -0.002632 -0.004674 0.000000 0.000000 0.000000
# 2 -0.002632 0.009480 -0.000477 0.000000 0.000000 0.000000
# 3 -0.004674 -0.000477 0.013728 0.000000 0.000000 0.000000
# 4 0.000000 0.000000 0.000000 0.032452 0.000000 0.000000
# 5 0.000000 0.000000 0.000000 0.000000 0.066855 0.000000
# 6 0.000000 0.000000 0.000000 0.000000 0.000000 0.099507
#
#
# Mechanical properties :
#
#
# Convention : Reuss Voigt Hill
#
# Bulk Modulus (GPa) = 44.72611 45.14026 44.93319
# Shear Modulus (GPa) = 19.24865 25.32532 22.28698
#
# Velocity S-wave (km/s) = 3.16567 3.63114 3.40636
# Velocity P-wave (km/s) = 6.05374 6.40950 6.23416
#
# Compressibility (1/GPa) = 0.02235830
#
# Stress axis : x y z
#
# Youngs Moduli (GPa) = 67.94637 105.48291 72.84445
#
# Poissons Ratio (x) = 0.27768 0.34049
# Poissons Ratio (y) = 0.17886 0.03475
# Poissons Ratio (z) = 0.31760 0.05031
#
# Static dielectric constant tensor:
#      x y z
#    x 1.753290 0.000000 0.000000 
#    y 0.000000 2.064840 0.000000 
#    z 0.000000 0.000000 1.854600 
# 
# From -- ./inp_files/36128.got.cif
#   From: 2010.05.17/outbox.cif.g08.bks.cpg/sg22_19_cif.got.tgz:36128.got - 2010.06.03 23:40:54.
