data_PCOD9327017
_publ_section_title
;
Structure prediction by ZEFSAII (Michael W. Deem and Ramdas Pophale) SiO2 
 PCOD9327017
Probable space group: F 2 2 2
;
_chemical_formula_sum "Si O2"
_cell_formula_units_Z 72
_cell_length_a 5.265781
_cell_length_b 23.845024
_cell_length_c 30.036744
_cell_angle_alpha 90.000000
_cell_angle_beta 90.000000
_cell_angle_gamma 90.000000
_cell_volume 3771.493905
_symmetry_space_group_name_H-M "F 2 2 2"
_symmetry_group_IT_number 22
_symmetry_cell_setting 'orthorhombic'
loop_
_space_group_symop_operation_xyz
x,y,z
-x,-y,z
x,-y,-z
-x,y,-z
x,1/2+y,1/2+z
-x,1/2-y,1/2+z
x,1/2-y,1/2-z
-x,1/2+y,1/2-z
1/2+x,y,1/2+z
1/2-x,-y,1/2+z
1/2+x,-y,1/2-z
1/2-x,y,1/2-z
1/2+x,1/2+y,z
1/2-x,1/2-y,z
1/2+x,1/2-y,-z
1/2-x,1/2+y,-z
loop_
_atom_site_type_symbol
_atom_site_label
_atom_site_fract_x
_atom_site_fract_y
_atom_site_fract_z
Si Si1 0.501544 0.288407 0.449779
Si Si2 0.002580 0.813271 0.270358
Si Si3 0.454554 0.064236 0.344611
Si Si4 0.250000 0.967947 0.750000
Si Si5 0.464365 0.365466 0.635594
O O1 0.500000 0.312613 0.500000
O O2 0.250000 0.250000 0.443782
O O3 0.529583 0.333021 0.410732
O O4 0.750000 0.250000 0.447267
O O5 0.005453 0.750000 0.250000
O O6 0.250000 0.841695 0.250000
O O7 0.004291 0.821106 0.323193
O O8 0.750000 0.838269 0.250000
O O9 0.384940 0.060132 0.292337
O O10 0.704006 0.101027 0.354882
O O11 0.205326 0.093366 0.364486
O O12 0.500000 0.000000 0.359428
O O13 0.500000 0.000000 0.770138
#
# Coordination Sequence:
#
# PCOD9327017 Si02
#       5
#    16  16  16   8  16
#     4  10  23  43  68  96 126 160 206 262 321 392
#     4  10  23  37  52  82 124 162 192 248 293 377
#     4  11  24  41  59  88 123 168 219 262 297 361
#     4  10  20  38  56  76 117 168 215 258 296 344
#     4  12  24  38  66  89 123 171 204 259 319 368
#
# _framework density 19.090578000000001
#
# number of rings (size 3 to 8) (size 9 to 14) (size 15 to 20)
#    0.000    1.333    0.000    6.000   10.889    0.000 
#    0.000    0.000    0.000    4.000    0.000    0.000 
#    0.000    0.000    0.000    0.000    0.000    0.000 
#
# Total GULP energy -100422.673362 kJ/mol
# GULP energy per Si atom -5579.037409 kJ/mol
# Density = 1.904713 g / cm^3
# Si number density = 19.090578 Si / 1000 Ang^3
#
#
#
# Elastic Constant Matrix: (Units=GPa)
#
#
# Indices 1 2 3 4 5 6 
#
# 1 202.2013 58.7120 72.1464 0.0000 0.0000 0.0000
# 2 58.7120 101.3580 84.7788 0.0000 0.0000 0.0000
# 3 72.1464 84.7788 175.5261 0.0000 0.0000 0.0000
# 4 0.0000 0.0000 0.0000 31.9411 0.0000 0.0000
# 5 0.0000 0.0000 0.0000 0.0000 26.0051 0.0000
# 6 0.0000 0.0000 0.0000 0.0000 0.0000 22.8880
#
#
#
# Elastic Compliance Matrix: (Units=1/GPa)
#
#
# Indices 1 2 3 4 5 6 
#
# 1 0.006131 -0.002422 -0.001350 0.000000 0.000000 0.000000
# 2 -0.002422 0.017510 -0.007462 0.000000 0.000000 0.000000
# 3 -0.001350 -0.007462 0.009856 0.000000 0.000000 0.000000
# 4 0.000000 0.000000 0.000000 0.031308 0.000000 0.000000
# 5 0.000000 0.000000 0.000000 0.000000 0.038454 0.000000
# 6 0.000000 0.000000 0.000000 0.000000 0.000000 0.043691
#
#
# Mechanical properties :
#
#
# Convention : Reuss Voigt Hill
#
# Bulk Modulus (GPa) = 90.66865 101.15107 95.90986
# Shear Modulus (GPa) = 28.88606 33.73006 31.30806
#
# Velocity S-wave (km/s) = 3.89409 4.20794 4.05405
# Velocity P-wave (km/s) = 8.23502 8.75836 8.50072
#
# Compressibility (1/GPa) = 0.01102917
#
# Stress axis : x y z
#
# Youngs Moduli (GPa) = 163.11883 57.10916 101.45914
#
# Poissons Ratio (x) = 0.13831 0.13697
# Poissons Ratio (y) = 0.39506 0.75709
# Poissons Ratio (z) = 0.22022 0.42615
#
# Static dielectric constant tensor:
#      x y z
#    x 1.848930 0.000000 0.000000 
#    y 0.000000 1.569470 0.000000 
#    z 0.000000 0.000000 1.658820 
# 
# From -- ./inp_files/51205.got.cif
#   From: 2010.05.17/outbox.cif.g08.bks.cpg/sg22_26_cif.got.tgz:51205.got - 2010.06.03 23:40:54.
