data_PCOD9327087
_publ_section_title
;
Structure prediction by ZEFSAII (Michael W. Deem and Ramdas Pophale) SiO2 
 PCOD9327087
Probable space group: F 2 2 2
;
_chemical_formula_sum "Si O2"
_cell_formula_units_Z 104
_cell_length_a 9.066980
_cell_length_b 24.422873
_cell_length_c 21.724766
_cell_angle_alpha 90.000000
_cell_angle_beta 90.000000
_cell_angle_gamma 90.000000
_cell_volume 4810.769138
_symmetry_space_group_name_H-M "F 2 2 2"
_symmetry_group_IT_number 22
_symmetry_cell_setting 'orthorhombic'
loop_
_space_group_symop_operation_xyz
x,y,z
-x,-y,z
x,-y,-z
-x,y,-z
x,1/2+y,1/2+z
-x,1/2-y,1/2+z
x,1/2-y,1/2-z
-x,1/2+y,1/2-z
1/2+x,y,1/2+z
1/2-x,-y,1/2+z
1/2+x,-y,1/2-z
1/2-x,y,1/2-z
1/2+x,1/2+y,z
1/2-x,1/2-y,z
1/2+x,1/2-y,-z
1/2-x,1/2+y,-z
loop_
_atom_site_type_symbol
_atom_site_label
_atom_site_fract_x
_atom_site_fract_y
_atom_site_fract_z
Si Si1 0.267715 0.870206 0.897080
Si Si2 0.096180 0.647686 0.765835
Si Si3 0.476970 0.562360 0.842820
Si Si4 0.257538 0.618352 0.090205
Si Si5 0.997786 0.790008 0.068034
Si Si6 0.383104 0.710764 0.329270
Si Si7 0.000000 0.609697 0.000000
O O1 0.363525 0.871719 0.834598
O O2 0.159330 0.923265 0.889183
O O3 0.148080 0.822087 0.909085
O O4 0.386988 0.865249 0.950775
O O5 0.250000 0.675686 0.750000
O O6 0.055960 0.601240 0.716323
O O7 0.970242 0.691704 0.769950
O O8 0.500000 0.500000 0.823994
O O9 0.627865 0.578439 0.876927
O O10 0.369383 0.664687 0.061560
O O11 0.174888 0.654587 0.140864
O O12 0.133958 0.589559 0.046913
O O13 0.027116 0.743960 0.118804
O O14 0.000000 0.764324 0.000000
O O15 0.250000 0.750000 0.316660
#
# Coordination Sequence:
#
# PCOD9327087 Si02
#       7
#    16  16  16  16  16  16   8
#     4  10  22  42  68 105 143 181 236 292 344 409
#     4  10  22  46  68  98 143 181 237 297 345 404
#     4  10  24  50  76  94 126 192 246 285 363 443
#     4  10  22  41  65 104 140 179 228 291 342 402
#     4  10  20  38  66  98 145 199 232 253 331 439
#     4  10  22  40  63 104 144 182 232 274 336 401
#     4  12  20  40  71  98 152 174 212 310 355 384
#
# _framework density 21.618165000000001
#
# number of rings (size 3 to 8) (size 9 to 14) (size 15 to 20)
#    0.000    1.846    3.077    0.000    1.077    1.231 
#   11.077   26.154    0.000    0.000    0.000    0.000 
#    0.000    0.000    0.000    0.000    0.000    0.000 
#
# Total GULP energy -144756.571447 kJ/mol
# GULP energy per Si atom -5567.560440 kJ/mol
# Density = 2.156896 g / cm^3
# Si number density = 21.618165 Si / 1000 Ang^3
#
#
#
# Elastic Constant Matrix: (Units=GPa)
#
#
# Indices 1 2 3 4 5 6 
#
# 1 156.4279 38.5131 41.4748 0.0000 0.0000 0.0000
# 2 38.5131 74.7197 27.9356 0.0000 0.0000 0.0000
# 3 41.4748 27.9356 75.3610 0.0000 0.0000 0.0000
# 4 0.0000 0.0000 0.0000 7.6562 0.0000 0.0000
# 5 0.0000 0.0000 0.0000 0.0000 46.4120 0.0000
# 6 0.0000 0.0000 0.0000 0.0000 0.0000 10.7956
#
#
#
# Elastic Compliance Matrix: (Units=1/GPa)
#
#
# Indices 1 2 3 4 5 6 
#
# 1 0.007982 -0.002869 -0.003329 0.000000 0.000000 0.000000
# 2 -0.002869 0.016568 -0.004562 0.000000 0.000000 0.000000
# 3 -0.003329 -0.004562 0.016793 0.000000 0.000000 0.000000
# 4 0.000000 0.000000 0.000000 0.130613 0.000000 0.000000
# 5 0.000000 0.000000 0.000000 0.000000 0.021546 0.000000
# 6 0.000000 0.000000 0.000000 0.000000 0.000000 0.092630
#
#
# Mechanical properties :
#
#
# Convention : Reuss Voigt Hill
#
# Bulk Modulus (GPa) = 50.45194 58.03950 54.24572
# Shear Modulus (GPa) = 15.91036 26.21177 21.06106
#
# Velocity S-wave (km/s) = 2.71582 3.48586 3.12465
# Velocity P-wave (km/s) = 5.76391 6.56563 6.17779
#
# Compressibility (1/GPa) = 0.01982084
#
# Stress axis : x y z
#
# Youngs Moduli (GPa) = 125.28390 60.35683 59.54898
#
# Poissons Ratio (x) = 0.17319 0.19825
# Poissons Ratio (y) = 0.35950 0.27169
# Poissons Ratio (z) = 0.41709 0.27537
#
# Static dielectric constant tensor:
#      x y z
#    x 1.854670 0.000000 0.000000 
#    y 0.000000 1.779590 0.000000 
#    z 0.000000 0.000000 1.848760 
# 
# From -- ./inp_files/42016.got.cif
#   From: 2010.05.17/outbox.cif.g08.bks.cpg/sg22_22_cif.got.tgz:42016.got - 2010.06.03 23:40:54.
