data_PCOD9327095
_publ_section_title
;
Structure prediction by ZEFSAII (Michael W. Deem and Ramdas Pophale) SiO2 
 PCOD9327095
Probable space group: F 2 2 2
;
_chemical_formula_sum "Si O2"
_cell_formula_units_Z 116
_cell_length_a 17.521690
_cell_length_b 12.217341
_cell_length_c 25.715752
_cell_angle_alpha 90.000000
_cell_angle_beta 90.000000
_cell_angle_gamma 90.000000
_cell_volume 5504.931470
_symmetry_space_group_name_H-M "F 2 2 2"
_symmetry_group_IT_number 22
_symmetry_cell_setting 'orthorhombic'
loop_
_space_group_symop_operation_xyz
x,y,z
-x,-y,z
x,-y,-z
-x,y,-z
x,1/2+y,1/2+z
-x,1/2-y,1/2+z
x,1/2-y,1/2-z
-x,1/2+y,1/2-z
1/2+x,y,1/2+z
1/2-x,-y,1/2+z
1/2+x,-y,1/2-z
1/2-x,y,1/2-z
1/2+x,1/2+y,z
1/2-x,1/2-y,z
1/2+x,1/2-y,-z
1/2-x,1/2+y,-z
loop_
_atom_site_type_symbol
_atom_site_label
_atom_site_fract_x
_atom_site_fract_y
_atom_site_fract_z
Si Si1 0.563861 0.917647 0.342908
Si Si2 0.496612 0.669988 0.660240
Si Si3 0.250000 0.750000 0.250000
Si Si4 0.055188 0.703948 0.049202
Si Si5 0.857504 0.626436 0.239809
Si Si6 0.883834 0.451751 0.444974
Si Si7 0.783007 0.128117 0.430163
Si Si8 0.338149 0.578387 0.317474
O O1 0.523286 0.799463 0.342687
O O2 0.625436 0.916670 0.297405
O O3 0.500000 0.000000 0.324366
O O4 0.594055 0.966090 0.397823
O O5 0.510492 0.649449 0.598195
O O6 0.430778 0.633039 0.700423
O O7 0.573184 0.615435 0.682981
O O8 0.299328 0.675202 0.286803
O O9 0.078938 0.830764 0.062586
O O10 0.137239 0.644677 0.038763
O O11 0.000000 0.703434 0.000000
O O12 0.831398 0.750000 0.250000
O O13 0.812781 0.534313 0.209014
O O14 0.910148 0.500000 0.500000
O O15 0.791985 0.436303 0.448473
O O16 0.750000 0.250000 0.420833
O O17 0.810380 0.077351 0.376309
#
# Coordination Sequence:
#
# PCOD9327095 Si02
#       8
#    16  16   4  16  16  16  16  16
#     4  11  21  33  61  96 131 168 218 279 344 406
#     4  10  21  39  61  97 131 167 212 290 349 396
#     4  12  28  32  70 100 120 184 232 264 336 418
#     4  10  20  38  68  96 130 169 234 289 345 415
#     4  10  24  41  64  95 134 179 221 285 353 401
#     4  11  23  38  63  94 134 173 224 288 355 418
#     4   9  21  42  60  91 131 175 217 284 351 415
#     4  11  23  40  64  94 132 170 230 276 334 416
#
# _framework density 21.072013999999999
#
# number of rings (size 3 to 8) (size 9 to 14) (size 15 to 20)
#    0.000    1.655    2.069    2.069    6.759    0.000 
#    2.483    0.345    3.034    0.000    0.000    0.000 
#    0.000    0.000    0.000    0.000    0.000    0.000 
#
# Total GULP energy -161550.645554 kJ/mol
# GULP energy per Si atom -5570.711916 kJ/mol
# Density = 2.102405 g / cm^3
# Si number density = 21.072014 Si / 1000 Ang^3
#
#
#
# Elastic Constant Matrix: (Units=GPa)
#
#
# Indices 1 2 3 4 5 6 
#
# 1 110.4375 38.2529 50.3739 0.0000 0.0000 0.0000
# 2 38.2529 95.2043 42.0018 0.0000 0.0000 0.0000
# 3 50.3739 42.0018 103.9665 0.0000 0.0000 0.0000
# 4 0.0000 0.0000 0.0000 36.9220 0.0000 0.0000
# 5 0.0000 0.0000 0.0000 0.0000 85.0691 0.0000
# 6 0.0000 0.0000 0.0000 0.0000 0.0000 -10.4002
#
#
#
# Elastic Compliance Matrix: (Units=1/GPa)
#
#
# Indices 1 2 3 4 5 6 
#
# 1 0.012205 -0.002793 -0.004785 0.000000 0.000000 0.000000
# 2 -0.002793 0.013421 -0.004069 0.000000 0.000000 0.000000
# 3 -0.004785 -0.004069 0.013581 0.000000 0.000000 0.000000
# 4 0.000000 0.000000 0.000000 0.027084 0.000000 0.000000
# 5 0.000000 0.000000 0.000000 0.000000 0.011755 0.000000
# 6 0.000000 0.000000 0.000000 0.000000 0.000000 -0.096152
#
#
# Mechanical properties :
#
#
# Convention : Reuss Voigt Hill
#
# Bulk Modulus (GPa) = 62.84188 63.42950 63.13569
# Shear Modulus (GPa) = 476.56990 34.25015 255.41003
#
# Velocity S-wave (km/s) = 15.05501 4.03598 11.02140
# Velocity P-wave (km/s) = 18.22339 7.20316 13.85600
#
# Compressibility (1/GPa) = 0.01591296
#
# Stress axis : x y z
#
# Youngs Moduli (GPa) = 81.93388 74.51056 73.63322
#
# Poissons Ratio (x) = 0.20809 0.35236
# Poissons Ratio (y) = 0.22882 0.29960
# Poissons Ratio (z) = 0.39208 0.30317
#
# Static dielectric constant tensor:
#      x y z
#    x 1.825300 0.000000 0.000000 
#    y 0.000000 1.777480 0.000000 
#    z 0.000000 0.000000 1.757540 
# 
# From -- ./inp_files/53638.got.cif
#   From: 2010.05.17/outbox.cif.g08.bks.cpg/sg22_27_cif.got.tgz:53638.got - 2010.06.03 23:40:54.
