data_PCOD9327369
_publ_section_title
;
Structure prediction by ZEFSAII (Michael W. Deem and Ramdas Pophale) SiO2 
 PCOD9327369
Probable space group: F 2 2 2
;
_chemical_formula_sum "Si O2"
_cell_formula_units_Z 68
_cell_length_a 14.214911
_cell_length_b 8.670963
_cell_length_c 29.795450
_cell_angle_alpha 90.000000
_cell_angle_beta 90.000000
_cell_angle_gamma 90.000000
_cell_volume 3672.496807
_symmetry_space_group_name_H-M "F 2 2 2"
_symmetry_group_IT_number 22
_symmetry_cell_setting 'orthorhombic'
loop_
_space_group_symop_operation_xyz
x,y,z
-x,-y,z
x,-y,-z
-x,y,-z
x,1/2+y,1/2+z
-x,1/2-y,1/2+z
x,1/2-y,1/2-z
-x,1/2+y,1/2-z
1/2+x,y,1/2+z
1/2-x,-y,1/2+z
1/2+x,-y,1/2-z
1/2-x,y,1/2-z
1/2+x,1/2+y,z
1/2-x,1/2-y,z
1/2+x,1/2-y,-z
1/2-x,1/2+y,-z
loop_
_atom_site_type_symbol
_atom_site_label
_atom_site_fract_x
_atom_site_fract_y
_atom_site_fract_z
Si Si1 0.500000 0.000000 0.000000
Si Si2 0.813664 0.901639 0.541916
Si Si3 0.602569 0.578388 0.809650
Si Si4 0.262556 0.430002 0.366833
Si Si5 0.105912 0.942108 0.292531
O O1 0.573956 0.897636 0.970584
O O2 0.750000 0.750000 0.544272
O O3 0.774639 0.000000 0.500000
O O4 0.800649 0.989345 0.588585
O O5 0.500000 0.500000 0.813488
O O6 0.667992 0.510646 0.848427
O O7 0.604837 0.764616 0.809299
O O8 0.638804 0.543153 0.759074
O O9 0.250000 0.250000 0.375259
O O10 0.334447 0.456563 0.326242
O O11 0.000000 0.000000 0.292635
#
# Coordination Sequence:
#
# PCOD9327369 Si02
#       5
#     4  16  16  16  16
#     4   8  24  44  78  94 132 164 206 264 336 382
#     4  10  22  45  69  97 131 164 212 268 324 394
#     4  10  21  39  56  90 122 165 218 261 322 383
#     4  12  24  38  61  91 126 166 213 261 313 386
#     4  10  21  36  61  83 125 168 210 269 320 375
#
# _framework density 18.516014999999999
#
# number of rings (size 3 to 8) (size 9 to 14) (size 15 to 20)
#    0.706    0.941    0.000    4.941    1.647    5.647 
#    4.235    0.588    0.000    0.000    0.000    0.000 
#    0.000    0.000    0.000    0.000    0.000    0.000 
#
# Total GULP energy -94778.321102 kJ/mol
# GULP energy per Si atom -5575.195359 kJ/mol
# Density = 1.847387 g / cm^3
# Si number density = 18.516015 Si / 1000 Ang^3
#
#
#
# Elastic Constant Matrix: (Units=GPa)
#
#
# Indices 1 2 3 4 5 6 
#
# 1 115.9399 38.1416 48.1985 0.0000 0.0000 0.0000
# 2 38.1416 88.8591 37.6098 0.0000 0.0000 0.0000
# 3 48.1985 37.6098 98.6985 0.0000 0.0000 0.0000
# 4 0.0000 0.0000 0.0000 21.0843 0.0000 0.0000
# 5 0.0000 0.0000 0.0000 0.0000 39.9818 0.0000
# 6 0.0000 0.0000 0.0000 0.0000 0.0000 26.6996
#
#
#
# Elastic Compliance Matrix: (Units=1/GPa)
#
#
# Indices 1 2 3 4 5 6 
#
# 1 0.011474 -0.003044 -0.004443 0.000000 0.000000 0.000000
# 2 -0.003044 0.014226 -0.003934 0.000000 0.000000 0.000000
# 3 -0.004443 -0.003934 0.013801 0.000000 0.000000 0.000000
# 4 0.000000 0.000000 0.000000 0.047429 0.000000 0.000000
# 5 0.000000 0.000000 0.000000 0.000000 0.025011 0.000000
# 6 0.000000 0.000000 0.000000 0.000000 0.000000 0.037454
#
#
# Mechanical properties :
#
#
# Convention : Reuss Voigt Hill
#
# Bulk Modulus (GPa) = 60.03459 61.26638 60.65048
# Shear Modulus (GPa) = 28.12318 29.52298 28.82308
#
# Velocity S-wave (km/s) = 3.90148 3.99740 3.94973
# Velocity P-wave (km/s) = 7.26559 7.38009 7.32306
#
# Compressibility (1/GPa) = 0.01665706
#
# Stress axis : x y z
#
# Youngs Moduli (GPa) = 87.15538 70.29543 72.46023
#
# Poissons Ratio (x) = 0.21401 0.32194
# Poissons Ratio (y) = 0.26534 0.28506
# Poissons Ratio (z) = 0.38723 0.27655
#
# Static dielectric constant tensor:
#      x y z
#    x 1.832920 0.000000 0.000000 
#    y 0.000000 1.633410 0.000000 
#    z 0.000000 0.000000 1.616050 
# 
# From -- ./inp_files/27003.got.cif
#   From: 2010.05.17/outbox.cif.g08.bks.cpg/sg22_14_cif.got.tgz:27003.got - 2010.06.03 23:40:54.
