data_PCOD9327525
_publ_section_title
;
Structure prediction by ZEFSAII (Michael W. Deem and Ramdas Pophale) SiO2 
 PCOD9327525
Probable space group: F 2 2 2
;
_chemical_formula_sum "Si O2"
_cell_formula_units_Z 108
_cell_length_a 16.458149
_cell_length_b 13.666915
_cell_length_c 22.655546
_cell_angle_alpha 90.000000
_cell_angle_beta 90.000000
_cell_angle_gamma 90.000000
_cell_volume 5095.960069
_symmetry_space_group_name_H-M "F 2 2 2"
_symmetry_group_IT_number 22
_symmetry_cell_setting 'orthorhombic'
loop_
_space_group_symop_operation_xyz
x,y,z
-x,-y,z
x,-y,-z
-x,y,-z
x,1/2+y,1/2+z
-x,1/2-y,1/2+z
x,1/2-y,1/2-z
-x,1/2+y,1/2-z
1/2+x,y,1/2+z
1/2-x,-y,1/2+z
1/2+x,-y,1/2-z
1/2-x,y,1/2-z
1/2+x,1/2+y,z
1/2-x,1/2-y,z
1/2+x,1/2-y,-z
1/2-x,1/2+y,-z
loop_
_atom_site_type_symbol
_atom_site_label
_atom_site_fract_x
_atom_site_fract_y
_atom_site_fract_z
Si Si1 0.806724 0.977047 0.439563
Si Si2 0.341208 0.792317 0.865016
Si Si3 0.209836 0.855411 0.352473
Si Si4 0.000000 0.500000 0.500000
Si Si5 0.864441 0.394027 0.577408
Si Si6 0.314616 0.977184 0.706101
Si Si7 0.051515 0.250000 0.250000
Si Si8 0.056659 0.920609 0.286215
O O1 0.840977 0.903455 0.389148
O O2 0.720172 0.924711 0.453368
O O3 0.852954 0.000000 0.500000
O O4 0.791991 0.083309 0.412233
O O5 0.250000 0.750000 0.855442
O O6 0.374377 0.722075 0.916736
O O7 0.393448 0.773091 0.806798
O O8 0.250000 0.750000 0.355997
O O9 0.265992 0.925550 0.312582
O O10 0.118884 0.858974 0.326254
O O11 0.060096 0.560043 0.543250
O O12 0.847996 0.430076 0.645507
O O13 0.250000 0.921885 0.750000
O O14 0.389346 0.010674 0.744881
O O15 0.993772 0.155578 0.246878
O O16 0.000000 0.000000 0.319208
#
# Coordination Sequence:
#
# PCOD9327525 Si02
#       8
#    16  16  16   4  16  16   8  16
#     4  10  21  43  65  89 121 170 240 280 326 407
#     4  10  23  41  64  91 129 176 225 281 349 431
#     4  10  21  39  63  90 124 173 225 280 344 418
#     4  12  24  40  64 100 154 172 230 294 364 424
#     4  10  22  39  63  95 132 177 223 287 356 418
#     4   9  20  38  62  92 130 179 228 280 349 427
#     4  12  23  36  61  98 132 170 222 284 365 432
#     4  11  22  36  59  94 134 169 212 283 354 420
#
# _framework density 21.193258
#
# number of rings (size 3 to 8) (size 9 to 14) (size 15 to 20)
#    0.000    1.778    0.741    2.889    3.111    8.593 
#    0.000    0.000    0.000    3.111    0.000    0.000 
#    0.000    0.000    0.000    0.000    0.000    0.000 
#
# Total GULP energy -150615.242116 kJ/mol
# GULP energy per Si atom -5578.342301 kJ/mol
# Density = 2.114502 g / cm^3
# Si number density = 21.193258 Si / 1000 Ang^3
#
#
#
# Elastic Constant Matrix: (Units=GPa)
#
#
# Indices 1 2 3 4 5 6 
#
# 1 103.8932 47.6148 35.7146 0.0000 0.0000 0.0000
# 2 47.6148 115.8076 36.0597 0.0000 0.0000 0.0000
# 3 35.7146 36.0597 98.6005 0.0000 0.0000 0.0000
# 4 0.0000 0.0000 0.0000 13.6084 0.0000 0.0000
# 5 0.0000 0.0000 0.0000 0.0000 17.4830 0.0000
# 6 0.0000 0.0000 0.0000 0.0000 0.0000 18.0773
#
#
#
# Elastic Compliance Matrix: (Units=1/GPa)
#
#
# Indices 1 2 3 4 5 6 
#
# 1 0.012607 -0.004245 -0.003014 0.000000 0.000000 0.000000
# 2 -0.004245 0.011174 -0.002549 0.000000 0.000000 0.000000
# 3 -0.003014 -0.002549 0.012166 0.000000 0.000000 0.000000
# 4 0.000000 0.000000 0.000000 0.073484 0.000000 0.000000
# 5 0.000000 0.000000 0.000000 0.000000 0.057198 0.000000
# 6 0.000000 0.000000 0.000000 0.000000 0.000000 0.055318
#
#
# Mechanical properties :
#
#
# Convention : Reuss Voigt Hill
#
# Bulk Modulus (GPa) = 61.23295 61.89771 61.56533
# Shear Modulus (GPa) = 20.24242 23.09456 21.66849
#
# Velocity S-wave (km/s) = 3.09388 3.30466 3.20100
# Velocity P-wave (km/s) = 6.45896 6.62048 6.54022
#
# Compressibility (1/GPa) = 0.01633108
#
# Stress axis : x y z
#
# Youngs Moduli (GPa) = 79.32230 89.49356 82.19744
#
# Poissons Ratio (x) = 0.37989 0.24774
# Poissons Ratio (y) = 0.33671 0.20952
# Poissons Ratio (z) = 0.23907 0.22811
#
# Static dielectric constant tensor:
#      x y z
#    x 1.812440 0.000000 0.000000 
#    y 0.000000 1.792730 0.000000 
#    z 0.000000 0.000000 1.808630 
# 
# From -- ./inp_files/48977.got.cif
#   From: 2010.05.17/outbox.cif.g08.bks.cpg/sg22_25_cif.got.tgz:48977.got - 2010.06.03 23:40:54.
