data_PCOD9327692
_publ_section_title
;
Structure prediction by ZEFSAII (Michael W. Deem and Ramdas Pophale) SiO2 
 PCOD9327692
Probable space group: F 2 2 2
;
_chemical_formula_sum "Si O2"
_cell_formula_units_Z 116
_cell_length_a 26.940147
_cell_length_b 22.484959
_cell_length_c 9.140993
_cell_angle_alpha 90.000000
_cell_angle_beta 90.000000
_cell_angle_gamma 90.000000
_cell_volume 5537.139149
_symmetry_space_group_name_H-M "F 2 2 2"
_symmetry_group_IT_number 22
_symmetry_cell_setting 'orthorhombic'
loop_
_space_group_symop_operation_xyz
x,y,z
-x,-y,z
x,-y,-z
-x,y,-z
x,1/2+y,1/2+z
-x,1/2-y,1/2+z
x,1/2-y,1/2-z
-x,1/2+y,1/2-z
1/2+x,y,1/2+z
1/2-x,-y,1/2+z
1/2+x,-y,1/2-z
1/2-x,y,1/2-z
1/2+x,1/2+y,z
1/2-x,1/2-y,z
1/2+x,1/2-y,-z
1/2-x,1/2+y,-z
loop_
_atom_site_type_symbol
_atom_site_label
_atom_site_fract_x
_atom_site_fract_y
_atom_site_fract_z
Si Si1 0.500000 0.500000 0.000000
Si Si2 0.195430 0.721472 0.964996
Si Si3 0.609650 0.563022 0.455177
Si Si4 0.131174 0.338202 0.811624
Si Si5 0.022794 0.693963 0.160625
Si Si6 0.693966 0.602087 0.268994
Si Si7 0.368242 0.662972 0.966070
Si Si8 0.457473 0.894729 0.691272
O O1 0.468230 0.544848 0.897503
O O2 0.250000 0.750000 0.963497
O O3 0.178821 0.694392 0.120574
O O4 0.193824 0.665709 0.854604
O O5 0.154953 0.772415 0.929996
O O6 0.588616 0.500000 0.500000
O O7 0.621673 0.601780 0.597307
O O8 0.660737 0.557871 0.364416
O O9 0.572839 0.594434 0.341117
O O10 0.081841 0.301000 0.850508
O O11 0.134147 0.345310 0.639305
O O12 0.002758 0.750000 0.250000
O O13 0.007986 0.636651 0.256944
O O14 0.000000 0.690609 0.000000
O O15 0.750000 0.582515 0.250000
O O16 0.666876 0.615629 0.116670
O O17 0.423217 0.649398 0.905284
#
# Coordination Sequence:
#
# PCOD9327692 Si02
#       8
#     4  16  16  16  16  16  16  16
#     4  12  28  44  78 108 132 184 254 302 344 424
#     4  11  22  40  69 102 139 181 223 278 342 425
#     4  10  24  46  69  92 132 180 228 290 345 413
#     4  11  25  43  62 100 139 172 232 277 347 413
#     4  12  27  45  67 100 140 190 226 289 361 435
#     4  10  21  42  65 100 132 177 228 271 350 421
#     4  11  23  39  65  99 137 175 218 287 340 405
#     4  11  27  45  71 102 138 183 239 292 354 424
#
# _framework density 20.949445999999998
#
# number of rings (size 3 to 8) (size 9 to 14) (size 15 to 20)
#    0.000    1.103    2.759    2.483    8.690    1.103 
#    0.000    1.379    0.000    0.000    0.000    0.000 
#    0.000    0.000    0.000    0.000    0.000    0.000 
#
# Total GULP energy -162124.427793 kJ/mol
# GULP energy per Si atom -5590.497510 kJ/mol
# Density = 2.090176 g / cm^3
# Si number density = 20.949446 Si / 1000 Ang^3
#
#
#
# Elastic Constant Matrix: (Units=GPa)
#
#
# Indices 1 2 3 4 5 6 
#
# 1 76.9314 -2.3754 21.5013 0.0007 -0.0003 0.0000
# 2 -2.3754 59.6134 14.3156 0.0037 -0.0014 -0.0011
# 3 21.5013 14.3156 128.8225 0.0068 -0.0027 -0.0020
# 4 0.0007 0.0037 0.0068 30.8296 -0.0017 -0.0013
# 5 -0.0003 -0.0014 -0.0027 -0.0017 15.2666 0.0010
# 6 0.0000 -0.0011 -0.0020 -0.0013 0.0010 20.4578
#
#
#
# Elastic Compliance Matrix: (Units=1/GPa)
#
#
# Indices 1 2 3 4 5 6 
#
# 1 0.013708 0.001126 -0.002413 0.000000 0.000000 0.000000
# 2 0.001126 0.017327 -0.002113 -0.000002 0.000001 0.000001
# 3 -0.002413 -0.002113 0.008400 -0.000002 0.000001 0.000001
# 4 0.000000 -0.000002 -0.000002 0.032436 0.000004 0.000002
# 5 0.000000 0.000001 0.000001 0.000004 0.065502 -0.000003
# 6 0.000000 0.000001 0.000001 0.000002 -0.000003 0.048881
#
#
# Mechanical properties :
#
#
# Convention : Reuss Voigt Hill
#
# Bulk Modulus (GPa) = 30.64323 36.91670 33.77996
# Shear Modulus (GPa) = 24.51770 28.77252 26.64511
#
# Velocity S-wave (km/s) = 3.42472 3.71000 3.57021
# Velocity P-wave (km/s) = 5.50429 6.00101 5.75801
#
# Compressibility (1/GPa) = 0.03263364
#
# Stress axis : x y z
#
# Youngs Moduli (GPa) = 72.95146 57.71304 119.04454
#
# Poissons Ratio (x) = -0.06497 0.28725
# Poissons Ratio (y) = -0.08212 0.25159
# Poissons Ratio (z) = 0.17603 0.12197
#
# Static dielectric constant tensor:
#      x y z
#    x 1.740040 0.000000 0.000000 
#    y 0.000000 1.751780 0.000000 
#    z 0.000000 0.000000 1.755950 
# 
# From -- ./inp_files/14094.got.cif
#   From: 2010.05.17/outbox.cif.g08.bks.cpg/sg22_8_cif.got.tgz:14094.got - 2010.06.03 23:40:54.
