data_PCOD9327132
_publ_section_title
;
Structure prediction by ZEFSAII (Michael W. Deem and Ramdas Pophale) SiO2 
 PCOD9327132
Probable space group: F 2 2 2
;
_chemical_formula_sum "Si O2"
_cell_formula_units_Z 64
_cell_length_a 7.751534
_cell_length_b 26.059270
_cell_length_c 14.058104
_cell_angle_alpha 90.000000
_cell_angle_beta 90.000000
_cell_angle_gamma 90.000000
_cell_volume 2839.727412
_symmetry_space_group_name_H-M "F 2 2 2"
_symmetry_group_IT_number 22
_symmetry_cell_setting 'orthorhombic'
loop_
_space_group_symop_operation_xyz
x,y,z
-x,-y,z
x,-y,-z
-x,y,-z
x,1/2+y,1/2+z
-x,1/2-y,1/2+z
x,1/2-y,1/2-z
-x,1/2+y,1/2-z
1/2+x,y,1/2+z
1/2-x,-y,1/2+z
1/2+x,-y,1/2-z
1/2-x,y,1/2-z
1/2+x,1/2+y,z
1/2-x,1/2-y,z
1/2+x,1/2-y,-z
1/2-x,1/2+y,-z
loop_
_atom_site_type_symbol
_atom_site_label
_atom_site_fract_x
_atom_site_fract_y
_atom_site_fract_z
Si Si1 0.998428 0.849093 0.737231
Si Si2 0.885471 0.951850 0.167253
Si Si3 0.809446 0.192238 0.106435
Si Si4 0.683976 0.124955 0.945559
O O1 0.003015 0.905181 0.786456
O O2 0.149226 0.850217 0.658658
O O3 0.975996 0.810282 0.825524
O O4 0.836981 0.835986 0.669454
O O5 0.750000 0.966854 0.250000
O O6 0.779757 0.927730 0.079655
O O7 0.000000 0.000000 0.141406
O O8 0.750000 0.250000 0.089419
O O9 0.803592 0.160791 0.009636
O O10 0.500000 0.118076 0.000000
#
# Coordination Sequence:
#
# PCOD9327132 Si02
#       4
#    16  16  16  16
#     4   9  19  38  64  89 133 172 225 273 334 401
#     4  10  22  41  73  99 133 182 226 277 348 410
#     4  10  20  39  66  95 136 183 220 283 344 402
#     4   9  20  42  65  94 141 175 227 286 338 408
#
# _framework density 22.537374
#
# number of rings (size 3 to 8) (size 9 to 14) (size 15 to 20)
#    0.000    2.500    0.000    1.500    3.500    1.000 
#   18.000    2.500   22.000    0.000    0.000    0.000 
#    0.000    0.000    0.000    0.000    0.000    0.000 
#
# Total GULP energy -89256.387146 kJ/mol
# GULP energy per Si atom -5578.524197 kJ/mol
# Density = 2.248608 g / cm^3
# Si number density = 22.537374 Si / 1000 Ang^3
#
#
#
# Elastic Constant Matrix: (Units=GPa)
#
#
# Indices 1 2 3 4 5 6 
#
# 1 92.8926 64.8991 44.3637 0.0000 0.0000 0.0000
# 2 64.8991 100.7904 75.3426 0.0000 0.0000 0.0000
# 3 44.3637 75.3426 163.4623 0.0000 0.0000 0.0000
# 4 0.0000 0.0000 0.0000 -267.4128 0.0000 0.0000
# 5 0.0000 0.0000 0.0000 0.0000 30.3604 0.0000
# 6 0.0000 0.0000 0.0000 0.0000 0.0000 -29.7929
#
#
#
# Elastic Compliance Matrix: (Units=1/GPa)
#
#
# Indices 1 2 3 4 5 6 
#
# 1 0.019630 -0.013208 0.000760 0.000000 0.000000 0.000000
# 2 -0.013208 0.024024 -0.007488 0.000000 0.000000 0.000000
# 3 0.000760 -0.007488 0.009363 0.000000 0.000000 0.000000
# 4 0.000000 0.000000 0.000000 -0.003740 0.000000 0.000000
# 5 0.000000 0.000000 0.000000 0.000000 0.032938 0.000000
# 6 0.000000 0.000000 0.000000 0.000000 0.000000 -0.033565
#
#
# Mechanical properties :
#
#
# Convention : Reuss Voigt Hill
#
# Bulk Modulus (GPa) = 76.07861 80.70624 78.39243
# Shear Modulus (GPa) = 53.81960 -41.86641 5.97659
#
# Velocity S-wave (km/s) = 4.89203 -4.31471 1.63022
# Velocity P-wave (km/s) = 8.10797 3.32646 6.19696
#
# Compressibility (1/GPa) = 0.01314430
#
# Stress axis : x y z
#
# Youngs Moduli (GPa) = 50.94327 41.62526 106.80542
#
# Poissons Ratio (x) = 0.54978 -0.08120
# Poissons Ratio (y) = 0.67285 0.79980
# Poissons Ratio (z) = -0.03873 0.31171
#
# Static dielectric constant tensor:
#      x y z
#    x 2.707010 0.000000 0.000000 
#    y 0.000000 1.769690 0.000000 
#    z 0.000000 0.000000 1.879850 
# 
# From -- ./inp_files/9808.got.cif
#   From: 2010.05.17/outbox.cif.g08.bks.cpg/sg22_5_cif.got.tgz:9808.got - 2010.06.03 23:40:54.
