data_PCOD9327485
_publ_section_title
;
Structure prediction by ZEFSAII (Michael W. Deem and Ramdas Pophale) SiO2 
 PCOD9327485
Probable space group: F 2 2 2
;
_chemical_formula_sum "Si O2"
_cell_formula_units_Z 84
_cell_length_a 19.731318
_cell_length_b 9.911560
_cell_length_c 18.195191
_cell_angle_alpha 90.000000
_cell_angle_beta 90.000000
_cell_angle_gamma 90.000000
_cell_volume 3558.399702
_symmetry_space_group_name_H-M "F 2 2 2"
_symmetry_group_IT_number 22
_symmetry_cell_setting 'orthorhombic'
loop_
_space_group_symop_operation_xyz
x,y,z
-x,-y,z
x,-y,-z
-x,y,-z
x,1/2+y,1/2+z
-x,1/2-y,1/2+z
x,1/2-y,1/2-z
-x,1/2+y,1/2-z
1/2+x,y,1/2+z
1/2-x,-y,1/2+z
1/2+x,-y,1/2-z
1/2-x,y,1/2-z
1/2+x,1/2+y,z
1/2-x,1/2-y,z
1/2+x,1/2-y,-z
1/2-x,1/2+y,-z
loop_
_atom_site_type_symbol
_atom_site_label
_atom_site_fract_x
_atom_site_fract_y
_atom_site_fract_z
Si Si1 0.987826 0.209585 0.603340
Si Si2 0.000000 0.000000 0.136536
Si Si3 0.500000 0.500000 0.500000
Si Si4 0.215873 0.018202 0.328334
Si Si5 0.913785 0.895174 0.265097
Si Si6 0.250000 0.250000 0.913268
Si Si7 0.840412 0.649376 0.035894
O O1 0.013881 0.360579 0.595852
O O2 0.031914 0.104465 0.557569
O O3 0.977659 0.152711 0.685350
O O4 0.911109 0.198921 0.571104
O O5 0.938274 0.959956 0.189964
O O6 0.250000 0.052808 0.250000
O O7 0.246827 0.881806 0.362081
O O8 0.136354 0.006039 0.307031
O O9 0.211275 0.123719 0.395764
O O10 0.878351 0.750000 0.250000
O O11 0.187512 0.256648 0.970907
O O12 0.845948 0.500000 0.000000
#
# Coordination Sequence:
#
# PCOD9327485 Si02
#       7
#    16   8   4  16  16   8  16
#     4  10  21  39  65  92 125 174 220 259 328 405
#     4  10  21  41  64 101 133 160 216 294 330 378
#     4  12  22  38  64  88 122 178 216 246 312 420
#     4  10  21  38  64  98 125 169 225 272 329 390
#     4   9  20  40  64  92 129 165 209 268 342 396
#     4  10  21  40  63  94 134 166 216 280 329 388
#     4   9  19  39  64  88 130 176 216 266 336 409
#
# _framework density 23.606117000000001
#
# number of rings (size 3 to 8) (size 9 to 14) (size 15 to 20)
#    0.000    2.286    0.952    0.857    0.000    5.333 
#    3.429    7.619    0.000    0.000    0.000    0.000 
#    0.000    0.000    0.000    0.000    0.000    0.000 
#
# Total GULP energy -117109.211959 kJ/mol
# GULP energy per Si atom -5576.629141 kJ/mol
# Density = 2.355239 g / cm^3
# Si number density = 23.606117 Si / 1000 Ang^3
#
#
#
# Elastic Constant Matrix: (Units=GPa)
#
#
# Indices 1 2 3 4 5 6 
#
# 1 57.0916 42.5837 29.9495 0.0000 0.0000 0.0000
# 2 42.5837 163.7444 61.7443 0.0000 0.0000 0.0000
# 3 29.9495 61.7443 140.1377 0.0000 0.0000 0.0000
# 4 0.0000 0.0000 0.0000 39.4644 0.0000 0.0000
# 5 0.0000 0.0000 0.0000 0.0000 22.1056 0.0000
# 6 0.0000 0.0000 0.0000 0.0000 0.0000 31.3837
#
#
#
# Elastic Compliance Matrix: (Units=1/GPa)
#
#
# Indices 1 2 3 4 5 6 
#
# 1 0.022540 -0.004851 -0.002680 0.000000 0.000000 0.000000
# 2 -0.004851 0.008368 -0.002650 0.000000 0.000000 0.000000
# 3 -0.002680 -0.002650 0.008876 0.000000 0.000000 0.000000
# 4 0.000000 0.000000 0.000000 0.025339 0.000000 0.000000
# 5 0.000000 0.000000 0.000000 0.000000 0.045237 0.000000
# 6 0.000000 0.000000 0.000000 0.000000 0.000000 0.031864
#
#
# Mechanical properties :
#
#
# Convention : Reuss Voigt Hill
#
# Bulk Modulus (GPa) = 51.48818 69.94761 60.71789
# Shear Modulus (GPa) = 29.57516 33.70381 31.63949
#
# Velocity S-wave (km/s) = 3.54342 3.78267 3.66499
# Velocity P-wave (km/s) = 6.21287 6.98381 6.60959
#
# Compressibility (1/GPa) = 0.01942193
#
# Stress axis : x y z
#
# Youngs Moduli (GPa) = 44.36565 119.50240 112.66140
#
# Poissons Ratio (x) = 0.57975 0.30189
# Poissons Ratio (y) = 0.21523 0.29857
# Poissons Ratio (z) = 0.11888 0.31670
#
# Static dielectric constant tensor:
#      x y z
#    x 2.040070 0.000000 0.000000 
#    y 0.000000 1.937810 0.000000 
#    z 0.000000 0.000000 1.966280 
# 
# From -- ./inp_files/45198.got.cif
#   From: 2010.05.17/outbox.cif.g08.bks.cpg/sg22_23_cif.got.tgz:45198.got - 2010.06.03 23:40:54.
