data_PCOD9327527
_publ_section_title
;
Structure prediction by ZEFSAII (Michael W. Deem and Ramdas Pophale) SiO2 
 PCOD9327527
Probable space group: F 2 2 2
;
_chemical_formula_sum "Si O2"
_cell_formula_units_Z 116
_cell_length_a 14.119817
_cell_length_b 23.173656
_cell_length_c 17.797649
_cell_angle_alpha 90.000000
_cell_angle_beta 90.000000
_cell_angle_gamma 90.000000
_cell_volume 5823.529253
_symmetry_space_group_name_H-M "F 2 2 2"
_symmetry_group_IT_number 22
_symmetry_cell_setting 'orthorhombic'
loop_
_space_group_symop_operation_xyz
x,y,z
-x,-y,z
x,-y,-z
-x,y,-z
x,1/2+y,1/2+z
-x,1/2-y,1/2+z
x,1/2-y,1/2-z
-x,1/2+y,1/2-z
1/2+x,y,1/2+z
1/2-x,-y,1/2+z
1/2+x,-y,1/2-z
1/2-x,y,1/2-z
1/2+x,1/2+y,z
1/2-x,1/2-y,z
1/2+x,1/2-y,-z
1/2-x,1/2+y,-z
loop_
_atom_site_type_symbol
_atom_site_label
_atom_site_fract_x
_atom_site_fract_y
_atom_site_fract_z
Si Si1 0.635668 0.654114 0.747694
Si Si2 0.816849 0.594711 0.176887
Si Si3 0.359415 0.586720 0.912395
Si Si4 0.858689 0.228004 0.668528
Si Si5 0.020455 0.563876 0.726974
Si Si6 0.900664 0.296777 0.525324
Si Si7 0.500000 0.500000 0.000000
Si Si8 0.138700 0.750004 0.365723
O O1 0.750000 0.644542 0.750000
O O2 0.575441 0.596397 0.752903
O O3 0.605853 0.694407 0.818360
O O4 0.605687 0.691215 0.674074
O O5 0.750000 0.601183 0.250000
O O6 0.745088 0.568009 0.115725
O O7 0.854024 0.659280 0.160427
O O8 0.908132 0.559191 0.202703
O O9 0.422438 0.598594 0.837540
O O10 0.340345 0.646956 0.955226
O O11 0.425501 0.542067 0.956864
O O12 0.893507 0.250000 0.750000
O O13 0.750000 0.250000 0.662927
O O14 0.911116 0.257833 0.599136
O O15 0.000000 0.500000 0.698019
O O16 0.870808 0.258531 0.454339
O O17 0.000000 0.322713 0.500000
O O18 0.250000 0.750000 0.348842
#
# Coordination Sequence:
#
# PCOD9327527 Si02
#       8
#    16  16  16  16  16  16   4  16
#     4   9  20  40  63  89 127 168 216 267 327 386
#     4  10  21  39  63  91 125 163 208 262 325 381
#     4  11  23  40  60  93 130 163 210 271 332 387
#     4  11  19  36  60  91 127 164 197 253 325 391
#     4  11  23  41  64  93 124 169 225 278 316 387
#     4  12  23  34  58  95 128 165 204 256 328 399
#     4  12  24  44  60  88 134 164 224 274 330 388
#     4   9  20  38  58  90 127 166 208 263 327 404
#
# _framework density 19.919193
#
# number of rings (size 3 to 8) (size 9 to 14) (size 15 to 20)
#    0.000    1.517    4.138    2.897    1.931    1.655 
#    0.000    0.000    0.000    0.000    0.000    0.000 
#    0.000    0.000    0.000    0.000    0.000    0.000 
#
# Total GULP energy -161702.646881 kJ/mol
# GULP energy per Si atom -5575.953341 kJ/mol
# Density = 1.987386 g / cm^3
# Si number density = 19.919193 Si / 1000 Ang^3
#
#
#
# Elastic Constant Matrix: (Units=GPa)
#
#
# Indices 1 2 3 4 5 6 
#
# 1 78.8814 22.0644 29.8088 0.0000 0.0000 0.0000
# 2 22.0644 72.9333 33.3284 0.0000 0.0000 0.0000
# 3 29.8088 33.3284 111.9162 0.0000 0.0000 0.0000
# 4 0.0000 0.0000 0.0000 17.1531 0.0000 0.0000
# 5 0.0000 0.0000 0.0000 0.0000 27.1624 0.0000
# 6 0.0000 0.0000 0.0000 0.0000 0.0000 19.8249
#
#
#
# Elastic Compliance Matrix: (Units=1/GPa)
#
#
# Indices 1 2 3 4 5 6 
#
# 1 0.014667 -0.003070 -0.002992 0.000000 0.000000 0.000000
# 2 -0.003070 0.016513 -0.004100 0.000000 0.000000 0.000000
# 3 -0.002992 -0.004100 0.010953 0.000000 0.000000 0.000000
# 4 0.000000 0.000000 0.000000 0.058299 0.000000 0.000000
# 5 0.000000 0.000000 0.000000 0.000000 0.036816 0.000000
# 6 0.000000 0.000000 0.000000 0.000000 0.000000 0.050442
#
#
# Mechanical properties :
#
#
# Convention : Reuss Voigt Hill
#
# Bulk Modulus (GPa) = 45.85212 48.23712 47.04462
# Shear Modulus (GPa) = 23.22525 24.73003 23.97764
#
# Velocity S-wave (km/s) = 3.41834 3.52734 3.47327
# Velocity P-wave (km/s) = 6.21684 6.39206 6.30506
#
# Compressibility (1/GPa) = 0.02180924
#
# Stress axis : x y z
#
# Youngs Moduli (GPa) = 68.18174 60.55673 91.29718
#
# Poissons Ratio (x) = 0.18589 0.27319
# Poissons Ratio (y) = 0.20930 0.37432
# Poissons Ratio (z) = 0.20402 0.24829
#
# Static dielectric constant tensor:
#      x y z
#    x 1.739250 0.000000 0.000000 
#    y 0.000000 1.682640 0.000000 
#    z 0.000000 0.000000 1.742490 
# 
# From -- ./inp_files/37391.got.cif
#   From: 2010.05.17/outbox.cif.g08.bks.cpg/sg22_19_cif.got.tgz:37391.got - 2010.06.03 23:40:54.
