data_PCOD9327706
_publ_section_title
;
Structure prediction by ZEFSAII (Michael W. Deem and Ramdas Pophale) SiO2 
 PCOD9327706
Probable space group: F 2 2 2
;
_chemical_formula_sum "Si O2"
_cell_formula_units_Z 88
_cell_length_a 9.307152
_cell_length_b 34.359332
_cell_length_c 12.673741
_cell_angle_alpha 90.000000
_cell_angle_beta 90.000000
_cell_angle_gamma 90.000000
_cell_volume 4052.904274
_symmetry_space_group_name_H-M "F 2 2 2"
_symmetry_group_IT_number 22
_symmetry_cell_setting 'orthorhombic'
loop_
_space_group_symop_operation_xyz
x,y,z
-x,-y,z
x,-y,-z
-x,y,-z
x,1/2+y,1/2+z
-x,1/2-y,1/2+z
x,1/2-y,1/2-z
-x,1/2+y,1/2-z
1/2+x,y,1/2+z
1/2-x,-y,1/2+z
1/2+x,-y,1/2-z
1/2-x,y,1/2-z
1/2+x,1/2+y,z
1/2-x,1/2-y,z
1/2+x,1/2-y,-z
1/2-x,1/2+y,-z
loop_
_atom_site_type_symbol
_atom_site_label
_atom_site_fract_x
_atom_site_fract_y
_atom_site_fract_z
Si Si1 0.049800 0.682133 0.381560
Si Si2 0.827638 0.455878 0.972396
Si Si3 0.551149 0.149004 0.812729
Si Si4 0.248122 0.390703 0.863922
Si Si5 0.000000 0.800842 0.500000
Si Si6 0.750000 0.421691 0.750000
Si Si7 0.750000 0.250000 0.390831
O O1 0.935930 0.677120 0.288027
O O2 0.124612 0.639677 0.383886
O O3 0.157682 0.715203 0.340938
O O4 0.000000 0.690906 0.500000
O O5 0.768760 0.447747 0.854457
O O6 0.787982 0.500000 0.000000
O O7 0.761584 0.422063 0.044871
O O8 0.000000 0.452494 0.000000
O O9 0.390572 0.136679 0.847953
O O10 0.590853 0.172367 0.917760
O O11 0.623123 0.109216 0.774541
O O12 0.250000 0.411661 0.750000
O O13 0.123163 0.773901 0.449576
#
# Coordination Sequence:
#
# PCOD9327706 Si02
#       7
#    16  16  16  16   8   8   8
#     4  11  24  43  64  96 132 183 235 292 354 430
#     4  11  24  43  70 104 144 180 225 292 355 430
#     4  11  24  41  70  95 131 182 236 286 342 430
#     4  10  21  42  67  93 135 183 228 286 354 424
#     4  12  26  44  64 100 139 186 229 306 360 416
#     4  12  24  42  76 107 134 188 238 279 356 436
#     4  12  26  43  65  96 140 180 237 291 376 420
#
# _framework density 21.712824999999999
#
# number of rings (size 3 to 8) (size 9 to 14) (size 15 to 20)
#    0.000    0.909    4.545    2.182    3.818    1.455 
#    0.000    0.909    0.000    7.091    0.000    0.000 
#    0.000    0.000    0.000    0.000    0.000    0.000 
#
# Total GULP energy -122563.685730 kJ/mol
# GULP energy per Si atom -5571.076624 kJ/mol
# Density = 2.166341 g / cm^3
# Si number density = 21.712825 Si / 1000 Ang^3
#
#
#
# Elastic Constant Matrix: (Units=GPa)
#
#
# Indices 1 2 3 4 5 6 
#
# 1 29.1612 7.7363 14.3611 0.0000 0.0000 0.0000
# 2 7.7363 130.8316 75.1544 0.0000 0.0000 0.0000
# 3 14.3611 75.1544 186.1210 0.0000 0.0000 0.0000
# 4 0.0000 0.0000 0.0000 5.5992 0.0000 0.0000
# 5 0.0000 0.0000 0.0000 0.0000 29.1012 0.0000
# 6 0.0000 0.0000 0.0000 0.0000 0.0000 25.4331
#
#
#
# Elastic Compliance Matrix: (Units=1/GPa)
#
#
# Indices 1 2 3 4 5 6 
#
# 1 0.035694 -0.000688 -0.002476 0.000000 0.000000 0.000000
# 2 -0.000688 0.009965 -0.003971 0.000000 0.000000 0.000000
# 3 -0.002476 -0.003971 0.007167 0.000000 0.000000 0.000000
# 4 0.000000 0.000000 0.000000 0.178597 0.000000 0.000000
# 5 0.000000 0.000000 0.000000 0.000000 0.034363 0.000000
# 6 0.000000 0.000000 0.000000 0.000000 0.000000 0.039319
#
#
# Mechanical properties :
#
#
# Convention : Reuss Voigt Hill
#
# Bulk Modulus (GPa) = 25.93622 60.06860 43.00241
# Shear Modulus (GPa) = 15.04993 28.61750 21.83372
#
# Velocity S-wave (km/s) = 2.63560 3.63437 3.17451
# Velocity P-wave (km/s) = 4.60792 6.73324 5.76929
#
# Compressibility (1/GPa) = 0.03855613
#
# Stress axis : x y z
#
# Youngs Moduli (GPa) = 28.01576 100.35096 139.52330
#
# Poissons Ratio (x) = 0.06906 0.34550
# Poissons Ratio (y) = 0.01928 0.55401
# Poissons Ratio (z) = 0.06937 0.39846
#
# Static dielectric constant tensor:
#      x y z
#    x 1.859620 0.000000 0.000000 
#    y 0.000000 1.744050 0.000000 
#    z 0.000000 0.000000 1.684990 
# 
# From -- ./inp_files/18462.got.cif
#   From: 2010.05.17/outbox.cif.g08.bks.cpg/sg22_10_cif.got.tgz:18462.got - 2010.06.03 23:40:54.
