data_PCOD9327190
_publ_section_title
;
Structure prediction by ZEFSAII (Michael W. Deem and Ramdas Pophale) SiO2 
 PCOD9327190
Probable space group: F 2 2 2
;
_chemical_formula_sum "Si O2"
_cell_formula_units_Z 112
_cell_length_a 12.986551
_cell_length_b 27.429130
_cell_length_c 14.912969
_cell_angle_alpha 90.000000
_cell_angle_beta 90.000000
_cell_angle_gamma 90.000000
_cell_volume 5312.145640
_symmetry_space_group_name_H-M "F 2 2 2"
_symmetry_group_IT_number 22
_symmetry_cell_setting 'orthorhombic'
loop_
_space_group_symop_operation_xyz
x,y,z
-x,-y,z
x,-y,-z
-x,y,-z
x,1/2+y,1/2+z
-x,1/2-y,1/2+z
x,1/2-y,1/2-z
-x,1/2+y,1/2-z
1/2+x,y,1/2+z
1/2-x,-y,1/2+z
1/2+x,-y,1/2-z
1/2-x,y,1/2-z
1/2+x,1/2+y,z
1/2-x,1/2-y,z
1/2+x,1/2-y,-z
1/2-x,1/2+y,-z
loop_
_atom_site_type_symbol
_atom_site_label
_atom_site_fract_x
_atom_site_fract_y
_atom_site_fract_z
Si Si1 0.489644 0.444108 0.893542
Si Si2 0.724211 0.804580 0.048889
Si Si3 0.255474 0.930673 0.347190
Si Si4 0.302016 0.317766 0.657703
Si Si5 0.030824 0.340831 0.153201
Si Si6 0.156180 0.128518 0.186575
Si Si7 0.040694 0.050341 0.600231
O O1 0.500000 0.500000 0.865809
O O2 0.373064 0.428924 0.874100
O O3 0.577368 0.412051 0.847513
O O4 0.500000 0.440817 0.000000
O O5 0.750000 0.750000 0.081562
O O6 0.608706 0.822509 0.075673
O O7 0.796723 0.842569 0.102090
O O8 0.738570 0.803968 0.941236
O O9 0.250000 0.955059 0.250000
O O10 0.217856 0.875438 0.339527
O O11 0.164675 0.953674 0.405147
O O12 0.250000 0.299662 0.750000
O O13 0.424967 0.311085 0.656855
O O14 0.092323 0.336641 0.246405
O O15 0.000123 0.398617 0.142729
O O16 0.250000 0.109965 0.250000
O O17 0.000000 0.052474 0.500000
O O18 0.000000 0.000000 0.643361
#
# Coordination Sequence:
#
# PCOD9327190 Si02
#       7
#    16  16  16  16  16  16  16
#     4  11  24  39  57  89 132 173 211 260 324 387
#     4  11  24  43  66  93 126 166 214 269 323 376
#     4  10  21  37  58  84 121 163 203 260 321 375
#     4  10  20  40  66  91 123 162 206 258 322 388
#     4  10  21  40  64  92 127 166 209 268 321 374
#     4  10  23  41  65  91 123 171 222 266 316 379
#     4  10  21  36  63  95 123 164 218 267 319 383
#
# _framework density 21.083759000000001
#
# number of rings (size 3 to 8) (size 9 to 14) (size 15 to 20)
#    0.000    1.714    0.000    5.571    0.000   11.429 
#    0.000    8.571    0.000    0.000    0.000    0.000 
#    0.000    0.000    0.000    0.000    0.000    0.000 
#
# Total GULP energy -156196.131949 kJ/mol
# GULP energy per Si atom -5578.433284 kJ/mol
# Density = 2.103577 g / cm^3
# Si number density = 21.083759 Si / 1000 Ang^3
#
#
#
# Elastic Constant Matrix: (Units=GPa)
#
#
# Indices 1 2 3 4 5 6 
#
# 1 172.9624 48.8206 67.3020 0.0000 0.0000 0.0000
# 2 48.8206 70.6178 27.2749 0.0000 0.0000 0.0000
# 3 67.3020 27.2749 145.9787 0.0000 0.0000 0.0000
# 4 0.0000 0.0000 0.0000 58.6019 0.0000 0.0000
# 5 0.0000 0.0000 0.0000 0.0000 -21.1276 0.0000
# 6 0.0000 0.0000 0.0000 0.0000 0.0000 4.1137
#
#
#
# Elastic Compliance Matrix: (Units=1/GPa)
#
#
# Indices 1 2 3 4 5 6 
#
# 1 0.008205 -0.004539 -0.002935 0.000000 0.000000 0.000000
# 2 -0.004539 0.017773 -0.001228 0.000000 0.000000 0.000000
# 3 -0.002935 -0.001228 0.008433 0.000000 0.000000 0.000000
# 4 0.000000 0.000000 0.000000 0.017064 0.000000 0.000000
# 5 0.000000 0.000000 0.000000 0.000000 -0.047331 0.000000
# 6 0.000000 0.000000 0.000000 0.000000 0.000000 0.243090
#
#
# Mechanical properties :
#
#
# Convention : Reuss Voigt Hill
#
# Bulk Modulus (GPa) = 58.79857 75.15043 66.97450
# Shear Modulus (GPa) = 18.49761 24.72835 21.61298
#
# Velocity S-wave (km/s) = 2.96520 3.42842 3.20519
# Velocity P-wave (km/s) = 6.29856 7.16891 6.74778
#
# Compressibility (1/GPa) = 0.01700722
#
# Stress axis : x y z
#
# Youngs Moduli (GPa) = 121.88271 56.26556 118.58489
#
# Poissons Ratio (x) = 0.25537 0.34800
# Poissons Ratio (y) = 0.55319 0.14564
# Poissons Ratio (z) = 0.35768 0.06910
#
# Static dielectric constant tensor:
#      x y z
#    x 1.527170 0.000000 0.000000 
#    y 0.000000 1.789730 0.000000 
#    z 0.000000 0.000000 1.742800 
# 
# From -- ./inp_files/28468.got.cif
#   From: 2010.05.17/outbox.cif.g08.bks.cpg/sg22_15_cif.got.tgz:28468.got - 2010.06.03 23:40:54.
