data_PCOD9327112
_publ_section_title
;
Structure prediction by ZEFSAII (Michael W. Deem and Ramdas Pophale) SiO2 
 PCOD9327112
Probable space group: F 2 2 2
;
_chemical_formula_sum "Si O2"
_cell_formula_units_Z 120
_cell_length_a 20.103108
_cell_length_b 23.223381
_cell_length_c 12.557895
_cell_angle_alpha 90.000000
_cell_angle_beta 90.000000
_cell_angle_gamma 90.000000
_cell_volume 5862.805688
_symmetry_space_group_name_H-M "F 2 2 2"
_symmetry_group_IT_number 22
_symmetry_cell_setting 'orthorhombic'
loop_
_space_group_symop_operation_xyz
x,y,z
-x,-y,z
x,-y,-z
-x,y,-z
x,1/2+y,1/2+z
-x,1/2-y,1/2+z
x,1/2-y,1/2-z
-x,1/2+y,1/2-z
1/2+x,y,1/2+z
1/2-x,-y,1/2+z
1/2+x,-y,1/2-z
1/2-x,y,1/2-z
1/2+x,1/2+y,z
1/2-x,1/2-y,z
1/2+x,1/2-y,-z
1/2-x,1/2+y,-z
loop_
_atom_site_type_symbol
_atom_site_label
_atom_site_fract_x
_atom_site_fract_y
_atom_site_fract_z
Si Si1 0.818824 0.885940 0.537625
Si Si2 0.678324 0.263890 0.373583
Si Si3 0.861297 0.518890 0.807386
Si Si4 0.500000 0.500000 0.195923
Si Si5 0.323985 0.111101 0.198335
Si Si6 0.581739 0.661406 0.917557
Si Si7 0.046893 0.875561 0.849003
Si Si8 0.320430 0.945782 0.419763
O O1 0.831523 0.831366 0.612286
O O2 0.857626 0.938485 0.593041
O O3 0.830725 0.861921 0.418784
O O4 0.744316 0.911647 0.541328
O O5 0.683274 0.250000 0.250000
O O6 0.750000 0.250000 0.425454
O O7 0.622290 0.220157 0.411382
O O8 0.937073 0.516725 0.767508
O O9 0.834408 0.455732 0.833479
O O10 0.817861 0.533879 0.702249
O O11 0.526608 0.556868 0.135154
O O12 0.250000 0.119661 0.250000
O O13 0.387481 0.126207 0.274227
O O14 0.524177 0.655484 0.827100
O O15 0.624301 0.603103 0.909871
O O16 0.562015 0.655120 0.040642
O O17 0.332910 0.000000 0.500000
#
# Coordination Sequence:
#
# PCOD9327112 Si02
#       8
#    16  16  16   8  16  16  16  16
#     4  12  24  41  68  99 134 184 232 280 352 419
#     4  11  25  44  69  99 130 172 228 289 338 405
#     4  11  22  37  64 100 142 180 227 279 349 429
#     4  10  20  39  63 100 140 178 218 282 358 412
#     4  11  23  43  65 102 143 177 222 284 355 432
#     4  11  22  41  66  98 135 175 233 284 352 402
#     4  10  23  40  67  97 137 177 224 284 341 425
#     4  12  21  35  67 105 139 176 221 290 351 418
#
# _framework density 20.468015999999999
#
# number of rings (size 3 to 8) (size 9 to 14) (size 15 to 20)
#    0.000    0.933    2.667    6.400    1.867    0.533 
#    0.000    8.667    0.000    0.000    0.000    0.000 
#    0.000    0.000    0.000    0.000    0.000    0.000 
#
# Total GULP energy -167096.823956 kJ/mol
# GULP energy per Si atom -5569.894132 kJ/mol
# Density = 2.042143 g / cm^3
# Si number density = 20.468016 Si / 1000 Ang^3
#
#
#
# Elastic Constant Matrix: (Units=GPa)
#
#
# Indices 1 2 3 4 5 6 
#
# 1 120.2306 14.3713 23.3344 0.0000 0.0000 0.0000
# 2 14.3713 38.4062 -5.3904 0.0000 0.0000 0.0000
# 3 23.3344 -5.3904 71.0561 0.0000 0.0000 0.0000
# 4 0.0000 0.0000 0.0000 31.6620 0.0000 0.0000
# 5 0.0000 0.0000 0.0000 0.0000 20.2128 0.0000
# 6 0.0000 0.0000 0.0000 0.0000 0.0000 38.0172
#
#
#
# Elastic Compliance Matrix: (Units=1/GPa)
#
#
# Indices 1 2 3 4 5 6 
#
# 1 0.009460 -0.004019 -0.003411 0.000000 0.000000 0.000000
# 2 -0.004019 0.028025 0.003446 0.000000 0.000000 0.000000
# 3 -0.003411 0.003446 0.015455 0.000000 0.000000 0.000000
# 4 0.000000 0.000000 0.000000 0.031584 0.000000 0.000000
# 5 0.000000 0.000000 0.000000 0.000000 0.049474 0.000000
# 6 0.000000 0.000000 0.000000 0.000000 0.000000 0.026304
#
#
# Mechanical properties :
#
#
# Convention : Reuss Voigt Hill
#
# Bulk Modulus (GPa) = 22.23652 32.70262 27.46957
# Shear Modulus (GPa) = 27.28369 31.13691 29.21030
#
# Velocity S-wave (km/s) = 3.65498 3.90455 3.78182
# Velocity P-wave (km/s) = 5.35718 6.02822 5.70258
#
# Compressibility (1/GPa) = 0.04497106
#
# Stress axis : x y z
#
# Youngs Moduli (GPa) = 105.71071 35.68267 64.70375
#
# Poissons Ratio (x) = 0.14339 0.22073
# Poissons Ratio (y) = 0.42481 -0.22295
# Poissons Ratio (z) = 0.36062 -0.12295
#
# Static dielectric constant tensor:
#      x y z
#    x 1.674640 0.000000 0.000000 
#    y 0.000000 1.725280 0.000000 
#    z 0.000000 0.000000 4.465760 
# 
# From -- ./inp_files/23017.got.cif
#   From: 2010.05.17/outbox.cif.g08.bks.cpg/sg22_12_cif.got.tgz:23017.got - 2010.06.03 23:40:54.
