data_PCOD9327860
_publ_section_title
;
Structure prediction by ZEFSAII (Michael W. Deem and Ramdas Pophale) SiO2 
 PCOD9327860
Probable space group: F 2 2 2
;
_chemical_formula_sum "Si O2"
_cell_formula_units_Z 104
_cell_length_a 19.444608
_cell_length_b 9.376494
_cell_length_c 28.233156
_cell_angle_alpha 90.000000
_cell_angle_beta 90.000000
_cell_angle_gamma 90.000000
_cell_volume 5147.532533
_symmetry_space_group_name_H-M "F 2 2 2"
_symmetry_group_IT_number 22
_symmetry_cell_setting 'orthorhombic'
loop_
_space_group_symop_operation_xyz
x,y,z
-x,-y,z
x,-y,-z
-x,y,-z
x,1/2+y,1/2+z
-x,1/2-y,1/2+z
x,1/2-y,1/2-z
-x,1/2+y,1/2-z
1/2+x,y,1/2+z
1/2-x,-y,1/2+z
1/2+x,-y,1/2-z
1/2-x,y,1/2-z
1/2+x,1/2+y,z
1/2-x,1/2-y,z
1/2+x,1/2-y,-z
1/2-x,1/2+y,-z
loop_
_atom_site_type_symbol
_atom_site_label
_atom_site_fract_x
_atom_site_fract_y
_atom_site_fract_z
Si Si1 0.878471 0.704464 0.413802
Si Si2 0.327127 0.580676 0.757102
Si Si3 0.000000 0.000000 0.889577
Si Si4 0.131010 0.530842 0.843007
Si Si5 0.103879 0.763384 0.115289
Si Si6 0.205611 0.993780 0.141609
Si Si7 0.080715 0.669766 0.007845
O O1 0.942540 0.594705 0.415489
O O2 0.888641 0.830920 0.374662
O O3 0.814661 0.609528 0.397646
O O4 0.873752 0.765888 0.465995
O O5 0.322526 0.750000 0.750000
O O6 0.250000 0.519122 0.750000
O O7 0.376147 0.537411 0.713987
O O8 0.337918 0.542324 0.811624
O O9 0.953523 0.875677 0.866755
O O10 0.094473 0.389771 0.861311
O O11 0.213273 0.507211 0.850512
O O12 0.175991 0.840097 0.127505
O O13 0.099047 0.731711 0.059220
O O14 0.087189 0.500000 0.000000
O O15 0.000000 0.702834 0.000000
#
# Coordination Sequence:
#
# PCOD9327860 Si02
#       7
#    16  16   8  16  16  16  16
#     4  11  21  38  64  89 125 156 210 252 307 364
#     4   9  17  34  62  92 123 162 211 245 287 367
#     4  10  24  39  58  92 116 156 208 268 298 343
#     4  11  21  38  65  94 125 169 197 248 319 366
#     4  11  23  40  61  89 130 157 209 260 302 361
#     4  10  22  38  61  98 129 159 204 253 303 371
#     4  11  22  39  63  92 113 159 224 258 288 366
#
# _framework density 20.203855000000001
#
# number of rings (size 3 to 8) (size 9 to 14) (size 15 to 20)
#    0.000    1.538    4.615    0.923    0.000    4.308 
#    0.000    6.923    0.000   14.769    0.000    0.000 
#    0.000    0.000    0.000    0.000    0.000    0.000 
#
# Total GULP energy -144841.288324 kJ/mol
# GULP energy per Si atom -5570.818782 kJ/mol
# Density = 2.015787 g / cm^3
# Si number density = 20.203855 Si / 1000 Ang^3
#
#
#
# Elastic Constant Matrix: (Units=GPa)
#
#
# Indices 1 2 3 4 5 6 
#
# 1 34.5992 11.8163 9.2498 0.0000 0.0000 0.0000
# 2 11.8163 98.0061 25.9356 0.0000 0.0000 0.0000
# 3 9.2498 25.9356 121.7017 0.0000 0.0000 0.0000
# 4 0.0000 0.0000 0.0000 27.0290 0.0000 0.0000
# 5 0.0000 0.0000 0.0000 0.0000 0.6053 0.0000
# 6 0.0000 0.0000 0.0000 0.0000 0.0000 31.6675
#
#
#
# Elastic Compliance Matrix: (Units=1/GPa)
#
#
# Indices 1 2 3 4 5 6 
#
# 1 0.030443 -0.003241 -0.001623 0.000000 0.000000 0.000000
# 2 -0.003241 0.011158 -0.002132 0.000000 0.000000 0.000000
# 3 -0.001623 -0.002132 0.008794 0.000000 0.000000 0.000000
# 4 0.000000 0.000000 0.000000 0.036997 0.000000 0.000000
# 5 0.000000 0.000000 0.000000 0.000000 1.652019 0.000000
# 6 0.000000 0.000000 0.000000 0.000000 0.000000 0.031578
#
#
# Mechanical properties :
#
#
# Convention : Reuss Voigt Hill
#
# Bulk Modulus (GPa) = 27.46903 38.70116 33.08509
# Shear Modulus (GPa) = 2.78223 25.68073 14.23148
#
# Velocity S-wave (km/s) = 1.17476 3.56909 2.65692
# Velocity P-wave (km/s) = 3.93263 6.01510 5.08168
#
# Compressibility (1/GPa) = 0.03640464
#
# Stress axis : x y z
#
# Youngs Moduli (GPa) = 32.84808 89.61957 113.70827
#
# Poissons Ratio (x) = 0.29045 0.18456
# Poissons Ratio (y) = 0.10646 0.24238
# Poissons Ratio (z) = 0.05332 0.19103
#
# Static dielectric constant tensor:
#      x y z
#    x 1.758060 0.000000 0.000000 
#    y 0.000000 1.738080 0.000000 
#    z 0.000000 0.000000 1.746160 
# 
# From -- ./inp_files/12938.got.cif
#   From: 2010.05.17/outbox.cif.g08.bks.cpg/sg22_7_cif.got.tgz:12938.got - 2010.06.03 23:40:54.
