data_PCOD9327498
_publ_section_title
;
Structure prediction by ZEFSAII (Michael W. Deem and Ramdas Pophale) SiO2 
 PCOD9327498
Probable space group: F 2 2 2
;
_chemical_formula_sum "Si O2"
_cell_formula_units_Z 64
_cell_length_a 20.062343
_cell_length_b 13.748336
_cell_length_c 9.898342
_cell_angle_alpha 90.000000
_cell_angle_beta 90.000000
_cell_angle_gamma 90.000000
_cell_volume 2730.198626
_symmetry_space_group_name_H-M "F 2 2 2"
_symmetry_group_IT_number 22
_symmetry_cell_setting 'orthorhombic'
loop_
_space_group_symop_operation_xyz
x,y,z
-x,-y,z
x,-y,-z
-x,y,-z
x,1/2+y,1/2+z
-x,1/2-y,1/2+z
x,1/2-y,1/2-z
-x,1/2+y,1/2-z
1/2+x,y,1/2+z
1/2-x,-y,1/2+z
1/2+x,-y,1/2-z
1/2-x,y,1/2-z
1/2+x,1/2+y,z
1/2-x,1/2-y,z
1/2+x,1/2-y,-z
1/2-x,1/2+y,-z
loop_
_atom_site_type_symbol
_atom_site_label
_atom_site_fract_x
_atom_site_fract_y
_atom_site_fract_z
Si Si1 0.572868 0.661929 0.511482
Si Si2 0.605642 0.997697 0.209139
Si Si3 0.750000 0.418234 0.750000
Si Si4 0.383910 0.500000 0.000000
Si Si5 0.692316 0.810678 0.507780
O O1 0.500000 0.707851 0.500000
O O2 0.586134 0.603092 0.650868
O O3 0.576079 0.580647 0.394710
O O4 0.630949 0.738661 0.488285
O O5 0.581083 0.971670 0.360710
O O6 0.685807 0.979476 0.202458
O O7 0.725526 0.349820 0.870476
O O8 0.338788 0.588327 0.057910
O O9 0.750000 0.750000 0.582343
#
# Coordination Sequence:
#
# PCOD9327498 Si02
#       5
#    16  16   8   8  16
#     4  11  25  46  71 102 140 191 238 285 354 430
#     4  10  22  42  70 102 143 178 234 291 349 412
#     4  10  21  38  70 113 130 182 233 290 349 424
#     4  10  26  42  63 106 139 178 232 292 348 402
#     4  11  23  41  72 105 137 183 232 289 345 422
#
# _framework density 23.441517999999999
#
# number of rings (size 3 to 8) (size 9 to 14) (size 15 to 20)
#    0.000    1.500    2.500    1.875   10.500    1.000 
#    0.000   19.375    0.000    0.000    0.000    0.000 
#    0.000    0.000    0.000    0.000    0.000    0.000 
#
# Total GULP energy -89363.742771 kJ/mol
# GULP energy per Si atom -5585.233923 kJ/mol
# Density = 2.338816 g / cm^3
# Si number density = 23.441518 Si / 1000 Ang^3
#
#
#
# Elastic Constant Matrix: (Units=GPa)
#
#
# Indices 1 2 3 4 5 6 
#
# 1 147.9439 26.0042 14.0574 0.0000 0.0000 0.0000
# 2 26.0042 100.5259 5.6690 0.0000 0.0000 0.0000
# 3 14.0574 5.6690 124.0462 0.0000 0.0000 0.0000
# 4 0.0000 0.0000 0.0000 8.0405 0.0000 0.0000
# 5 0.0000 0.0000 0.0000 0.0000 13.6577 0.0000
# 6 0.0000 0.0000 0.0000 0.0000 0.0000 15.2297
#
#
#
# Elastic Compliance Matrix: (Units=1/GPa)
#
#
# Indices 1 2 3 4 5 6 
#
# 1 0.007146 -0.001808 -0.000727 0.000000 0.000000 0.000000
# 2 -0.001808 0.010431 -0.000272 0.000000 0.000000 0.000000
# 3 -0.000727 -0.000272 0.008156 0.000000 0.000000 0.000000
# 4 0.000000 0.000000 0.000000 0.124370 0.000000 0.000000
# 5 0.000000 0.000000 0.000000 0.000000 0.073219 0.000000
# 6 0.000000 0.000000 0.000000 0.000000 0.000000 0.065661
#
#
# Mechanical properties :
#
#
# Convention : Reuss Voigt Hill
#
# Bulk Modulus (GPa) = 49.70223 51.55302 50.62762
# Shear Modulus (GPa) = 16.59457 29.17127 22.88292
#
# Velocity S-wave (km/s) = 2.66355 3.53147 3.12776
# Velocity P-wave (km/s) = 5.54148 6.21839 5.88967
#
# Compressibility (1/GPa) = 0.02011982
#
# Stress axis : x y z
#
# Youngs Moduli (GPa) = 139.93577 95.87175 122.60392
#
# Poissons Ratio (x) = 0.17329 0.08916
# Poissons Ratio (y) = 0.25294 0.03333
# Poissons Ratio (z) = 0.10176 0.02606
#
# Static dielectric constant tensor:
#      x y z
#    x 1.914110 0.000000 0.000000 
#    y 0.000000 1.961420 0.000000 
#    z 0.000000 0.000000 2.116950 
# 
# From -- ./inp_files/20879.got.cif
#   From: 2010.05.17/outbox.cif.g08.bks.cpg/sg22_11_cif.got.tgz:20879.got - 2010.06.03 23:40:54.
