data_PCOD9327963
_publ_section_title
;
Structure prediction by ZEFSAII (Michael W. Deem and Ramdas Pophale) SiO2 
 PCOD9327963
Probable space group: F 2 2 2
;
_chemical_formula_sum "Si O2"
_cell_formula_units_Z 88
_cell_length_a 12.610670
_cell_length_b 15.603779
_cell_length_c 21.116562
_cell_angle_alpha 90.000000
_cell_angle_beta 90.000000
_cell_angle_gamma 90.000000
_cell_volume 4155.192646
_symmetry_space_group_name_H-M "F 2 2 2"
_symmetry_group_IT_number 22
_symmetry_cell_setting 'orthorhombic'
loop_
_space_group_symop_operation_xyz
x,y,z
-x,-y,z
x,-y,-z
-x,y,-z
x,1/2+y,1/2+z
-x,1/2-y,1/2+z
x,1/2-y,1/2-z
-x,1/2+y,1/2-z
1/2+x,y,1/2+z
1/2-x,-y,1/2+z
1/2+x,-y,1/2-z
1/2-x,y,1/2-z
1/2+x,1/2+y,z
1/2-x,1/2-y,z
1/2+x,1/2-y,-z
1/2-x,1/2+y,-z
loop_
_atom_site_type_symbol
_atom_site_label
_atom_site_fract_x
_atom_site_fract_y
_atom_site_fract_z
Si Si1 0.340848 0.814598 0.124095
Si Si2 0.250000 0.859585 0.250000
Si Si3 0.442817 0.323954 0.431518
Si Si4 0.700627 0.993117 0.074003
Si Si5 0.250000 0.625560 0.750000
Si Si6 0.876971 0.502292 0.322979
Si Si7 0.250000 0.250000 0.132087
O O1 0.250000 0.750000 0.097247
O O2 0.322637 0.814706 0.198791
O O3 0.461682 0.792245 0.112288
O O4 0.332971 0.911688 0.096849
O O5 0.171673 0.915193 0.205371
O O6 0.500000 0.324323 0.500000
O O7 0.389523 0.418586 0.420588
O O8 0.348724 0.257968 0.415460
O O9 0.803580 0.973606 0.116982
O O10 0.726941 0.000000 0.000000
O O11 0.148439 0.567524 0.734409
O O12 0.234156 0.676169 0.814997
O O13 0.000000 0.500000 0.338034
#
# Coordination Sequence:
#
# PCOD9327963 Si02
#       7
#    16   8  16  16   8  16   8
#     4  11  25  44  70 108 140 188 237 307 372 440
#     4   9  23  41  65 100 144 178 246 288 369 457
#     4  12  26  46  77 102 148 193 252 310 370 456
#     4  11  23  46  71 104 141 190 257 293 373 451
#     4  10  22  47  65 105 151 178 251 301 379 463
#     4  10  22  40  71 105 141 194 243 310 376 446
#     4  11  26  44  72 110 142 199 244 314 386 445
#
# _framework density 21.178318999999998
#
# number of rings (size 3 to 8) (size 9 to 14) (size 15 to 20)
#    0.000    1.273    3.636    0.818    3.818    3.273 
#    3.273    0.000    0.000    0.000    0.000    0.000 
#    0.000    0.000    0.000    0.000    0.000    0.000 
#
# Total GULP energy -122549.879217 kJ/mol
# GULP energy per Si atom -5570.449055 kJ/mol
# Density = 2.113012 g / cm^3
# Si number density = 21.178319 Si / 1000 Ang^3
#
#
#
# Elastic Constant Matrix: (Units=GPa)
#
#
# Indices 1 2 3 4 5 6 
#
# 1 210.7047 40.6543 76.4188 0.0000 0.0000 0.0000
# 2 40.6543 40.0624 48.8829 0.0000 0.0000 0.0000
# 3 76.4188 48.8829 123.0184 0.0000 0.0000 0.0000
# 4 0.0000 0.0000 0.0000 236.6838 0.0000 0.0000
# 5 0.0000 0.0000 0.0000 0.0000 36.1827 0.0000
# 6 0.0000 0.0000 0.0000 0.0000 0.0000 90.7561
#
#
#
# Elastic Compliance Matrix: (Units=1/GPa)
#
#
# Indices 1 2 3 4 5 6 
#
# 1 0.006325 -0.003153 -0.002676 0.000000 0.000000 0.000000
# 2 -0.003153 0.050026 -0.017920 0.000000 0.000000 0.000000
# 3 -0.002676 -0.017920 0.016912 0.000000 0.000000 0.000000
# 4 0.000000 0.000000 0.000000 0.004225 0.000000 0.000000
# 5 0.000000 0.000000 0.000000 0.000000 0.027637 0.000000
# 6 0.000000 0.000000 0.000000 0.000000 0.000000 0.011019
#
#
# Mechanical properties :
#
#
# Convention : Reuss Voigt Hill
#
# Bulk Modulus (GPa) = 38.81256 78.41082 58.61169
# Shear Modulus (GPa) = 29.03099 86.57982 57.80541
#
# Velocity S-wave (km/s) = 3.70643 6.40079 5.23009
# Velocity P-wave (km/s) = 6.05667 9.57764 8.01294
#
# Compressibility (1/GPa) = 0.02576486
#
# Stress axis : x y z
#
# Youngs Moduli (GPa) = 158.10468 19.98969 59.13002
#
# Poissons Ratio (x) = 0.06303 0.15824
# Poissons Ratio (y) = 0.49851 1.05959
# Poissons Ratio (z) = 0.42311 0.35821
#
# Static dielectric constant tensor:
#      x y z
#    x 0.988480 0.000000 0.000000 
#    y 0.000000 1.930210 0.000000 
#    z 0.000000 0.000000 1.751020 
# 
# From -- ./inp_files/42661.got.cif
#   From: 2010.05.17/outbox.cif.g08.bks.cpg/sg22_22_cif.got.tgz:42661.got - 2010.06.03 23:40:54.
