data_PCOD9327188
_publ_section_title
;
Structure prediction by ZEFSAII (Michael W. Deem and Ramdas Pophale) SiO2 
 PCOD9327188
Probable space group: F 2 2 2
;
_chemical_formula_sum "Si O2"
_cell_formula_units_Z 116
_cell_length_a 8.873635
_cell_length_b 26.435094
_cell_length_c 23.933424
_cell_angle_alpha 90.000000
_cell_angle_beta 90.000000
_cell_angle_gamma 90.000000
_cell_volume 5614.191918
_symmetry_space_group_name_H-M "F 2 2 2"
_symmetry_group_IT_number 22
_symmetry_cell_setting 'orthorhombic'
loop_
_space_group_symop_operation_xyz
x,y,z
-x,-y,z
x,-y,-z
-x,y,-z
x,1/2+y,1/2+z
-x,1/2-y,1/2+z
x,1/2-y,1/2-z
-x,1/2+y,1/2-z
1/2+x,y,1/2+z
1/2-x,-y,1/2+z
1/2+x,-y,1/2-z
1/2-x,y,1/2-z
1/2+x,1/2+y,z
1/2-x,1/2-y,z
1/2+x,1/2-y,-z
1/2-x,1/2+y,-z
loop_
_atom_site_type_symbol
_atom_site_label
_atom_site_fract_x
_atom_site_fract_y
_atom_site_fract_z
Si Si1 0.403867 0.351634 0.676445
Si Si2 0.000000 0.000000 0.500000
Si Si3 0.546314 0.859393 0.701007
Si Si4 0.134274 0.713193 0.960200
Si Si5 0.164071 0.585528 0.071753
Si Si6 0.993548 0.940742 0.886938
Si Si7 0.845797 0.630484 0.471790
Si Si8 0.074386 0.747471 0.658456
O O1 0.471316 0.373163 0.733978
O O2 0.223949 0.353366 0.686232
O O3 0.427840 0.382586 0.618457
O O4 0.471025 0.295024 0.675850
O O5 0.085970 0.038242 0.541739
O O6 0.473988 0.903740 0.664364
O O7 0.481909 0.805310 0.682657
O O8 0.250000 0.750000 0.992732
O O9 0.242474 0.668755 0.936592
O O10 0.071463 0.745677 0.908702
O O11 0.000000 0.697132 0.000000
O O12 0.318285 0.567431 0.099651
O O13 0.230437 0.619109 0.021650
O O14 0.096464 0.918582 0.937652
O O15 0.000000 0.000000 0.877038
O O16 0.000000 0.651651 0.500000
O O17 0.250000 0.750000 0.675125
#
# Coordination Sequence:
#
# PCOD9327188 Si02
#       8
#    16   4  16  16  16  16  16  16
#     4  10  22  42  66  87 125 166 218 259 317 381
#     4  12  24  40  62  96 136 160 214 256 328 384
#     4  10  22  42  65  90 121 169 220 261 314 383
#     4  11  23  36  56  90 132 170 207 260 321 389
#     4  10  23  39  63  93 124 172 206 262 314 389
#     4  10  20  40  65  93 123 165 217 267 316 376
#     4  10  21  39  63  88 126 166 213 259 325 384
#     4  11  23  38  61  93 127 164 208 270 327 379
#
# _framework density 20.661923999999999
#
# number of rings (size 3 to 8) (size 9 to 14) (size 15 to 20)
#    0.000    1.655    0.000    4.552    2.897    7.448 
#    3.724    0.000    0.000    0.000    0.000    0.000 
#    0.000    0.000    0.000    0.000    0.000    0.000 
#
# Total GULP energy -161666.523042 kJ/mol
# GULP energy per Si atom -5574.707691 kJ/mol
# Density = 2.061490 g / cm^3
# Si number density = 20.661924 Si / 1000 Ang^3
#
#
#
# Elastic Constant Matrix: (Units=GPa)
#
#
# Indices 1 2 3 4 5 6 
#
# 1 57.8259 42.6203 38.3131 0.0000 0.0000 0.0000
# 2 42.6203 123.1522 64.6028 0.0000 0.0000 0.0000
# 3 38.3131 64.6028 133.9983 0.0000 0.0000 0.0000
# 4 0.0000 0.0000 0.0000 18.0377 0.0000 0.0000
# 5 0.0000 0.0000 0.0000 0.0000 18.4030 0.0000
# 6 0.0000 0.0000 0.0000 0.0000 0.0000 -9.1376
#
#
#
# Elastic Compliance Matrix: (Units=1/GPa)
#
#
# Indices 1 2 3 4 5 6 
#
# 1 0.024671 -0.006475 -0.003932 0.000000 0.000000 0.000000
# 2 -0.006475 0.012568 -0.004208 0.000000 0.000000 0.000000
# 3 -0.003932 -0.004208 0.010616 0.000000 0.000000 0.000000
# 4 0.000000 0.000000 0.000000 0.055439 0.000000 0.000000
# 5 0.000000 0.000000 0.000000 0.000000 0.054339 0.000000
# 6 0.000000 0.000000 0.000000 0.000000 0.000000 -0.109437
#
#
# Mechanical properties :
#
#
# Convention : Reuss Voigt Hill
#
# Bulk Modulus (GPa) = 53.69312 67.33875 60.51594
# Shear Modulus (GPa) = 59.78287 16.75661 38.26974
#
# Velocity S-wave (km/s) = 5.38485 2.85088 4.30837
# Velocity P-wave (km/s) = 8.04395 6.59531 7.35538
#
# Compressibility (1/GPa) = 0.01862436
#
# Stress axis : x y z
#
# Youngs Moduli (GPa) = 40.53294 79.56415 94.19918
#
# Poissons Ratio (x) = 0.51522 0.37040
# Poissons Ratio (y) = 0.26247 0.39639
# Poissons Ratio (z) = 0.15938 0.33480
#
# Static dielectric constant tensor:
#      x y z
#    x 1.654920 0.000000 0.000000 
#    y 0.000000 1.826510 0.000000 
#    z 0.000000 0.000000 1.814660 
# 
# From -- ./inp_files/14085.got.cif
#   From: 2010.05.17/outbox.cif.g08.bks.cpg/sg22_8_cif.got.tgz:14085.got - 2010.06.03 23:40:54.
