data_PCOD9327171
_publ_section_title
;
Structure prediction by ZEFSAII (Michael W. Deem and Ramdas Pophale) SiO2 
 PCOD9327171
Probable space group: F 2 2 2
;
_chemical_formula_sum "Si O2"
_cell_formula_units_Z 92
_cell_length_a 17.108391
_cell_length_b 23.667873
_cell_length_c 10.317660
_cell_angle_alpha 90.000000
_cell_angle_beta 90.000000
_cell_angle_gamma 90.000000
_cell_volume 4177.818895
_symmetry_space_group_name_H-M "F 2 2 2"
_symmetry_group_IT_number 22
_symmetry_cell_setting 'orthorhombic'
loop_
_space_group_symop_operation_xyz
x,y,z
-x,-y,z
x,-y,-z
-x,y,-z
x,1/2+y,1/2+z
-x,1/2-y,1/2+z
x,1/2-y,1/2-z
-x,1/2+y,1/2-z
1/2+x,y,1/2+z
1/2-x,-y,1/2+z
1/2+x,-y,1/2-z
1/2-x,y,1/2-z
1/2+x,1/2+y,z
1/2-x,1/2-y,z
1/2+x,1/2-y,-z
1/2-x,1/2+y,-z
loop_
_atom_site_type_symbol
_atom_site_label
_atom_site_fract_x
_atom_site_fract_y
_atom_site_fract_z
Si Si1 0.592249 0.515205 0.647673
Si Si2 0.651104 0.955267 0.403887
Si Si3 0.500000 0.604797 0.000000
Si Si4 0.320604 0.366872 0.653462
Si Si5 0.694394 0.330880 0.956703
Si Si6 0.435435 0.696410 0.175691
Si Si7 0.250000 0.250000 0.250000
O O1 0.500000 0.500000 0.666620
O O2 0.611209 0.500000 0.500000
O O3 0.635495 0.482263 0.764148
O O4 0.621230 0.579883 0.649703
O O5 0.572509 0.936743 0.481237
O O6 0.688228 0.893915 0.398991
O O7 0.692383 0.000000 0.500000
O O8 0.492507 0.645947 0.126131
O O9 0.250000 0.383754 0.750000
O O10 0.275291 0.337974 0.535238
O O11 0.374735 0.319472 0.713235
O O12 0.624832 0.308011 0.051139
O O13 0.698299 0.288341 0.840841
O O14 0.475323 0.750000 0.250000
#
# Coordination Sequence:
#
# PCOD9327171 Si02
#       7
#    16  16   8  16  16  16   4
#     4  11  24  39  60  95 137 174 213 277 361 423
#     4  11  21  41  66  93 128 173 226 285 342 418
#     4  10  21  38  64  96 126 178 233 268 352 420
#     4  10  21  40  66  93 124 168 227 281 335 419
#     4  10  24  39  64  95 124 176 225 280 353 413
#     4  10  20  40  62  92 125 169 231 278 338 405
#     4  12  24  44  58  88 140 168 216 276 362 400
#
# _framework density 22.021059999999999
#
# number of rings (size 3 to 8) (size 9 to 14) (size 15 to 20)
#    0.000    1.565    0.000    6.522    2.435    4.522 
#    6.261    1.739    0.000    0.000    0.000    0.000 
#    0.000    0.000    0.000    0.000    0.000    0.000 
#
# Total GULP energy -128073.598876 kJ/mol
# GULP energy per Si atom -5568.417342 kJ/mol
# Density = 2.197094 g / cm^3
# Si number density = 22.021060 Si / 1000 Ang^3
#
#
#
# Elastic Constant Matrix: (Units=GPa)
#
#
# Indices 1 2 3 4 5 6 
#
# 1 35.2706 0.9851 -4.9719 0.0000 0.0000 0.0000
# 2 0.9851 103.3154 52.1537 0.0000 0.0000 0.0000
# 3 -4.9719 52.1537 119.5092 0.0000 0.0000 0.0000
# 4 0.0000 0.0000 0.0000 47.0085 0.0000 0.0000
# 5 0.0000 0.0000 0.0000 0.0000 15.7315 0.0000
# 6 0.0000 0.0000 0.0000 0.0000 0.0000 19.4635
#
#
#
# Elastic Compliance Matrix: (Units=1/GPa)
#
#
# Indices 1 2 3 4 5 6 
#
# 1 0.028620 -0.001121 0.001680 0.000000 0.000000 0.000000
# 2 -0.001121 0.012458 -0.005483 0.000000 0.000000 0.000000
# 3 0.001680 -0.005483 0.010830 0.000000 0.000000 0.000000
# 4 0.000000 0.000000 0.000000 0.021273 0.000000 0.000000
# 5 0.000000 0.000000 0.000000 0.000000 0.063567 0.000000
# 6 0.000000 0.000000 0.000000 0.000000 0.000000 0.051378
#
#
# Mechanical properties :
#
#
# Convention : Reuss Voigt Hill
#
# Bulk Modulus (GPa) = 23.77561 39.38099 31.57830
# Shear Modulus (GPa) = 23.58553 30.43592 27.01073
#
# Velocity S-wave (km/s) = 3.27623 3.72173 3.50606
# Velocity P-wave (km/s) = 5.01316 6.03246 5.54627
#
# Compressibility (1/GPa) = 0.04205991
#
# Stress axis : x y z
#
# Youngs Moduli (GPa) = 34.94023 80.27175 92.33373
#
# Poissons Ratio (x) = 0.08997 -0.15510
# Poissons Ratio (y) = 0.03916 0.50628
# Poissons Ratio (z) = -0.05869 0.44014
#
# Static dielectric constant tensor:
#      x y z
#    x 1.879650 0.000000 0.000000 
#    y 0.000000 2.012420 0.000000 
#    z 0.000000 0.000000 1.832020 
# 
# From -- ./inp_files/21428.got.cif
#   From: 2010.05.17/outbox.cif.g08.bks.cpg/sg22_11_cif.got.tgz:21428.got - 2010.06.03 23:40:54.
