data_PCOD9327537
_publ_section_title
;
Structure prediction by ZEFSAII (Michael W. Deem and Ramdas Pophale) SiO2 
 PCOD9327537
Probable space group: F 2 2 2
;
_chemical_formula_sum "Si O2"
_cell_formula_units_Z 80
_cell_length_a 22.136373
_cell_length_b 14.985168
_cell_length_c 11.082950
_cell_angle_alpha 90.000000
_cell_angle_beta 90.000000
_cell_angle_gamma 90.000000
_cell_volume 3676.405899
_symmetry_space_group_name_H-M "F 2 2 2"
_symmetry_group_IT_number 22
_symmetry_cell_setting 'orthorhombic'
loop_
_space_group_symop_operation_xyz
x,y,z
-x,-y,z
x,-y,-z
-x,y,-z
x,1/2+y,1/2+z
-x,1/2-y,1/2+z
x,1/2-y,1/2-z
-x,1/2+y,1/2-z
1/2+x,y,1/2+z
1/2-x,-y,1/2+z
1/2+x,-y,1/2-z
1/2-x,y,1/2-z
1/2+x,1/2+y,z
1/2-x,1/2-y,z
1/2+x,1/2-y,-z
1/2-x,1/2+y,-z
loop_
_atom_site_type_symbol
_atom_site_label
_atom_site_fract_x
_atom_site_fract_y
_atom_site_fract_z
Si Si1 0.000000 0.347944 0.000000
Si Si2 0.500000 0.500000 0.700771
Si Si3 0.286254 0.615576 0.626751
Si Si4 0.289126 0.156298 0.605273
Si Si5 0.863679 0.049211 0.293378
Si Si6 0.624935 0.786615 0.983211
O O1 0.943482 0.285027 0.984088
O O2 0.995196 0.414251 0.886308
O O3 0.431057 0.481565 0.754167
O O4 0.250000 0.625764 0.750000
O O5 0.242261 0.611461 0.510163
O O6 0.332760 0.534215 0.640546
O O7 0.329398 0.698200 0.593057
O O8 0.250000 0.250000 0.628431
O O9 0.310284 0.085121 0.704837
O O10 0.354184 0.197621 0.578824
O O11 0.870592 0.129636 0.390223
#
# Coordination Sequence:
#
# PCOD9327537 Si02
#       6
#     8   8  16  16  16  16
#     4   9  16  36  64  94 124 167 224 264 311 380
#     4   9  18  36  66  97 126 164 227 275 302 382
#     4  11  25  39  65  94 133 170 213 262 326 386
#     4  10  25  42  64  99 136 167 210 271 329 390
#     4  11  22  39  68 100 127 170 220 269 323 380
#     4  10  21  39  64  97 127 170 210 272 320 381
#
# _framework density 21.760383999999998
#
# number of rings (size 3 to 8) (size 9 to 14) (size 15 to 20)
#    0.000    1.800    2.000    1.200    8.400    6.000 
#    0.000    2.000    8.800    1.200    0.000    0.000 
#    0.000    0.000    0.000    0.000    0.000    0.000 
#
# Total GULP energy -111375.065454 kJ/mol
# GULP energy per Si atom -5568.753273 kJ/mol
# Density = 2.171086 g / cm^3
# Si number density = 21.760384 Si / 1000 Ang^3
#
#
#
# Elastic Constant Matrix: (Units=GPa)
#
#
# Indices 1 2 3 4 5 6 
#
# 1 167.4083 14.3621 45.4621 0.0000 0.0000 0.0000
# 2 14.3621 48.5300 8.4477 0.0000 0.0000 0.0000
# 3 45.4621 8.4477 76.6937 0.0000 0.0000 0.0000
# 4 0.0000 0.0000 0.0000 26.2549 0.0000 0.0000
# 5 0.0000 0.0000 0.0000 0.0000 18.5900 0.0000
# 6 0.0000 0.0000 0.0000 0.0000 0.0000 30.7110
#
#
#
# Elastic Compliance Matrix: (Units=1/GPa)
#
#
# Indices 1 2 3 4 5 6 
#
# 1 0.007214 -0.001418 -0.004120 0.000000 0.000000 0.000000
# 2 -0.001418 0.021287 -0.001504 0.000000 0.000000 0.000000
# 3 -0.004120 -0.001504 0.015647 0.000000 0.000000 0.000000
# 4 0.000000 0.000000 0.000000 0.038088 0.000000 0.000000
# 5 0.000000 0.000000 0.000000 0.000000 0.053792 0.000000
# 6 0.000000 0.000000 0.000000 0.000000 0.000000 0.032562
#
#
# Mechanical properties :
#
#
# Convention : Reuss Voigt Hill
#
# Bulk Modulus (GPa) = 33.26274 47.68623 40.47449
# Shear Modulus (GPa) = 25.94765 30.06852 28.00808
#
# Velocity S-wave (km/s) = 3.45690 3.72129 3.59153
# Velocity P-wave (km/s) = 5.59041 6.35813 5.98659
#
# Compressibility (1/GPa) = 0.03006367
#
# Stress axis : x y z
#
# Youngs Moduli (GPa) = 138.62108 46.97654 63.91056
#
# Poissons Ratio (x) = 0.06660 0.26332
# Poissons Ratio (y) = 0.19652 0.09615
# Poissons Ratio (z) = 0.57113 0.07067
#
# Static dielectric constant tensor:
#      x y z
#    x 1.872480 0.000000 0.000000 
#    y 0.000000 1.771010 0.000000 
#    z 0.000000 0.000000 1.860050 
# 
# From -- ./inp_files/23598.got.cif
#   From: 2010.05.17/outbox.cif.g08.bks.cpg/sg22_12_cif.got.tgz:23598.got - 2010.06.03 23:40:54.
