data_PCOD9327965
_publ_section_title
;
Structure prediction by ZEFSAII (Michael W. Deem and Ramdas Pophale) SiO2 
 PCOD9327965
Probable space group: F 2 2 2
;
_chemical_formula_sum "Si O2"
_cell_formula_units_Z 64
_cell_length_a 31.100150
_cell_length_b 18.995120
_cell_length_c 5.159203
_cell_angle_alpha 90.000000
_cell_angle_beta 90.000000
_cell_angle_gamma 90.000000
_cell_volume 3047.804751
_symmetry_space_group_name_H-M "F 2 2 2"
_symmetry_group_IT_number 22
_symmetry_cell_setting 'orthorhombic'
loop_
_space_group_symop_operation_xyz
x,y,z
-x,-y,z
x,-y,-z
-x,y,-z
x,1/2+y,1/2+z
-x,1/2-y,1/2+z
x,1/2-y,1/2-z
-x,1/2+y,1/2-z
1/2+x,y,1/2+z
1/2-x,-y,1/2+z
1/2+x,-y,1/2-z
1/2-x,y,1/2-z
1/2+x,1/2+y,z
1/2-x,1/2-y,z
1/2+x,1/2-y,-z
1/2-x,1/2+y,-z
loop_
_atom_site_type_symbol
_atom_site_label
_atom_site_fract_x
_atom_site_fract_y
_atom_site_fract_z
Si Si1 0.500000 0.299672 0.000000
Si Si2 0.149650 0.545699 0.234101
Si Si3 0.094022 0.675014 0.402345
Si Si4 0.278769 0.855055 0.009167
Si Si5 0.342184 0.750000 0.750000
O O1 0.494610 0.250000 0.250000
O O2 0.544731 0.340621 0.028507
O O3 0.155207 0.500000 0.500000
O O4 0.116880 0.609970 0.269685
O O5 0.193697 0.579334 0.119467
O O6 0.131823 0.500000 0.000000
O O7 0.093503 0.750000 0.250000
O O8 0.126026 0.691711 0.637139
O O9 0.250000 0.833663 0.250000
O O10 0.250000 0.869191 0.750000
O O11 0.311179 0.791738 0.942637
#
# Coordination Sequence:
#
# PCOD9327965 Si02
#       5
#     8  16  16  16   8
#     4  10  22  40  71 114 139 168 226 292 338 404
#     4  12  27  47  70 101 142 190 232 282 351 418
#     4  11  23  44  76 103 143 176 235 280 349 412
#     4  12  27  45  68 101 139 184 238 296 346 406
#     4  12  23  42  72 104 142 174 234 292 361 398
#
# _framework density 20.998721
#
# number of rings (size 3 to 8) (size 9 to 14) (size 15 to 20)
#    0.000    0.500    3.750    4.875    0.000    5.000 
#    0.000    3.125    0.000    4.500    0.000    0.000 
#    0.000    0.000    0.000    0.000    0.000    0.000 
#
# Total GULP energy -89436.279955 kJ/mol
# GULP energy per Si atom -5589.767497 kJ/mol
# Density = 2.095093 g / cm^3
# Si number density = 20.998721 Si / 1000 Ang^3
#
#
#
# Elastic Constant Matrix: (Units=GPa)
#
#
# Indices 1 2 3 4 5 6 
#
# 1 184.1258 67.0716 75.1257 0.0004 0.0003 -0.0008
# 2 67.0716 121.0815 61.7851 -0.0010 -0.0003 0.0014
# 3 75.1257 61.7851 152.9583 -0.0038 -0.0009 0.0051
# 4 0.0004 -0.0010 -0.0038 54.3896 -0.0005 0.0031
# 5 0.0003 -0.0003 -0.0009 -0.0005 96.3903 0.0002
# 6 -0.0008 0.0014 0.0051 0.0031 0.0002 3.1847
#
#
#
# Elastic Compliance Matrix: (Units=1/GPa)
#
#
# Indices 1 2 3 4 5 6 
#
# 1 0.007508 -0.002868 -0.002529 0.000000 0.000000 0.000007
# 2 -0.002868 0.011499 -0.003236 0.000000 0.000000 -0.000001
# 3 -0.002529 -0.003236 0.009087 0.000001 0.000000 -0.000014
# 4 0.000000 0.000000 0.000001 0.018386 0.000000 -0.000018
# 5 0.000000 0.000000 0.000000 0.000000 0.010374 -0.000001
# 6 0.000007 -0.000001 -0.000014 -0.000018 -0.000001 0.314006
#
#
# Mechanical properties :
#
#
# Convention : Reuss Voigt Hill
#
# Bulk Modulus (GPa) = 92.35985 96.23672 94.29828
# Shear Modulus (GPa) = 12.76371 47.73847 30.25109
#
# Velocity S-wave (km/s) = 2.46810 4.77319 3.79966
# Velocity P-wave (km/s) = 7.22503 8.73539 8.01586
#
# Compressibility (1/GPa) = 0.01082722
#
# Stress axis : x y z
#
# Youngs Moduli (GPa) = 133.19607 86.96321 110.04867
#
# Poissons Ratio (x) = 0.24945 0.27829
# Poissons Ratio (y) = 0.38207 0.35612
# Poissons Ratio (z) = 0.33682 0.28142
#
# Static dielectric constant tensor:
#      x y z
#    x 1.820860 0.000000 0.000000 
#    y 0.000000 1.669610 0.000000 
#    z 0.000000 0.000000 1.813010 
# 
# From -- ./inp_files/6156.got.cif
#   From: 2010.05.17/outbox.cif.g08.bks.cpg/sg22_4_cif.got.tgz:6156.got - 2010.06.03 23:40:54.
