data_PCOD9327762
_publ_section_title
;
Structure prediction by ZEFSAII (Michael W. Deem and Ramdas Pophale) SiO2 
 PCOD9327762
Probable space group: F 2 2 2
;
_chemical_formula_sum "Si O2"
_cell_formula_units_Z 108
_cell_length_a 28.861116
_cell_length_b 11.367306
_cell_length_c 15.715824
_cell_angle_alpha 90.000000
_cell_angle_beta 90.000000
_cell_angle_gamma 90.000000
_cell_volume 5155.939681
_symmetry_space_group_name_H-M "F 2 2 2"
_symmetry_group_IT_number 22
_symmetry_cell_setting 'orthorhombic'
loop_
_space_group_symop_operation_xyz
x,y,z
-x,-y,z
x,-y,-z
-x,y,-z
x,1/2+y,1/2+z
-x,1/2-y,1/2+z
x,1/2-y,1/2-z
-x,1/2+y,1/2-z
1/2+x,y,1/2+z
1/2-x,-y,1/2+z
1/2+x,-y,1/2-z
1/2-x,y,1/2-z
1/2+x,1/2+y,z
1/2-x,1/2-y,z
1/2+x,1/2-y,-z
1/2-x,1/2+y,-z
loop_
_atom_site_type_symbol
_atom_site_label
_atom_site_fract_x
_atom_site_fract_y
_atom_site_fract_z
Si Si1 0.643002 0.482658 0.187692
Si Si2 0.331861 0.818401 0.018395
Si Si3 0.000000 0.500000 0.000000
Si Si4 0.567267 0.185629 0.092334
Si Si5 0.048794 0.546417 0.404069
Si Si6 0.380512 0.750000 0.250000
Si Si7 0.716549 0.903994 0.432294
Si Si8 0.190753 0.525002 0.864463
O O1 0.590061 0.492989 0.157877
O O2 0.649269 0.341111 0.195128
O O3 0.672483 0.543393 0.114807
O O4 0.662926 0.529825 0.276737
O O5 0.300413 0.710576 0.984168
O O6 0.335342 0.903492 0.937191
O O7 0.385101 0.794344 0.040368
O O8 0.309671 0.891247 0.097847
O O9 0.966016 0.415505 0.056029
O O10 0.543993 0.313017 0.091881
O O11 0.587103 0.171570 0.188368
O O12 0.057607 0.500000 0.500000
O O13 0.000000 0.500000 0.373124
O O14 0.733164 0.000000 0.500000
O O15 0.759032 0.910343 0.364840
#
# Coordination Sequence:
#
# PCOD9327762 Si02
#       8
#    16  16   4  16  16   8  16  16
#     4  11  23  42  66 104 135 185 231 301 358 411
#     4  11  23  46  66  94 142 185 231 287 354 439
#     4  12  24  40  74 108 136 174 244 290 360 444
#     4  11  23  42  70 101 136 187 226 290 359 421
#     4  10  21  43  73 102 140 183 243 298 357 440
#     4  10  22  44  65  92 140 182 226 288 351 420
#     4  12  24  40  68 101 133 186 239 289 357 424
#     4  11  24  42  69  98 139 184 236 291 355 419
#
# _framework density 20.946714
#
# number of rings (size 3 to 8) (size 9 to 14) (size 15 to 20)
#    0.000    1.037    2.963    5.778    0.000    0.593 
#    5.333    2.222    3.259    0.000    0.000    0.000 
#    0.000    0.000    0.000    0.000    0.000    0.000 
#
# Total GULP energy -150563.927272 kJ/mol
# GULP energy per Si atom -5576.441751 kJ/mol
# Density = 2.089904 g / cm^3
# Si number density = 20.946714 Si / 1000 Ang^3
#
#
#
# Elastic Constant Matrix: (Units=GPa)
#
#
# Indices 1 2 3 4 5 6 
#
# 1 159.2145 53.8645 43.8757 0.0000 0.0000 0.0000
# 2 53.8645 93.8461 19.1800 0.0000 0.0000 0.0000
# 3 43.8757 19.1800 80.3234 0.0000 0.0000 0.0000
# 4 0.0000 0.0000 0.0000 28.9290 0.0000 0.0000
# 5 0.0000 0.0000 0.0000 0.0000 26.7115 0.0000
# 6 0.0000 0.0000 0.0000 0.0000 0.0000 31.2262
#
#
#
# Elastic Compliance Matrix: (Units=1/GPa)
#
#
# Indices 1 2 3 4 5 6 
#
# 1 0.008760 -0.004258 -0.003768 0.000000 0.000000 0.000000
# 2 -0.004258 0.013272 -0.000843 0.000000 0.000000 0.000000
# 3 -0.003768 -0.000843 0.014709 0.000000 0.000000 0.000000
# 4 0.000000 0.000000 0.000000 0.034567 0.000000 0.000000
# 5 0.000000 0.000000 0.000000 0.000000 0.037437 0.000000
# 6 0.000000 0.000000 0.000000 0.000000 0.000000 0.032024
#
#
# Mechanical properties :
#
#
# Convention : Reuss Voigt Hill
#
# Bulk Modulus (GPa) = 52.62493 63.02492 57.82493
# Shear Modulus (GPa) = 30.33199 31.80426 31.06812
#
# Velocity S-wave (km/s) = 3.80946 3.90082 3.85541
# Velocity P-wave (km/s) = 6.67286 7.10226 6.89090
#
# Compressibility (1/GPa) = 0.01900240
#
# Stress axis : x y z
#
# Youngs Moduli (GPa) = 114.15940 75.34741 67.98368
#
# Poissons Ratio (x) = 0.32080 0.25618
# Poissons Ratio (y) = 0.48605 0.05734
# Poissons Ratio (z) = 0.43018 0.06355
#
# Static dielectric constant tensor:
#      x y z
#    x 1.787710 0.000000 0.000000 
#    y 0.000000 1.814760 0.000000 
#    z 0.000000 0.000000 1.819720 
# 
# From -- ./inp_files/33559.got.cif
#   From: 2010.05.17/outbox.cif.g08.bks.cpg/sg22_17_cif.got.tgz:33559.got - 2010.06.03 23:40:54.
