data_PCOD9327420
_publ_section_title
;
Structure prediction by ZEFSAII (Michael W. Deem and Ramdas Pophale) SiO2 
 PCOD9327420
Probable space group: F 2 2 2
;
_chemical_formula_sum "Si O2"
_cell_formula_units_Z 96
_cell_length_a 11.232171
_cell_length_b 19.971351
_cell_length_c 23.198750
_cell_angle_alpha 90.000000
_cell_angle_beta 90.000000
_cell_angle_gamma 90.000000
_cell_volume 5203.981403
_symmetry_space_group_name_H-M "F 2 2 2"
_symmetry_group_IT_number 22
_symmetry_cell_setting 'orthorhombic'
loop_
_space_group_symop_operation_xyz
x,y,z
-x,-y,z
x,-y,-z
-x,y,-z
x,1/2+y,1/2+z
-x,1/2-y,1/2+z
x,1/2-y,1/2-z
-x,1/2+y,1/2-z
1/2+x,y,1/2+z
1/2-x,-y,1/2+z
1/2+x,-y,1/2-z
1/2-x,y,1/2-z
1/2+x,1/2+y,z
1/2-x,1/2-y,z
1/2+x,1/2-y,-z
1/2-x,1/2+y,-z
loop_
_atom_site_type_symbol
_atom_site_label
_atom_site_fract_x
_atom_site_fract_y
_atom_site_fract_z
Si Si1 0.952353 0.298520 0.802416
Si Si2 0.000000 0.644512 0.500000
Si Si3 0.250000 0.895543 0.750000
Si Si4 0.716203 0.328464 0.316472
Si Si5 0.648236 0.292844 0.905041
Si Si6 0.629996 0.078427 0.400934
Si Si7 0.142273 0.564464 0.636752
O O1 0.989416 0.250000 0.750000
O O2 0.851155 0.348066 0.778276
O O3 0.897657 0.249929 0.850986
O O4 0.073222 0.334083 0.822818
O O5 0.046917 0.691251 0.550165
O O6 0.098950 0.600288 0.466523
O O7 0.185818 0.939984 0.798071
O O8 0.750000 0.346741 0.250000
O O9 0.750000 0.250000 0.324249
O O10 0.787379 0.372287 0.363613
O O11 0.750000 0.250000 0.934230
O O12 0.694915 0.365719 0.886201
O O13 0.499893 0.075536 0.369627
O O14 0.675129 0.002222 0.397467
#
# Coordination Sequence:
#
# PCOD9327420 Si02
#       7
#    16   8   8  16  16  16  16
#     4  12  20  36  61  92 128 169 204 261 320 394
#     4  10  24  39  66  84 122 165 218 270 312 373
#     4  12  21  36  62  96 125 166 206 256 315 394
#     4  11  21  35  57  87 129 161 205 256 328 384
#     4  11  21  38  60  91 116 156 213 260 311 372
#     4  10  23  42  58  90 124 166 213 256 318 381
#     4  10  21  37  62  87 127 156 206 253 311 378
#
# _framework density 18.447413999999998
#
# number of rings (size 3 to 8) (size 9 to 14) (size 15 to 20)
#    0.000    1.167    5.000    3.250    1.167    7.333 
#    0.000    0.000    0.000    0.000    0.000    0.000 
#    0.000    0.000    0.000    0.000    0.000    0.000 
#
# Total GULP energy -133859.615743 kJ/mol
# GULP energy per Si atom -5577.483989 kJ/mol
# Density = 1.840543 g / cm^3
# Si number density = 18.447414 Si / 1000 Ang^3
#
#
#
# Elastic Constant Matrix: (Units=GPa)
#
#
# Indices 1 2 3 4 5 6 
#
# 1 67.1209 28.8917 5.2178 0.0000 0.0000 0.0000
# 2 28.8917 82.6455 16.1474 0.0000 0.0000 0.0000
# 3 5.2178 16.1474 56.0923 0.0000 0.0000 0.0000
# 4 0.0000 0.0000 0.0000 16.7867 0.0000 0.0000
# 5 0.0000 0.0000 0.0000 0.0000 34.2611 0.0000
# 6 0.0000 0.0000 0.0000 0.0000 0.0000 20.5746
#
#
#
# Elastic Compliance Matrix: (Units=1/GPa)
#
#
# Indices 1 2 3 4 5 6 
#
# 1 0.017539 -0.006159 0.000141 0.000000 0.000000 0.000000
# 2 -0.006159 0.014984 -0.003740 0.000000 0.000000 0.000000
# 3 0.000141 -0.003740 0.018891 0.000000 0.000000 0.000000
# 4 0.000000 0.000000 0.000000 0.059571 0.000000 0.000000
# 5 0.000000 0.000000 0.000000 0.000000 0.029188 0.000000
# 6 0.000000 0.000000 0.000000 0.000000 0.000000 0.048604
#
#
# Mechanical properties :
#
#
# Convention : Reuss Voigt Hill
#
# Bulk Modulus (GPa) = 31.35001 34.04140 32.69571
# Shear Modulus (GPa) = 22.83897 24.69794 23.76846
#
# Velocity S-wave (km/s) = 3.52242 3.66297 3.59338
# Velocity P-wave (km/s) = 5.79434 6.03184 5.91428
#
# Compressibility (1/GPa) = 0.03189792
#
# Stress axis : x y z
#
# Youngs Moduli (GPa) = 57.01737 66.73898 52.93421
#
# Poissons Ratio (x) = 0.41104 -0.00749
# Poissons Ratio (y) = 0.35116 0.19800
# Poissons Ratio (z) = -0.00807 0.24964
#
# Static dielectric constant tensor:
#      x y z
#    x 1.689410 0.000000 0.000000 
#    y 0.000000 1.652610 0.000000 
#    z 0.000000 0.000000 1.662160 
# 
# From -- ./inp_files/48252.got.cif
#   From: 2010.05.17/outbox.cif.g08.bks.cpg/sg22_25_cif.got.tgz:48252.got - 2010.06.03 23:40:54.
