data_PCOD9327209
_publ_section_title
;
Structure prediction by ZEFSAII (Michael W. Deem and Ramdas Pophale) SiO2 
 PCOD9327209
Probable space group: F 2 2 2
;
_chemical_formula_sum "Si O2"
_cell_formula_units_Z 72
_cell_length_a 16.922218
_cell_length_b 8.327771
_cell_length_c 27.115033
_cell_angle_alpha 90.000000
_cell_angle_beta 90.000000
_cell_angle_gamma 90.000000
_cell_volume 3821.168572
_symmetry_space_group_name_H-M "F 2 2 2"
_symmetry_group_IT_number 22
_symmetry_cell_setting 'orthorhombic'
loop_
_space_group_symop_operation_xyz
x,y,z
-x,-y,z
x,-y,-z
-x,y,-z
x,1/2+y,1/2+z
-x,1/2-y,1/2+z
x,1/2-y,1/2-z
-x,1/2+y,1/2-z
1/2+x,y,1/2+z
1/2-x,-y,1/2+z
1/2+x,-y,1/2-z
1/2-x,y,1/2-z
1/2+x,1/2+y,z
1/2-x,1/2-y,z
1/2+x,1/2-y,-z
1/2-x,1/2+y,-z
loop_
_atom_site_type_symbol
_atom_site_label
_atom_site_fract_x
_atom_site_fract_y
_atom_site_fract_z
Si Si1 0.500000 0.000000 0.130415
Si Si2 0.937448 0.686324 0.957783
Si Si3 0.168027 0.497048 0.180631
Si Si4 0.274758 0.439059 0.573734
Si Si5 0.250000 0.250000 0.750000
Si Si6 0.750000 0.250000 0.750000
Si Si7 0.851143 0.000000 0.000000
O O1 0.483789 0.847210 0.093772
O O2 0.422478 0.012700 0.163843
O O3 0.861643 0.570204 0.950585
O O4 0.902746 0.859903 0.974774
O O5 0.000000 0.653830 0.000000
O O6 0.216608 0.504461 0.129553
O O7 0.193621 0.648149 0.213925
O O8 0.194581 0.351638 0.214376
O O9 0.250000 0.250000 0.573678
O O10 0.211481 0.543346 0.543374
#
# Coordination Sequence:
#
# PCOD9327209 Si02
#       7
#     8  16  16  16   4   4   8
#     4  10  23  38  62  84 126 160 208 251 320 364
#     4  10  21  36  55  86 122 165 199 247 295 360
#     4  10  21  40  63  91 118 161 199 266 308 373
#     4   9  19  36  59  87 115 158 204 242 294 359
#     4  10  20  40  72  84 120 156 220 258 320 378
#     4  10  24  40  60  92 120 148 212 258 320 358
#     4  10  21  36  59  86 128 162 206 236 295 372
#
# _framework density 18.842403999999998
#
# number of rings (size 3 to 8) (size 9 to 14) (size 15 to 20)
#    0.000    2.222    1.111    0.667    6.222    2.667 
#    2.000    0.000    0.000    0.000    0.000    0.000 
#    0.000    0.000    0.000    0.000    0.000    0.000 
#
# Total GULP energy -100231.026911 kJ/mol
# GULP energy per Si atom -5568.390384 kJ/mol
# Density = 1.879952 g / cm^3
# Si number density = 18.842404 Si / 1000 Ang^3
#
#
#
# Elastic Constant Matrix: (Units=GPa)
#
#
# Indices 1 2 3 4 5 6 
#
# 1 147.1196 52.8384 92.4216 0.0000 0.0000 0.0000
# 2 52.8384 78.7958 63.6907 0.0000 0.0000 0.0000
# 3 92.4216 63.6907 178.7017 0.0000 0.0000 0.0000
# 4 0.0000 0.0000 0.0000 44.6349 0.0000 0.0000
# 5 0.0000 0.0000 0.0000 0.0000 48.3740 0.0000
# 6 0.0000 0.0000 0.0000 0.0000 0.0000 32.5972
#
#
#
# Elastic Compliance Matrix: (Units=1/GPa)
#
#
# Indices 1 2 3 4 5 6 
#
# 1 0.010839 -0.003845 -0.004235 0.000000 0.000000 0.000000
# 2 -0.003845 0.019190 -0.004851 0.000000 0.000000 0.000000
# 3 -0.004235 -0.004851 0.009515 0.000000 0.000000 0.000000
# 4 0.000000 0.000000 0.000000 0.022404 0.000000 0.000000
# 5 0.000000 0.000000 0.000000 0.000000 0.020672 0.000000
# 6 0.000000 0.000000 0.000000 0.000000 0.000000 0.030678
#
#
# Mechanical properties :
#
#
# Convention : Reuss Voigt Hill
#
# Bulk Modulus (GPa) = 73.08864 91.39094 82.23979
# Shear Modulus (GPa) = 34.78954 38.16564 36.47759
#
# Velocity S-wave (km/s) = 4.30157 4.50546 4.40469
# Velocity P-wave (km/s) = 7.97151 8.69906 8.34322
#
# Compressibility (1/GPa) = 0.01368202
#
# Stress axis : x y z
#
# Youngs Moduli (GPa) = 92.26215 52.10927 105.09345
#
# Poissons Ratio (x) = 0.20035 0.44510
# Poissons Ratio (y) = 0.35473 0.50983
# Poissons Ratio (z) = 0.39076 0.25279
#
# Static dielectric constant tensor:
#      x y z
#    x 1.684550 0.000000 0.000000 
#    y 0.000000 1.711660 0.000000 
#    z 0.000000 0.000000 1.615050 
# 
# From -- ./inp_files/11569.got.cif
#   From: 2010.05.17/outbox.cif.g08.bks.cpg/sg22_6_cif.got.tgz:11569.got - 2010.06.03 23:40:54.
