data_PCOD9327202
_publ_section_title
;
Structure prediction by ZEFSAII (Michael W. Deem and Ramdas Pophale) SiO2 
 PCOD9327202
Probable space group: F 2 2 2
;
_chemical_formula_sum "Si O2"
_cell_formula_units_Z 56
_cell_length_a 11.303847
_cell_length_b 24.129338
_cell_length_c 8.221902
_cell_angle_alpha 90.000000
_cell_angle_beta 90.000000
_cell_angle_gamma 90.000000
_cell_volume 2242.559494
_symmetry_space_group_name_H-M "F 2 2 2"
_symmetry_group_IT_number 22
_symmetry_cell_setting 'orthorhombic'
loop_
_space_group_symop_operation_xyz
x,y,z
-x,-y,z
x,-y,-z
-x,y,-z
x,1/2+y,1/2+z
-x,1/2-y,1/2+z
x,1/2-y,1/2-z
-x,1/2+y,1/2-z
1/2+x,y,1/2+z
1/2-x,-y,1/2+z
1/2+x,-y,1/2-z
1/2-x,y,1/2-z
1/2+x,1/2+y,z
1/2-x,1/2-y,z
1/2+x,1/2-y,-z
1/2-x,1/2+y,-z
loop_
_atom_site_type_symbol
_atom_site_label
_atom_site_fract_x
_atom_site_fract_y
_atom_site_fract_z
Si Si1 0.500000 0.893749 0.500000
Si Si2 0.339563 0.648484 0.398706
Si Si3 0.880256 0.533245 0.768210
Si Si4 0.091400 0.685545 0.772806
O O1 0.585788 0.933247 0.603626
O O2 0.423862 0.854489 0.617664
O O3 0.250000 0.659714 0.250000
O O4 0.362749 0.582539 0.397335
O O5 0.458376 0.679200 0.343490
O O6 0.320880 0.666106 0.584063
O O7 0.750000 0.505499 0.750000
O O8 0.000000 0.500000 0.803917
O O9 0.113241 0.750000 0.750000
#
# Coordination Sequence:
#
# PCOD9327202 Si02
#       4
#     8  16  16  16
#     4  10  21  42  68 104 148 188 243 310 376 448
#     4   9  20  41  70 104 143 190 243 302 372 452
#     4  10  22  46  74 102 143 194 246 309 379 451
#     4  10  20  40  69 101 146 194 242 301 367 449
#
# _framework density 24.971467000000001
#
# number of rings (size 3 to 8) (size 9 to 14) (size 15 to 20)
#    0.000    2.286    0.000    2.143    0.000    0.571 
#    0.000   81.429    0.000   39.429    0.000    0.000 
#    0.000    0.000    0.000    0.000    0.000    0.000 
#
# Total GULP energy -78253.144511 kJ/mol
# GULP energy per Si atom -5589.510322 kJ/mol
# Density = 2.491463 g / cm^3
# Si number density = 24.971467 Si / 1000 Ang^3
#
#
#
# Elastic Constant Matrix: (Units=GPa)
#
#
# Indices 1 2 3 4 5 6 
#
# 1 223.9243 66.2642 61.9592 0.0000 0.0000 0.0000
# 2 66.2642 104.0279 60.1229 0.0000 0.0000 0.0000
# 3 61.9592 60.1229 165.4253 0.0000 0.0000 0.0000
# 4 0.0000 0.0000 0.0000 29.0484 0.0000 0.0000
# 5 0.0000 0.0000 0.0000 0.0000 35.9301 0.0000
# 6 0.0000 0.0000 0.0000 0.0000 0.0000 25.4819
#
#
#
# Elastic Compliance Matrix: (Units=1/GPa)
#
#
# Indices 1 2 3 4 5 6 
#
# 1 0.005636 -0.003000 -0.001021 0.000000 0.000000 0.000000
# 2 -0.003000 0.013766 -0.003879 0.000000 0.000000 0.000000
# 3 -0.001021 -0.003879 0.007837 0.000000 0.000000 0.000000
# 4 0.000000 0.000000 0.000000 0.034425 0.000000 0.000000
# 5 0.000000 0.000000 0.000000 0.000000 0.027832 0.000000
# 6 0.000000 0.000000 0.000000 0.000000 0.000000 0.039244
#
#
# Mechanical properties :
#
#
# Convention : Reuss Voigt Hill
#
# Bulk Modulus (GPa) = 87.42155 96.67446 92.04801
# Shear Modulus (GPa) = 33.70330 38.42748 36.06539
#
# Velocity S-wave (km/s) = 3.67777 3.92708 3.80447
# Velocity P-wave (km/s) = 7.28830 7.70459 7.49933
#
# Compressibility (1/GPa) = 0.01143883
#
# Stress axis : x y z
#
# Youngs Moduli (GPa) = 177.43056 72.64246 127.59618
#
# Poissons Ratio (x) = 0.21794 0.13021
# Poissons Ratio (y) = 0.53233 0.49501
# Poissons Ratio (z) = 0.18107 0.28181
#
# Static dielectric constant tensor:
#      x y z
#    x 2.053080 0.000000 0.000000 
#    y 0.000000 1.928710 0.000000 
#    z 0.000000 0.000000 2.066930 
# 
# From -- ./inp_files/8359.got.cif
#   From: 2010.05.17/outbox.cif.g08.bks.cpg/sg22_5_cif.got.tgz:8359.got - 2010.06.03 23:40:54.
