data_PCOD9327172
_publ_section_title
;
Structure prediction by ZEFSAII (Michael W. Deem and Ramdas Pophale) SiO2 
 PCOD9327172
Probable space group: F 2 2 2
;
_chemical_formula_sum "Si O2"
_cell_formula_units_Z 72
_cell_length_a 7.801345
_cell_length_b 16.198666
_cell_length_c 27.537437
_cell_angle_alpha 90.000000
_cell_angle_beta 90.000000
_cell_angle_gamma 90.000000
_cell_volume 3479.943971
_symmetry_space_group_name_H-M "F 2 2 2"
_symmetry_group_IT_number 22
_symmetry_cell_setting 'orthorhombic'
loop_
_space_group_symop_operation_xyz
x,y,z
-x,-y,z
x,-y,-z
-x,y,-z
x,1/2+y,1/2+z
-x,1/2-y,1/2+z
x,1/2-y,1/2-z
-x,1/2+y,1/2-z
1/2+x,y,1/2+z
1/2-x,-y,1/2+z
1/2+x,-y,1/2-z
1/2-x,y,1/2-z
1/2+x,1/2+y,z
1/2-x,1/2-y,z
1/2+x,1/2-y,-z
1/2-x,1/2+y,-z
loop_
_atom_site_type_symbol
_atom_site_label
_atom_site_fract_x
_atom_site_fract_y
_atom_site_fract_z
Si Si1 0.492971 0.702223 0.058104
Si Si2 0.250000 0.750000 0.874303
Si Si3 0.250000 0.250000 0.750000
Si Si4 0.500000 0.500000 0.661725
Si Si5 0.000000 0.500000 0.000000
Si Si6 0.089513 0.656848 0.787479
Si Si7 0.153123 0.115551 0.579553
O O1 0.663930 0.685706 0.088607
O O2 0.348165 0.643882 0.079337
O O3 0.446480 0.797819 0.070278
O O4 0.500000 0.693878 0.000000
O O5 0.120817 0.709088 0.836491
O O6 0.397586 0.313762 0.728685
O O7 0.600471 0.437851 0.696326
O O8 0.603974 0.561790 0.626309
O O9 0.886086 0.557763 0.966096
O O10 0.250000 0.668698 0.750000
#
# Coordination Sequence:
#
# PCOD9327172 Si02
#       7
#    16   8   4   8   4  16  16
#     4  11  23  40  70 101 135 195 246 289 340 436
#     4  12  23  46  71  98 150 177 239 304 342 420
#     4  12  26  48  82 102 132 196 242 292 364 450
#     4  11  26  43  70 104 146 186 219 308 371 426
#     4  10  20  40  62  92 148 178 226 312 338 402
#     4  12  27  50  73 109 142 184 243 303 364 433
#     4  10  22  40  65  98 138 186 240 281 365 417
#
# _framework density 20.689988
#
# number of rings (size 3 to 8) (size 9 to 14) (size 15 to 20)
#    0.000    0.889    5.556    1.333    4.667    0.000 
#    0.000    2.778    0.000    0.000    0.000    0.000 
#    0.000    0.000    0.000    0.000    0.000    0.000 
#
# Total GULP energy -100250.038928 kJ/mol
# GULP energy per Si atom -5569.446607 kJ/mol
# Density = 2.064290 g / cm^3
# Si number density = 20.689988 Si / 1000 Ang^3
#
#
#
# Elastic Constant Matrix: (Units=GPa)
#
#
# Indices 1 2 3 4 5 6 
#
# 1 152.8046 33.6690 71.5960 0.0000 0.0000 0.0000
# 2 33.6690 111.5933 42.8175 0.0000 0.0000 0.0000
# 3 71.5960 42.8175 140.3781 0.0000 0.0000 0.0000
# 4 0.0000 0.0000 0.0000 67.0449 0.0000 0.0000
# 5 0.0000 0.0000 0.0000 0.0000 12.3615 0.0000
# 6 0.0000 0.0000 0.0000 0.0000 0.0000 23.2673
#
#
#
# Elastic Compliance Matrix: (Units=1/GPa)
#
#
# Indices 1 2 3 4 5 6 
#
# 1 0.008706 -0.001045 -0.004121 0.000000 0.000000 0.000000
# 2 -0.001045 0.010274 -0.002601 0.000000 0.000000 0.000000
# 3 -0.004121 -0.002601 0.010019 0.000000 0.000000 0.000000
# 4 0.000000 0.000000 0.000000 0.014915 0.000000 0.000000
# 5 0.000000 0.000000 0.000000 0.000000 0.080897 0.000000
# 6 0.000000 0.000000 0.000000 0.000000 0.000000 0.042979
#
#
# Mechanical properties :
#
#
# Convention : Reuss Voigt Hill
#
# Bulk Modulus (GPa) = 74.27053 77.88233 76.07643
# Shear Modulus (GPa) = 26.62237 37.64764 32.13501
#
# Velocity S-wave (km/s) = 3.59099 4.27031 3.94530
# Velocity P-wave (km/s) = 7.29166 7.87644 7.58969
#
# Compressibility (1/GPa) = 0.01346429
#
# Stress axis : x y z
#
# Youngs Moduli (GPa) = 114.86853 97.32955 99.81247
#
# Poissons Ratio (x) = 0.10174 0.41135
# Poissons Ratio (y) = 0.12007 0.25958
# Poissons Ratio (z) = 0.47340 0.25313
#
# Static dielectric constant tensor:
#      x y z
#    x 1.762330 0.000000 0.000000 
#    y 0.000000 1.796110 0.000000 
#    z 0.000000 0.000000 1.771350 
# 
# From -- ./inp_files/51706.got.cif
#   From: 2010.05.17/outbox.cif.g08.bks.cpg/sg22_26_cif.got.tgz:51706.got - 2010.06.03 23:40:54.
