data_PCOD9327948
_publ_section_title
;
Structure prediction by ZEFSAII (Michael W. Deem and Ramdas Pophale) SiO2 
 PCOD9327948
Probable space group: F 2 2 2
;
_chemical_formula_sum "Si O2"
_cell_formula_units_Z 88
_cell_length_a 19.581366
_cell_length_b 21.492351
_cell_length_c 8.977179
_cell_angle_alpha 90.000000
_cell_angle_beta 90.000000
_cell_angle_gamma 90.000000
_cell_volume 3778.042112
_symmetry_space_group_name_H-M "F 2 2 2"
_symmetry_group_IT_number 22
_symmetry_cell_setting 'orthorhombic'
loop_
_space_group_symop_operation_xyz
x,y,z
-x,-y,z
x,-y,-z
-x,y,-z
x,1/2+y,1/2+z
-x,1/2-y,1/2+z
x,1/2-y,1/2-z
-x,1/2+y,1/2-z
1/2+x,y,1/2+z
1/2-x,-y,1/2+z
1/2+x,-y,1/2-z
1/2-x,y,1/2-z
1/2+x,1/2+y,z
1/2-x,1/2-y,z
1/2+x,1/2-y,-z
1/2-x,1/2+y,-z
loop_
_atom_site_type_symbol
_atom_site_label
_atom_site_fract_x
_atom_site_fract_y
_atom_site_fract_z
Si Si1 0.619392 0.478261 0.162026
Si Si2 0.663022 0.170274 0.058649
Si Si3 0.250000 0.405189 0.750000
Si Si4 0.880396 0.286876 0.596993
Si Si5 0.406489 0.610501 0.718226
Si Si6 0.054245 0.651398 0.318216
O O1 0.684640 0.448663 0.240337
O O2 0.590212 0.537610 0.248624
O O3 0.568937 0.420399 0.139588
O O4 0.641172 0.500000 0.000000
O O5 0.733578 0.140489 0.112767
O O6 0.611181 0.172860 0.199143
O O7 0.668522 0.237250 0.981886
O O8 0.624383 0.125510 0.941766
O O9 0.901596 0.250000 0.750000
O O10 0.857982 0.353523 0.662454
O O11 0.932343 0.306233 0.463765
O O12 0.479665 0.644366 0.744606
#
# Coordination Sequence:
#
# PCOD9327948 Si02
#       6
#    16  16   8  16  16  16
#     4  11  24  42  69  99 139 188 240 290 358 431
#     4  10  24  44  68 101 138 188 244 289 358 426
#     4  10  26  46  71  92 135 194 242 302 346 398
#     4  10  22  40  66 101 144 184 231 284 352 435
#     4  11  23  40  70 106 144 180 230 293 365 436
#     4  11  22  40  68 106 145 186 225 292 364 430
#
# _framework density 23.292487999999999
#
# number of rings (size 3 to 8) (size 9 to 14) (size 15 to 20)
#    0.000    1.455    1.818    2.182    2.545   10.182 
#    0.000   10.909    0.000    4.364    0.000    0.000 
#    0.000    0.000    0.000    0.000    0.000    0.000 
#
# Total GULP energy -122760.156488 kJ/mol
# GULP energy per Si atom -5580.007113 kJ/mol
# Density = 2.323947 g / cm^3
# Si number density = 23.292488 Si / 1000 Ang^3
#
#
#
# Elastic Constant Matrix: (Units=GPa)
#
#
# Indices 1 2 3 4 5 6 
#
# 1 55.1661 16.3913 17.8780 0.0000 0.0000 0.0000
# 2 16.3913 125.1854 22.3955 0.0000 0.0000 0.0000
# 3 17.8780 22.3955 119.0616 0.0000 0.0000 0.0000
# 4 0.0000 0.0000 0.0000 33.5104 0.0000 0.0000
# 5 0.0000 0.0000 0.0000 0.0000 28.3523 0.0000
# 6 0.0000 0.0000 0.0000 0.0000 0.0000 11.9637
#
#
#
# Elastic Compliance Matrix: (Units=1/GPa)
#
#
# Indices 1 2 3 4 5 6 
#
# 1 0.019578 -0.002108 -0.002543 0.000000 0.000000 0.000000
# 2 -0.002108 0.008493 -0.001281 0.000000 0.000000 0.000000
# 3 -0.002543 -0.001281 0.009022 0.000000 0.000000 0.000000
# 4 0.000000 0.000000 0.000000 0.029841 0.000000 0.000000
# 5 0.000000 0.000000 0.000000 0.000000 0.035271 0.000000
# 6 0.000000 0.000000 0.000000 0.000000 0.000000 0.083586
#
#
# Mechanical properties :
#
#
# Convention : Reuss Voigt Hill
#
# Bulk Modulus (GPa) = 39.63891 45.86029 42.74960
# Shear Modulus (GPa) = 24.26413 30.94851 27.60632
#
# Velocity S-wave (km/s) = 3.23106 3.64908 3.44641
# Velocity P-wave (km/s) = 5.56548 6.12258 5.85066
#
# Compressibility (1/GPa) = 0.02522774
#
# Stress axis : x y z
#
# Youngs Moduli (GPa) = 51.07842 117.73851 110.84211
#
# Poissons Ratio (x) = 0.24825 0.28189
# Poissons Ratio (y) = 0.10770 0.14199
# Poissons Ratio (z) = 0.12990 0.15082
#
# Static dielectric constant tensor:
#      x y z
#    x 1.953750 0.000000 0.000000 
#    y 0.000000 1.903610 0.000000 
#    z 0.000000 0.000000 1.902020 
# 
# From -- ./inp_files/12640.got.cif
#   From: 2010.05.17/outbox.cif.g08.bks.cpg/sg22_7_cif.got.tgz:12640.got - 2010.06.03 23:40:54.
