data_PCOD9327393
_publ_section_title
;
Structure prediction by ZEFSAII (Michael W. Deem and Ramdas Pophale) SiO2 
 PCOD9327393
Probable space group: F 2 2 2
;
_chemical_formula_sum "Si O2"
_cell_formula_units_Z 108
_cell_length_a 29.521243
_cell_length_b 6.818752
_cell_length_c 28.560105
_cell_angle_alpha 90.000000
_cell_angle_beta 90.000000
_cell_angle_gamma 90.000000
_cell_volume 5749.093009
_symmetry_space_group_name_H-M "F 2 2 2"
_symmetry_group_IT_number 22
_symmetry_cell_setting 'orthorhombic'
loop_
_space_group_symop_operation_xyz
x,y,z
-x,-y,z
x,-y,-z
-x,y,-z
x,1/2+y,1/2+z
-x,1/2-y,1/2+z
x,1/2-y,1/2-z
-x,1/2+y,1/2-z
1/2+x,y,1/2+z
1/2-x,-y,1/2+z
1/2+x,-y,1/2-z
1/2-x,y,1/2-z
1/2+x,1/2+y,z
1/2-x,1/2-y,z
1/2+x,1/2-y,-z
1/2-x,1/2+y,-z
loop_
_atom_site_type_symbol
_atom_site_label
_atom_site_fract_x
_atom_site_fract_y
_atom_site_fract_z
Si Si1 0.199024 0.828209 0.960718
Si Si2 0.633345 0.678717 0.798118
Si Si3 0.428209 0.275637 0.935316
Si Si4 0.000000 0.500000 0.500000
Si Si5 0.585181 0.996293 0.853639
Si Si6 0.050996 0.028011 0.252637
Si Si7 0.365986 0.500000 0.500000
Si Si8 0.633445 0.593708 0.119951
O O1 0.250000 0.750000 0.958601
O O2 0.178089 0.896984 0.911825
O O3 0.166538 0.645879 0.972338
O O4 0.195423 0.000000 0.000000
O O5 0.656970 0.750000 0.750000
O O6 0.584946 0.597546 0.778711
O O7 0.648593 0.501842 0.830860
O O8 0.626069 0.860930 0.833163
O O9 0.400813 0.450201 0.908949
O O10 0.440114 0.121019 0.894598
O O11 0.468037 0.368157 0.966441
O O12 0.396226 0.145059 0.968734
O O13 0.553522 0.997138 0.808164
O O14 0.606347 0.202926 0.870261
O O15 0.066696 0.250000 0.250000
O O16 0.000000 0.000000 0.235626
#
# Coordination Sequence:
#
# PCOD9327393 Si02
#       8
#    16  16  16   4  16  16   8  16
#     4  12  24  40  68 102 133 163 209 277 337 417
#     4   9  20  37  59  88 118 165 211 252 329 393
#     4  11  25  42  62  85 123 177 223 270 321 384
#     4  12  28  46  54  84 130 180 246 282 300 384
#     4  10  21  37  59  86 115 165 209 263 333 384
#     4  11  20  35  55  84 123 156 209 278 327 372
#     4  12  22  43  67  86 130 174 211 265 352 392
#     4  11  21  41  64  92 130 163 215 269 338 404
#
# _framework density 18.785571999999998
#
# number of rings (size 3 to 8) (size 9 to 14) (size 15 to 20)
#    0.000    1.185    5.185    2.222    0.000    1.481 
#    5.333    0.000    0.000    0.000    0.000   11.407 
#    0.000    0.000    0.000    0.000    0.000    0.000 
#
# Total GULP energy -150436.174125 kJ/mol
# GULP energy per Si atom -5571.710153 kJ/mol
# Density = 1.874282 g / cm^3
# Si number density = 18.785572 Si / 1000 Ang^3
#
#
#
# Elastic Constant Matrix: (Units=GPa)
#
#
# Indices 1 2 3 4 5 6 
#
# 1 67.0815 36.2046 49.7553 0.0008 0.0000 0.0005
# 2 36.2046 137.5042 60.0478 0.0001 -0.0020 0.0036
# 3 49.7553 60.0478 143.0988 0.0002 -0.0001 0.0001
# 4 0.0008 0.0001 0.0002 89.1152 -0.0016 -0.0020
# 5 0.0000 -0.0020 -0.0001 -0.0016 14.9752 -0.0004
# 6 0.0005 0.0036 0.0001 -0.0020 -0.0004 38.6787
#
#
#
# Elastic Compliance Matrix: (Units=1/GPa)
#
#
# Indices 1 2 3 4 5 6 
#
# 1 0.020969 -0.002862 -0.006090 0.000000 0.000000 0.000000
# 2 -0.002862 0.009295 -0.002905 0.000000 0.000001 -0.000001
# 3 -0.006090 -0.002905 0.010325 0.000000 0.000000 0.000000
# 4 0.000000 0.000000 0.000000 0.011221 0.000001 0.000001
# 5 0.000000 0.000001 0.000000 0.000001 0.066777 0.000001
# 6 0.000000 -0.000001 0.000000 0.000001 0.000001 0.025854
#
#
# Mechanical properties :
#
#
# Convention : Reuss Voigt Hill
#
# Bulk Modulus (GPa) = 59.26119 71.07778 65.16948
# Shear Modulus (GPa) = 28.77209 41.99893 35.38551
#
# Velocity S-wave (km/s) = 3.91782 4.73345 4.34482
# Velocity P-wave (km/s) = 7.21667 8.23362 7.74186
#
# Compressibility (1/GPa) = 0.01687445
#
# Stress axis : x y z
#
# Youngs Moduli (GPa) = 47.69011 107.58826 96.85394
#
# Poissons Ratio (x) = 0.30787 0.58984
# Poissons Ratio (y) = 0.13647 0.28139
# Poissons Ratio (z) = 0.29043 0.31258
#
# Static dielectric constant tensor:
#      x y z
#    x 1.620780 0.000000 0.000000 
#    y 0.000000 1.709290 0.000000 
#    z 0.000000 0.000000 1.701450 
# 
# From -- ./inp_files/57383.got.cif
#   From: 2010.05.17/outbox.cif.g08.bks.cpg/sg22_29_cif.got.tgz:57383.got - 2010.06.03 23:40:54.
