data_PCOD9327158
_publ_section_title
;
Structure prediction by ZEFSAII (Michael W. Deem and Ramdas Pophale) SiO2 
 PCOD9327158
Probable space group: F 2 2 2
;
_chemical_formula_sum "Si O2"
_cell_formula_units_Z 56
_cell_length_a 9.700755
_cell_length_b 15.456594
_cell_length_c 15.456626
_cell_angle_alpha 90.000000
_cell_angle_beta 90.000000
_cell_angle_gamma 90.000000
_cell_volume 2317.576264
_symmetry_space_group_name_H-M "F 2 2 2"
_symmetry_group_IT_number 22
_symmetry_cell_setting 'orthorhombic'
loop_
_space_group_symop_operation_xyz
x,y,z
-x,-y,z
x,-y,-z
-x,y,-z
x,1/2+y,1/2+z
-x,1/2-y,1/2+z
x,1/2-y,1/2-z
-x,1/2+y,1/2-z
1/2+x,y,1/2+z
1/2-x,-y,1/2+z
1/2+x,-y,1/2-z
1/2-x,y,1/2-z
1/2+x,1/2+y,z
1/2-x,1/2-y,z
1/2+x,1/2-y,-z
1/2-x,1/2+y,-z
loop_
_atom_site_type_symbol
_atom_site_label
_atom_site_fract_x
_atom_site_fract_y
_atom_site_fract_z
Si Si1 0.976730 0.371597 0.371598
Si Si2 0.000000 0.717902 0.000000
Si Si3 0.500000 0.500000 0.717903
Si Si4 0.500000 0.000000 0.500000
Si Si5 0.692258 0.616985 0.383015
Si Si6 0.250000 0.750000 0.750000
O O1 0.952209 0.279218 0.418860
O O2 0.143020 0.382613 0.382614
O O3 0.952209 0.418859 0.279219
O O4 0.911137 0.438989 0.438989
O O5 0.122626 0.655935 0.967792
O O6 0.622626 0.467793 0.655937
O O7 0.659952 0.689862 0.310138
#
# Coordination Sequence:
#
# PCOD9327158 Si02
#       6
#    16   8   8   4  16   4
#     4  10  20  40  59  90 130 178 224 283 340 407
#     4  11  22  38  66  99 132 184 232 281 350 418
#     4  11  22  38  66  99 132 184 232 281 350 418
#     4   8  20  32  60  78 116 168 220 264 348 394
#     4  12  22  39  66  97 133 180 231 288 337 421
#     4  12  20  44  72  84 138 192 232 264 368 400
#
# _framework density 24.163173
#
# number of rings (size 3 to 8) (size 9 to 14) (size 15 to 20)
#    0.000    1.143    5.714    0.000    0.000    2.857 
#    0.000    8.571    0.000    0.000    0.000   16.000 
#    0.000    0.000    0.000    0.000    0.000    0.000 
#
# Total GULP energy -77953.529188 kJ/mol
# GULP energy per Si atom -5568.109228 kJ/mol
# Density = 2.410818 g / cm^3
# Si number density = 24.163173 Si / 1000 Ang^3
#
#
#
# Elastic Constant Matrix: (Units=GPa)
#
#
# Indices 1 2 3 4 5 6 
#
# 1 86.3206 47.0825 47.0830 0.0000 0.0000 0.0000
# 2 47.0825 90.1507 59.7813 0.0000 0.0000 0.0000
# 3 47.0830 59.7813 90.1534 0.0000 0.0000 0.0000
# 4 0.0000 0.0000 0.0000 72.8682 0.0000 0.0000
# 5 0.0000 0.0000 0.0000 0.0000 34.1845 0.0000
# 6 0.0000 0.0000 0.0000 0.0000 0.0000 34.1839
#
#
#
# Elastic Compliance Matrix: (Units=1/GPa)
#
#
# Indices 1 2 3 4 5 6 
#
# 1 0.017621 -0.005534 -0.005533 0.000000 0.000000 0.000000
# 2 -0.005534 0.021536 -0.011391 0.000000 0.000000 0.000000
# 3 -0.005533 -0.011391 0.021535 0.000000 0.000000 0.000000
# 4 0.000000 0.000000 0.000000 0.013723 0.000000 0.000000
# 5 0.000000 0.000000 0.000000 0.000000 0.029253 0.000000
# 6 0.000000 0.000000 0.000000 0.000000 0.000000 0.029254
#
#
# Mechanical properties :
#
#
# Convention : Reuss Voigt Hill
#
# Bulk Modulus (GPa) = 63.38305 63.83536 63.60920
# Shear Modulus (GPa) = 27.30800 35.75918 31.53359
#
# Velocity S-wave (km/s) = 3.36542 3.85113 3.61643
# Velocity P-wave (km/s) = 6.43347 6.80079 6.61968
#
# Compressibility (1/GPa) = 0.01577709
#
# Stress axis : x y z
#
# Youngs Moduli (GPa) = 56.75035 46.43381 46.43549
#
# Poissons Ratio (x) = 0.25694 0.25694
# Poissons Ratio (y) = 0.31403 0.52893
# Poissons Ratio (z) = 0.31402 0.52892
#
# Static dielectric constant tensor:
#      x y z
#    x 1.906800 0.000000 0.000000 
#    y 0.000000 2.074680 0.000000 
#    z 0.000000 0.000000 2.074670 
# 
# From -- ./inp_files/11099.got.cif
#   From: 2010.05.17/outbox.cif.g08.bks.cpg/sg22_6_cif.got.tgz:11099.got - 2010.06.03 23:40:54.
