data_PCOD9327839
_publ_section_title
;
Structure prediction by ZEFSAII (Michael W. Deem and Ramdas Pophale) SiO2 
 PCOD9327839
Probable space group: F 2 2 2
;
_chemical_formula_sum "Si O2"
_cell_formula_units_Z 68
_cell_length_a 23.275335
_cell_length_b 9.005275
_cell_length_c 15.617891
_cell_angle_alpha 90.000000
_cell_angle_beta 90.000000
_cell_angle_gamma 90.000000
_cell_volume 3273.522329
_symmetry_space_group_name_H-M "F 2 2 2"
_symmetry_group_IT_number 22
_symmetry_cell_setting 'orthorhombic'
loop_
_space_group_symop_operation_xyz
x,y,z
-x,-y,z
x,-y,-z
-x,y,-z
x,1/2+y,1/2+z
-x,1/2-y,1/2+z
x,1/2-y,1/2-z
-x,1/2+y,1/2-z
1/2+x,y,1/2+z
1/2-x,-y,1/2+z
1/2+x,-y,1/2-z
1/2-x,y,1/2-z
1/2+x,1/2+y,z
1/2-x,1/2-y,z
1/2+x,1/2-y,-z
1/2-x,1/2+y,-z
loop_
_atom_site_type_symbol
_atom_site_label
_atom_site_fract_x
_atom_site_fract_y
_atom_site_fract_z
Si Si1 0.122513 0.086862 0.412866
Si Si2 0.250000 0.250000 0.750000
Si Si3 0.742548 0.468046 0.655157
Si Si4 0.872127 0.431456 0.591721
Si Si5 0.937022 0.428458 0.248353
O O1 0.191481 0.093698 0.400643
O O2 0.107038 0.260522 0.409024
O O3 0.108524 0.000000 0.500000
O O4 0.094954 0.996727 0.334397
O O5 0.278126 0.365501 0.683938
O O6 0.750000 0.400335 0.750000
O O7 0.803816 0.454197 0.609998
O O8 0.885410 0.500000 0.500000
O O9 0.902900 0.516841 0.668429
O O10 0.939162 0.250000 0.250000
O O11 0.000000 0.500000 0.249832
#
# Coordination Sequence:
#
# PCOD9327839 Si02
#       5
#    16   4  16  16  16
#     4  12  26  43  70 103 140 180 227 275 337 400
#     4   8  20  32  62  88 132 178 230 252 332 382
#     4  10  22  37  68  97 144 178 228 263 340 393
#     4  12  26  43  70 103 140 180 227 275 337 400
#     4  12  27  49  74  98 134 175 228 284 341 399
#
# _framework density 20.772731
#
# number of rings (size 3 to 8) (size 9 to 14) (size 15 to 20)
#    0.706    0.000    2.353    4.941    9.882    1.882 
#    0.000    4.706    0.000    0.000    0.000    0.000 
#    0.000    0.000    0.000    0.000    0.000    0.000 
#
# Total GULP energy -94894.901032 kJ/mol
# GULP energy per Si atom -5582.053002 kJ/mol
# Density = 2.072545 g / cm^3
# Si number density = 20.772731 Si / 1000 Ang^3
#
#
#
# Elastic Constant Matrix: (Units=GPa)
#
#
# Indices 1 2 3 4 5 6 
#
# 1 116.8497 45.3696 54.2522 0.0000 0.0000 0.0000
# 2 45.3696 226.5129 86.0465 0.0000 0.0000 0.0000
# 3 54.2522 86.0465 190.8772 0.0000 0.0000 0.0000
# 4 0.0000 0.0000 0.0000 110.9243 0.0000 0.0000
# 5 0.0000 0.0000 0.0000 0.0000 -123.8954 0.0000
# 6 0.0000 0.0000 0.0000 0.0000 0.0000 23.9191
#
#
#
# Elastic Compliance Matrix: (Units=1/GPa)
#
#
# Indices 1 2 3 4 5 6 
#
# 1 0.010091 -0.001124 -0.002361 0.000000 0.000000 0.000000
# 2 -0.001124 0.005452 -0.002138 0.000000 0.000000 0.000000
# 3 -0.002361 -0.002138 0.006874 0.000000 0.000000 0.000000
# 4 0.000000 0.000000 0.000000 0.009015 0.000000 0.000000
# 5 0.000000 0.000000 0.000000 0.000000 -0.008071 0.000000
# 6 0.000000 0.000000 0.000000 0.000000 0.000000 0.041808
#
#
# Mechanical properties :
#
#
# Convention : Reuss Voigt Hill
#
# Bulk Modulus (GPa) = 89.52924 100.61959 95.07441
# Shear Modulus (GPa) = 62.39146 25.42772 43.90959
#
# Velocity S-wave (km/s) = 5.48639 3.50250 4.60261
# Velocity P-wave (km/s) = 9.12836 8.05606 8.60892
#
# Compressibility (1/GPa) = 0.01116954
#
# Stress axis : x y z
#
# Youngs Moduli (GPa) = 99.10008 183.41172 145.47443
#
# Poissons Ratio (x) = 0.20618 0.34351
# Poissons Ratio (y) = 0.11140 0.31107
# Poissons Ratio (z) = 0.23401 0.39219
#
# Static dielectric constant tensor:
#      x y z
#    x 1.695340 0.000000 0.000000 
#    y 0.000000 1.849730 0.000000 
#    z 0.000000 0.000000 1.699450 
# 
# From -- ./inp_files/38569.got.cif
#   From: 2010.05.17/outbox.cif.g08.bks.cpg/sg22_20_cif.got.tgz:38569.got - 2010.06.03 23:40:54.
