data_PCOD9327972
_publ_section_title
;
Structure prediction by ZEFSAII (Michael W. Deem and Ramdas Pophale) SiO2 
 PCOD9327972
Probable space group: F 2 2 2
;
_chemical_formula_sum "Si O2"
_cell_formula_units_Z 44
_cell_length_a 33.246392
_cell_length_b 5.246799
_cell_length_c 13.601195
_cell_angle_alpha 90.000000
_cell_angle_beta 90.000000
_cell_angle_gamma 90.000000
_cell_volume 2372.553506
_symmetry_space_group_name_H-M "F 2 2 2"
_symmetry_group_IT_number 22
_symmetry_cell_setting 'orthorhombic'
loop_
_space_group_symop_operation_xyz
x,y,z
-x,-y,z
x,-y,-z
-x,y,-z
x,1/2+y,1/2+z
-x,1/2-y,1/2+z
x,1/2-y,1/2-z
-x,1/2+y,1/2-z
1/2+x,y,1/2+z
1/2-x,-y,1/2+z
1/2+x,-y,1/2-z
1/2-x,y,1/2-z
1/2+x,1/2+y,z
1/2-x,1/2-y,z
1/2+x,1/2-y,-z
1/2-x,1/2+y,-z
loop_
_atom_site_type_symbol
_atom_site_label
_atom_site_fract_x
_atom_site_fract_y
_atom_site_fract_z
Si Si1 0.250000 0.250000 0.750000
Si Si2 0.172080 0.490864 0.809330
Si Si3 0.563520 0.500000 0.000000
Si Si4 0.500000 0.500000 0.821222
Si Si5 0.881534 0.000000 0.500000
O O1 0.219466 0.417485 0.815222
O O2 0.154478 0.250000 0.750000
O O3 0.168679 0.750000 0.750000
O O4 0.147889 0.515459 0.907893
O O5 0.537019 0.491835 0.899470
O O6 0.590633 0.751551 0.995997
O O7 0.499118 0.250000 0.750000
#
# Coordination Sequence:
#
# PCOD9327972 Si02
#       5
#     4  16   8   8   8
#     4   8  22  44  58  88 128 160 226 264 282 408
#     4  10  22  41  60  89 124 165 214 262 313 364
#     4  11  26  42  63 102 131 152 225 252 291 408
#     4  11  24  45  70  94 126 179 196 249 324 358
#     4  12  24  41  65  96 129 168 201 270 319 353
#
# _framework density 18.545418000000002
#
# number of rings (size 3 to 8) (size 9 to 14) (size 15 to 20)
#    1.091    0.364    0.000    4.909    0.000   11.636 
#    6.545    0.000    0.000    0.000    0.000    0.000 
#    0.000    0.000    0.000    0.000    0.000    0.000 
#
# Total GULP energy -61323.714009 kJ/mol
# GULP energy per Si atom -5574.883092 kJ/mol
# Density = 1.850321 g / cm^3
# Si number density = 18.545418 Si / 1000 Ang^3
#
#
#
# Elastic Constant Matrix: (Units=GPa)
#
#
# Indices 1 2 3 4 5 6 
#
# 1 153.5930 89.7374 109.0198 0.0000 0.0000 -0.0001
# 2 89.7374 204.0415 101.1704 0.0002 0.0000 -0.0003
# 3 109.0198 101.1704 175.9878 0.0001 0.0000 -0.0001
# 4 0.0000 0.0002 0.0001 33.3520 0.0000 -0.0001
# 5 0.0000 0.0000 0.0000 0.0000 41.2276 0.0002
# 6 -0.0001 -0.0003 -0.0001 -0.0001 0.0002 132.3764
#
#
#
# Elastic Compliance Matrix: (Units=1/GPa)
#
#
# Indices 1 2 3 4 5 6 
#
# 1 0.012340 -0.002289 -0.006328 0.000000 0.000000 0.000000
# 2 -0.002289 0.007280 -0.002767 0.000000 0.000000 0.000000
# 3 -0.006328 -0.002767 0.011193 0.000000 0.000000 0.000000
# 4 0.000000 0.000000 0.000000 0.029983 0.000000 0.000000
# 5 0.000000 0.000000 0.000000 0.000000 0.024256 0.000000
# 6 0.000000 0.000000 0.000000 0.000000 0.000000 0.007554
#
#
# Mechanical properties :
#
#
# Convention : Reuss Voigt Hill
#
# Bulk Modulus (GPa) = 124.31617 125.94193 125.12905
# Shear Modulus (GPa) = 42.35300 56.97086 49.66193
#
# Velocity S-wave (km/s) = 4.78404 5.54854 5.18041
# Velocity P-wave (km/s) = 9.88407 10.44538 10.16860
#
# Compressibility (1/GPa) = 0.00804401
#
# Stress axis : x y z
#
# Youngs Moduli (GPa) = 81.03681 137.36968 89.34292
#
# Poissons Ratio (x) = 0.31450 0.56538
# Poissons Ratio (y) = 0.18553 0.24718
# Poissons Ratio (z) = 0.51282 0.38005
#
# Static dielectric constant tensor:
#      x y z
#    x 1.647070 0.000000 0.000000 
#    y 0.000000 1.617930 0.000000 
#    z 0.000000 0.000000 1.553620 
# 
# From -- ./inp_files/1569.got.cif
#   From: 2010.05.17/outbox.cif.g08.bks.cpg/sg22_1_cif.got.tgz:1569.got - 2010.06.03 23:40:54.
