data_PCOD9327923
_publ_section_title
;
Structure prediction by ZEFSAII (Michael W. Deem and Ramdas Pophale) SiO2 
 PCOD9327923
Probable space group: F 2 2 2
;
_chemical_formula_sum "Si O2"
_cell_formula_units_Z 100
_cell_length_a 9.623918
_cell_length_b 26.561556
_cell_length_c 20.245228
_cell_angle_alpha 90.000000
_cell_angle_beta 90.000000
_cell_angle_gamma 90.000000
_cell_volume 5175.211449
_symmetry_space_group_name_H-M "F 2 2 2"
_symmetry_group_IT_number 22
_symmetry_cell_setting 'orthorhombic'
loop_
_space_group_symop_operation_xyz
x,y,z
-x,-y,z
x,-y,-z
-x,y,-z
x,1/2+y,1/2+z
-x,1/2-y,1/2+z
x,1/2-y,1/2-z
-x,1/2+y,1/2-z
1/2+x,y,1/2+z
1/2-x,-y,1/2+z
1/2+x,-y,1/2-z
1/2-x,y,1/2-z
1/2+x,1/2+y,z
1/2-x,1/2-y,z
1/2+x,1/2-y,-z
1/2-x,1/2+y,-z
loop_
_atom_site_type_symbol
_atom_site_label
_atom_site_fract_x
_atom_site_fract_y
_atom_site_fract_z
Si Si1 0.316798 0.461328 0.612738
Si Si2 0.913928 0.305447 0.435644
Si Si3 0.564216 0.608019 0.834093
Si Si4 0.510330 0.113663 0.184397
Si Si5 0.586146 0.688013 0.565090
Si Si6 0.000000 0.500000 0.000000
Si Si7 0.734770 0.439832 0.822214
O O1 0.185878 0.425165 0.631028
O O2 0.431672 0.440767 0.663225
O O3 0.398433 0.464086 0.543371
O O4 0.273966 0.518408 0.625234
O O5 0.949792 0.341108 0.375150
O O6 0.750341 0.312733 0.449260
O O7 0.945806 0.246866 0.421296
O O8 0.000000 0.320426 0.500000
O O9 0.576014 0.622410 0.756483
O O10 0.420608 0.577558 0.835285
O O11 0.554741 0.153375 0.128457
O O12 0.344035 0.106251 0.182445
O O13 0.500000 0.672495 0.500000
O O14 0.750000 0.465026 0.750000
#
# Coordination Sequence:
#
# PCOD9327923 Si02
#       7
#    16  16  16  16  16   4  16
#     4  12  23  41  63  88 129 166 216 260 316 376
#     4  10  23  42  62  92 126 163 209 264 320 389
#     4  11  24  40  65  97 128 164 213 267 325 373
#     4  11  22  40  68  95 123 168 213 263 325 381
#     4  10  23  41  66  90 122 169 212 257 325 385
#     4  12  28  40  62  96 128 180 220 264 320 400
#     4  10  22  40  62  91 125 164 207 258 317 382
#
# _framework density 19.322882
#
# number of rings (size 3 to 8) (size 9 to 14) (size 15 to 20)
#    0.000    1.280    3.200    1.920    3.360    4.480 
#    0.000    2.400    0.000    2.880    0.000    0.000 
#    0.000    0.000    0.000    0.000    0.000    0.000 
#
# Total GULP energy -139429.787988 kJ/mol
# GULP energy per Si atom -5577.191520 kJ/mol
# Density = 1.927890 g / cm^3
# Si number density = 19.322882 Si / 1000 Ang^3
#
#
#
# Elastic Constant Matrix: (Units=GPa)
#
#
# Indices 1 2 3 4 5 6 
#
# 1 105.9577 31.6508 56.6798 0.0000 0.0000 0.0000
# 2 31.6508 69.8512 70.1522 0.0000 0.0000 0.0000
# 3 56.6798 70.1522 157.8888 0.0000 0.0000 0.0000
# 4 0.0000 0.0000 0.0000 -56.7622 0.0000 0.0000
# 5 0.0000 0.0000 0.0000 0.0000 36.8881 0.0000
# 6 0.0000 0.0000 0.0000 0.0000 0.0000 12.9720
#
#
#
# Elastic Compliance Matrix: (Units=1/GPa)
#
#
# Indices 1 2 3 4 5 6 
#
# 1 0.011830 -0.001978 -0.003368 0.000000 0.000000 0.000000
# 2 -0.001978 0.026183 -0.010923 0.000000 0.000000 0.000000
# 3 -0.003368 -0.010923 0.012396 0.000000 0.000000 0.000000
# 4 0.000000 0.000000 0.000000 -0.017617 0.000000 0.000000
# 5 0.000000 0.000000 0.000000 0.000000 0.027109 0.000000
# 6 0.000000 0.000000 0.000000 0.000000 0.000000 0.077089
#
#
# Mechanical properties :
#
#
# Convention : Reuss Voigt Hill
#
# Bulk Modulus (GPa) = 55.95832 72.29591 64.12712
# Shear Modulus (GPa) = 28.49247 10.30058 19.39652
#
# Velocity S-wave (km/s) = 3.84415 2.31135 3.17173
# Velocity P-wave (km/s) = 6.98038 6.67975 6.83172
#
# Compressibility (1/GPa) = 0.01787044
#
# Stress axis : x y z
#
# Youngs Moduli (GPa) = 84.52924 38.19306 80.67093
#
# Poissons Ratio (x) = 0.07554 0.27170
# Poissons Ratio (y) = 0.16719 0.88119
# Poissons Ratio (z) = 0.28470 0.41720
#
# Static dielectric constant tensor:
#      x y z
#    x 1.728090 0.000000 0.000000 
#    y 0.000000 1.659330 0.000000 
#    z 0.000000 0.000000 1.696480 
# 
# From -- ./inp_files/42034.got.cif
#   From: 2010.05.17/outbox.cif.g08.bks.cpg/sg22_22_cif.got.tgz:42034.got - 2010.06.03 23:40:54.
