data_PCOD9327935
_publ_section_title
;
Structure prediction by ZEFSAII (Michael W. Deem and Ramdas Pophale) SiO2 
 PCOD9327935
Probable space group: F 2 2 2
;
_chemical_formula_sum "Si O2"
_cell_formula_units_Z 88
_cell_length_a 13.878039
_cell_length_b 24.895821
_cell_length_c 12.805643
_cell_angle_alpha 90.000000
_cell_angle_beta 90.000000
_cell_angle_gamma 90.000000
_cell_volume 4424.415923
_symmetry_space_group_name_H-M "F 2 2 2"
_symmetry_group_IT_number 22
_symmetry_cell_setting 'orthorhombic'
loop_
_space_group_symop_operation_xyz
x,y,z
-x,-y,z
x,-y,-z
-x,y,-z
x,1/2+y,1/2+z
-x,1/2-y,1/2+z
x,1/2-y,1/2-z
-x,1/2+y,1/2-z
1/2+x,y,1/2+z
1/2-x,-y,1/2+z
1/2+x,-y,1/2-z
1/2-x,y,1/2-z
1/2+x,1/2+y,z
1/2-x,1/2-y,z
1/2+x,1/2-y,-z
1/2-x,1/2+y,-z
loop_
_atom_site_type_symbol
_atom_site_label
_atom_site_fract_x
_atom_site_fract_y
_atom_site_fract_z
Si Si1 0.000000 0.000000 0.823378
Si Si2 0.081570 0.093595 0.711993
Si Si3 0.575525 0.169866 0.406428
Si Si4 0.068845 0.661917 0.907528
Si Si5 0.482489 0.250000 0.250000
Si Si6 0.846324 0.000000 0.000000
Si Si7 0.262228 0.613371 0.457555
O O1 0.934436 0.966864 0.742686
O O2 0.082726 0.981425 0.905520
O O3 0.068109 0.121764 0.823563
O O4 0.177795 0.108585 0.650430
O O5 0.995014 0.114615 0.641123
O O6 0.500000 0.166444 0.500000
O O7 0.550566 0.220746 0.334684
O O8 0.681604 0.159725 0.450145
O O9 0.078332 0.706663 0.816756
O O10 0.163274 0.635075 0.955760
O O11 0.000000 0.685005 0.000000
O O12 0.783932 0.945991 0.976081
#
# Coordination Sequence:
#
# PCOD9327935 Si02
#       7
#     8  16  16  16   8   8  16
#     4  11  22  40  61  90 136 180 217 268 319 394
#     4  10  22  40  64  91 133 177 223 268 326 387
#     4  11  22  43  68  95 132 173 218 283 331 403
#     4   9  21  43  64  96 133 167 224 279 334 396
#     4  10  22  44  72  94 128 180 218 278 356 392
#     4  11  24  38  63  96 138 186 217 260 339 384
#     4  11  23  42  66  99 137 174 228 278 322 408
#
# _framework density 19.889631000000001
#
# number of rings (size 3 to 8) (size 9 to 14) (size 15 to 20)
#    0.000    1.636    1.818    2.182    2.545    0.000 
#    0.000   32.727    0.000    2.182    0.000    0.000 
#    0.000    0.000    0.000    0.000    0.000    0.000 
#
# Total GULP energy -122496.682061 kJ/mol
# GULP energy per Si atom -5568.031003 kJ/mol
# Density = 1.984436 g / cm^3
# Si number density = 19.889631 Si / 1000 Ang^3
#
#
#
# Elastic Constant Matrix: (Units=GPa)
#
#
# Indices 1 2 3 4 5 6 
#
# 1 139.2618 38.4813 75.3075 0.0000 0.0000 0.0000
# 2 38.4813 51.9735 34.2022 0.0000 0.0000 0.0000
# 3 75.3075 34.2022 123.5322 0.0000 0.0000 0.0000
# 4 0.0000 0.0000 0.0000 27.2501 0.0000 0.0000
# 5 0.0000 0.0000 0.0000 0.0000 110.2308 0.0000
# 6 0.0000 0.0000 0.0000 0.0000 0.0000 -12.3799
#
#
#
# Elastic Compliance Matrix: (Units=1/GPa)
#
#
# Indices 1 2 3 4 5 6 
#
# 1 0.011623 -0.004821 -0.005751 0.000000 0.000000 0.000000
# 2 -0.004821 0.025527 -0.004129 0.000000 0.000000 0.000000
# 3 -0.005751 -0.004129 0.012744 0.000000 0.000000 0.000000
# 4 0.000000 0.000000 0.000000 0.036697 0.000000 0.000000
# 5 0.000000 0.000000 0.000000 0.000000 0.009072 0.000000
# 6 0.000000 0.000000 0.000000 0.000000 0.000000 -0.080776
#
#
# Mechanical properties :
#
#
# Convention : Reuss Voigt Hill
#
# Bulk Modulus (GPa) = 48.79739 67.86104 58.32922
# Shear Modulus (GPa) = 97.81353 36.13862 66.97608
#
# Velocity S-wave (km/s) = 7.02032 4.26720 5.80921
# Velocity P-wave (km/s) = 9.50266 7.64667 8.62474
#
# Compressibility (1/GPa) = 0.02049290
#
# Stress axis : x y z
#
# Youngs Moduli (GPa) = 86.03951 39.17413 78.46989
#
# Poissons Ratio (x) = 0.18886 0.45124
# Poissons Ratio (y) = 0.41481 0.32397
# Poissons Ratio (z) = 0.49477 0.16173
#
# Static dielectric constant tensor:
#      x y z
#    x 1.697700 0.000000 0.000000 
#    y 0.000000 1.586370 0.000000 
#    z 0.000000 0.000000 1.745020 
# 
# From -- ./inp_files/20012.got.cif
#   From: 2010.05.17/outbox.cif.g08.bks.cpg/sg22_11_cif.got.tgz:20012.got - 2010.06.03 23:40:54.
