data_PCOD9327491
_publ_section_title
;
Structure prediction by ZEFSAII (Michael W. Deem and Ramdas Pophale) SiO2 
 PCOD9327491
Probable space group: F 2 2 2
;
_chemical_formula_sum "Si O2"
_cell_formula_units_Z 56
_cell_length_a 18.432579
_cell_length_b 8.910089
_cell_length_c 16.420650
_cell_angle_alpha 90.000000
_cell_angle_beta 90.000000
_cell_angle_gamma 90.000000
_cell_volume 2696.860550
_symmetry_space_group_name_H-M "F 2 2 2"
_symmetry_group_IT_number 22
_symmetry_cell_setting 'orthorhombic'
loop_
_space_group_symop_operation_xyz
x,y,z
-x,-y,z
x,-y,-z
-x,y,-z
x,1/2+y,1/2+z
-x,1/2-y,1/2+z
x,1/2-y,1/2-z
-x,1/2+y,1/2-z
1/2+x,y,1/2+z
1/2-x,-y,1/2+z
1/2+x,-y,1/2-z
1/2-x,y,1/2-z
1/2+x,1/2+y,z
1/2-x,1/2-y,z
1/2+x,1/2-y,-z
1/2-x,1/2+y,-z
loop_
_atom_site_type_symbol
_atom_site_label
_atom_site_fract_x
_atom_site_fract_y
_atom_site_fract_z
Si Si1 0.759348 0.923806 0.847691
Si Si2 0.000000 0.500000 0.777755
Si Si3 0.619392 0.840974 0.325449
Si Si4 0.390570 0.538929 0.591106
O O1 0.750000 0.923685 0.750000
O O2 0.750000 0.750000 0.873885
O O3 0.832556 0.021669 0.858656
O O4 0.693335 0.006563 0.891492
O O5 0.953583 0.398340 0.717412
O O6 0.937877 0.552451 0.841778
O O7 0.658108 0.750000 0.250000
O O8 0.599854 0.714953 0.390695
O O9 0.410791 0.500000 0.500000
#
# Coordination Sequence:
#
# PCOD9327491 Si02
#       4
#    16   8  16  16
#     4  11  22  37  64  99 130 176 231 275 324 406
#     4  10  21  38  66  96 129 178 224 264 325 412
#     4  10  21  40  68  95 128 181 226 270 330 407
#     4  11  24  41  67 100 138 171 219 292 343 384
#
# _framework density 20.764885
#
# number of rings (size 3 to 8) (size 9 to 14) (size 15 to 20)
#    0.000    1.429    5.714    1.286    0.000    9.143 
#    0.000    0.000    0.000    3.429    0.000    0.000 
#    0.000    0.000    0.000    0.000    0.000    0.000 
#
# Total GULP energy -78004.831877 kJ/mol
# GULP energy per Si atom -5571.773705 kJ/mol
# Density = 2.071762 g / cm^3
# Si number density = 20.764885 Si / 1000 Ang^3
#
#
#
# Elastic Constant Matrix: (Units=GPa)
#
#
# Indices 1 2 3 4 5 6 
#
# 1 122.1186 77.7923 43.6228 0.0000 0.0000 0.0000
# 2 77.7923 138.8274 67.5224 0.0000 0.0000 0.0000
# 3 43.6228 67.5224 110.8914 0.0000 0.0000 0.0000
# 4 0.0000 0.0000 0.0000 27.8066 0.0000 0.0000
# 5 0.0000 0.0000 0.0000 0.0000 13.2358 0.0000
# 6 0.0000 0.0000 0.0000 0.0000 0.0000 32.7159
#
#
#
# Elastic Compliance Matrix: (Units=1/GPa)
#
#
# Indices 1 2 3 4 5 6 
#
# 1 0.012804 -0.006713 -0.000949 0.000000 0.000000 0.000000
# 2 -0.006713 0.013754 -0.005734 0.000000 0.000000 0.000000
# 3 -0.000949 -0.005734 0.012883 0.000000 0.000000 0.000000
# 4 0.000000 0.000000 0.000000 0.035963 0.000000 0.000000
# 5 0.000000 0.000000 0.000000 0.000000 0.075553 0.000000
# 6 0.000000 0.000000 0.000000 0.000000 0.000000 0.030566
#
#
# Mechanical properties :
#
#
# Convention : Reuss Voigt Hill
#
# Bulk Modulus (GPa) = 79.06402 83.30137 81.18270
# Shear Modulus (GPa) = 23.52597 26.94498 25.23548
#
# Velocity S-wave (km/s) = 3.36961 3.60616 3.48989
# Velocity P-wave (km/s) = 7.30052 7.58569 7.44447
#
# Compressibility (1/GPa) = 0.01264798
#
# Stress axis : x y z
#
# Youngs Moduli (GPa) = 78.09850 72.70719 77.62370
#
# Poissons Ratio (x) = 0.48810 0.07369
# Poissons Ratio (y) = 0.52429 0.44509
# Poissons Ratio (z) = 0.07414 0.41689
#
# Static dielectric constant tensor:
#      x y z
#    x 1.767630 0.000000 0.000000 
#    y 0.000000 1.839700 0.000000 
#    z 0.000000 0.000000 1.754310 
# 
# From -- ./inp_files/9524.got.cif
#   From: 2010.05.17/outbox.cif.g08.bks.cpg/sg22_5_cif.got.tgz:9524.got - 2010.06.03 23:40:54.
