data_PCOD9327335
_publ_section_title
;
Structure prediction by ZEFSAII (Michael W. Deem and Ramdas Pophale) SiO2 
 PCOD9327335
Probable space group: F 2 2 2
;
_chemical_formula_sum "Si O2"
_cell_formula_units_Z 72
_cell_length_a 21.018434
_cell_length_b 18.187923
_cell_length_c 8.291993
_cell_angle_alpha 90.000000
_cell_angle_beta 90.000000
_cell_angle_gamma 90.000000
_cell_volume 3169.876842
_symmetry_space_group_name_H-M "F 2 2 2"
_symmetry_group_IT_number 22
_symmetry_cell_setting 'orthorhombic'
loop_
_space_group_symop_operation_xyz
x,y,z
-x,-y,z
x,-y,-z
-x,y,-z
x,1/2+y,1/2+z
-x,1/2-y,1/2+z
x,1/2-y,1/2-z
-x,1/2+y,1/2-z
1/2+x,y,1/2+z
1/2-x,-y,1/2+z
1/2+x,-y,1/2-z
1/2-x,y,1/2-z
1/2+x,1/2+y,z
1/2-x,1/2-y,z
1/2+x,1/2-y,-z
1/2-x,1/2+y,-z
loop_
_atom_site_type_symbol
_atom_site_label
_atom_site_fract_x
_atom_site_fract_y
_atom_site_fract_z
Si Si1 0.890481 0.250000 0.750000
Si Si2 0.191800 0.156406 0.481291
Si Si3 0.865664 0.250000 0.250000
Si Si4 0.188346 0.500000 0.000000
Si Si5 0.808418 0.434665 0.614812
Si Si6 0.569778 0.142028 0.485409
O O1 0.846559 0.187730 0.670148
O O2 0.930259 0.208837 0.884952
O O3 0.179691 0.217858 0.612926
O O4 0.164901 0.080690 0.555466
O O5 0.263837 0.134996 0.432780
O O6 0.908477 0.315874 0.323397
O O7 0.189497 0.535530 0.796339
O O8 0.773991 0.500000 0.500000
O O9 0.876029 0.415460 0.539380
O O10 0.500000 0.108572 0.500000
#
# Coordination Sequence:
#
# PCOD9327335 Si02
#       6
#     8  16   8   8  16  16
#     4  10  21  35  58  88 109 141 186 238 274 335
#     4   8  18  37  59  84 116 137 182 233 291 324
#     4  10  21  35  58  88 109 141 186 238 274 335
#     4   6  16  40  53  86 113 152 168 226 288 356
#     4   7  18  37  54  81 110 147 181 226 279 339
#     4  11  22  37  53  78 113 152 185 226 271 328
#
# _framework density 22.713818
#
# number of rings (size 3 to 8) (size 9 to 14) (size 15 to 20)
#    2.000    0.889    0.000    0.667    0.000    7.556 
#    4.000    4.444    0.000    0.000    0.000    4.667 
#    0.000    0.000    0.000    0.000    0.000    0.000 
#
# Total GULP energy -100249.496721 kJ/mol
# GULP energy per Si atom -5569.416485 kJ/mol
# Density = 2.266212 g / cm^3
# Si number density = 22.713818 Si / 1000 Ang^3
#
#
#
# Elastic Constant Matrix: (Units=GPa)
#
#
# Indices 1 2 3 4 5 6 
#
# 1 139.3480 29.1058 46.6926 0.0000 0.0000 0.0000
# 2 29.1058 90.5225 18.5235 0.0000 0.0000 0.0000
# 3 46.6926 18.5235 114.8477 0.0001 0.0000 0.0000
# 4 0.0000 0.0000 0.0001 53.0073 0.0000 0.0000
# 5 0.0000 0.0000 0.0000 0.0000 12.3156 0.0000
# 6 0.0000 0.0000 0.0000 0.0000 0.0000 28.1555
#
#
#
# Elastic Compliance Matrix: (Units=1/GPa)
#
#
# Indices 1 2 3 4 5 6 
#
# 1 0.008692 -0.002142 -0.003188 0.000000 0.000000 0.000000
# 2 -0.002142 0.011952 -0.001057 0.000000 0.000000 0.000000
# 3 -0.003188 -0.001057 0.010174 0.000000 0.000000 0.000000
# 4 0.000000 0.000000 0.000000 0.018865 0.000000 0.000000
# 5 0.000000 0.000000 0.000000 0.000000 0.081198 0.000000
# 6 0.000000 0.000000 0.000000 0.000000 0.000000 0.035517
#
#
# Mechanical properties :
#
#
# Convention : Reuss Voigt Hill
#
# Bulk Modulus (GPa) = 55.42250 59.26241 57.34245
# Shear Modulus (GPa) = 26.99969 35.38877 31.19423
#
# Velocity S-wave (km/s) = 3.45148 3.95147 3.70991
# Velocity P-wave (km/s) = 6.35114 6.85320 6.60694
#
# Compressibility (1/GPa) = 0.01804321
#
# Stress axis : x y z
#
# Youngs Moduli (GPa) = 115.04699 83.66766 98.29101
#
# Poissons Ratio (x) = 0.17925 0.31338
# Poissons Ratio (y) = 0.24647 0.10387
# Poissons Ratio (z) = 0.36681 0.08841
#
# Static dielectric constant tensor:
#      x y z
#    x 1.909520 0.000000 0.000000 
#    y 0.000000 2.009000 0.000000 
#    z 0.000000 0.000000 2.072890 
# 
# From -- ./inp_files/12506.got.cif
#   From: 2010.05.17/outbox.cif.g08.bks.cpg/sg22_7_cif.got.tgz:12506.got - 2010.06.03 23:40:54.
