data_PCOD9327907
_publ_section_title
;
Structure prediction by ZEFSAII (Michael W. Deem and Ramdas Pophale) SiO2 
 PCOD9327907
Probable space group: F 2 2 2
;
_chemical_formula_sum "Si O2"
_cell_formula_units_Z 116
_cell_length_a 30.639336
_cell_length_b 11.217470
_cell_length_c 17.702320
_cell_angle_alpha 90.000000
_cell_angle_beta 90.000000
_cell_angle_gamma 90.000000
_cell_volume 6084.213608
_symmetry_space_group_name_H-M "F 2 2 2"
_symmetry_group_IT_number 22
_symmetry_cell_setting 'orthorhombic'
loop_
_space_group_symop_operation_xyz
x,y,z
-x,-y,z
x,-y,-z
-x,y,-z
x,1/2+y,1/2+z
-x,1/2-y,1/2+z
x,1/2-y,1/2-z
-x,1/2+y,1/2-z
1/2+x,y,1/2+z
1/2-x,-y,1/2+z
1/2+x,-y,1/2-z
1/2-x,y,1/2-z
1/2+x,1/2+y,z
1/2-x,1/2-y,z
1/2+x,1/2-y,-z
1/2-x,1/2+y,-z
loop_
_atom_site_type_symbol
_atom_site_label
_atom_site_fract_x
_atom_site_fract_y
_atom_site_fract_z
Si Si1 0.663577 0.981721 0.912912
Si Si2 0.470194 0.887949 0.736443
Si Si3 0.681612 0.993281 0.411088
Si Si4 0.383223 0.808200 0.666950
Si Si5 0.302458 0.256902 0.838767
Si Si6 0.762209 0.389178 0.834976
Si Si7 0.500000 0.500000 0.500000
Si Si8 0.925891 0.412560 0.896523
O O1 0.678667 0.855426 0.882347
O O2 0.688790 0.077845 0.859478
O O3 0.611177 0.989137 0.908725
O O4 0.676125 0.000000 0.000000
O O5 0.487832 0.750000 0.750000
O O6 0.429231 0.873788 0.681050
O O7 0.448339 0.923900 0.815532
O O8 0.500000 0.000000 0.714012
O O9 0.678460 0.122604 0.373580
O O10 0.671968 0.000000 0.500000
O O11 0.652439 0.896952 0.366110
O O12 0.731253 0.953046 0.395380
O O13 0.371602 0.750000 0.750000
O O14 0.396652 0.706503 0.607286
O O15 0.312553 0.250000 0.750000
O O16 0.250000 0.250000 0.846679
O O17 0.750000 0.432766 0.750000
O O18 0.750000 0.250000 0.836736
O O19 0.466333 0.419584 0.452779
#
# Coordination Sequence:
#
# PCOD9327907 Si02
#       8
#    16  16  16  16  16  16   4  16
#     4  12  25  41  66  95 130 172 227 277 333 392
#     4   9  19  40  66  93 124 164 212 273 329 402
#     4  12  26  42  64  96 134 174 220 281 338 383
#     4   9  23  43  69  90 130 177 218 274 326 407
#     4  11  26  45  62  89 139 187 222 276 336 396
#     4  11  25  39  67  93 124 177 228 266 316 400
#     4  12  20  40  68 104 134 164 202 276 366 400
#     4  10  22  39  66  95 129 164 218 272 331 401
#
# _framework density 19.065733999999999
#
# number of rings (size 3 to 8) (size 9 to 14) (size 15 to 20)
#    0.000    1.655    2.759    2.069   13.517    0.000 
#    2.483    2.759    0.000    0.000    0.000    0.000 
#    0.000    0.000    0.000    0.000    0.000    0.000 
#
# Total GULP energy -161797.128634 kJ/mol
# GULP energy per Si atom -5579.211332 kJ/mol
# Density = 1.902234 g / cm^3
# Si number density = 19.065734 Si / 1000 Ang^3
#
#
#
# Elastic Constant Matrix: (Units=GPa)
#
#
# Indices 1 2 3 4 5 6 
#
# 1 104.8618 55.1842 43.4712 0.0000 0.0000 0.0000
# 2 55.1842 111.2184 63.4275 0.0000 0.0000 0.0000
# 3 43.4712 63.4275 110.5507 0.0000 0.0000 0.0000
# 4 0.0000 0.0000 0.0000 41.2231 0.0000 0.0000
# 5 0.0000 0.0000 0.0000 0.0000 12.0322 0.0000
# 6 0.0000 0.0000 0.0000 0.0000 0.0000 35.0085
#
#
#
# Elastic Compliance Matrix: (Units=1/GPa)
#
#
# Indices 1 2 3 4 5 6 
#
# 1 0.013237 -0.005350 -0.002136 0.000000 0.000000 0.000000
# 2 -0.005350 0.015526 -0.006804 0.000000 0.000000 0.000000
# 3 -0.002136 -0.006804 0.013789 0.000000 0.000000 0.000000
# 4 0.000000 0.000000 0.000000 0.024258 0.000000 0.000000
# 5 0.000000 0.000000 0.000000 0.000000 0.083110 0.000000
# 6 0.000000 0.000000 0.000000 0.000000 0.000000 0.028565
#
#
# Mechanical properties :
#
#
# Convention : Reuss Voigt Hill
#
# Bulk Modulus (GPa) = 71.56744 72.31073 71.93909
# Shear Modulus (GPa) = 23.61570 28.62264 26.11917
#
# Velocity S-wave (km/s) = 3.52326 3.87881 3.70530
# Velocity P-wave (km/s) = 7.36002 7.62035 7.49131
#
# Compressibility (1/GPa) = 0.01397283
#
# Stress axis : x y z
#
# Youngs Moduli (GPa) = 75.54463 64.40628 72.51969
#
# Poissons Ratio (x) = 0.34458 0.15487
# Poissons Ratio (y) = 0.40417 0.49345
# Poissons Ratio (z) = 0.16133 0.43824
#
# Static dielectric constant tensor:
#      x y z
#    x 1.496370 0.000000 0.000000 
#    y 0.000000 1.703190 0.000000 
#    z 0.000000 0.000000 1.663130 
# 
# From -- ./inp_files/40431.got.cif
#   From: 2010.05.17/outbox.cif.g08.bks.cpg/sg22_21_cif.got.tgz:40431.got - 2010.06.03 23:40:54.
