data_PCOD9327939
_publ_section_title
;
Structure prediction by ZEFSAII (Michael W. Deem and Ramdas Pophale) SiO2 
 PCOD9327939
Probable space group: F 2 2 2
;
_chemical_formula_sum "Si O2"
_cell_formula_units_Z 48
_cell_length_a 17.259837
_cell_length_b 7.590209
_cell_length_c 14.645489
_cell_angle_alpha 90.000000
_cell_angle_beta 90.000000
_cell_angle_gamma 90.000000
_cell_volume 1918.643565
_symmetry_space_group_name_H-M "F 2 2 2"
_symmetry_group_IT_number 22
_symmetry_cell_setting 'orthorhombic'
loop_
_space_group_symop_operation_xyz
x,y,z
-x,-y,z
x,-y,-z
-x,y,-z
x,1/2+y,1/2+z
-x,1/2-y,1/2+z
x,1/2-y,1/2-z
-x,1/2+y,1/2-z
1/2+x,y,1/2+z
1/2-x,-y,1/2+z
1/2+x,-y,1/2-z
1/2-x,y,1/2-z
1/2+x,1/2+y,z
1/2-x,1/2-y,z
1/2+x,1/2-y,-z
1/2-x,1/2+y,-z
loop_
_atom_site_type_symbol
_atom_site_label
_atom_site_fract_x
_atom_site_fract_y
_atom_site_fract_z
Si Si1 0.163980 0.316491 0.055823
Si Si2 0.581361 0.108323 0.398049
Si Si3 0.910845 0.979812 0.713761
O O1 0.250000 0.250000 0.071685
O O2 0.120034 0.370873 0.147388
O O3 0.169043 0.500000 0.000000
O O4 0.118601 0.173096 0.993999
O O5 0.629431 0.016988 0.314082
O O6 0.582312 0.300555 0.346290
O O7 0.500000 0.000000 0.408835
O O8 0.000000 0.000000 0.736720
#
# Coordination Sequence:
#
# PCOD9327939 Si02
#       3
#    16  16  16
#     4  10  22  40  65 101 141 181 228 284 350 420
#     4   9  19  38  67  98 130 177 232 285 344 409
#     4   9  19  39  66  98 135 174 228 291 341 406
#
# _framework density 25.017675000000001
#
# number of rings (size 3 to 8) (size 9 to 14) (size 15 to 20)
#    0.000    2.667    0.000    0.000    0.000    8.667 
#    0.000   15.000    0.000   16.000    0.000   28.000 
#    0.000    0.000    0.000    0.000    0.000    0.000 
#
# Total GULP energy -66817.556212 kJ/mol
# GULP energy per Si atom -5568.129684 kJ/mol
# Density = 2.496073 g / cm^3
# Si number density = 25.017675 Si / 1000 Ang^3
#
#
#
# Elastic Constant Matrix: (Units=GPa)
#
#
# Indices 1 2 3 4 5 6 
#
# 1 123.1175 59.5726 94.8778 0.0000 0.0000 0.0000
# 2 59.5726 194.4358 58.7924 0.0000 0.0000 0.0000
# 3 94.8778 58.7924 259.7706 0.0000 0.0000 0.0000
# 4 0.0000 0.0000 0.0000 -27.6766 0.0000 0.0000
# 5 0.0000 0.0000 0.0000 0.0000 -92.3332 0.0000
# 6 0.0000 0.0000 0.0000 0.0000 0.0000 48.7958
#
#
#
# Elastic Compliance Matrix: (Units=1/GPa)
#
#
# Indices 1 2 3 4 5 6 
#
# 1 0.012430 -0.002615 -0.003948 0.000000 0.000000 0.000000
# 2 -0.002615 0.006071 -0.000419 0.000000 0.000000 0.000000
# 3 -0.003948 -0.000419 0.005386 0.000000 0.000000 0.000000
# 4 0.000000 0.000000 0.000000 -0.036132 0.000000 0.000000
# 5 0.000000 0.000000 0.000000 0.000000 -0.010830 0.000000
# 6 0.000000 0.000000 0.000000 0.000000 0.000000 0.020494
#
#
# Mechanical properties :
#
#
# Convention : Reuss Voigt Hill
#
# Bulk Modulus (GPa) = 100.76862 111.53438 106.15150
# Shear Modulus (GPa) = 340.35958 10.02927 175.19442
#
# Velocity S-wave (km/s) = 11.67660 2.00439 8.37737
# Velocity P-wave (km/s) = 14.90493 7.07360 11.66604
#
# Compressibility (1/GPa) = 0.00992372
#
# Stress axis : x y z
#
# Youngs Moduli (GPa) = 80.45064 164.72122 185.65278
#
# Poissons Ratio (x) = 0.43067 0.73298
# Poissons Ratio (y) = 0.21034 0.07780
# Poissons Ratio (z) = 0.31763 0.06903
#
# Static dielectric constant tensor:
#      x y z
#    x 1.892710 0.000000 0.000000 
#    y 0.000000 2.144660 0.000000 
#    z 0.000000 0.000000 2.216830 
# 
# From -- ./inp_files/9097.got.cif
#   From: 2010.05.17/outbox.cif.g08.bks.cpg/sg22_5_cif.got.tgz:9097.got - 2010.06.03 23:40:54.
