data_PCOD9327075
_publ_section_title
;
Structure prediction by ZEFSAII (Michael W. Deem and Ramdas Pophale) SiO2 
 PCOD9327075
Probable space group: F 2 2 2
;
_chemical_formula_sum "Si O2"
_cell_formula_units_Z 104
_cell_length_a 21.127767
_cell_length_b 14.592715
_cell_length_c 17.518622
_cell_angle_alpha 90.000000
_cell_angle_beta 90.000000
_cell_angle_gamma 90.000000
_cell_volume 5401.192319
_symmetry_space_group_name_H-M "F 2 2 2"
_symmetry_group_IT_number 22
_symmetry_cell_setting 'orthorhombic'
loop_
_space_group_symop_operation_xyz
x,y,z
-x,-y,z
x,-y,-z
-x,y,-z
x,1/2+y,1/2+z
-x,1/2-y,1/2+z
x,1/2-y,1/2-z
-x,1/2+y,1/2-z
1/2+x,y,1/2+z
1/2-x,-y,1/2+z
1/2+x,-y,1/2-z
1/2-x,y,1/2-z
1/2+x,1/2+y,z
1/2-x,1/2-y,z
1/2+x,1/2-y,-z
1/2-x,1/2+y,-z
loop_
_atom_site_type_symbol
_atom_site_label
_atom_site_fract_x
_atom_site_fract_y
_atom_site_fract_z
Si Si1 0.128694 0.544326 0.806593
Si Si2 0.250000 0.536941 0.250000
Si Si3 0.925928 0.342955 0.181320
Si Si4 0.203646 0.331795 0.882754
Si Si5 0.979101 0.394665 0.700060
Si Si6 0.470963 0.250439 0.075189
Si Si7 0.629729 0.097392 0.971490
O O1 0.185846 0.522037 0.749268
O O2 0.092834 0.449989 0.828012
O O3 0.074630 0.603053 0.765567
O O4 0.156202 0.581413 0.886040
O O5 0.239385 0.599131 0.174903
O O6 0.858487 0.297086 0.163892
O O7 0.959187 0.344745 0.264001
O O8 0.976545 0.309565 0.119828
O O9 0.250000 0.250000 0.901033
O O10 0.178144 0.375770 0.961368
O O11 0.953246 0.332413 0.632047
O O12 0.000000 0.500000 0.682305
O O13 0.418953 0.179629 0.044082
O O14 0.500000 0.295119 0.000000
O O15 0.600920 0.000000 0.000000
#
# Coordination Sequence:
#
# PCOD9327075 Si02
#       7
#    16   8  16  16  16  16  16
#     4  10  21  40  66  95 126 172 217 272 337 401
#     4  10  21  40  64  89 122 168 220 264 327 406
#     4  10  20  38  65  97 123 164 219 277 331 397
#     4  11  24  41  62  93 128 173 215 275 335 404
#     4  10  23  40  65  95 134 172 221 275 342 415
#     4  12  23  38  65  97 132 170 215 277 346 396
#     4  12  22  42  66  95 132 164 224 285 339 395
#
# _framework density 19.255008
#
# number of rings (size 3 to 8) (size 9 to 14) (size 15 to 20)
#    0.000    1.231    6.154    0.692    0.000    8.000 
#    2.769    0.000    0.000    0.000    0.000    0.000 
#    0.000    0.000    0.000    0.000    0.000    0.000 
#
# Total GULP energy -144907.999707 kJ/mol
# GULP energy per Si atom -5573.384604 kJ/mol
# Density = 1.921118 g / cm^3
# Si number density = 19.255008 Si / 1000 Ang^3
#
#
#
# Elastic Constant Matrix: (Units=GPa)
#
#
# Indices 1 2 3 4 5 6 
#
# 1 78.6091 40.1376 52.3886 0.0000 0.0000 0.0000
# 2 40.1376 81.4993 48.8547 0.0000 0.0000 0.0000
# 3 52.3886 48.8547 138.6669 0.0000 0.0000 0.0000
# 4 0.0000 0.0000 0.0000 35.8898 0.0000 0.0000
# 5 0.0000 0.0000 0.0000 0.0000 38.3269 0.0000
# 6 0.0000 0.0000 0.0000 0.0000 0.0000 28.6108
#
#
#
# Elastic Compliance Matrix: (Units=1/GPa)
#
#
# Indices 1 2 3 4 5 6 
#
# 1 0.019416 -0.006548 -0.005028 0.000000 0.000000 0.000000
# 2 -0.006548 0.017763 -0.003785 0.000000 0.000000 0.000000
# 3 -0.005028 -0.003785 0.010445 0.000000 0.000000 0.000000
# 4 0.000000 0.000000 0.000000 0.027863 0.000000 0.000000
# 5 0.000000 0.000000 0.000000 0.000000 0.026091 0.000000
# 6 0.000000 0.000000 0.000000 0.000000 0.000000 0.034952
#
#
# Mechanical properties :
#
#
# Convention : Reuss Voigt Hill
#
# Bulk Modulus (GPa) = 59.16386 64.61524 61.88955
# Shear Modulus (GPa) = 28.92091 31.05845 29.98968
#
# Velocity S-wave (km/s) = 3.87976 4.02058 3.95080
# Velocity P-wave (km/s) = 7.13185 7.42859 7.28173
#
# Compressibility (1/GPa) = 0.01690221
#
# Stress axis : x y z
#
# Youngs Moduli (GPa) = 51.50516 56.29551 95.74297
#
# Poissons Ratio (x) = 0.36861 0.48143
# Poissons Ratio (y) = 0.33724 0.36235
# Poissons Ratio (z) = 0.25899 0.21306
#
# Static dielectric constant tensor:
#      x y z
#    x 1.683630 0.000000 0.000000 
#    y 0.000000 1.724310 0.000000 
#    z 0.000000 0.000000 1.703610 
# 
# From -- ./inp_files/38932.got.cif
#   From: 2010.05.17/outbox.cif.g08.bks.cpg/sg22_20_cif.got.tgz:38932.got - 2010.06.03 23:40:54.
