data_PCOD9327714
_publ_section_title
;
Structure prediction by ZEFSAII (Michael W. Deem and Ramdas Pophale) SiO2 
 PCOD9327714
Probable space group: F 2 2 2
;
_chemical_formula_sum "Si O2"
_cell_formula_units_Z 60
_cell_length_a 4.959910
_cell_length_b 24.810601
_cell_length_c 20.493222
_cell_angle_alpha 90.000000
_cell_angle_beta 90.000000
_cell_angle_gamma 90.000000
_cell_volume 2521.862045
_symmetry_space_group_name_H-M "F 2 2 2"
_symmetry_group_IT_number 22
_symmetry_cell_setting 'orthorhombic'
loop_
_space_group_symop_operation_xyz
x,y,z
-x,-y,z
x,-y,-z
-x,y,-z
x,1/2+y,1/2+z
-x,1/2-y,1/2+z
x,1/2-y,1/2-z
-x,1/2+y,1/2-z
1/2+x,y,1/2+z
1/2-x,-y,1/2+z
1/2+x,-y,1/2-z
1/2-x,y,1/2-z
1/2+x,1/2+y,z
1/2-x,1/2-y,z
1/2+x,1/2-y,-z
1/2-x,1/2+y,-z
loop_
_atom_site_type_symbol
_atom_site_label
_atom_site_fract_x
_atom_site_fract_y
_atom_site_fract_z
Si Si1 0.750000 0.539853 0.750000
Si Si2 0.591015 0.696380 0.361671
Si Si3 0.750000 0.750000 0.750000
Si Si4 0.078335 0.349834 0.570683
Si Si5 0.251923 0.039641 0.892870
O O1 0.500000 0.500000 0.754776
O O2 0.718809 0.567204 0.679738
O O3 0.750000 0.750000 0.381444
O O4 0.451940 0.711863 0.292145
O O5 0.329898 0.683398 0.403323
O O6 0.824586 0.652252 0.378332
O O7 0.191062 0.410455 0.561480
O O8 0.000000 0.328914 0.500000
O O9 0.500000 0.000000 0.906076
O O10 0.000000 0.000000 0.892655
#
# Coordination Sequence:
#
# PCOD9327714 Si02
#       5
#     8  16   4  16  16
#     4   8  16  33  58  90 127 170 229 282 349 416
#     4  12  26  50  76 106 151 190 246 328 381 466
#     4  12  26  54  78 112 150 184 262 306 428 456
#     4  12  27  46  72 114 150 204 261 300 378 463
#     4  10  21  42  69 102 146 193 243 304 365 434
#
# _framework density 23.791943
#
# number of rings (size 3 to 8) (size 9 to 14) (size 15 to 20)
#    0.000    1.067    2.667    2.800    0.000    3.733 
#    2.400    6.667    0.000    0.000    0.000    0.000 
#    0.000    0.000    0.000    0.000    0.000    0.000 
#
# Total GULP energy -83739.281364 kJ/mol
# GULP energy per Si atom -5582.618758 kJ/mol
# Density = 2.373779 g / cm^3
# Si number density = 23.791943 Si / 1000 Ang^3
#
#
#
# Elastic Constant Matrix: (Units=GPa)
#
#
# Indices 1 2 3 4 5 6 
#
# 1 235.3859 47.8432 66.2607 0.0000 0.0000 0.0000
# 2 47.8432 66.8288 38.4532 0.0000 0.0000 0.0000
# 3 66.2607 38.4532 83.0851 0.0000 0.0000 0.0000
# 4 0.0000 0.0000 0.0000 36.9459 0.0000 0.0000
# 5 0.0000 0.0000 0.0000 0.0000 31.8663 0.0000
# 6 0.0000 0.0000 0.0000 0.0000 0.0000 45.7702
#
#
#
# Elastic Compliance Matrix: (Units=1/GPa)
#
#
# Indices 1 2 3 4 5 6 
#
# 1 0.005665 -0.001984 -0.003599 0.000000 0.000000 0.000000
# 2 -0.001984 0.021090 -0.008178 0.000000 0.000000 0.000000
# 3 -0.003599 -0.008178 0.018691 0.000000 0.000000 0.000000
# 4 0.000000 0.000000 0.000000 0.027067 0.000000 0.000000
# 5 0.000000 0.000000 0.000000 0.000000 0.031381 0.000000
# 6 0.000000 0.000000 0.000000 0.000000 0.000000 0.021848
#
#
# Mechanical properties :
#
#
# Convention : Reuss Voigt Hill
#
# Bulk Modulus (GPa) = 55.79656 76.71268 66.25462
# Shear Modulus (GPa) = 31.39908 38.43267 34.91587
#
# Velocity S-wave (km/s) = 3.63676 4.02352 3.83502
# Velocity P-wave (km/s) = 6.41385 7.34153 6.89331
#
# Compressibility (1/GPa) = 0.01792225
#
# Stress axis : x y z
#
# Youngs Moduli (GPa) = 176.52560 47.41576 53.50071
#
# Poissons Ratio (x) = 0.09410 0.19257
# Poissons Ratio (y) = 0.35031 0.43754
# Poissons Ratio (z) = 0.63537 0.38778
#
# Static dielectric constant tensor:
#      x y z
#    x 1.863060 0.000000 0.000000 
#    y 0.000000 1.883540 0.000000 
#    z 0.000000 0.000000 2.052950 
# 
# From -- ./inp_files/40895.got.cif
#   From: 2010.05.17/outbox.cif.g08.bks.cpg/sg22_21_cif.got.tgz:40895.got - 2010.06.03 23:40:54.
