data_PCOD9327931
_publ_section_title
;
Structure prediction by ZEFSAII (Michael W. Deem and Ramdas Pophale) SiO2 
 PCOD9327931
Probable space group: F 2 2 2
;
_chemical_formula_sum "Si O2"
_cell_formula_units_Z 52
_cell_length_a 24.517562
_cell_length_b 18.392947
_cell_length_c 4.972490
_cell_angle_alpha 90.000000
_cell_angle_beta 90.000000
_cell_angle_gamma 90.000000
_cell_volume 2242.345452
_symmetry_space_group_name_H-M "F 2 2 2"
_symmetry_group_IT_number 22
_symmetry_cell_setting 'orthorhombic'
loop_
_space_group_symop_operation_xyz
x,y,z
-x,-y,z
x,-y,-z
-x,y,-z
x,1/2+y,1/2+z
-x,1/2-y,1/2+z
x,1/2-y,1/2-z
-x,1/2+y,1/2-z
1/2+x,y,1/2+z
1/2-x,-y,1/2+z
1/2+x,-y,1/2-z
1/2-x,y,1/2-z
1/2+x,1/2+y,z
1/2-x,1/2-y,z
1/2+x,1/2-y,-z
1/2-x,1/2+y,-z
loop_
_atom_site_type_symbol
_atom_site_label
_atom_site_fract_x
_atom_site_fract_y
_atom_site_fract_z
Si Si1 0.750000 0.750000 0.250000
Si Si2 0.558870 0.821200 0.107679
Si Si3 0.785903 0.108626 0.990475
Si Si4 0.411989 0.417705 0.919468
O O1 0.785662 0.695102 0.425818
O O2 0.586680 0.750000 0.250000
O O3 0.555098 0.872611 0.362101
O O4 0.500000 0.797148 0.000000
O O5 0.582565 0.873554 0.866615
O O6 0.750000 0.097393 0.250000
O O7 0.847376 0.084376 0.015759
O O8 0.750000 0.075251 0.750000
O O9 0.428507 0.500000 0.000000
#
# Coordination Sequence:
#
# PCOD9327931 Si02
#       4
#     4  16  16  16
#     4   8  22  36  62  96 130 184 236 280 362 388
#     4  12  27  49  74 106 142 188 253 314 372 442
#     4  10  22  40  64 100 144 184 245 290 362 432
#     4  12  27  45  73 110 148 197 242 302 386 450
#
# _framework density 23.190004999999999
#
# number of rings (size 3 to 8) (size 9 to 14) (size 15 to 20)
#    0.923    0.000    0.000    6.923    2.154    7.385 
#    0.000    0.000    0.000    0.000    0.000    0.000 
#    0.000    0.000    0.000    0.000    0.000    0.000 
#
# Total GULP energy -72404.776966 kJ/mol
# GULP energy per Si atom -5569.598228 kJ/mol
# Density = 2.313722 g / cm^3
# Si number density = 23.190005 Si / 1000 Ang^3
#
#
#
# Elastic Constant Matrix: (Units=GPa)
#
#
# Indices 1 2 3 4 5 6 
#
# 1 95.3129 6.4607 49.0841 0.0006 -0.0007 -0.0007
# 2 6.4607 211.1683 65.5221 -0.0014 -0.0005 -0.0017
# 3 49.0841 65.5221 203.1680 -0.0130 -0.0032 -0.0067
# 4 0.0006 -0.0014 -0.0130 16.8824 0.0008 0.0006
# 5 -0.0007 -0.0005 -0.0032 0.0008 30.9518 0.0013
# 6 -0.0007 -0.0017 -0.0067 0.0006 0.0013 25.8851
#
#
#
# Elastic Compliance Matrix: (Units=1/GPa)
#
#
# Indices 1 2 3 4 5 6 
#
# 1 0.012049 0.000594 -0.003103 -0.000003 0.000000 0.000000
# 2 0.000594 0.005291 -0.001850 -0.000001 0.000000 0.000000
# 3 -0.003103 -0.001850 0.006268 0.000005 0.000001 0.000001
# 4 -0.000003 -0.000001 0.000005 0.059233 -0.000002 -0.000001
# 5 0.000000 0.000000 0.000001 -0.000002 0.032308 -0.000002
# 6 0.000000 0.000000 0.000001 -0.000001 -0.000002 0.038632
#
#
# Mechanical properties :
#
#
# Convention : Reuss Voigt Hill
#
# Bulk Modulus (GPa) = 67.15117 83.53145 75.34131
# Shear Modulus (GPa) = 29.85718 40.64933 35.25325
#
# Velocity S-wave (km/s) = 3.59207 4.19128 3.90319
# Velocity P-wave (km/s) = 6.79881 7.71499 7.27134
#
# Compressibility (1/GPa) = 0.01489177
#
# Stress axis : x y z
#
# Youngs Moduli (GPa) = 82.99254 188.98544 159.53449
#
# Poissons Ratio (x) = -0.11227 0.49497
# Poissons Ratio (y) = -0.04930 0.29514
# Poissons Ratio (z) = 0.25749 0.34962
#
# Static dielectric constant tensor:
#      x y z
#    x 1.826290 0.000000 0.000000 
#    y 0.000000 2.095040 -0.000010 
#    z 0.000000 -0.000010 1.858030 
# 
# From -- ./inp_files/5197.got.cif
#   From: 2010.05.17/outbox.cif.g08.bks.cpg/sg22_3_cif.got.tgz:5197.got - 2010.06.03 23:40:54.
