data_PCOD9327817
_publ_section_title
;
Structure prediction by ZEFSAII (Michael W. Deem and Ramdas Pophale) SiO2 
 PCOD9327817
Probable space group: F 2 2 2
;
_chemical_formula_sum "Si O2"
_cell_formula_units_Z 112
_cell_length_a 15.611571
_cell_length_b 29.177731
_cell_length_c 15.429755
_cell_angle_alpha 90.000000
_cell_angle_beta 90.000000
_cell_angle_gamma 90.000000
_cell_volume 7028.411081
_symmetry_space_group_name_H-M "F 2 2 2"
_symmetry_group_IT_number 22
_symmetry_cell_setting 'orthorhombic'
loop_
_space_group_symop_operation_xyz
x,y,z
-x,-y,z
x,-y,-z
-x,y,-z
x,1/2+y,1/2+z
-x,1/2-y,1/2+z
x,1/2-y,1/2-z
-x,1/2+y,1/2-z
1/2+x,y,1/2+z
1/2-x,-y,1/2+z
1/2+x,-y,1/2-z
1/2-x,y,1/2-z
1/2+x,1/2+y,z
1/2-x,1/2-y,z
1/2+x,1/2-y,-z
1/2-x,1/2+y,-z
loop_
_atom_site_type_symbol
_atom_site_label
_atom_site_fract_x
_atom_site_fract_y
_atom_site_fract_z
Si Si1 0.526476 0.065052 0.400992
Si Si2 0.176768 0.477260 0.125832
Si Si3 0.902473 0.935170 0.527272
Si Si4 0.627480 0.977486 0.325512
Si Si5 0.347485 0.351135 0.640711
Si Si6 0.853797 0.249952 0.350454
Si Si7 0.642984 0.351133 0.149897
O O1 0.500000 0.056322 0.500000
O O2 0.436058 0.063562 0.350966
O O3 0.582496 0.110492 0.390381
O O4 0.582229 0.023752 0.359973
O O5 0.139006 0.523394 0.082569
O O6 0.279105 0.476748 0.131923
O O7 0.140335 0.476523 0.222651
O O8 0.147880 0.435958 0.063785
O O9 0.892931 0.889923 0.584677
O O10 0.000000 0.944162 0.500000
O O11 0.375699 0.299834 0.612113
O O12 0.363944 0.354190 0.744649
O O13 0.244397 0.357431 0.630470
O O14 0.881035 0.250000 0.250000
O O15 0.750000 0.250000 0.350166
O O16 0.880849 0.299941 0.383081
#
# Coordination Sequence:
#
# PCOD9327817 Si02
#       7
#    16  16  16  16  16  16  16
#     4  11  23  31  51  75 101 130 168 210 252 296
#     4  10  22  37  52  67  95 137 172 207 249 295
#     4  11  23  31  51  75 101 130 168 210 252 296
#     4  10  22  37  52  67  95 137 172 207 249 295
#     4   9  17  31  53  77 103 133 164 205 254 303
#     4   7  12  26  49  76 100 128 163 199 250 300
#     4   9  17  31  53  77 103 133 164 205 254 303
#
# _framework density 15.935321999999999
#
# number of rings (size 3 to 8) (size 9 to 14) (size 15 to 20)
#    0.000    2.429    0.000    5.143   12.000    2.286 
#    0.000    0.714    0.000    0.000    0.000    0.000 
#    0.000    0.000    0.000    0.000    0.000    0.000 
#
# Total GULP energy -155887.159802 kJ/mol
# GULP energy per Si atom -5567.398564 kJ/mol
# Density = 1.589905 g / cm^3
# Si number density = 15.935322 Si / 1000 Ang^3
#
#
#
# Elastic Constant Matrix: (Units=GPa)
#
#
# Indices 1 2 3 4 5 6 
#
# 1 81.9581 25.1211 45.5529 0.0000 0.0000 0.0000
# 2 25.1211 85.7480 18.0262 0.0000 0.0000 0.0000
# 3 45.5529 18.0262 57.3872 0.0000 0.0000 0.0000
# 4 0.0000 0.0000 0.0000 20.1085 0.0000 0.0000
# 5 0.0000 0.0000 0.0000 0.0000 15.6814 0.0000
# 6 0.0000 0.0000 0.0000 0.0000 0.0000 22.4305
#
#
#
# Elastic Compliance Matrix: (Units=1/GPa)
#
#
# Indices 1 2 3 4 5 6 
#
# 1 0.022553 -0.003045 -0.016946 0.000000 0.000000 0.000000
# 2 -0.003045 0.012898 -0.001634 0.000000 0.000000 0.000000
# 3 -0.016946 -0.001634 0.031390 0.000000 0.000000 0.000000
# 4 0.000000 0.000000 0.000000 0.049730 0.000000 0.000000
# 5 0.000000 0.000000 0.000000 0.000000 0.063770 0.000000
# 6 0.000000 0.000000 0.000000 0.000000 0.000000 0.044582
#
#
# Mechanical properties :
#
#
# Convention : Reuss Voigt Hill
#
# Bulk Modulus (GPa) = 42.38939 44.72155 43.55547
# Shear Modulus (GPa) = 18.11346 20.73695 19.42521
#
# Velocity S-wave (km/s) = 3.37514 3.61129 3.49521
# Velocity P-wave (km/s) = 6.46895 6.74640 6.60913
#
# Compressibility (1/GPa) = 0.02359081
#
# Stress axis : x y z
#
# Youngs Moduli (GPa) = 44.33929 77.53317 31.85695
#
# Poissons Ratio (x) = 0.23608 0.53985
# Poissons Ratio (y) = 0.13501 0.05207
# Poissons Ratio (z) = 0.75137 0.12672
#
# Static dielectric constant tensor:
#      x y z
#    x 1.542530 0.000000 0.000000 
#    y 0.000000 1.570450 0.000000 
#    z 0.000000 0.000000 1.549360 
# 
# From -- ./inp_files/29834.got.cif
#   From: 2010.05.17/outbox.cif.g08.bks.cpg/sg22_15_cif.got.tgz:29834.got - 2010.06.03 23:40:54.
