data_PCOD9327532
_publ_section_title
;
Structure prediction by ZEFSAII (Michael W. Deem and Ramdas Pophale) SiO2 
 PCOD9327532
Probable space group: F 2 2 2
;
_chemical_formula_sum "Si O2"
_cell_formula_units_Z 104
_cell_length_a 22.981293
_cell_length_b 15.398391
_cell_length_c 15.139778
_cell_angle_alpha 90.000000
_cell_angle_beta 90.000000
_cell_angle_gamma 90.000000
_cell_volume 5357.587960
_symmetry_space_group_name_H-M "F 2 2 2"
_symmetry_group_IT_number 22
_symmetry_cell_setting 'orthorhombic'
loop_
_space_group_symop_operation_xyz
x,y,z
-x,-y,z
x,-y,-z
-x,y,-z
x,1/2+y,1/2+z
-x,1/2-y,1/2+z
x,1/2-y,1/2-z
-x,1/2+y,1/2-z
1/2+x,y,1/2+z
1/2-x,-y,1/2+z
1/2+x,-y,1/2-z
1/2-x,y,1/2-z
1/2+x,1/2+y,z
1/2-x,1/2-y,z
1/2+x,1/2-y,-z
1/2-x,1/2+y,-z
loop_
_atom_site_type_symbol
_atom_site_label
_atom_site_fract_x
_atom_site_fract_y
_atom_site_fract_z
Si Si1 0.931211 0.265725 0.412745
Si Si2 0.380335 0.064687 0.659161
Si Si3 0.940604 0.275212 0.879730
Si Si4 0.750000 0.906662 0.250000
Si Si5 0.825889 0.174444 0.315679
Si Si6 0.616669 0.375545 0.764376
Si Si7 0.255917 0.458452 0.908009
O O1 0.925071 0.367569 0.385351
O O2 0.931741 0.243868 0.516639
O O3 0.875149 0.218370 0.374265
O O4 0.989768 0.227996 0.369088
O O5 0.355366 0.105410 0.749870
O O6 0.324831 0.059938 0.593754
O O7 0.397095 0.967998 0.689675
O O8 0.912061 0.359381 0.832390
O O9 0.911099 0.196304 0.827549
O O10 0.686819 0.861954 0.258352
O O11 0.754822 0.968969 0.334271
O O12 0.806109 0.250000 0.250000
O O13 0.778238 0.126671 0.375335
O O14 0.237230 0.500000 0.000000
#
# Coordination Sequence:
#
# PCOD9327532 Si02
#       7
#    16  16  16   8  16  16  16
#     4  10  24  41  62  93 128 161 225 261 319 377
#     4  10  22  40  64  92 125 166 207 268 310 394
#     4  10  24  43  60  89 128 170 209 280 302 386
#     4  10  22  43  59  98 130 164 212 276 309 417
#     4  10  21  39  64  90 128 165 205 265 321 386
#     4  10  22  41  68  86 130 166 215 255 344 368
#     4  11  22  38  65  95 132 166 211 265 327 386
#
# _framework density 19.411721
#
# number of rings (size 3 to 8) (size 9 to 14) (size 15 to 20)
#    0.000    1.846    3.077    0.000   12.923    6.154 
#    0.000    3.077    0.000    1.846    0.000    0.000 
#    0.000    0.000    0.000    0.000    0.000    0.000 
#
# Total GULP energy -144980.517729 kJ/mol
# GULP energy per Si atom -5576.173759 kJ/mol
# Density = 1.936754 g / cm^3
# Si number density = 19.411721 Si / 1000 Ang^3
#
#
#
# Elastic Constant Matrix: (Units=GPa)
#
#
# Indices 1 2 3 4 5 6 
#
# 1 111.3938 48.4130 52.0122 0.0000 0.0000 0.0000
# 2 48.4130 97.1499 37.3668 0.0000 0.0000 0.0000
# 3 52.0122 37.3668 114.6314 0.0000 0.0000 0.0000
# 4 0.0000 0.0000 0.0000 -6.0935 0.0000 0.0000
# 5 0.0000 0.0000 0.0000 0.0000 4.8132 0.0000
# 6 0.0000 0.0000 0.0000 0.0000 0.0000 71.3571
#
#
#
# Elastic Compliance Matrix: (Units=1/GPa)
#
#
# Indices 1 2 3 4 5 6 
#
# 1 0.013132 -0.004862 -0.004374 0.000000 0.000000 0.000000
# 2 -0.004862 0.013569 -0.002217 0.000000 0.000000 0.000000
# 3 -0.004374 -0.002217 0.011431 0.000000 0.000000 0.000000
# 4 0.000000 0.000000 0.000000 -0.164109 0.000000 0.000000
# 5 0.000000 0.000000 0.000000 0.000000 0.207762 0.000000
# 6 0.000000 0.000000 0.000000 0.000000 0.000000 0.014014
#
#
# Mechanical properties :
#
#
# Convention : Reuss Voigt Hill
#
# Bulk Modulus (GPa) = 65.67455 66.52880 66.10168
# Shear Modulus (GPa) = 40.39406 26.37423 33.38415
#
# Velocity S-wave (km/s) = 4.56665 3.69002 4.15154
# Velocity P-wave (km/s) = 7.85567 7.24582 7.55690
#
# Compressibility (1/GPa) = 0.01522660
#
# Stress axis : x y z
#
# Youngs Moduli (GPa) = 76.14710 73.69718 87.48258
#
# Poissons Ratio (x) = 0.35832 0.38263
# Poissons Ratio (y) = 0.37023 0.19395
# Poissons Ratio (z) = 0.33305 0.16339
#
# Static dielectric constant tensor:
#      x y z
#    x 1.719710 0.000000 0.000000 
#    y 0.000000 1.715300 0.000000 
#    z 0.000000 0.000000 1.655980 
# 
# From -- ./inp_files/31712.got.cif
#   From: 2010.05.17/outbox.cif.g08.bks.cpg/sg22_16_cif.got.tgz:31712.got - 2010.06.03 23:40:54.
