data_PCOD9327843
_publ_section_title
;
Structure prediction by ZEFSAII (Michael W. Deem and Ramdas Pophale) SiO2 
 PCOD9327843
Probable space group: F 2 2 2
;
_chemical_formula_sum "Si O2"
_cell_formula_units_Z 68
_cell_length_a 17.851249
_cell_length_b 8.500821
_cell_length_c 19.929274
_cell_angle_alpha 90.000000
_cell_angle_beta 90.000000
_cell_angle_gamma 90.000000
_cell_volume 3024.272758
_symmetry_space_group_name_H-M "F 2 2 2"
_symmetry_group_IT_number 22
_symmetry_cell_setting 'orthorhombic'
loop_
_space_group_symop_operation_xyz
x,y,z
-x,-y,z
x,-y,-z
-x,y,-z
x,1/2+y,1/2+z
-x,1/2-y,1/2+z
x,1/2-y,1/2-z
-x,1/2+y,1/2-z
1/2+x,y,1/2+z
1/2-x,-y,1/2+z
1/2+x,-y,1/2-z
1/2-x,y,1/2-z
1/2+x,1/2+y,z
1/2-x,1/2-y,z
1/2+x,1/2-y,-z
1/2-x,1/2+y,-z
loop_
_atom_site_type_symbol
_atom_site_label
_atom_site_fract_x
_atom_site_fract_y
_atom_site_fract_z
Si Si1 0.169425 0.338903 0.865969
Si Si2 0.886105 0.323735 0.822537
Si Si3 0.000000 0.000000 0.000000
Si Si4 0.750000 0.250000 0.596013
Si Si5 0.029101 0.162657 0.869244
Si Si6 0.310894 0.000000 0.000000
O O1 0.250000 0.250000 0.862735
O O2 0.151152 0.502332 0.826573
O O3 0.106864 0.219218 0.840851
O O4 0.150618 0.389120 0.944010
O O5 0.896110 0.250000 0.750000
O O6 0.823268 0.222472 0.860509
O O7 0.964870 0.294933 0.860679
O O8 0.958298 0.111235 0.053120
O O9 0.738665 0.395739 0.548149
O O10 0.000000 0.000000 0.836559
#
# Coordination Sequence:
#
# PCOD9327843 Si02
#       6
#    16  16   4   8  16   8
#     4  11  25  44  74 112 144 194 242 302 368 441
#     4  11  26  47  74  99 150 198 249 296 364 435
#     4   8  24  38  70 104 158 172 256 294 390 424
#     4  10  23  40  70 106 139 190 226 306 358 438
#     4  10  25  42  72 106 147 192 239 307 365 432
#     4  10  22  37  75 101 159 172 238 290 387 421
#
# _framework density 22.484743999999999
#
# number of rings (size 3 to 8) (size 9 to 14) (size 15 to 20)
#    0.706    0.941    1.176    1.059   13.176    3.765 
#    0.000    0.000    7.765    0.000    0.000    0.000 
#    0.000    0.000    0.000    0.000    0.000    0.000 
#
# Total GULP energy -94691.822662 kJ/mol
# GULP energy per Si atom -5570.107215 kJ/mol
# Density = 2.243357 g / cm^3
# Si number density = 22.484744 Si / 1000 Ang^3
#
#
#
# Elastic Constant Matrix: (Units=GPa)
#
#
# Indices 1 2 3 4 5 6 
#
# 1 129.0345 41.3745 19.4538 0.0000 0.0000 0.0000
# 2 41.3745 116.3085 28.8237 0.0000 0.0000 0.0000
# 3 19.4538 28.8237 85.6988 0.0000 0.0000 0.0000
# 4 0.0000 0.0000 0.0000 -73.5659 0.0000 0.0000
# 5 0.0000 0.0000 0.0000 0.0000 8.8531 0.0000
# 6 0.0000 0.0000 0.0000 0.0000 0.0000 42.2967
#
#
#
# Elastic Compliance Matrix: (Units=1/GPa)
#
#
# Indices 1 2 3 4 5 6 
#
# 1 0.008831 -0.002885 -0.001034 0.000000 0.000000 0.000000
# 2 -0.002885 0.010322 -0.002817 0.000000 0.000000 0.000000
# 3 -0.001034 -0.002817 0.012851 0.000000 0.000000 0.000000
# 4 0.000000 0.000000 0.000000 -0.013593 0.000000 0.000000
# 5 0.000000 0.000000 0.000000 0.000000 0.112955 0.000000
# 6 0.000000 0.000000 0.000000 0.000000 0.000000 0.023642
#
#
# Mechanical properties :
#
#
# Convention : Reuss Voigt Hill
#
# Bulk Modulus (GPa) = 53.96163 56.70508 55.33336
# Shear Modulus (GPa) = 28.62741 11.60944 20.11842
#
# Velocity S-wave (km/s) = 3.57205 2.27474 2.99450
# Velocity P-wave (km/s) = 6.40813 5.67216 6.05134
#
# Compressibility (1/GPa) = 0.01853169
#
# Stress axis : x y z
#
# Youngs Moduli (GPa) = 113.23880 96.87842 77.81518
#
# Poissons Ratio (x) = 0.27950 0.08048
# Poissons Ratio (y) = 0.32671 0.21919
# Poissons Ratio (z) = 0.11712 0.27289
#
# Static dielectric constant tensor:
#      x y z
#    x 1.856650 0.000000 0.000000 
#    y 0.000000 2.314550 0.000000 
#    z 0.000000 0.000000 1.894890 
# 
# From -- ./inp_files/43990.got.cif
#   From: 2010.05.17/outbox.cif.g08.bks.cpg/sg22_22_cif.got.tgz:43990.got - 2010.06.03 23:40:54.
