data_PCOD9327103
_publ_section_title
;
Structure prediction by ZEFSAII (Michael W. Deem and Ramdas Pophale) SiO2 
 PCOD9327103
Probable space group: F 2 2 2
;
_chemical_formula_sum "Si O2"
_cell_formula_units_Z 96
_cell_length_a 23.767562
_cell_length_b 13.567794
_cell_length_c 15.129999
_cell_angle_alpha 90.000000
_cell_angle_beta 90.000000
_cell_angle_gamma 90.000000
_cell_volume 4879.021994
_symmetry_space_group_name_H-M "F 2 2 2"
_symmetry_group_IT_number 22
_symmetry_cell_setting 'orthorhombic'
loop_
_space_group_symop_operation_xyz
x,y,z
-x,-y,z
x,-y,-z
-x,y,-z
x,1/2+y,1/2+z
-x,1/2-y,1/2+z
x,1/2-y,1/2-z
-x,1/2+y,1/2-z
1/2+x,y,1/2+z
1/2-x,-y,1/2+z
1/2+x,-y,1/2-z
1/2-x,y,1/2-z
1/2+x,1/2+y,z
1/2-x,1/2-y,z
1/2+x,1/2-y,-z
1/2-x,1/2+y,-z
loop_
_atom_site_type_symbol
_atom_site_label
_atom_site_fract_x
_atom_site_fract_y
_atom_site_fract_z
Si Si1 0.037089 0.598441 0.320503
Si Si2 0.842234 0.669681 0.675077
Si Si3 0.250000 0.519482 0.250000
Si Si4 0.084043 0.387237 0.030348
Si Si5 0.024778 0.317696 0.869559
Si Si6 0.204804 0.916403 0.574490
Si Si7 0.750000 0.250000 0.458558
O O1 0.101857 0.609280 0.353839
O O2 0.040168 0.616931 0.215122
O O3 0.011250 0.702869 0.352337
O O4 0.000000 0.500000 0.339989
O O5 0.859180 0.750000 0.750000
O O6 0.800056 0.590562 0.718099
O O7 0.804036 0.727869 0.603392
O O8 0.228262 0.456560 0.166474
O O9 0.142315 0.370884 0.080659
O O10 0.030986 0.364081 0.090198
O O11 0.080126 0.500000 0.000000
O O12 0.074849 0.324587 0.941040
O O13 0.244221 0.840483 0.524672
O O14 0.198598 0.000000 0.500000
#
# Coordination Sequence:
#
# PCOD9327103 Si02
#       7
#    16  16   8  16  16  16   8
#     4  11  24  38  64  96 136 174 220 283 352 408
#     4  12  21  41  72 100 132 178 240 293 336 417
#     4  12  25  41  68 106 136 170 238 290 354 408
#     4  10  21  38  67  90 128 170 223 277 333 400
#     4  10  20  39  60  97 125 165 225 272 335 411
#     4  11  24  42  65 100 134 177 223 285 346 415
#     4  12  23  45  70  98 134 184 226 282 356 410
#
# _framework density 19.676074
#
# number of rings (size 3 to 8) (size 9 to 14) (size 15 to 20)
#    0.000    1.000    5.000    3.000    7.000    0.333 
#    3.000    1.667    3.667    0.000    0.000    0.000 
#    0.000    0.000    0.000    0.000    0.000    0.000 
#
# Total GULP energy -133866.405631 kJ/mol
# GULP energy per Si atom -5577.766901 kJ/mol
# Density = 1.963129 g / cm^3
# Si number density = 19.676074 Si / 1000 Ang^3
#
#
#
# Elastic Constant Matrix: (Units=GPa)
#
#
# Indices 1 2 3 4 5 6 
#
# 1 97.6430 25.8688 25.3961 0.0000 0.0000 0.0000
# 2 25.8688 74.7782 19.2891 0.0000 0.0000 0.0000
# 3 25.3961 19.2891 90.3061 0.0000 0.0000 0.0000
# 4 0.0000 0.0000 0.0000 11.6929 0.0000 0.0000
# 5 0.0000 0.0000 0.0000 0.0000 13.3906 0.0000
# 6 0.0000 0.0000 0.0000 0.0000 0.0000 -40.3994
#
#
#
# Elastic Compliance Matrix: (Units=1/GPa)
#
#
# Indices 1 2 3 4 5 6 
#
# 1 0.011822 -0.003421 -0.002594 0.000000 0.000000 0.000000
# 2 -0.003421 0.015142 -0.002272 0.000000 0.000000 0.000000
# 3 -0.002594 -0.002272 0.012288 0.000000 0.000000 0.000000
# 4 0.000000 0.000000 0.000000 0.085522 0.000000 0.000000
# 5 0.000000 0.000000 0.000000 0.000000 0.074679 0.000000
# 6 0.000000 0.000000 0.000000 0.000000 0.000000 -0.024753
#
#
# Mechanical properties :
#
#
# Convention : Reuss Voigt Hill
#
# Bulk Modulus (GPa) = 44.09407 44.87059 44.48233
# Shear Modulus (GPa) = 25.14643 9.74838 17.44740
#
# Velocity S-wave (km/s) = 3.57882 2.22827 2.98103
# Velocity P-wave (km/s) = 6.28776 5.42903 5.87411
#
# Compressibility (1/GPa) = 0.02267879
#
# Stress axis : x y z
#
# Youngs Moduli (GPa) = 84.58569 66.03978 81.37798
#
# Poissons Ratio (x) = 0.22590 0.21110
# Poissons Ratio (y) = 0.28934 0.18492
# Poissons Ratio (z) = 0.21942 0.15007
#
# Static dielectric constant tensor:
#      x y z
#    x 1.737250 0.000000 0.000000 
#    y 0.000000 1.682330 0.000000 
#    z 0.000000 0.000000 1.792270 
# 
# From -- ./inp_files/32477.got.cif
#   From: 2010.05.17/outbox.cif.g08.bks.cpg/sg22_17_cif.got.tgz:32477.got - 2010.06.03 23:40:54.
