data_PCOD9327683
_publ_section_title
;
Structure prediction by ZEFSAII (Michael W. Deem and Ramdas Pophale) SiO2 
 PCOD9327683
Probable space group: F 2 2 2
;
_chemical_formula_sum "Si O2"
_cell_formula_units_Z 60
_cell_length_a 17.086473
_cell_length_b 5.646756
_cell_length_c 31.094202
_cell_angle_alpha 90.000000
_cell_angle_beta 90.000000
_cell_angle_gamma 90.000000
_cell_volume 3000.066367
_symmetry_space_group_name_H-M "F 2 2 2"
_symmetry_group_IT_number 22
_symmetry_cell_setting 'orthorhombic'
loop_
_space_group_symop_operation_xyz
x,y,z
-x,-y,z
x,-y,-z
-x,y,-z
x,1/2+y,1/2+z
-x,1/2-y,1/2+z
x,1/2-y,1/2-z
-x,1/2+y,1/2-z
1/2+x,y,1/2+z
1/2-x,-y,1/2+z
1/2+x,-y,1/2-z
1/2-x,y,1/2-z
1/2+x,1/2+y,z
1/2-x,1/2-y,z
1/2+x,1/2-y,-z
1/2-x,1/2+y,-z
loop_
_atom_site_type_symbol
_atom_site_label
_atom_site_fract_x
_atom_site_fract_y
_atom_site_fract_z
Si Si1 0.000000 0.000000 0.359448
Si Si2 0.574910 0.852944 0.582611
Si Si3 0.500000 0.000000 0.500000
Si Si4 0.921799 0.640116 0.293406
Si Si5 0.796018 0.001717 0.141258
O O1 0.952875 0.830610 0.327573
O O2 0.064459 0.888683 0.391611
O O3 0.554985 0.848857 0.532112
O O4 0.652935 0.982792 0.597313
O O5 0.500000 0.000000 0.600117
O O6 0.887651 0.750000 0.250000
O O7 0.857909 0.492287 0.319419
O O8 0.000000 0.500000 0.280251
O O9 0.750000 0.250000 0.143102
O O10 0.750000 0.750000 0.143473
#
# Coordination Sequence:
#
# PCOD9327683 Si02
#       5
#     8  16   4  16  16
#     4  12  18  39  71  96 130 168 237 291 342 384
#     4  10  21  41  70  94 129 170 233 282 332 408
#     4   8  20  42  70 100 126 156 252 294 332 390
#     4  12  24  41  68 100 128 182 244 296 327 395
#     4  12  26  44  66  98 146 185 219 273 359 428
#
# _framework density 19.999555999999998
#
# number of rings (size 3 to 8) (size 9 to 14) (size 15 to 20)
#    0.800    0.000    6.667    1.600    0.000    1.067 
#    0.000    5.333    0.000    0.000    0.000    0.000 
#    0.000    0.000    0.000    0.000    0.000    0.000 
#
# Total GULP energy -83580.851591 kJ/mol
# GULP energy per Si atom -5572.056773 kJ/mol
# Density = 1.995404 g / cm^3
# Si number density = 19.999556 Si / 1000 Ang^3
#
#
#
# Elastic Constant Matrix: (Units=GPa)
#
#
# Indices 1 2 3 4 5 6 
#
# 1 90.8145 36.1212 23.8811 0.0000 0.0000 0.0000
# 2 36.1212 79.2712 29.3072 0.0000 0.0000 0.0000
# 3 23.8811 29.3072 147.4630 0.0000 0.0000 0.0000
# 4 0.0000 0.0000 0.0000 9.0695 0.0000 0.0000
# 5 0.0000 0.0000 0.0000 0.0000 -9.9838 0.0000
# 6 0.0000 0.0000 0.0000 0.0000 0.0000 46.7371
#
#
#
# Elastic Compliance Matrix: (Units=1/GPa)
#
#
# Indices 1 2 3 4 5 6 
#
# 1 0.013597 -0.005809 -0.001048 0.000000 0.000000 0.000000
# 2 -0.005809 0.016097 -0.002258 0.000000 0.000000 0.000000
# 3 -0.001048 -0.002258 0.007400 0.000000 0.000000 0.000000
# 4 0.000000 0.000000 0.000000 0.110260 0.000000 0.000000
# 5 0.000000 0.000000 0.000000 0.000000 -0.100162 0.000000
# 6 0.000000 0.000000 0.000000 0.000000 0.000000 0.021396
#
#
# Mechanical properties :
#
#
# Convention : Reuss Voigt Hill
#
# Bulk Modulus (GPa) = 53.00923 55.12977 54.06950
# Shear Modulus (GPa) = 53.70279 24.38049 39.04164
#
# Velocity S-wave (km/s) = 5.18751 3.49528 4.42308
# Velocity P-wave (km/s) = 7.90210 6.62681 7.29239
#
# Compressibility (1/GPa) = 0.01886464
#
# Stress axis : x y z
#
# Youngs Moduli (GPa) = 73.54416 62.12485 135.13752
#
# Poissons Ratio (x) = 0.36085 0.14157
# Poissons Ratio (y) = 0.42718 0.30520
# Poissons Ratio (z) = 0.07705 0.14030
#
# Static dielectric constant tensor:
#      x y z
#    x 1.762230 0.000000 0.000000 
#    y 0.000000 1.863780 0.000000 
#    z 0.000000 0.000000 1.685250 
# 
# From -- ./inp_files/56627.got.cif
#   From: 2010.05.17/outbox.cif.g08.bks.cpg/sg22_29_cif.got.tgz:56627.got - 2010.06.03 23:40:54.
