data_PCOD9327260
_publ_section_title
;
Structure prediction by ZEFSAII (Michael W. Deem and Ramdas Pophale) SiO2 
 PCOD9327260
Probable space group: F 2 2 2
;
_chemical_formula_sum "Si O2"
_cell_formula_units_Z 88
_cell_length_a 10.979124
_cell_length_b 13.241363
_cell_length_c 27.037244
_cell_angle_alpha 90.000000
_cell_angle_beta 90.000000
_cell_angle_gamma 90.000000
_cell_volume 3930.635770
_symmetry_space_group_name_H-M "F 2 2 2"
_symmetry_group_IT_number 22
_symmetry_cell_setting 'orthorhombic'
loop_
_space_group_symop_operation_xyz
x,y,z
-x,-y,z
x,-y,-z
-x,y,-z
x,1/2+y,1/2+z
-x,1/2-y,1/2+z
x,1/2-y,1/2-z
-x,1/2+y,1/2-z
1/2+x,y,1/2+z
1/2-x,-y,1/2+z
1/2+x,-y,1/2-z
1/2-x,y,1/2-z
1/2+x,1/2+y,z
1/2-x,1/2-y,z
1/2+x,1/2-y,-z
1/2-x,1/2+y,-z
loop_
_atom_site_type_symbol
_atom_site_label
_atom_site_fract_x
_atom_site_fract_y
_atom_site_fract_z
Si Si1 0.050034 0.250000 0.750000
Si Si2 0.000000 0.500000 0.640918
Si Si3 0.750000 0.577195 0.750000
Si Si4 0.391643 0.280938 0.158829
Si Si5 0.000000 0.000000 0.415872
Si Si6 0.735436 0.035128 0.143772
Si Si7 0.511226 0.727046 0.556175
Si Si8 0.250000 0.250000 0.888901
O O1 0.136070 0.347662 0.742674
O O2 0.968046 0.226209 0.701822
O O3 0.048835 0.605374 0.665192
O O4 0.132739 0.475845 0.617599
O O5 0.739400 0.509049 0.701297
O O6 0.250000 0.250000 0.166152
O O7 0.419871 0.256063 0.100921
O O8 0.122348 0.014020 0.383525
O O9 0.017896 0.895253 0.444314
O O10 0.714011 0.155330 0.143793
O O11 0.500000 0.762970 0.500000
O O12 0.637292 0.769624 0.576227
#
# Coordination Sequence:
#
# PCOD9327260 Si02
#       8
#     8   8   8  16   8  16  16   8
#     4  11  21  44  68 100 141 197 246 296 364 451
#     4  12  24  45  65 107 148 187 240 318 372 448
#     4  11  20  36  72  94 131 190 249 282 360 444
#     4  12  26  46  70 104 153 196 245 312 389 454
#     4  10  23  43  70 103 136 187 247 304 371 460
#     4  11  22  41  66  99 141 182 237 298 362 443
#     4  11  23  43  72 100 135 185 244 304 371 449
#     4  10  20  43  68  88 128 187 228 276 370 442
#
# _framework density 22.388235000000002
#
# number of rings (size 3 to 8) (size 9 to 14) (size 15 to 20)
#    0.000    0.909    3.636    4.909    1.273    0.727 
#    6.545    0.455    0.000    0.000    0.000    0.000 
#    0.000    0.000    0.000    0.000    0.000    0.000 
#
# Total GULP energy -122519.732473 kJ/mol
# GULP energy per Si atom -5569.078749 kJ/mol
# Density = 2.233728 g / cm^3
# Si number density = 22.388235 Si / 1000 Ang^3
#
#
#
# Elastic Constant Matrix: (Units=GPa)
#
#
# Indices 1 2 3 4 5 6 
#
# 1 199.0431 10.5929 58.2973 0.0000 0.0000 0.0000
# 2 10.5929 59.2495 9.1806 0.0000 0.0000 0.0000
# 3 58.2973 9.1806 136.5805 0.0000 0.0000 0.0000
# 4 0.0000 0.0000 0.0000 -0.3951 0.0000 0.0000
# 5 0.0000 0.0000 0.0000 0.0000 22.5114 0.0000
# 6 0.0000 0.0000 0.0000 0.0000 0.0000 26.7869
#
#
#
# Elastic Compliance Matrix: (Units=1/GPa)
#
#
# Indices 1 2 3 4 5 6 
#
# 1 0.005767 -0.000656 -0.002417 0.000000 0.000000 0.000000
# 2 -0.000656 0.017130 -0.000871 0.000000 0.000000 0.000000
# 3 -0.002417 -0.000871 0.008412 0.000000 0.000000 0.000000
# 4 0.000000 0.000000 0.000000 -2.531167 0.000000 0.000000
# 5 0.000000 0.000000 0.000000 0.000000 0.044422 0.000000
# 6 0.000000 0.000000 0.000000 0.000000 0.000000 0.037332
#
#
# Mechanical properties :
#
#
# Convention : Reuss Voigt Hill
#
# Bulk Modulus (GPa) = 42.70045 61.22386 51.96215
# Shear Modulus (GPa) = -2.08125 30.90078 14.40977
#
# Velocity S-wave (km/s) = -0.96521 3.71917 2.53974
# Velocity P-wave (km/s) = 4.22752 6.77117 5.64450
#
# Compressibility (1/GPa) = 0.02341895
#
# Stress axis : x y z
#
# Youngs Moduli (GPa) = 173.39996 58.37663 118.87636
#
# Poissons Ratio (x) = 0.03832 0.28738
# Poissons Ratio (y) = 0.11383 0.10357
# Poissons Ratio (z) = 0.41918 0.05086
#
# Static dielectric constant tensor:
#      x y z
#    x 2.504040 0.000000 0.000000 
#    y 0.000000 1.812150 0.000000 
#    z 0.000000 0.000000 1.931740 
# 
# From -- ./inp_files/48085.got.cif
#   From: 2010.05.17/outbox.cif.g08.bks.cpg/sg22_25_cif.got.tgz:48085.got - 2010.06.03 23:40:54.
