data_PCOD9327142
_publ_section_title
;
Structure prediction by ZEFSAII (Michael W. Deem and Ramdas Pophale) SiO2 
 PCOD9327142
Probable space group: F 2 2 2
;
_chemical_formula_sum "Si O2"
_cell_formula_units_Z 104
_cell_length_a 21.688797
_cell_length_b 28.120561
_cell_length_c 8.411843
_cell_angle_alpha 90.000000
_cell_angle_beta 90.000000
_cell_angle_gamma 90.000000
_cell_volume 5130.392627
_symmetry_space_group_name_H-M "F 2 2 2"
_symmetry_group_IT_number 22
_symmetry_cell_setting 'orthorhombic'
loop_
_space_group_symop_operation_xyz
x,y,z
-x,-y,z
x,-y,-z
-x,y,-z
x,1/2+y,1/2+z
-x,1/2-y,1/2+z
x,1/2-y,1/2-z
-x,1/2+y,1/2-z
1/2+x,y,1/2+z
1/2-x,-y,1/2+z
1/2+x,-y,1/2-z
1/2-x,y,1/2-z
1/2+x,1/2+y,z
1/2-x,1/2-y,z
1/2+x,1/2-y,-z
1/2-x,1/2+y,-z
loop_
_atom_site_type_symbol
_atom_site_label
_atom_site_fract_x
_atom_site_fract_y
_atom_site_fract_z
Si Si1 0.387499 0.250000 0.750000
Si Si2 0.500000 0.877977 0.000000
Si Si3 0.691619 0.461735 0.137780
Si Si4 0.195119 0.786937 0.535624
Si Si5 0.733666 0.606499 0.435050
Si Si6 0.404250 0.250000 0.250000
Si Si7 0.003864 0.820951 0.169308
Si Si8 0.885619 0.552830 0.939040
O O1 0.342717 0.268274 0.613718
O O2 0.432048 0.206688 0.698815
O O3 0.509125 0.847567 0.162974
O O4 0.441213 0.911232 0.032528
O O5 0.750000 0.476968 0.250000
O O6 0.635469 0.451971 0.255780
O O7 0.680366 0.500000 0.000000
O O8 0.713095 0.414562 0.046366
O O9 0.250000 0.750000 0.568945
O O10 0.220596 0.839500 0.517149
O O11 0.142652 0.786622 0.670061
O O12 0.750000 0.604491 0.250000
O O13 0.673926 0.574047 0.469854
O O14 0.451200 0.219415 0.354309
O O15 0.000000 0.848503 0.000000
O O16 0.899857 0.500000 0.000000
#
# Coordination Sequence:
#
# PCOD9327142 Si02
#       8
#     8   8  16  16  16   8  16  16
#     4  11  23  42  64  94 127 179 236 276 324 397
#     4  12  27  46  68 102 136 172 224 286 357 408
#     4  10  20  39  69 103 132 172 227 278 334 410
#     4  12  25  39  60  94 144 183 212 271 343 396
#     4  11  22  40  67 100 135 177 227 273 331 402
#     4  11  21  42  62  94 125 177 238 272 322 395
#     4  11  23  44  73  94 125 176 240 290 325 391
#     4  11  24  45  71  94 133 175 213 284 349 406
#
# _framework density 20.271353000000001
#
# number of rings (size 3 to 8) (size 9 to 14) (size 15 to 20)
#    0.000    0.923    1.538    7.615    2.154    4.923 
#    8.308    0.000    0.000    0.000    0.000    0.000 
#    0.000    0.000    0.000    0.000    0.000    0.000 
#
# Total GULP energy -145266.018538 kJ/mol
# GULP energy per Si atom -5587.154559 kJ/mol
# Density = 2.022521 g / cm^3
# Si number density = 20.271353 Si / 1000 Ang^3
#
#
#
# Elastic Constant Matrix: (Units=GPa)
#
#
# Indices 1 2 3 4 5 6 
#
# 1 94.5317 35.4068 60.5336 0.0001 -0.0004 -0.0019
# 2 35.4068 109.0490 41.9680 0.0006 -0.0001 -0.0013
# 3 60.5336 41.9680 138.2042 0.0017 -0.0018 -0.0115
# 4 0.0001 0.0006 0.0017 29.6353 0.0010 0.0019
# 5 -0.0004 -0.0001 -0.0018 0.0010 28.8062 0.0026
# 6 -0.0019 -0.0013 -0.0115 0.0019 0.0026 56.2560
#
#
#
# Elastic Compliance Matrix: (Units=1/GPa)
#
#
# Indices 1 2 3 4 5 6 
#
# 1 0.015383 -0.002719 -0.005912 0.000000 0.000000 -0.000001
# 2 -0.002719 0.010864 -0.002108 0.000000 0.000000 0.000000
# 3 -0.005912 -0.002108 0.010465 -0.000001 0.000001 0.000002
# 4 0.000000 0.000000 -0.000001 0.033744 -0.000001 -0.000001
# 5 0.000000 0.000000 0.000001 -0.000001 0.034715 -0.000002
# 6 -0.000001 0.000000 0.000002 -0.000001 -0.000002 0.017776
#
#
# Mechanical properties :
#
#
# Convention : Reuss Voigt Hill
#
# Bulk Modulus (GPa) = 65.64372 68.62241 67.13307
# Shear Modulus (GPa) = 33.44416 36.53127 34.98771
#
# Velocity S-wave (km/s) = 4.06621 4.24974 4.15898
# Velocity P-wave (km/s) = 7.38229 7.61615 7.50013
#
# Compressibility (1/GPa) = 0.01523375
#
# Stress axis : x y z
#
# Youngs Moduli (GPa) = 65.00826 92.04344 95.55452
#
# Poissons Ratio (x) = 0.25030 0.56490
# Poissons Ratio (y) = 0.17678 0.20144
# Poissons Ratio (z) = 0.38432 0.19404
#
# Static dielectric constant tensor:
#      x y z
#    x 1.685200 0.000000 0.000020 
#    y 0.000000 1.698110 0.000000 
#    z 0.000020 0.000000 1.665960 
# 
# From -- ./inp_files/12996.got.cif
#   From: 2010.05.17/outbox.cif.g08.bks.cpg/sg22_7_cif.got.tgz:12996.got - 2010.06.03 23:40:54.
