data_PCOD9327967
_publ_section_title
;
Structure prediction by ZEFSAII (Michael W. Deem and Ramdas Pophale) SiO2 
 PCOD9327967
Probable space group: F 2 2 2
;
_chemical_formula_sum "Si O2"
_cell_formula_units_Z 68
_cell_length_a 19.419090
_cell_length_b 29.259669
_cell_length_c 5.572144
_cell_angle_alpha 90.000000
_cell_angle_beta 90.000000
_cell_angle_gamma 90.000000
_cell_volume 3166.070744
_symmetry_space_group_name_H-M "F 2 2 2"
_symmetry_group_IT_number 22
_symmetry_cell_setting 'orthorhombic'
loop_
_space_group_symop_operation_xyz
x,y,z
-x,-y,z
x,-y,-z
-x,y,-z
x,1/2+y,1/2+z
-x,1/2-y,1/2+z
x,1/2-y,1/2-z
-x,1/2+y,1/2-z
1/2+x,y,1/2+z
1/2-x,-y,1/2+z
1/2+x,-y,1/2-z
1/2-x,y,1/2-z
1/2+x,1/2+y,z
1/2-x,1/2-y,z
1/2+x,1/2-y,-z
1/2-x,1/2+y,-z
loop_
_atom_site_type_symbol
_atom_site_label
_atom_site_fract_x
_atom_site_fract_y
_atom_site_fract_z
Si Si1 0.428279 0.123479 0.356773
Si Si2 0.078058 0.213105 0.451394
Si Si3 0.180299 0.680317 0.367601
Si Si4 0.250000 0.750000 0.750000
Si Si5 0.920627 0.518234 0.248613
O O1 0.500000 0.125370 0.500000
O O2 0.429007 0.162770 0.158612
O O3 0.365509 0.139990 0.523020
O O4 0.420438 0.072903 0.255030
O O5 0.099432 0.250000 0.250000
O O6 0.129951 0.205355 0.674095
O O7 0.000000 0.228341 0.500000
O O8 0.250000 0.662019 0.250000
O O9 0.210893 0.715127 0.567543
O O10 0.890186 0.500000 0.500000
O O11 0.000000 0.500000 0.249040
O O12 0.889416 0.500000 0.000000
#
# Coordination Sequence:
#
# PCOD9327967 Si02
#       5
#    16  16  16   4  16
#     4  12  25  45  74 118 154 197 256 324 391 468
#     4  12  29  45  73 114 156 201 255 330 396 462
#     4  12  30  49  76 104 155 209 272 315 385 474
#     4  12  30  56  74 100 148 238 270 314 380 476
#     4  10  22  40  73 112 155 191 240 321 394 465
#
# _framework density 21.477727000000002
#
# number of rings (size 3 to 8) (size 9 to 14) (size 15 to 20)
#    0.000    0.471    4.706    2.471   16.471    0.000 
#    0.000    0.000    0.000    0.000    9.176    0.000 
#    0.000    0.000    0.000    0.000    0.000    0.000 
#
# Total GULP energy -94969.934949 kJ/mol
# GULP energy per Si atom -5586.466762 kJ/mol
# Density = 2.142884 g / cm^3
# Si number density = 21.477727 Si / 1000 Ang^3
#
#
#
# Elastic Constant Matrix: (Units=GPa)
#
#
# Indices 1 2 3 4 5 6 
#
# 1 132.4913 30.4418 53.3387 0.0126 -0.0463 0.4796
# 2 30.4418 195.6927 76.9633 0.0194 -0.0151 0.2479
# 3 53.3387 76.9633 172.7707 0.0430 -0.0496 0.6625
# 4 0.0126 0.0194 0.0430 85.3307 -0.0163 1.6682
# 5 -0.0463 -0.0151 -0.0496 -0.0163 42.0913 -0.3350
# 6 0.4796 0.2479 0.6625 1.6682 -0.3350 481.6212
#
#
#
# Elastic Compliance Matrix: (Units=1/GPa)
#
#
# Indices 1 2 3 4 5 6 
#
# 1 0.008639 -0.000358 -0.002508 0.000000 0.000006 -0.000005
# 2 -0.000358 0.006210 -0.002656 0.000000 -0.000001 0.000001
# 3 -0.002508 -0.002656 0.007745 -0.000003 0.000005 -0.000007
# 4 0.000000 0.000000 -0.000003 0.011720 0.000004 -0.000041
# 5 0.000006 -0.000001 0.000005 0.000004 0.023758 0.000017
# 6 -0.000005 0.000001 -0.000007 -0.000041 0.000017 0.002076
#
#
# Mechanical properties :
#
#
# Convention : Reuss Voigt Hill
#
# Bulk Modulus (GPa) = 86.56447 91.38250 88.97348
# Shear Modulus (GPa) = 66.62802 144.48936 105.55869
#
# Velocity S-wave (km/s) = 5.57577 8.21097 7.01817
# Velocity P-wave (km/s) = 9.04677 11.51231 10.35320
#
# Compressibility (1/GPa) = 0.01155208
#
# Stress axis : x y z
#
# Youngs Moduli (GPa) = 115.74757 161.02350 129.10761
#
# Poissons Ratio (x) = 0.05759 0.32379
# Poissons Ratio (y) = 0.04139 0.34292
# Poissons Ratio (z) = 0.29028 0.42769
#
# Static dielectric constant tensor:
#      x y z
#    x 1.807050 0.000010 -0.000210 
#    y 0.000010 1.735770 -0.000010 
#    z -0.000210 -0.000010 1.873800 
# 
# From -- ./inp_files/3766.got.cif
#   From: 2010.05.17/outbox.cif.g08.bks.cpg/sg22_2_cif.got.tgz:3766.got - 2010.06.03 23:40:54.
