data_PCOD9327767
_publ_section_title
;
Structure prediction by ZEFSAII (Michael W. Deem and Ramdas Pophale) SiO2 
 PCOD9327767
Probable space group: F 2 2 2
;
_chemical_formula_sum "Si O2"
_cell_formula_units_Z 48
_cell_length_a 12.508813
_cell_length_b 12.052971
_cell_length_c 12.870085
_cell_angle_alpha 90.000000
_cell_angle_beta 90.000000
_cell_angle_gamma 90.000000
_cell_volume 1940.401613
_symmetry_space_group_name_H-M "F 2 2 2"
_symmetry_group_IT_number 22
_symmetry_cell_setting 'orthorhombic'
loop_
_space_group_symop_operation_xyz
x,y,z
-x,-y,z
x,-y,-z
-x,y,-z
x,1/2+y,1/2+z
-x,1/2-y,1/2+z
x,1/2-y,1/2-z
-x,1/2+y,1/2-z
1/2+x,y,1/2+z
1/2-x,-y,1/2+z
1/2+x,-y,1/2-z
1/2-x,y,1/2-z
1/2+x,1/2+y,z
1/2-x,1/2-y,z
1/2+x,1/2-y,-z
1/2-x,1/2+y,-z
loop_
_atom_site_type_symbol
_atom_site_label
_atom_site_fract_x
_atom_site_fract_y
_atom_site_fract_z
Si Si1 0.893127 0.423734 0.618374
Si Si2 0.869511 0.732572 0.941975
Si Si3 0.528651 0.250000 0.750000
Si Si4 0.701362 0.000000 0.000000
O O1 0.886743 0.328235 0.528568
O O2 0.900455 0.357310 0.725526
O O3 0.784962 0.490943 0.596897
O O4 0.000000 0.500000 0.612006
O O5 0.750000 0.750000 0.900540
O O6 0.952456 0.737099 0.849007
O O7 0.866799 0.611205 0.993153
#
# Coordination Sequence:
#
# PCOD9327767 Si02
#       4
#    16  16   8   8
#     4  11  23  43  68  93 132 179 222 274 331 388
#     4  10  22  41  64  92 128 173 220 270 330 389
#     4  12  23  38  65  98 124 164 220 266 327 394
#     4  10  21  44  65  88 132 174 214 274 327 386
#
# _framework density 24.737148000000001
#
# number of rings (size 3 to 8) (size 9 to 14) (size 15 to 20)
#    0.000    1.333    0.000    8.000    0.000    2.667 
#    0.000   22.500    0.000    0.000    0.000    0.000 
#    0.000    0.000    0.000    0.000    0.000    0.000 
#
# Total GULP energy -67150.434570 kJ/mol
# GULP energy per Si atom -5595.869547 kJ/mol
# Density = 2.468085 g / cm^3
# Si number density = 24.737148 Si / 1000 Ang^3
#
#
#
# Elastic Constant Matrix: (Units=GPa)
#
#
# Indices 1 2 3 4 5 6 
#
# 1 100.3285 20.2990 28.1847 0.0000 0.0000 0.0000
# 2 20.2990 182.5013 30.4583 0.0000 0.0000 0.0000
# 3 28.1847 30.4583 75.7503 0.0000 0.0000 0.0000
# 4 0.0000 0.0000 0.0000 49.9949 0.0000 0.0000
# 5 0.0000 0.0000 0.0000 0.0000 20.0409 0.0000
# 6 0.0000 0.0000 0.0000 0.0000 0.0000 39.9577
#
#
#
# Elastic Compliance Matrix: (Units=1/GPa)
#
#
# Indices 1 2 3 4 5 6 
#
# 1 0.011190 -0.000589 -0.003926 0.000000 0.000000 0.000000
# 2 -0.000589 0.005905 -0.002155 0.000000 0.000000 0.000000
# 3 -0.003926 -0.002155 0.015529 0.000000 0.000000 0.000000
# 4 0.000000 0.000000 0.000000 0.020002 0.000000 0.000000
# 5 0.000000 0.000000 0.000000 0.000000 0.049898 0.000000
# 6 0.000000 0.000000 0.000000 0.000000 0.000000 0.025026
#
#
# Mechanical properties :
#
#
# Convention : Reuss Voigt Hill
#
# Bulk Modulus (GPa) = 51.86295 57.38490 54.62392
# Shear Modulus (GPa) = 33.94026 40.64123 37.29075
#
# Velocity S-wave (km/s) = 3.70812 4.05770 3.88684
# Velocity P-wave (km/s) = 6.27253 6.72320 6.50177
#
# Compressibility (1/GPa) = 0.01928159
#
# Stress axis : x y z
#
# Youngs Moduli (GPa) = 89.36947 169.35951 64.39713
#
# Poissons Ratio (x) = 0.09980 0.25285
# Poissons Ratio (y) = 0.05266 0.13877
# Poissons Ratio (z) = 0.35090 0.36495
#
# Static dielectric constant tensor:
#      x y z
#    x 1.989860 0.000000 0.000000 
#    y 0.000000 2.006760 0.000000 
#    z 0.000000 0.000000 1.959740 
# 
# From -- ./inp_files/20637.got.cif
#   From: 2010.05.17/outbox.cif.g08.bks.cpg/sg22_11_cif.got.tgz:20637.got - 2010.06.03 23:40:54.
