data_PCOD9327517
_publ_section_title
;
Structure prediction by ZEFSAII (Michael W. Deem and Ramdas Pophale) SiO2 
 PCOD9327517
Probable space group: F 2 2 2
;
_chemical_formula_sum "Si O2"
_cell_formula_units_Z 92
_cell_length_a 20.038267
_cell_length_b 8.680912
_cell_length_c 23.265718
_cell_angle_alpha 90.000000
_cell_angle_beta 90.000000
_cell_angle_gamma 90.000000
_cell_volume 4047.081708
_symmetry_space_group_name_H-M "F 2 2 2"
_symmetry_group_IT_number 22
_symmetry_cell_setting 'orthorhombic'
loop_
_space_group_symop_operation_xyz
x,y,z
-x,-y,z
x,-y,-z
-x,y,-z
x,1/2+y,1/2+z
-x,1/2-y,1/2+z
x,1/2-y,1/2-z
-x,1/2+y,1/2-z
1/2+x,y,1/2+z
1/2-x,-y,1/2+z
1/2+x,-y,1/2-z
1/2-x,y,1/2-z
1/2+x,1/2+y,z
1/2-x,1/2-y,z
1/2+x,1/2-y,-z
1/2-x,1/2+y,-z
loop_
_atom_site_type_symbol
_atom_site_label
_atom_site_fract_x
_atom_site_fract_y
_atom_site_fract_z
Si Si1 0.595635 0.238016 0.343838
Si Si2 0.621632 0.157742 0.922279
Si Si3 0.720527 0.897297 0.895529
Si Si4 0.250000 0.750000 0.750000
Si Si5 0.075573 0.837829 0.022676
Si Si6 0.657400 0.564253 0.164000
Si Si7 0.500000 0.500000 0.643216
O O1 0.665970 0.330847 0.349362
O O2 0.578479 0.189593 0.409884
O O3 0.538136 0.358429 0.324762
O O4 0.606516 0.070288 0.314970
O O5 0.630091 0.305801 0.879903
O O6 0.682651 0.040925 0.921620
O O7 0.557056 0.071582 0.897190
O O8 0.612003 0.207419 0.987400
O O9 0.750000 0.750000 0.929621
O O10 0.786363 0.968654 0.868797
O O11 0.300776 0.648365 0.787028
O O12 0.000000 0.834145 0.000000
O O13 0.103827 0.000000 0.000000
#
# Coordination Sequence:
#
# PCOD9327517 Si02
#       7
#    16  16  16   4  16  16   8
#     4  10  21  39  61  98 141 175 225 270 325 401
#     4  11  20  37  64  93 137 176 225 272 320 391
#     4   9  20  38  59  89 135 172 218 272 333 386
#     4  12  24  44  78 100 120 168 242 284 362 420
#     4  11  21  34  58  98 138 184 232 254 313 403
#     4  11  22  42  68  95 126 169 226 290 342 405
#     4  10  22  35  62  96 140 188 214 270 326 399
#
# _framework density 22.732429
#
# number of rings (size 3 to 8) (size 9 to 14) (size 15 to 20)
#    0.000    1.565    5.217    0.000    0.000    4.174 
#    0.000   12.609    0.000    2.087    0.000    0.000 
#    0.000    0.000    0.000    0.000    0.000    0.000 
#
# Total GULP energy -128377.155736 kJ/mol
# GULP energy per Si atom -5581.615467 kJ/mol
# Density = 2.268069 g / cm^3
# Si number density = 22.732429 Si / 1000 Ang^3
#
#
#
# Elastic Constant Matrix: (Units=GPa)
#
#
# Indices 1 2 3 4 5 6 
#
# 1 84.9354 45.2583 4.6564 0.0000 0.0000 0.0000
# 2 45.2583 162.8480 25.0641 0.0000 0.0000 0.0000
# 3 4.6564 25.0641 38.0903 0.0000 0.0000 0.0000
# 4 0.0000 0.0000 0.0000 -69.8536 0.0000 0.0000
# 5 0.0000 0.0000 0.0000 0.0000 13.9182 0.0000
# 6 0.0000 0.0000 0.0000 0.0000 0.0000 47.1406
#
#
#
# Elastic Compliance Matrix: (Units=1/GPa)
#
#
# Indices 1 2 3 4 5 6 
#
# 1 0.013850 -0.003993 0.000934 0.000000 0.000000 0.000000
# 2 -0.003993 0.007984 -0.004765 0.000000 0.000000 0.000000
# 3 0.000934 -0.004765 0.029275 0.000000 0.000000 0.000000
# 4 0.000000 0.000000 0.000000 -0.014316 0.000000 0.000000
# 5 0.000000 0.000000 0.000000 0.000000 0.071848 0.000000
# 6 0.000000 0.000000 0.000000 0.000000 0.000000 0.021213
#
#
# Mechanical properties :
#
#
# Convention : Reuss Voigt Hill
#
# Bulk Modulus (GPa) = 28.20016 48.42569 38.31293
# Shear Modulus (GPa) = 31.78175 12.30070 22.04123
#
# Velocity S-wave (km/s) = 3.74315 2.32870 3.11721
# Velocity P-wave (km/s) = 5.57797 5.34595 5.46319
#
# Compressibility (1/GPa) = 0.03546079
#
# Stress axis : x y z
#
# Youngs Moduli (GPa) = 72.20156 125.25258 34.15894
#
# Poissons Ratio (x) = 0.50013 -0.03192
# Poissons Ratio (y) = 0.28830 0.16278
# Poissons Ratio (z) = -0.06746 0.59688
#
# Static dielectric constant tensor:
#      x y z
#    x 1.859890 0.000000 0.000000 
#    y 0.000000 1.766560 0.000000 
#    z 0.000000 0.000000 1.820120 
# 
# From -- ./inp_files/12902.got.cif
#   From: 2010.05.17/outbox.cif.g08.bks.cpg/sg22_7_cif.got.tgz:12902.got - 2010.06.03 23:40:54.
