data_PCOD9327076
_publ_section_title
;
Structure prediction by ZEFSAII (Michael W. Deem and Ramdas Pophale) SiO2 
 PCOD9327076
Probable space group: F 2 2 2
;
_chemical_formula_sum "Si O2"
_cell_formula_units_Z 72
_cell_length_a 24.664053
_cell_length_b 8.983165
_cell_length_c 15.181832
_cell_angle_alpha 90.000000
_cell_angle_beta 90.000000
_cell_angle_gamma 90.000000
_cell_volume 3363.705792
_symmetry_space_group_name_H-M "F 2 2 2"
_symmetry_group_IT_number 22
_symmetry_cell_setting 'orthorhombic'
loop_
_space_group_symop_operation_xyz
x,y,z
-x,-y,z
x,-y,-z
-x,y,-z
x,1/2+y,1/2+z
-x,1/2-y,1/2+z
x,1/2-y,1/2-z
-x,1/2+y,1/2-z
1/2+x,y,1/2+z
1/2-x,-y,1/2+z
1/2+x,-y,1/2-z
1/2-x,y,1/2-z
1/2+x,1/2+y,z
1/2-x,1/2-y,z
1/2+x,1/2-y,-z
1/2-x,1/2+y,-z
loop_
_atom_site_type_symbol
_atom_site_label
_atom_site_fract_x
_atom_site_fract_y
_atom_site_fract_z
Si Si1 0.895219 0.425138 0.095943
Si Si2 0.056477 0.426132 0.262387
Si Si3 0.597382 0.093802 0.423132
Si Si4 0.202055 0.000000 0.000000
Si Si5 0.270191 0.920225 0.152537
O O1 0.929386 0.515079 0.166346
O O2 0.920978 0.259933 0.094098
O O3 0.834251 0.422314 0.135895
O O4 0.894614 0.500000 0.000000
O O5 0.054555 0.250000 0.250000
O O6 0.097983 0.491948 0.335929
O O7 0.000000 0.500000 0.291708
O O8 0.657802 0.118119 0.465038
O O9 0.568325 0.000000 0.500000
O O10 0.240858 0.972985 0.917943
O O11 0.250000 0.960173 0.250000
O O12 0.250000 0.750000 0.137844
#
# Coordination Sequence:
#
# PCOD9327076 Si02
#       5
#    16  16  16   8  16
#     4  12  24  41  68 101 138 185 227 279 338 405
#     4  12  27  48  72 101 133 174 230 290 350 410
#     4  10  22  42  68  98 138 175 224 276 339 402
#     4  10  20  38  65  98 137 184 226 276 334 400
#     4  11  21  36  63  97 138 185 229 271 333 399
#
# _framework density 21.404964
#
# number of rings (size 3 to 8) (size 9 to 14) (size 15 to 20)
#    0.667    0.222    3.333    4.667    3.111    0.889 
#    0.000    4.444    0.000    0.000    0.000    0.000 
#    0.000    0.000    0.000    0.000    0.000    0.000 
#
# Total GULP energy -100385.403372 kJ/mol
# GULP energy per Si atom -5576.966854 kJ/mol
# Density = 2.135624 g / cm^3
# Si number density = 21.404964 Si / 1000 Ang^3
#
#
#
# Elastic Constant Matrix: (Units=GPa)
#
#
# Indices 1 2 3 4 5 6 
#
# 1 46.5830 15.7387 19.5675 0.0000 0.0000 0.0000
# 2 15.7387 164.6777 67.0232 0.0000 0.0000 0.0000
# 3 19.5675 67.0232 170.2588 0.0000 0.0000 0.0000
# 4 0.0000 0.0000 0.0000 35.8362 0.0000 0.0000
# 5 0.0000 0.0000 0.0000 0.0000 4.2820 0.0000
# 6 0.0000 0.0000 0.0000 0.0000 0.0000 10.1331
#
#
#
# Elastic Compliance Matrix: (Units=1/GPa)
#
#
# Indices 1 2 3 4 5 6 
#
# 1 0.022796 -0.001325 -0.002098 0.000000 0.000000 0.000000
# 2 -0.001325 0.007308 -0.002725 0.000000 0.000000 0.000000
# 3 -0.002098 -0.002725 0.007187 0.000000 0.000000 0.000000
# 4 0.000000 0.000000 0.000000 0.027905 0.000000 0.000000
# 5 0.000000 0.000000 0.000000 0.000000 0.233535 0.000000
# 6 0.000000 0.000000 0.000000 0.000000 0.000000 0.098686
#
#
# Mechanical properties :
#
#
# Convention : Reuss Voigt Hill
#
# Bulk Modulus (GPa) = 40.00663 65.13092 52.56877
# Shear Modulus (GPa) = 11.96044 28.66293 20.31169
#
# Velocity S-wave (km/s) = 2.36639 3.66331 3.08380
# Velocity P-wave (km/s) = 5.11834 6.95609 6.10674
#
# Compressibility (1/GPa) = 0.02499586
#
# Stress axis : x y z
#
# Youngs Moduli (GPa) = 43.86717 136.83717 139.13771
#
# Poissons Ratio (x) = 0.18126 0.29198
# Poissons Ratio (y) = 0.05811 0.37909
# Poissons Ratio (z) = 0.09205 0.37282
#
# Static dielectric constant tensor:
#      x y z
#    x 1.856470 0.000000 0.000000 
#    y 0.000000 1.905550 0.000000 
#    z 0.000000 0.000000 1.771550 
# 
# From -- ./inp_files/32935.got.cif
#   From: 2010.05.17/outbox.cif.g08.bks.cpg/sg22_17_cif.got.tgz:32935.got - 2010.06.03 23:40:54.
