data_PCOD9327170
_publ_section_title
;
Structure prediction by ZEFSAII (Michael W. Deem and Ramdas Pophale) SiO2 
 PCOD9327170
Probable space group: F 2 2 2
;
_chemical_formula_sum "Si O2"
_cell_formula_units_Z 108
_cell_length_a 31.824138
_cell_length_b 9.687091
_cell_length_c 15.887961
_cell_angle_alpha 90.000000
_cell_angle_beta 90.000000
_cell_angle_gamma 90.000000
_cell_volume 4897.993378
_symmetry_space_group_name_H-M "F 2 2 2"
_symmetry_group_IT_number 22
_symmetry_cell_setting 'orthorhombic'
loop_
_space_group_symop_operation_xyz
x,y,z
-x,-y,z
x,-y,-z
-x,y,-z
x,1/2+y,1/2+z
-x,1/2-y,1/2+z
x,1/2-y,1/2-z
-x,1/2+y,1/2-z
1/2+x,y,1/2+z
1/2-x,-y,1/2+z
1/2+x,-y,1/2-z
1/2-x,y,1/2-z
1/2+x,1/2+y,z
1/2-x,1/2-y,z
1/2+x,1/2-y,-z
1/2-x,1/2+y,-z
loop_
_atom_site_type_symbol
_atom_site_label
_atom_site_fract_x
_atom_site_fract_y
_atom_site_fract_z
Si Si1 0.453490 0.767145 0.500283
Si Si2 0.881255 0.589496 0.069393
Si Si3 0.116976 0.589175 0.232374
Si Si4 0.547786 0.493192 0.140599
Si Si5 0.694187 0.750391 0.110286
Si Si6 0.750000 0.750000 0.543073
Si Si7 0.750000 0.750000 0.250000
Si Si8 0.712525 0.945611 0.816575
O O1 0.500000 0.707114 0.500000
O O2 0.419826 0.652468 0.519467
O O3 0.447969 0.853722 0.414770
O O4 0.451135 0.880890 0.574763
O O5 0.892937 0.485884 0.143922
O O6 0.854840 0.722371 0.101591
O O7 0.855788 0.500000 0.000000
O O8 0.106776 0.750000 0.250000
O O9 0.087581 0.506540 0.297822
O O10 0.167990 0.581156 0.230117
O O11 0.500000 0.500000 0.178472
O O12 0.715944 0.673818 0.188643
O O13 0.708086 0.905775 0.137638
O O14 0.715070 0.696988 0.024526
O O15 0.724125 0.652938 0.605544
O O16 0.750000 0.928110 0.750000
#
# Coordination Sequence:
#
# PCOD9327170 Si02
#       8
#    16  16  16  16  16   8   4  16
#     4   9  20  42  69  93 127 169 218 272 332 406
#     4  11  23  39  62  92 129 171 217 278 328 394
#     4  11  23  40  63  95 136 172 219 276 336 401
#     4   9  20  43  67  93 130 173 215 274 342 399
#     4  10  22  39  61  86 124 161 217 263 326 381
#     4  11  21  37  61  86 116 164 207 257 317 377
#     4  10  20  40  62  86 122 172 202 276 328 380
#     4  11  22  39  63  90 126 169 218 267 323 389
#
# _framework density 22.049845000000001
#
# number of rings (size 3 to 8) (size 9 to 14) (size 15 to 20)
#    0.000    1.778    0.741    5.111    0.000    4.444 
#    8.000    0.000    0.000    0.000    0.000    0.000 
#    0.000    0.000    0.000    0.000    0.000    0.000 
#
# Total GULP energy -150378.829000 kJ/mol
# GULP energy per Si atom -5569.586259 kJ/mol
# Density = 2.199966 g / cm^3
# Si number density = 22.049845 Si / 1000 Ang^3
#
#
#
# Elastic Constant Matrix: (Units=GPa)
#
#
# Indices 1 2 3 4 5 6 
#
# 1 152.3236 39.8754 79.5869 0.0000 0.0000 0.0000
# 2 39.8754 47.8357 10.7805 0.0000 0.0000 0.0000
# 3 79.5869 10.7805 137.5275 0.0000 0.0000 0.0000
# 4 0.0000 0.0000 0.0000 18.7730 0.0000 0.0000
# 5 0.0000 0.0000 0.0000 0.0000 43.0798 0.0000
# 6 0.0000 0.0000 0.0000 0.0000 0.0000 33.8096
#
#
#
# Elastic Compliance Matrix: (Units=1/GPa)
#
#
# Indices 1 2 3 4 5 6 
#
# 1 0.012167 -0.008709 -0.006358 0.000000 0.000000 0.000000
# 2 -0.008709 0.027515 0.002883 0.000000 0.000000 0.000000
# 3 -0.006358 0.002883 0.010725 0.000000 0.000000 0.000000
# 4 0.000000 0.000000 0.000000 0.053268 0.000000 0.000000
# 5 0.000000 0.000000 0.000000 0.000000 0.023213 0.000000
# 6 0.000000 0.000000 0.000000 0.000000 0.000000 0.029577
#
#
# Mechanical properties :
#
#
# Convention : Reuss Voigt Hill
#
# Bulk Modulus (GPa) = 38.40525 66.46358 52.43441
# Shear Modulus (GPa) = 26.38332 32.96208 29.67270
#
# Velocity S-wave (km/s) = 3.46284 3.87057 3.67237
# Velocity P-wave (km/s) = 5.78305 7.08400 6.46632
#
# Compressibility (1/GPa) = 0.02603811
#
# Stress axis : x y z
#
# Youngs Moduli (GPa) = 82.18893 36.34353 93.24153
#
# Poissons Ratio (x) = 0.31653 0.59286
# Poissons Ratio (y) = 0.71582 -0.26884
# Poissons Ratio (z) = 0.52259 -0.10479
#
# Static dielectric constant tensor:
#      x y z
#    x 1.858710 0.000000 0.000000 
#    y 0.000000 2.069850 0.000000 
#    z 0.000000 0.000000 1.875250 
# 
# From -- ./inp_files/33544.got.cif
#   From: 2010.05.17/outbox.cif.g08.bks.cpg/sg22_17_cif.got.tgz:33544.got - 2010.06.03 23:40:54.
