data_PCOD9327256
_publ_section_title
;
Structure prediction by ZEFSAII (Michael W. Deem and Ramdas Pophale) SiO2 
 PCOD9327256
Probable space group: F 2 2 2
;
_chemical_formula_sum "Si O2"
_cell_formula_units_Z 84
_cell_length_a 8.521596
_cell_length_b 22.978221
_cell_length_c 20.478765
_cell_angle_alpha 90.000000
_cell_angle_beta 90.000000
_cell_angle_gamma 90.000000
_cell_volume 4009.969832
_symmetry_space_group_name_H-M "F 2 2 2"
_symmetry_group_IT_number 22
_symmetry_cell_setting 'orthorhombic'
loop_
_space_group_symop_operation_xyz
x,y,z
-x,-y,z
x,-y,-z
-x,y,-z
x,1/2+y,1/2+z
-x,1/2-y,1/2+z
x,1/2-y,1/2-z
-x,1/2+y,1/2-z
1/2+x,y,1/2+z
1/2-x,-y,1/2+z
1/2+x,-y,1/2-z
1/2-x,y,1/2-z
1/2+x,1/2+y,z
1/2-x,1/2-y,z
1/2+x,1/2-y,-z
1/2-x,1/2+y,-z
loop_
_atom_site_type_symbol
_atom_site_label
_atom_site_fract_x
_atom_site_fract_y
_atom_site_fract_z
Si Si1 0.064715 0.144168 0.850467
Si Si2 0.500000 0.000000 0.000000
Si Si3 0.750000 0.250000 0.126866
Si Si4 0.762660 0.580879 0.170782
Si Si5 0.000000 0.500000 0.500000
Si Si6 0.750000 0.250000 0.750000
Si Si7 0.506856 0.331650 0.301197
Si Si8 0.251728 0.041786 0.903176
O O1 0.117893 0.200269 0.894306
O O2 0.199765 0.095662 0.859691
O O3 0.888323 0.116286 0.858291
O O4 0.059498 0.158845 0.773383
O O5 0.602113 0.040176 0.047924
O O6 0.638083 0.205560 0.164279
O O7 0.750000 0.577315 0.250000
O O8 0.931717 0.612446 0.163042
O O9 0.760543 0.517141 0.139319
O O10 0.107654 0.537684 0.453568
O O11 0.644104 0.290215 0.705562
#
# Coordination Sequence:
#
# PCOD9327256 Si02
#       8
#    16   4   8  16   4   4  16  16
#     4  11  20  36  59  90 125 163 206 250 307 390
#     4  10  28  46  62  92 120 166 228 272 322 370
#     4  12  23  34  56  92 135 175 204 242 321 392
#     4  10  21  38  62  96 131 161 202 262 330 388
#     4  10  20  42  74  80 112 166 228 264 302 386
#     4  12  16  34  52  76 138 188 216 226 284 394
#     4  11  20  34  56  91 136 177 202 250 307 397
#     4  11  23  44  65  94 117 168 214 271 327 373
#
# _framework density 20.947789
#
# number of rings (size 3 to 8) (size 9 to 14) (size 15 to 20)
#    0.000    1.143    6.667    1.143    2.667    1.524 
#    3.429    0.000    0.000    1.143    0.000    0.000 
#    0.000    0.000    0.000    0.000    0.000    0.000 
#
# Total GULP energy -116936.992464 kJ/mol
# GULP energy per Si atom -5568.428213 kJ/mol
# Density = 2.090011 g / cm^3
# Si number density = 20.947789 Si / 1000 Ang^3
#
#
#
# Elastic Constant Matrix: (Units=GPa)
#
#
# Indices 1 2 3 4 5 6 
#
# 1 118.8034 38.9886 29.6771 0.0000 0.0000 0.0000
# 2 38.9886 131.3848 26.5091 0.0000 0.0000 0.0000
# 3 29.6771 26.5091 41.2288 0.0000 0.0000 0.0000
# 4 0.0000 0.0000 0.0000 -5.3438 0.0000 0.0000
# 5 0.0000 0.0000 0.0000 0.0000 36.9085 0.0000
# 6 0.0000 0.0000 0.0000 0.0000 0.0000 18.4717
#
#
#
# Elastic Compliance Matrix: (Units=1/GPa)
#
#
# Indices 1 2 3 4 5 6 
#
# 1 0.010641 -0.001853 -0.006468 0.000000 0.000000 0.000000
# 2 -0.001853 0.009068 -0.004497 0.000000 0.000000 0.000000
# 3 -0.006468 -0.004497 0.031803 0.000000 0.000000 0.000000
# 4 0.000000 0.000000 0.000000 -0.187133 0.000000 0.000000
# 5 0.000000 0.000000 0.000000 0.000000 0.027094 0.000000
# 6 0.000000 0.000000 0.000000 0.000000 0.000000 0.054137
#
#
# Mechanical properties :
#
#
# Convention : Reuss Voigt Hill
#
# Bulk Modulus (GPa) = 38.64654 53.52961 46.08808
# Shear Modulus (GPa) = -248.40057 23.09011 -112.65523
#
# Velocity S-wave (km/s) = -10.90129 3.32365 -7.34138
# Velocity P-wave (km/s) = 11.83055 6.35123 7.05775
#
# Compressibility (1/GPa) = 0.02587554
#
# Stress axis : x y z
#
# Youngs Moduli (GPa) = 93.97551 110.27320 31.44400
#
# Poissons Ratio (x) = 0.20430 0.20339
# Poissons Ratio (y) = 0.17410 0.14141
# Poissons Ratio (z) = 0.60787 0.49592
#
# Static dielectric constant tensor:
#      x y z
#    x 1.857910 0.000000 0.000000 
#    y 0.000000 1.862720 0.000000 
#    z 0.000000 0.000000 1.736050 
# 
# From -- ./inp_files/47249.got.cif
#   From: 2010.05.17/outbox.cif.g08.bks.cpg/sg22_24_cif.got.tgz:47249.got - 2010.06.03 23:40:54.
