data_PCOD9327765
_publ_section_title
;
Structure prediction by ZEFSAII (Michael W. Deem and Ramdas Pophale) SiO2 
 PCOD9327765
Probable space group: F 2 2 2
;
_chemical_formula_sum "Si O2"
_cell_formula_units_Z 80
_cell_length_a 10.246161
_cell_length_b 21.184890
_cell_length_c 17.279486
_cell_angle_alpha 90.000000
_cell_angle_beta 90.000000
_cell_angle_gamma 90.000000
_cell_volume 3750.750784
_symmetry_space_group_name_H-M "F 2 2 2"
_symmetry_group_IT_number 22
_symmetry_cell_setting 'orthorhombic'
loop_
_space_group_symop_operation_xyz
x,y,z
-x,-y,z
x,-y,-z
-x,y,-z
x,1/2+y,1/2+z
-x,1/2-y,1/2+z
x,1/2-y,1/2-z
-x,1/2+y,1/2-z
1/2+x,y,1/2+z
1/2-x,-y,1/2+z
1/2+x,-y,1/2-z
1/2-x,y,1/2-z
1/2+x,1/2+y,z
1/2-x,1/2-y,z
1/2+x,1/2-y,-z
1/2-x,1/2+y,-z
loop_
_atom_site_type_symbol
_atom_site_label
_atom_site_fract_x
_atom_site_fract_y
_atom_site_fract_z
Si Si1 0.964925 0.712967 0.676792
Si Si2 0.126669 0.648117 0.543082
Si Si3 0.621226 0.935013 0.046235
Si Si4 0.630608 0.504283 0.293722
Si Si5 0.250000 0.618578 0.250000
Si Si6 0.250000 0.750000 0.427540
O O1 0.021468 0.750000 0.750000
O O2 0.860187 0.660890 0.708541
O O3 0.626500 0.737771 0.628620
O O4 0.070473 0.681989 0.619871
O O5 0.243757 0.600637 0.554464
O O6 0.190932 0.697544 0.483396
O O7 0.000000 0.620040 0.500000
O O8 0.588868 0.954787 0.133393
O O9 0.500000 0.903143 0.000000
O O10 0.642831 0.000000 0.000000
O O11 0.500000 0.500000 0.242657
O O12 0.750000 0.536433 0.250000
O O13 0.684653 0.433112 0.308416
#
# Coordination Sequence:
#
# PCOD9327765 Si02
#       6
#    16  16  16  16   8   8
#     4  11  21  43  72 101 133 184 238 283 354 422
#     4  10  26  42  68 107 134 175 236 297 348 405
#     4  11  24  45  68  99 141 187 228 276 357 424
#     4  10  24  42  63  98 136 178 227 276 336 410
#     4  10  23  38  74  96 138 181 230 280 356 410
#     4  10  21  44  61  98 138 180 218 286 353 420
#
# _framework density 21.329063999999999
#
# number of rings (size 3 to 8) (size 9 to 14) (size 15 to 20)
#    0.600    1.000    4.000    0.000    8.400    2.800 
#    3.600    0.500    0.000    0.000    0.000    0.000 
#    0.000    0.000    0.000    0.000    0.000    0.000 
#
# Total GULP energy -111397.987177 kJ/mol
# GULP energy per Si atom -5569.899359 kJ/mol
# Density = 2.128052 g / cm^3
# Si number density = 21.329064 Si / 1000 Ang^3
#
#
#
# Elastic Constant Matrix: (Units=GPa)
#
#
# Indices 1 2 3 4 5 6 
#
# 1 170.6134 36.8142 55.1399 0.0000 0.0000 0.0000
# 2 36.8142 26.8859 17.9862 0.0000 0.0000 0.0000
# 3 55.1399 17.9862 103.0993 0.0000 0.0000 0.0000
# 4 0.0000 0.0000 0.0000 9.3469 0.0000 0.0000
# 5 0.0000 0.0000 0.0000 0.0000 -23.8848 0.0000
# 6 0.0000 0.0000 0.0000 0.0000 0.0000 29.7025
#
#
#
# Elastic Compliance Matrix: (Units=1/GPa)
#
#
# Indices 1 2 3 4 5 6 
#
# 1 0.009092 -0.010412 -0.003046 0.000000 0.000000 0.000000
# 2 -0.010412 0.054032 -0.003858 0.000000 0.000000 0.000000
# 3 -0.003046 -0.003858 0.012002 0.000000 0.000000 0.000000
# 4 0.000000 0.000000 0.000000 0.106988 0.000000 0.000000
# 5 0.000000 0.000000 0.000000 0.000000 -0.041868 0.000000
# 6 0.000000 0.000000 0.000000 0.000000 0.000000 0.033667
#
#
# Mechanical properties :
#
#
# Convention : Reuss Voigt Hill
#
# Bulk Modulus (GPa) = 24.69506 57.83102 41.26304
# Shear Modulus (GPa) = 22.51815 15.74347 19.13081
#
# Velocity S-wave (km/s) = 3.25275 2.71979 2.99814
# Velocity P-wave (km/s) = 5.07055 6.08569 5.60116
#
# Compressibility (1/GPa) = 0.04049393
#
# Stress axis : x y z
#
# Youngs Moduli (GPa) = 109.98161 18.50761 83.32197
#
# Poissons Ratio (x) = 0.19270 0.25383
# Poissons Ratio (y) = 1.14514 0.32142
# Poissons Ratio (z) = 0.33505 0.07139
#
# Static dielectric constant tensor:
#      x y z
#    x 1.784520 0.000000 0.000000 
#    y 0.000000 1.821420 0.000000 
#    z 0.000000 0.000000 1.869620 
# 
# From -- ./inp_files/35134.got.cif
#   From: 2010.05.17/outbox.cif.g08.bks.cpg/sg22_18_cif.got.tgz:35134.got - 2010.06.03 23:40:54.
