data_PCOD9327970
_publ_section_title
;
Structure prediction by ZEFSAII (Michael W. Deem and Ramdas Pophale) SiO2 
 PCOD9327970
Probable space group: F 2 2 2
;
_chemical_formula_sum "Si O2"
_cell_formula_units_Z 64
_cell_length_a 10.721111
_cell_length_b 18.070809
_cell_length_c 15.011602
_cell_angle_alpha 90.000000
_cell_angle_beta 90.000000
_cell_angle_gamma 90.000000
_cell_volume 2908.334999
_symmetry_space_group_name_H-M "F 2 2 2"
_symmetry_group_IT_number 22
_symmetry_cell_setting 'orthorhombic'
loop_
_space_group_symop_operation_xyz
x,y,z
-x,-y,z
x,-y,-z
-x,y,-z
x,1/2+y,1/2+z
-x,1/2-y,1/2+z
x,1/2-y,1/2-z
-x,1/2+y,1/2-z
1/2+x,y,1/2+z
1/2-x,-y,1/2+z
1/2+x,-y,1/2-z
1/2-x,y,1/2-z
1/2+x,1/2+y,z
1/2-x,1/2-y,z
1/2+x,1/2-y,-z
1/2-x,1/2+y,-z
loop_
_atom_site_type_symbol
_atom_site_label
_atom_site_fract_x
_atom_site_fract_y
_atom_site_fract_z
Si Si1 0.250000 0.250000 0.250000
Si Si2 0.250000 0.579836 0.250000
Si Si3 0.880778 0.859511 0.109342
Si Si4 0.500000 0.500000 0.500000
Si Si5 0.000000 0.757010 0.500000
Si Si6 0.000000 0.000000 0.202344
Si Si7 0.304132 0.121727 0.945040
O O1 0.191507 0.189121 0.182430
O O2 0.376698 0.530978 0.251332
O O3 0.252411 0.623436 0.344292
O O4 0.946149 0.931891 0.146388
O O5 0.979372 0.798490 0.079971
O O6 0.798298 0.884007 0.023621
O O7 0.404589 0.554589 0.449383
O O8 0.883100 0.807124 0.524825
#
# Coordination Sequence:
#
# PCOD9327970 Si02
#       7
#     4   8  16   4   8   8  16
#     4  12  26  48  84 106 160 210 264 322 398 482
#     4  12  27  46  77 112 164 200 258 326 393 469
#     4  12  26  49  75 111 153 204 265 326 391 472
#     4  10  22  40  78 100 164 204 258 328 394 468
#     4  11  24  46  72 105 154 208 258 325 400 460
#     4  12  29  49  79 119 156 210 267 323 397 467
#     4  11  24  46  70 114 152 208 261 323 398 470
#
# _framework density 22.005718000000002
#
# number of rings (size 3 to 8) (size 9 to 14) (size 15 to 20)
#    0.000    0.500    2.500    4.500    3.500    5.500 
#    0.000    5.000    0.000    0.000    0.000    0.000 
#    0.000    0.000    0.000    0.000    0.000    0.000 
#
# Total GULP energy -89269.966263 kJ/mol
# GULP energy per Si atom -5579.372891 kJ/mol
# Density = 2.195563 g / cm^3
# Si number density = 22.005718 Si / 1000 Ang^3
#
#
#
# Elastic Constant Matrix: (Units=GPa)
#
#
# Indices 1 2 3 4 5 6 
#
# 1 120.0020 49.3393 59.3464 0.0000 0.0000 0.0000
# 2 49.3393 150.9343 66.3974 0.0000 0.0000 0.0000
# 3 59.3464 66.3974 144.4011 0.0000 0.0000 0.0000
# 4 0.0000 0.0000 0.0000 17.1653 0.0000 0.0000
# 5 0.0000 0.0000 0.0000 0.0000 21.6453 0.0000
# 6 0.0000 0.0000 0.0000 0.0000 0.0000 45.6431
#
#
#
# Elastic Compliance Matrix: (Units=1/GPa)
#
#
# Indices 1 2 3 4 5 6 
#
# 1 0.010920 -0.002000 -0.003568 0.000000 0.000000 0.000000
# 2 -0.002000 0.008672 -0.003165 0.000000 0.000000 0.000000
# 3 -0.003568 -0.003165 0.009847 0.000000 0.000000 0.000000
# 4 0.000000 0.000000 0.000000 0.058257 0.000000 0.000000
# 5 0.000000 0.000000 0.000000 0.000000 0.046199 0.000000
# 6 0.000000 0.000000 0.000000 0.000000 0.000000 0.021909
#
#
# Mechanical properties :
#
#
# Convention : Reuss Voigt Hill
#
# Bulk Modulus (GPa) = 83.53136 85.05595 84.29365
# Shear Modulus (GPa) = 28.20674 32.90770 30.55722
#
# Velocity S-wave (km/s) = 3.58410 3.87126 3.73044
# Velocity P-wave (km/s) = 7.42758 7.66276 7.54609
#
# Compressibility (1/GPa) = 0.01197155
#
# Stress axis : x y z
#
# Youngs Moduli (GPa) = 91.57312 115.31823 101.55167
#
# Poissons Ratio (x) = 0.23063 0.36238
# Poissons Ratio (y) = 0.18314 0.32145
# Poissons Ratio (z) = 0.32677 0.36503
#
# Static dielectric constant tensor:
#      x y z
#    x 1.867410 0.000000 0.000000 
#    y 0.000000 1.775880 0.000000 
#    z 0.000000 0.000000 1.715040 
# 
# From -- ./inp_files/19479.got.cif
#   From: 2010.05.17/outbox.cif.g08.bks.cpg/sg22_10_cif.got.tgz:19479.got - 2010.06.03 23:40:54.
