data_PCOD9327710
_publ_section_title
;
Structure prediction by ZEFSAII (Michael W. Deem and Ramdas Pophale) SiO2 
 PCOD9327710
Probable space group: F 2 2 2
;
_chemical_formula_sum "Si O2"
_cell_formula_units_Z 96
_cell_length_a 20.956506
_cell_length_b 9.921624
_cell_length_c 25.082189
_cell_angle_alpha 90.000000
_cell_angle_beta 90.000000
_cell_angle_gamma 90.000000
_cell_volume 5215.153270
_symmetry_space_group_name_H-M "F 2 2 2"
_symmetry_group_IT_number 22
_symmetry_cell_setting 'orthorhombic'
loop_
_space_group_symop_operation_xyz
x,y,z
-x,-y,z
x,-y,-z
-x,y,-z
x,1/2+y,1/2+z
-x,1/2-y,1/2+z
x,1/2-y,1/2-z
-x,1/2+y,1/2-z
1/2+x,y,1/2+z
1/2-x,-y,1/2+z
1/2+x,-y,1/2-z
1/2-x,y,1/2-z
1/2+x,1/2+y,z
1/2-x,1/2-y,z
1/2+x,1/2-y,-z
1/2-x,1/2+y,-z
loop_
_atom_site_type_symbol
_atom_site_label
_atom_site_fract_x
_atom_site_fract_y
_atom_site_fract_z
Si Si1 0.310108 0.492487 0.679128
Si Si2 0.901068 0.744526 0.849165
Si Si3 0.340542 0.015631 0.304748
Si Si4 0.997642 0.164262 0.562720
Si Si5 0.887720 0.288757 0.862756
Si Si6 0.484548 0.365527 0.281998
O O1 0.341397 0.356862 0.655842
O O2 0.339318 0.517809 0.739391
O O3 0.234120 0.489911 0.683538
O O4 0.326914 0.615375 0.639454
O O5 0.879163 0.892204 0.831029
O O6 0.951222 0.695467 0.804727
O O7 0.942795 0.726161 0.903290
O O8 0.367521 0.151533 0.332767
O O9 0.930830 0.226948 0.584954
O O10 0.000000 0.192047 0.500000
O O11 0.000000 0.000000 0.568901
O O12 0.938088 0.386512 0.830961
O O13 0.500000 0.500000 0.250942
O O14 0.451171 0.250000 0.250000
#
# Coordination Sequence:
#
# PCOD9327710 Si02
#       6
#    16  16  16  16  16  16
#     4  11  20  39  55  82 124 167 198 216 263 355
#     4  11  21  37  56  86 113 148 200 237 283 346
#     4  11  24  33  57  86 124 165 186 228 283 331
#     4  10  21  42  68  85 105 147 196 250 310 355
#     4  11  21  37  56  86 113 148 200 237 283 346
#     4  11  21  31  51  76 110 145 180 235 284 339
#
# _framework density 18.407895
#
# number of rings (size 3 to 8) (size 9 to 14) (size 15 to 20)
#    0.000    1.167    3.333    5.000    2.333    4.667 
#    0.000    1.667    0.000    6.000    0.000    0.000 
#    0.000    0.000    0.000    0.000    0.000    0.000 
#
# Total GULP energy -133633.769031 kJ/mol
# GULP energy per Si atom -5568.073710 kJ/mol
# Density = 1.836600 g / cm^3
# Si number density = 18.407895 Si / 1000 Ang^3
#
#
#
# Elastic Constant Matrix: (Units=GPa)
#
#
# Indices 1 2 3 4 5 6 
#
# 1 105.0489 32.4743 48.8153 0.0000 0.0000 0.0000
# 2 32.4743 104.7976 31.9977 0.0000 0.0000 0.0000
# 3 48.8153 31.9977 114.1296 0.0000 0.0000 0.0000
# 4 0.0000 0.0000 0.0000 18.6664 0.0000 0.0000
# 5 0.0000 0.0000 0.0000 0.0000 23.0168 0.0000
# 6 0.0000 0.0000 0.0000 0.0000 0.0000 27.8071
#
#
#
# Elastic Compliance Matrix: (Units=1/GPa)
#
#
# Indices 1 2 3 4 5 6 
#
# 1 0.012425 -0.002436 -0.004631 0.000000 0.000000 0.000000
# 2 -0.002436 0.010913 -0.002018 0.000000 0.000000 0.000000
# 3 -0.004631 -0.002018 0.011309 0.000000 0.000000 0.000000
# 4 0.000000 0.000000 0.000000 0.053572 0.000000 0.000000
# 5 0.000000 0.000000 0.000000 0.000000 0.043447 0.000000
# 6 0.000000 0.000000 0.000000 0.000000 0.000000 0.035962
#
#
# Mechanical properties :
#
#
# Convention : Reuss Voigt Hill
#
# Bulk Modulus (GPa) = 60.69336 61.17231 60.93284
# Shear Modulus (GPa) = 26.13848 27.94398 27.04123
#
# Velocity S-wave (km/s) = 3.77232 3.90043 3.83691
# Velocity P-wave (km/s) = 7.21227 7.32040 7.26654
#
# Compressibility (1/GPa) = 0.01647627
#
# Stress axis : x y z
#
# Youngs Moduli (GPa) = 80.48592 91.63276 88.42887
#
# Poissons Ratio (x) = 0.22322 0.40953
# Poissons Ratio (y) = 0.19607 0.17842
# Poissons Ratio (z) = 0.37275 0.18489
#
# Static dielectric constant tensor:
#      x y z
#    x 1.677280 0.000000 0.000000 
#    y 0.000000 1.695200 0.000000 
#    z 0.000000 0.000000 1.691250 
# 
# From -- ./inp_files/53860.got.cif
#   From: 2010.05.17/outbox.cif.g08.bks.cpg/sg22_27_cif.got.tgz:53860.got - 2010.06.03 23:40:54.
