data_PCOD9327796
_publ_section_title
;
Structure prediction by ZEFSAII (Michael W. Deem and Ramdas Pophale) SiO2 
 PCOD9327796
Probable space group: F 2 2 2
;
_chemical_formula_sum "Si O2"
_cell_formula_units_Z 128
_cell_length_a 17.040087
_cell_length_b 21.722542
_cell_length_c 18.871171
_cell_angle_alpha 90.000000
_cell_angle_beta 90.000000
_cell_angle_gamma 90.000000
_cell_volume 6985.239535
_symmetry_space_group_name_H-M "F 2 2 2"
_symmetry_group_IT_number 22
_symmetry_cell_setting 'orthorhombic'
loop_
_space_group_symop_operation_xyz
x,y,z
-x,-y,z
x,-y,-z
-x,y,-z
x,1/2+y,1/2+z
-x,1/2-y,1/2+z
x,1/2-y,1/2-z
-x,1/2+y,1/2-z
1/2+x,y,1/2+z
1/2-x,-y,1/2+z
1/2+x,-y,1/2-z
1/2-x,y,1/2-z
1/2+x,1/2+y,z
1/2-x,1/2-y,z
1/2+x,1/2-y,-z
1/2-x,1/2+y,-z
loop_
_atom_site_type_symbol
_atom_site_label
_atom_site_fract_x
_atom_site_fract_y
_atom_site_fract_z
Si Si1 0.683099 0.146716 0.811297
Si Si2 0.541548 0.739238 0.324252
Si Si3 0.856519 0.870871 0.967419
Si Si4 0.709927 0.182555 0.971726
Si Si5 0.088581 0.871939 0.872066
Si Si6 0.941156 0.447913 0.356718
Si Si7 0.070201 0.241539 0.551762
Si Si8 0.338107 0.531834 0.766926
O O1 0.750000 0.158083 0.750000
O O2 0.609726 0.191763 0.804730
O O3 0.709988 0.158251 0.891467
O O4 0.649789 0.077925 0.798852
O O5 0.499395 0.750000 0.250000
O O6 0.587567 0.799402 0.354785
O O7 0.476269 0.717960 0.379935
O O8 0.879689 0.924810 0.914441
O O9 0.884425 0.805436 0.934684
O O10 0.765112 0.862405 0.983455
O O11 0.898641 0.878928 0.043909
O O12 0.750000 0.250000 0.969094
O O13 0.627182 0.194923 0.010077
O O14 0.148774 0.918199 0.831710
O O15 0.002865 0.893270 0.844564
O O16 0.897111 0.477855 0.289471
O O17 0.000000 0.500000 0.386334
O O18 0.000000 0.259407 0.500000
O O19 0.250000 0.509101 0.750000
#
# Coordination Sequence:
#
# PCOD9327796 Si02
#       8
#    16  16  16  16  16  16  16  16
#     4  11  22  32  54  88 131 157 196 256 324 386
#     4  12  22  33  57  90 128 163 199 254 322 385
#     4  11  19  35  60  86 122 153 200 263 309 368
#     4  10  22  33  57  91 127 168 202 250 320 394
#     4  11  20  35  58  91 114 151 200 256 316 369
#     4  10  22  37  59  83 113 154 206 253 308 363
#     4  11  19  36  56  87 131 169 206 242 308 392
#     4  10  22  37  52  80 121 158 198 250 309 363
#
# _framework density 18.324352999999999
#
# number of rings (size 3 to 8) (size 9 to 14) (size 15 to 20)
#    0.000    1.250    5.000    2.625    1.750    4.000 
#    0.000    1.250    0.000    2.625    0.000    0.000 
#    0.000    0.000    0.000    0.000    0.000    0.000 
#
# Total GULP energy -178215.467029 kJ/mol
# GULP energy per Si atom -5569.233345 kJ/mol
# Density = 1.828265 g / cm^3
# Si number density = 18.324353 Si / 1000 Ang^3
#
#
#
# Elastic Constant Matrix: (Units=GPa)
#
#
# Indices 1 2 3 4 5 6 
#
# 1 86.4732 20.8226 31.4870 0.0000 0.0000 0.0000
# 2 20.8226 40.2539 3.2570 0.0000 0.0000 0.0000
# 3 31.4870 3.2570 67.7788 0.0000 0.0000 0.0000
# 4 0.0000 0.0000 0.0000 18.5994 0.0000 0.0000
# 5 0.0000 0.0000 0.0000 0.0000 35.1178 0.0000
# 6 0.0000 0.0000 0.0000 0.0000 0.0000 31.1126
#
#
#
# Elastic Compliance Matrix: (Units=1/GPa)
#
#
# Indices 1 2 3 4 5 6 
#
# 1 0.015988 -0.007699 -0.007057 0.000000 0.000000 0.000000
# 2 -0.007699 0.028647 0.002200 0.000000 0.000000 0.000000
# 3 -0.007057 0.002200 0.017927 0.000000 0.000000 0.000000
# 4 0.000000 0.000000 0.000000 0.053765 0.000000 0.000000
# 5 0.000000 0.000000 0.000000 0.000000 0.028476 0.000000
# 6 0.000000 0.000000 0.000000 0.000000 0.000000 0.032141
#
#
# Mechanical properties :
#
#
# Convention : Reuss Voigt Hill
#
# Bulk Modulus (GPa) = 26.70315 33.95990 30.33153
# Shear Modulus (GPa) = 23.30572 26.22857 24.76715
#
# Velocity S-wave (km/s) = 3.57016 3.78742 3.68040
# Velocity P-wave (km/s) = 5.62129 6.13995 5.88633
#
# Compressibility (1/GPa) = 0.03744876
#
# Stress axis : x y z
#
# Youngs Moduli (GPa) = 62.54695 34.90765 55.78286
#
# Poissons Ratio (x) = 0.26876 0.39368
# Poissons Ratio (y) = 0.48157 -0.12273
# Poissons Ratio (z) = 0.44141 -0.07680
#
# Static dielectric constant tensor:
#      x y z
#    x 1.691930 0.000000 0.000000 
#    y 0.000000 1.673030 0.000000 
#    z 0.000000 0.000000 1.688320 
# 
# From -- ./inp_files/38363.got.cif
#   From: 2010.05.17/outbox.cif.g08.bks.cpg/sg22_20_cif.got.tgz:38363.got - 2010.06.03 23:40:54.
