data_PCOD9327281
_publ_section_title
;
Structure prediction by ZEFSAII (Michael W. Deem and Ramdas Pophale) SiO2 
 PCOD9327281
Probable space group: F 2 2 2
;
_chemical_formula_sum "Si O2"
_cell_formula_units_Z 60
_cell_length_a 14.703283
_cell_length_b 13.796554
_cell_length_c 11.455932
_cell_angle_alpha 90.000000
_cell_angle_beta 90.000000
_cell_angle_gamma 90.000000
_cell_volume 2323.888938
_symmetry_space_group_name_H-M "F 2 2 2"
_symmetry_group_IT_number 22
_symmetry_cell_setting 'orthorhombic'
loop_
_space_group_symop_operation_xyz
x,y,z
-x,-y,z
x,-y,-z
-x,y,-z
x,1/2+y,1/2+z
-x,1/2-y,1/2+z
x,1/2-y,1/2-z
-x,1/2+y,1/2-z
1/2+x,y,1/2+z
1/2-x,-y,1/2+z
1/2+x,-y,1/2-z
1/2-x,y,1/2-z
1/2+x,1/2+y,z
1/2-x,1/2-y,z
1/2+x,1/2-y,-z
1/2-x,1/2+y,-z
loop_
_atom_site_type_symbol
_atom_site_label
_atom_site_fract_x
_atom_site_fract_y
_atom_site_fract_z
Si Si1 0.000000 0.656593 0.500000
Si Si2 0.250000 0.250000 0.250000
Si Si3 0.346142 0.196875 0.916810
Si Si4 0.000000 0.000000 0.794153
Si Si5 0.750000 0.579179 0.750000
Si Si6 0.838350 0.429865 0.873798
O O1 0.079729 0.727585 0.457451
O O2 0.990373 0.588625 0.386355
O O3 0.188362 0.324242 0.177611
O O4 0.250000 0.250000 0.939352
O O5 0.331215 0.151531 0.786881
O O6 0.363109 0.101693 0.996340
O O7 0.082884 0.975512 0.705657
O O8 0.750230 0.501025 0.855405
#
# Coordination Sequence:
#
# PCOD9327281 Si02
#       6
#     8   4  16   8   8  16
#     4  11  28  50  83 120 172 226 289 348 446 515
#     4  10  20  44  74 114 150 222 282 344 400 528
#     4  12  26  51  80 118 163 224 288 352 431 522
#     4  11  26  48  77 118 170 218 274 360 426 510
#     4  11  27  47  77 112 162 210 281 347 425 503
#     4  11  24  46  79 113 161 220 282 350 424 504
#
# _framework density 25.81879
#
# number of rings (size 3 to 8) (size 9 to 14) (size 15 to 20)
#    0.000    0.800    1.333    4.400    7.467    0.000 
#    0.000    0.000    0.000    0.000    0.000    0.000 
#    0.000    0.000    0.000    0.000    0.000    0.000 
#
# Total GULP energy -83627.348451 kJ/mol
# GULP energy per Si atom -5575.156563 kJ/mol
# Density = 2.576003 g / cm^3
# Si number density = 25.818790 Si / 1000 Ang^3
#
#
#
# Elastic Constant Matrix: (Units=GPa)
#
#
# Indices 1 2 3 4 5 6 
#
# 1 144.9681 74.2505 71.9673 0.0000 0.0000 0.0000
# 2 74.2505 204.7629 70.3471 0.0000 0.0000 0.0000
# 3 71.9673 70.3471 174.2126 0.0000 0.0000 0.0000
# 4 0.0000 0.0000 0.0000 47.8826 0.0000 0.0000
# 5 0.0000 0.0000 0.0000 0.0000 46.3356 0.0000
# 6 0.0000 0.0000 0.0000 0.0000 0.0000 48.1539
#
#
#
# Elastic Compliance Matrix: (Units=1/GPa)
#
#
# Indices 1 2 3 4 5 6 
#
# 1 0.009647 -0.002472 -0.002987 0.000000 0.000000 0.000000
# 2 -0.002472 0.006304 -0.001524 0.000000 0.000000 0.000000
# 3 -0.002987 -0.001524 0.007590 0.000000 0.000000 0.000000
# 4 0.000000 0.000000 0.000000 0.020884 0.000000 0.000000
# 5 0.000000 0.000000 0.000000 0.000000 0.021582 0.000000
# 6 0.000000 0.000000 0.000000 0.000000 0.000000 0.020767
#
#
# Mechanical properties :
#
#
# Convention : Reuss Voigt Hill
#
# Bulk Modulus (GPa) = 104.45171 106.34148 105.39660
# Shear Modulus (GPa) = 48.10884 48.96633 48.53759
#
# Velocity S-wave (km/s) = 4.32131 4.35965 4.34052
# Velocity P-wave (km/s) = 8.08961 8.16205 8.12591
#
# Compressibility (1/GPa) = 0.00957380
#
# Stress axis : x y z
#
# Youngs Moduli (GPa) = 103.65878 158.63573 131.76007
#
# Poissons Ratio (x) = 0.39214 0.39357
# Poissons Ratio (y) = 0.25624 0.20084
# Poissons Ratio (z) = 0.30963 0.24181
#
# Static dielectric constant tensor:
#      x y z
#    x 2.119340 0.000000 0.000000 
#    y 0.000000 2.124830 0.000000 
#    z 0.000000 0.000000 2.161820 
# 
# From -- ./inp_files/20825.got.cif
#   From: 2010.05.17/outbox.cif.g08.bks.cpg/sg22_11_cif.got.tgz:20825.got - 2010.06.03 23:40:54.
