data_PCOD9327845
_publ_section_title
;
Structure prediction by ZEFSAII (Michael W. Deem and Ramdas Pophale) SiO2 
 PCOD9327845
Probable space group: F 2 2 2
;
_chemical_formula_sum "Si O2"
_cell_formula_units_Z 64
_cell_length_a 10.365677
_cell_length_b 30.348990
_cell_length_c 10.282052
_cell_angle_alpha 90.000000
_cell_angle_beta 90.000000
_cell_angle_gamma 90.000000
_cell_volume 3234.608402
_symmetry_space_group_name_H-M "F 2 2 2"
_symmetry_group_IT_number 22
_symmetry_cell_setting 'orthorhombic'
loop_
_space_group_symop_operation_xyz
x,y,z
-x,-y,z
x,-y,-z
-x,y,-z
x,1/2+y,1/2+z
-x,1/2-y,1/2+z
x,1/2-y,1/2-z
-x,1/2+y,1/2-z
1/2+x,y,1/2+z
1/2-x,-y,1/2+z
1/2+x,-y,1/2-z
1/2-x,y,1/2-z
1/2+x,1/2+y,z
1/2-x,1/2-y,z
1/2+x,1/2-y,-z
1/2-x,1/2+y,-z
loop_
_atom_site_type_symbol
_atom_site_label
_atom_site_fract_x
_atom_site_fract_y
_atom_site_fract_z
Si Si1 0.000000 0.898021 0.500000
Si Si2 0.692367 0.829532 0.117180
Si Si3 0.677562 0.703038 0.873647
Si Si4 0.363000 0.523187 0.361037
Si Si5 0.055199 0.750000 0.750000
O O1 0.912578 0.864630 0.420935
O O2 0.910996 0.928627 0.591940
O O3 0.750000 0.845825 0.250000
O O4 0.632761 0.781527 0.152864
O O5 0.795398 0.823731 0.002680
O O6 0.750000 0.681434 0.750000
O O7 0.750000 0.750000 0.889867
O O8 0.535020 0.716907 0.832104
O O9 0.500000 0.500000 0.319130
O O10 0.323493 0.500000 0.500000
O O11 0.250000 0.522061 0.250000
#
# Coordination Sequence:
#
# PCOD9327845 Si02
#       5
#     8  16  16  16   8
#     4  10  23  40  60  92 136 166 200 262 327 384
#     4  12  24  37  56  83 117 162 215 266 318 377
#     4   9  19  34  53  74 100 142 201 261 318 365
#     4   9  21  43  72 102 132 166 203 252 319 397
#     4  10  22  38  56  76 110 160 218 278 322 358
#
# _framework density 19.786011999999999
#
# number of rings (size 3 to 8) (size 9 to 14) (size 15 to 20)
#    0.000    2.500    0.000    4.875    0.000   12.500 
#    0.000    0.000    0.000    0.000    0.000    0.000 
#    0.000    0.000    0.000    0.000    0.000    0.000 
#
# Total GULP energy -89222.062614 kJ/mol
# GULP energy per Si atom -5576.378913 kJ/mol
# Density = 1.974098 g / cm^3
# Si number density = 19.786012 Si / 1000 Ang^3
#
#
#
# Elastic Constant Matrix: (Units=GPa)
#
#
# Indices 1 2 3 4 5 6 
#
# 1 122.5372 55.6669 95.4853 0.0000 0.0000 0.0000
# 2 55.6669 96.2424 57.6449 0.0000 0.0000 0.0000
# 3 95.4853 57.6449 182.6521 0.0000 0.0000 0.0000
# 4 0.0000 0.0000 0.0000 1.4584 0.0000 0.0000
# 5 0.0000 0.0000 0.0000 0.0000 25.5851 0.0000
# 6 0.0000 0.0000 0.0000 0.0000 0.0000 22.2960
#
#
#
# Elastic Compliance Matrix: (Units=1/GPa)
#
#
# Indices 1 2 3 4 5 6 
#
# 1 0.015560 -0.005090 -0.006528 0.000000 0.000000 0.000000
# 2 -0.005090 0.014477 -0.001908 0.000000 0.000000 0.000000
# 3 -0.006528 -0.001908 0.009490 0.000000 0.000000 0.000000
# 4 0.000000 0.000000 0.000000 0.685697 0.000000 0.000000
# 5 0.000000 0.000000 0.000000 0.000000 0.039085 0.000000
# 6 0.000000 0.000000 0.000000 0.000000 0.000000 0.044851
#
#
# Mechanical properties :
#
#
# Convention : Reuss Voigt Hill
#
# Bulk Modulus (GPa) = 80.16070 91.00288 85.58179
# Shear Modulus (GPa) = 5.94975 22.71020 14.32998
#
# Velocity S-wave (km/s) = 1.73597 3.39158 2.69411
# Velocity P-wave (km/s) = 6.67981 7.83776 7.28184
#
# Compressibility (1/GPa) = 0.01247494
#
# Stress axis : x y z
#
# Youngs Moduli (GPa) = 64.26815 69.07323 105.37767
#
# Poissons Ratio (x) = 0.35158 0.68789
# Poissons Ratio (y) = 0.32712 0.20108
# Poissons Ratio (z) = 0.41953 0.13180
#
# Static dielectric constant tensor:
#      x y z
#    x 1.744090 0.000000 0.000000 
#    y 0.000000 1.688120 0.000000 
#    z 0.000000 0.000000 1.726860 
# 
# From -- ./inp_files/8558.got.cif
#   From: 2010.05.17/outbox.cif.g08.bks.cpg/sg22_5_cif.got.tgz:8558.got - 2010.06.03 23:40:54.
