data_PCOD9327295
_publ_section_title
;
Structure prediction by ZEFSAII (Michael W. Deem and Ramdas Pophale) SiO2 
 PCOD9327295
Probable space group: F 2 2 2
;
_chemical_formula_sum "Si O2"
_cell_formula_units_Z 64
_cell_length_a 8.784684
_cell_length_b 16.969180
_cell_length_c 22.402299
_cell_angle_alpha 90.000000
_cell_angle_beta 90.000000
_cell_angle_gamma 90.000000
_cell_volume 3339.485712
_symmetry_space_group_name_H-M "F 2 2 2"
_symmetry_group_IT_number 22
_symmetry_cell_setting 'orthorhombic'
loop_
_space_group_symop_operation_xyz
x,y,z
-x,-y,z
x,-y,-z
-x,y,-z
x,1/2+y,1/2+z
-x,1/2-y,1/2+z
x,1/2-y,1/2-z
-x,1/2+y,1/2-z
1/2+x,y,1/2+z
1/2-x,-y,1/2+z
1/2+x,-y,1/2-z
1/2-x,y,1/2-z
1/2+x,1/2+y,z
1/2-x,1/2-y,z
1/2+x,1/2-y,-z
1/2-x,1/2+y,-z
loop_
_atom_site_type_symbol
_atom_site_label
_atom_site_fract_x
_atom_site_fract_y
_atom_site_fract_z
Si Si1 0.412385 0.779107 0.181107
Si Si2 0.500000 0.000000 0.000000
Si Si3 0.749483 0.573555 0.417204
Si Si4 0.656164 0.540790 0.689685
Si Si5 0.500000 0.000000 0.500000
Si Si6 0.750000 0.250000 0.870044
O O1 0.406981 0.750000 0.250000
O O2 0.250000 0.750000 0.153768
O O3 0.394635 0.872281 0.170002
O O4 0.581977 0.752312 0.161423
O O5 0.395739 0.052673 0.042439
O O6 0.737209 0.514645 0.359805
O O7 0.894448 0.551470 0.456937
O O8 0.751902 0.665425 0.402221
O O9 0.500000 0.500000 0.706435
O O10 0.750000 0.549832 0.750000
#
# Coordination Sequence:
#
# PCOD9327295 Si02
#       6
#    16   4  16  16   4   8
#     4  11  24  42  61 100 144 182 221 271 334 410
#     4  10  20  52  70  86 136 176 228 276 346 398
#     4  11  25  45  70  99 131 180 227 281 339 404
#     4  12  25  43  68 102 140 182 218 275 350 411
#     4  10  28  44  70  98 128 180 232 288 330 406
#     4  12  25  42  68 102 132 176 231 284 336 400
#
# _framework density 19.164626999999999
#
# number of rings (size 3 to 8) (size 9 to 14) (size 15 to 20)
#    0.000    0.750    6.250    0.375    8.750    1.000 
#    0.000    0.000    0.000    0.000    0.000    0.000 
#    0.000    0.000    0.000    0.000    0.000    0.000 
#
# Total GULP energy -89135.322255 kJ/mol
# GULP energy per Si atom -5570.957641 kJ/mol
# Density = 1.912101 g / cm^3
# Si number density = 19.164627 Si / 1000 Ang^3
#
#
#
# Elastic Constant Matrix: (Units=GPa)
#
#
# Indices 1 2 3 4 5 6 
#
# 1 193.3646 69.4525 56.5938 0.0000 0.0000 0.0000
# 2 69.4525 165.8503 40.0580 0.0000 0.0000 0.0000
# 3 56.5938 40.0580 81.9986 0.0000 0.0000 0.0000
# 4 0.0000 0.0000 0.0000 34.5251 0.0000 0.0000
# 5 0.0000 0.0000 0.0000 0.0000 -87.8374 0.0000
# 6 0.0000 0.0000 0.0000 0.0000 0.0000 -28.0113
#
#
#
# Elastic Compliance Matrix: (Units=1/GPa)
#
#
# Indices 1 2 3 4 5 6 
#
# 1 0.007025 -0.002008 -0.003868 0.000000 0.000000 0.000000
# 2 -0.002008 0.007410 -0.002234 0.000000 0.000000 0.000000
# 3 -0.003868 -0.002234 0.015956 0.000000 0.000000 0.000000
# 4 0.000000 0.000000 0.000000 0.028964 0.000000 0.000000
# 5 0.000000 0.000000 0.000000 0.000000 -0.011385 0.000000
# 6 0.000000 0.000000 0.000000 0.000000 0.000000 -0.035700
#
#
# Mechanical properties :
#
#
# Convention : Reuss Voigt Hill
#
# Bulk Modulus (GPa) = 70.56237 85.93578 78.24908
# Shear Modulus (GPa) = 150.54338 2.07591 76.30964
#
# Velocity S-wave (km/s) = 8.87261 1.04190 6.31699
# Velocity P-wave (km/s) = 11.91064 6.81070 9.70178
#
# Compressibility (1/GPa) = 0.01417186
#
# Stress axis : x y z
#
# Youngs Moduli (GPa) = 142.35728 134.95501 62.67192
#
# Poissons Ratio (x) = 0.27093 0.24238
# Poissons Ratio (y) = 0.28579 0.14003
# Poissons Ratio (z) = 0.55057 0.30153
#
# Static dielectric constant tensor:
#      x y z
#    x 1.678540 0.000000 0.000000 
#    y 0.000000 1.846790 0.000000 
#    z 0.000000 0.000000 1.683670 
# 
# From -- ./inp_files/9904.got.cif
#   From: 2010.05.17/outbox.cif.g08.bks.cpg/sg22_5_cif.got.tgz:9904.got - 2010.06.03 23:40:54.
