data_PCOD9327459
_publ_section_title
;
Structure prediction by ZEFSAII (Michael W. Deem and Ramdas Pophale) SiO2 
 PCOD9327459
Probable space group: F 2 2 2
;
_chemical_formula_sum "Si O2"
_cell_formula_units_Z 92
_cell_length_a 21.896051
_cell_length_b 21.258401
_cell_length_c 9.092758
_cell_angle_alpha 90.000000
_cell_angle_beta 90.000000
_cell_angle_gamma 90.000000
_cell_volume 4232.451825
_symmetry_space_group_name_H-M "F 2 2 2"
_symmetry_group_IT_number 22
_symmetry_cell_setting 'orthorhombic'
loop_
_space_group_symop_operation_xyz
x,y,z
-x,-y,z
x,-y,-z
-x,y,-z
x,1/2+y,1/2+z
-x,1/2-y,1/2+z
x,1/2-y,1/2-z
-x,1/2+y,1/2-z
1/2+x,y,1/2+z
1/2-x,-y,1/2+z
1/2+x,-y,1/2-z
1/2-x,y,1/2-z
1/2+x,1/2+y,z
1/2-x,1/2-y,z
1/2+x,1/2-y,-z
1/2-x,1/2+y,-z
loop_
_atom_site_type_symbol
_atom_site_label
_atom_site_fract_x
_atom_site_fract_y
_atom_site_fract_z
Si Si1 0.618170 0.587930 0.424548
Si Si2 0.883541 0.961984 0.728782
Si Si3 0.184201 0.129058 0.139755
Si Si4 0.000000 0.831845 0.500000
Si Si5 0.432323 0.362490 0.933830
Si Si6 0.750000 0.750000 0.250000
Si Si7 0.552700 0.750000 0.750000
Si Si8 0.798854 0.000000 0.000000
O O1 0.645406 0.570185 0.584356
O O2 0.592397 0.526465 0.339912
O O3 0.665316 0.616780 0.309471
O O4 0.560392 0.629461 0.465925
O O5 0.931500 0.918071 0.812886
O O6 0.835415 0.978149 0.854936
O O7 0.212791 0.199427 0.147609
O O8 0.221581 0.069647 0.066374
O O9 0.119116 0.126552 0.055524
O O10 0.011469 0.789518 0.359075
O O11 0.411861 0.299785 0.848225
O O12 0.500000 0.355654 0.000000
#
# Coordination Sequence:
#
# PCOD9327459 Si02
#       8
#    16  16  16   8  16   4   8   8
#     4  10  21  38  60  91 134 173 227 286 332 422
#     4   9  19  37  59  94 130 173 223 271 349 413
#     4  10  24  43  69  98 140 176 239 293 364 420
#     4  12  24  37  54  92 133 186 230 272 340 412
#     4  11  22  40  62  93 135 184 219 278 344 433
#     4  12  28  46  76 110 132 184 248 324 356 408
#     4  12  24  35  52  81 130 182 230 260 344 410
#     4   8  18  44  65  94 138 184 225 294 352 444
#
# _framework density 21.736809000000001
#
# number of rings (size 3 to 8) (size 9 to 14) (size 15 to 20)
#    0.000    1.739    2.609    1.043    2.435    2.087 
#    6.261    8.261    0.000   12.000    0.000    0.000 
#    0.000    0.000    0.000    0.000    0.000    0.000 
#
# Total GULP energy -128102.905064 kJ/mol
# GULP energy per Si atom -5569.691525 kJ/mol
# Density = 2.168734 g / cm^3
# Si number density = 21.736809 Si / 1000 Ang^3
#
#
#
# Elastic Constant Matrix: (Units=GPa)
#
#
# Indices 1 2 3 4 5 6 
#
# 1 65.5996 46.6687 44.4835 0.0000 0.0000 0.0000
# 2 46.6687 149.3554 65.7645 -0.0001 0.0000 -0.0001
# 3 44.4835 65.7645 172.1761 -0.0002 0.0001 -0.0003
# 4 0.0000 -0.0001 -0.0002 55.8202 0.0000 -0.0001
# 5 0.0000 0.0000 0.0001 0.0000 16.2672 0.0001
# 6 0.0000 -0.0001 -0.0003 -0.0001 0.0001 23.0417
#
#
#
# Elastic Compliance Matrix: (Units=1/GPa)
#
#
# Indices 1 2 3 4 5 6 
#
# 1 0.021269 -0.005081 -0.003554 0.000000 0.000000 0.000000
# 2 -0.005081 0.009263 -0.002225 0.000000 0.000000 0.000000
# 3 -0.003554 -0.002225 0.007576 0.000000 0.000000 0.000000
# 4 0.000000 0.000000 0.000000 0.017915 0.000000 0.000000
# 5 0.000000 0.000000 0.000000 0.000000 0.061473 0.000000
# 6 0.000000 0.000000 0.000000 0.000000 0.000000 0.043400
#
#
# Mechanical properties :
#
#
# Convention : Reuss Voigt Hill
#
# Bulk Modulus (GPa) = 61.02406 77.88495 69.45451
# Shear Modulus (GPa) = 26.58460 34.37346 30.47903
#
# Velocity S-wave (km/s) = 3.50097 3.98093 3.74864
# Velocity P-wave (km/s) = 6.66914 7.55242 7.12448
#
# Compressibility (1/GPa) = 0.01638698
#
# Stress axis : x y z
#
# Youngs Moduli (GPa) = 47.01735 107.95763 131.98997
#
# Poissons Ratio (x) = 0.54850 0.46914
# Poissons Ratio (y) = 0.23888 0.29373
# Poissons Ratio (z) = 0.16712 0.24025
#
# Static dielectric constant tensor:
#      x y z
#    x 1.784770 0.000000 0.000000 
#    y 0.000000 1.883570 0.000000 
#    z 0.000000 0.000000 1.836210 
# 
# From -- ./inp_files/12722.got.cif
#   From: 2010.05.17/outbox.cif.g08.bks.cpg/sg22_7_cif.got.tgz:12722.got - 2010.06.03 23:40:54.
