data_PCOD9327489
_publ_section_title
;
Structure prediction by ZEFSAII (Michael W. Deem and Ramdas Pophale) SiO2 
 PCOD9327489
Probable space group: F 2 2 2
;
_chemical_formula_sum "Si O2"
_cell_formula_units_Z 112
_cell_length_a 13.304308
_cell_length_b 15.259896
_cell_length_c 25.559666
_cell_angle_alpha 90.000000
_cell_angle_beta 90.000000
_cell_angle_gamma 90.000000
_cell_volume 5189.183621
_symmetry_space_group_name_H-M "F 2 2 2"
_symmetry_group_IT_number 22
_symmetry_cell_setting 'orthorhombic'
loop_
_space_group_symop_operation_xyz
x,y,z
-x,-y,z
x,-y,-z
-x,y,-z
x,1/2+y,1/2+z
-x,1/2-y,1/2+z
x,1/2-y,1/2-z
-x,1/2+y,1/2-z
1/2+x,y,1/2+z
1/2-x,-y,1/2+z
1/2+x,-y,1/2-z
1/2-x,y,1/2-z
1/2+x,1/2+y,z
1/2-x,1/2-y,z
1/2+x,1/2-y,-z
1/2-x,1/2+y,-z
loop_
_atom_site_type_symbol
_atom_site_label
_atom_site_fract_x
_atom_site_fract_y
_atom_site_fract_z
Si Si1 0.747744 0.646814 0.910052
Si Si2 0.979885 0.706722 0.160320
Si Si3 0.183485 0.424379 0.199065
Si Si4 0.323469 0.165751 0.380876
Si Si5 0.683710 0.624362 0.699191
Si Si6 0.609490 0.395692 0.994995
Si Si7 0.031022 0.600263 0.058895
O O1 0.750000 0.750000 0.906447
O O2 0.741219 0.617948 0.850277
O O3 0.850346 0.608012 0.933292
O O4 0.665416 0.628986 0.952535
O O5 0.905070 0.646202 0.194025
O O6 0.924500 0.799983 0.149640
O O7 0.091951 0.690920 0.184636
O O8 0.984104 0.662674 0.102677
O O9 0.250000 0.407606 0.250000
O O10 0.259724 0.406617 0.150756
O O11 0.143467 0.524094 0.202537
O O12 0.250000 0.250000 0.383157
O O13 0.345147 0.133280 0.439561
O O14 0.750000 0.645352 0.750000
O O15 0.604386 0.500000 0.000000
O O16 0.500000 0.355077 0.000000
O O17 0.000000 0.500000 0.068858
O O18 0.000000 0.623021 0.000000
#
# Coordination Sequence:
#
# PCOD9327489 Si02
#       7
#    16  16  16  16  16  16  16
#     4  11  25  40  66  97 135 171 215 280 336 400
#     4  10  21  38  66 100 135 170 220 284 334 399
#     4  10  21  41  68 100 132 174 232 281 337 400
#     4  10  23  40  68  99 136 178 225 287 343 396
#     4  10  22  44  69  95 133 182 224 278 337 407
#     4  11  26  43  63  90 135 183 222 267 333 421
#     4  10  23  38  65  99 124 170 221 274 328 389
#
# _framework density 21.583355999999998
#
# number of rings (size 3 to 8) (size 9 to 14) (size 15 to 20)
#    0.000    1.714    0.000    3.429   12.000    2.857 
#    2.571    2.857    0.000    0.000    0.000    0.000 
#    0.000    0.000    0.000    0.000    0.000    0.000 
#
# Total GULP energy -156389.167340 kJ/mol
# GULP energy per Si atom -5585.327405 kJ/mol
# Density = 2.153423 g / cm^3
# Si number density = 21.583356 Si / 1000 Ang^3
#
#
#
# Elastic Constant Matrix: (Units=GPa)
#
#
# Indices 1 2 3 4 5 6 
#
# 1 94.7024 19.6383 57.7022 0.0000 0.0000 0.0000
# 2 19.6383 63.7691 4.2187 0.0000 0.0000 0.0000
# 3 57.7022 4.2187 143.8477 0.0000 0.0000 0.0000
# 4 0.0000 0.0000 0.0000 26.6582 0.0000 0.0000
# 5 0.0000 0.0000 0.0000 0.0000 262.6038 0.0000
# 6 0.0000 0.0000 0.0000 0.0000 0.0000 29.6336
#
#
#
# Elastic Compliance Matrix: (Units=1/GPa)
#
#
# Indices 1 2 3 4 5 6 
#
# 1 0.015039 -0.004240 -0.005908 0.000000 0.000000 0.000000
# 2 -0.004240 0.016908 0.001205 0.000000 0.000000 0.000000
# 3 -0.005908 0.001205 0.009286 0.000000 0.000000 0.000000
# 4 0.000000 0.000000 0.000000 0.037512 0.000000 0.000000
# 5 0.000000 0.000000 0.000000 0.000000 0.003808 0.000000
# 6 0.000000 0.000000 0.000000 0.000000 0.000000 0.033746
#
#
# Mechanical properties :
#
#
# Convention : Reuss Voigt Hill
#
# Bulk Modulus (GPa) = 42.83414 51.71527 47.27471
# Shear Modulus (GPa) = 35.21947 78.49643 56.85795
#
# Velocity S-wave (km/s) = 4.04392 6.03721 5.13815
# Velocity P-wave (km/s) = 6.45704 8.52115 7.55987
#
# Compressibility (1/GPa) = 0.02334587
#
# Stress axis : x y z
#
# Youngs Moduli (GPa) = 66.49582 59.14455 107.68429
#
# Poissons Ratio (x) = 0.25080 0.63621
# Poissons Ratio (y) = 0.28197 -0.12977
# Poissons Ratio (z) = 0.39287 -0.07128
#
# Static dielectric constant tensor:
#      x y z
#    x 1.806310 0.000000 0.000000 
#    y 0.000000 1.401200 0.000000 
#    z 0.000000 0.000000 1.621960 
# 
# From -- ./inp_files/48952.got.cif
#   From: 2010.05.17/outbox.cif.g08.bks.cpg/sg22_25_cif.got.tgz:48952.got - 2010.06.03 23:40:54.
