data_PCOD9327000
_publ_section_title
;
Structure prediction by ZEFSAII (Michael W. Deem and Ramdas Pophale) SiO2 
 PCOD9327000
Probable space group: F 2 2 2
;
_chemical_formula_sum "Si O2"
_cell_formula_units_Z 80
_cell_length_a 10.703727
_cell_length_b 21.827027
_cell_length_c 15.153298
_cell_angle_alpha 90.000000
_cell_angle_beta 90.000000
_cell_angle_gamma 90.000000
_cell_volume 3540.273168
_symmetry_space_group_name_H-M "F 2 2 2"
_symmetry_group_IT_number 22
_symmetry_cell_setting 'orthorhombic'
loop_
_space_group_symop_operation_xyz
x,y,z
-x,-y,z
x,-y,-z
-x,y,-z
x,1/2+y,1/2+z
-x,1/2-y,1/2+z
x,1/2-y,1/2-z
-x,1/2+y,1/2-z
1/2+x,y,1/2+z
1/2-x,-y,1/2+z
1/2+x,-y,1/2-z
1/2-x,y,1/2-z
1/2+x,1/2+y,z
1/2-x,1/2-y,z
1/2+x,1/2-y,-z
1/2-x,1/2+y,-z
loop_
_atom_site_type_symbol
_atom_site_label
_atom_site_fract_x
_atom_site_fract_y
_atom_site_fract_z
Si Si1 0.612022 0.450742 0.267842
Si Si2 0.719536 0.656739 0.094255
Si Si3 0.448190 0.267199 0.349473
Si Si4 0.483445 0.072855 0.399637
Si Si5 0.389632 0.362821 0.565177
O O1 0.500000 0.500000 0.279681
O O2 0.750000 0.477142 0.250000
O O3 0.574013 0.410436 0.181245
O O4 0.621721 0.408436 0.353663
O O5 0.614852 0.709323 0.102872
O O6 0.838289 0.681165 0.149083
O O7 0.654366 0.595051 0.126523
O O8 0.769903 0.646034 0.995895
O O9 0.478101 0.250000 0.250000
O O10 0.563186 0.297226 0.399573
O O11 0.500000 0.096339 0.500000
O O12 0.500000 0.000000 0.405253
O O13 0.500000 0.385724 0.500000
#
# Coordination Sequence:
#
# PCOD9327000 Si02
#       5
#    16  16  16  16  16
#     4  11  25  45  69 101 140 185 236 288 347 414
#     4  10  20  37  64  94 133 176 230 287 346 421
#     4  10  21  39  66  99 134 182 238 292 356 423
#     4  10  22  40  66  97 131 176 229 286 345 410
#     4  10  23  42  65  98 141 185 230 288 355 420
#
# _framework density 22.597125999999999
#
# number of rings (size 3 to 8) (size 9 to 14) (size 15 to 20)
#    0.000    1.800    0.000    3.600    0.000   12.400 
#    0.000   10.000    0.000    1.200    0.000    0.000 
#    0.000    0.000    0.000    0.000    0.000    0.000 
#
# Total GULP energy -111717.987585 kJ/mol
# GULP energy per Si atom -5585.899379 kJ/mol
# Density = 2.254569 g / cm^3
# Si number density = 22.597126 Si / 1000 Ang^3
#
#
#
# Elastic Constant Matrix: (Units=GPa)
#
#
# Indices 1 2 3 4 5 6 
#
# 1 122.7060 54.9526 52.6788 0.0000 0.0000 0.0000
# 2 54.9526 70.0696 33.9951 0.0000 0.0000 0.0000
# 3 52.6788 33.9951 151.5087 0.0000 0.0000 0.0000
# 4 0.0000 0.0000 0.0000 92.9602 0.0000 0.0000
# 5 0.0000 0.0000 0.0000 0.0000 26.5440 0.0000
# 6 0.0000 0.0000 0.0000 0.0000 0.0000 33.8453
#
#
#
# Elastic Compliance Matrix: (Units=1/GPa)
#
#
# Indices 1 2 3 4 5 6 
#
# 1 0.013406 -0.009260 -0.002583 0.000000 0.000000 0.000000
# 2 -0.009260 0.022411 -0.001809 0.000000 0.000000 0.000000
# 3 -0.002583 -0.001809 0.007904 0.000000 0.000000 0.000000
# 4 0.000000 0.000000 0.000000 0.010757 0.000000 0.000000
# 5 0.000000 0.000000 0.000000 0.000000 0.037673 0.000000
# 6 0.000000 0.000000 0.000000 0.000000 0.000000 0.029546
#
#
# Mechanical properties :
#
#
# Convention : Reuss Voigt Hill
#
# Bulk Modulus (GPa) = 60.91348 69.72638 65.31993
# Shear Modulus (GPa) = 32.36764 44.18042 38.27403
#
# Velocity S-wave (km/s) = 3.78878 4.42649 4.11999
# Velocity P-wave (km/s) = 6.79372 7.55304 7.18342
#
# Compressibility (1/GPa) = 0.01641673
#
# Stress axis : x y z
#
# Youngs Moduli (GPa) = 74.59536 44.62000 126.51235
#
# Poissons Ratio (x) = 0.41319 0.32682
# Poissons Ratio (y) = 0.69076 0.22885
# Poissons Ratio (z) = 0.19270 0.08071
#
# Static dielectric constant tensor:
#      x y z
#    x 1.796980 0.000000 0.000000 
#    y 0.000000 1.884510 0.000000 
#    z 0.000000 0.000000 1.860150 
# 
# From -- ./inp_files/28093.got.cif
#   From: 2010.05.17/outbox.cif.g08.bks.cpg/sg22_15_cif.got.tgz:28093.got - 2010.06.03 23:40:54.
