data_PCOD9327148
_publ_section_title
;
Structure prediction by ZEFSAII (Michael W. Deem and Ramdas Pophale) SiO2 
 PCOD9327148
Probable space group: F 2 2 2
;
_chemical_formula_sum "Si O2"
_cell_formula_units_Z 60
_cell_length_a 22.847381
_cell_length_b 5.270045
_cell_length_c 23.483733
_cell_angle_alpha 90.000000
_cell_angle_beta 90.000000
_cell_angle_gamma 90.000000
_cell_volume 2827.599405
_symmetry_space_group_name_H-M "F 2 2 2"
_symmetry_group_IT_number 22
_symmetry_cell_setting 'orthorhombic'
loop_
_space_group_symop_operation_xyz
x,y,z
-x,-y,z
x,-y,-z
-x,y,-z
x,1/2+y,1/2+z
-x,1/2-y,1/2+z
x,1/2-y,1/2-z
-x,1/2+y,1/2-z
1/2+x,y,1/2+z
1/2-x,-y,1/2+z
1/2+x,-y,1/2-z
1/2-x,y,1/2-z
1/2+x,1/2+y,z
1/2-x,1/2-y,z
1/2+x,1/2-y,-z
1/2-x,1/2+y,-z
loop_
_atom_site_type_symbol
_atom_site_label
_atom_site_fract_x
_atom_site_fract_y
_atom_site_fract_z
Si Si1 0.000000 0.500000 0.500000
Si Si2 0.900046 0.266774 0.066006
Si Si3 0.250000 0.750000 0.604069
Si Si4 0.958973 0.750000 0.250000
Si Si5 0.303808 0.000000 0.000000
Si Si6 0.121056 0.729568 0.638393
O O1 0.959830 0.685382 0.536923
O O2 0.898587 0.539371 0.097011
O O3 0.889020 0.044423 0.110756
O O4 0.849461 0.280643 0.017923
O O5 0.265334 0.537400 0.556353
O O6 0.191783 0.740570 0.641719
O O7 0.916618 0.753263 0.304777
O O8 0.000000 0.500000 0.250868
#
# Coordination Sequence:
#
# PCOD9327148 Si02
#       6
#     4  16   8   8   8  16
#     4  12  24  40  64  98 148 188 220 286 318 424
#     4  11  25  40  65 102 142 180 231 266 342 410
#     4  10  20  39  72  96 146 171 226 278 330 426
#     4  12  28  51  74  95 132 180 234 298 344 400
#     4  10  20  40  64 106 145 185 216 266 356 412
#     4  11  26  45  69 103 127 185 231 287 344 396
#
# _framework density 21.219414
#
# number of rings (size 3 to 8) (size 9 to 14) (size 15 to 20)
#    0.000    1.067    0.000    6.400    5.600    7.467 
#    0.000    0.000    0.000    8.000    0.000    0.000 
#    0.000    0.000    0.000    0.000    0.000    0.000 
#
# Total GULP energy -83785.760682 kJ/mol
# GULP energy per Si atom -5585.717379 kJ/mol
# Density = 2.117112 g / cm^3
# Si number density = 21.219414 Si / 1000 Ang^3
#
#
#
# Elastic Constant Matrix: (Units=GPa)
#
#
# Indices 1 2 3 4 5 6 
#
# 1 193.7836 45.3335 86.0277 -0.0010 0.0014 0.0013
# 2 45.3335 116.0032 56.7165 0.0047 0.0009 -0.0029
# 3 86.0277 56.7165 124.5757 0.0009 0.0010 -0.0003
# 4 -0.0010 0.0047 0.0009 30.5130 -0.0014 -0.0014
# 5 0.0014 0.0009 0.0010 -0.0014 42.7986 -0.0002
# 6 0.0013 -0.0029 -0.0003 -0.0014 -0.0002 40.4610
#
#
#
# Elastic Compliance Matrix: (Units=1/GPa)
#
#
# Indices 1 2 3 4 5 6 
#
# 1 0.007465 -0.000511 -0.004923 0.000000 0.000000 0.000000
# 2 -0.000511 0.011124 -0.004712 -0.000002 0.000000 0.000001
# 3 -0.004923 -0.004712 0.013572 0.000000 0.000000 0.000000
# 4 0.000000 -0.000002 0.000000 0.032773 0.000001 0.000001
# 5 0.000000 0.000000 0.000000 0.000001 0.023365 0.000000
# 6 0.000000 0.000001 0.000000 0.000001 0.000000 0.024715
#
#
# Mechanical properties :
#
#
# Convention : Reuss Voigt Hill
#
# Bulk Modulus (GPa) = 84.24182 90.05754 87.14968
# Shear Modulus (GPa) = 36.42685 39.17349 37.80017
#
# Velocity S-wave (km/s) = 4.14777 4.30131 4.22524
# Velocity P-wave (km/s) = 7.91993 8.19766 8.05999
#
# Compressibility (1/GPa) = 0.01187059
#
# Stress axis : x y z
#
# Youngs Moduli (GPa) = 133.95414 89.89840 73.68132
#
# Poissons Ratio (x) = 0.04589 0.36272
# Poissons Ratio (y) = 0.06838 0.34717
# Poissons Ratio (z) = 0.65943 0.42358
#
# Static dielectric constant tensor:
#      x y z
#    x 1.820840 0.000000 0.000000 
#    y 0.000000 1.819930 0.000000 
#    z 0.000000 0.000000 1.755170 
# 
# From -- ./inp_files/3583.got.cif
#   From: 2010.05.17/outbox.cif.g08.bks.cpg/sg22_2_cif.got.tgz:3583.got - 2010.06.03 23:40:54.
