data_PCOD9327475
_publ_section_title
;
Structure prediction by ZEFSAII (Michael W. Deem and Ramdas Pophale) SiO2 
 PCOD9327475
Probable space group: F 2 2 2
;
_chemical_formula_sum "Si O2"
_cell_formula_units_Z 108
_cell_length_a 14.193966
_cell_length_b 22.221691
_cell_length_c 13.921047
_cell_angle_alpha 90.000000
_cell_angle_beta 90.000000
_cell_angle_gamma 90.000000
_cell_volume 4390.892095
_symmetry_space_group_name_H-M "F 2 2 2"
_symmetry_group_IT_number 22
_symmetry_cell_setting 'orthorhombic'
loop_
_space_group_symop_operation_xyz
x,y,z
-x,-y,z
x,-y,-z
-x,y,-z
x,1/2+y,1/2+z
-x,1/2-y,1/2+z
x,1/2-y,1/2-z
-x,1/2+y,1/2-z
1/2+x,y,1/2+z
1/2-x,-y,1/2+z
1/2+x,-y,1/2-z
1/2-x,y,1/2-z
1/2+x,1/2+y,z
1/2-x,1/2-y,z
1/2+x,1/2-y,-z
1/2-x,1/2+y,-z
loop_
_atom_site_type_symbol
_atom_site_label
_atom_site_fract_x
_atom_site_fract_y
_atom_site_fract_z
Si Si1 0.653005 0.510556 0.299832
Si Si2 0.067704 0.321304 0.642426
Si Si3 0.250000 0.750000 0.750000
Si Si4 0.545114 0.688661 0.629311
Si Si5 0.241522 0.319253 0.974525
Si Si6 0.649442 0.140556 0.851554
Si Si7 0.748901 0.500000 0.000000
Si Si8 0.074501 0.049399 0.877492
O O1 0.750000 0.495911 0.250000
O O2 0.639023 0.582349 0.284737
O O3 0.675099 0.507962 0.412709
O O4 0.589182 0.465347 0.237680
O O5 0.063235 0.317955 0.757085
O O6 0.023801 0.258964 0.607721
O O7 0.173585 0.324253 0.600129
O O8 0.028497 0.385226 0.611307
O O9 0.321386 0.798137 0.798359
O O10 0.643462 0.673316 0.580538
O O11 0.453362 0.650949 0.603557
O O12 0.250000 0.250000 0.011310
O O13 0.230376 0.363207 0.066012
O O14 0.670279 0.541020 0.940827
O O15 0.000000 0.000000 0.905490
#
# Coordination Sequence:
#
# PCOD9327475 Si02
#       8
#    16  16   4  16  16  16   8  16
#     4  10  23  42  65  92 128 169 221 265 317 389
#     4  10  21  41  65  96 128 170 209 263 330 392
#     4  12  24  36  64  84 124 180 204 254 332 392
#     4  10  22  39  65  96 129 161 210 266 322 388
#     4  10  21  38  62  94 128 167 209 260 327 392
#     4  12  22  41  61  95 128 170 215 265 320 389
#     4  10  23  44  65  96 124 172 220 266 327 386
#     4  11  23  42  67  96 128 171 218 273 323 380
#
# _framework density 24.596367999999998
#
# number of rings (size 3 to 8) (size 9 to 14) (size 15 to 20)
#    0.000    1.481    1.481    3.778    0.000    6.519 
#    0.000    4.815    0.000    0.000    0.000    0.000 
#    0.000    0.000    0.000    0.000    0.000    0.000 
#
# Total GULP energy -150492.353773 kJ/mol
# GULP energy per Si atom -5573.790880 kJ/mol
# Density = 2.454039 g / cm^3
# Si number density = 24.596368 Si / 1000 Ang^3
#
#
#
# Elastic Constant Matrix: (Units=GPa)
#
#
# Indices 1 2 3 4 5 6 
#
# 1 58.3243 -7.8408 -8.1914 0.0000 0.0000 0.0000
# 2 -7.8408 64.5856 12.1812 0.0000 0.0000 0.0000
# 3 -8.1914 12.1812 124.1802 0.0000 0.0000 0.0000
# 4 0.0000 0.0000 0.0000 78.0146 0.0000 0.0000
# 5 0.0000 0.0000 0.0000 0.0000 7.1095 0.0000
# 6 0.0000 0.0000 0.0000 0.0000 0.0000 20.7359
#
#
#
# Elastic Compliance Matrix: (Units=1/GPa)
#
#
# Indices 1 2 3 4 5 6 
#
# 1 0.017543 0.001948 0.000966 0.000000 0.000000 0.000000
# 2 0.001948 0.015991 -0.001440 0.000000 0.000000 0.000000
# 3 0.000966 -0.001440 0.008258 0.000000 0.000000 0.000000
# 4 0.000000 0.000000 0.000000 0.012818 0.000000 0.000000
# 5 0.000000 0.000000 0.000000 0.000000 0.140657 0.000000
# 6 0.000000 0.000000 0.000000 0.000000 0.000000 0.048226
#
#
# Mechanical properties :
#
#
# Convention : Reuss Voigt Hill
#
# Bulk Modulus (GPa) = 22.35174 26.59868 24.47521
# Shear Modulus (GPa) = 19.57262 37.90139 28.73701
#
# Velocity S-wave (km/s) = 2.82397 3.92973 3.42181
# Velocity P-wave (km/s) = 4.44300 5.60606 5.05807
#
# Compressibility (1/GPa) = 0.04473925
#
# Stress axis : x y z
#
# Youngs Moduli (GPa) = 57.00277 62.53364 121.09735
#
# Poissons Ratio (x) = -0.12179 -0.11700
# Poissons Ratio (y) = -0.11101 0.17440
# Poissons Ratio (z) = -0.05507 0.09006
#
# Static dielectric constant tensor:
#      x y z
#    x 2.010080 0.000000 0.000000 
#    y 0.000000 2.019010 0.000000 
#    z 0.000000 0.000000 2.046770 
# 
# From -- ./inp_files/29678.got.cif
#   From: 2010.05.17/outbox.cif.g08.bks.cpg/sg22_15_cif.got.tgz:29678.got - 2010.06.03 23:40:54.
