data_PCOD9327514
_publ_section_title
;
Structure prediction by ZEFSAII (Michael W. Deem and Ramdas Pophale) SiO2 
 PCOD9327514
Probable space group: F 2 2 2
;
_chemical_formula_sum "Si O2"
_cell_formula_units_Z 104
_cell_length_a 31.032767
_cell_length_b 7.712622
_cell_length_c 20.622903
_cell_angle_alpha 90.000000
_cell_angle_beta 90.000000
_cell_angle_gamma 90.000000
_cell_volume 4935.968126
_symmetry_space_group_name_H-M "F 2 2 2"
_symmetry_group_IT_number 22
_symmetry_cell_setting 'orthorhombic'
loop_
_space_group_symop_operation_xyz
x,y,z
-x,-y,z
x,-y,-z
-x,y,-z
x,1/2+y,1/2+z
-x,1/2-y,1/2+z
x,1/2-y,1/2-z
-x,1/2+y,1/2-z
1/2+x,y,1/2+z
1/2-x,-y,1/2+z
1/2+x,-y,1/2-z
1/2-x,y,1/2-z
1/2+x,1/2+y,z
1/2-x,1/2-y,z
1/2+x,1/2-y,-z
1/2-x,1/2+y,-z
loop_
_atom_site_type_symbol
_atom_site_label
_atom_site_fract_x
_atom_site_fract_y
_atom_site_fract_z
Si Si1 0.147842 0.750000 0.250000
Si Si2 0.117811 0.297467 0.009946
Si Si3 0.407202 0.315659 0.627251
Si Si4 0.825723 0.603950 0.299001
Si Si5 0.005234 0.705059 0.322378
Si Si6 0.705662 0.646810 0.055856
Si Si7 0.409710 0.278741 0.357978
O O1 0.117026 0.762707 0.188087
O O2 0.174538 0.573946 0.258379
O O3 0.110928 0.228969 0.937902
O O4 0.106824 0.500000 0.000000
O O5 0.166085 0.271043 0.035188
O O6 0.089395 0.216077 0.067184
O O7 0.458283 0.283446 0.631288
O O8 0.396492 0.519888 0.635306
O O9 0.807863 0.750000 0.250000
O O10 0.803379 0.587163 0.369746
O O11 0.874497 0.671053 0.317712
O O12 0.020303 0.750000 0.250000
O O13 0.000000 0.500000 0.330912
O O14 0.957365 0.778431 0.329925
O O15 0.750000 0.750000 0.054626
O O16 0.706370 0.500000 0.000000
#
# Coordination Sequence:
#
# PCOD9327514 Si02
#       7
#     8  16  16  16  16  16  16
#     4  12  22  38  64 101 130 174 226 270 331 400
#     4   9  21  41  67  92 122 167 218 270 328 404
#     4  11  21  37  60  93 126 169 224 275 331 398
#     4  11  23  43  70 100 137 182 223 279 338 407
#     4  12  24  36  52  83 126 172 223 276 330 388
#     4  11  24  45  72 102 135 173 220 277 339 413
#     4  10  21  39  61  88 127 174 224 275 332 389
#
# _framework density 21.069827
#
# number of rings (size 3 to 8) (size 9 to 14) (size 15 to 20)
#    0.000    1.231    2.308    4.154    0.000    2.154 
#    2.769    3.077    0.000    0.000    0.000    0.000 
#    0.000    0.000    0.000    0.000    0.000    0.000 
#
# Total GULP energy -145138.299969 kJ/mol
# GULP energy per Si atom -5582.242307 kJ/mol
# Density = 2.102187 g / cm^3
# Si number density = 21.069827 Si / 1000 Ang^3
#
#
#
# Elastic Constant Matrix: (Units=GPa)
#
#
# Indices 1 2 3 4 5 6 
#
# 1 56.5505 -2.7066 22.2252 0.0000 0.0000 0.0000
# 2 -2.7066 96.2959 11.5765 -0.0001 0.0000 0.0002
# 3 22.2252 11.5765 132.3887 0.0000 0.0000 0.0001
# 4 0.0000 -0.0001 0.0000 23.1772 0.0000 0.0001
# 5 0.0000 0.0000 0.0000 0.0000 20.4349 0.0000
# 6 0.0000 0.0002 0.0001 0.0001 0.0000 16.8813
#
#
#
# Elastic Compliance Matrix: (Units=1/GPa)
#
#
# Indices 1 2 3 4 5 6 
#
# 1 0.019014 0.000928 -0.003273 0.000000 0.000000 0.000000
# 2 0.000928 0.010540 -0.001077 0.000000 0.000000 0.000000
# 3 -0.003273 -0.001077 0.008197 0.000000 0.000000 0.000000
# 4 0.000000 0.000000 0.000000 0.043146 0.000000 0.000000
# 5 0.000000 0.000000 0.000000 0.000000 0.048936 0.000000
# 6 0.000000 0.000000 0.000000 0.000000 0.000000 0.059237
#
#
# Mechanical properties :
#
#
# Convention : Reuss Voigt Hill
#
# Bulk Modulus (GPa) = 32.35598 38.60281 35.47939
# Shear Modulus (GPa) = 24.24618 29.04134 26.64376
#
# Velocity S-wave (km/s) = 3.39596 3.71663 3.55990
# Velocity P-wave (km/s) = 5.54676 6.06456 5.81143
#
# Compressibility (1/GPa) = 0.03090619
#
# Stress axis : x y z
#
# Youngs Moduli (GPa) = 52.59242 94.87427 121.99242
#
# Poissons Ratio (x) = -0.08804 0.39931
# Poissons Ratio (y) = -0.04880 0.13144
# Poissons Ratio (z) = 0.17215 0.10222
#
# Static dielectric constant tensor:
#      x y z
#    x 1.718200 0.000000 0.000000 
#    y 0.000000 1.792660 0.000000 
#    z 0.000000 0.000000 1.806290 
# 
# From -- ./inp_files/45806.got.cif
#   From: 2010.05.17/outbox.cif.g08.bks.cpg/sg22_23_cif.got.tgz:45806.got - 2010.06.03 23:40:54.
