data_PCOD9327352
_publ_section_title
;
Structure prediction by ZEFSAII (Michael W. Deem and Ramdas Pophale) SiO2 
 PCOD9327352
Probable space group: F 2 2 2
;
_chemical_formula_sum "Si O2"
_cell_formula_units_Z 112
_cell_length_a 26.897480
_cell_length_b 12.935455
_cell_length_c 15.324009
_cell_angle_alpha 90.000000
_cell_angle_beta 90.000000
_cell_angle_gamma 90.000000
_cell_volume 5331.699954
_symmetry_space_group_name_H-M "F 2 2 2"
_symmetry_group_IT_number 22
_symmetry_cell_setting 'orthorhombic'
loop_
_space_group_symop_operation_xyz
x,y,z
-x,-y,z
x,-y,-z
-x,y,-z
x,1/2+y,1/2+z
-x,1/2-y,1/2+z
x,1/2-y,1/2-z
-x,1/2+y,1/2-z
1/2+x,y,1/2+z
1/2-x,-y,1/2+z
1/2+x,-y,1/2-z
1/2-x,y,1/2-z
1/2+x,1/2+y,z
1/2-x,1/2-y,z
1/2+x,1/2-y,-z
1/2-x,1/2+y,-z
loop_
_atom_site_type_symbol
_atom_site_label
_atom_site_fract_x
_atom_site_fract_y
_atom_site_fract_z
Si Si1 0.695384 0.234057 0.106174
Si Si2 0.696033 0.706964 0.394344
Si Si3 0.126074 0.081951 0.926915
Si Si4 0.338578 0.514478 0.399379
Si Si5 0.412117 0.272175 0.073163
Si Si6 0.948862 0.444752 0.682941
Si Si7 0.552629 0.447321 0.610827
O O1 0.750000 0.250000 0.140322
O O2 0.664776 0.339628 0.116865
O O3 0.675827 0.124372 0.140032
O O4 0.697842 0.215263 0.000575
O O5 0.750000 0.750000 0.364088
O O6 0.684516 0.590879 0.359696
O O7 0.642955 0.765163 0.381442
O O8 0.095167 0.015092 0.857680
O O9 0.092986 0.161054 0.985095
O O10 0.146797 0.000000 0.000000
O O11 0.321662 0.500000 0.500000
O O12 0.398192 0.514939 0.402501
O O13 0.446840 0.335262 0.136770
O O14 0.434443 0.158804 0.061257
O O15 0.946444 0.427884 0.785642
O O16 0.000000 0.500000 0.660906
O O17 0.500000 0.500000 0.591088
#
# Coordination Sequence:
#
# PCOD9327352 Si02
#       7
#    16  16  16  16  16  16  16
#     4   9  17  29  49  76 106 139 172 214 268 324
#     4   8  15  29  52  79 103 133 174 221 268 315
#     4   9  19  34  54  81 108 137 179 227 274 319
#     4   9  18  32  50  77 107 134 176 226 268 317
#     4   9  18  34  56  81 108 136 175 225 270 319
#     4  10  21  36  55  78 107 143 181 222 273 331
#     4  10  21  37  56  77 104 144 183 220 273 332
#
# _framework density 21.006433000000001
#
# number of rings (size 3 to 8) (size 9 to 14) (size 15 to 20)
#    0.000    2.857    0.000    1.286    0.000    9.143 
#    0.000    6.429    0.000   12.000    0.000    0.000 
#    0.000    0.000    0.000    0.000    0.000    0.000 
#
# Total GULP energy -155968.862653 kJ/mol
# GULP energy per Si atom -5570.316523 kJ/mol
# Density = 2.095862 g / cm^3
# Si number density = 21.006433 Si / 1000 Ang^3
#
#
#
# Elastic Constant Matrix: (Units=GPa)
#
#
# Indices 1 2 3 4 5 6 
#
# 1 56.7570 28.1669 -11.9305 0.0000 0.0000 0.0000
# 2 28.1669 104.9610 -9.1841 0.0000 0.0000 0.0000
# 3 -11.9305 -9.1841 30.8067 0.0000 0.0000 0.0000
# 4 0.0000 0.0000 0.0000 7.2991 0.0000 0.0000
# 5 0.0000 0.0000 0.0000 0.0000 9.8222 0.0000
# 6 0.0000 0.0000 0.0000 0.0000 0.0000 19.4678
#
#
#
# Elastic Compliance Matrix: (Units=1/GPa)
#
#
# Indices 1 2 3 4 5 6 
#
# 1 0.021640 -0.005210 0.006827 0.000000 0.000000 0.000000
# 2 -0.005210 0.011037 0.001273 0.000000 0.000000 0.000000
# 3 0.006827 0.001273 0.035484 0.000000 0.000000 0.000000
# 4 0.000000 0.000000 0.000000 0.137003 0.000000 0.000000
# 5 0.000000 0.000000 0.000000 0.000000 0.101810 0.000000
# 6 0.000000 0.000000 0.000000 0.000000 0.000000 0.051367
#
#
# Mechanical properties :
#
#
# Convention : Reuss Voigt Hill
#
# Bulk Modulus (GPa) = 13.52438 22.95882 18.24160
# Shear Modulus (GPa) = 13.25533 19.68264 16.46898
#
# Velocity S-wave (km/s) = 2.51472 3.06434 2.80303
# Velocity P-wave (km/s) = 3.85797 4.84493 4.37934
#
# Compressibility (1/GPa) = 0.07394056
#
# Stress axis : x y z
#
# Youngs Moduli (GPa) = 46.21176 90.60625 28.18182
#
# Poissons Ratio (x) = 0.47203 -0.19240
# Poissons Ratio (y) = 0.24075 -0.03587
# Poissons Ratio (z) = -0.31550 -0.11531
#
# Static dielectric constant tensor:
#      x y z
#    x 1.766380 0.000000 0.000000 
#    y 0.000000 1.772320 0.000000 
#    z 0.000000 0.000000 1.818030 
# 
# From -- ./inp_files/45346.got.cif
#   From: 2010.05.17/outbox.cif.g08.bks.cpg/sg22_23_cif.got.tgz:45346.got - 2010.06.03 23:40:54.
