data_PCOD9327908
_publ_section_title
;
Structure prediction by ZEFSAII (Michael W. Deem and Ramdas Pophale) SiO2 
 PCOD9327908
Probable space group: F 2 2 2
;
_chemical_formula_sum "Si O2"
_cell_formula_units_Z 80
_cell_length_a 5.011412
_cell_length_b 28.213985
_cell_length_c 26.329545
_cell_angle_alpha 90.000000
_cell_angle_beta 90.000000
_cell_angle_gamma 90.000000
_cell_volume 3722.784473
_symmetry_space_group_name_H-M "F 2 2 2"
_symmetry_group_IT_number 22
_symmetry_cell_setting 'orthorhombic'
loop_
_space_group_symop_operation_xyz
x,y,z
-x,-y,z
x,-y,-z
-x,y,-z
x,1/2+y,1/2+z
-x,1/2-y,1/2+z
x,1/2-y,1/2-z
-x,1/2+y,1/2-z
1/2+x,y,1/2+z
1/2-x,-y,1/2+z
1/2+x,-y,1/2-z
1/2-x,y,1/2-z
1/2+x,1/2+y,z
1/2-x,1/2-y,z
1/2+x,1/2-y,-z
1/2-x,1/2+y,-z
loop_
_atom_site_type_symbol
_atom_site_label
_atom_site_fract_x
_atom_site_fract_y
_atom_site_fract_z
Si Si1 0.177553 0.875198 0.353533
Si Si2 0.000000 0.000000 0.182778
Si Si3 0.500000 0.588385 0.000000
Si Si4 0.750000 0.920116 0.750000
Si Si5 0.000000 0.344913 0.000000
Si Si6 0.498719 0.282119 0.403627
Si Si7 0.808611 0.430600 0.607483
O O1 0.126539 0.888810 0.294777
O O2 0.111487 0.820702 0.363991
O O3 0.471813 0.893625 0.369232
O O4 0.973333 0.905365 0.387643
O O5 0.065615 0.956693 0.219411
O O6 0.794816 0.977019 0.142858
O O7 0.747723 0.622548 0.986269
O O8 0.598249 0.560525 0.049902
O O9 0.084595 0.312070 0.046935
O O10 0.750000 0.250000 0.418266
O O11 0.250000 0.250000 0.386502
#
# Coordination Sequence:
#
# PCOD9327908 Si02
#       7
#    16   8   8   8   8  16  16
#     4  11  23  42  64  92 127 171 207 270 330 375
#     4  10  22  39  68 100 118 159 220 272 306 384
#     4  12  20  38  62  90 135 178 205 248 318 404
#     4  10  22  42  71  94 126 164 223 272 330 384
#     4  12  22  39  62  93 125 180 215 251 318 383
#     4  12  23  39  62  96 129 164 219 267 312 386
#     4  11  22  39  63  92 134 167 210 257 321 380
#
# _framework density 21.48929
#
# number of rings (size 3 to 8) (size 9 to 14) (size 15 to 20)
#    0.000    0.800    4.000    4.200    0.000    5.200 
#    0.000    0.500    0.000    7.200    0.000    0.000 
#    0.000    0.000    0.000    0.000    0.000    0.000 
#
# Total GULP energy -111723.150642 kJ/mol
# GULP energy per Si atom -5586.157532 kJ/mol
# Density = 2.144038 g / cm^3
# Si number density = 21.489290 Si / 1000 Ang^3
#
#
#
# Elastic Constant Matrix: (Units=GPa)
#
#
# Indices 1 2 3 4 5 6 
#
# 1 87.9052 8.2140 0.7540 0.0000 0.0000 0.0000
# 2 8.2140 52.4851 39.0241 0.0000 0.0000 0.0000
# 3 0.7540 39.0241 155.7720 0.0000 0.0000 0.0000
# 4 0.0000 0.0000 0.0000 29.2785 0.0000 0.0000
# 5 0.0000 0.0000 0.0000 0.0000 15.5888 0.0000
# 6 0.0000 0.0000 0.0000 0.0000 0.0000 18.1775
#
#
#
# Elastic Compliance Matrix: (Units=1/GPa)
#
#
# Indices 1 2 3 4 5 6 
#
# 1 0.011575 -0.002175 0.000489 0.000000 0.000000 0.000000
# 2 -0.002175 0.023823 -0.005958 0.000000 0.000000 0.000000
# 3 0.000489 -0.005958 0.007910 0.000000 0.000000 0.000000
# 4 0.000000 0.000000 0.000000 0.034155 0.000000 0.000000
# 5 0.000000 0.000000 0.000000 0.000000 0.064149 0.000000
# 6 0.000000 0.000000 0.000000 0.000000 0.000000 0.055013
#
#
# Mechanical properties :
#
#
# Convention : Reuss Voigt Hill
#
# Bulk Modulus (GPa) = 35.68845 43.57184 39.63015
# Shear Modulus (GPa) = 22.59866 29.15363 25.87615
#
# Velocity S-wave (km/s) = 3.24639 3.68728 3.47384
# Velocity P-wave (km/s) = 5.54037 6.20066 5.87979
#
# Compressibility (1/GPa) = 0.02802027
#
# Stress axis : x y z
#
# Youngs Moduli (GPa) = 86.39361 41.97611 126.42571
#
# Poissons Ratio (x) = 0.09130 -0.06180
# Poissons Ratio (y) = 0.18790 0.75320
# Poissons Ratio (z) = -0.04223 0.25008
#
# Static dielectric constant tensor:
#      x y z
#    x 1.784340 0.000000 0.000000 
#    y 0.000000 1.818910 0.000000 
#    z 0.000000 0.000000 1.808940 
# 
# From -- ./inp_files/51311.got.cif
#   From: 2010.05.17/outbox.cif.g08.bks.cpg/sg22_26_cif.got.tgz:51311.got - 2010.06.03 23:40:54.
