data_PCOD9327538
_publ_section_title
;
Structure prediction by ZEFSAII (Michael W. Deem and Ramdas Pophale) SiO2 
 PCOD9327538
Probable space group: F 2 2 2
;
_chemical_formula_sum "Si O2"
_cell_formula_units_Z 80
_cell_length_a 8.315277
_cell_length_b 21.983187
_cell_length_c 20.562302
_cell_angle_alpha 90.000000
_cell_angle_beta 90.000000
_cell_angle_gamma 90.000000
_cell_volume 3758.712504
_symmetry_space_group_name_H-M "F 2 2 2"
_symmetry_group_IT_number 22
_symmetry_cell_setting 'orthorhombic'
loop_
_space_group_symop_operation_xyz
x,y,z
-x,-y,z
x,-y,-z
-x,y,-z
x,1/2+y,1/2+z
-x,1/2-y,1/2+z
x,1/2-y,1/2-z
-x,1/2+y,1/2-z
1/2+x,y,1/2+z
1/2-x,-y,1/2+z
1/2+x,-y,1/2-z
1/2-x,y,1/2-z
1/2+x,1/2+y,z
1/2-x,1/2-y,z
1/2+x,1/2-y,-z
1/2-x,1/2+y,-z
loop_
_atom_site_type_symbol
_atom_site_label
_atom_site_fract_x
_atom_site_fract_y
_atom_site_fract_z
Si Si1 0.923833 0.628817 0.070310
Si Si2 0.250000 0.611458 0.750000
Si Si3 0.250000 0.250000 0.107336
Si Si4 0.018801 0.199992 0.799785
Si Si5 0.276373 0.890093 0.169709
Si Si6 0.681508 0.519499 0.362589
O O1 0.805401 0.686646 0.075050
O O2 0.838453 0.562503 0.075252
O O3 0.058955 0.627174 0.129353
O O4 0.000000 0.632846 0.000000
O O5 0.094152 0.653457 0.740933
O O6 0.252500 0.566942 0.689200
O O7 0.100528 0.232766 0.151841
O O8 0.082114 0.250000 0.750000
O O9 0.152880 0.164532 0.839727
O O10 0.250000 0.898043 0.250000
O O11 0.228505 0.955389 0.139103
O O12 0.500000 0.500000 0.341456
#
# Coordination Sequence:
#
# PCOD9327538 Si02
#       6
#    16   8   8  16  16  16
#     4  11  26  48  70  99 141 195 243 301 374 450
#     4  12  19  36  64  98 143 176 230 288 380 422
#     4  12  23  42  64  94 133 196 240 286 364 446
#     4  12  22  38  65 102 145 186 232 300 369 432
#     4  11  24  40  68 106 136 179 242 304 357 432
#     4  10  21  39  65 100 131 176 232 292 364 433
#
# _framework density 21.283884
#
# number of rings (size 3 to 8) (size 9 to 14) (size 15 to 20)
#    0.000    0.800    5.000    3.600    0.000    8.000 
#    0.000    0.000    0.000    0.000   10.400    0.000 
#    0.000    0.000    0.000    0.000    0.000    0.000 
#
# Total GULP energy -111447.672349 kJ/mol
# GULP energy per Si atom -5572.383617 kJ/mol
# Density = 2.123544 g / cm^3
# Si number density = 21.283884 Si / 1000 Ang^3
#
#
#
# Elastic Constant Matrix: (Units=GPa)
#
#
# Indices 1 2 3 4 5 6 
#
# 1 52.3661 54.5919 18.4189 0.0000 0.0000 0.0000
# 2 54.5919 158.6103 27.8049 0.0000 0.0000 0.0000
# 3 18.4189 27.8049 71.6349 0.0000 0.0000 0.0000
# 4 0.0000 0.0000 0.0000 16.2081 0.0000 0.0000
# 5 0.0000 0.0000 0.0000 0.0000 13.2797 0.0000
# 6 0.0000 0.0000 0.0000 0.0000 0.0000 29.6809
#
#
#
# Elastic Compliance Matrix: (Units=1/GPa)
#
#
# Indices 1 2 3 4 5 6 
#
# 1 0.030861 -0.009905 -0.004090 0.000000 0.000000 0.000000
# 2 -0.009905 0.009944 -0.001313 0.000000 0.000000 0.000000
# 3 -0.004090 -0.001313 0.015521 0.000000 0.000000 0.000000
# 4 0.000000 0.000000 0.000000 0.061698 0.000000 0.000000
# 5 0.000000 0.000000 0.000000 0.000000 0.075303 0.000000
# 6 0.000000 0.000000 0.000000 0.000000 0.000000 0.033692
#
#
# Mechanical properties :
#
#
# Convention : Reuss Voigt Hill
#
# Bulk Modulus (GPa) = 38.89629 53.80474 46.35051
# Shear Modulus (GPa) = 18.78250 23.95345 21.36798
#
# Velocity S-wave (km/s) = 2.97387 3.35838 3.17196
# Velocity P-wave (km/s) = 5.48694 6.35395 5.93630
#
# Compressibility (1/GPa) = 0.02570939
#
# Stress axis : x y z
#
# Youngs Moduli (GPa) = 32.40330 100.56205 64.42859
#
# Poissons Ratio (x) = 0.99606 0.26354
# Poissons Ratio (y) = 0.32095 0.08460
# Poissons Ratio (z) = 0.13254 0.13204
#
# Static dielectric constant tensor:
#      x y z
#    x 1.809290 0.000000 0.000000 
#    y 0.000000 1.820530 0.000000 
#    z 0.000000 0.000000 1.772990 
# 
# From -- ./inp_files/47214.got.cif
#   From: 2010.05.17/outbox.cif.g08.bks.cpg/sg22_24_cif.got.tgz:47214.got - 2010.06.03 23:40:54.
