data_PCOD9327362
_publ_section_title
;
Structure prediction by ZEFSAII (Michael W. Deem and Ramdas Pophale) SiO2 
 PCOD9327362
Probable space group: F 2 2 2
;
_chemical_formula_sum "Si O2"
_cell_formula_units_Z 92
_cell_length_a 8.637077
_cell_length_b 25.033917
_cell_length_c 20.493296
_cell_angle_alpha 90.000000
_cell_angle_beta 90.000000
_cell_angle_gamma 90.000000
_cell_volume 4431.057771
_symmetry_space_group_name_H-M "F 2 2 2"
_symmetry_group_IT_number 22
_symmetry_cell_setting 'orthorhombic'
loop_
_space_group_symop_operation_xyz
x,y,z
-x,-y,z
x,-y,-z
-x,y,-z
x,1/2+y,1/2+z
-x,1/2-y,1/2+z
x,1/2-y,1/2-z
-x,1/2+y,1/2-z
1/2+x,y,1/2+z
1/2-x,-y,1/2+z
1/2+x,-y,1/2-z
1/2-x,y,1/2-z
1/2+x,1/2+y,z
1/2-x,1/2-y,z
1/2+x,1/2-y,-z
1/2-x,1/2+y,-z
loop_
_atom_site_type_symbol
_atom_site_label
_atom_site_fract_x
_atom_site_fract_y
_atom_site_fract_z
Si Si1 0.500000 0.500000 0.000000
Si Si2 0.014491 0.115589 0.423854
Si Si3 0.376921 0.453520 0.326023
Si Si4 0.000000 0.673399 0.500000
Si Si5 0.428378 0.094274 0.301666
Si Si6 0.776197 0.692032 0.380906
Si Si7 0.666851 0.086579 0.410911
O O1 0.610090 0.536418 0.954114
O O2 0.845778 0.098601 0.399283
O O3 0.000000 0.120261 0.500000
O O4 0.117318 0.065785 0.400437
O O5 0.110065 0.166619 0.399449
O O6 0.500000 0.500000 0.315827
O O7 0.435502 0.406556 0.276461
O O8 0.193392 0.454778 0.313121
O O9 0.117402 0.699656 0.553187
O O10 0.104782 0.636216 0.453789
O O11 0.357180 0.148101 0.333754
O O12 0.582014 0.083817 0.341564
O O13 0.750000 0.750000 0.350735
#
# Coordination Sequence:
#
# PCOD9327362 Si02
#       7
#     4  16  16   8  16  16  16
#     4  10  24  32  58  92 120 194 206 248 346 406
#     4  11  23  39  58  95 131 162 218 286 330 397
#     4  10  23  39  62  87 125 175 223 272 331 405
#     4   9  18  35  54  86 126 162 201 264 321 400
#     4   9  22  43  58  91 130 165 227 277 328 405
#     4  10  21  39  67  96 125 174 216 274 348 397
#     4  10  21  36  58  84 133 165 214 269 327 392
#
# _framework density 20.762537999999999
#
# number of rings (size 3 to 8) (size 9 to 14) (size 15 to 20)
#    0.000    2.087    1.739    0.000    7.304    2.435 
#    0.000    9.565    0.000    0.000    0.000   14.609 
#    0.000    0.000    0.000    0.000    0.000    0.000 
#
# Total GULP energy -128090.110143 kJ/mol
# GULP energy per Si atom -5569.135224 kJ/mol
# Density = 2.071528 g / cm^3
# Si number density = 20.762538 Si / 1000 Ang^3
#
#
#
# Elastic Constant Matrix: (Units=GPa)
#
#
# Indices 1 2 3 4 5 6 
#
# 1 107.8769 40.1908 -1.1255 0.0000 0.0000 0.0000
# 2 40.1908 90.8058 35.1345 0.0000 0.0000 0.0000
# 3 -1.1255 35.1345 43.0903 0.0000 0.0000 0.0000
# 4 0.0000 0.0000 0.0000 10.4582 0.0000 0.0000
# 5 0.0000 0.0000 0.0000 0.0000 34.7816 0.0000
# 6 0.0000 0.0000 0.0000 0.0000 0.0000 24.3504
#
#
#
# Elastic Compliance Matrix: (Units=1/GPa)
#
#
# Indices 1 2 3 4 5 6 
#
# 1 0.012398 -0.008199 0.007009 0.000000 0.000000 0.000000
# 2 -0.008199 0.021511 -0.017753 0.000000 0.000000 0.000000
# 3 0.007009 -0.017753 0.037866 0.000000 0.000000 0.000000
# 4 0.000000 0.000000 0.000000 0.095619 0.000000 0.000000
# 5 0.000000 0.000000 0.000000 0.000000 0.028751 0.000000
# 6 0.000000 0.000000 0.000000 0.000000 0.000000 0.041067
#
#
# Mechanical properties :
#
#
# Convention : Reuss Voigt Hill
#
# Bulk Modulus (GPa) = 29.50955 43.35251 36.43103
# Shear Modulus (GPa) = 17.45854 25.08957 21.27406
#
# Velocity S-wave (km/s) = 2.90292 3.47998 3.20447
# Velocity P-wave (km/s) = 5.04774 6.08872 5.59250
#
# Compressibility (1/GPa) = 0.03388733
#
# Stress axis : x y z
#
# Youngs Moduli (GPa) = 80.66039 46.48881 26.40924
#
# Poissons Ratio (x) = 0.38117 -0.18511
# Poissons Ratio (y) = 0.66135 0.46885
# Poissons Ratio (z) = -0.56536 0.82532
#
# Static dielectric constant tensor:
#      x y z
#    x 1.823180 0.000000 0.000000 
#    y 0.000000 1.750990 0.000000 
#    z 0.000000 0.000000 1.791400 
# 
# From -- ./inp_files/12714.got.cif
#   From: 2010.05.17/outbox.cif.g08.bks.cpg/sg22_7_cif.got.tgz:12714.got - 2010.06.03 23:40:54.
