data_PCOD9327991
_publ_section_title
;
Structure prediction by ZEFSAII (Michael W. Deem and Ramdas Pophale) SiO2 
 PCOD9327991
Probable space group: F 2 2 2
;
_chemical_formula_sum "Si O2"
_cell_formula_units_Z 88
_cell_length_a 12.762585
_cell_length_b 13.843176
_cell_length_c 25.154096
_cell_angle_alpha 90.000000
_cell_angle_beta 90.000000
_cell_angle_gamma 90.000000
_cell_volume 4444.092625
_symmetry_space_group_name_H-M "F 2 2 2"
_symmetry_group_IT_number 22
_symmetry_cell_setting 'orthorhombic'
loop_
_space_group_symop_operation_xyz
x,y,z
-x,-y,z
x,-y,-z
-x,y,-z
x,1/2+y,1/2+z
-x,1/2-y,1/2+z
x,1/2-y,1/2-z
-x,1/2+y,1/2-z
1/2+x,y,1/2+z
1/2-x,-y,1/2+z
1/2+x,-y,1/2-z
1/2-x,y,1/2-z
1/2+x,1/2+y,z
1/2-x,1/2-y,z
1/2+x,1/2-y,-z
1/2-x,1/2+y,-z
loop_
_atom_site_type_symbol
_atom_site_label
_atom_site_fract_x
_atom_site_fract_y
_atom_site_fract_z
Si Si1 0.654627 0.675608 0.849880
Si Si2 0.018982 0.750000 0.250000
Si Si3 0.719191 0.967847 0.388479
Si Si4 0.448682 0.694428 0.908841
Si Si5 0.500000 0.331148 0.500000
Si Si6 0.838801 0.000000 0.500000
Si Si7 0.154933 0.820611 0.682320
O O1 0.750000 0.750000 0.854257
O O2 0.591572 0.702053 0.795476
O O3 0.694047 0.567037 0.858205
O O4 0.571154 0.685153 0.897320
O O5 0.936078 0.829244 0.273469
O O6 0.615435 0.904328 0.401733
O O7 0.793713 0.911359 0.346788
O O8 0.773824 0.978719 0.446238
O O9 0.403606 0.762638 0.863509
O O10 0.439860 0.757312 0.961440
O O11 0.410539 0.408000 0.516849
O O12 0.250000 0.750000 0.697924
#
# Coordination Sequence:
#
# PCOD9327991 Si02
#       7
#    16   8  16  16   8   8  16
#     4  11  24  45  66  96 138 178 232 288 348 414
#     4  10  22  44  72  98 130 182 224 290 358 404
#     4  11  23  43  67 101 141 179 233 285 342 418
#     4  10  22  41  66  94 137 179 228 284 337 403
#     4  11  22  40  63  96 140 186 231 272 339 416
#     4  11  24  38  65 102 142 194 229 268 347 424
#     4   9  19  41  68  97 131 169 223 285 337 416
#
# _framework density 19.801568
#
# number of rings (size 3 to 8) (size 9 to 14) (size 15 to 20)
#    0.000    1.636    1.818    2.182    2.545    0.000 
#    0.000   18.182    0.000    2.182    0.000    0.000 
#    0.000    0.000    0.000    0.000    0.000    0.000 
#
# Total GULP energy -122514.039054 kJ/mol
# GULP energy per Si atom -5568.819957 kJ/mol
# Density = 1.975650 g / cm^3
# Si number density = 19.801568 Si / 1000 Ang^3
#
#
#
# Elastic Constant Matrix: (Units=GPa)
#
#
# Indices 1 2 3 4 5 6 
#
# 1 135.5479 76.6470 35.5121 0.0000 0.0000 0.0000
# 2 76.6470 149.9259 41.0065 0.0000 0.0000 0.0000
# 3 35.5121 41.0065 59.9001 0.0000 0.0000 0.0000
# 4 0.0000 0.0000 0.0000 31.7053 0.0000 0.0000
# 5 0.0000 0.0000 0.0000 0.0000 32.3416 0.0000
# 6 0.0000 0.0000 0.0000 0.0000 0.0000 -20.6124
#
#
#
# Elastic Compliance Matrix: (Units=1/GPa)
#
#
# Indices 1 2 3 4 5 6 
#
# 1 0.010868 -0.004668 -0.003248 0.000000 0.000000 0.000000
# 2 -0.004668 0.010211 -0.004223 0.000000 0.000000 0.000000
# 3 -0.003248 -0.004223 0.021511 0.000000 0.000000 0.000000
# 4 0.000000 0.000000 0.000000 0.031541 0.000000 0.000000
# 5 0.000000 0.000000 0.000000 0.000000 0.030920 0.000000
# 6 0.000000 0.000000 0.000000 0.000000 0.000000 -0.048514
#
#
# Mechanical properties :
#
#
# Convention : Reuss Voigt Hill
#
# Bulk Modulus (GPa) = 54.60596 72.41168 63.50882
# Shear Modulus (GPa) = 57.52606 21.50079 39.51342
#
# Velocity S-wave (km/s) = 5.39577 3.29874 4.47191
# Velocity P-wave (km/s) = 8.15203 7.15241 7.66852
#
# Compressibility (1/GPa) = 0.01831302
#
# Stress axis : x y z
#
# Youngs Moduli (GPa) = 92.01611 97.93050 46.48800
#
# Poissons Ratio (x) = 0.45711 0.15097
# Poissons Ratio (y) = 0.42950 0.19633
# Poissons Ratio (z) = 0.29883 0.41358
#
# Static dielectric constant tensor:
#      x y z
#    x 1.770410 0.000000 0.000000 
#    y 0.000000 1.823260 0.000000 
#    z 0.000000 0.000000 1.970380 
# 
# From -- ./inp_files/25280.got.cif
#   From: 2010.05.17/outbox.cif.g08.bks.cpg/sg22_13_cif.got.tgz:25280.got - 2010.06.03 23:40:54.
