data_PCOD9327382
_publ_section_title
;
Structure prediction by ZEFSAII (Michael W. Deem and Ramdas Pophale) SiO2 
 PCOD9327382
Probable space group: F 2 2 2
;
_chemical_formula_sum "Si O2"
_cell_formula_units_Z 56
_cell_length_a 17.269591
_cell_length_b 14.648652
_cell_length_c 9.244793
_cell_angle_alpha 90.000000
_cell_angle_beta 90.000000
_cell_angle_gamma 90.000000
_cell_volume 2338.712869
_symmetry_space_group_name_H-M "F 2 2 2"
_symmetry_group_IT_number 22
_symmetry_cell_setting 'orthorhombic'
loop_
_space_group_symop_operation_xyz
x,y,z
-x,-y,z
x,-y,-z
-x,y,-z
x,1/2+y,1/2+z
-x,1/2-y,1/2+z
x,1/2-y,1/2-z
-x,1/2+y,1/2-z
1/2+x,y,1/2+z
1/2-x,-y,1/2+z
1/2+x,-y,1/2-z
1/2-x,y,1/2-z
1/2+x,1/2+y,z
1/2-x,1/2-y,z
1/2+x,1/2-y,-z
1/2-x,1/2+y,-z
loop_
_atom_site_type_symbol
_atom_site_label
_atom_site_fract_x
_atom_site_fract_y
_atom_site_fract_z
Si Si1 0.837098 0.758022 0.511094
Si Si2 0.549537 0.750000 0.250000
Si Si3 0.327612 0.548187 0.342338
Si Si4 0.440624 0.601092 0.131974
O O1 0.750000 0.750000 0.455366
O O2 0.896921 0.775363 0.383821
O O3 0.834222 0.843425 0.620420
O O4 0.868789 0.662229 0.573300
O O5 0.492817 0.666022 0.228561
O O6 0.328079 0.500000 0.500000
O O7 0.250000 0.528511 0.250000
O O8 0.399767 0.526322 0.234281
O O9 0.500000 0.584035 0.000000
#
# Coordination Sequence:
#
# PCOD9327382 Si02
#       4
#    16   8  16  16
#     4  11  21  40  75 104 139 190 253 295 362 420
#     4  10  21  36  71 112 136 170 258 306 345 444
#     4  12  26  46  74 105 154 197 244 306 376 440
#     4  10  21  42  75 106 143 186 248 307 362 431
#
# _framework density 23.944797000000001
#
# number of rings (size 3 to 8) (size 9 to 14) (size 15 to 20)
#    0.000    1.143    5.714    0.429    0.000    2.286 
#    0.000    2.857    0.000    0.000    0.000    0.000 
#    0.000    0.000    0.000    0.000    0.000    0.000 
#
# Total GULP energy -78237.069329 kJ/mol
# GULP energy per Si atom -5588.362095 kJ/mol
# Density = 2.389030 g / cm^3
# Si number density = 23.944797 Si / 1000 Ang^3
#
#
#
# Elastic Constant Matrix: (Units=GPa)
#
#
# Indices 1 2 3 4 5 6 
#
# 1 207.6699 28.0998 89.9565 0.0000 0.0000 0.0000
# 2 28.0998 64.4738 23.8394 0.0000 0.0000 0.0000
# 3 89.9565 23.8394 163.9930 0.0000 0.0000 0.0000
# 4 0.0000 0.0000 0.0000 -178.4459 0.0000 0.0000
# 5 0.0000 0.0000 0.0000 0.0000 40.0307 0.0000
# 6 0.0000 0.0000 0.0000 0.0000 0.0000 -251.1325
#
#
#
# Elastic Compliance Matrix: (Units=1/GPa)
#
#
# Indices 1 2 3 4 5 6 
#
# 1 0.006467 -0.001593 -0.003316 0.000000 0.000000 0.000000
# 2 -0.001593 0.016783 -0.001566 0.000000 0.000000 0.000000
# 3 -0.003316 -0.001566 0.008144 0.000000 0.000000 0.000000
# 4 0.000000 0.000000 0.000000 -0.005604 0.000000 0.000000
# 5 0.000000 0.000000 0.000000 0.000000 0.024981 0.000000
# 6 0.000000 0.000000 0.000000 0.000000 0.000000 -0.003982
#
#
# Mechanical properties :
#
#
# Convention : Reuss Voigt Hill
#
# Bulk Modulus (GPa) = 54.21364 79.99199 67.10282
# Shear Modulus (GPa) = 75.88638 -58.29348 8.79645
#
# Velocity S-wave (km/s) = 5.63569 -4.93941 1.91875
# Velocity P-wave (km/s) = 8.06463 0.97415 5.74401
#
# Compressibility (1/GPa) = 0.01844554
#
# Stress axis : x y z
#
# Youngs Moduli (GPa) = 154.62595 59.58286 122.78280
#
# Poissons Ratio (x) = 0.09489 0.40715
# Poissons Ratio (y) = 0.24624 0.19230
# Poissons Ratio (z) = 0.51274 0.09332
#
# Static dielectric constant tensor:
#      x y z
#    x 1.977990 0.000000 0.000000 
#    y 0.000000 2.030800 0.000000 
#    z 0.000000 0.000000 1.981690 
# 
# From -- ./inp_files/9561.got.cif
#   From: 2010.05.17/outbox.cif.g08.bks.cpg/sg22_5_cif.got.tgz:9561.got - 2010.06.03 23:40:54.
