data_PCOD9327054
_publ_section_title
;
Structure prediction by ZEFSAII (Michael W. Deem and Ramdas Pophale) SiO2 
 PCOD9327054
Probable space group: F 2 2 2
;
_chemical_formula_sum "Si O2"
_cell_formula_units_Z 112
_cell_length_a 13.963852
_cell_length_b 13.822018
_cell_length_c 23.721896
_cell_angle_alpha 90.000000
_cell_angle_beta 90.000000
_cell_angle_gamma 90.000000
_cell_volume 4578.530261
_symmetry_space_group_name_H-M "F 2 2 2"
_symmetry_group_IT_number 22
_symmetry_cell_setting 'orthorhombic'
loop_
_space_group_symop_operation_xyz
x,y,z
-x,-y,z
x,-y,-z
-x,y,-z
x,1/2+y,1/2+z
-x,1/2-y,1/2+z
x,1/2-y,1/2-z
-x,1/2+y,1/2-z
1/2+x,y,1/2+z
1/2-x,-y,1/2+z
1/2+x,-y,1/2-z
1/2-x,y,1/2-z
1/2+x,1/2+y,z
1/2-x,1/2-y,z
1/2+x,1/2-y,-z
1/2-x,1/2+y,-z
loop_
_atom_site_type_symbol
_atom_site_label
_atom_site_fract_x
_atom_site_fract_y
_atom_site_fract_z
Si Si1 0.639592 0.865089 0.649942
Si Si2 0.104083 0.013089 0.412188
Si Si3 0.155936 0.636810 0.168288
Si Si4 0.925468 0.135859 0.821070
Si Si5 0.278126 0.647387 0.916470
Si Si6 0.890949 0.111584 0.017518
Si Si7 0.051695 0.633223 0.801090
O O1 0.737309 0.903354 0.679037
O O2 0.650336 0.751850 0.664703
O O3 0.534223 0.898214 0.667830
O O4 0.636711 0.874811 0.582160
O O5 0.192037 0.075998 0.434343
O O6 0.085636 0.070026 0.353259
O O7 0.134987 0.906465 0.393715
O O8 0.000000 0.000000 0.439706
O O9 0.062692 0.614298 0.205821
O O10 0.853577 0.104237 0.870784
O O11 0.933696 0.254010 0.817660
O O12 0.897135 0.109442 0.757461
O O13 0.250000 0.750000 0.889778
O O14 0.330786 0.673823 0.974021
O O15 0.000000 0.132766 0.000000
O O16 0.875020 0.000000 0.000000
#
# Coordination Sequence:
#
# PCOD9327054 Si02
#       7
#    16  16  16  16  16  16  16
#     4  10  20  40  65  91 123 176 222 274 338 406
#     4  10  21  41  62  91 137 171 212 277 330 388
#     4   9  20  37  64  88 126 173 218 266 330 401
#     4  10  20  38  63  93 131 172 226 274 331 410
#     4  12  24  41  68 100 129 178 228 273 347 415
#     4  11  24  42  64  93 131 166 214 286 341 397
#     4   9  19  38  61  92 132 175 220 277 331 395
#
# _framework density 24.461998999999999
#
# number of rings (size 3 to 8) (size 9 to 14) (size 15 to 20)
#    0.000    1.857    2.857    0.857    2.000    1.143 
#    0.000   14.286    0.000    2.571    0.000    0.000 
#    0.000    0.000    0.000    0.000    0.000    0.000 
#
# Total GULP energy -156302.184721 kJ/mol
# GULP energy per Si atom -5582.220883 kJ/mol
# Density = 2.440632 g / cm^3
# Si number density = 24.461999 Si / 1000 Ang^3
#
#
#
# Elastic Constant Matrix: (Units=GPa)
#
#
# Indices 1 2 3 4 5 6 
#
# 1 137.3199 13.9199 19.0865 0.0000 0.0000 0.0000
# 2 13.9199 37.7441 -16.1985 0.0000 0.0000 0.0000
# 3 19.0865 -16.1985 114.3870 0.0000 0.0000 0.0000
# 4 0.0000 0.0000 0.0000 -11.0734 0.0000 0.0000
# 5 0.0000 0.0000 0.0000 0.0000 26.0199 0.0000
# 6 0.0000 0.0000 0.0000 0.0000 0.0000 33.4263
#
#
#
# Elastic Compliance Matrix: (Units=1/GPa)
#
#
# Indices 1 2 3 4 5 6 
#
# 1 0.007915 -0.003711 -0.001846 0.000000 0.000000 0.000000
# 2 -0.003711 0.029949 0.004860 0.000000 0.000000 0.000000
# 3 -0.001846 0.004860 0.009739 0.000000 0.000000 0.000000
# 4 0.000000 0.000000 0.000000 -0.090306 0.000000 0.000000
# 5 0.000000 0.000000 0.000000 0.000000 0.038432 0.000000
# 6 0.000000 0.000000 0.000000 0.000000 0.000000 0.029917
#
#
# Mechanical properties :
#
#
# Convention : Reuss Voigt Hill
#
# Bulk Modulus (GPa) = 21.64129 35.89630 28.76880
# Shear Modulus (GPa) = 117.80733 27.85076 72.82904
#
# Velocity S-wave (km/s) = 6.94722 3.37787 5.46232
# Velocity P-wave (km/s) = 8.55675 5.46988 7.18114
#
# Compressibility (1/GPa) = 0.04620796
#
# Stress axis : x y z
#
# Youngs Moduli (GPa) = 126.34066 33.39022 102.68405
#
# Poissons Ratio (x) = 0.12393 0.18958
# Poissons Ratio (y) = 0.46890 -0.49908
# Poissons Ratio (z) = 0.23326 -0.16229
#
# Static dielectric constant tensor:
#      x y z
#    x 2.028210 0.000000 0.000000 
#    y 0.000000 1.998250 0.000000 
#    z 0.000000 0.000000 1.908510 
# 
# From -- ./inp_files/48972.got.cif
#   From: 2010.05.17/outbox.cif.g08.bks.cpg/sg22_25_cif.got.tgz:48972.got - 2010.06.03 23:40:54.
