data_PCOD9327228
_publ_section_title
;
Structure prediction by ZEFSAII (Michael W. Deem and Ramdas Pophale) SiO2 
 PCOD9327228
Probable space group: F 2 2 2
;
_chemical_formula_sum "Si O2"
_cell_formula_units_Z 72
_cell_length_a 8.557457
_cell_length_b 27.444666
_cell_length_c 13.205452
_cell_angle_alpha 90.000000
_cell_angle_beta 90.000000
_cell_angle_gamma 90.000000
_cell_volume 3101.386887
_symmetry_space_group_name_H-M "F 2 2 2"
_symmetry_group_IT_number 22
_symmetry_cell_setting 'orthorhombic'
loop_
_space_group_symop_operation_xyz
x,y,z
-x,-y,z
x,-y,-z
-x,y,-z
x,1/2+y,1/2+z
-x,1/2-y,1/2+z
x,1/2-y,1/2-z
-x,1/2+y,1/2-z
1/2+x,y,1/2+z
1/2-x,-y,1/2+z
1/2+x,-y,1/2-z
1/2-x,y,1/2-z
1/2+x,1/2+y,z
1/2-x,1/2-y,z
1/2+x,1/2-y,-z
1/2-x,1/2+y,-z
loop_
_atom_site_type_symbol
_atom_site_label
_atom_site_fract_x
_atom_site_fract_y
_atom_site_fract_z
Si Si1 0.506210 0.271274 0.860044
Si Si2 0.366433 0.123961 0.654565
Si Si3 0.435079 0.545809 0.765830
Si Si4 0.358549 0.448423 0.560384
Si Si5 0.250000 0.750000 0.010136
O O1 0.541537 0.250000 0.750000
O O2 0.405094 0.320233 0.863285
O O3 0.656411 0.282481 0.928681
O O4 0.390375 0.233059 0.916782
O O5 0.250000 0.123043 0.750000
O O6 0.526449 0.096745 0.683031
O O7 0.282530 0.089016 0.572802
O O8 0.500000 0.500000 0.829822
O O9 0.250000 0.541141 0.750000
O O10 0.557543 0.543654 0.669956
O O11 0.326759 0.500000 0.500000
O O12 0.500000 0.423801 0.500000
#
# Coordination Sequence:
#
# PCOD9327228 Si02
#       5
#    16  16  16  16   8
#     4  11  23  48  74 100 145 185 237 313 373 429
#     4  10  23  43  69 101 133 183 236 287 364 434
#     4  11  22  40  64  93 136 185 235 273 337 433
#     4  10  20  41  67  94 137 180 222 282 352 406
#     4  10  24  44  70 106 126 186 244 284 372 464
#
# _framework density 23.215420000000002
#
# number of rings (size 3 to 8) (size 9 to 14) (size 15 to 20)
#    0.000    1.556    2.222    4.000    0.000    1.778 
#   20.000    1.111    0.000    0.000    0.000    0.000 
#    0.000    0.000    0.000    0.000    0.000    0.000 
#
# Total GULP energy -100204.553634 kJ/mol
# GULP energy per Si atom -5566.919646 kJ/mol
# Density = 2.316258 g / cm^3
# Si number density = 23.215420 Si / 1000 Ang^3
#
#
#
# Elastic Constant Matrix: (Units=GPa)
#
#
# Indices 1 2 3 4 5 6 
#
# 1 119.4885 53.8983 15.4174 0.0000 0.0000 0.0000
# 2 53.8983 98.4388 28.0008 0.0000 0.0000 0.0000
# 3 15.4174 28.0008 95.8237 0.0000 0.0000 0.0000
# 4 0.0000 0.0000 0.0000 19.3789 0.0000 0.0000
# 5 0.0000 0.0000 0.0000 0.0000 26.8391 0.0000
# 6 0.0000 0.0000 0.0000 0.0000 0.0000 34.6416
#
#
#
# Elastic Compliance Matrix: (Units=1/GPa)
#
#
# Indices 1 2 3 4 5 6 
#
# 1 0.011114 -0.006082 -0.000011 0.000000 0.000000 0.000000
# 2 -0.006082 0.014408 -0.003232 0.000000 0.000000 0.000000
# 3 -0.000011 -0.003232 0.011382 0.000000 0.000000 0.000000
# 4 0.000000 0.000000 0.000000 0.051603 0.000000 0.000000
# 5 0.000000 0.000000 0.000000 0.000000 0.037259 0.000000
# 6 0.000000 0.000000 0.000000 0.000000 0.000000 0.028867
#
#
# Mechanical properties :
#
#
# Convention : Reuss Voigt Hill
#
# Bulk Modulus (GPa) = 54.78084 56.48711 55.63398
# Shear Modulus (GPa) = 27.87588 30.60088 29.23838
#
# Velocity S-wave (km/s) = 3.46894 3.63454 3.55271
# Velocity P-wave (km/s) = 6.30022 6.48057 6.39103
#
# Compressibility (1/GPa) = 0.01825456
#
# Stress axis : x y z
#
# Youngs Moduli (GPa) = 89.97746 69.40605 87.85880
#
# Poissons Ratio (x) = 0.42214 0.00096
# Poissons Ratio (y) = 0.54725 0.28393
# Poissons Ratio (z) = 0.00098 0.22429
#
# Static dielectric constant tensor:
#      x y z
#    x 1.911730 0.000000 0.000000 
#    y 0.000000 1.907770 0.000000 
#    z 0.000000 0.000000 2.053600 
# 
# From -- ./inp_files/27042.got.cif
#   From: 2010.05.17/outbox.cif.g08.bks.cpg/sg22_14_cif.got.tgz:27042.got - 2010.06.03 23:40:54.
