data_PCOD9327763
_publ_section_title
;
Structure prediction by ZEFSAII (Michael W. Deem and Ramdas Pophale) SiO2 
 PCOD9327763
Probable space group: F 2 2 2
;
_chemical_formula_sum "Si O2"
_cell_formula_units_Z 36
_cell_length_a 4.903090
_cell_length_b 23.338968
_cell_length_c 13.168888
_cell_angle_alpha 90.000000
_cell_angle_beta 90.000000
_cell_angle_gamma 90.000000
_cell_volume 1506.956159
_symmetry_space_group_name_H-M "F 2 2 2"
_symmetry_group_IT_number 22
_symmetry_cell_setting 'orthorhombic'
loop_
_space_group_symop_operation_xyz
x,y,z
-x,-y,z
x,-y,-z
-x,y,-z
x,1/2+y,1/2+z
-x,1/2-y,1/2+z
x,1/2-y,1/2-z
-x,1/2+y,1/2-z
1/2+x,y,1/2+z
1/2-x,-y,1/2+z
1/2+x,-y,1/2-z
1/2-x,y,1/2-z
1/2+x,1/2+y,z
1/2-x,1/2-y,z
1/2+x,1/2-y,-z
1/2-x,1/2+y,-z
loop_
_atom_site_type_symbol
_atom_site_label
_atom_site_fract_x
_atom_site_fract_y
_atom_site_fract_z
Si Si1 0.488704 0.578908 0.316390
Si Si2 0.500000 0.500000 0.500000
Si Si3 0.748350 0.188082 0.075745
O O1 0.250000 0.546841 0.250000
O O2 0.606881 0.545071 0.415041
O O3 0.323712 0.633878 0.356537
O O4 0.750000 0.594641 0.250000
O O5 0.750000 0.250000 0.130384
O O6 0.500000 0.195223 0.000000
O O7 0.000000 0.177348 0.000000
#
# Coordination Sequence:
#
# PCOD9327763 Si02
#       3
#    16   4  16
#     4  12  27  46  74 111 141 191 252 296 366 435
#     4  12  28  50  76 100 152 198 232 324 348 436
#     4  10  21  43  73 105 147 195 234 293 370 434
#
# _framework density 23.889216999999999
#
# number of rings (size 3 to 8) (size 9 to 14) (size 15 to 20)
#    0.000    0.889    2.222    4.000    0.000    2.667 
#    0.000    2.222    0.000    0.000    0.000    0.000 
#    0.000    0.000    0.000    0.000    0.000    0.000 
#
# Total GULP energy -50144.503634 kJ/mol
# GULP energy per Si atom -5571.611515 kJ/mol
# Density = 2.383484 g / cm^3
# Si number density = 23.889217 Si / 1000 Ang^3
#
#
#
# Elastic Constant Matrix: (Units=GPa)
#
#
# Indices 1 2 3 4 5 6 
#
# 1 167.8685 24.9085 54.7027 0.0000 0.0000 0.0000
# 2 24.9085 132.7675 62.1890 0.0000 0.0000 0.0000
# 3 54.7027 62.1890 155.6988 0.0000 0.0000 0.0000
# 4 0.0000 0.0000 0.0000 27.5078 0.0000 0.0000
# 5 0.0000 0.0000 0.0000 0.0000 27.0369 0.0000
# 6 0.0000 0.0000 0.0000 0.0000 0.0000 7.2861
#
#
#
# Elastic Compliance Matrix: (Units=1/GPa)
#
#
# Indices 1 2 3 4 5 6 
#
# 1 0.006731 -0.000191 -0.002289 0.000000 0.000000 0.000000
# 2 -0.000191 0.009271 -0.003636 0.000000 0.000000 0.000000
# 3 -0.002289 -0.003636 0.008679 0.000000 0.000000 0.000000
# 4 0.000000 0.000000 0.000000 0.036353 0.000000 0.000000
# 5 0.000000 0.000000 0.000000 0.000000 0.036986 0.000000
# 6 0.000000 0.000000 0.000000 0.000000 0.000000 0.137247
#
#
# Mechanical properties :
#
#
# Convention : Reuss Voigt Hill
#
# Bulk Modulus (GPa) = 80.31999 82.21504 81.26751
# Shear Modulus (GPa) = 19.86896 33.33513 26.60205
#
# Velocity S-wave (km/s) = 2.88707 3.73956 3.34062
# Velocity P-wave (km/s) = 6.69391 7.28942 6.99800
#
# Compressibility (1/GPa) = 0.01245020
#
# Stress axis : x y z
#
# Youngs Moduli (GPa) = 148.56270 107.86510 115.22050
#
# Poissons Ratio (x) = 0.02058 0.26370
# Poissons Ratio (y) = 0.02835 0.41893
# Poissons Ratio (z) = 0.34001 0.39219
#
# Static dielectric constant tensor:
#      x y z
#    x 1.867990 0.000000 0.000000 
#    y 0.000000 2.155180 0.000000 
#    z 0.000000 0.000000 1.910320 
# 
# From -- ./inp_files/742.got.cif
#   From: 2010.05.17/outbox.cif.g08.bks.cpg/sg22_1_cif.got.tgz:742.got - 2010.06.03 23:40:54.
