data_PCOD9327111
_publ_section_title
;
Structure prediction by ZEFSAII (Michael W. Deem and Ramdas Pophale) SiO2 
 PCOD9327111
Probable space group: F 2 2 2
;
_chemical_formula_sum "Si O2"
_cell_formula_units_Z 64
_cell_length_a 7.164314
_cell_length_b 21.508247
_cell_length_c 17.811011
_cell_angle_alpha 90.000000
_cell_angle_beta 90.000000
_cell_angle_gamma 90.000000
_cell_volume 2744.531370
_symmetry_space_group_name_H-M "F 2 2 2"
_symmetry_group_IT_number 22
_symmetry_cell_setting 'orthorhombic'
loop_
_space_group_symop_operation_xyz
x,y,z
-x,-y,z
x,-y,-z
-x,y,-z
x,1/2+y,1/2+z
-x,1/2-y,1/2+z
x,1/2-y,1/2-z
-x,1/2+y,1/2-z
1/2+x,y,1/2+z
1/2-x,-y,1/2+z
1/2+x,-y,1/2-z
1/2-x,y,1/2-z
1/2+x,1/2+y,z
1/2-x,1/2-y,z
1/2+x,1/2-y,-z
1/2-x,1/2+y,-z
loop_
_atom_site_type_symbol
_atom_site_label
_atom_site_fract_x
_atom_site_fract_y
_atom_site_fract_z
Si Si1 0.790226 0.475649 0.833629
Si Si2 0.720565 0.928591 0.485771
Si Si3 0.526883 0.822771 0.257021
Si Si4 0.745848 0.885786 0.639828
O O1 0.685437 0.542049 0.845217
O O2 0.000000 0.500000 0.839200
O O3 0.782804 0.500000 0.000000
O O4 0.757226 0.424890 0.897622
O O5 0.500000 0.925332 0.500000
O O6 0.801427 0.885842 0.551946
O O7 0.480105 0.750000 0.250000
O O8 0.750000 0.826903 0.250000
O O9 0.431646 0.845708 0.334485
O O10 0.413549 0.862333 0.193552
O O11 0.750000 0.045452 0.750000
#
# Coordination Sequence:
#
# PCOD9327111 Si02
#       4
#    16  16  16  16
#     4  11  24  38  62  93 139 186 229 270 326 404
#     4   9  21  38  58  89 137 184 224 267 326 401
#     4  10  21  39  70 110 132 171 234 296 354 413
#     4  10  20  39  62  94 139 184 219 279 342 404
#
# _framework density 23.319099999999999
#
# number of rings (size 3 to 8) (size 9 to 14) (size 15 to 20)
#    0.000    2.000    2.500    1.500    7.000    7.500 
#    0.000    5.000    0.000    0.000   39.000    0.000 
#    0.000    0.000    0.000    0.250    0.000    0.000 
#
# Total GULP energy -89429.686590 kJ/mol
# GULP energy per Si atom -5589.355412 kJ/mol
# Density = 2.326602 g / cm^3
# Si number density = 23.319100 Si / 1000 Ang^3
#
#
#
# Elastic Constant Matrix: (Units=GPa)
#
#
# Indices 1 2 3 4 5 6 
#
# 1 138.0344 21.4689 66.1038 0.0000 0.0000 0.0000
# 2 21.4689 121.4029 51.0466 0.0000 0.0000 0.0000
# 3 66.1038 51.0466 246.3841 0.0000 0.0000 0.0000
# 4 0.0000 0.0000 0.0000 25.3446 0.0000 0.0000
# 5 0.0000 0.0000 0.0000 0.0000 36.1577 0.0000
# 6 0.0000 0.0000 0.0000 0.0000 0.0000 15.0924
#
#
#
# Elastic Compliance Matrix: (Units=1/GPa)
#
#
# Indices 1 2 3 4 5 6 
#
# 1 0.008350 -0.000586 -0.002119 0.000000 0.000000 0.000000
# 2 -0.000586 0.009064 -0.001721 0.000000 0.000000 0.000000
# 3 -0.002119 -0.001721 0.004984 0.000000 0.000000 0.000000
# 4 0.000000 0.000000 0.000000 0.039456 0.000000 0.000000
# 5 0.000000 0.000000 0.000000 0.000000 0.027657 0.000000
# 6 0.000000 0.000000 0.000000 0.000000 0.000000 0.066259
#
#
# Mechanical properties :
#
#
# Convention : Reuss Voigt Hill
#
# Bulk Modulus (GPa) = 73.81547 87.00666 80.41106
# Shear Modulus (GPa) = 29.56191 39.79907 34.68049
#
# Velocity S-wave (km/s) = 3.56436 4.13572 3.86062
# Velocity P-wave (km/s) = 6.97587 7.75873 7.37769
#
# Compressibility (1/GPa) = 0.01354730
#
# Stress axis : x y z
#
# Youngs Moduli (GPa) = 119.75388 110.32458 200.65190
#
# Poissons Ratio (x) = 0.06462 0.42519
# Poissons Ratio (y) = 0.07014 0.34528
# Poissons Ratio (z) = 0.25376 0.18985
#
# Static dielectric constant tensor:
#      x y z
#    x 1.997630 0.000000 0.000000 
#    y 0.000000 1.882820 0.000000 
#    z 0.000000 0.000000 2.018670 
# 
# From -- ./inp_files/26887.got.cif
#   From: 2010.05.17/outbox.cif.g08.bks.cpg/sg22_14_cif.got.tgz:26887.got - 2010.06.03 23:40:54.
