data_PCOD9327897
_publ_section_title
;
Structure prediction by ZEFSAII (Michael W. Deem and Ramdas Pophale) SiO2 
 PCOD9327897
Probable space group: F 2 2 2
;
_chemical_formula_sum "Si O2"
_cell_formula_units_Z 80
_cell_length_a 11.956871
_cell_length_b 25.631034
_cell_length_c 11.847545
_cell_angle_alpha 90.000000
_cell_angle_beta 90.000000
_cell_angle_gamma 90.000000
_cell_volume 3630.881184
_symmetry_space_group_name_H-M "F 2 2 2"
_symmetry_group_IT_number 22
_symmetry_cell_setting 'orthorhombic'
loop_
_space_group_symop_operation_xyz
x,y,z
-x,-y,z
x,-y,-z
-x,y,-z
x,1/2+y,1/2+z
-x,1/2-y,1/2+z
x,1/2-y,1/2-z
-x,1/2+y,1/2-z
1/2+x,y,1/2+z
1/2-x,-y,1/2+z
1/2+x,-y,1/2-z
1/2-x,y,1/2-z
1/2+x,1/2+y,z
1/2-x,1/2-y,z
1/2+x,1/2-y,-z
1/2-x,1/2+y,-z
loop_
_atom_site_type_symbol
_atom_site_label
_atom_site_fract_x
_atom_site_fract_y
_atom_site_fract_z
Si Si1 0.192088 0.373007 0.937918
Si Si2 0.465046 0.948051 0.204178
Si Si3 0.366229 0.863861 0.808347
Si Si4 0.048201 0.278492 0.871531
Si Si5 0.619782 0.549653 0.939862
O O1 0.114586 0.410312 0.864370
O O2 0.155751 0.314478 0.904179
O O3 0.316735 0.395233 0.930733
O O4 0.158942 0.382243 0.066043
O O5 0.566650 0.911515 0.246928
O O6 0.398821 0.967889 0.312391
O O7 0.500000 0.000000 0.139687
O O8 0.250000 0.850542 0.750000
O O9 0.447738 0.815255 0.826762
O O10 0.076075 0.250000 0.750000
O O11 0.000000 0.258609 0.000000
O O12 0.678429 0.500000 0.000000
O O13 0.500000 0.556269 0.000000
#
# Coordination Sequence:
#
# PCOD9327897 Si02
#       5
#    16  16  16  16  16
#     4  10  23  40  65  96 135 176 230 290 349 418
#     4  11  22  37  58  91 133 180 229 272 332 408
#     4  10  22  39  65  97 130 175 225 287 356 415
#     4   9  20  44  73 105 137 176 236 298 365 441
#     4  11  22  39  58  93 134 185 233 276 331 409
#
# _framework density 22.03322
#
# number of rings (size 3 to 8) (size 9 to 14) (size 15 to 20)
#    0.000    1.800    2.000    3.600    2.800    1.200 
#    0.000   10.000    0.000   26.400    0.000    5.600 
#    0.000    0.000    0.000    0.000    0.000    0.000 
#
# Total GULP energy -111343.646646 kJ/mol
# GULP energy per Si atom -5567.182332 kJ/mol
# Density = 2.198307 g / cm^3
# Si number density = 22.033220 Si / 1000 Ang^3
#
#
#
# Elastic Constant Matrix: (Units=GPa)
#
#
# Indices 1 2 3 4 5 6 
#
# 1 76.8520 17.3629 7.4155 0.0000 0.0000 0.0000
# 2 17.3629 39.1274 37.9385 0.0000 0.0000 0.0000
# 3 7.4155 37.9385 131.8643 0.0000 0.0000 0.0000
# 4 0.0000 0.0000 0.0000 41.7958 0.0000 0.0000
# 5 0.0000 0.0000 0.0000 0.0000 56.7336 0.0000
# 6 0.0000 0.0000 0.0000 0.0000 0.0000 12.5403
#
#
#
# Elastic Compliance Matrix: (Units=1/GPa)
#
#
# Indices 1 2 3 4 5 6 
#
# 1 0.014660 -0.007914 0.001452 0.000000 0.000000 0.000000
# 2 -0.007914 0.039718 -0.010982 0.000000 0.000000 0.000000
# 3 0.001452 -0.010982 0.010662 0.000000 0.000000 0.000000
# 4 0.000000 0.000000 0.000000 0.023926 0.000000 0.000000
# 5 0.000000 0.000000 0.000000 0.000000 0.017626 0.000000
# 6 0.000000 0.000000 0.000000 0.000000 0.000000 0.079743
#
#
# Mechanical properties :
#
#
# Convention : Reuss Voigt Hill
#
# Bulk Modulus (GPa) = 33.16489 41.47529 37.32009
# Shear Modulus (GPa) = 21.61962 34.55572 28.08767
#
# Velocity S-wave (km/s) = 3.13586 3.96453 3.57429
# Velocity P-wave (km/s) = 5.31002 6.31043 5.83172
#
# Compressibility (1/GPa) = 0.03015237
#
# Stress axis : x y z
#
# Youngs Moduli (GPa) = 68.21398 25.17777 93.79528
#
# Poissons Ratio (x) = 0.19925 -0.13623
# Poissons Ratio (y) = 0.53982 1.03007
# Poissons Ratio (z) = -0.09907 0.27650
#
# Static dielectric constant tensor:
#      x y z
#    x 1.466540 0.000000 0.000000 
#    y 0.000000 1.808230 0.000000 
#    z 0.000000 0.000000 1.883190 
# 
# From -- ./inp_files/18297.got.cif
#   From: 2010.05.17/outbox.cif.g08.bks.cpg/sg22_10_cif.got.tgz:18297.got - 2010.06.03 23:40:54.
