data_PCOD9327391
_publ_section_title
;
Structure prediction by ZEFSAII (Michael W. Deem and Ramdas Pophale) SiO2 
 PCOD9327391
Probable space group: F 2 2 2
;
_chemical_formula_sum "Si O2"
_cell_formula_units_Z 88
_cell_length_a 15.074125
_cell_length_b 14.724469
_cell_length_c 19.845311
_cell_angle_alpha 90.000000
_cell_angle_beta 90.000000
_cell_angle_gamma 90.000000
_cell_volume 4404.835189
_symmetry_space_group_name_H-M "F 2 2 2"
_symmetry_group_IT_number 22
_symmetry_cell_setting 'orthorhombic'
loop_
_space_group_symop_operation_xyz
x,y,z
-x,-y,z
x,-y,-z
-x,y,-z
x,1/2+y,1/2+z
-x,1/2-y,1/2+z
x,1/2-y,1/2-z
-x,1/2+y,1/2-z
1/2+x,y,1/2+z
1/2-x,-y,1/2+z
1/2+x,-y,1/2-z
1/2-x,y,1/2-z
1/2+x,1/2+y,z
1/2-x,1/2-y,z
1/2+x,1/2-y,-z
1/2-x,1/2+y,-z
loop_
_atom_site_type_symbol
_atom_site_label
_atom_site_fract_x
_atom_site_fract_y
_atom_site_fract_z
Si Si1 0.589859 0.250000 0.750000
Si Si2 0.305949 0.502659 0.319014
Si Si3 0.100523 0.608174 0.506998
Si Si4 0.807051 0.840137 0.872067
Si Si5 0.454248 0.088735 0.734161
Si Si6 0.792061 0.333564 0.630311
O O1 0.524243 0.163471 0.760570
O O2 0.655132 0.288602 0.807589
O O3 0.250000 0.502234 0.250000
O O4 0.260509 0.575985 0.366640
O O5 0.400254 0.540904 0.295219
O O6 0.284860 0.403891 0.348760
O O7 0.104000 0.500000 0.500000
O O8 0.153579 0.657000 0.446926
O O9 0.137359 0.623104 0.581306
O O10 0.000000 0.639560 0.500000
O O11 0.750000 0.750000 0.856262
O O12 0.885503 0.861693 0.817357
O O13 0.500000 0.000000 0.699639
O O14 0.750000 0.250000 0.590942
#
# Coordination Sequence:
#
# PCOD9327391 Si02
#       6
#     8  16  16  16  16  16
#     4  12  23  38  63  96 128 166 210 266 325 384
#     4  10  21  37  58  88 123 164 205 254 312 379
#     4  11  24  40  65  92 123 165 217 272 320 380
#     4  11  22  40  62  90 127 167 211 260 322 387
#     4  11  23  38  63  95 131 168 209 264 324 380
#     4  12  23  41  64  91 128 169 214 263 323 387
#
# _framework density 19.978045999999999
#
# number of rings (size 3 to 8) (size 9 to 14) (size 15 to 20)
#    0.000    0.909    1.818    7.364    2.545    2.545 
#    0.000    0.000    0.000    0.000    0.000    2.545 
#    0.000    0.000    0.000    0.000    0.000    0.000 
#
# Total GULP energy -122769.483917 kJ/mol
# GULP energy per Si atom -5580.431087 kJ/mol
# Density = 1.993258 g / cm^3
# Si number density = 19.978046 Si / 1000 Ang^3
#
#
#
# Elastic Constant Matrix: (Units=GPa)
#
#
# Indices 1 2 3 4 5 6 
#
# 1 93.2157 52.4202 30.8683 0.0000 0.0000 0.0000
# 2 52.4202 146.1780 27.6402 0.0000 0.0000 0.0000
# 3 30.8683 27.6402 83.5197 0.0000 0.0000 0.0000
# 4 0.0000 0.0000 0.0000 22.0959 0.0000 0.0000
# 5 0.0000 0.0000 0.0000 0.0000 15.7387 0.0000
# 6 0.0000 0.0000 0.0000 0.0000 0.0000 31.9414
#
#
#
# Elastic Compliance Matrix: (Units=1/GPa)
#
#
# Indices 1 2 3 4 5 6 
#
# 1 0.014533 -0.004476 -0.003890 0.000000 0.000000 0.000000
# 2 -0.004476 0.008676 -0.001217 0.000000 0.000000 0.000000
# 3 -0.003890 -0.001217 0.013814 0.000000 0.000000 0.000000
# 4 0.000000 0.000000 0.000000 0.045257 0.000000 0.000000
# 5 0.000000 0.000000 0.000000 0.000000 0.063538 0.000000
# 6 0.000000 0.000000 0.000000 0.000000 0.000000 0.031307
#
#
# Mechanical properties :
#
#
# Convention : Reuss Voigt Hill
#
# Bulk Modulus (GPa) = 56.00094 60.53009 58.26552
# Shear Modulus (GPa) = 24.72264 28.08752 26.40508
#
# Velocity S-wave (km/s) = 3.52161 3.75363 3.63947
# Velocity P-wave (km/s) = 6.68040 7.01073 6.84756
#
# Compressibility (1/GPa) = 0.01785684
#
# Stress axis : x y z
#
# Youngs Moduli (GPa) = 68.80830 115.25715 72.39184
#
# Poissons Ratio (x) = 0.51590 0.28161
# Poissons Ratio (y) = 0.30799 0.08810
# Poissons Ratio (z) = 0.26767 0.14027
#
# Static dielectric constant tensor:
#      x y z
#    x 1.801080 0.000000 0.000000 
#    y 0.000000 1.771120 0.000000 
#    z 0.000000 0.000000 1.693390 
# 
# From -- ./inp_files/30609.got.cif
#   From: 2010.05.17/outbox.cif.g08.bks.cpg/sg22_16_cif.got.tgz:30609.got - 2010.06.03 23:40:54.
