data_PCOD9327048
_publ_section_title
;
Structure prediction by ZEFSAII (Michael W. Deem and Ramdas Pophale) SiO2 
 PCOD9327048
Probable space group: F 2 2 2
;
_chemical_formula_sum "Si O2"
_cell_formula_units_Z 104
_cell_length_a 22.338421
_cell_length_b 30.357769
_cell_length_c 7.475839
_cell_angle_alpha 90.000000
_cell_angle_beta 90.000000
_cell_angle_gamma 90.000000
_cell_volume 5069.700032
_symmetry_space_group_name_H-M "F 2 2 2"
_symmetry_group_IT_number 22
_symmetry_cell_setting 'orthorhombic'
loop_
_space_group_symop_operation_xyz
x,y,z
-x,-y,z
x,-y,-z
-x,y,-z
x,1/2+y,1/2+z
-x,1/2-y,1/2+z
x,1/2-y,1/2-z
-x,1/2+y,1/2-z
1/2+x,y,1/2+z
1/2-x,-y,1/2+z
1/2+x,-y,1/2-z
1/2-x,y,1/2-z
1/2+x,1/2+y,z
1/2-x,1/2-y,z
1/2+x,1/2-y,-z
1/2-x,1/2+y,-z
loop_
_atom_site_type_symbol
_atom_site_label
_atom_site_fract_x
_atom_site_fract_y
_atom_site_fract_z
Si Si1 0.072804 0.202048 0.218483
Si Si2 0.008622 0.949542 0.216889
Si Si3 0.392682 0.893324 0.742236
Si Si4 0.295085 0.541785 0.592182
Si Si5 0.063169 0.297779 0.709069
Si Si6 0.617700 0.610748 0.808785
Si Si7 0.750000 0.085953 0.250000
O O1 0.100956 0.250000 0.250000
O O2 0.104851 0.158466 0.290171
O O3 0.004216 0.203163 0.285526
O O4 0.064822 0.197982 0.005450
O O5 0.073562 0.928392 0.255875
O O6 0.956015 0.917101 0.282950
O O7 0.000000 0.000000 0.276898
O O8 0.000000 0.949823 0.000000
O O9 0.340776 0.921762 0.834204
O O10 0.384815 0.893072 0.525726
O O11 0.327140 0.500000 0.500000
O O12 0.250000 0.528665 0.750000
O O13 0.253206 0.559631 0.434483
O O14 0.090869 0.250000 0.750000
O O15 0.092591 0.343288 0.765223
O O16 0.686384 0.609497 0.753478
#
# Coordination Sequence:
#
# PCOD9327048 Si02
#       7
#    16  16  16  16  16  16   8
#     4   9  17  32  59  93 125 167 214 265 335 395
#     4   9  18  32  59  89 120 163 207 261 328 383
#     4  10  20  39  65  91 128 167 218 274 328 391
#     4  12  26  45  66  94 130 175 228 271 320 388
#     4   9  17  32  57  90 129 167 211 266 324 391
#     4  10  20  38  62  93 127 168 219 263 327 394
#     4  12  26  42  65  92 124 176 221 266 322 384
#
# _framework density 20.514033000000001
#
# number of rings (size 3 to 8) (size 9 to 14) (size 15 to 20)
#    0.000    2.000    3.846    0.000    2.154    1.231 
#    0.000    1.154    0.000    0.462    0.000    0.000 
#    0.000    0.000    0.000    0.000    0.000    0.000 
#
# Total GULP energy -145010.556935 kJ/mol
# GULP energy per Si atom -5577.329113 kJ/mol
# Density = 2.046734 g / cm^3
# Si number density = 20.514033 Si / 1000 Ang^3
#
#
#
# Elastic Constant Matrix: (Units=GPa)
#
#
# Indices 1 2 3 4 5 6 
#
# 1 103.8568 76.0867 13.0554 -0.0080 0.0115 -0.0035
# 2 76.0867 210.2391 26.1835 -0.0044 0.0043 0.0009
# 3 13.0554 26.1835 75.5430 -0.0144 0.0262 0.0047
# 4 -0.0080 -0.0044 -0.0144 22.8404 0.0070 0.0026
# 5 0.0115 0.0043 0.0262 0.0070 16.8899 -0.0050
# 6 -0.0035 0.0009 0.0047 0.0026 -0.0050 29.1351
#
#
#
# Elastic Compliance Matrix: (Units=1/GPa)
#
#
# Indices 1 2 3 4 5 6 
#
# 1 0.013133 -0.004672 -0.000650 0.000003 -0.000007 0.000002
# 2 -0.004672 0.006633 -0.001492 -0.000001 0.000004 -0.000001
# 3 -0.000650 -0.001492 0.013867 0.000008 -0.000021 -0.000002
# 4 0.000003 -0.000001 0.000008 0.043782 -0.000018 -0.000004
# 5 -0.000007 0.000004 -0.000021 -0.000018 0.059207 0.000010
# 6 0.000002 -0.000001 -0.000002 -0.000004 0.000010 0.034323
#
#
# Mechanical properties :
#
#
# Convention : Reuss Voigt Hill
#
# Bulk Modulus (GPa) = 49.98700 68.92112 59.45406
# Shear Modulus (GPa) = 26.14495 32.06062 29.10279
#
# Velocity S-wave (km/s) = 3.57387 3.95760 3.77062
# Velocity P-wave (km/s) = 6.43818 7.38603 6.92833
#
# Compressibility (1/GPa) = 0.02000520
#
# Stress axis : x y z
#
# Youngs Moduli (GPa) = 76.14337 150.75985 72.11418
#
# Poissons Ratio (x) = 0.70434 0.04690
# Poissons Ratio (y) = 0.35574 0.10757
# Poissons Ratio (z) = 0.04952 0.22488
#
# Static dielectric constant tensor:
#      x y z
#    x 1.697700 0.000000 0.000000 
#    y 0.000000 1.774730 -0.000020 
#    z 0.000000 -0.000020 1.766820 
# 
# From -- ./inp_files/13068.got.cif
#   From: 2010.05.17/outbox.cif.g08.bks.cpg/sg22_7_cif.got.tgz:13068.got - 2010.06.03 23:40:54.
