data_PCOD9327223
_publ_section_title
;
Structure prediction by ZEFSAII (Michael W. Deem and Ramdas Pophale) SiO2 
 PCOD9327223
Probable space group: F 2 2 2
;
_chemical_formula_sum "Si O2"
_cell_formula_units_Z 108
_cell_length_a 21.230082
_cell_length_b 14.214843
_cell_length_c 15.782355
_cell_angle_alpha 90.000000
_cell_angle_beta 90.000000
_cell_angle_gamma 90.000000
_cell_volume 4762.835115
_symmetry_space_group_name_H-M "F 2 2 2"
_symmetry_group_IT_number 22
_symmetry_cell_setting 'orthorhombic'
loop_
_space_group_symop_operation_xyz
x,y,z
-x,-y,z
x,-y,-z
-x,y,-z
x,1/2+y,1/2+z
-x,1/2-y,1/2+z
x,1/2-y,1/2-z
-x,1/2+y,1/2-z
1/2+x,y,1/2+z
1/2-x,-y,1/2+z
1/2+x,-y,1/2-z
1/2-x,y,1/2-z
1/2+x,1/2+y,z
1/2-x,1/2-y,z
1/2+x,1/2-y,-z
1/2-x,1/2+y,-z
loop_
_atom_site_type_symbol
_atom_site_label
_atom_site_fract_x
_atom_site_fract_y
_atom_site_fract_z
Si Si1 0.056312 0.625542 0.684778
Si Si2 0.924656 0.412632 0.368778
Si Si3 0.187757 0.812292 0.423923
Si Si4 0.173843 0.500000 0.000000
Si Si5 0.154055 0.901670 0.674794
Si Si6 0.430775 0.725198 0.983006
Si Si7 0.750000 0.750000 0.250000
Si Si8 0.821243 0.393433 0.245112
O O1 0.071235 0.524285 0.641607
O O2 0.091965 0.628576 0.773295
O O3 0.076738 0.701379 0.615348
O O4 0.980953 0.627902 0.689632
O O5 0.934331 0.370629 0.461166
O O6 0.859109 0.379339 0.330390
O O7 0.250000 0.750000 0.421645
O O8 0.210724 0.915099 0.456372
O O9 0.131750 0.775058 0.483222
O O10 0.154025 0.835199 0.334665
O O11 0.141790 0.555492 0.919786
O O12 0.206061 0.819279 0.691570
O O13 0.176762 0.995848 0.723886
O O14 0.500000 0.771120 0.000000
O O15 0.750000 0.363115 0.250000
#
# Coordination Sequence:
#
# PCOD9327223 Si02
#       8
#    16  16  16   8  16  16   4  16
#     4   9  19  38  63  98 135 179 230 287 355 416
#     4   9  18  36  66  96 136 178 228 284 353 420
#     4  11  25  44  66  96 135 180 232 290 364 425
#     4  10  26  48  65  96 137 180 240 298 350 442
#     4  10  23  41  67  96 138 177 234 295 352 429
#     4  10  21  39  62 100 137 177 233 294 352 425
#     4  12  24  40  72 108 138 190 238 296 376 416
#     4  10  20  41  64  96 134 175 225 285 349 428
#
# _framework density 22.675571000000001
#
# number of rings (size 3 to 8) (size 9 to 14) (size 15 to 20)
#    0.000    2.074    0.741    1.333    3.111    3.852 
#    8.000    0.370    0.000    0.000    0.000    0.000 
#    0.000    0.000    0.000    0.000    0.000    0.000 
#
# Total GULP energy -150610.115031 kJ/mol
# GULP energy per Si atom -5578.152409 kJ/mol
# Density = 2.262396 g / cm^3
# Si number density = 22.675571 Si / 1000 Ang^3
#
#
#
# Elastic Constant Matrix: (Units=GPa)
#
#
# Indices 1 2 3 4 5 6 
#
# 1 121.4622 33.8574 51.7153 0.0000 0.0000 0.0000
# 2 33.8574 109.0375 43.6359 0.0000 0.0000 0.0000
# 3 51.7153 43.6359 125.1994 0.0000 0.0000 0.0000
# 4 0.0000 0.0000 0.0000 38.6464 0.0000 0.0000
# 5 0.0000 0.0000 0.0000 0.0000 22.3494 0.0000
# 6 0.0000 0.0000 0.0000 0.0000 0.0000 22.7160
#
#
#
# Elastic Compliance Matrix: (Units=1/GPa)
#
#
# Indices 1 2 3 4 5 6 
#
# 1 0.010264 -0.001732 -0.003636 0.000000 0.000000 0.000000
# 2 -0.001732 0.010950 -0.003101 0.000000 0.000000 0.000000
# 3 -0.003636 -0.003101 0.010570 0.000000 0.000000 0.000000
# 4 0.000000 0.000000 0.000000 0.025876 0.000000 0.000000
# 5 0.000000 0.000000 0.000000 0.000000 0.044744 0.000000
# 6 0.000000 0.000000 0.000000 0.000000 0.000000 0.044022
#
#
# Mechanical properties :
#
#
# Convention : Reuss Voigt Hill
#
# Bulk Modulus (GPa) = 67.35868 68.23514 67.79691
# Shear Modulus (GPa) = 29.70679 31.84173 30.77426
#
# Velocity S-wave (km/s) = 3.62343 3.75137 3.68795
# Velocity P-wave (km/s) = 6.87572 6.99435 6.93529
#
# Compressibility (1/GPa) = 0.01484590
#
# Stress axis : x y z
#
# Youngs Moduli (GPa) = 97.42882 91.32473 94.60780
#
# Poissons Ratio (x) = 0.15817 0.34399
# Poissons Ratio (y) = 0.16874 0.29338
# Poissons Ratio (z) = 0.35425 0.28320
#
# Static dielectric constant tensor:
#      x y z
#    x 1.826700 0.000000 0.000000 
#    y 0.000000 1.881630 0.000000 
#    z 0.000000 0.000000 1.901370 
# 
# From -- ./inp_files/32550.got.cif
#   From: 2010.05.17/outbox.cif.g08.bks.cpg/sg22_17_cif.got.tgz:32550.got - 2010.06.03 23:40:54.
