data_PCOD9328965
_publ_section_title
;
Structure prediction by ZEFSAII (Michael W. Deem and Ramdas Pophale) SiO2 
 PCOD9328965
Probable space group: F 2 2 2
;
_chemical_formula_sum "Si O2"
_cell_formula_units_Z 80
_cell_length_a 23.640772
_cell_length_b 10.659037
_cell_length_c 16.370040
_cell_angle_alpha 90.000000
_cell_angle_beta 90.000000
_cell_angle_gamma 90.000000
_cell_volume 4125.051404
_symmetry_space_group_name_H-M "F 2 2 2"
_symmetry_group_IT_number 22
_symmetry_cell_setting 'orthorhombic'
loop_
_space_group_symop_operation_xyz
x,y,z
-x,-y,z
x,-y,-z
-x,y,-z
x,1/2+y,1/2+z
-x,1/2-y,1/2+z
x,1/2-y,1/2-z
-x,1/2+y,1/2-z
1/2+x,y,1/2+z
1/2-x,-y,1/2+z
1/2+x,-y,1/2-z
1/2-x,y,1/2-z
1/2+x,1/2+y,z
1/2-x,1/2-y,z
1/2+x,1/2-y,-z
1/2-x,1/2+y,-z
loop_
_atom_site_type_symbol
_atom_site_label
_atom_site_fract_x
_atom_site_fract_y
_atom_site_fract_z
Si Si1 0.338832 0.131914 0.694941
Si Si2 0.250000 0.750000 0.608569
Si Si3 0.250000 0.931823 0.750000
Si Si4 0.348867 0.851752 0.492578
Si Si5 0.935653 0.135046 0.468556
Si Si6 0.541551 0.882558 0.776383
O O1 0.322531 0.250000 0.750000
O O2 0.330147 0.164500 0.601010
O O3 0.404110 0.103196 0.717545
O O4 0.300691 0.015443 0.717666
O O5 0.227418 0.852385 0.673083
O O6 0.298640 0.811756 0.553350
O O7 0.400013 0.752692 0.501508
O O8 0.363550 0.000000 0.500000
O O9 0.937235 0.131030 0.369937
O O10 0.000000 0.145067 0.500000
O O11 0.913167 0.000000 0.500000
O O12 0.513984 0.750000 0.750000
O O13 0.500000 0.000000 0.770901
#
# Coordination Sequence:
#
# PCOD9328965 Si02
#       6
#    16   8   8  16  16  16
#     4  11  24  44  70  97 136 177 224 276 339 410
#     4  11  28  44  69  96 140 176 225 282 340 407
#     4  11  25  48  64 102 131 179 224 276 348 401
#     4  12  26  46  68 107 139 176 231 286 343 401
#     4  11  24  45  70 100 137 183 229 276 339 414
#     4  11  23  45  68 102 136 178 228 276 338 405
#
# _framework density 19.393698000000001
#
# number of rings (size 3 to 8) (size 9 to 14) (size 15 to 20)
#    0.000    0.800    8.000    0.300    5.600    2.800 
#    3.600    0.000    0.000    0.000    0.000    0.000 
#    0.000    0.000    0.000    0.000    0.000    0.000 
#
# Total GULP energy -111689.125348 kJ/mol
# GULP energy per Si atom -5584.456267 kJ/mol
# Density = 1.934956 g / cm^3
# Si number density = 19.393698 Si / 1000 Ang^3
#
#
#
# Elastic Constant Matrix: (Units=GPa)
#
#
# Indices 1 2 3 4 5 6 
#
# 1 66.8016 51.5616 20.0767 0.0000 0.0000 0.0000
# 2 51.5616 166.6060 40.8715 0.0000 0.0000 0.0000
# 3 20.0767 40.8715 131.3061 0.0000 0.0000 0.0000
# 4 0.0000 0.0000 0.0000 32.5849 0.0000 0.0000
# 5 0.0000 0.0000 0.0000 0.0000 16.4957 0.0000
# 6 0.0000 0.0000 0.0000 0.0000 0.0000 37.2452
#
#
#
# Elastic Compliance Matrix: (Units=1/GPa)
#
#
# Indices 1 2 3 4 5 6 
#
# 1 0.019845 -0.005844 -0.001215 0.000000 0.000000 0.000000
# 2 -0.005844 0.008219 -0.001665 0.000000 0.000000 0.000000
# 3 -0.001215 -0.001665 0.008320 0.000000 0.000000 0.000000
# 4 0.000000 0.000000 0.000000 0.030689 0.000000 0.000000
# 5 0.000000 0.000000 0.000000 0.000000 0.060622 0.000000
# 6 0.000000 0.000000 0.000000 0.000000 0.000000 0.026849
#
#
# Mechanical properties :
#
#
# Convention : Reuss Voigt Hill
#
# Bulk Modulus (GPa) = 52.80790 65.52592 59.16691
# Shear Modulus (GPa) = 28.04190 34.07875 31.06033
#
# Velocity S-wave (km/s) = 3.80666 4.19645 4.00630
# Velocity P-wave (km/s) = 6.82711 7.57238 7.20938
#
# Compressibility (1/GPa) = 0.01893656
#
# Stress axis : x y z
#
# Youngs Moduli (GPa) = 50.38927 121.66759 120.19453
#
# Poissons Ratio (x) = 0.71098 0.14609
# Poissons Ratio (y) = 0.29446 0.20011
# Poissons Ratio (z) = 0.06124 0.20256
#
# Static dielectric constant tensor:
#      x y z
#    x 1.659620 0.000000 0.000000 
#    y 0.000000 1.708410 0.000000 
#    z 0.000000 0.000000 1.652710 
# 
# From -- ./inp_files/39909.got.cif
#   From: 2010.05.17/outbox.cif.g08.bks.cpg/sg22_20_cif.got.tgz:39909.got - 2010.06.03 23:40:54.
