data_PCOD9328676
_publ_section_title
;
Structure prediction by ZEFSAII (Michael W. Deem and Ramdas Pophale) SiO2 
 PCOD9328676
Probable space group: F 2 2 2
;
_chemical_formula_sum "Si O2"
_cell_formula_units_Z 72
_cell_length_a 11.734102
_cell_length_b 18.786217
_cell_length_c 15.196254
_cell_angle_alpha 90.000000
_cell_angle_beta 90.000000
_cell_angle_gamma 90.000000
_cell_volume 3349.852908
_symmetry_space_group_name_H-M "F 2 2 2"
_symmetry_group_IT_number 22
_symmetry_cell_setting 'orthorhombic'
loop_
_space_group_symop_operation_xyz
x,y,z
-x,-y,z
x,-y,-z
-x,y,-z
x,1/2+y,1/2+z
-x,1/2-y,1/2+z
x,1/2-y,1/2-z
-x,1/2+y,1/2-z
1/2+x,y,1/2+z
1/2-x,-y,1/2+z
1/2+x,-y,1/2-z
1/2-x,y,1/2-z
1/2+x,1/2+y,z
1/2-x,1/2-y,z
1/2+x,1/2-y,-z
1/2-x,1/2+y,-z
loop_
_atom_site_type_symbol
_atom_site_label
_atom_site_fract_x
_atom_site_fract_y
_atom_site_fract_z
Si Si1 0.833395 0.464663 0.126169
Si Si2 0.087834 0.437608 0.672000
Si Si3 0.089857 0.825085 0.799554
Si Si4 0.314082 0.370538 0.378910
Si Si5 0.500000 0.122362 0.000000
O O1 0.876772 0.457061 0.227120
O O2 0.706935 0.432169 0.121151
O O3 0.811030 0.546148 0.097746
O O4 0.928275 0.425344 0.068515
O O5 0.000000 0.500000 0.642676
O O6 0.023048 0.362588 0.667280
O O7 0.077760 0.750000 0.750000
O O8 0.193379 0.831521 0.868799
O O9 0.132801 0.873075 0.718382
O O10 0.405525 0.335516 0.444219
#
# Coordination Sequence:
#
# PCOD9328676 Si02
#       5
#    16  16  16  16   8
#     4  11  20  33  63  95 121 157 205 264 315 365
#     4  11  18  37  63  90 119 159 211 263 307 359
#     4  11  22  38  65  91 119 164 220 257 305 378
#     4  11  19  35  61  90 122 158 204 261 306 370
#     4  12  23  36  62 102 130 162 207 262 323 382
#
# _framework density 21.493479000000001
#
# number of rings (size 3 to 8) (size 9 to 14) (size 15 to 20)
#    0.000    0.889    6.667    4.667    0.000    0.000 
#    0.000    3.333    9.778    0.000    0.000    0.000 
#    0.000    0.000    0.000    0.000    0.000    0.000 
#
# Total GULP energy -100470.655110 kJ/mol
# GULP energy per Si atom -5581.703062 kJ/mol
# Density = 2.144456 g / cm^3
# Si number density = 21.493479 Si / 1000 Ang^3
#
#
#
# Elastic Constant Matrix: (Units=GPa)
#
#
# Indices 1 2 3 4 5 6 
#
# 1 196.8235 67.9767 27.6936 0.0000 0.0000 0.0000
# 2 67.9767 83.4515 9.3186 0.0000 0.0000 0.0000
# 3 27.6936 9.3186 43.6850 0.0000 0.0000 0.0000
# 4 0.0000 0.0000 0.0000 6.3069 0.0000 0.0000
# 5 0.0000 0.0000 0.0000 0.0000 48.6100 0.0000
# 6 0.0000 0.0000 0.0000 0.0000 0.0000 21.4267
#
#
#
# Elastic Compliance Matrix: (Units=1/GPa)
#
#
# Indices 1 2 3 4 5 6 
#
# 1 0.007577 -0.005773 -0.003572 0.000000 0.000000 0.000000
# 2 -0.005773 0.016674 0.000103 0.000000 0.000000 0.000000
# 3 -0.003572 0.000103 0.025134 0.000000 0.000000 0.000000
# 4 0.000000 0.000000 0.000000 0.158556 0.000000 0.000000
# 5 0.000000 0.000000 0.000000 0.000000 0.020572 0.000000
# 6 0.000000 0.000000 0.000000 0.000000 0.000000 0.046671
#
#
# Mechanical properties :
#
#
# Convention : Reuss Voigt Hill
#
# Bulk Modulus (GPa) = 32.36181 59.32642 45.84411
# Shear Modulus (GPa) = 16.44910 29.86679 23.15795
#
# Velocity S-wave (km/s) = 2.76942 3.73174 3.28600
# Velocity P-wave (km/s) = 5.03145 6.79925 5.98103
#
# Compressibility (1/GPa) = 0.03090062
#
# Stress axis : x y z
#
# Youngs Moduli (GPa) = 131.97526 59.97288 39.78744
#
# Poissons Ratio (x) = 0.34624 0.14212
# Poissons Ratio (y) = 0.76193 -0.00410
# Poissons Ratio (z) = 0.47141 -0.00618
#
# Static dielectric constant tensor:
#      x y z
#    x 1.819020 0.000000 0.000000 
#    y 0.000000 1.831810 0.000000 
#    z 0.000000 0.000000 1.826430 
# 
# From -- ./inp_files/35982.got.cif
#   From: 2010.05.17/outbox.cif.g08.bks.cpg/sg22_18_cif.got.tgz:35982.got - 2010.06.03 23:40:54.
