data_PCOD9328969
_publ_section_title
;
Structure prediction by ZEFSAII (Michael W. Deem and Ramdas Pophale) SiO2 
 PCOD9328969
Probable space group: F 2 2 2
;
_chemical_formula_sum "Si O2"
_cell_formula_units_Z 64
_cell_length_a 13.544436
_cell_length_b 8.119341
_cell_length_c 26.023292
_cell_angle_alpha 90.000000
_cell_angle_beta 90.000000
_cell_angle_gamma 90.000000
_cell_volume 2861.830723
_symmetry_space_group_name_H-M "F 2 2 2"
_symmetry_group_IT_number 22
_symmetry_cell_setting 'orthorhombic'
loop_
_space_group_symop_operation_xyz
x,y,z
-x,-y,z
x,-y,-z
-x,y,-z
x,1/2+y,1/2+z
-x,1/2-y,1/2+z
x,1/2-y,1/2-z
-x,1/2+y,1/2-z
1/2+x,y,1/2+z
1/2-x,-y,1/2+z
1/2+x,-y,1/2-z
1/2-x,y,1/2-z
1/2+x,1/2+y,z
1/2-x,1/2-y,z
1/2+x,1/2-y,-z
1/2-x,1/2+y,-z
loop_
_atom_site_type_symbol
_atom_site_label
_atom_site_fract_x
_atom_site_fract_y
_atom_site_fract_z
Si Si1 0.930788 0.869145 0.207743
Si Si2 0.566794 0.651065 0.629299
Si Si3 0.109917 0.058013 0.941286
Si Si4 0.256229 0.946691 0.645109
O O1 0.886228 0.750000 0.250000
O O2 0.996501 0.762464 0.166864
O O3 0.848525 0.982260 0.181519
O O4 0.000000 0.000000 0.235852
O O5 0.500000 0.500000 0.610472
O O6 0.606584 0.756241 0.580760
O O7 0.338303 0.439831 0.654720
O O8 0.200566 0.976855 0.911403
O O9 0.000000 0.000000 0.924983
O O10 0.117933 0.000000 0.000000
O O11 0.250000 0.750000 0.651367
#
# Coordination Sequence:
#
# PCOD9328969 Si02
#       4
#    16  16  16  16
#     4  12  26  48  71 106 147 192 250 307 370 439
#     4  12  23  47  74 105 146 198 241 304 375 431
#     4  11  23  45  74 106 146 188 242 305 369 445
#     4  12  24  44  73 101 147 189 241 305 365 438
#
# _framework density 22.363308
#
# number of rings (size 3 to 8) (size 9 to 14) (size 15 to 20)
#    0.000    0.250    7.500    1.500    0.000    2.500 
#    0.000    8.750    0.000    0.000    0.000    0.000 
#    0.000    0.000    0.000    0.000    0.000    0.000 
#
# Total GULP energy -89225.705497 kJ/mol
# GULP energy per Si atom -5576.606594 kJ/mol
# Density = 2.231241 g / cm^3
# Si number density = 22.363308 Si / 1000 Ang^3
#
#
#
# Elastic Constant Matrix: (Units=GPa)
#
#
# Indices 1 2 3 4 5 6 
#
# 1 112.1051 17.2516 26.6483 0.0000 0.0000 0.0000
# 2 17.2516 75.7212 26.7165 0.0000 0.0000 0.0000
# 3 26.6483 26.7165 96.1615 0.0000 0.0000 0.0000
# 4 0.0000 0.0000 0.0000 20.7486 0.0000 0.0000
# 5 0.0000 0.0000 0.0000 0.0000 4.7632 0.0000
# 6 0.0000 0.0000 0.0000 0.0000 0.0000 57.8379
#
#
#
# Elastic Compliance Matrix: (Units=1/GPa)
#
#
# Indices 1 2 3 4 5 6 
#
# 1 0.009681 -0.001396 -0.002295 0.000000 0.000000 0.000000
# 2 -0.001396 0.014843 -0.003737 0.000000 0.000000 0.000000
# 3 -0.002295 -0.003737 0.012073 0.000000 0.000000 0.000000
# 4 0.000000 0.000000 0.000000 0.048196 0.000000 0.000000
# 5 0.000000 0.000000 0.000000 0.000000 0.209942 0.000000
# 6 0.000000 0.000000 0.000000 0.000000 0.000000 0.017290
#
#
# Mechanical properties :
#
#
# Convention : Reuss Voigt Hill
#
# Bulk Modulus (GPa) = 45.99518 47.24674 46.62096
# Shear Modulus (GPa) = 14.96438 30.89470 22.92954
#
# Velocity S-wave (km/s) = 2.58960 3.72087 3.20554
# Velocity P-wave (km/s) = 5.43629 6.29545 5.88158
#
# Compressibility (1/GPa) = 0.02174141
#
# Stress axis : x y z
#
# Youngs Moduli (GPa) = 103.30035 67.37250 82.82695
#
# Poissons Ratio (x) = 0.09404 0.19008
# Poissons Ratio (y) = 0.14419 0.30952
# Poissons Ratio (z) = 0.23706 0.25177
#
# Static dielectric constant tensor:
#      x y z
#    x 1.919730 0.000000 0.000000 
#    y 0.000000 1.919710 0.000000 
#    z 0.000000 0.000000 1.805290 
# 
# From -- ./inp_files/15330.got.cif
#   From: 2010.05.17/outbox.cif.g08.bks.cpg/sg22_8_cif.got.tgz:15330.got - 2010.06.03 23:40:54.
