data_PCOD9328658
_publ_section_title
;
Structure prediction by ZEFSAII (Michael W. Deem and Ramdas Pophale) SiO2 
 PCOD9328658
Probable space group: F 2 2 2
;
_chemical_formula_sum "Si O2"
_cell_formula_units_Z 40
_cell_length_a 5.059461
_cell_length_b 19.117373
_cell_length_c 17.596088
_cell_angle_alpha 90.000000
_cell_angle_beta 90.000000
_cell_angle_gamma 90.000000
_cell_volume 1701.957032
_symmetry_space_group_name_H-M "F 2 2 2"
_symmetry_group_IT_number 22
_symmetry_cell_setting 'orthorhombic'
loop_
_space_group_symop_operation_xyz
x,y,z
-x,-y,z
x,-y,-z
-x,y,-z
x,1/2+y,1/2+z
-x,1/2-y,1/2+z
x,1/2-y,1/2-z
-x,1/2+y,1/2-z
1/2+x,y,1/2+z
1/2-x,-y,1/2+z
1/2+x,-y,1/2-z
1/2-x,y,1/2-z
1/2+x,1/2+y,z
1/2-x,1/2-y,z
1/2+x,1/2-y,-z
1/2-x,1/2+y,-z
loop_
_atom_site_type_symbol
_atom_site_label
_atom_site_fract_x
_atom_site_fract_y
_atom_site_fract_z
Si Si1 0.000000 0.500000 0.000000
Si Si2 0.605477 0.861426 0.671745
Si Si3 0.500000 0.000000 0.602156
Si Si4 0.250000 0.250000 0.250000
Si Si5 0.750000 0.750000 0.944749
O O1 0.231144 0.475314 0.941158
O O2 0.750000 0.881997 0.750000
O O3 0.418878 0.798854 0.696856
O O4 0.773682 0.820607 0.606875
O O5 0.439698 0.928585 0.645615
O O6 0.500000 0.741870 0.000000
#
# Coordination Sequence:
#
# PCOD9328658 Si02
#       5
#     4  16   8   4   8
#     4  10  28  56  68 124 160 202 246 340 388 472
#     4  12  28  51  79 118 152 213 260 331 379 474
#     4  11  30  49  88 107 163 204 268 318 399 457
#     4  12  24  52  76 116 160 196 262 330 382 462
#     4  12  28  48  81 115 156 204 256 318 400 466
#
# _framework density 23.502355000000001
#
# number of rings (size 3 to 8) (size 9 to 14) (size 15 to 20)
#    0.000    0.400    4.000    1.200   16.800    0.000 
#    0.000    0.000    0.000    0.000    0.000    0.000 
#    0.000    0.000    0.000    0.000    0.000    0.000 
#
# Total GULP energy -55676.599801 kJ/mol
# GULP energy per Si atom -5567.659980 kJ/mol
# Density = 2.344886 g / cm^3
# Si number density = 23.502355 Si / 1000 Ang^3
#
#
#
# Elastic Constant Matrix: (Units=GPa)
#
#
# Indices 1 2 3 4 5 6 
#
# 1 102.4431 0.9260 16.2547 0.0000 0.0000 0.0000
# 2 0.9260 169.2074 37.9922 0.0000 0.0000 0.0000
# 3 16.2547 37.9922 90.7155 0.0000 0.0000 0.0000
# 4 0.0000 0.0000 0.0000 1499.1276 0.0000 0.0000
# 5 0.0000 0.0000 0.0000 0.0000 11.6024 0.0000
# 6 0.0000 0.0000 0.0000 0.0000 0.0000 119.8572
#
#
#
# Elastic Compliance Matrix: (Units=1/GPa)
#
#
# Indices 1 2 3 4 5 6 
#
# 1 0.010070 0.000386 -0.001966 0.000000 0.000000 0.000000
# 2 0.000386 0.006538 -0.002807 0.000000 0.000000 0.000000
# 3 -0.001966 -0.002807 0.012552 0.000000 0.000000 0.000000
# 4 0.000000 0.000000 0.000000 0.000667 0.000000 0.000000
# 5 0.000000 0.000000 0.000000 0.000000 0.086189 0.000000
# 6 0.000000 0.000000 0.000000 0.000000 0.000000 0.008343
#
#
# Mechanical properties :
#
#
# Convention : Reuss Voigt Hill
#
# Bulk Modulus (GPa) = 49.05530 52.52354 50.78942
# Shear Modulus (GPa) = 35.73245 346.59695 191.16470
#
# Velocity S-wave (km/s) = 3.90343 12.15703 9.02857
# Velocity P-wave (km/s) = 6.42133 14.81400 11.41683
#
# Compressibility (1/GPa) = 0.02038516
#
# Stress axis : x y z
#
# Youngs Moduli (GPa) = 99.30482 152.94844 79.67140
#
# Poissons Ratio (x) = -0.05909 0.15665
# Poissons Ratio (y) = -0.03837 0.22367
# Poissons Ratio (z) = 0.19525 0.42939
#
# Static dielectric constant tensor:
#      x y z
#    x 1.852660 0.000000 0.000000 
#    y 0.000000 2.120970 0.000000 
#    z 0.000000 0.000000 2.113530 
# 
# From -- ./inp_files/1431.got.cif
#   From: 2010.05.17/outbox.cif.g08.bks.cpg/sg22_1_cif.got.tgz:1431.got - 2010.06.03 23:40:54.
