data_PCOD9328662
_publ_section_title
;
Structure prediction by ZEFSAII (Michael W. Deem and Ramdas Pophale) SiO2 
 PCOD9328662
Probable space group: F 2 2 2
;
_chemical_formula_sum "Si O2"
_cell_formula_units_Z 88
_cell_length_a 17.084557
_cell_length_b 18.997764
_cell_length_c 14.841005
_cell_angle_alpha 90.000000
_cell_angle_beta 90.000000
_cell_angle_gamma 90.000000
_cell_volume 4816.920979
_symmetry_space_group_name_H-M "F 2 2 2"
_symmetry_group_IT_number 22
_symmetry_cell_setting 'orthorhombic'
loop_
_space_group_symop_operation_xyz
x,y,z
-x,-y,z
x,-y,-z
-x,y,-z
x,1/2+y,1/2+z
-x,1/2-y,1/2+z
x,1/2-y,1/2-z
-x,1/2+y,1/2-z
1/2+x,y,1/2+z
1/2-x,-y,1/2+z
1/2+x,-y,1/2-z
1/2-x,y,1/2-z
1/2+x,1/2+y,z
1/2-x,1/2-y,z
1/2+x,1/2-y,-z
1/2-x,1/2+y,-z
loop_
_atom_site_type_symbol
_atom_site_label
_atom_site_fract_x
_atom_site_fract_y
_atom_site_fract_z
Si Si1 0.704346 0.820008 0.467541
Si Si2 0.332381 0.581819 0.481785
Si Si3 0.599144 0.320255 0.134155
Si Si4 0.000000 0.149955 0.500000
Si Si5 0.562285 0.764999 0.356925
Si Si6 0.171342 0.667757 0.193278
O O1 0.750000 0.750000 0.499357
O O2 0.773606 0.875726 0.451540
O O3 0.647603 0.844777 0.548278
O O4 0.646103 0.794085 0.389082
O O5 0.323192 0.500000 0.500000
O O6 0.423638 0.603224 0.482959
O O7 0.309520 0.612442 0.383820
O O8 0.507038 0.319264 0.120314
O O9 0.614417 0.358997 0.228203
O O10 0.630899 0.238880 0.152594
O O11 0.032667 0.199343 0.418540
O O12 0.561199 0.750000 0.250000
O O13 0.250000 0.680740 0.250000
#
# Coordination Sequence:
#
# PCOD9328662 Si02
#       6
#    16  16  16   8  16  16
#     4  12  20  37  60  88 125 162 199 255 317 369
#     4  12  25  40  59  88 130 171 203 255 323 385
#     4  11  17  33  64  98 117 140 209 287 309 334
#     4  12  21  44  62  90 123 162 212 262 319 362
#     4  12  21  34  63  99 122 155 204 258 319 376
#     4  11  18  31  63  96 115 147 212 275 316 344
#
# _framework density 18.268930999999998
#
# number of rings (size 3 to 8) (size 9 to 14) (size 15 to 20)
#    0.000    0.364   10.909    1.364    0.000    0.364 
#    0.000    1.818    0.000    2.182    0.000    0.000 
#    0.000    0.000    0.000    0.000    0.000    0.000 
#
# Total GULP energy -122484.420929 kJ/mol
# GULP energy per Si atom -5567.473679 kJ/mol
# Density = 1.822735 g / cm^3
# Si number density = 18.268931 Si / 1000 Ang^3
#
#
#
# Elastic Constant Matrix: (Units=GPa)
#
#
# Indices 1 2 3 4 5 6 
#
# 1 139.5741 34.4776 25.7706 0.0000 0.0000 0.0000
# 2 34.4776 86.0420 26.1711 0.0000 0.0000 0.0000
# 3 25.7706 26.1711 83.1165 0.0000 0.0000 0.0000
# 4 0.0000 0.0000 0.0000 10.3392 0.0000 0.0000
# 5 0.0000 0.0000 0.0000 0.0000 37.0390 0.0000
# 6 0.0000 0.0000 0.0000 0.0000 0.0000 10.9031
#
#
#
# Elastic Compliance Matrix: (Units=1/GPa)
#
#
# Indices 1 2 3 4 5 6 
#
# 1 0.008153 -0.002763 -0.001658 0.000000 0.000000 0.000000
# 2 -0.002763 0.013789 -0.003485 0.000000 0.000000 0.000000
# 3 -0.001658 -0.003485 0.013643 0.000000 0.000000 0.000000
# 4 0.000000 0.000000 0.000000 0.096719 0.000000 0.000000
# 5 0.000000 0.000000 0.000000 0.000000 0.026999 0.000000
# 6 0.000000 0.000000 0.000000 0.000000 0.000000 0.091717
#
#
# Mechanical properties :
#
#
# Convention : Reuss Voigt Hill
#
# Bulk Modulus (GPa) = 50.57327 53.50791 52.04059
# Shear Modulus (GPa) = 18.28662 26.47713 22.38188
#
# Velocity S-wave (km/s) = 3.16724 3.81109 3.50399
# Velocity P-wave (km/s) = 6.41233 6.97987 6.70211
#
# Compressibility (1/GPa) = 0.01977329
#
# Stress axis : x y z
#
# Youngs Moduli (GPa) = 122.65064 72.51950 73.29868
#
# Poissons Ratio (x) = 0.20035 0.12153
# Poissons Ratio (y) = 0.33885 0.25547
# Poissons Ratio (z) = 0.20336 0.25275
#
# Static dielectric constant tensor:
#      x y z
#    x 1.730760 0.000000 0.000000 
#    y 0.000000 1.618330 0.000000 
#    z 0.000000 0.000000 1.736220 
# 
# From -- ./inp_files/30743.got.cif
#   From: 2010.05.17/outbox.cif.g08.bks.cpg/sg22_16_cif.got.tgz:30743.got - 2010.06.03 23:40:54.
