data_PCOD9328317
_publ_section_title
;
Structure prediction by ZEFSAII (Michael W. Deem and Ramdas Pophale) SiO2 
 PCOD9328317
Probable space group: F 2 2 2
;
_chemical_formula_sum "Si O2"
_cell_formula_units_Z 104
_cell_length_a 21.427140
_cell_length_b 8.550799
_cell_length_c 25.128649
_cell_angle_alpha 90.000000
_cell_angle_beta 90.000000
_cell_angle_gamma 90.000000
_cell_volume 4604.050145
_symmetry_space_group_name_H-M "F 2 2 2"
_symmetry_group_IT_number 22
_symmetry_cell_setting 'orthorhombic'
loop_
_space_group_symop_operation_xyz
x,y,z
-x,-y,z
x,-y,-z
-x,y,-z
x,1/2+y,1/2+z
-x,1/2-y,1/2+z
x,1/2-y,1/2-z
-x,1/2+y,1/2-z
1/2+x,y,1/2+z
1/2-x,-y,1/2+z
1/2+x,-y,1/2-z
1/2-x,y,1/2-z
1/2+x,1/2+y,z
1/2-x,1/2-y,z
1/2+x,1/2-y,-z
1/2-x,1/2+y,-z
loop_
_atom_site_type_symbol
_atom_site_label
_atom_site_fract_x
_atom_site_fract_y
_atom_site_fract_z
Si Si1 0.762828 0.932948 0.311557
Si Si2 0.384002 0.905289 0.185436
Si Si3 0.647217 0.079754 0.361207
Si Si4 0.681505 0.169312 0.477487
Si Si5 0.066374 0.082905 0.217216
Si Si6 0.937611 0.171258 0.526852
Si Si7 0.500000 0.500000 0.379772
O O1 0.750000 0.986809 0.250000
O O2 0.750000 0.750000 0.310985
O O3 0.830936 0.974657 0.332897
O O4 0.715326 0.014016 0.350851
O O5 0.359980 0.733464 0.174955
O O6 0.395955 0.968593 0.243895
O O7 0.449668 0.914484 0.156013
O O8 0.645494 0.143190 0.421298
O O9 0.600996 0.942425 0.339505
O O10 0.750000 0.250000 0.471713
O O11 0.628518 0.246787 0.515974
O O12 0.695966 0.000000 0.500000
O O13 0.064395 0.250000 0.250000
O O14 0.000000 0.000000 0.211766
O O15 0.961279 0.124993 0.585484
O O16 0.000000 0.247628 0.500000
O O17 0.930761 0.000000 0.500000
#
# Coordination Sequence:
#
# PCOD9328317 Si02
#       7
#    16  16  16  16  16  16   8
#     4  11  24  42  67 101 148 197 251 303 367 451
#     4  12  23  42  73 109 151 198 253 300 371 450
#     4  12  26  46  71 109 146 197 248 308 379 442
#     4  12  28  50  76 110 146 195 259 322 385 445
#     4  12  26  46  71 108 158 206 242 298 366 454
#     4   9  20  44  73 103 146 190 243 306 375 445
#     4  10  23  42  76 112 146 196 247 302 382 452
#
# _framework density 22.588806000000002
#
# number of rings (size 3 to 8) (size 9 to 14) (size 15 to 20)
#    0.000    0.923    2.308    6.000    0.000    5.231 
#    2.769    0.000    0.000    0.000    0.000    0.000 
#    0.000    0.000    0.000    0.000    0.000    0.000 
#
# Total GULP energy -145093.158628 kJ/mol
# GULP energy per Si atom -5580.506101 kJ/mol
# Density = 2.253739 g / cm^3
# Si number density = 22.588806 Si / 1000 Ang^3
#
#
#
# Elastic Constant Matrix: (Units=GPa)
#
#
# Indices 1 2 3 4 5 6 
#
# 1 156.3554 43.1105 30.2189 0.0000 0.0000 0.0000
# 2 43.1105 85.7018 49.0748 0.0000 0.0000 -0.0001
# 3 30.2189 49.0748 50.2499 0.0000 0.0000 0.0000
# 4 0.0000 0.0000 0.0000 24.4166 0.0000 0.0000
# 5 0.0000 0.0000 0.0000 0.0000 31.4427 0.0000
# 6 0.0000 -0.0001 0.0000 0.0000 0.0000 -93.8976
#
#
#
# Elastic Compliance Matrix: (Units=1/GPa)
#
#
# Indices 1 2 3 4 5 6 
#
# 1 0.007503 -0.002701 -0.001874 0.000000 0.000000 0.000000
# 2 -0.002701 0.027445 -0.025179 0.000000 0.000000 0.000000
# 3 -0.001874 -0.025179 0.045618 0.000000 0.000000 0.000000
# 4 0.000000 0.000000 0.000000 0.040956 0.000000 0.000000
# 5 0.000000 0.000000 0.000000 0.000000 0.031804 0.000000
# 6 0.000000 0.000000 0.000000 0.000000 0.000000 -0.010650
#
#
# Mechanical properties :
#
#
# Convention : Reuss Voigt Hill
#
# Bulk Modulus (GPa) = 47.48926 59.67951 53.58438
# Shear Modulus (GPa) = 23.90026 3.71919 13.80973
#
# Velocity S-wave (km/s) = 3.25631 1.28454 2.47524
# Velocity P-wave (km/s) = 5.93355 5.35513 5.65174
#
# Compressibility (1/GPa) = 0.02105739
#
# Stress axis : x y z
#
# Youngs Moduli (GPa) = 133.28743 36.43643 21.92118
#
# Poissons Ratio (x) = 0.09841 0.04109
# Poissons Ratio (y) = 0.35998 0.55196
# Poissons Ratio (z) = 0.24981 0.91744
#
# Static dielectric constant tensor:
#      x y z
#    x 1.896740 0.000000 0.000000 
#    y 0.000000 1.813770 0.000000 
#    z 0.000000 0.000000 2.562120 
# 
# From -- ./inp_files/53913.got.cif
#   From: 2010.05.17/outbox.cif.g08.bks.cpg/sg22_27_cif.got.tgz:53913.got - 2010.06.03 23:40:54.
