data_PCOD9328441
_publ_section_title
;
Structure prediction by ZEFSAII (Michael W. Deem and Ramdas Pophale) SiO2 
 PCOD9328441
Probable space group: F 2 2 2
;
_chemical_formula_sum "Si O2"
_cell_formula_units_Z 88
_cell_length_a 20.519935
_cell_length_b 11.131135
_cell_length_c 17.193359
_cell_angle_alpha 90.000000
_cell_angle_beta 90.000000
_cell_angle_gamma 90.000000
_cell_volume 3927.137995
_symmetry_space_group_name_H-M "F 2 2 2"
_symmetry_group_IT_number 22
_symmetry_cell_setting 'orthorhombic'
loop_
_space_group_symop_operation_xyz
x,y,z
-x,-y,z
x,-y,-z
-x,y,-z
x,1/2+y,1/2+z
-x,1/2-y,1/2+z
x,1/2-y,1/2-z
-x,1/2+y,1/2-z
1/2+x,y,1/2+z
1/2-x,-y,1/2+z
1/2+x,-y,1/2-z
1/2-x,y,1/2-z
1/2+x,1/2+y,z
1/2-x,1/2-y,z
1/2+x,1/2-y,-z
1/2-x,1/2+y,-z
loop_
_atom_site_type_symbol
_atom_site_label
_atom_site_fract_x
_atom_site_fract_y
_atom_site_fract_z
Si Si1 0.330812 0.948965 0.380850
Si Si2 0.928997 0.657837 0.402467
Si Si3 0.561716 0.782944 0.662707
Si Si4 0.359789 0.750000 0.750000
Si Si5 0.250000 0.250000 0.974427
Si Si6 0.750000 0.569328 0.250000
Si Si7 0.386325 0.360484 0.517883
O O1 0.378992 0.873866 0.326215
O O2 0.293928 0.852555 0.433428
O O3 0.378517 0.048761 0.419718
O O4 0.276482 0.003358 0.325241
O O5 0.901265 0.704258 0.320804
O O6 0.923567 0.764449 0.464313
O O7 0.005587 0.644824 0.384495
O O8 0.539824 0.750000 0.750000
O O9 0.590548 0.677368 0.605986
O O10 0.310715 0.647820 0.721545
O O11 0.310434 0.168593 0.004967
O O12 0.400131 0.500000 0.500000
#
# Coordination Sequence:
#
# PCOD9328441 Si02
#       7
#    16  16  16   8   8   8  16
#     4  10  24  41  70 102 139 197 233 309 358 438
#     4  11  23  45  71 100 142 187 250 290 365 439
#     4  11  25  47  70 106 148 191 248 298 366 435
#     4   9  20  38  62 104 128 191 226 302 344 435
#     4  10  26  43  66 107 144 184 242 298 374 439
#     4   9  20  35  64  98 140 175 241 284 362 426
#     4  11  28  46  74 108 145 193 233 306 374 442
#
# _framework density 22.408176000000001
#
# number of rings (size 3 to 8) (size 9 to 14) (size 15 to 20)
#    0.000    1.636    0.909    1.091   10.182    6.545 
#    3.273    3.636    0.000    0.000    0.000    0.000 
#    0.000    0.000    0.000    0.000    0.000    0.000 
#
# Total GULP energy -122598.291741 kJ/mol
# GULP energy per Si atom -5572.649625 kJ/mol
# Density = 2.235717 g / cm^3
# Si number density = 22.408176 Si / 1000 Ang^3
#
#
#
# Elastic Constant Matrix: (Units=GPa)
#
#
# Indices 1 2 3 4 5 6 
#
# 1 84.9472 15.8126 38.7948 0.0000 0.0000 0.0000
# 2 15.8126 129.7950 50.3167 0.0000 0.0000 0.0000
# 3 38.7948 50.3167 87.7332 0.0000 0.0000 0.0000
# 4 0.0000 0.0000 0.0000 20.7164 0.0000 0.0000
# 5 0.0000 0.0000 0.0000 0.0000 25.4126 0.0000
# 6 0.0000 0.0000 0.0000 0.0000 0.0000 -45.3380
#
#
#
# Elastic Compliance Matrix: (Units=1/GPa)
#
#
# Indices 1 2 3 4 5 6 
#
# 1 0.014841 0.000946 -0.007105 0.000000 0.000000 0.000000
# 2 0.000946 0.009967 -0.006135 0.000000 0.000000 0.000000
# 3 -0.007105 -0.006135 0.018059 0.000000 0.000000 0.000000
# 4 0.000000 0.000000 0.000000 0.048271 0.000000 0.000000
# 5 0.000000 0.000000 0.000000 0.000000 0.039351 0.000000
# 6 0.000000 0.000000 0.000000 0.000000 0.000000 -0.022057
#
#
# Mechanical properties :
#
#
# Convention : Reuss Voigt Hill
#
# Bulk Modulus (GPa) = 54.70713 56.92484 55.81598
# Shear Modulus (GPa) = 35.94207 13.32827 24.63517
#
# Velocity S-wave (km/s) = 4.00931 2.44149 3.31929
# Velocity P-wave (km/s) = 6.77493 5.77984 6.29707
#
# Compressibility (1/GPa) = 0.01827915
#
# Stress axis : x y z
#
# Youngs Moduli (GPa) = 67.38202 100.32617 55.37513
#
# Poissons Ratio (x) = -0.09495 0.39345
# Poissons Ratio (y) = -0.06377 0.33973
# Poissons Ratio (z) = 0.47877 0.61551
#
# Static dielectric constant tensor:
#      x y z
#    x 1.754330 0.000000 0.000000 
#    y 0.000000 1.849660 0.000000 
#    z 0.000000 0.000000 1.827160 
# 
# From -- ./inp_files/38836.got.cif
#   From: 2010.05.17/outbox.cif.g08.bks.cpg/sg22_20_cif.got.tgz:38836.got - 2010.06.03 23:40:54.
