data_PCOD9328429
_publ_section_title
;
Structure prediction by ZEFSAII (Michael W. Deem and Ramdas Pophale) SiO2 
 PCOD9328429
Probable space group: F 2 2 2
;
_chemical_formula_sum "Si O2"
_cell_formula_units_Z 80
_cell_length_a 14.865345
_cell_length_b 12.016129
_cell_length_c 20.820306
_cell_angle_alpha 90.000000
_cell_angle_beta 90.000000
_cell_angle_gamma 90.000000
_cell_volume 3719.004322
_symmetry_space_group_name_H-M "F 2 2 2"
_symmetry_group_IT_number 22
_symmetry_cell_setting 'orthorhombic'
loop_
_space_group_symop_operation_xyz
x,y,z
-x,-y,z
x,-y,-z
-x,y,-z
x,1/2+y,1/2+z
-x,1/2-y,1/2+z
x,1/2-y,1/2-z
-x,1/2+y,1/2-z
1/2+x,y,1/2+z
1/2-x,-y,1/2+z
1/2+x,-y,1/2-z
1/2-x,y,1/2-z
1/2+x,1/2+y,z
1/2-x,1/2-y,z
1/2+x,1/2-y,-z
1/2-x,1/2+y,-z
loop_
_atom_site_type_symbol
_atom_site_label
_atom_site_fract_x
_atom_site_fract_y
_atom_site_fract_z
Si Si1 0.354884 0.882309 0.260599
Si Si2 0.592634 0.451796 0.373339
Si Si3 0.603730 0.529963 0.902760
Si Si4 0.271490 0.091482 0.056116
Si Si5 0.602818 0.757241 0.974395
O O1 0.362489 0.750000 0.250000
O O2 0.250000 0.910525 0.250000
O O3 0.411441 0.931482 0.202046
O O4 0.383337 0.925953 0.330238
O O5 0.500000 0.500000 0.399893
O O6 0.669038 0.541947 0.386302
O O7 0.611740 0.339080 0.412820
O O8 0.500000 0.500000 0.913505
O O9 0.669539 0.426556 0.918463
O O10 0.626884 0.634466 0.948956
O O11 0.327995 0.195373 0.027536
O O12 0.281878 0.000000 0.000000
O O13 0.500000 0.759406 0.000000
#
# Coordination Sequence:
#
# PCOD9328429 Si02
#       5
#    16  16  16  16  16
#     4  11  22  40  69 102 137 192 250 306 364 438
#     4  11  20  40  70 101 132 183 246 295 361 430
#     4  12  27  47  67 106 152 197 246 306 382 435
#     4  10  24  40  66 103 137 182 240 290 364 433
#     4  11  24  44  71 102 142 187 245 301 362 444
#
# _framework density 21.511133999999998
#
# number of rings (size 3 to 8) (size 9 to 14) (size 15 to 20)
#    0.000    1.000    6.000    0.600    2.800    3.200 
#    0.000    0.000    0.000    0.000    0.000    2.800 
#    0.000    0.000    0.000    0.000    0.000    0.000 
#
# Total GULP energy -111756.225998 kJ/mol
# GULP energy per Si atom -5587.811300 kJ/mol
# Density = 2.146217 g / cm^3
# Si number density = 21.511134 Si / 1000 Ang^3
#
#
#
# Elastic Constant Matrix: (Units=GPa)
#
#
# Indices 1 2 3 4 5 6 
#
# 1 150.6463 59.8504 22.8194 0.0000 0.0000 0.0000
# 2 59.8504 111.8594 53.6864 0.0000 0.0000 0.0000
# 3 22.8194 53.6864 131.9963 0.0000 0.0000 0.0000
# 4 0.0000 0.0000 0.0000 35.1851 0.0000 0.0000
# 5 0.0000 0.0000 0.0000 0.0000 31.8863 0.0000
# 6 0.0000 0.0000 0.0000 0.0000 0.0000 36.7658
#
#
#
# Elastic Compliance Matrix: (Units=1/GPa)
#
#
# Indices 1 2 3 4 5 6 
#
# 1 0.008453 -0.004749 0.000470 0.000000 0.000000 0.000000
# 2 -0.004749 0.013776 -0.004782 0.000000 0.000000 0.000000
# 3 0.000470 -0.004782 0.009440 0.000000 0.000000 0.000000
# 4 0.000000 0.000000 0.000000 0.028421 0.000000 0.000000
# 5 0.000000 0.000000 0.000000 0.000000 0.031361 0.000000
# 6 0.000000 0.000000 0.000000 0.000000 0.000000 0.027199
#
#
# Mechanical properties :
#
#
# Convention : Reuss Voigt Hill
#
# Bulk Modulus (GPa) = 73.81418 74.13495 73.97456
# Shear Modulus (GPa) = 35.38883 37.97716 36.68299
#
# Velocity S-wave (km/s) = 4.06043 4.20630 4.13401
# Velocity P-wave (km/s) = 7.50811 7.62424 7.56640
#
# Compressibility (1/GPa) = 0.01354753
#
# Stress axis : x y z
#
# Youngs Moduli (GPa) = 118.29504 72.59211 105.93570
#
# Poissons Ratio (x) = 0.34471 -0.04978
# Poissons Ratio (y) = 0.56173 0.50658
# Poissons Ratio (z) = -0.05559 0.34713
#
# Static dielectric constant tensor:
#      x y z
#    x 1.813760 0.000000 0.000000 
#    y 0.000000 1.801800 0.000000 
#    z 0.000000 0.000000 1.752990 
# 
# From -- ./inp_files/48722.got.cif
#   From: 2010.05.17/outbox.cif.g08.bks.cpg/sg22_25_cif.got.tgz:48722.got - 2010.06.03 23:40:54.
