data_PCOD9328930
_publ_section_title
;
Structure prediction by ZEFSAII (Michael W. Deem and Ramdas Pophale) SiO2 
 PCOD9328930
Probable space group: F 2 2 2
;
_chemical_formula_sum "Si O2"
_cell_formula_units_Z 64
_cell_length_a 18.231954
_cell_length_b 21.352562
_cell_length_c 7.446616
_cell_angle_alpha 90.000000
_cell_angle_beta 90.000000
_cell_angle_gamma 90.000000
_cell_volume 2898.959627
_symmetry_space_group_name_H-M "F 2 2 2"
_symmetry_group_IT_number 22
_symmetry_cell_setting 'orthorhombic'
loop_
_space_group_symop_operation_xyz
x,y,z
-x,-y,z
x,-y,-z
-x,y,-z
x,1/2+y,1/2+z
-x,1/2-y,1/2+z
x,1/2-y,1/2-z
-x,1/2+y,1/2-z
1/2+x,y,1/2+z
1/2-x,-y,1/2+z
1/2+x,-y,1/2-z
1/2-x,y,1/2-z
1/2+x,1/2+y,z
1/2-x,1/2-y,z
1/2+x,1/2-y,-z
1/2-x,1/2+y,-z
loop_
_atom_site_type_symbol
_atom_site_label
_atom_site_fract_x
_atom_site_fract_y
_atom_site_fract_z
Si Si1 0.919177 0.030147 0.251245
Si Si2 0.922025 0.633430 0.049751
Si Si3 0.736273 0.679073 0.537472
Si Si4 0.864172 0.408513 0.597511
O O1 0.917628 0.067221 0.438910
O O2 0.903430 0.079144 0.091673
O O3 0.859928 0.975797 0.201886
O O4 0.000000 0.000000 0.230420
O O5 0.848833 0.667268 0.992367
O O6 0.915586 0.627645 0.263205
O O7 0.000000 0.661757 0.000000
O O8 0.750000 0.673558 0.750000
O O9 0.750000 0.750000 0.478232
O O10 0.789294 0.628969 0.439431
#
# Coordination Sequence:
#
# PCOD9328930 Si02
#       4
#    16  16  16  16
#     4  11  23  42  66 111 156 184 228 299 363 440
#     4  12  25  44  72 111 144 191 238 296 369 436
#     4  11  26  53  75 102 146 194 256 312 355 434
#     4  11  23  42  73 101 144 197 231 290 368 428
#
# _framework density 22.076885000000001
#
# number of rings (size 3 to 8) (size 9 to 14) (size 15 to 20)
#    0.000    0.750    5.000    3.000    0.000    2.000 
#   18.000    7.500    0.000    0.000    0.000    0.000 
#    0.000    0.000    0.000    0.000    0.000    0.000 
#
# Total GULP energy -89380.657372 kJ/mol
# GULP energy per Si atom -5586.291086 kJ/mol
# Density = 2.202664 g / cm^3
# Si number density = 22.076885 Si / 1000 Ang^3
#
#
#
# Elastic Constant Matrix: (Units=GPa)
#
#
# Indices 1 2 3 4 5 6 
#
# 1 201.0726 92.3694 52.5121 -0.0002 0.0001 0.0002
# 2 92.3694 96.4680 24.6208 0.0000 0.0000 0.0000
# 3 52.5121 24.6208 119.0109 0.0001 0.0001 0.0002
# 4 -0.0002 0.0000 0.0001 8.8465 0.0001 0.0000
# 5 0.0001 0.0000 0.0001 0.0001 29.9825 -0.0002
# 6 0.0002 0.0000 0.0002 0.0000 -0.0002 13.6257
#
#
#
# Elastic Compliance Matrix: (Units=1/GPa)
#
#
# Indices 1 2 3 4 5 6 
#
# 1 0.009506 -0.008479 -0.002440 0.000000 0.000000 0.000000
# 2 -0.008479 0.018507 -0.000087 0.000000 0.000000 0.000000
# 3 -0.002440 -0.000087 0.009497 0.000000 0.000000 0.000000
# 4 0.000000 0.000000 0.000000 0.113039 -0.000001 0.000000
# 5 0.000000 0.000000 0.000000 -0.000001 0.033353 0.000000
# 6 0.000000 0.000000 0.000000 0.000000 0.000000 0.073390
#
#
# Mechanical properties :
#
#
# Convention : Reuss Voigt Hill
#
# Bulk Modulus (GPa) = 64.52865 83.95068 74.23967
# Shear Modulus (GPa) = 17.57641 26.96089 22.26865
#
# Velocity S-wave (km/s) = 2.82467 3.49840 3.17943
# Velocity P-wave (km/s) = 6.31908 7.37750 6.86871
#
# Compressibility (1/GPa) = 0.01549699
#
# Stress axis : x y z
#
# Youngs Moduli (GPa) = 105.19938 54.03266 105.29229
#
# Poissons Ratio (x) = 0.45815 0.25693
# Poissons Ratio (y) = 0.89200 0.00921
# Poissons Ratio (z) = 0.25670 0.00473
#
# Static dielectric constant tensor:
#      x y z
#    x 1.770160 0.000000 0.000000 
#    y 0.000000 1.878610 0.000000 
#    z 0.000000 0.000000 1.832700 
# 
# From -- ./inp_files/9802.got.cif
#   From: 2010.05.17/outbox.cif.g08.bks.cpg/sg22_5_cif.got.tgz:9802.got - 2010.06.03 23:40:54.
