data_PCOD9328764
_publ_section_title
;
Structure prediction by ZEFSAII (Michael W. Deem and Ramdas Pophale) SiO2 
 PCOD9328764
Probable space group: F 2 2 2
;
_chemical_formula_sum "Si O2"
_cell_formula_units_Z 112
_cell_length_a 12.203352
_cell_length_b 25.321059
_cell_length_c 15.155539
_cell_angle_alpha 90.000000
_cell_angle_beta 90.000000
_cell_angle_gamma 90.000000
_cell_volume 4683.088770
_symmetry_space_group_name_H-M "F 2 2 2"
_symmetry_group_IT_number 22
_symmetry_cell_setting 'orthorhombic'
loop_
_space_group_symop_operation_xyz
x,y,z
-x,-y,z
x,-y,-z
-x,y,-z
x,1/2+y,1/2+z
-x,1/2-y,1/2+z
x,1/2-y,1/2-z
-x,1/2+y,1/2-z
1/2+x,y,1/2+z
1/2-x,-y,1/2+z
1/2+x,-y,1/2-z
1/2-x,y,1/2-z
1/2+x,1/2+y,z
1/2-x,1/2-y,z
1/2+x,1/2-y,-z
1/2-x,1/2+y,-z
loop_
_atom_site_type_symbol
_atom_site_label
_atom_site_fract_x
_atom_site_fract_y
_atom_site_fract_z
Si Si1 0.082948 0.274809 0.659049
Si Si2 0.660664 0.107369 0.334665
Si Si3 0.707537 0.605531 0.031434
Si Si4 0.823081 0.201131 0.841193
Si Si5 0.349671 0.019009 0.098178
Si Si6 0.553957 0.921922 0.818380
Si Si7 0.104196 0.673169 0.059792
O O1 0.120380 0.250000 0.750000
O O2 0.949595 0.279318 0.666101
O O3 0.137640 0.331178 0.647106
O O4 0.122796 0.233050 0.586826
O O5 0.750000 0.106707 0.250000
O O6 0.663785 0.086191 0.435645
O O7 0.556916 0.081542 0.285980
O O8 0.810579 0.638960 0.994629
O O9 0.660504 0.649392 0.097961
O O10 0.743024 0.554572 0.087631
O O11 0.750000 0.189373 0.750000
O O12 0.750000 0.250000 0.879664
O O13 0.443203 0.056061 0.139479
O O14 0.354721 0.965037 0.152353
O O15 0.378853 0.000000 0.000000
O O16 0.576025 0.863769 0.856403
O O17 0.000000 0.674823 0.000000
#
# Coordination Sequence:
#
# PCOD9328764 Si02
#       7
#    16  16  16  16  16  16  16
#     4  12  25  43  67  98 149 200 235 291 366 440
#     4  12  26  44  66 107 151 186 231 300 368 447
#     4  12  26  42  70 105 147 182 246 301 370 439
#     4  11  26  47  69 100 142 196 253 291 350 444
#     4  11  21  41  75 103 130 187 253 322 367 421
#     4  11  21  40  69 103 139 177 244 309 369 415
#     4  12  22  38  68 100 140 185 234 302 357 424
#
# _framework density 23.915838999999998
#
# number of rings (size 3 to 8) (size 9 to 14) (size 15 to 20)
#    0.000    0.429    7.143    1.714    6.000    1.429 
#    0.000    2.143    0.000    0.000    0.000    0.000 
#    0.000    0.000    0.000    0.000    0.000    0.000 
#
# Total GULP energy -156132.509199 kJ/mol
# GULP energy per Si atom -5576.161043 kJ/mol
# Density = 2.386141 g / cm^3
# Si number density = 23.915839 Si / 1000 Ang^3
#
#
#
# Elastic Constant Matrix: (Units=GPa)
#
#
# Indices 1 2 3 4 5 6 
#
# 1 37.6297 13.5798 16.7744 0.0000 0.0000 0.0000
# 2 13.5798 116.1075 50.5712 0.0000 0.0000 0.0000
# 3 16.7744 50.5712 85.5084 0.0000 0.0000 0.0000
# 4 0.0000 0.0000 0.0000 49.0742 0.0000 0.0000
# 5 0.0000 0.0000 0.0000 0.0000 5.6007 0.0000
# 6 0.0000 0.0000 0.0000 0.0000 0.0000 32.8809
#
#
#
# Elastic Compliance Matrix: (Units=1/GPa)
#
#
# Indices 1 2 3 4 5 6 
#
# 1 0.029254 -0.001242 -0.005004 0.000000 0.000000 0.000000
# 2 -0.001242 0.011654 -0.006649 0.000000 0.000000 0.000000
# 3 -0.005004 -0.006649 0.016609 0.000000 0.000000 0.000000
# 4 0.000000 0.000000 0.000000 0.020377 0.000000 0.000000
# 5 0.000000 0.000000 0.000000 0.000000 0.178551 0.000000
# 6 0.000000 0.000000 0.000000 0.000000 0.000000 0.030413
#
#
# Mechanical properties :
#
#
# Convention : Reuss Voigt Hill
#
# Bulk Modulus (GPa) = 31.51940 44.56628 38.04284
# Shear Modulus (GPa) = 15.46925 28.06583 21.76754
#
# Velocity S-wave (km/s) = 2.54603 3.42939 3.02018
# Velocity P-wave (km/s) = 4.67449 5.86140 5.30127
#
# Compressibility (1/GPa) = 0.03172649
#
# Stress axis : x y z
#
# Youngs Moduli (GPa) = 34.18369 85.80883 60.20977
#
# Poissons Ratio (x) = 0.10656 0.30131
# Poissons Ratio (y) = 0.04245 0.40031
# Poissons Ratio (z) = 0.17107 0.57051
#
# Static dielectric constant tensor:
#      x y z
#    x 2.051130 0.000000 0.000000 
#    y 0.000000 1.858940 0.000000 
#    z 0.000000 0.000000 2.030980 
# 
# From -- ./inp_files/29644.got.cif
#   From: 2010.05.17/outbox.cif.g08.bks.cpg/sg22_15_cif.got.tgz:29644.got - 2010.06.03 23:40:54.
