data_PCOD9328788
_publ_section_title
;
Structure prediction by ZEFSAII (Michael W. Deem and Ramdas Pophale) SiO2 
 PCOD9328788
Probable space group: F 2 2 2
;
_chemical_formula_sum "Si O2"
_cell_formula_units_Z 64
_cell_length_a 22.904386
_cell_length_b 7.442454
_cell_length_c 13.562663
_cell_angle_alpha 90.000000
_cell_angle_beta 90.000000
_cell_angle_gamma 90.000000
_cell_volume 2311.957167
_symmetry_space_group_name_H-M "F 2 2 2"
_symmetry_group_IT_number 22
_symmetry_cell_setting 'orthorhombic'
loop_
_space_group_symop_operation_xyz
x,y,z
-x,-y,z
x,-y,-z
-x,y,-z
x,1/2+y,1/2+z
-x,1/2-y,1/2+z
x,1/2-y,1/2-z
-x,1/2+y,1/2-z
1/2+x,y,1/2+z
1/2-x,-y,1/2+z
1/2+x,-y,1/2-z
1/2-x,y,1/2-z
1/2+x,1/2+y,z
1/2-x,1/2-y,z
1/2+x,1/2-y,-z
1/2-x,1/2+y,-z
loop_
_atom_site_type_symbol
_atom_site_label
_atom_site_fract_x
_atom_site_fract_y
_atom_site_fract_z
Si Si1 0.272952 0.044507 0.892528
Si Si2 0.568723 0.787199 0.884203
Si Si3 0.656045 0.487024 0.809434
Si Si4 0.937586 0.208412 0.619656
O O1 0.250000 0.250000 0.886800
O O2 0.313450 0.004287 0.798087
O O3 0.211685 0.941728 0.878803
O O4 0.298961 0.000000 0.000000
O O5 0.503235 0.726242 0.857395
O O6 0.620571 0.834311 0.657425
O O7 0.569132 0.997590 0.855434
O O8 0.570714 0.778971 0.002163
O O9 0.609266 0.164067 0.667457
#
# Coordination Sequence:
#
# PCOD9328788 Si02
#       4
#    16  16  16  16
#     4  11  27  55  79 116 159 211 280 359 424 503
#     4   9  18  35  68 126 182 221 277 337 410 489
#     4  11  21  43  80 119 162 211 273 348 423 496
#     4   9  18  35  68 127 179 226 274 337 407 503
#
# _framework density 27.682175000000001
#
# number of rings (size 3 to 8) (size 9 to 14) (size 15 to 20)
#    0.000    2.000    0.000    6.000    0.000    2.000 
#   13.500    5.000    0.000    3.000   52.000   17.500 
#    0.000    0.000    0.000    0.000    0.000    0.000 
#
# Total GULP energy -89851.146100 kJ/mol
# GULP energy per Si atom -5615.696631 kJ/mol
# Density = 2.761917 g / cm^3
# Si number density = 27.682175 Si / 1000 Ang^3
#
#
#
# Elastic Constant Matrix: (Units=GPa)
#
#
# Indices 1 2 3 4 5 6 
#
# 1 269.8726 81.9445 70.4885 0.0000 0.0000 0.0000
# 2 81.9445 139.5114 59.4434 0.0000 0.0000 0.0000
# 3 70.4885 59.4434 211.2396 0.0000 0.0000 0.0000
# 4 0.0000 0.0000 0.0000 46.1962 0.0000 0.0000
# 5 0.0000 0.0000 0.0000 0.0000 45.0890 0.0000
# 6 0.0000 0.0000 0.0000 0.0000 0.0000 40.9274
#
#
#
# Elastic Compliance Matrix: (Units=1/GPa)
#
#
# Indices 1 2 3 4 5 6 
#
# 1 0.004653 -0.002353 -0.000890 0.000000 0.000000 0.000000
# 2 -0.002353 0.009335 -0.001842 0.000000 0.000000 0.000000
# 3 -0.000890 -0.001842 0.005549 0.000000 0.000000 0.000000
# 4 0.000000 0.000000 0.000000 0.021647 0.000000 0.000000
# 5 0.000000 0.000000 0.000000 0.000000 0.022178 0.000000
# 6 0.000000 0.000000 0.000000 0.000000 0.000000 0.024433
#
#
# Mechanical properties :
#
#
# Convention : Reuss Voigt Hill
#
# Bulk Modulus (GPa) = 106.76679 116.04183 111.40431
# Shear Modulus (GPa) = 49.46191 53.69234 51.57712
#
# Velocity S-wave (km/s) = 4.23162 4.40887 4.32115
# Velocity P-wave (km/s) = 7.90746 8.24183 8.07638
#
# Compressibility (1/GPa) = 0.00936621
#
# Stress axis : x y z
#
# Youngs Moduli (GPa) = 214.93429 107.12535 180.20480
#
# Poissons Ratio (x) = 0.25211 0.16043
# Poissons Ratio (y) = 0.50584 0.33185
# Poissons Ratio (z) = 0.19135 0.19727
#
# Static dielectric constant tensor:
#      x y z
#    x 2.180460 0.000000 0.000000 
#    y 0.000000 2.221550 0.000000 
#    z 0.000000 0.000000 2.192120 
# 
# From -- ./inp_files/32115.got.cif
#   From: 2010.05.17/outbox.cif.g08.bks.cpg/sg22_17_cif.got.tgz:32115.got - 2010.06.03 23:40:54.
