data_PCOD9328806
_publ_section_title
;
Structure prediction by ZEFSAII (Michael W. Deem and Ramdas Pophale) SiO2 
 PCOD9328806
Probable space group: F 2 2 2
;
_chemical_formula_sum "Si O2"
_cell_formula_units_Z 100
_cell_length_a 15.799761
_cell_length_b 20.311455
_cell_length_c 16.908538
_cell_angle_alpha 90.000000
_cell_angle_beta 90.000000
_cell_angle_gamma 90.000000
_cell_volume 5426.222656
_symmetry_space_group_name_H-M "F 2 2 2"
_symmetry_group_IT_number 22
_symmetry_cell_setting 'orthorhombic'
loop_
_space_group_symop_operation_xyz
x,y,z
-x,-y,z
x,-y,-z
-x,y,-z
x,1/2+y,1/2+z
-x,1/2-y,1/2+z
x,1/2-y,1/2-z
-x,1/2+y,1/2-z
1/2+x,y,1/2+z
1/2-x,-y,1/2+z
1/2+x,-y,1/2-z
1/2-x,y,1/2-z
1/2+x,1/2+y,z
1/2-x,1/2-y,z
1/2+x,1/2-y,-z
1/2-x,1/2+y,-z
loop_
_atom_site_type_symbol
_atom_site_label
_atom_site_fract_x
_atom_site_fract_y
_atom_site_fract_z
Si Si1 0.431362 0.185740 0.802862
Si Si2 0.724019 0.322341 0.423502
Si Si3 0.673317 0.553489 0.184662
Si Si4 0.166423 0.594714 0.305403
Si Si5 0.750000 0.250000 0.750000
Si Si6 0.115816 0.644271 0.811539
Si Si7 0.802129 0.567808 0.050976
O O1 0.423765 0.250000 0.750000
O O2 0.357506 0.186596 0.867445
O O3 0.407403 0.126183 0.745188
O O4 0.526883 0.177667 0.831427
O O5 0.750000 0.250000 0.451224
O O6 0.800459 0.358206 0.375563
O O7 0.698023 0.372319 0.491009
O O8 0.750000 0.552175 0.250000
O O9 0.641212 0.479463 0.175017
O O10 0.613777 0.607104 0.226134
O O11 0.714339 0.568664 0.100017
O O12 0.250000 0.590804 0.250000
O O13 0.810709 0.299645 0.800850
O O14 0.133388 0.588651 0.878682
O O15 0.814030 0.500000 0.000000
#
# Coordination Sequence:
#
# PCOD9328806 Si02
#       7
#    16  16  16  16   4  16  16
#     4  11  22  38  61  91 125 154 201 262 308 361
#     4  11  22  36  62  92 121 161 198 249 317 374
#     4   9  18  38  60  86 113 158 210 241 289 366
#     4   9  18  34  60  86 115 153 201 242 288 366
#     4  12  20  40  64  88 114 160 224 256 288 376
#     4  11  24  39  65  92 117 166 212 260 310 364
#     4  11  22  39  63  92 126 163 204 259 312 375
#
# _framework density 18.429026
#
# number of rings (size 3 to 8) (size 9 to 14) (size 15 to 20)
#    0.000    1.600    6.400    0.000    3.360    1.280 
#    0.000    0.800    0.000    0.960    0.000    0.000 
#    0.000    0.000    0.000    0.000    0.000    0.000 
#
# Total GULP energy -139184.504886 kJ/mol
# GULP energy per Si atom -5567.380195 kJ/mol
# Density = 1.838708 g / cm^3
# Si number density = 18.429026 Si / 1000 Ang^3
#
#
#
# Elastic Constant Matrix: (Units=GPa)
#
#
# Indices 1 2 3 4 5 6 
#
# 1 72.4665 27.7711 20.6385 0.0000 0.0000 0.0000
# 2 27.7711 129.8031 43.8855 0.0000 0.0000 0.0000
# 3 20.6385 43.8855 79.3520 0.0000 0.0000 0.0000
# 4 0.0000 0.0000 0.0000 40.3105 0.0000 0.0000
# 5 0.0000 0.0000 0.0000 0.0000 -175.4839 0.0000
# 6 0.0000 0.0000 0.0000 0.0000 0.0000 38.6319
#
#
#
# Elastic Compliance Matrix: (Units=1/GPa)
#
#
# Indices 1 2 3 4 5 6 
#
# 1 0.015489 -0.002401 -0.002701 0.000000 0.000000 0.000000
# 2 -0.002401 0.009848 -0.004822 0.000000 0.000000 0.000000
# 3 -0.002701 -0.004822 0.015971 0.000000 0.000000 0.000000
# 4 0.000000 0.000000 0.000000 0.024807 0.000000 0.000000
# 5 0.000000 0.000000 0.000000 0.000000 -0.005699 0.000000
# 6 0.000000 0.000000 0.000000 0.000000 0.000000 0.025885
#
#
# Mechanical properties :
#
#
# Convention : Reuss Voigt Hill
#
# Bulk Modulus (GPa) = 46.59598 51.80133 49.19866
# Shear Modulus (GPa) = 44.12965 -6.68654 18.72156
#
# Velocity S-wave (km/s) = 4.89875 -1.90687 3.19073
# Velocity P-wave (km/s) = 7.57205 4.82922 6.35048
#
# Compressibility (1/GPa) = 0.02146108
#
# Stress axis : x y z
#
# Youngs Moduli (GPa) = 64.56342 101.54479 62.61234
#
# Poissons Ratio (x) = 0.24378 0.16910
# Poissons Ratio (y) = 0.15500 0.30191
# Poissons Ratio (z) = 0.17437 0.48965
#
# Static dielectric constant tensor:
#      x y z
#    x 1.651250 0.000000 0.000000 
#    y 0.000000 3.470760 0.000000 
#    z 0.000000 0.000000 1.660500 
# 
# From -- ./inp_files/30814.got.cif
#   From: 2010.05.17/outbox.cif.g08.bks.cpg/sg22_16_cif.got.tgz:30814.got - 2010.06.03 23:40:54.
