data_PCOD9328546
_publ_section_title
;
Structure prediction by ZEFSAII (Michael W. Deem and Ramdas Pophale) SiO2 
 PCOD9328546
Probable space group: F 2 2 2
;
_chemical_formula_sum "Si O2"
_cell_formula_units_Z 88
_cell_length_a 21.452621
_cell_length_b 15.633327
_cell_length_c 11.120241
_cell_angle_alpha 90.000000
_cell_angle_beta 90.000000
_cell_angle_gamma 90.000000
_cell_volume 3729.460156
_symmetry_space_group_name_H-M "F 2 2 2"
_symmetry_group_IT_number 22
_symmetry_cell_setting 'orthorhombic'
loop_
_space_group_symop_operation_xyz
x,y,z
-x,-y,z
x,-y,-z
-x,y,-z
x,1/2+y,1/2+z
-x,1/2-y,1/2+z
x,1/2-y,1/2-z
-x,1/2+y,1/2-z
1/2+x,y,1/2+z
1/2-x,-y,1/2+z
1/2+x,-y,1/2-z
1/2-x,y,1/2-z
1/2+x,1/2+y,z
1/2-x,1/2-y,z
1/2+x,1/2-y,-z
1/2-x,1/2+y,-z
loop_
_atom_site_type_symbol
_atom_site_label
_atom_site_fract_x
_atom_site_fract_y
_atom_site_fract_z
Si Si1 0.563952 0.866901 0.941295
Si Si2 0.984351 0.411572 0.299285
Si Si3 0.124785 0.154571 0.201843
Si Si4 0.126631 0.811775 0.079720
Si Si5 0.250000 0.750000 0.452608
Si Si6 0.816147 0.084772 0.575205
O O1 0.544729 0.926541 0.832293
O O2 0.597842 0.781788 0.898722
O O3 0.500000 0.838179 0.000000
O O4 0.612488 0.907397 0.030921
O O5 0.927229 0.369588 0.367639
O O6 0.000000 0.500000 0.359854
O O7 0.050219 0.363135 0.285412
O O8 0.136352 0.250000 0.250000
O O9 0.170727 0.092115 0.279695
O O10 0.135458 0.159703 0.059216
O O11 0.197247 0.799910 0.122739
O O12 0.218246 0.827442 0.531123
O O13 0.792249 0.000000 0.500000
#
# Coordination Sequence:
#
# PCOD9328546 Si02
#       6
#    16  16  16  16   8  16
#     4  11  20  39  71 104 139 179 237 307 376 454
#     4  12  25  40  64 107 153 189 241 313 395 471
#     4  12  21  42  73 104 141 184 245 325 395 450
#     4  11  24  42  69  99 145 198 242 305 387 469
#     4  10  24  49  73 100 152 204 261 315 388 480
#     4  11  24  43  72 109 142 191 258 319 385 466
#
# _framework density 23.595908999999999
#
# number of rings (size 3 to 8) (size 9 to 14) (size 15 to 20)
#    0.000    0.727    5.455    4.364    0.000    2.909 
#    3.273    7.273    4.000    0.000    0.000    0.000 
#    0.000    0.000    0.000    0.000    0.000    0.000 
#
# Total GULP energy -122692.489053 kJ/mol
# GULP energy per Si atom -5576.931321 kJ/mol
# Density = 2.354220 g / cm^3
# Si number density = 23.595909 Si / 1000 Ang^3
#
#
#
# Elastic Constant Matrix: (Units=GPa)
#
#
# Indices 1 2 3 4 5 6 
#
# 1 129.2372 49.3752 18.4314 0.0000 0.0000 0.0000
# 2 49.3752 90.2824 14.1145 0.0000 0.0000 0.0000
# 3 18.4314 14.1145 75.1116 0.0000 0.0000 0.0000
# 4 0.0000 0.0000 0.0000 19.8981 0.0000 0.0000
# 5 0.0000 0.0000 0.0000 0.0000 30.8189 0.0000
# 6 0.0000 0.0000 0.0000 0.0000 0.0000 17.1835
#
#
#
# Elastic Compliance Matrix: (Units=1/GPa)
#
#
# Indices 1 2 3 4 5 6 
#
# 1 0.009934 -0.005205 -0.001460 0.000000 0.000000 0.000000
# 2 -0.005205 0.014139 -0.001380 0.000000 0.000000 0.000000
# 3 -0.001460 -0.001380 0.013931 0.000000 0.000000 0.000000
# 4 0.000000 0.000000 0.000000 0.050256 0.000000 0.000000
# 5 0.000000 0.000000 0.000000 0.000000 0.032448 0.000000
# 6 0.000000 0.000000 0.000000 0.000000 0.000000 0.058195
#
#
# Mechanical properties :
#
#
# Convention : Reuss Voigt Hill
#
# Bulk Modulus (GPa) = 45.62975 50.94149 48.28562
# Shear Modulus (GPa) = 24.71619 27.76078 26.23848
#
# Velocity S-wave (km/s) = 3.23999 3.43375 3.33827
# Velocity P-wave (km/s) = 5.77725 6.11202 5.94699
#
# Compressibility (1/GPa) = 0.02191553
#
# Stress axis : x y z
#
# Youngs Moduli (GPa) = 100.65998 70.72834 71.78249
#
# Poissons Ratio (x) = 0.36813 0.10478
# Poissons Ratio (y) = 0.52393 0.09903
# Poissons Ratio (z) = 0.14693 0.09758
#
# Static dielectric constant tensor:
#      x y z
#    x 2.008090 0.000000 0.000000 
#    y 0.000000 1.922540 0.000000 
#    z 0.000000 0.000000 1.978100 
# 
# From -- ./inp_files/22639.got.cif
#   From: 2010.05.17/outbox.cif.g08.bks.cpg/sg22_12_cif.got.tgz:22639.got - 2010.06.03 23:40:54.
