data_PCOD9328709
_publ_section_title
;
Structure prediction by ZEFSAII (Michael W. Deem and Ramdas Pophale) SiO2 
 PCOD9328709
Probable space group: F 2 2 2
;
_chemical_formula_sum "Si O2"
_cell_formula_units_Z 104
_cell_length_a 9.935261
_cell_length_b 19.627134
_cell_length_c 27.164116
_cell_angle_alpha 90.000000
_cell_angle_beta 90.000000
_cell_angle_gamma 90.000000
_cell_volume 5297.021607
_symmetry_space_group_name_H-M "F 2 2 2"
_symmetry_group_IT_number 22
_symmetry_cell_setting 'orthorhombic'
loop_
_space_group_symop_operation_xyz
x,y,z
-x,-y,z
x,-y,-z
-x,y,-z
x,1/2+y,1/2+z
-x,1/2-y,1/2+z
x,1/2-y,1/2-z
-x,1/2+y,1/2-z
1/2+x,y,1/2+z
1/2-x,-y,1/2+z
1/2+x,-y,1/2-z
1/2-x,y,1/2-z
1/2+x,1/2+y,z
1/2-x,1/2-y,z
1/2+x,1/2-y,-z
1/2-x,1/2+y,-z
loop_
_atom_site_type_symbol
_atom_site_label
_atom_site_fract_x
_atom_site_fract_y
_atom_site_fract_z
Si Si1 0.750000 0.250000 0.006048
Si Si2 0.946905 0.177908 0.350620
Si Si3 0.347539 0.499528 0.441771
Si Si4 0.907184 0.666976 0.249204
Si Si5 0.545144 0.332445 0.856889
Si Si6 0.198204 0.362793 0.587511
Si Si7 0.690505 0.349398 0.581561
O O1 0.678197 0.199014 0.966609
O O2 0.811591 0.194387 0.044163
O O3 0.796129 0.163648 0.368418
O O4 0.001424 0.149879 0.298167
O O5 0.977379 0.258223 0.352477
O O6 0.047256 0.150366 0.392141
O O7 0.500000 0.500000 0.420597
O O8 0.360885 0.500000 0.500000
O O9 0.266021 0.566829 0.428235
O O10 0.277836 0.427907 0.429436
O O11 0.907170 0.750000 0.250000
O O12 0.750000 0.646857 0.250000
O O13 0.957437 0.640148 0.301560
O O14 0.450975 0.374481 0.892869
O O15 0.693093 0.324633 0.880708
#
# Coordination Sequence:
#
# PCOD9328709 Si02
#       7
#     8  16  16  16  16  16  16
#     4  12  24  40  62  96 128 164 206 262 304 362
#     4  11  20  38  64  95 123 163 211 258 315 369
#     4  11  24  42  62  88 124 177 218 250 298 371
#     4   9  18  34  62  93 124 157 206 265 311 368
#     4  11  22  38  61  97 127 159 207 264 321 367
#     4  12  25  40  60  93 136 165 202 260 316 365
#     4  12  23  38  67  91 123 168 213 253 306 368
#
# _framework density 19.633673999999999
#
# number of rings (size 3 to 8) (size 9 to 14) (size 15 to 20)
#    0.000    0.923    7.692    0.000    0.000    3.692 
#    0.000    3.077    0.000    5.538    0.000    0.000 
#    0.000    0.000    0.000    0.000    0.000    0.000 
#
# Total GULP energy -144868.743534 kJ/mol
# GULP energy per Si atom -5571.874751 kJ/mol
# Density = 1.958899 g / cm^3
# Si number density = 19.633674 Si / 1000 Ang^3
#
#
#
# Elastic Constant Matrix: (Units=GPa)
#
#
# Indices 1 2 3 4 5 6 
#
# 1 59.0018 13.2449 17.4808 0.0000 0.0000 0.0000
# 2 13.2449 96.7592 21.3253 0.0000 0.0000 0.0000
# 3 17.4808 21.3253 112.9751 0.0000 0.0000 0.0000
# 4 0.0000 0.0000 0.0000 5.0212 0.0000 0.0000
# 5 0.0000 0.0000 0.0000 0.0000 29.9692 0.0000
# 6 0.0000 0.0000 0.0000 0.0000 0.0000 28.5343
#
#
#
# Elastic Compliance Matrix: (Units=1/GPa)
#
#
# Indices 1 2 3 4 5 6 
#
# 1 0.018106 -0.001942 -0.002435 0.000000 0.000000 0.000000
# 2 -0.001942 0.010992 -0.001774 0.000000 0.000000 0.000000
# 3 -0.002435 -0.001774 0.009563 0.000000 0.000000 0.000000
# 4 0.000000 0.000000 0.000000 0.199157 0.000000 0.000000
# 5 0.000000 0.000000 0.000000 0.000000 0.033368 0.000000
# 6 0.000000 0.000000 0.000000 0.000000 0.000000 0.035046
#
#
# Mechanical properties :
#
#
# Convention : Reuss Voigt Hill
#
# Bulk Modulus (GPa) = 37.93823 41.42646 39.68234
# Shear Modulus (GPa) = 15.27560 27.15059 21.21310
#
# Velocity S-wave (km/s) = 2.79235 3.72271 3.29058
# Velocity P-wave (km/s) = 5.45539 6.29473 5.89003
#
# Compressibility (1/GPa) = 0.02635864
#
# Stress axis : x y z
#
# Youngs Moduli (GPa) = 55.23043 90.97691 104.56738
#
# Poissons Ratio (x) = 0.17666 0.25462
# Poissons Ratio (y) = 0.10724 0.18554
# Poissons Ratio (z) = 0.13449 0.16143
#
# Static dielectric constant tensor:
#      x y z
#    x 1.713940 0.000000 0.000000 
#    y 0.000000 1.656610 0.000000 
#    z 0.000000 0.000000 1.712500 
# 
# From -- ./inp_files/12936.got.cif
#   From: 2010.05.17/outbox.cif.g08.bks.cpg/sg22_7_cif.got.tgz:12936.got - 2010.06.03 23:40:54.
