data_PCOD9328964
_publ_section_title
;
Structure prediction by ZEFSAII (Michael W. Deem and Ramdas Pophale) SiO2 
 PCOD9328964
Probable space group: F 2 2 2
;
_chemical_formula_sum "Si O2"
_cell_formula_units_Z 64
_cell_length_a 15.320060
_cell_length_b 9.878620
_cell_length_c 16.997448
_cell_angle_alpha 90.000000
_cell_angle_beta 90.000000
_cell_angle_gamma 90.000000
_cell_volume 2572.411647
_symmetry_space_group_name_H-M "F 2 2 2"
_symmetry_group_IT_number 22
_symmetry_cell_setting 'orthorhombic'
loop_
_space_group_symop_operation_xyz
x,y,z
-x,-y,z
x,-y,-z
-x,y,-z
x,1/2+y,1/2+z
-x,1/2-y,1/2+z
x,1/2-y,1/2-z
-x,1/2+y,1/2-z
1/2+x,y,1/2+z
1/2-x,-y,1/2+z
1/2+x,-y,1/2-z
1/2-x,y,1/2-z
1/2+x,1/2+y,z
1/2-x,1/2-y,z
1/2+x,1/2-y,-z
1/2-x,1/2+y,-z
loop_
_atom_site_type_symbol
_atom_site_label
_atom_site_fract_x
_atom_site_fract_y
_atom_site_fract_z
Si Si1 0.000000 0.000000 0.160651
Si Si2 0.954671 0.250000 0.250000
Si Si3 0.176220 0.461315 0.411369
Si Si4 0.404221 0.307552 0.464973
Si Si5 0.146443 0.430976 0.877243
O O1 0.086354 0.967276 0.112268
O O2 0.013998 0.135580 0.210073
O O3 0.895511 0.339691 0.190530
O O4 0.198420 0.500000 0.500000
O O5 0.147102 0.305828 0.416985
O O6 0.257562 0.509204 0.359601
O O7 0.500000 0.271528 0.500000
O O8 0.408736 0.438841 0.408433
O O9 0.350445 0.341139 0.543654
#
# Coordination Sequence:
#
# PCOD9328964 Si02
#       5
#     8   8  16  16  16
#     4  12  31  46  76 105 164 206 274 322 420 495
#     4  12  30  53  74 115 160 228 264 331 420 512
#     4  12  24  46  75 119 151 201 269 349 403 486
#     4  11  23  44  80 120 151 205 279 346 409 472
#     4  11  25  44  80 112 158 206 272 336 414 496
#
# _framework density 24.879377999999999
#
# number of rings (size 3 to 8) (size 9 to 14) (size 15 to 20)
#    0.000    0.500    2.500    7.125    7.000    5.000 
#    0.000    0.000    0.000    0.000    0.000    0.000 
#    0.000    0.000    0.000    0.000    0.000    0.000 
#
# Total GULP energy -89543.427991 kJ/mol
# GULP energy per Si atom -5596.464249 kJ/mol
# Density = 2.482275 g / cm^3
# Si number density = 24.879378 Si / 1000 Ang^3
#
#
#
# Elastic Constant Matrix: (Units=GPa)
#
#
# Indices 1 2 3 4 5 6 
#
# 1 162.9840 31.1359 32.5230 0.0000 0.0000 0.0000
# 2 31.1359 140.3672 43.6169 0.0000 0.0000 0.0000
# 3 32.5230 43.6169 93.3129 0.0000 0.0000 0.0000
# 4 0.0000 0.0000 0.0000 43.9865 0.0000 0.0000
# 5 0.0000 0.0000 0.0000 0.0000 -3.7822 0.0000
# 6 0.0000 0.0000 0.0000 0.0000 0.0000 45.5274
#
#
#
# Elastic Compliance Matrix: (Units=1/GPa)
#
#
# Indices 1 2 3 4 5 6 
#
# 1 0.006688 -0.000888 -0.001916 0.000000 0.000000 0.000000
# 2 -0.000888 0.008453 -0.003641 0.000000 0.000000 0.000000
# 3 -0.001916 -0.003641 0.013086 0.000000 0.000000 0.000000
# 4 0.000000 0.000000 0.000000 0.022734 0.000000 0.000000
# 5 0.000000 0.000000 0.000000 0.000000 -0.264398 0.000000
# 6 0.000000 0.000000 0.000000 0.000000 0.000000 0.021965
#
#
# Mechanical properties :
#
#
# Convention : Reuss Voigt Hill
#
# Bulk Modulus (GPa) = 65.20586 67.91284 66.55935
# Shear Modulus (GPa) = -28.82348 36.43890 3.80771
#
# Velocity S-wave (km/s) = -3.40741 3.83119 1.23846
# Velocity P-wave (km/s) = 3.28407 6.85031 5.37177
#
# Compressibility (1/GPa) = 0.01533604
#
# Stress axis : x y z
#
# Youngs Moduli (GPa) = 149.53243 118.30536 76.41496
#
# Poissons Ratio (x) = 0.10507 0.14639
# Poissons Ratio (y) = 0.13280 0.27826
# Poissons Ratio (z) = 0.28646 0.43081
#
# Static dielectric constant tensor:
#      x y z
#    x 2.006330 0.000000 0.000000 
#    y 0.000000 2.074850 0.000000 
#    z 0.000000 0.000000 2.048020 
# 
# From -- ./inp_files/36842.got.cif
#   From: 2010.05.17/outbox.cif.g08.bks.cpg/sg22_19_cif.got.tgz:36842.got - 2010.06.03 23:40:54.
