data_PCOD9328642
_publ_section_title
;
Structure prediction by ZEFSAII (Michael W. Deem and Ramdas Pophale) SiO2 
 PCOD9328642
Probable space group: F 2 2 2
;
_chemical_formula_sum "Si O2"
_cell_formula_units_Z 48
_cell_length_a 13.889877
_cell_length_b 11.235791
_cell_length_c 11.235783
_cell_angle_alpha 90.000000
_cell_angle_beta 90.000000
_cell_angle_gamma 90.000000
_cell_volume 1753.498485
_symmetry_space_group_name_H-M "F 2 2 2"
_symmetry_group_IT_number 22
_symmetry_cell_setting 'orthorhombic'
loop_
_space_group_symop_operation_xyz
x,y,z
-x,-y,z
x,-y,-z
-x,y,-z
x,1/2+y,1/2+z
-x,1/2-y,1/2+z
x,1/2-y,1/2-z
-x,1/2+y,1/2-z
1/2+x,y,1/2+z
1/2-x,-y,1/2+z
1/2+x,-y,1/2-z
1/2-x,y,1/2-z
1/2+x,1/2+y,z
1/2-x,1/2-y,z
1/2+x,1/2-y,-z
1/2-x,1/2+y,-z
loop_
_atom_site_type_symbol
_atom_site_label
_atom_site_fract_x
_atom_site_fract_y
_atom_site_fract_z
Si Si1 0.875000 0.417069 0.832932
Si Si2 0.417911 0.314668 0.624118
Si Si3 0.167911 0.125882 0.064667
O O1 0.884375 0.387931 0.692806
O O2 0.778389 0.363560 0.888893
O O3 0.971612 0.361112 0.886440
O O4 0.865622 0.442805 0.137932
O O5 0.408612 0.250000 0.750000
O O6 0.375001 0.218518 0.531482
O O7 0.158608 0.000000 0.000000
#
# Coordination Sequence:
#
# PCOD9328642 Si02
#       3
#    16  16  16
#     4  10  26  54  86 144 190 248 318 378 492 556
#     4  11  24  54  92 137 191 248 313 396 469 563
#     4  11  24  54  92 137 191 248 313 396 469 563
#
# _framework density 27.373847000000001
#
# number of rings (size 3 to 8) (size 9 to 14) (size 15 to 20)
#    0.000    1.333    3.333    0.000    0.000    2.667 
#   18.000    6.667    0.000   16.000    0.000    0.000 
#    0.000    0.000    0.000    0.000    0.000    0.000 
#
# Total GULP energy -67271.951503 kJ/mol
# GULP energy per Si atom -5605.995959 kJ/mol
# Density = 2.731154 g / cm^3
# Si number density = 27.373847 Si / 1000 Ang^3
#
#
#
# Elastic Constant Matrix: (Units=GPa)
#
#
# Indices 1 2 3 4 5 6 
#
# 1 148.8322 110.8651 110.8668 0.0000 0.0000 0.0000
# 2 110.8651 301.4512 151.7964 0.0000 0.0000 0.0000
# 3 110.8668 151.7964 301.4558 0.0000 0.0000 0.0000
# 4 0.0000 0.0000 0.0000 79.1332 0.0000 0.0000
# 5 0.0000 0.0000 0.0000 0.0000 49.8981 0.0000
# 6 0.0000 0.0000 0.0000 0.0000 0.0000 49.8980
#
#
#
# Elastic Compliance Matrix: (Units=1/GPa)
#
#
# Indices 1 2 3 4 5 6 
#
# 1 0.010571 -0.002586 -0.002586 0.000000 0.000000 0.000000
# 2 -0.002586 0.005077 -0.001605 0.000000 0.000000 0.000000
# 3 -0.002586 -0.001605 0.005077 0.000000 0.000000 0.000000
# 4 0.000000 0.000000 0.000000 0.012637 0.000000 0.000000
# 5 0.000000 0.000000 0.000000 0.000000 0.020041 0.000000
# 6 0.000000 0.000000 0.000000 0.000000 0.000000 0.020041
#
#
# Mechanical properties :
#
#
# Convention : Reuss Voigt Hill
#
# Bulk Modulus (GPa) = 139.45551 166.53288 152.99419
# Shear Modulus (GPa) = 55.93651 60.99992 58.46822
#
# Velocity S-wave (km/s) = 4.52533 4.72572 4.62661
# Velocity P-wave (km/s) = 8.85213 9.52602 9.19525
#
# Compressibility (1/GPa) = 0.00717075
#
# Stress axis : x y z
#
# Youngs Moduli (GPa) = 94.59611 196.98135 196.98332
#
# Poissons Ratio (x) = 0.50934 0.50935
# Poissons Ratio (y) = 0.24460 0.31623
# Poissons Ratio (z) = 0.24460 0.31622
#
# Static dielectric constant tensor:
#      x y z
#    x 2.255440 0.000000 0.000000 
#    y 0.000000 2.186990 0.000000 
#    z 0.000000 0.000000 2.186980 
# 
# From -- ./inp_files/18972.got.cif
#   From: 2010.05.17/outbox.cif.g08.bks.cpg/sg22_10_cif.got.tgz:18972.got - 2010.06.03 23:40:54.
