data_PCOD9328201
_publ_section_title
;
Structure prediction by ZEFSAII (Michael W. Deem and Ramdas Pophale) SiO2 
 PCOD9328201
Probable space group: F 2 2 2
;
_chemical_formula_sum "Si O2"
_cell_formula_units_Z 56
_cell_length_a 29.871864
_cell_length_b 16.373972
_cell_length_c 4.967646
_cell_angle_alpha 90.000000
_cell_angle_beta 90.000000
_cell_angle_gamma 90.000000
_cell_volume 2429.780301
_symmetry_space_group_name_H-M "F 2 2 2"
_symmetry_group_IT_number 22
_symmetry_cell_setting 'orthorhombic'
loop_
_space_group_symop_operation_xyz
x,y,z
-x,-y,z
x,-y,-z
-x,y,-z
x,1/2+y,1/2+z
-x,1/2-y,1/2+z
x,1/2-y,1/2-z
-x,1/2+y,1/2-z
1/2+x,y,1/2+z
1/2-x,-y,1/2+z
1/2+x,-y,1/2-z
1/2-x,y,1/2-z
1/2+x,1/2+y,z
1/2-x,1/2-y,z
1/2+x,1/2-y,-z
1/2-x,1/2+y,-z
loop_
_atom_site_type_symbol
_atom_site_label
_atom_site_fract_x
_atom_site_fract_y
_atom_site_fract_z
Si Si1 0.799760 0.161468 0.125400
Si Si2 0.115034 0.945697 0.262210
Si Si3 0.946537 0.192160 0.495523
Si Si4 0.750000 0.936565 0.250000
O O1 0.809972 0.250000 0.250000
O O2 0.750000 0.147289 0.250000
O O3 0.843868 0.110752 0.183397
O O4 0.789505 0.128262 0.821348
O O5 0.077265 0.892380 0.416744
O O6 0.134091 0.000000 0.500000
O O7 0.100883 0.000000 0.000000
O O8 0.935402 0.250000 0.250000
O O9 0.000000 0.178279 0.500000
O O10 0.934226 0.250000 0.750000
O O11 0.754866 0.000000 0.500000
#
# Coordination Sequence:
#
# PCOD9328201 Si02
#       4
#    16  16  16   8
#     4  11  28  49  72 103 146 199 258 307 370 442
#     4  12  28  45  72 111 150 196 244 310 380 446
#     4  10  22  47  79 109 146 195 245 304 372 449
#     4  12  26  49  75 104 142 196 248 316 377 440
#
# _framework density 23.047350000000002
#
# number of rings (size 3 to 8) (size 9 to 14) (size 15 to 20)
#    0.000    0.857    1.429    3.429    8.000    2.857 
#    0.000    1.429    0.000    0.000    0.000    0.000 
#    0.000    0.000    0.000    0.000    0.000    0.000 
#
# Total GULP energy -77936.849659 kJ/mol
# GULP energy per Si atom -5566.917833 kJ/mol
# Density = 2.299489 g / cm^3
# Si number density = 23.047350 Si / 1000 Ang^3
#
#
#
# Elastic Constant Matrix: (Units=GPa)
#
#
# Indices 1 2 3 4 5 6 
#
# 1 70.4827 47.5690 39.4059 0.0000 0.0001 0.0001
# 2 47.5690 167.1959 79.1488 0.0001 -0.0001 0.0000
# 3 39.4059 79.1488 182.5598 -0.0002 0.0002 -0.0001
# 4 0.0000 0.0001 -0.0002 37.4205 0.0000 0.0001
# 5 0.0001 -0.0001 0.0002 0.0000 49.3558 0.0000
# 6 0.0001 0.0000 -0.0001 0.0001 0.0000 38.5877
#
#
#
# Elastic Compliance Matrix: (Units=1/GPa)
#
#
# Indices 1 2 3 4 5 6 
#
# 1 0.018187 -0.004172 -0.002117 0.000000 0.000000 0.000000
# 2 -0.004172 0.008483 -0.002777 0.000000 0.000000 0.000000
# 3 -0.002117 -0.002777 0.007139 0.000000 0.000000 0.000000
# 4 0.000000 0.000000 0.000000 0.026723 0.000000 0.000000
# 5 0.000000 0.000000 0.000000 0.000000 0.020261 0.000000
# 6 0.000000 0.000000 0.000000 0.000000 0.000000 0.025915
#
#
# Mechanical properties :
#
#
# Convention : Reuss Voigt Hill
#
# Bulk Modulus (GPa) = 63.79156 83.60951 73.70054
# Shear Modulus (GPa) = 38.44203 42.01378 40.22790
#
# Velocity S-wave (km/s) = 4.08850 4.27421 4.18239
# Velocity P-wave (km/s) = 7.07293 7.79196 7.44113
#
# Compressibility (1/GPa) = 0.01567606
#
# Stress axis : x y z
#
# Youngs Moduli (GPa) = 54.98328 117.88652 140.08394
#
# Poissons Ratio (x) = 0.49187 0.29653
# Poissons Ratio (y) = 0.22941 0.38902
# Poissons Ratio (z) = 0.11639 0.32738
#
# Static dielectric constant tensor:
#      x y z
#    x 1.757650 0.000000 0.000000 
#    y 0.000000 1.939190 0.000000 
#    z 0.000000 0.000000 2.008070 
# 
# From -- ./inp_files/6000.got.cif
#   From: 2010.05.17/outbox.cif.g08.bks.cpg/sg22_3_cif.got.tgz:6000.got - 2010.06.03 23:40:54.
