data_PCOD9328367
_publ_section_title
;
Structure prediction by ZEFSAII (Michael W. Deem and Ramdas Pophale) SiO2 
 PCOD9328367
Probable space group: F 2 2 2
;
_chemical_formula_sum "Si O2"
_cell_formula_units_Z 92
_cell_length_a 9.640591
_cell_length_b 25.585306
_cell_length_c 17.595314
_cell_angle_alpha 90.000000
_cell_angle_beta 90.000000
_cell_angle_gamma 90.000000
_cell_volume 4340.015648
_symmetry_space_group_name_H-M "F 2 2 2"
_symmetry_group_IT_number 22
_symmetry_cell_setting 'orthorhombic'
loop_
_space_group_symop_operation_xyz
x,y,z
-x,-y,z
x,-y,-z
-x,y,-z
x,1/2+y,1/2+z
-x,1/2-y,1/2+z
x,1/2-y,1/2-z
-x,1/2+y,1/2-z
1/2+x,y,1/2+z
1/2-x,-y,1/2+z
1/2+x,-y,1/2-z
1/2-x,y,1/2-z
1/2+x,1/2+y,z
1/2-x,1/2-y,z
1/2+x,1/2-y,-z
1/2-x,1/2+y,-z
loop_
_atom_site_type_symbol
_atom_site_label
_atom_site_fract_x
_atom_site_fract_y
_atom_site_fract_z
Si Si1 0.366018 0.345573 0.164379
Si Si2 0.608018 0.594570 0.391642
Si Si3 0.500000 0.000000 0.202798
Si Si4 0.855413 0.707389 0.486218
Si Si5 0.250000 0.750000 0.750000
Si Si6 0.302613 0.882108 0.061445
Si Si7 0.367921 0.088178 0.698958
O O1 0.216294 0.373586 0.160102
O O2 0.399686 0.334625 0.076406
O O3 0.346103 0.289610 0.202926
O O4 0.489555 0.379920 0.196595
O O5 0.583767 0.538962 0.352253
O O6 0.669425 0.593819 0.477514
O O7 0.455273 0.620347 0.400484
O O8 0.404501 0.965195 0.257707
O O9 0.750000 0.750000 0.455294
O O10 0.771605 0.674205 0.549156
O O11 0.000000 0.736130 0.500000
O O12 0.201461 0.915353 0.115846
O O13 0.250000 0.115631 0.750000
#
# Coordination Sequence:
#
# PCOD9328367 Si02
#       7
#    16  16   8  16   4  16  16
#     4  11  25  44  70  98 144 179 233 291 353 427
#     4  10  24  44  73 100 135 188 234 294 351 427
#     4  12  26  45  76 101 140 188 242 296 357 434
#     4  11  23  42  70  99 135 184 232 283 348 428
#     4  12  24  40  66 108 136 180 228 292 348 426
#     4  10  23  45  68  99 143 178 232 292 353 422
#     4  12  26  47  68 100 143 189 233 297 361 425
#
# _framework density 21.198080999999998
#
# number of rings (size 3 to 8) (size 9 to 14) (size 15 to 20)
#    0.000    1.043    4.348    1.043    7.304    1.391 
#    0.000    0.435    7.652    0.000    0.000    0.000 
#    0.000    0.000    0.000    0.000    0.000    0.000 
#
# Total GULP energy -128352.079094 kJ/mol
# GULP energy per Si atom -5580.525178 kJ/mol
# Density = 2.114983 g / cm^3
# Si number density = 21.198081 Si / 1000 Ang^3
#
#
#
# Elastic Constant Matrix: (Units=GPa)
#
#
# Indices 1 2 3 4 5 6 
#
# 1 182.6380 69.8961 67.5637 0.0000 0.0000 0.0000
# 2 69.8961 85.6135 37.8144 0.0000 0.0000 0.0000
# 3 67.5637 37.8144 88.8319 0.0000 0.0000 0.0000
# 4 0.0000 0.0000 0.0000 35.6549 0.0000 0.0000
# 5 0.0000 0.0000 0.0000 0.0000 46.5015 0.0000
# 6 0.0000 0.0000 0.0000 0.0000 0.0000 24.3974
#
#
#
# Elastic Compliance Matrix: (Units=1/GPa)
#
#
# Indices 1 2 3 4 5 6 
#
# 1 0.009354 -0.005535 -0.004758 0.000000 0.000000 0.000000
# 2 -0.005535 0.017660 -0.003308 0.000000 0.000000 0.000000
# 3 -0.004758 -0.003308 0.016284 0.000000 0.000000 0.000000
# 4 0.000000 0.000000 0.000000 0.028047 0.000000 0.000000
# 5 0.000000 0.000000 0.000000 0.000000 0.021505 0.000000
# 6 0.000000 0.000000 0.000000 0.000000 0.000000 0.040988
#
#
# Mechanical properties :
#
#
# Convention : Reuss Voigt Hill
#
# Bulk Modulus (GPa) = 62.12612 78.62574 70.37593
# Shear Modulus (GPa) = 30.04720 33.43140 31.73930
#
# Velocity S-wave (km/s) = 3.76899 3.97557 3.87366
# Velocity P-wave (km/s) = 6.95064 7.63185 7.29919
#
# Compressibility (1/GPa) = 0.01609629
#
# Stress axis : x y z
#
# Youngs Moduli (GPa) = 106.90936 56.62431 61.40887
#
# Poissons Ratio (x) = 0.31341 0.29219
# Poissons Ratio (y) = 0.59173 0.20314
# Poissons Ratio (z) = 0.50869 0.18731
#
# Static dielectric constant tensor:
#      x y z
#    x 1.838580 0.000000 0.000000 
#    y 0.000000 1.734730 0.000000 
#    z 0.000000 0.000000 1.851970 
# 
# From -- ./inp_files/41870.got.cif
#   From: 2010.05.17/outbox.cif.g08.bks.cpg/sg22_21_cif.got.tgz:41870.got - 2010.06.03 23:40:54.
