data_PCOD9328183
_publ_section_title
;
Structure prediction by ZEFSAII (Michael W. Deem and Ramdas Pophale) SiO2 
 PCOD9328183
Probable space group: F 2 2 2
;
_chemical_formula_sum "Si O2"
_cell_formula_units_Z 84
_cell_length_a 14.081270
_cell_length_b 13.453173
_cell_length_c 21.455130
_cell_angle_alpha 90.000000
_cell_angle_beta 90.000000
_cell_angle_gamma 90.000000
_cell_volume 4064.411797
_symmetry_space_group_name_H-M "F 2 2 2"
_symmetry_group_IT_number 22
_symmetry_cell_setting 'orthorhombic'
loop_
_space_group_symop_operation_xyz
x,y,z
-x,-y,z
x,-y,-z
-x,y,-z
x,1/2+y,1/2+z
-x,1/2-y,1/2+z
x,1/2-y,1/2-z
-x,1/2+y,1/2-z
1/2+x,y,1/2+z
1/2-x,-y,1/2+z
1/2+x,-y,1/2-z
1/2-x,y,1/2-z
1/2+x,1/2+y,z
1/2-x,1/2-y,z
1/2+x,1/2-y,-z
1/2-x,1/2+y,-z
loop_
_atom_site_type_symbol
_atom_site_label
_atom_site_fract_x
_atom_site_fract_y
_atom_site_fract_z
Si Si1 0.681124 0.500000 0.500000
Si Si2 0.500000 0.000000 0.406458
Si Si3 0.250000 0.250000 0.750000
Si Si4 0.336484 0.365113 0.053839
Si Si5 0.904706 0.704225 0.959853
Si Si6 0.917980 0.326332 0.333891
Si Si7 0.587347 0.250000 0.750000
Si Si8 0.250000 0.250000 0.165574
O O1 0.750906 0.440807 0.545054
O O2 0.627446 0.410745 0.464635
O O3 0.565379 0.924060 0.443883
O O4 0.429024 0.933157 0.365584
O O5 0.177156 0.312253 0.706673
O O6 0.314031 0.314703 0.119387
O O7 0.342217 0.284976 0.998197
O O8 0.916100 0.744806 0.889804
O O9 0.000000 0.706693 0.000000
O O10 0.012805 0.311099 0.292047
O O11 0.666929 0.196194 0.793776
#
# Coordination Sequence:
#
# PCOD9328183 Si02
#       8
#     8   8   4  16  16  16   8   8
#     4  12  27  39  70 114 138 180 226 281 371 424
#     4  12  24  45  74 104 136 186 237 282 354 422
#     4  10  28  48  68  96 144 192 232 288 348 394
#     4  12  25  43  71 109 139 174 232 290 353 420
#     4  12  24  46  72 103 145 178 221 293 358 417
#     4  11  25  46  72 100 142 187 233 289 344 412
#     4  10  22  46  70  94 134 192 228 280 342 402
#     4  11  20  45  74  97 140 179 224 292 344 403
#
# _framework density 20.667197000000002
#
# number of rings (size 3 to 8) (size 9 to 14) (size 15 to 20)
#    0.000    0.571    5.714    1.429    5.333    0.762 
#    3.429    0.000    0.000    0.000    0.000    0.000 
#    0.000    0.000    0.000    0.000    0.000    0.000 
#
# Total GULP energy -117101.371517 kJ/mol
# GULP energy per Si atom -5576.255787 kJ/mol
# Density = 2.062016 g / cm^3
# Si number density = 20.667197 Si / 1000 Ang^3
#
#
#
# Elastic Constant Matrix: (Units=GPa)
#
#
# Indices 1 2 3 4 5 6 
#
# 1 123.3159 31.9603 42.9099 0.0000 0.0000 0.0000
# 2 31.9603 116.7984 35.3949 0.0000 0.0000 0.0000
# 3 42.9099 35.3949 95.3802 0.0000 0.0000 0.0000
# 4 0.0000 0.0000 0.0000 45.8547 0.0000 0.0000
# 5 0.0000 0.0000 0.0000 0.0000 50.7686 0.0000
# 6 0.0000 0.0000 0.0000 0.0000 0.0000 47.0984
#
#
#
# Elastic Compliance Matrix: (Units=1/GPa)
#
#
# Indices 1 2 3 4 5 6 
#
# 1 0.009849 -0.001524 -0.003866 0.000000 0.000000 0.000000
# 2 -0.001524 0.009882 -0.002982 0.000000 0.000000 0.000000
# 3 -0.003866 -0.002982 0.013330 0.000000 0.000000 0.000000
# 4 0.000000 0.000000 0.000000 0.021808 0.000000 0.000000
# 5 0.000000 0.000000 0.000000 0.000000 0.019697 0.000000
# 6 0.000000 0.000000 0.000000 0.000000 0.000000 0.021232
#
#
# Mechanical properties :
#
#
# Convention : Reuss Voigt Hill
#
# Bulk Modulus (GPa) = 61.27671 61.78052 61.52862
# Shear Modulus (GPa) = 42.37983 43.75966 43.06974
#
# Velocity S-wave (km/s) = 4.53325 4.60646 4.57000
# Velocity P-wave (km/s) = 7.55739 7.63220 7.59489
#
# Compressibility (1/GPa) = 0.01631941
#
# Stress axis : x y z
#
# Youngs Moduli (GPa) = 101.53070 101.19106 75.01918
#
# Poissons Ratio (x) = 0.15418 0.28999
# Poissons Ratio (y) = 0.15470 0.22369
# Poissons Ratio (z) = 0.39247 0.30173
#
# Static dielectric constant tensor:
#      x y z
#    x 1.363070 0.000000 0.000000 
#    y 0.000000 1.706120 0.000000 
#    z 0.000000 0.000000 1.723260 
# 
# From -- ./inp_files/43448.got.cif
#   From: 2010.05.17/outbox.cif.g08.bks.cpg/sg22_22_cif.got.tgz:43448.got - 2010.06.03 23:40:54.
