data_PCOD9328002
_publ_section_title
;
Structure prediction by ZEFSAII (Michael W. Deem and Ramdas Pophale) SiO2 
 PCOD9328002
Probable space group: F 2 2 2
;
_chemical_formula_sum "Si O2"
_cell_formula_units_Z 80
_cell_length_a 5.291882
_cell_length_b 29.466740
_cell_length_c 19.485553
_cell_angle_alpha 90.000000
_cell_angle_beta 90.000000
_cell_angle_gamma 90.000000
_cell_volume 3038.470179
_symmetry_space_group_name_H-M "F 2 2 2"
_symmetry_group_IT_number 22
_symmetry_cell_setting 'orthorhombic'
loop_
_space_group_symop_operation_xyz
x,y,z
-x,-y,z
x,-y,-z
-x,y,-z
x,1/2+y,1/2+z
-x,1/2-y,1/2+z
x,1/2-y,1/2-z
-x,1/2+y,1/2-z
1/2+x,y,1/2+z
1/2-x,-y,1/2+z
1/2+x,-y,1/2-z
1/2-x,y,1/2-z
1/2+x,1/2+y,z
1/2-x,1/2-y,z
1/2+x,1/2-y,-z
1/2-x,1/2+y,-z
loop_
_atom_site_type_symbol
_atom_site_label
_atom_site_fract_x
_atom_site_fract_y
_atom_site_fract_z
Si Si1 0.545940 0.110175 0.812287
Si Si2 0.733316 0.699808 0.650206
Si Si3 0.745385 0.980171 0.828942
Si Si4 0.760500 0.799356 0.058892
Si Si5 0.249231 0.600862 0.965076
O O1 0.750000 0.106290 0.750000
O O2 0.387355 0.156950 0.809575
O O3 0.325163 0.072235 0.820111
O O4 0.707985 0.102914 0.882887
O O5 0.750000 0.750000 0.682022
O O6 0.502346 0.703421 0.597838
O O7 0.004936 0.694089 0.612588
O O8 0.750000 0.999104 0.750000
O O9 0.500000 0.000000 0.865211
O O10 0.000000 0.000000 0.860245
O O11 0.750000 0.750000 0.023478
O O12 0.756535 0.845337 0.015898
O O13 0.500000 0.581001 0.000000
O O14 0.000000 0.581049 0.000000
#
# Coordination Sequence:
#
# PCOD9328002 Si02
#       5
#    16  16  16  16  16
#     4  11  24  44  78 113 145 198 254 305 374 456
#     4   9  19  37  63  98 143 189 239 297 356 424
#     4  10  22  41  68 107 145 174 227 311 381 433
#     4   9  18  35  60  90 129 184 247 304 354 412
#     4  11  24  41  63 100 146 188 237 300 366 431
#
# _framework density 26.329037
#
# number of rings (size 3 to 8) (size 9 to 14) (size 15 to 20)
#    0.000    2.000    0.000    4.200    0.000   10.400 
#    0.000    1.000    0.000   90.000    0.000   16.800 
#    0.000    0.000    0.000    0.000    0.000    0.000 
#
# Total GULP energy -111535.532310 kJ/mol
# GULP energy per Si atom -5576.776616 kJ/mol
# Density = 2.626911 g / cm^3
# Si number density = 26.329037 Si / 1000 Ang^3
#
#
#
# Elastic Constant Matrix: (Units=GPa)
#
#
# Indices 1 2 3 4 5 6 
#
# 1 212.5537 7.8668 77.6200 0.0000 0.0000 0.0000
# 2 7.8668 141.2880 -0.6484 0.0000 0.0000 0.0000
# 3 77.6200 -0.6484 147.1877 0.0000 0.0000 0.0000
# 4 0.0000 0.0000 0.0000 10.2748 0.0000 0.0000
# 5 0.0000 0.0000 0.0000 0.0000 36.8595 0.0000
# 6 0.0000 0.0000 0.0000 0.0000 0.0000 39.4685
#
#
#
# Elastic Compliance Matrix: (Units=1/GPa)
#
#
# Indices 1 2 3 4 5 6 
#
# 1 0.005843 -0.000339 -0.003083 0.000000 0.000000 0.000000
# 2 -0.000339 0.007098 0.000210 0.000000 0.000000 0.000000
# 3 -0.003083 0.000210 0.008421 0.000000 0.000000 0.000000
# 4 0.000000 0.000000 0.000000 0.097326 0.000000 0.000000
# 5 0.000000 0.000000 0.000000 0.000000 0.027130 0.000000
# 6 0.000000 0.000000 0.000000 0.000000 0.000000 0.025337
#
#
# Mechanical properties :
#
#
# Convention : Reuss Voigt Hill
#
# Bulk Modulus (GPa) = 66.94647 74.52290 70.73468
# Shear Modulus (GPa) = 27.38869 45.06661 36.22765
#
# Velocity S-wave (km/s) = 3.22878 4.14172 3.71341
# Velocity P-wave (km/s) = 6.27552 7.15805 6.73126
#
# Compressibility (1/GPa) = 0.01493731
#
# Stress axis : x y z
#
# Youngs Moduli (GPa) = 171.14351 140.89248 118.75459
#
# Poissons Ratio (x) = 0.04783 0.36610
# Poissons Ratio (y) = 0.05810 -0.02497
# Poissons Ratio (z) = 0.52761 -0.02963
#
# Static dielectric constant tensor:
#      x y z
#    x 2.115510 0.000000 0.000000 
#    y 0.000000 2.162900 0.000000 
#    z 0.000000 0.000000 2.108130 
# 
# From -- ./inp_files/46626.got.cif
#   From: 2010.05.17/outbox.cif.g08.bks.cpg/sg22_24_cif.got.tgz:46626.got - 2010.06.03 23:40:54.
