data_PCOD9328661
_publ_section_title
;
Structure prediction by ZEFSAII (Michael W. Deem and Ramdas Pophale) SiO2 
 PCOD9328661
Probable space group: F 2 2 2
;
_chemical_formula_sum "Si O2"
_cell_formula_units_Z 96
_cell_length_a 13.072733
_cell_length_b 16.180424
_cell_length_c 21.727257
_cell_angle_alpha 90.000000
_cell_angle_beta 90.000000
_cell_angle_gamma 90.000000
_cell_volume 4595.800737
_symmetry_space_group_name_H-M "F 2 2 2"
_symmetry_group_IT_number 22
_symmetry_cell_setting 'orthorhombic'
loop_
_space_group_symop_operation_xyz
x,y,z
-x,-y,z
x,-y,-z
-x,y,-z
x,1/2+y,1/2+z
-x,1/2-y,1/2+z
x,1/2-y,1/2-z
-x,1/2+y,1/2-z
1/2+x,y,1/2+z
1/2-x,-y,1/2+z
1/2+x,-y,1/2-z
1/2-x,y,1/2-z
1/2+x,1/2+y,z
1/2-x,1/2-y,z
1/2+x,1/2-y,-z
1/2-x,1/2+y,-z
loop_
_atom_site_type_symbol
_atom_site_label
_atom_site_fract_x
_atom_site_fract_y
_atom_site_fract_z
Si Si1 0.721269 0.151836 0.050016
Si Si2 0.000000 0.000000 0.166040
Si Si3 0.518609 0.750000 0.250000
Si Si4 0.449617 0.868862 0.433767
Si Si5 0.029772 0.688110 0.122927
Si Si6 0.798238 0.342700 0.908119
Si Si7 0.162623 0.896177 0.799829
O O1 0.750000 0.250000 0.053502
O O2 0.829185 0.110761 0.065831
O O3 0.623554 0.137084 0.093454
O O4 0.697481 0.132014 0.979231
O O5 0.901752 0.980007 0.206036
O O6 0.005130 0.922482 0.120884
O O7 0.454592 0.709051 0.305232
O O8 0.589927 0.818021 0.283623
O O9 0.500000 0.885813 0.500000
O O10 0.469279 0.773290 0.416730
O O11 0.914156 0.654555 0.116969
O O12 0.750000 0.250000 0.906361
O O13 0.719794 0.391897 0.865337
O O14 0.250000 0.891654 0.750000
#
# Coordination Sequence:
#
# PCOD9328661 Si02
#       7
#    16   8   8  16  16  16  16
#     4   9  20  33  54  92 127 159 198 260 333 376
#     4  12  25  42  60  90 124 165 216 262 322 396
#     4  12  21  38  67  90 124 166 219 268 323 376
#     4  11  21  39  62  89 127 168 211 260 322 393
#     4  11  20  35  60  94 129 160 214 276 324 376
#     4  11  17  32  61  91 121 156 208 272 317 367
#     4  12  23  41  63  92 121 165 224 273 317 385
#
# _framework density 20.888632999999999
#
# number of rings (size 3 to 8) (size 9 to 14) (size 15 to 20)
#    0.000    1.000    5.000    5.000    0.000    0.000 
#    3.000    3.750    0.000    0.000    0.000    2.333 
#    0.000    0.000    0.000    0.000    0.000    0.000 
#
# Total GULP energy -134016.513477 kJ/mol
# GULP energy per Si atom -5584.021395 kJ/mol
# Density = 2.084109 g / cm^3
# Si number density = 20.888633 Si / 1000 Ang^3
#
#
#
# Elastic Constant Matrix: (Units=GPa)
#
#
# Indices 1 2 3 4 5 6 
#
# 1 131.3665 17.7718 48.7375 0.0000 0.0000 0.0000
# 2 17.7718 15.2739 -1.0969 0.0000 0.0000 0.0000
# 3 48.7375 -1.0969 110.8320 0.0000 0.0000 0.0000
# 4 0.0000 0.0000 0.0000 0.5612 0.0000 0.0000
# 5 0.0000 0.0000 0.0000 0.0000 35.8660 0.0000
# 6 0.0000 0.0000 0.0000 0.0000 0.0000 22.1220
#
#
#
# Elastic Compliance Matrix: (Units=1/GPa)
#
#
# Indices 1 2 3 4 5 6 
#
# 1 0.011350 -0.013575 -0.005126 0.000000 0.000000 0.000000
# 2 -0.013575 0.081753 0.006778 0.000000 0.000000 0.000000
# 3 -0.005126 0.006778 0.011344 0.000000 0.000000 0.000000
# 4 0.000000 0.000000 0.000000 1.781898 0.000000 0.000000
# 5 0.000000 0.000000 0.000000 0.000000 0.027882 0.000000
# 6 0.000000 0.000000 0.000000 0.000000 0.000000 0.045204
#
#
# Mechanical properties :
#
#
# Convention : Reuss Voigt Hill
#
# Bulk Modulus (GPa) = 12.40647 43.14415 27.77531
# Shear Modulus (GPa) = 2.48739 24.51385 13.50062
#
# Velocity S-wave (km/s) = 1.09241 3.42943 2.54503
# Velocity P-wave (km/s) = 2.74652 6.03163 4.68636
#
# Compressibility (1/GPa) = 0.08060311
#
# Stress axis : x y z
#
# Youngs Moduli (GPa) = 88.10312 12.23201 88.15487
#
# Poissons Ratio (x) = 0.16605 0.45184
# Poissons Ratio (y) = 1.19597 -0.59755
# Poissons Ratio (z) = 0.45158 -0.08291
#
# Static dielectric constant tensor:
#      x y z
#    x 1.813740 0.000000 0.000000 
#    y 0.000000 1.773740 0.000000 
#    z 0.000000 0.000000 1.763930 
# 
# From -- ./inp_files/48168.got.cif
#   From: 2010.05.17/outbox.cif.g08.bks.cpg/sg22_25_cif.got.tgz:48168.got - 2010.06.03 23:40:54.
