data_PCOD9328324
_publ_section_title
;
Structure prediction by ZEFSAII (Michael W. Deem and Ramdas Pophale) SiO2 
 PCOD9328324
Probable space group: F 2 2 2
;
_chemical_formula_sum "Si O2"
_cell_formula_units_Z 64
_cell_length_a 13.694948
_cell_length_b 13.182651
_cell_length_c 14.065274
_cell_angle_alpha 90.000000
_cell_angle_beta 90.000000
_cell_angle_gamma 90.000000
_cell_volume 2539.284368
_symmetry_space_group_name_H-M "F 2 2 2"
_symmetry_group_IT_number 22
_symmetry_cell_setting 'orthorhombic'
loop_
_space_group_symop_operation_xyz
x,y,z
-x,-y,z
x,-y,-z
-x,y,-z
x,1/2+y,1/2+z
-x,1/2-y,1/2+z
x,1/2-y,1/2-z
-x,1/2+y,1/2-z
1/2+x,y,1/2+z
1/2-x,-y,1/2+z
1/2+x,-y,1/2-z
1/2-x,y,1/2-z
1/2+x,1/2+y,z
1/2-x,1/2-y,z
1/2+x,1/2-y,-z
1/2-x,1/2+y,-z
loop_
_atom_site_type_symbol
_atom_site_label
_atom_site_fract_x
_atom_site_fract_y
_atom_site_fract_z
Si Si1 0.396695 0.443704 0.408449
Si Si2 0.884860 0.469412 0.696875
Si Si3 0.353305 0.693704 0.158449
Si Si4 0.865140 0.219412 0.946875
O O1 0.500000 0.500000 0.401478
O O2 0.347014 0.500000 0.500000
O O3 0.350461 0.448057 0.304351
O O4 0.414323 0.325327 0.421093
O O5 0.835677 0.575327 0.671093
O O6 0.875000 0.375000 0.625000
O O7 0.000000 0.500000 0.697765
O O8 0.402986 0.750000 0.250000
O O9 0.250000 0.750000 0.151478
O O10 0.399539 0.698057 0.054351
O O11 0.750000 0.250000 0.947765
#
# Coordination Sequence:
#
# PCOD9328324 Si02
#       4
#    16  16  16  16
#     4  10  23  43  67  96 132 175 224 275 330 397
#     4  11  25  43  66  97 133 174 220 274 336 397
#     4  10  23  43  67  96 132 175 224 275 330 397
#     4  11  25  43  66  97 133 174 220 274 336 397
#
# _framework density 25.203949999999999
#
# number of rings (size 3 to 8) (size 9 to 14) (size 15 to 20)
#    0.000    1.500    0.000    3.000    0.000   20.000 
#    0.000    0.000    0.000    0.000    0.000    0.000 
#    0.000    0.000    0.000    0.000    0.000    0.000 
#
# Total GULP energy -89495.467618 kJ/mol
# GULP energy per Si atom -5593.466726 kJ/mol
# Density = 2.514658 g / cm^3
# Si number density = 25.203950 Si / 1000 Ang^3
#
#
#
# Elastic Constant Matrix: (Units=GPa)
#
#
# Indices 1 2 3 4 5 6 
#
# 1 56.0630 29.1171 23.6650 0.0000 0.0000 0.0000
# 2 29.1171 287.5326 166.8983 0.0000 0.0000 0.0000
# 3 23.6650 166.8983 293.4753 0.0000 0.0000 0.0000
# 4 0.0000 0.0000 0.0000 38.2470 0.0000 0.0000
# 5 0.0000 0.0000 0.0000 0.0000 19.2165 0.0000
# 6 0.0000 0.0000 0.0000 0.0000 0.0000 40.9850
#
#
#
# Elastic Compliance Matrix: (Units=1/GPa)
#
#
# Indices 1 2 3 4 5 6 
#
# 1 0.018910 -0.001537 -0.000651 0.000000 0.000000 0.000000
# 2 -0.001537 0.005317 -0.002900 0.000000 0.000000 0.000000
# 3 -0.000651 -0.002900 0.005109 0.000000 0.000000 0.000000
# 4 0.000000 0.000000 0.000000 0.026146 0.000000 0.000000
# 5 0.000000 0.000000 0.000000 0.000000 0.052039 0.000000
# 6 0.000000 0.000000 0.000000 0.000000 0.000000 0.024399
#
#
# Mechanical properties :
#
#
# Convention : Reuss Voigt Hill
#
# Bulk Modulus (GPa) = 52.19025 119.60352 85.89688
# Shear Modulus (GPa) = 33.67433 47.51574 40.59503
#
# Velocity S-wave (km/s) = 3.65920 4.34666 4.01766
# Velocity P-wave (km/s) = 6.21330 8.52927 7.46169
#
# Compressibility (1/GPa) = 0.01916067
#
# Stress axis : x y z
#
# Youngs Moduli (GPa) = 52.88171 188.09033 195.73774
#
# Poissons Ratio (x) = 0.28915 0.12735
# Poissons Ratio (y) = 0.08129 0.56755
# Poissons Ratio (z) = 0.03441 0.54538
#
# Static dielectric constant tensor:
#      x y z
#    x 2.099420 0.000000 0.000000 
#    y 0.000000 1.899460 0.000000 
#    z 0.000000 0.000000 2.110970 
# 
# From -- ./inp_files/19387.got.cif
#   From: 2010.05.17/outbox.cif.g08.bks.cpg/sg22_10_cif.got.tgz:19387.got - 2010.06.03 23:40:54.
