data_PCOD9328821
_publ_section_title
;
Structure prediction by ZEFSAII (Michael W. Deem and Ramdas Pophale) SiO2 
 PCOD9328821
Probable space group: F 2 2 2
;
_chemical_formula_sum "Si O2"
_cell_formula_units_Z 80
_cell_length_a 8.103755
_cell_length_b 18.529835
_cell_length_c 26.312432
_cell_angle_alpha 90.000000
_cell_angle_beta 90.000000
_cell_angle_gamma 90.000000
_cell_volume 3951.107496
_symmetry_space_group_name_H-M "F 2 2 2"
_symmetry_group_IT_number 22
_symmetry_cell_setting 'orthorhombic'
loop_
_space_group_symop_operation_xyz
x,y,z
-x,-y,z
x,-y,-z
-x,y,-z
x,1/2+y,1/2+z
-x,1/2-y,1/2+z
x,1/2-y,1/2-z
-x,1/2+y,1/2-z
1/2+x,y,1/2+z
1/2-x,-y,1/2+z
1/2+x,-y,1/2-z
1/2-x,y,1/2-z
1/2+x,1/2+y,z
1/2-x,1/2-y,z
1/2+x,1/2-y,-z
1/2-x,1/2+y,-z
loop_
_atom_site_type_symbol
_atom_site_label
_atom_site_fract_x
_atom_site_fract_y
_atom_site_fract_z
Si Si1 0.430704 0.158929 0.721078
Si Si2 0.928665 0.923194 0.131768
Si Si3 0.924317 0.920365 0.314556
Si Si4 0.905862 0.299059 0.551900
Si Si5 0.064268 0.722301 0.146997
O O1 0.250000 0.164414 0.750000
O O2 0.432751 0.111336 0.669366
O O3 0.547957 0.115682 0.759480
O O4 0.501346 0.233950 0.697063
O O5 0.760896 0.926095 0.164687
O O6 0.885283 0.872704 0.083850
O O7 0.000000 0.000000 0.116025
O O8 0.023471 0.861532 0.348324
O O9 0.000000 0.000000 0.314422
O O10 0.750000 0.250000 0.538232
O O11 0.000000 0.313617 0.500000
O O12 0.995396 0.250260 0.594231
O O13 0.250000 0.750000 0.148849
#
# Coordination Sequence:
#
# PCOD9328821 Si02
#       5
#    16  16  16  16  16
#     4  11  22  39  66  98 139 187 232 277 334 407
#     4  11  25  44  66  98 141 181 227 285 346 413
#     4  12  24  40  65  96 143 184 229 276 341 409
#     4  11  24  47  74  97 127 170 229 289 351 414
#     4  11  23  42  70 100 132 178 233 283 338 410
#
# _framework density 20.247487
#
# number of rings (size 3 to 8) (size 9 to 14) (size 15 to 20)
#    0.000    0.800    4.000    3.600    2.800    0.400 
#    0.000    2.000    0.000    0.600    0.000    0.000 
#    0.000    0.000    0.000    0.000    0.000    0.000 
#
# Total GULP energy -111542.899831 kJ/mol
# GULP energy per Si atom -5577.144992 kJ/mol
# Density = 2.020140 g / cm^3
# Si number density = 20.247487 Si / 1000 Ang^3
#
#
#
# Elastic Constant Matrix: (Units=GPa)
#
#
# Indices 1 2 3 4 5 6 
#
# 1 91.2400 52.5155 50.1140 0.0000 0.0000 0.0000
# 2 52.5155 174.4061 40.0810 0.0000 0.0000 0.0000
# 3 50.1140 40.0810 120.2140 0.0000 0.0000 0.0000
# 4 0.0000 0.0000 0.0000 -5.4315 0.0000 0.0000
# 5 0.0000 0.0000 0.0000 0.0000 27.9081 0.0000
# 6 0.0000 0.0000 0.0000 0.0000 0.0000 36.0558
#
#
#
# Elastic Compliance Matrix: (Units=1/GPa)
#
#
# Indices 1 2 3 4 5 6 
#
# 1 0.016029 -0.003564 -0.005494 0.000000 0.000000 0.000000
# 2 -0.003564 0.007002 -0.000849 0.000000 0.000000 0.000000
# 3 -0.005494 -0.000849 0.010892 0.000000 0.000000 0.000000
# 4 0.000000 0.000000 0.000000 -0.184110 0.000000 0.000000
# 5 0.000000 0.000000 0.000000 0.000000 0.035832 0.000000
# 6 0.000000 0.000000 0.000000 0.000000 0.000000 0.027735
#
#
# Mechanical properties :
#
#
# Convention : Reuss Voigt Hill
#
# Bulk Modulus (GPa) = 70.87418 74.58680 72.73049
# Shear Modulus (GPa) = -80.50984 27.91644 -26.29670
#
# Velocity S-wave (km/s) = -6.31262 3.71720 -3.60775
# Velocity P-wave (km/s) = 4.24880 7.43915 4.31790
#
# Compressibility (1/GPa) = 0.01410951
#
# Stress axis : x y z
#
# Youngs Moduli (GPa) = 62.38737 142.81724 91.81290
#
# Poissons Ratio (x) = 0.50899 0.50440
# Poissons Ratio (y) = 0.22234 0.07793
# Poissons Ratio (z) = 0.34274 0.12123
#
# Static dielectric constant tensor:
#      x y z
#    x 1.816040 0.000000 0.000000 
#    y 0.000000 1.780120 0.000000 
#    z 0.000000 0.000000 1.684350 
# 
# From -- ./inp_files/51788.got.cif
#   From: 2010.05.17/outbox.cif.g08.bks.cpg/sg22_26_cif.got.tgz:51788.got - 2010.06.03 23:40:54.
