data_PCOD9328877
_publ_section_title
;
Structure prediction by ZEFSAII (Michael W. Deem and Ramdas Pophale) SiO2 
 PCOD9328877
Probable space group: F 2 2 2
;
_chemical_formula_sum "Si O2"
_cell_formula_units_Z 112
_cell_length_a 12.371953
_cell_length_b 19.297763
_cell_length_c 20.933331
_cell_angle_alpha 90.000000
_cell_angle_beta 90.000000
_cell_angle_gamma 90.000000
_cell_volume 4997.854062
_symmetry_space_group_name_H-M "F 2 2 2"
_symmetry_group_IT_number 22
_symmetry_cell_setting 'orthorhombic'
loop_
_space_group_symop_operation_xyz
x,y,z
-x,-y,z
x,-y,-z
-x,y,-z
x,1/2+y,1/2+z
-x,1/2-y,1/2+z
x,1/2-y,1/2-z
-x,1/2+y,1/2-z
1/2+x,y,1/2+z
1/2-x,-y,1/2+z
1/2+x,-y,1/2-z
1/2-x,y,1/2-z
1/2+x,1/2+y,z
1/2-x,1/2-y,z
1/2+x,1/2-y,-z
1/2-x,1/2+y,-z
loop_
_atom_site_type_symbol
_atom_site_label
_atom_site_fract_x
_atom_site_fract_y
_atom_site_fract_z
Si Si1 0.771564 0.968493 0.142558
Si Si2 0.591817 0.554609 0.262393
Si Si3 0.179503 0.851067 0.950677
Si Si4 0.423712 0.704522 0.561932
Si Si5 0.294158 0.886657 0.406005
Si Si6 0.105170 0.311127 0.841274
Si Si7 0.068287 0.654668 0.292489
O O1 0.667952 0.934658 0.176959
O O2 0.845251 0.981948 0.204366
O O3 0.831637 0.916041 0.095586
O O4 0.742262 0.037569 0.103417
O O5 0.500000 0.500000 0.281148
O O6 0.547003 0.625554 0.230809
O O7 0.306711 0.829951 0.946794
O O8 0.105654 0.786147 0.930466
O O9 0.160816 0.871248 0.024220
O O10 0.500000 0.697264 0.500000
O O11 0.495534 0.674782 0.619819
O O12 0.205322 0.828642 0.386956
O O13 0.387377 0.885636 0.353027
O O14 0.128718 0.352584 0.775885
O O15 0.086038 0.233149 0.816385
#
# Coordination Sequence:
#
# PCOD9328877 Si02
#       7
#    16  16  16  16  16  16  16
#     4  11  25  42  68 100 138 185 237 288 361 437
#     4  11  22  44  67  96 136 185 229 293 359 424
#     4  11  25  42  68 100 138 185 237 288 361 437
#     4  11  22  44  67  96 136 185 229 293 359 424
#     4  12  23  41  66  98 142 182 236 289 355 440
#     4  11  23  39  66  99 132 176 233 292 350 413
#     4  11  23  39  66  99 132 176 233 292 350 413
#
# _framework density 22.409617000000001
#
# number of rings (size 3 to 8) (size 9 to 14) (size 15 to 20)
#    0.000    0.857    2.857    4.714    4.000    1.143 
#    0.000    0.000    0.000    6.857    0.000    0.000 
#    0.000    0.000    0.000    0.000    0.000    0.000 
#
# Total GULP energy -156352.152855 kJ/mol
# GULP energy per Si atom -5584.005459 kJ/mol
# Density = 2.235861 g / cm^3
# Si number density = 22.409617 Si / 1000 Ang^3
#
#
#
# Elastic Constant Matrix: (Units=GPa)
#
#
# Indices 1 2 3 4 5 6 
#
# 1 42.8627 -19.0955 10.8580 0.0000 0.0000 0.0000
# 2 -19.0955 60.8355 7.4269 0.0000 0.0000 0.0000
# 3 10.8580 7.4269 126.3729 0.0000 0.0000 0.0000
# 4 0.0000 0.0000 0.0000 16.4211 0.0000 0.0000
# 5 0.0000 0.0000 0.0000 0.0000 41.5073 0.0000
# 6 0.0000 0.0000 0.0000 0.0000 0.0000 31.0426
#
#
#
# Elastic Compliance Matrix: (Units=1/GPa)
#
#
# Indices 1 2 3 4 5 6 
#
# 1 0.028183 0.009208 -0.002963 0.000000 0.000000 0.000000
# 2 0.009208 0.019565 -0.001941 0.000000 0.000000 0.000000
# 3 -0.002963 -0.001941 0.008282 0.000000 0.000000 0.000000
# 4 0.000000 0.000000 0.000000 0.060897 0.000000 0.000000
# 5 0.000000 0.000000 0.000000 0.000000 0.024092 0.000000
# 6 0.000000 0.000000 0.000000 0.000000 0.000000 0.032214
#
#
# Mechanical properties :
#
#
# Convention : Reuss Voigt Hill
#
# Bulk Modulus (GPa) = 15.47069 25.38334 20.42702
# Shear Modulus (GPa) = 26.85711 33.18631 30.02171
#
# Velocity S-wave (km/s) = 3.46564 3.85242 3.66413
# Velocity P-wave (km/s) = 4.78882 5.58030 5.19964
#
# Compressibility (1/GPa) = 0.06463834
#
# Stress axis : x y z
#
# Youngs Moduli (GPa) = 35.48238 51.11173 120.74797
#
# Poissons Ratio (x) = -0.47063 0.35773
# Poissons Ratio (y) = -0.32672 0.23437
# Poissons Ratio (z) = 0.10512 0.09921
#
# Static dielectric constant tensor:
#      x y z
#    x 1.885130 0.000000 0.000000 
#    y 0.000000 1.913750 0.000000 
#    z 0.000000 0.000000 1.799050 
# 
# From -- ./inp_files/48268.got.cif
#   From: 2010.05.17/outbox.cif.g08.bks.cpg/sg22_25_cif.got.tgz:48268.got - 2010.06.03 23:40:54.
