data_PCOD9328858
_publ_section_title
;
Structure prediction by ZEFSAII (Michael W. Deem and Ramdas Pophale) SiO2 
 PCOD9328858
Probable space group: F 2 2 2
;
_chemical_formula_sum "Si O2"
_cell_formula_units_Z 112
_cell_length_a 13.347814
_cell_length_b 31.972224
_cell_length_c 12.377464
_cell_angle_alpha 90.000000
_cell_angle_beta 90.000000
_cell_angle_gamma 90.000000
_cell_volume 5282.197862
_symmetry_space_group_name_H-M "F 2 2 2"
_symmetry_group_IT_number 22
_symmetry_cell_setting 'orthorhombic'
loop_
_space_group_symop_operation_xyz
x,y,z
-x,-y,z
x,-y,-z
-x,y,-z
x,1/2+y,1/2+z
-x,1/2-y,1/2+z
x,1/2-y,1/2-z
-x,1/2+y,1/2-z
1/2+x,y,1/2+z
1/2-x,-y,1/2+z
1/2+x,-y,1/2-z
1/2-x,y,1/2-z
1/2+x,1/2+y,z
1/2-x,1/2-y,z
1/2+x,1/2-y,-z
1/2-x,1/2+y,-z
loop_
_atom_site_type_symbol
_atom_site_label
_atom_site_fract_x
_atom_site_fract_y
_atom_site_fract_z
Si Si1 0.558146 0.146224 0.610294
Si Si2 0.040978 0.795142 0.711994
Si Si3 0.649309 0.065428 0.931781
Si Si4 0.160671 0.475158 0.830464
Si Si5 0.841150 0.830692 0.666305
Si Si6 0.783758 0.155167 0.580085
Si Si7 0.980024 0.910144 0.714206
O O1 0.500000 0.138481 0.500000
O O2 0.504290 0.182002 0.678621
O O3 0.669162 0.165354 0.604908
O O4 0.548354 0.105870 0.687793
O O5 0.076200 0.750000 0.750000
O O6 0.128938 0.821463 0.650002
O O7 0.933922 0.797832 0.651506
O O8 0.718266 0.104749 0.906081
O O9 0.544144 0.085551 0.894605
O O10 0.660250 0.023818 0.860292
O O11 0.662099 0.049527 0.054534
O O12 0.250000 0.465756 0.750000
O O13 0.065521 0.455768 0.769946
O O14 0.750000 0.821150 0.750000
O O15 0.800310 0.836368 0.545779
O O16 0.893244 0.875305 0.698812
#
# Coordination Sequence:
#
# PCOD9328858 Si02
#       7
#    16  16  16  16  16  16  16
#     4  11  26  42  68 101 140 182 233 296 361 433
#     4  11  26  46  69 105 140 178 233 291 359 440
#     4  11  24  41  67  98 139 179 243 287 353 430
#     4  11  25  40  66 103 139 183 236 305 350 415
#     4  11  23  43  74 103 137 177 234 290 357 430
#     4  12  23  43  74 102 134 189 236 288 363 434
#     4  11  22  42  65  97 135 183 234 295 345 420
#
# _framework density 21.203295000000001
#
# number of rings (size 3 to 8) (size 9 to 14) (size 15 to 20)
#    0.000    0.857    4.286    3.857    4.000    3.714 
#    0.000    1.429    0.000    0.857    0.000    0.000 
#    0.000    0.000    0.000    0.000    0.000    0.000 
#
# Total GULP energy -155974.129141 kJ/mol
# GULP energy per Si atom -5570.504612 kJ/mol
# Density = 2.115504 g / cm^3
# Si number density = 21.203295 Si / 1000 Ang^3
#
#
#
# Elastic Constant Matrix: (Units=GPa)
#
#
# Indices 1 2 3 4 5 6 
#
# 1 88.0028 3.0035 53.2348 0.0000 0.0000 0.0000
# 2 3.0035 98.4754 37.5743 0.0000 0.0000 0.0000
# 3 53.2348 37.5743 141.2876 0.0000 0.0000 0.0000
# 4 0.0000 0.0000 0.0000 25.6073 0.0000 0.0000
# 5 0.0000 0.0000 0.0000 0.0000 41.6754 0.0000
# 6 0.0000 0.0000 0.0000 0.0000 0.0000 13.4573
#
#
#
# Elastic Compliance Matrix: (Units=1/GPa)
#
#
# Indices 1 2 3 4 5 6 
#
# 1 0.015029 0.001894 -0.006166 0.000000 0.000000 0.000000
# 2 0.001894 0.011540 -0.003783 0.000000 0.000000 0.000000
# 3 -0.006166 -0.003783 0.010407 0.000000 0.000000 0.000000
# 4 0.000000 0.000000 0.000000 0.039051 0.000000 0.000000
# 5 0.000000 0.000000 0.000000 0.000000 0.023995 0.000000
# 6 0.000000 0.000000 0.000000 0.000000 0.000000 0.074309
#
#
# Mechanical properties :
#
#
# Convention : Reuss Voigt Hill
#
# Bulk Modulus (GPa) = 47.92304 57.26565 52.59435
# Shear Modulus (GPa) = 25.32959 31.74485 28.53722
#
# Velocity S-wave (km/s) = 3.46006 3.87352 3.67261
# Velocity P-wave (km/s) = 6.21397 6.86091 6.54544
#
# Compressibility (1/GPa) = 0.02086679
#
# Stress axis : x y z
#
# Youngs Moduli (GPa) = 66.53873 86.65182 96.08724
#
# Poissons Ratio (x) = -0.16416 0.59252
# Poissons Ratio (y) = -0.12606 0.36349
# Poissons Ratio (z) = 0.41031 0.32779
#
# Static dielectric constant tensor:
#      x y z
#    x 1.932050 0.000000 0.000000 
#    y 0.000000 1.814000 0.000000 
#    z 0.000000 0.000000 1.766770 
# 
# From -- ./inp_files/20316.got.cif
#   From: 2010.05.17/outbox.cif.g08.bks.cpg/sg22_11_cif.got.tgz:20316.got - 2010.06.03 23:40:54.
