data_PCOD9328295
_publ_section_title
;
Structure prediction by ZEFSAII (Michael W. Deem and Ramdas Pophale) SiO2 
 PCOD9328295
Probable space group: F 2 2 2
;
_chemical_formula_sum "Si O2"
_cell_formula_units_Z 88
_cell_length_a 20.103670
_cell_length_b 14.951013
_cell_length_c 12.929119
_cell_angle_alpha 90.000000
_cell_angle_beta 90.000000
_cell_angle_gamma 90.000000
_cell_volume 3886.108291
_symmetry_space_group_name_H-M "F 2 2 2"
_symmetry_group_IT_number 22
_symmetry_cell_setting 'orthorhombic'
loop_
_space_group_symop_operation_xyz
x,y,z
-x,-y,z
x,-y,-z
-x,y,-z
x,1/2+y,1/2+z
-x,1/2-y,1/2+z
x,1/2-y,1/2-z
-x,1/2+y,1/2-z
1/2+x,y,1/2+z
1/2-x,-y,1/2+z
1/2+x,-y,1/2-z
1/2-x,y,1/2-z
1/2+x,1/2+y,z
1/2-x,1/2-y,z
1/2+x,1/2-y,-z
1/2-x,1/2+y,-z
loop_
_atom_site_type_symbol
_atom_site_label
_atom_site_fract_x
_atom_site_fract_y
_atom_site_fract_z
Si Si1 0.929542 0.660277 0.976823
Si Si2 0.360559 0.850772 0.231833
Si Si3 0.750000 0.750000 0.424724
Si Si4 0.892345 0.293932 0.647785
Si Si5 0.078943 0.498592 0.376505
Si Si6 0.290775 0.411779 0.544286
O O1 0.918567 0.668653 0.854008
O O2 0.864245 0.603232 0.007430
O O3 0.925484 0.752056 0.043593
O O4 0.000000 0.617420 0.000000
O O5 0.335237 0.750000 0.250000
O O6 0.306074 0.904789 0.164515
O O7 0.386342 0.915685 0.321921
O O8 0.816859 0.741777 0.360621
O O9 0.752499 0.667875 0.503057
O O10 0.923633 0.250000 0.750000
O O11 0.894736 0.400714 0.656938
O O12 0.086623 0.500000 0.500000
O O13 0.000000 0.500000 0.352225
O O14 0.260294 0.500000 0.500000
#
# Coordination Sequence:
#
# PCOD9328295 Si02
#       6
#    16  16   8  16  16  16
#     4   9  22  37  69  95 137 176 224 281 346 408
#     4  10  23  42  67  93 137 176 226 280 348 420
#     4  10  23  48  69  98 138 186 235 298 347 422
#     4  11  25  42  72  99 141 186 237 288 359 416
#     4  11  27  41  67 106 144 181 228 288 362 436
#     4   9  22  41  71  96 134 169 231 284 335 413
#
# _framework density 22.644763000000001
#
# number of rings (size 3 to 8) (size 9 to 14) (size 15 to 20)
#    1.091    0.909    0.000    1.364   12.727    1.091 
#    0.000    0.455    0.000    0.000    0.000    0.000 
#    0.000    0.000    0.000    0.000    0.000    0.000 
#
# Total GULP energy -122670.395997 kJ/mol
# GULP energy per Si atom -5575.927091 kJ/mol
# Density = 2.259322 g / cm^3
# Si number density = 22.644763 Si / 1000 Ang^3
#
#
#
# Elastic Constant Matrix: (Units=GPa)
#
#
# Indices 1 2 3 4 5 6 
#
# 1 26.3492 -7.0839 21.7576 0.0000 0.0000 0.0000
# 2 -7.0839 171.8684 59.0216 0.0000 0.0000 0.0000
# 3 21.7576 59.0216 121.7436 0.0000 0.0000 0.0000
# 4 0.0000 0.0000 0.0000 17.9839 0.0000 0.0000
# 5 0.0000 0.0000 0.0000 0.0000 12.7105 0.0000
# 6 0.0000 0.0000 0.0000 0.0000 0.0000 12.1221
#
#
#
# Elastic Compliance Matrix: (Units=1/GPa)
#
#
# Indices 1 2 3 4 5 6 
#
# 1 0.049284 0.006066 -0.011749 0.000000 0.000000 0.000000
# 2 0.006066 0.007727 -0.004830 0.000000 0.000000 0.000000
# 3 -0.011749 -0.004830 0.012655 0.000000 0.000000 0.000000
# 4 0.000000 0.000000 0.000000 0.055605 0.000000 0.000000
# 5 0.000000 0.000000 0.000000 0.000000 0.078675 0.000000
# 6 0.000000 0.000000 0.000000 0.000000 0.000000 0.082494
#
#
# Mechanical properties :
#
#
# Convention : Reuss Voigt Hill
#
# Bulk Modulus (GPa) = 20.55891 51.92798 36.24345
# Shear Modulus (GPa) = 15.44734 24.98102 20.21418
#
# Velocity S-wave (km/s) = 2.61465 3.32500 2.99099
# Velocity P-wave (km/s) = 4.26776 6.14184 5.28848
#
# Compressibility (1/GPa) = 0.04864071
#
# Stress axis : x y z
#
# Youngs Moduli (GPa) = 20.29054 129.41324 79.01777
#
# Poissons Ratio (x) = -0.78502 0.92835
# Poissons Ratio (y) = -0.12308 0.38168
# Poissons Ratio (z) = 0.23839 0.62510
#
# Static dielectric constant tensor:
#      x y z
#    x 1.908880 0.000000 0.000000 
#    y 0.000000 1.838000 0.000000 
#    z 0.000000 0.000000 1.861710 
# 
# From -- ./inp_files/23671.got.cif
#   From: 2010.05.17/outbox.cif.g08.bks.cpg/sg22_12_cif.got.tgz:23671.got - 2010.06.03 23:40:54.
