data_PCOD9328924
_publ_section_title
;
Structure prediction by ZEFSAII (Michael W. Deem and Ramdas Pophale) SiO2 
 PCOD9328924
Probable space group: F 2 2 2
;
_chemical_formula_sum "Si O2"
_cell_formula_units_Z 72
_cell_length_a 16.296861
_cell_length_b 7.829776
_cell_length_c 25.045665
_cell_angle_alpha 90.000000
_cell_angle_beta 90.000000
_cell_angle_gamma 90.000000
_cell_volume 3195.846168
_symmetry_space_group_name_H-M "F 2 2 2"
_symmetry_group_IT_number 22
_symmetry_cell_setting 'orthorhombic'
loop_
_space_group_symop_operation_xyz
x,y,z
-x,-y,z
x,-y,-z
-x,y,-z
x,1/2+y,1/2+z
-x,1/2-y,1/2+z
x,1/2-y,1/2-z
-x,1/2+y,1/2-z
1/2+x,y,1/2+z
1/2-x,-y,1/2+z
1/2+x,-y,1/2-z
1/2-x,y,1/2-z
1/2+x,1/2+y,z
1/2-x,1/2-y,z
1/2+x,1/2-y,-z
1/2-x,1/2+y,-z
loop_
_atom_site_type_symbol
_atom_site_label
_atom_site_fract_x
_atom_site_fract_y
_atom_site_fract_z
Si Si1 0.090070 0.462044 0.125120
Si Si2 0.412799 0.554014 0.878738
Si Si3 0.880541 0.500000 0.500000
Si Si4 0.824477 0.844499 0.535068
Si Si5 0.247844 0.958147 0.811065
O O1 0.092618 0.258725 0.117655
O O2 0.106060 0.569772 0.070944
O O3 0.167969 0.512227 0.160707
O O4 0.000000 0.500000 0.147062
O O5 0.500000 0.500000 0.853904
O O6 0.412608 0.478678 0.938812
O O7 0.333811 0.495191 0.844477
O O8 0.851739 0.697302 0.495073
O O9 0.750000 0.750000 0.565712
O O10 0.788054 0.000000 0.500000
O O11 0.250000 0.017159 0.750000
O O12 0.250000 0.750000 0.810560
#
# Coordination Sequence:
#
# PCOD9328924 Si02
#       5
#    16  16   8  16  16
#     4  11  24  42  66 101 142 181 239 295 355 428
#     4  11  23  41  68 102 140 188 237 291 361 433
#     4  12  23  40  66 100 149 186 227 284 352 428
#     4  12  24  40  67 101 142 189 233 285 344 424
#     4   9  21  43  69  96 135 186 242 299 361 428
#
# _framework density 22.529246000000001
#
# number of rings (size 3 to 8) (size 9 to 14) (size 15 to 20)
#    0.000    1.111    3.333    3.000    0.000    1.333 
#    0.000    0.000    0.000   15.333    0.000    0.000 
#    0.000    0.000    0.000    0.000    0.000    0.000 
#
# Total GULP energy -100297.431816 kJ/mol
# GULP energy per Si atom -5572.079545 kJ/mol
# Density = 2.247797 g / cm^3
# Si number density = 22.529246 Si / 1000 Ang^3
#
#
#
# Elastic Constant Matrix: (Units=GPa)
#
#
# Indices 1 2 3 4 5 6 
#
# 1 187.0097 37.4239 86.1717 0.0000 0.0000 0.0000
# 2 37.4239 114.0570 23.1341 0.0000 0.0000 0.0000
# 3 86.1717 23.1341 101.6781 0.0000 0.0000 0.0000
# 4 0.0000 0.0000 0.0000 0.7486 0.0000 0.0000
# 5 0.0000 0.0000 0.0000 0.0000 3.0400 0.0000
# 6 0.0000 0.0000 0.0000 0.0000 0.0000 37.5114
#
#
#
# Elastic Compliance Matrix: (Units=1/GPa)
#
#
# Indices 1 2 3 4 5 6 
#
# 1 0.009004 -0.001475 -0.007295 0.000000 0.000000 0.000000
# 2 -0.001475 0.009433 -0.000897 0.000000 0.000000 0.000000
# 3 -0.007295 -0.000897 0.016222 0.000000 0.000000 0.000000
# 4 0.000000 0.000000 0.000000 1.335816 0.000000 0.000000
# 5 0.000000 0.000000 0.000000 0.000000 0.328945 0.000000
# 6 0.000000 0.000000 0.000000 0.000000 0.000000 0.026659
#
#
# Mechanical properties :
#
#
# Convention : Reuss Voigt Hill
#
# Bulk Modulus (GPa) = 65.24884 77.35601 71.30242
# Shear Modulus (GPa) = 2.85629 25.32768 14.09199
#
# Velocity S-wave (km/s) = 1.12719 3.35657 2.50371
# Velocity P-wave (km/s) = 5.54245 7.03082 6.33053
#
# Compressibility (1/GPa) = 0.01532594
#
# Stress axis : x y z
#
# Youngs Moduli (GPa) = 111.06150 106.00811 61.64579
#
# Poissons Ratio (x) = 0.15633 0.44973
# Poissons Ratio (y) = 0.16378 0.05527
# Poissons Ratio (z) = 0.81023 0.09504
#
# Static dielectric constant tensor:
#      x y z
#    x 1.969290 0.000000 0.000000 
#    y 0.000000 1.924890 0.000000 
#    z 0.000000 0.000000 1.821070 
# 
# From -- ./inp_files/49263.got.cif
#   From: 2010.05.17/outbox.cif.g08.bks.cpg/sg22_25_cif.got.tgz:49263.got - 2010.06.03 23:40:54.
