data_PCOD9328198
_publ_section_title
;
Structure prediction by ZEFSAII (Michael W. Deem and Ramdas Pophale) SiO2 
 PCOD9328198
Probable space group: F 2 2 2
;
_chemical_formula_sum "Si O2"
_cell_formula_units_Z 56
_cell_length_a 10.490789
_cell_length_b 17.671564
_cell_length_c 12.740067
_cell_angle_alpha 90.000000
_cell_angle_beta 90.000000
_cell_angle_gamma 90.000000
_cell_volume 2361.863812
_symmetry_space_group_name_H-M "F 2 2 2"
_symmetry_group_IT_number 22
_symmetry_cell_setting 'orthorhombic'
loop_
_space_group_symop_operation_xyz
x,y,z
-x,-y,z
x,-y,-z
-x,y,-z
x,1/2+y,1/2+z
-x,1/2-y,1/2+z
x,1/2-y,1/2-z
-x,1/2+y,1/2-z
1/2+x,y,1/2+z
1/2-x,-y,1/2+z
1/2+x,-y,1/2-z
1/2-x,y,1/2-z
1/2+x,1/2+y,z
1/2-x,1/2-y,z
1/2+x,1/2-y,-z
1/2-x,1/2+y,-z
loop_
_atom_site_type_symbol
_atom_site_label
_atom_site_fract_x
_atom_site_fract_y
_atom_site_fract_z
Si Si1 0.945103 0.618014 0.174330
Si Si2 0.500000 0.768909 0.000000
Si Si3 0.302157 0.973691 0.118755
Si Si4 0.562240 0.127262 0.394110
O O1 0.925454 0.683052 0.087964
O O2 0.842116 0.551808 0.172683
O O3 0.076857 0.580772 0.132328
O O4 0.969594 0.639443 0.295085
O O5 0.406545 0.711305 0.062989
O O6 0.175955 0.926242 0.144547
O O7 0.288472 0.000000 0.000000
O O8 0.500000 0.092296 0.500000
#
# Coordination Sequence:
#
# PCOD9328198 Si02
#       4
#    16   8  16  16
#     4  11  21  47  75 103 144 195 245 290 362 433
#     4  10  22  47  73 102 154 184 244 292 360 447
#     4  11  23  43  73 107 140 192 245 298 351 425
#     4  10  26  42  71 109 150 181 242 302 361 423
#
# _framework density 23.710089
#
# number of rings (size 3 to 8) (size 9 to 14) (size 15 to 20)
#    0.857    0.571    2.857    2.571    0.000    8.571 
#    0.000    2.857    0.000    3.429    0.000    0.000 
#    0.000    0.000    0.000    0.000    0.000    0.000 
#
# Total GULP energy -78152.135141 kJ/mol
# GULP energy per Si atom -5582.295367 kJ/mol
# Density = 2.365612 g / cm^3
# Si number density = 23.710089 Si / 1000 Ang^3
#
#
#
# Elastic Constant Matrix: (Units=GPa)
#
#
# Indices 1 2 3 4 5 6 
#
# 1 73.7025 49.0845 36.7390 0.0000 0.0000 0.0000
# 2 49.0845 155.0383 70.1483 0.0000 0.0000 0.0000
# 3 36.7390 70.1483 162.4971 0.0000 0.0000 0.0000
# 4 0.0000 0.0000 0.0000 21.5725 0.0000 0.0000
# 5 0.0000 0.0000 0.0000 0.0000 31.0346 0.0000
# 6 0.0000 0.0000 0.0000 0.0000 0.0000 5.8180
#
#
#
# Elastic Compliance Matrix: (Units=1/GPa)
#
#
# Indices 1 2 3 4 5 6 
#
# 1 0.017684 -0.004710 -0.001965 0.000000 0.000000 0.000000
# 2 -0.004710 0.009270 -0.002937 0.000000 0.000000 0.000000
# 3 -0.001965 -0.002937 0.007866 0.000000 0.000000 0.000000
# 4 0.000000 0.000000 0.000000 0.046355 0.000000 0.000000
# 5 0.000000 0.000000 0.000000 0.000000 0.032222 0.000000
# 6 0.000000 0.000000 0.000000 0.000000 0.000000 0.171880
#
#
# Mechanical properties :
#
#
# Convention : Reuss Voigt Hill
#
# Bulk Modulus (GPa) = 64.11556 78.13127 71.12341
# Shear Modulus (GPa) = 16.14465 27.36943 21.75704
#
# Velocity S-wave (km/s) = 2.61227 3.40124 3.03252
# Velocity P-wave (km/s) = 6.01654 6.96052 6.50568
#
# Compressibility (1/GPa) = 0.01559684
#
# Stress axis : x y z
#
# Youngs Moduli (GPa) = 56.54787 107.87617 127.12794
#
# Poissons Ratio (x) = 0.50805 0.24982
# Poissons Ratio (y) = 0.26632 0.37336
# Poissons Ratio (z) = 0.11112 0.31682
#
# Static dielectric constant tensor:
#      x y z
#    x 1.871530 0.000000 0.000000 
#    y 0.000000 1.905960 0.000000 
#    z 0.000000 0.000000 1.946930 
# 
# From -- ./inp_files/27755.got.cif
#   From: 2010.05.17/outbox.cif.g08.bks.cpg/sg22_14_cif.got.tgz:27755.got - 2010.06.03 23:40:54.
