data_PCOD9328371
_publ_section_title
;
Structure prediction by ZEFSAII (Michael W. Deem and Ramdas Pophale) SiO2 
 PCOD9328371
Probable space group: F 2 2 2
;
_chemical_formula_sum "Si O2"
_cell_formula_units_Z 60
_cell_length_a 5.129939
_cell_length_b 26.461642
_cell_length_c 18.805686
_cell_angle_alpha 90.000000
_cell_angle_beta 90.000000
_cell_angle_gamma 90.000000
_cell_volume 2552.808110
_symmetry_space_group_name_H-M "F 2 2 2"
_symmetry_group_IT_number 22
_symmetry_cell_setting 'orthorhombic'
loop_
_space_group_symop_operation_xyz
x,y,z
-x,-y,z
x,-y,-z
-x,y,-z
x,1/2+y,1/2+z
-x,1/2-y,1/2+z
x,1/2-y,1/2-z
-x,1/2+y,1/2-z
1/2+x,y,1/2+z
1/2-x,-y,1/2+z
1/2+x,-y,1/2-z
1/2-x,y,1/2-z
1/2+x,1/2+y,z
1/2-x,1/2-y,z
1/2+x,1/2-y,-z
1/2-x,1/2+y,-z
loop_
_atom_site_type_symbol
_atom_site_label
_atom_site_fract_x
_atom_site_fract_y
_atom_site_fract_z
Si Si1 0.869437 0.416004 0.108981
Si Si2 0.384318 0.149905 0.422098
Si Si3 0.000000 0.000000 0.500000
Si Si4 0.250000 0.030311 0.750000
Si Si5 0.507417 0.306149 0.783066
O O1 0.589360 0.390296 0.107297
O O2 0.855241 0.461577 0.052443
O O3 0.892687 0.439013 0.187020
O O4 0.097988 0.375937 0.085242
O O5 0.500000 0.162176 0.500000
O O6 0.436379 0.195323 0.366586
O O7 0.500000 0.000000 0.717946
O O8 0.504679 0.250000 0.750000
O O9 0.750000 0.335110 0.750000
O O10 0.250000 0.329864 0.750000
#
# Coordination Sequence:
#
# PCOD9328371 Si02
#       5
#    16  16   4   8  16
#     4  12  27  42  70  99 144 193 241 298 350 422
#     4  12  25  45  67 106 137 186 243 295 353 428
#     4  12  24  50  64  98 152 192 240 298 360 414
#     4  12  26  44  64 102 139 188 253 302 354 418
#     4  10  23  45  71 102 136 178 229 291 372 433
#
# _framework density 23.503527999999999
#
# number of rings (size 3 to 8) (size 9 to 14) (size 15 to 20)
#    0.000    0.533    4.000    3.200    5.600    1.067 
#    0.000    5.333    0.000    0.000    0.000    0.000 
#    0.000    0.000    0.000    0.000    0.000    0.000 
#
# Total GULP energy -83664.630521 kJ/mol
# GULP energy per Si atom -5577.642035 kJ/mol
# Density = 2.345003 g / cm^3
# Si number density = 23.503528 Si / 1000 Ang^3
#
#
#
# Elastic Constant Matrix: (Units=GPa)
#
#
# Indices 1 2 3 4 5 6 
#
# 1 155.3147 1.8686 3.3052 0.0000 0.0000 0.0000
# 2 1.8686 76.6624 31.4246 0.0000 0.0000 0.0000
# 3 3.3052 31.4246 172.3381 0.0000 0.0000 0.0000
# 4 0.0000 0.0000 0.0000 100.5519 0.0000 0.0000
# 5 0.0000 0.0000 0.0000 0.0000 30.5397 0.0000
# 6 0.0000 0.0000 0.0000 0.0000 0.0000 4.7214
#
#
#
# Elastic Compliance Matrix: (Units=1/GPa)
#
#
# Indices 1 2 3 4 5 6 
#
# 1 0.006442 -0.000115 -0.000103 0.000000 0.000000 0.000000
# 2 -0.000115 0.014100 -0.002569 0.000000 0.000000 0.000000
# 3 -0.000103 -0.002569 0.006273 0.000000 0.000000 0.000000
# 4 0.000000 0.000000 0.000000 0.009945 0.000000 0.000000
# 5 0.000000 0.000000 0.000000 0.000000 0.032744 0.000000
# 6 0.000000 0.000000 0.000000 0.000000 0.000000 0.211801
#
#
# Mechanical properties :
#
#
# Convention : Reuss Voigt Hill
#
# Bulk Modulus (GPa) = 47.07597 53.05688 50.06642
# Shear Modulus (GPa) = 17.00917 51.67706 34.34312
#
# Velocity S-wave (km/s) = 2.69306 4.69411 3.82670
# Velocity P-wave (km/s) = 5.45370 7.21128 6.39318
#
# Compressibility (1/GPa) = 0.02124226
#
# Stress axis : x y z
#
# Youngs Moduli (GPa) = 155.22874 70.92204 159.41538
#
# Poissons Ratio (x) = 0.00815 0.01635
# Poissons Ratio (y) = 0.01785 0.40951
# Poissons Ratio (z) = 0.01592 0.18219
#
# Static dielectric constant tensor:
#      x y z
#    x 1.201530 0.000000 0.000000 
#    y 0.000000 1.868260 0.000000 
#    z 0.000000 0.000000 2.047110 
# 
# From -- ./inp_files/5269.got.cif
#   From: 2010.05.17/outbox.cif.g08.bks.cpg/sg22_3_cif.got.tgz:5269.got - 2010.06.03 23:40:54.
