data_PCOD9328286
_publ_section_title
;
Structure prediction by ZEFSAII (Michael W. Deem and Ramdas Pophale) SiO2 
 PCOD9328286
Probable space group: F 2 2 2
;
_chemical_formula_sum "Si O2"
_cell_formula_units_Z 88
_cell_length_a 21.237909
_cell_length_b 10.846851
_cell_length_c 16.923873
_cell_angle_alpha 90.000000
_cell_angle_beta 90.000000
_cell_angle_gamma 90.000000
_cell_volume 3898.658433
_symmetry_space_group_name_H-M "F 2 2 2"
_symmetry_group_IT_number 22
_symmetry_cell_setting 'orthorhombic'
loop_
_space_group_symop_operation_xyz
x,y,z
-x,-y,z
x,-y,-z
-x,y,-z
x,1/2+y,1/2+z
-x,1/2-y,1/2+z
x,1/2-y,1/2-z
-x,1/2+y,1/2-z
1/2+x,y,1/2+z
1/2-x,-y,1/2+z
1/2+x,-y,1/2-z
1/2-x,y,1/2-z
1/2+x,1/2+y,z
1/2-x,1/2-y,z
1/2+x,1/2-y,-z
1/2-x,1/2+y,-z
loop_
_atom_site_type_symbol
_atom_site_label
_atom_site_fract_x
_atom_site_fract_y
_atom_site_fract_z
Si Si1 0.440338 0.433875 0.654685
Si Si2 0.099561 0.079777 0.126215
Si Si3 0.179815 0.211355 0.436879
Si Si4 0.889804 0.000000 0.500000
Si Si5 0.320638 0.458313 0.278055
Si Si6 0.969853 0.833756 0.911218
O O1 0.500000 0.500000 0.696219
O O2 0.430970 0.518607 0.576960
O O3 0.372927 0.439907 0.697755
O O4 0.450257 0.298432 0.620747
O O5 0.134428 0.170732 0.065450
O O6 0.144811 0.093975 0.201089
O O7 0.030475 0.132596 0.141640
O O8 0.083053 0.940218 0.098832
O O9 0.250000 0.250000 0.454438
O O10 0.182035 0.135854 0.352754
O O11 0.154224 0.118424 0.502850
O O12 0.250000 0.492782 0.250000
O O13 0.000000 0.833781 0.000000
#
# Coordination Sequence:
#
# PCOD9328286 Si02
#       6
#    16  16  16   8  16  16
#     4  11  23  43  72  99 140 190 242 302 366 441
#     4  11  23  40  68 102 138 183 235 296 371 440
#     4  11  22  43  70  97 136 191 238 299 364 457
#     4  10  23  42  64 104 128 177 252 296 357 426
#     4  11  24  44  69 103 141 188 246 295 365 441
#     4  11  24  45  68 105 142 183 239 307 374 432
#
# _framework density 22.571866
#
# number of rings (size 3 to 8) (size 9 to 14) (size 15 to 20)
#    0.000    1.091    1.818    6.273    2.545    0.727 
#    6.545    1.818    0.000    0.000    0.000    0.000 
#    0.000    0.000    0.000    0.000    0.000    0.000 
#
# Total GULP energy -122780.009861 kJ/mol
# GULP energy per Si atom -5580.909539 kJ/mol
# Density = 2.252049 g / cm^3
# Si number density = 22.571866 Si / 1000 Ang^3
#
#
#
# Elastic Constant Matrix: (Units=GPa)
#
#
# Indices 1 2 3 4 5 6 
#
# 1 176.2006 57.9454 33.2977 0.0000 0.0000 0.0000
# 2 57.9454 117.9796 -3.9581 0.0000 0.0000 0.0000
# 3 33.2977 -3.9581 58.9496 0.0000 0.0000 0.0000
# 4 0.0000 0.0000 0.0000 28.8030 0.0000 0.0000
# 5 0.0000 0.0000 0.0000 0.0000 34.8261 0.0000
# 6 0.0000 0.0000 0.0000 0.0000 0.0000 38.3206
#
#
#
# Elastic Compliance Matrix: (Units=1/GPa)
#
#
# Indices 1 2 3 4 5 6 
#
# 1 0.007897 -0.004038 -0.004732 0.000000 0.000000 0.000000
# 2 -0.004038 0.010559 0.002990 0.000000 0.000000 0.000000
# 3 -0.004732 0.002990 0.019837 0.000000 0.000000 0.000000
# 4 0.000000 0.000000 0.000000 0.034719 0.000000 0.000000
# 5 0.000000 0.000000 0.000000 0.000000 0.028714 0.000000
# 6 0.000000 0.000000 0.000000 0.000000 0.000000 0.026096
#
#
# Mechanical properties :
#
#
# Convention : Reuss Voigt Hill
#
# Bulk Modulus (GPa) = 37.40526 58.63331 48.01928
# Shear Modulus (GPa) = 33.71696 38.11293 35.91495
#
# Velocity S-wave (km/s) = 3.86911 4.11361 3.99323
# Velocity P-wave (km/s) = 6.04712 6.97102 6.52544
#
# Compressibility (1/GPa) = 0.02673421
#
# Stress axis : x y z
#
# Youngs Moduli (GPa) = 126.62483 94.70278 50.41039
#
# Poissons Ratio (x) = 0.38236 0.23854
# Poissons Ratio (y) = 0.51125 -0.15071
# Poissons Ratio (z) = 0.59918 -0.28312
#
# Static dielectric constant tensor:
#      x y z
#    x 1.837030 0.000000 0.000000 
#    y 0.000000 1.876750 0.000000 
#    z 0.000000 0.000000 1.920020 
# 
# From -- ./inp_files/38787.got.cif
#   From: 2010.05.17/outbox.cif.g08.bks.cpg/sg22_20_cif.got.tgz:38787.got - 2010.06.03 23:40:54.
