data_PCOD9328824
_publ_section_title
;
Structure prediction by ZEFSAII (Michael W. Deem and Ramdas Pophale) SiO2 
 PCOD9328824
Probable space group: F 2 2 2
;
_chemical_formula_sum "Si O2"
_cell_formula_units_Z 88
_cell_length_a 8.945441
_cell_length_b 21.972754
_cell_length_c 20.618252
_cell_angle_alpha 90.000000
_cell_angle_beta 90.000000
_cell_angle_gamma 90.000000
_cell_volume 4052.640615
_symmetry_space_group_name_H-M "F 2 2 2"
_symmetry_group_IT_number 22
_symmetry_cell_setting 'orthorhombic'
loop_
_space_group_symop_operation_xyz
x,y,z
-x,-y,z
x,-y,-z
-x,y,-z
x,1/2+y,1/2+z
-x,1/2-y,1/2+z
x,1/2-y,1/2-z
-x,1/2+y,1/2-z
1/2+x,y,1/2+z
1/2-x,-y,1/2+z
1/2+x,-y,1/2-z
1/2-x,y,1/2-z
1/2+x,1/2+y,z
1/2-x,1/2-y,z
1/2+x,1/2-y,-z
1/2-x,1/2+y,-z
loop_
_atom_site_type_symbol
_atom_site_label
_atom_site_fract_x
_atom_site_fract_y
_atom_site_fract_z
Si Si1 0.822723 0.078172 0.320130
Si Si2 0.345710 0.025346 0.388116
Si Si3 0.073522 0.243897 0.323487
Si Si4 0.334188 0.814720 0.398970
Si Si5 0.647871 0.383712 0.687596
Si Si6 0.000000 0.899993 0.000000
O O1 0.750000 0.065139 0.250000
O O2 0.756452 0.142310 0.348431
O O3 0.999363 0.076276 0.304075
O O4 0.770361 0.029593 0.375021
O O5 0.267841 0.081511 0.354033
O O6 0.599043 0.055397 0.544888
O O7 0.500000 0.000000 0.357925
O O8 0.015060 0.250000 0.250000
O O9 0.250000 0.250000 0.323650
O O10 0.068883 0.174295 0.345186
O O11 0.986722 0.292039 0.365448
O O12 0.250000 0.750000 0.413722
O O13 0.388738 0.856741 0.458538
O O14 0.750000 0.366207 0.750000
#
# Coordination Sequence:
#
# PCOD9328824 Si02
#       6
#    16  16  16  16  16   8
#     4  12  26  46  78 118 155 198 252 327 395 471
#     4  12  26  48  77 102 145 206 264 310 382 456
#     4  11  22  39  71 113 155 200 242 310 394 471
#     4  12  27  48  76 115 153 205 257 320 388 468
#     4  12  24  44  73 116 158 194 251 320 402 465
#     4  12  29  52  82 100 154 219 260 314 380 475
#
# _framework density 21.714237000000001
#
# number of rings (size 3 to 8) (size 9 to 14) (size 15 to 20)
#    0.000    0.182    5.455    4.636    0.000    2.182 
#    0.000    0.000    4.000    0.000    0.000    0.000 
#    0.000    0.000    0.000    0.000    0.000    0.000 
#
# Total GULP energy -122609.391992 kJ/mol
# GULP energy per Si atom -5573.154181 kJ/mol
# Density = 2.166481 g / cm^3
# Si number density = 21.714237 Si / 1000 Ang^3
#
#
#
# Elastic Constant Matrix: (Units=GPa)
#
#
# Indices 1 2 3 4 5 6 
#
# 1 119.7739 35.3916 58.1111 0.0000 0.0000 0.0000
# 2 35.3916 140.1163 59.1219 0.0000 0.0000 0.0000
# 3 58.1111 59.1219 87.0690 0.0000 0.0000 0.0000
# 4 0.0000 0.0000 0.0000 36.8501 0.0000 0.0000
# 5 0.0000 0.0000 0.0000 0.0000 30.0197 0.0000
# 6 0.0000 0.0000 0.0000 0.0000 0.0000 -63.1465
#
#
#
# Elastic Compliance Matrix: (Units=1/GPa)
#
#
# Indices 1 2 3 4 5 6 
#
# 1 0.012373 0.000503 -0.008599 0.000000 0.000000 0.000000
# 2 0.000503 0.010023 -0.007142 0.000000 0.000000 0.000000
# 3 -0.008599 -0.007142 0.022074 0.000000 0.000000 0.000000
# 4 0.000000 0.000000 0.000000 0.027137 0.000000 0.000000
# 5 0.000000 0.000000 0.000000 0.000000 0.033311 0.000000
# 6 0.000000 0.000000 0.000000 0.000000 0.000000 -0.015836
#
#
# Mechanical properties :
#
#
# Convention : Reuss Voigt Hill
#
# Bulk Modulus (GPa) = 71.46002 72.46762 71.96382
# Shear Modulus (GPa) = 40.25017 13.70028 26.97523
#
# Velocity S-wave (km/s) = 4.31005 2.51457 3.52843
# Velocity P-wave (km/s) = 7.59931 6.47121 7.05783
#
# Compressibility (1/GPa) = 0.01399384
#
# Stress axis : x y z
#
# Youngs Moduli (GPa) = 80.82425 99.76684 45.30193
#
# Poissons Ratio (x) = -0.05022 0.38957
# Poissons Ratio (y) = -0.04068 0.32355
# Poissons Ratio (z) = 0.69504 0.71254
#
# Static dielectric constant tensor:
#      x y z
#    x 1.808310 0.000000 0.000000 
#    y 0.000000 1.835130 0.000000 
#    z 0.000000 0.000000 1.814400 
# 
# From -- ./inp_files/47274.got.cif
#   From: 2010.05.17/outbox.cif.g08.bks.cpg/sg22_24_cif.got.tgz:47274.got - 2010.06.03 23:40:54.
