data_PCOD9328141
_publ_section_title
;
Structure prediction by ZEFSAII (Michael W. Deem and Ramdas Pophale) SiO2 
 PCOD9328141
Probable space group: F 2 2 2
;
_chemical_formula_sum "Si O2"
_cell_formula_units_Z 88
_cell_length_a 29.777585
_cell_length_b 22.985481
_cell_length_c 6.438232
_cell_angle_alpha 90.000000
_cell_angle_beta 90.000000
_cell_angle_gamma 90.000000
_cell_volume 4406.661504
_symmetry_space_group_name_H-M "F 2 2 2"
_symmetry_group_IT_number 22
_symmetry_cell_setting 'orthorhombic'
loop_
_space_group_symop_operation_xyz
x,y,z
-x,-y,z
x,-y,-z
-x,y,-z
x,1/2+y,1/2+z
-x,1/2-y,1/2+z
x,1/2-y,1/2-z
-x,1/2+y,1/2-z
1/2+x,y,1/2+z
1/2-x,-y,1/2+z
1/2+x,-y,1/2-z
1/2-x,y,1/2-z
1/2+x,1/2+y,z
1/2-x,1/2-y,z
1/2+x,1/2-y,-z
1/2-x,1/2+y,-z
loop_
_atom_site_type_symbol
_atom_site_label
_atom_site_fract_x
_atom_site_fract_y
_atom_site_fract_z
Si Si1 0.611317 0.250000 0.750000
Si Si2 0.881071 0.103340 0.272917
Si Si3 0.250000 0.346972 0.250000
Si Si4 0.548874 0.804752 0.909656
Si Si5 0.181729 0.443349 0.115058
Si Si6 0.818475 0.300449 0.423108
Si Si7 0.136133 0.000000 0.000000
O O1 0.579777 0.289158 0.607044
O O2 0.643390 0.217809 0.587859
O O3 0.924249 0.143691 0.298080
O O4 0.861964 0.076769 0.486603
O O5 0.839543 0.142571 0.186591
O O6 0.890455 0.049167 0.123539
O O7 0.214238 0.389145 0.139916
O O8 0.224819 0.312397 0.433581
O O9 0.546214 0.750000 0.750000
O O10 0.500000 0.818605 0.000000
O O11 0.167030 0.465771 0.338360
O O12 0.201970 0.500000 0.000000
O O13 0.812657 0.250000 0.250000
#
# Coordination Sequence:
#
# PCOD9328141 Si02
#       7
#     8  16   8  16  16  16   8
#     4  12  22  45  66  98 138 182 232 269 356 426
#     4  11  22  45  68  98 135 179 228 286 354 420
#     4  12  26  43  64  98 134 186 241 298 344 402
#     4  12  24  41  73 112 137 175 231 287 347 434
#     4  10  24  42  67  97 128 179 236 296 344 409
#     4  12  26  45  66  95 141 194 228 287 353 423
#     4  10  22  44  72  93 128 190 234 280 359 418
#
# _framework density 19.969764999999999
#
# number of rings (size 3 to 8) (size 9 to 14) (size 15 to 20)
#    0.000    0.727    6.364    1.091    1.273    1.091 
#    3.273    0.000    0.000    6.000    0.000    0.000 
#    0.000    0.000    0.000    0.000    0.000    0.000 
#
# Total GULP energy -123013.216102 kJ/mol
# GULP energy per Si atom -5591.509823 kJ/mol
# Density = 1.992431 g / cm^3
# Si number density = 19.969765 Si / 1000 Ang^3
#
#
#
# Elastic Constant Matrix: (Units=GPa)
#
#
# Indices 1 2 3 4 5 6 
#
# 1 113.2182 72.4916 67.5175 -0.0007 0.0011 -0.0199
# 2 72.4916 119.5303 57.2407 -0.0005 0.0009 0.0389
# 3 67.5175 57.2407 126.0463 0.0040 0.0019 0.0589
# 4 -0.0007 -0.0005 0.0040 37.3404 0.0021 0.0553
# 5 0.0011 0.0009 0.0019 0.0021 24.5572 0.0585
# 6 -0.0199 0.0389 0.0589 0.0553 0.0585 -83.7457
#
#
#
# Elastic Compliance Matrix: (Units=1/GPa)
#
#
# Indices 1 2 3 4 5 6 
#
# 1 0.017139 -0.007665 -0.005700 0.000001 0.000000 -0.000012
# 2 -0.007665 0.014119 -0.002306 0.000000 0.000000 0.000007
# 3 -0.005700 -0.002306 0.012034 -0.000001 -0.000001 0.000009
# 4 0.000001 0.000000 -0.000001 0.026781 -0.000002 0.000018
# 5 0.000000 0.000000 -0.000001 -0.000002 0.040721 0.000028
# 6 -0.000012 0.000007 0.000009 0.000018 0.000028 -0.011941
#
#
# Mechanical properties :
#
#
# Convention : Reuss Voigt Hill
#
# Bulk Modulus (GPa) = 83.67817 83.69937 83.68877
# Shear Modulus (GPa) = 37.26380 6.40006 21.83193
#
# Velocity S-wave (km/s) = 4.32442 1.79216 3.31002
# Velocity P-wave (km/s) = 8.18093 6.80342 7.52376
#
# Compressibility (1/GPa) = 0.01195055
#
# Stress axis : x y z
#
# Youngs Moduli (GPa) = 58.34515 70.82697 83.09768
#
# Poissons Ratio (x) = 0.54288 0.47366
# Poissons Ratio (y) = 0.44721 0.19162
# Poissons Ratio (z) = 0.33257 0.16333
#
# Static dielectric constant tensor:
#      x y z
#    x 1.695770 0.000000 -0.000030 
#    y 0.000000 1.738270 0.000100 
#    z -0.000030 0.000100 2.023930 
# 
# From -- ./inp_files/6477.got.cif
#   From: 2010.05.17/outbox.cif.g08.bks.cpg/sg22_4_cif.got.tgz:6477.got - 2010.06.03 23:40:54.
