data_PCOD9328036
_publ_section_title
;
Structure prediction by ZEFSAII (Michael W. Deem and Ramdas Pophale) SiO2 
 PCOD9328036
Probable space group: F 2 2 2
;
_chemical_formula_sum "Si O2"
_cell_formula_units_Z 108
_cell_length_a 9.652035
_cell_length_b 15.598347
_cell_length_c 29.636725
_cell_angle_alpha 90.000000
_cell_angle_beta 90.000000
_cell_angle_gamma 90.000000
_cell_volume 4461.980581
_symmetry_space_group_name_H-M "F 2 2 2"
_symmetry_group_IT_number 22
_symmetry_cell_setting 'orthorhombic'
loop_
_space_group_symop_operation_xyz
x,y,z
-x,-y,z
x,-y,-z
-x,y,-z
x,1/2+y,1/2+z
-x,1/2-y,1/2+z
x,1/2-y,1/2-z
-x,1/2+y,1/2-z
1/2+x,y,1/2+z
1/2-x,-y,1/2+z
1/2+x,-y,1/2-z
1/2-x,y,1/2-z
1/2+x,1/2+y,z
1/2-x,1/2-y,z
1/2+x,1/2-y,-z
1/2-x,1/2+y,-z
loop_
_atom_site_type_symbol
_atom_site_label
_atom_site_fract_x
_atom_site_fract_y
_atom_site_fract_z
Si Si1 0.592889 0.810588 0.149762
Si Si2 0.388785 0.621579 0.560527
Si Si3 0.750000 0.750000 0.750000
Si Si4 0.500000 0.000000 0.256524
Si Si5 0.390845 0.124897 0.331500
Si Si6 0.842345 0.599128 0.813441
Si Si7 0.787041 0.350176 0.037086
Si Si8 0.200303 0.484426 0.605153
O O1 0.629655 0.804877 0.097382
O O2 0.540180 0.717395 0.163661
O O3 0.729835 0.846352 0.174217
O O4 0.475135 0.880186 0.156428
O O5 0.552267 0.627347 0.549406
O O6 0.293048 0.632439 0.516530
O O7 0.333309 0.537361 0.586265
O O8 0.821434 0.683858 0.784119
O O9 0.451420 0.076189 0.288810
O O10 0.621284 0.027816 0.223016
O O11 0.394978 0.063341 0.375922
O O12 0.727995 0.567705 0.848493
O O13 0.750000 0.250000 0.045575
O O14 0.685969 0.413033 0.065738
#
# Coordination Sequence:
#
# PCOD9328036 Si02
#       8
#    16  16   4   8  16  16  16  16
#     4  10  22  44  67  92 127 188 219 268 335 424
#     4  10  22  42  65  99 133 169 220 270 324 405
#     4  12  28  44  64 102 140 166 220 304 344 394
#     4  12  24  44  60 102 132 176 228 296 330 402
#     4  10  24  39  66  92 131 174 228 277 338 395
#     4  12  25  42  69  92 134 175 226 277 346 397
#     4  11  24  38  68 104 131 165 216 280 332 396
#     4  11  23  42  67  99 127 182 220 276 330 410
#
# _framework density 24.204498000000001
#
# number of rings (size 3 to 8) (size 9 to 14) (size 15 to 20)
#    0.000    1.185    1.481    4.444    7.259    4.148 
#    0.000    2.963    0.000    0.000    0.000    0.000 
#    0.000    0.000    0.000    0.000    0.000    0.000 
#
# Total GULP energy -150786.700642 kJ/mol
# GULP energy per Si atom -5584.692616 kJ/mol
# Density = 2.414941 g / cm^3
# Si number density = 24.204498 Si / 1000 Ang^3
#
#
#
# Elastic Constant Matrix: (Units=GPa)
#
#
# Indices 1 2 3 4 5 6 
#
# 1 31.5978 4.6077 17.9380 0.0000 0.0000 0.0000
# 2 4.6077 136.5704 60.7463 0.0000 0.0000 0.0000
# 3 17.9380 60.7463 164.9619 0.0000 0.0000 0.0000
# 4 0.0000 0.0000 0.0000 53.0911 0.0000 0.0000
# 5 0.0000 0.0000 0.0000 0.0000 2.0134 0.0000
# 6 0.0000 0.0000 0.0000 0.0000 0.0000 44.3145
#
#
#
# Elastic Compliance Matrix: (Units=1/GPa)
#
#
# Indices 1 2 3 4 5 6 
#
# 1 0.033770 0.000591 -0.003890 0.000000 0.000000 0.000000
# 2 0.000591 0.008767 -0.003293 0.000000 0.000000 0.000000
# 3 -0.003890 -0.003293 0.007697 0.000000 0.000000 0.000000
# 4 0.000000 0.000000 0.000000 0.018836 0.000000 0.000000
# 5 0.000000 0.000000 0.000000 0.000000 0.496663 0.000000
# 6 0.000000 0.000000 0.000000 0.000000 0.000000 0.022566
#
#
# Mechanical properties :
#
#
# Convention : Reuss Voigt Hill
#
# Bulk Modulus (GPa) = 26.98975 55.52377 41.25676
# Shear Modulus (GPa) = 8.14555 36.53968 22.34262
#
# Velocity S-wave (km/s) = 1.83647 3.88960 3.04151
# Velocity P-wave (km/s) = 3.95875 6.56972 5.42370
#
# Compressibility (1/GPa) = 0.03705110
#
# Stress axis : x y z
#
# Youngs Moduli (GPa) = 29.61228 114.06633 129.91326
#
# Poissons Ratio (x) = -0.06739 0.50532
# Poissons Ratio (y) = -0.01749 0.42775
# Poissons Ratio (z) = 0.11518 0.37557
#
# Static dielectric constant tensor:
#      x y z
#    x 1.953000 0.000000 0.000000 
#    y 0.000000 1.983640 0.000000 
#    z 0.000000 0.000000 1.948100 
# 
# From -- ./inp_files/56133.got.cif
#   From: 2010.05.17/outbox.cif.g08.bks.cpg/sg22_29_cif.got.tgz:56133.got - 2010.06.03 23:40:54.
