data_PCOD9328663
_publ_section_title
;
Structure prediction by ZEFSAII (Michael W. Deem and Ramdas Pophale) SiO2 
 PCOD9328663
Probable space group: F 2 2 2
;
_chemical_formula_sum "Si O2"
_cell_formula_units_Z 96
_cell_length_a 11.128959
_cell_length_b 21.291115
_cell_length_c 21.414567
_cell_angle_alpha 90.000000
_cell_angle_beta 90.000000
_cell_angle_gamma 90.000000
_cell_volume 5074.137663
_symmetry_space_group_name_H-M "F 2 2 2"
_symmetry_group_IT_number 22
_symmetry_cell_setting 'orthorhombic'
loop_
_space_group_symop_operation_xyz
x,y,z
-x,-y,z
x,-y,-z
-x,y,-z
x,1/2+y,1/2+z
-x,1/2-y,1/2+z
x,1/2-y,1/2-z
-x,1/2+y,1/2-z
1/2+x,y,1/2+z
1/2-x,-y,1/2+z
1/2+x,-y,1/2-z
1/2-x,y,1/2-z
1/2+x,1/2+y,z
1/2-x,1/2-y,z
1/2+x,1/2-y,-z
1/2-x,1/2+y,-z
loop_
_atom_site_type_symbol
_atom_site_label
_atom_site_fract_x
_atom_site_fract_y
_atom_site_fract_z
Si Si1 0.368555 0.072020 0.477329
Si Si2 0.052133 0.751067 0.070463
Si Si3 0.894763 0.921373 0.170433
Si Si4 0.820385 0.558831 0.688999
Si Si5 0.880284 0.220506 0.813204
Si Si6 0.739097 0.644761 0.575826
O O1 0.500000 0.094312 0.500000
O O2 0.374509 0.078206 0.403806
O O3 0.263892 0.111355 0.509711
O O4 0.358104 0.000000 0.500000
O O5 0.155294 0.803408 0.080207
O O6 0.115730 0.683214 0.079188
O O7 0.956401 0.764964 0.124764
O O8 0.000000 0.754776 0.000000
O O9 0.861397 0.853613 0.195785
O O10 0.037100 0.927190 0.185083
O O11 0.821989 0.983011 0.190558
O O12 0.750000 0.582176 0.750000
O O13 0.760466 0.592293 0.629041
O O14 0.936052 0.250000 0.750000
O O15 0.750000 0.250000 0.821332
#
# Coordination Sequence:
#
# PCOD9328663 Si02
#       6
#    16  16  16  16  16  16
#     4  11  17  34  66  96 125 152 217 273 322 387
#     4  11  25  41  65  96 133 172 217 276 337 396
#     4  11  22  42  65  95 126 170 220 272 332 388
#     4  11  23  39  65  96 128 164 217 274 326 387
#     4  11  26  44  66  91 131 180 231 265 324 403
#     4  11  22  39  64 100 127 168 212 272 342 389
#
# _framework density 18.91947
#
# number of rings (size 3 to 8) (size 9 to 14) (size 15 to 20)
#    0.000    1.000    5.000    2.500    9.333    0.000 
#    0.000    1.667    0.000    2.500    0.000    0.000 
#    0.000    0.000    0.000    0.000    0.000    0.000 
#
# Total GULP energy -133955.849359 kJ/mol
# GULP energy per Si atom -5581.493723 kJ/mol
# Density = 1.887641 g / cm^3
# Si number density = 18.919470 Si / 1000 Ang^3
#
#
#
# Elastic Constant Matrix: (Units=GPa)
#
#
# Indices 1 2 3 4 5 6 
#
# 1 52.8127 35.5497 41.5289 0.0000 0.0000 0.0000
# 2 35.5497 136.9307 30.2676 0.0000 0.0000 0.0000
# 3 41.5289 30.2676 134.6277 0.0000 0.0000 0.0000
# 4 0.0000 0.0000 0.0000 10.4165 0.0000 0.0000
# 5 0.0000 0.0000 0.0000 0.0000 24.9327 0.0000
# 6 0.0000 0.0000 0.0000 0.0000 0.0000 28.4837
#
#
#
# Elastic Compliance Matrix: (Units=1/GPa)
#
#
# Indices 1 2 3 4 5 6 
#
# 1 0.028800 -0.005802 -0.007580 0.000000 0.000000 0.000000
# 2 -0.005802 0.008854 -0.000201 0.000000 0.000000 0.000000
# 3 -0.007580 -0.000201 0.009811 0.000000 0.000000 0.000000
# 4 0.000000 0.000000 0.000000 0.096002 0.000000 0.000000
# 5 0.000000 0.000000 0.000000 0.000000 0.040108 0.000000
# 6 0.000000 0.000000 0.000000 0.000000 0.000000 0.035108
#
#
# Mechanical properties :
#
#
# Convention : Reuss Voigt Hill
#
# Bulk Modulus (GPa) = 49.25959 59.89594 54.57776
# Shear Modulus (GPa) = 19.79304 27.23490 23.51397
#
# Velocity S-wave (km/s) = 3.23797 3.79821 3.52923
# Velocity P-wave (km/s) = 6.33026 7.13879 6.74665
#
# Compressibility (1/GPa) = 0.02030062
#
# Stress axis : x y z
#
# Youngs Moduli (GPa) = 34.72182 112.94877 101.92440
#
# Poissons Ratio (x) = 0.65529 0.77256
# Poissons Ratio (y) = 0.20144 0.02047
# Poissons Ratio (z) = 0.26318 0.02269
#
# Static dielectric constant tensor:
#      x y z
#    x 1.638810 0.000000 0.000000 
#    y 0.000000 1.702570 0.000000 
#    z 0.000000 0.000000 1.668810 
# 
# From -- ./inp_files/42777.got.cif
#   From: 2010.05.17/outbox.cif.g08.bks.cpg/sg22_22_cif.got.tgz:42777.got - 2010.06.03 23:40:54.
