data_PCOD9328356
_publ_section_title
;
Structure prediction by ZEFSAII (Michael W. Deem and Ramdas Pophale) SiO2 
 PCOD9328356
Probable space group: F 2 2 2
;
_chemical_formula_sum "Si O2"
_cell_formula_units_Z 68
_cell_length_a 7.887259
_cell_length_b 18.111322
_cell_length_c 21.190513
_cell_angle_alpha 90.000000
_cell_angle_beta 90.000000
_cell_angle_gamma 90.000000
_cell_volume 3027.036968
_symmetry_space_group_name_H-M "F 2 2 2"
_symmetry_group_IT_number 22
_symmetry_cell_setting 'orthorhombic'
loop_
_space_group_symop_operation_xyz
x,y,z
-x,-y,z
x,-y,-z
-x,y,-z
x,1/2+y,1/2+z
-x,1/2-y,1/2+z
x,1/2-y,1/2-z
-x,1/2+y,1/2-z
1/2+x,y,1/2+z
1/2-x,-y,1/2+z
1/2+x,-y,1/2-z
1/2-x,y,1/2-z
1/2+x,1/2+y,z
1/2-x,1/2-y,z
1/2+x,1/2-y,-z
1/2-x,1/2+y,-z
loop_
_atom_site_type_symbol
_atom_site_label
_atom_site_fract_x
_atom_site_fract_y
_atom_site_fract_z
Si Si1 0.746200 0.469021 0.889904
Si Si2 0.949297 0.887209 0.570424
Si Si3 0.426589 0.169674 0.721231
Si Si4 0.000000 0.500000 0.500000
Si Si5 0.750000 0.068498 0.750000
Si Si6 0.250000 0.250000 0.889998
O O1 0.824574 0.547634 0.908752
O O2 0.612242 0.455520 0.947329
O O3 0.720163 0.477102 0.814760
O O4 0.878945 0.401370 0.891090
O O5 0.870224 0.806845 0.574423
O O6 0.000000 0.905031 0.500000
O O7 0.460889 0.250000 0.750000
O O8 0.250000 0.140803 0.750000
O O9 0.582034 0.119490 0.742358
O O10 0.371468 0.194333 0.650650
#
# Coordination Sequence:
#
# PCOD9328356 Si02
#       6
#    16  16  16   4   8   8
#     4  11  25  46  76 107 151 196 252 318 380 455
#     4  11  23  51  72 102 146 197 249 312 377 453
#     4   9  20  42  66 102 152 189 227 306 383 448
#     4  12  24  46  72 108 156 208 240 314 392 454
#     4  12  25  42  74 115 142 188 262 310 376 467
#     4  10  23  44  74 102 146 197 246 304 388 458
#
# _framework density 22.464212
#
# number of rings (size 3 to 8) (size 9 to 14) (size 15 to 20)
#    0.000    1.647    2.353    3.882    3.294    1.882 
#   14.824    0.000    0.000    0.000    0.000    0.000 
#    0.000    0.000    0.000    0.000    0.000    0.000 
#
# Total GULP energy -94635.366680 kJ/mol
# GULP energy per Si atom -5566.786275 kJ/mol
# Density = 2.241308 g / cm^3
# Si number density = 22.464212 Si / 1000 Ang^3
#
#
#
# Elastic Constant Matrix: (Units=GPa)
#
#
# Indices 1 2 3 4 5 6 
#
# 1 119.2426 66.3021 48.6182 0.0000 0.0000 0.0000
# 2 66.3021 105.5496 50.6801 0.0000 0.0000 0.0000
# 3 48.6182 50.6801 165.3077 0.0000 0.0000 0.0000
# 4 0.0000 0.0000 0.0000 -79.7051 0.0000 0.0000
# 5 0.0000 0.0000 0.0000 0.0000 -9.7507 0.0000
# 6 0.0000 0.0000 0.0000 0.0000 0.0000 47.1681
#
#
#
# Elastic Compliance Matrix: (Units=1/GPa)
#
#
# Indices 1 2 3 4 5 6 
#
# 1 0.013228 -0.007553 -0.001575 0.000000 0.000000 0.000000
# 2 -0.007553 0.015423 -0.002507 0.000000 0.000000 0.000000
# 3 -0.001575 -0.002507 0.007281 0.000000 0.000000 0.000000
# 4 0.000000 0.000000 0.000000 -0.012546 0.000000 0.000000
# 5 0.000000 0.000000 0.000000 0.000000 -0.102557 0.000000
# 6 0.000000 0.000000 0.000000 0.000000 0.000000 0.021201
#
#
# Mechanical properties :
#
#
# Convention : Reuss Voigt Hill
#
# Bulk Modulus (GPa) = 78.97645 80.14452 79.56049
# Shear Modulus (GPa) = -164.04116 6.50910 -78.76603
#
# Velocity S-wave (km/s) = -8.55464 1.70406 -5.92782
# Velocity P-wave (km/s) = 7.89575 6.29490 3.37025
#
# Compressibility (1/GPa) = 0.01266200
#
# Stress axis : x y z
#
# Youngs Moduli (GPa) = 75.59623 64.84027 137.34352
#
# Poissons Ratio (x) = 0.48976 0.21629
# Poissons Ratio (y) = 0.57100 0.34429
# Poissons Ratio (z) = 0.11905 0.16254
#
# Static dielectric constant tensor:
#      x y z
#    x 1.942240 0.000000 0.000000 
#    y 0.000000 1.800890 0.000000 
#    z 0.000000 0.000000 1.895840 
# 
# From -- ./inp_files/34894.got.cif
#   From: 2010.05.17/outbox.cif.g08.bks.cpg/sg22_18_cif.got.tgz:34894.got - 2010.06.03 23:40:54.
