data_PCOD9328801
_publ_section_title
;
Structure prediction by ZEFSAII (Michael W. Deem and Ramdas Pophale) SiO2 
 PCOD9328801
Probable space group: F 2 2 2
;
_chemical_formula_sum "Si O2"
_cell_formula_units_Z 88
_cell_length_a 33.764533
_cell_length_b 10.941904
_cell_length_c 10.554392
_cell_angle_alpha 90.000000
_cell_angle_beta 90.000000
_cell_angle_gamma 90.000000
_cell_volume 3899.301957
_symmetry_space_group_name_H-M "F 2 2 2"
_symmetry_group_IT_number 22
_symmetry_cell_setting 'orthorhombic'
loop_
_space_group_symop_operation_xyz
x,y,z
-x,-y,z
x,-y,-z
-x,y,-z
x,1/2+y,1/2+z
-x,1/2-y,1/2+z
x,1/2-y,1/2-z
-x,1/2+y,1/2-z
1/2+x,y,1/2+z
1/2-x,-y,1/2+z
1/2+x,-y,1/2-z
1/2-x,y,1/2-z
1/2+x,1/2+y,z
1/2-x,1/2-y,z
1/2+x,1/2-y,-z
1/2-x,1/2+y,-z
loop_
_atom_site_type_symbol
_atom_site_label
_atom_site_fract_x
_atom_site_fract_y
_atom_site_fract_z
Si Si1 0.207273 0.061940 0.758225
Si Si2 0.000000 0.500000 0.793618
Si Si3 0.834836 0.000000 0.500000
Si Si4 0.211109 0.686262 0.613839
Si Si5 0.937008 0.891526 0.901387
Si Si6 0.500000 0.300554 0.500000
Si Si7 0.646491 0.767586 0.588226
O O1 0.250000 0.123048 0.750000
O O2 0.174436 0.154230 0.811894
O O3 0.192945 0.997343 0.626532
O O4 0.215865 0.955012 0.857418
O O5 0.036949 0.452283 0.710445
O O6 0.988223 0.387817 0.883908
O O7 0.858546 0.122062 0.452536
O O8 0.207213 0.750000 0.750000
O O9 0.250000 0.750000 0.552158
O O10 0.170925 0.697427 0.537289
O O11 0.964803 0.787962 0.960504
O O12 0.895624 0.824923 0.877867
O O13 0.929439 0.000000 0.000000
#
# Coordination Sequence:
#
# PCOD9328801 Si02
#       7
#    16   8   8  16  16   8  16
#     4  12  26  44  74 107 150 210 270 334 397 471
#     4  11  25  48  82 114 153 197 250 308 384 479
#     4  12  28  48  64 105 154 200 262 335 398 460
#     4  11  21  46  74 104 151 209 266 329 397 467
#     4  12  25  50  77 113 154 196 257 317 394 476
#     4  11  25  46  82 114 145 209 240 306 390 469
#     4  12  29  47  76 110 155 209 267 332 397 474
#
# _framework density 22.568142999999999
#
# number of rings (size 3 to 8) (size 9 to 14) (size 15 to 20)
#    0.000    0.364    5.455    2.727    5.091    6.545 
#    3.273    0.000    0.000    0.000    0.000    0.000 
#    0.000    0.000    0.000    0.000    0.000    0.000 
#
# Total GULP energy -122593.971888 kJ/mol
# GULP energy per Si atom -5572.453268 kJ/mol
# Density = 2.251678 g / cm^3
# Si number density = 22.568143 Si / 1000 Ang^3
#
#
#
# Elastic Constant Matrix: (Units=GPa)
#
#
# Indices 1 2 3 4 5 6 
#
# 1 207.3235 92.3516 56.1250 0.0000 0.0000 0.0000
# 2 92.3516 205.0166 61.4021 0.0000 0.0000 0.0000
# 3 56.1250 61.4021 115.6675 0.0000 0.0000 0.0000
# 4 0.0000 0.0000 0.0000 67.7463 0.0000 0.0000
# 5 0.0000 0.0000 0.0000 0.0000 -31.2248 0.0000
# 6 0.0000 0.0000 0.0000 0.0000 0.0000 156.4836
#
#
#
# Elastic Compliance Matrix: (Units=1/GPa)
#
#
# Indices 1 2 3 4 5 6 
#
# 1 0.006354 -0.002305 -0.001859 0.000000 0.000000 0.000000
# 2 -0.002305 0.006636 -0.002404 0.000000 0.000000 0.000000
# 3 -0.001859 -0.002404 0.010824 0.000000 0.000000 0.000000
# 4 0.000000 0.000000 0.000000 0.014761 0.000000 0.000000
# 5 0.000000 0.000000 0.000000 0.000000 -0.032026 0.000000
# 6 0.000000 0.000000 0.000000 0.000000 0.000000 0.006390
#
#
# Mechanical properties :
#
#
# Convention : Reuss Voigt Hill
#
# Bulk Modulus (GPa) = 93.66548 105.30720 99.48634
# Shear Modulus (GPa) = 168.71886 59.80961 114.26424
#
# Velocity S-wave (km/s) = 8.65575 5.15357 7.12325
# Velocity P-wave (km/s) = 11.89494 9.06508 10.57509
#
# Compressibility (1/GPa) = 0.01067629
#
# Stress axis : x y z
#
# Youngs Moduli (GPa) = 157.39306 150.69080 92.38822
#
# Poissons Ratio (x) = 0.34737 0.17177
# Poissons Ratio (y) = 0.36282 0.22212
# Poissons Ratio (z) = 0.29262 0.36230
#
# Static dielectric constant tensor:
#      x y z
#    x 1.710030 0.000000 0.000000 
#    y 0.000000 1.883200 0.000000 
#    z 0.000000 0.000000 1.957630 
# 
# From -- ./inp_files/25279.got.cif
#   From: 2010.05.17/outbox.cif.g08.bks.cpg/sg22_13_cif.got.tgz:25279.got - 2010.06.03 23:40:54.
