data_PCOD9328890
_publ_section_title
;
Structure prediction by ZEFSAII (Michael W. Deem and Ramdas Pophale) SiO2 
 PCOD9328890
Probable space group: F 2 2 2
;
_chemical_formula_sum "Si O2"
_cell_formula_units_Z 64
_cell_length_a 20.785737
_cell_length_b 12.751525
_cell_length_c 9.706736
_cell_angle_alpha 90.000000
_cell_angle_beta 90.000000
_cell_angle_gamma 90.000000
_cell_volume 2572.768872
_symmetry_space_group_name_H-M "F 2 2 2"
_symmetry_group_IT_number 22
_symmetry_cell_setting 'orthorhombic'
loop_
_space_group_symop_operation_xyz
x,y,z
-x,-y,z
x,-y,-z
-x,y,-z
x,1/2+y,1/2+z
-x,1/2-y,1/2+z
x,1/2-y,1/2-z
-x,1/2+y,1/2-z
1/2+x,y,1/2+z
1/2-x,-y,1/2+z
1/2+x,-y,1/2-z
1/2-x,y,1/2-z
1/2+x,1/2+y,z
1/2-x,1/2-y,z
1/2+x,1/2-y,-z
1/2-x,1/2+y,-z
loop_
_atom_site_type_symbol
_atom_site_label
_atom_site_fract_x
_atom_site_fract_y
_atom_site_fract_z
Si Si1 0.892256 0.616451 0.519021
Si Si2 0.072871 0.462456 0.798863
Si Si3 0.253251 0.097638 0.086323
Si Si4 0.887107 0.663949 0.067690
O O1 0.921931 0.500000 0.500000
O O2 0.900306 0.617062 0.683678
O O3 0.817706 0.609070 0.475482
O O4 0.917685 0.719800 0.440437
O O5 0.106595 0.577596 0.810575
O O6 0.000000 0.500000 0.780706
O O7 0.083050 0.398017 0.939108
O O8 0.250000 0.079457 0.250000
O O9 0.309949 0.181043 0.061443
O O10 0.280960 0.000000 0.000000
#
# Coordination Sequence:
#
# PCOD9328890 Si02
#       4
#    16  16  16  16
#     4  11  26  43  68 112 147 186 249 305 378 446
#     4  11  25  49  71 101 146 195 256 309 367 444
#     4  11  23  41  74 111 155 191 242 312 384 457
#     4  11  22  45  75 103 143 201 245 303 384 451
#
# _framework density 24.875921999999999
#
# number of rings (size 3 to 8) (size 9 to 14) (size 15 to 20)
#    0.000    1.000    2.500    6.000    0.000    5.500 
#   13.500    2.500    0.000    0.000    0.000    0.000 
#    0.000    0.000    0.000    0.000    0.000    0.000 
#
# Total GULP energy -89198.985375 kJ/mol
# GULP energy per Si atom -5574.936586 kJ/mol
# Density = 2.481930 g / cm^3
# Si number density = 24.875922 Si / 1000 Ang^3
#
#
#
# Elastic Constant Matrix: (Units=GPa)
#
#
# Indices 1 2 3 4 5 6 
#
# 1 143.5351 9.1466 42.4230 0.0000 0.0000 0.0000
# 2 9.1466 188.2425 19.3517 0.0000 0.0000 0.0000
# 3 42.4230 19.3517 98.0476 0.0000 0.0000 0.0000
# 4 0.0000 0.0000 0.0000 12.6842 0.0000 0.0000
# 5 0.0000 0.0000 0.0000 0.0000 37.0267 0.0000
# 6 0.0000 0.0000 0.0000 0.0000 0.0000 -0.7788
#
#
#
# Elastic Compliance Matrix: (Units=1/GPa)
#
#
# Indices 1 2 3 4 5 6 
#
# 1 0.007989 -0.000034 -0.003450 0.000000 0.000000 0.000000
# 2 -0.000034 0.005422 -0.001056 0.000000 0.000000 0.000000
# 3 -0.003450 -0.001056 0.011900 0.000000 0.000000 0.000000
# 4 0.000000 0.000000 0.000000 0.078838 0.000000 0.000000
# 5 0.000000 0.000000 0.000000 0.000000 0.027008 0.000000
# 6 0.000000 0.000000 0.000000 0.000000 0.000000 -1.283985
#
#
# Mechanical properties :
#
#
# Convention : Reuss Voigt Hill
#
# Bulk Modulus (GPa) = 61.60274 63.51864 62.56069
# Shear Modulus (GPa) = -4.39237 33.71335 14.66049
#
# Velocity S-wave (km/s) = -1.33024 3.68538 2.43028
# Velocity P-wave (km/s) = 4.73903 6.61052 5.75141
#
# Compressibility (1/GPa) = 0.01623304
#
# Stress axis : x y z
#
# Youngs Moduli (GPa) = 125.17639 184.41827 84.03221
#
# Poissons Ratio (x) = 0.00618 0.28990
# Poissons Ratio (y) = 0.00419 0.08872
# Poissons Ratio (z) = 0.43185 0.19470
#
# Static dielectric constant tensor:
#      x y z
#    x 2.042940 0.000000 0.000000 
#    y 0.000000 2.058080 0.000000 
#    z 0.000000 0.000000 2.157960 
# 
# From -- ./inp_files/13424.got.cif
#   From: 2010.05.17/outbox.cif.g08.bks.cpg/sg22_7_cif.got.tgz:13424.got - 2010.06.03 23:40:54.
