data_PCOD9328541
_publ_section_title
;
Structure prediction by ZEFSAII (Michael W. Deem and Ramdas Pophale) SiO2 
 PCOD9328541
Probable space group: F 2 2 2
;
_chemical_formula_sum "Si O2"
_cell_formula_units_Z 88
_cell_length_a 12.915331
_cell_length_b 21.090490
_cell_length_c 12.674492
_cell_angle_alpha 90.000000
_cell_angle_beta 90.000000
_cell_angle_gamma 90.000000
_cell_volume 3452.413232
_symmetry_space_group_name_H-M "F 2 2 2"
_symmetry_group_IT_number 22
_symmetry_cell_setting 'orthorhombic'
loop_
_space_group_symop_operation_xyz
x,y,z
-x,-y,z
x,-y,-z
-x,y,-z
x,1/2+y,1/2+z
-x,1/2-y,1/2+z
x,1/2-y,1/2-z
-x,1/2+y,1/2-z
1/2+x,y,1/2+z
1/2-x,-y,1/2+z
1/2+x,-y,1/2-z
1/2-x,y,1/2-z
1/2+x,1/2+y,z
1/2-x,1/2-y,z
1/2+x,1/2-y,-z
1/2-x,1/2+y,-z
loop_
_atom_site_type_symbol
_atom_site_label
_atom_site_fract_x
_atom_site_fract_y
_atom_site_fract_z
Si Si1 0.292398 0.487038 0.363158
Si Si2 0.000000 0.500000 0.777090
Si Si3 0.547295 0.258080 0.873933
Si Si4 0.380019 0.638745 0.532854
Si Si5 0.511890 0.889285 0.384448
Si Si6 0.717774 0.380638 0.129888
O O1 0.250000 0.468005 0.250000
O O2 0.402913 0.521314 0.345420
O O3 0.326510 0.424426 0.422555
O O4 0.217122 0.543584 0.400921
O O5 0.970948 0.441294 0.703208
O O6 0.503636 0.250000 0.750000
O O7 0.617687 0.195955 0.884489
O O8 0.588966 0.330191 0.877270
O O9 0.500000 0.254809 0.000000
O O10 0.500000 0.625361 0.500000
O O11 0.304451 0.655563 0.435950
O O12 0.500000 0.918565 0.500000
O O13 0.398984 0.856509 0.372815
O O14 0.750000 0.380518 0.250000
#
# Coordination Sequence:
#
# PCOD9328541 Si02
#       6
#    16   8  16  16  16  16
#     4  11  23  40  70 116 155 190 254 319 400 473
#     4  12  21  40  73 104 152 208 239 334 399 460
#     4  10  24  48  77 105 148 208 265 317 387 473
#     4  11  25  45  77 104 155 206 254 320 401 472
#     4  11  25  43  73 102 152 194 265 321 394 462
#     4  11  24  45  71 113 150 191 265 325 387 472
#
# _framework density 25.489417
#
# number of rings (size 3 to 8) (size 9 to 14) (size 15 to 20)
#    0.000    1.091    3.636    3.000    7.636    2.182 
#    0.000    8.182    0.000    0.000    0.000    0.000 
#    0.000    0.000    0.000    0.000    0.000    0.000 
#
# Total GULP energy -122580.256767 kJ/mol
# GULP energy per Si atom -5571.829853 kJ/mol
# Density = 2.543140 g / cm^3
# Si number density = 25.489417 Si / 1000 Ang^3
#
#
#
# Elastic Constant Matrix: (Units=GPa)
#
#
# Indices 1 2 3 4 5 6 
#
# 1 89.8762 -13.0528 29.0209 0.0000 0.0000 0.0000
# 2 -13.0528 98.9443 54.0516 0.0000 0.0000 0.0000
# 3 29.0209 54.0516 106.3624 0.0000 0.0000 0.0000
# 4 0.0000 0.0000 0.0000 42.0711 0.0000 0.0000
# 5 0.0000 0.0000 0.0000 0.0000 33.3741 0.0000
# 6 0.0000 0.0000 0.0000 0.0000 0.0000 0.4098
#
#
#
# Elastic Compliance Matrix: (Units=1/GPa)
#
#
# Indices 1 2 3 4 5 6 
#
# 1 0.014056 0.005467 -0.006613 0.000000 0.000000 0.000000
# 2 0.005467 0.016117 -0.009682 0.000000 0.000000 0.000000
# 3 -0.006613 -0.009682 0.016127 0.000000 0.000000 0.000000
# 4 0.000000 0.000000 0.000000 0.023769 0.000000 0.000000
# 5 0.000000 0.000000 0.000000 0.000000 0.029963 0.000000
# 6 0.000000 0.000000 0.000000 0.000000 0.000000 2.440125
#
#
# Mechanical properties :
#
#
# Convention : Reuss Voigt Hill
#
# Bulk Modulus (GPa) = 40.58015 48.35803 44.46909
# Shear Modulus (GPa) = 1.94550 30.18188 16.06369
#
# Velocity S-wave (km/s) = 0.87459 3.44480 2.51312
# Velocity P-wave (km/s) = 4.12005 5.90213 5.08970
#
# Compressibility (1/GPa) = 0.02464259
#
# Stress axis : x y z
#
# Youngs Moduli (GPa) = 71.14470 62.04596 62.00946
#
# Poissons Ratio (x) = -0.33921 0.41009
# Poissons Ratio (y) = -0.38895 0.60038
# Poissons Ratio (z) = 0.47051 0.60074
#
# Static dielectric constant tensor:
#      x y z
#    x 2.042740 0.000000 0.000000 
#    y 0.000000 2.050340 0.000000 
#    z 0.000000 0.000000 2.128990 
# 
# From -- ./inp_files/19976.got.cif
#   From: 2010.05.17/outbox.cif.g08.bks.cpg/sg22_10_cif.got.tgz:19976.got - 2010.06.03 23:40:54.
