data_PCOD9328672
_publ_section_title
;
Structure prediction by ZEFSAII (Michael W. Deem and Ramdas Pophale) SiO2 
 PCOD9328672
Probable space group: F 2 2 2
;
_chemical_formula_sum "Si O2"
_cell_formula_units_Z 92
_cell_length_a 20.012669
_cell_length_b 9.653694
_cell_length_c 24.694801
_cell_angle_alpha 90.000000
_cell_angle_beta 90.000000
_cell_angle_gamma 90.000000
_cell_volume 4770.941284
_symmetry_space_group_name_H-M "F 2 2 2"
_symmetry_group_IT_number 22
_symmetry_cell_setting 'orthorhombic'
loop_
_space_group_symop_operation_xyz
x,y,z
-x,-y,z
x,-y,-z
-x,y,-z
x,1/2+y,1/2+z
-x,1/2-y,1/2+z
x,1/2-y,1/2-z
-x,1/2+y,1/2-z
1/2+x,y,1/2+z
1/2-x,-y,1/2+z
1/2+x,-y,1/2-z
1/2-x,y,1/2-z
1/2+x,1/2+y,z
1/2-x,1/2-y,z
1/2+x,1/2-y,-z
1/2-x,1/2+y,-z
loop_
_atom_site_type_symbol
_atom_site_label
_atom_site_fract_x
_atom_site_fract_y
_atom_site_fract_z
Si Si1 0.250000 0.250000 0.521221
Si Si2 0.750000 0.250000 0.750000
Si Si3 0.816833 0.426148 0.655846
Si Si4 0.331013 0.769993 0.309891
Si Si5 0.380270 0.867192 0.539342
Si Si6 0.061854 0.085943 0.445069
Si Si7 0.816128 0.456934 0.107043
O O1 0.311982 0.193688 0.486982
O O2 0.219667 0.129550 0.559282
O O3 0.800036 0.334123 0.709126
O O4 0.845281 0.574614 0.673513
O O5 0.860424 0.389865 0.602589
O O6 0.742126 0.457734 0.634972
O O7 0.357664 0.750000 0.250000
O O8 0.250000 0.750000 0.308287
O O9 0.350269 0.656050 0.353740
O O10 0.437696 0.748389 0.540464
O O11 0.396222 0.000000 0.500000
O O12 0.072733 0.000000 0.500000
O O13 0.127919 0.061558 0.411209
O O14 0.000000 0.000000 0.419824
#
# Coordination Sequence:
#
# PCOD9328672 Si02
#       7
#     8   4  16  16  16  16  16
#     4  12  19  32  57  93 124 155 194 242 306 384
#     4  12  22  32  46  84 148 166 196 244 320 394
#     4  11  21  33  54  92 129 161 199 255 319 371
#     4   9  17  31  54  84 121 155 195 241 308 377
#     4  12  23  37  61  93 128 166 204 261 314 377
#     4  11  25  41  58  83 120 168 209 243 299 372
#     4  11  18  36  58  86 121 155 201 250 300 369
#
# _framework density 19.283404999999998
#
# number of rings (size 3 to 8) (size 9 to 14) (size 15 to 20)
#    0.000    1.043    6.087    4.696    0.000    0.000 
#    0.000    1.739    0.000    0.000   13.565    0.000 
#    0.000    0.000    0.000    0.000    0.000    0.000 
#
# Total GULP energy -128141.205753 kJ/mol
# GULP energy per Si atom -5571.356772 kJ/mol
# Density = 1.923952 g / cm^3
# Si number density = 19.283405 Si / 1000 Ang^3
#
#
#
# Elastic Constant Matrix: (Units=GPa)
#
#
# Indices 1 2 3 4 5 6 
#
# 1 45.5934 33.8989 14.6199 0.0000 0.0000 0.0000
# 2 33.8989 128.2085 59.1322 0.0000 0.0000 0.0000
# 3 14.6199 59.1322 117.6246 0.0000 0.0000 0.0000
# 4 0.0000 0.0000 0.0000 42.6969 0.0000 0.0000
# 5 0.0000 0.0000 0.0000 0.0000 6.6460 0.0000
# 6 0.0000 0.0000 0.0000 0.0000 0.0000 -2.4743
#
#
#
# Elastic Compliance Matrix: (Units=1/GPa)
#
#
# Indices 1 2 3 4 5 6 
#
# 1 0.027308 -0.007362 0.000307 0.000000 0.000000 0.000000
# 2 -0.007362 0.012139 -0.005187 0.000000 0.000000 0.000000
# 3 0.000307 -0.005187 0.011071 0.000000 0.000000 0.000000
# 4 0.000000 0.000000 0.000000 0.023421 0.000000 0.000000
# 5 0.000000 0.000000 0.000000 0.000000 0.150467 0.000000
# 6 0.000000 0.000000 0.000000 0.000000 0.000000 -0.404161
#
#
# Mechanical properties :
#
#
# Convention : Reuss Voigt Hill
#
# Bulk Modulus (GPa) = 38.41234 56.30315 47.35775
# Shear Modulus (GPa) = -34.10837 21.62542 -6.24147
#
# Velocity S-wave (km/s) = -4.21027 3.35244 -1.80104
# Velocity P-wave (km/s) = 1.91624 6.65179 4.50413
#
# Compressibility (1/GPa) = 0.02603330
#
# Stress axis : x y z
#
# Youngs Moduli (GPa) = 36.61897 82.38025 90.32361
#
# Poissons Ratio (x) = 0.60647 -0.02771
# Poissons Ratio (y) = 0.26958 0.46854
# Poissons Ratio (z) = -0.01123 0.42734
#
# Static dielectric constant tensor:
#      x y z
#    x 1.711310 0.000000 0.000000 
#    y 0.000000 1.763380 0.000000 
#    z 0.000000 0.000000 1.760170 
# 
# From -- ./inp_files/49846.got.cif
#   From: 2010.05.17/outbox.cif.g08.bks.cpg/sg22_25_cif.got.tgz:49846.got - 2010.06.03 23:40:54.
