data_PCOD9328611
_publ_section_title
;
Structure prediction by ZEFSAII (Michael W. Deem and Ramdas Pophale) SiO2 
 PCOD9328611
Probable space group: F 2 2 2
;
_chemical_formula_sum "Si O2"
_cell_formula_units_Z 80
_cell_length_a 5.226661
_cell_length_b 23.774553
_cell_length_c 27.603542
_cell_angle_alpha 90.000000
_cell_angle_beta 90.000000
_cell_angle_gamma 90.000000
_cell_volume 3430.058334
_symmetry_space_group_name_H-M "F 2 2 2"
_symmetry_group_IT_number 22
_symmetry_cell_setting 'orthorhombic'
loop_
_space_group_symop_operation_xyz
x,y,z
-x,-y,z
x,-y,-z
-x,y,-z
x,1/2+y,1/2+z
-x,1/2-y,1/2+z
x,1/2-y,1/2-z
-x,1/2+y,1/2-z
1/2+x,y,1/2+z
1/2-x,-y,1/2+z
1/2+x,-y,1/2-z
1/2-x,y,1/2-z
1/2+x,1/2+y,z
1/2-x,1/2-y,z
1/2+x,1/2-y,-z
1/2-x,1/2+y,-z
loop_
_atom_site_type_symbol
_atom_site_label
_atom_site_fract_x
_atom_site_fract_y
_atom_site_fract_z
Si Si1 0.609686 0.308973 0.193691
Si Si2 0.636464 0.191743 0.045365
Si Si3 0.690977 0.106117 0.385305
Si Si4 0.831053 0.944293 0.350571
Si Si5 0.250000 0.750000 0.879848
Si Si6 0.250000 0.877531 0.750000
O O1 0.750000 0.250000 0.198057
O O2 0.740915 0.358231 0.163770
O O3 0.380696 0.293990 0.156211
O O4 0.485795 0.335247 0.241201
O O5 0.750000 0.250000 0.025333
O O6 0.839082 0.150666 0.071161
O O7 0.448252 0.215542 0.087163
O O8 0.500000 0.163320 0.000000
O O9 0.453203 0.064515 0.374584
O O10 0.971308 0.079549 0.390804
O O11 0.787104 0.914229 0.298275
O O12 0.000000 0.000000 0.337586
#
# Coordination Sequence:
#
# PCOD9328611 Si02
#       6
#    16  16  16  16   8   8
#     4  11  23  40  60  88 142 192 231 279 340 432
#     4  12  23  36  66 106 149 190 229 286 339 439
#     4  11  23  45  69  97 138 186 236 285 373 429
#     4  11  26  48  72  95 131 183 246 322 369 413
#     4  12  20  41  56  90 148 194 240 257 342 420
#     4  10  26  43  60  98 132 184 255 302 358 408
#
# _framework density 23.323218000000001
#
# number of rings (size 3 to 8) (size 9 to 14) (size 15 to 20)
#    0.000    0.800    5.000    3.000    0.000    6.800 
#    3.600    0.000    0.000    0.600    0.000    5.600 
#    0.000    0.000    0.000    0.000    0.000    0.000 
#
# Total GULP energy -111586.316540 kJ/mol
# GULP energy per Si atom -5579.315827 kJ/mol
# Density = 2.327013 g / cm^3
# Si number density = 23.323218 Si / 1000 Ang^3
#
#
#
# Elastic Constant Matrix: (Units=GPa)
#
#
# Indices 1 2 3 4 5 6 
#
# 1 121.0542 37.8817 23.7050 0.0000 0.0000 0.0000
# 2 37.8817 103.6316 19.4456 0.0000 0.0000 0.0000
# 3 23.7050 19.4456 80.1760 0.0000 0.0000 0.0000
# 4 0.0000 0.0000 0.0000 13.2436 0.0000 0.0000
# 5 0.0000 0.0000 0.0000 0.0000 47.7276 0.0000
# 6 0.0000 0.0000 0.0000 0.0000 0.0000 40.4223
#
#
#
# Elastic Compliance Matrix: (Units=1/GPa)
#
#
# Indices 1 2 3 4 5 6 
#
# 1 0.009652 -0.003135 -0.002093 0.000000 0.000000 0.000000
# 2 -0.003135 0.011128 -0.001772 0.000000 0.000000 0.000000
# 3 -0.002093 -0.001772 0.013521 0.000000 0.000000 0.000000
# 4 0.000000 0.000000 0.000000 0.075508 0.000000 0.000000
# 5 0.000000 0.000000 0.000000 0.000000 0.020952 0.000000
# 6 0.000000 0.000000 0.000000 0.000000 0.000000 0.024739
#
#
# Mechanical properties :
#
#
# Convention : Reuss Voigt Hill
#
# Bulk Modulus (GPa) = 49.26096 51.88071 50.57084
# Shear Modulus (GPa) = 28.36581 35.20067 31.78324
#
# Velocity S-wave (km/s) = 3.49120 3.88913 3.69552
# Velocity P-wave (km/s) = 6.11704 6.51610 6.31972
#
# Compressibility (1/GPa) = 0.02030005
#
# Stress axis : x y z
#
# Youngs Moduli (GPa) = 103.60741 89.86204 73.95781
#
# Poissons Ratio (x) = 0.28175 0.15481
# Poissons Ratio (y) = 0.32485 0.13105
# Poissons Ratio (z) = 0.21687 0.15923
#
# Static dielectric constant tensor:
#      x y z
#    x 2.027570 0.000000 0.000000 
#    y 0.000000 2.059360 0.000000 
#    z 0.000000 0.000000 1.853160 
# 
# From -- ./inp_files/54964.got.cif
#   From: 2010.05.17/outbox.cif.g08.bks.cpg/sg22_28_cif.got.tgz:54964.got - 2010.06.03 23:40:54.
