data_PCOD9328691
_publ_section_title
;
Structure prediction by ZEFSAII (Michael W. Deem and Ramdas Pophale) SiO2 
 PCOD9328691
Probable space group: F 2 2 2
;
_chemical_formula_sum "Si O2"
_cell_formula_units_Z 116
_cell_length_a 16.916523
_cell_length_b 14.308887
_cell_length_c 25.342389
_cell_angle_alpha 90.000000
_cell_angle_beta 90.000000
_cell_angle_gamma 90.000000
_cell_volume 6134.292924
_symmetry_space_group_name_H-M "F 2 2 2"
_symmetry_group_IT_number 22
_symmetry_cell_setting 'orthorhombic'
loop_
_space_group_symop_operation_xyz
x,y,z
-x,-y,z
x,-y,-z
-x,y,-z
x,1/2+y,1/2+z
-x,1/2-y,1/2+z
x,1/2-y,1/2-z
-x,1/2+y,1/2-z
1/2+x,y,1/2+z
1/2-x,-y,1/2+z
1/2+x,-y,1/2-z
1/2-x,y,1/2-z
1/2+x,1/2+y,z
1/2-x,1/2-y,z
1/2+x,1/2-y,-z
1/2-x,1/2+y,-z
loop_
_atom_site_type_symbol
_atom_site_label
_atom_site_fract_x
_atom_site_fract_y
_atom_site_fract_z
Si Si1 0.703430 0.436699 0.450793
Si Si2 0.657439 0.854565 0.240842
Si Si3 0.878042 0.107812 0.078886
Si Si4 0.141690 0.311799 0.413562
Si Si5 0.000000 0.000000 0.000000
Si Si6 0.411434 0.769854 0.019827
Si Si7 0.415824 0.538514 0.837682
Si Si8 0.317455 0.388736 0.379381
O O1 0.727043 0.500000 0.500000
O O2 0.785030 0.388834 0.434434
O O3 0.639802 0.362067 0.471206
O O4 0.672209 0.512011 0.407936
O O5 0.622375 0.750000 0.250000
O O6 0.750000 0.844186 0.250000
O O7 0.625789 0.921492 0.286264
O O8 0.656830 0.893269 0.181504
O O9 0.910148 0.212686 0.074449
O O10 0.877529 0.049125 0.132567
O O11 0.939012 0.053695 0.039189
O O12 0.128132 0.301004 0.476181
O O13 0.082429 0.378680 0.381805
O O14 0.226558 0.355193 0.394215
O O15 0.135657 0.203096 0.398348
O O16 0.500000 0.788344 0.000000
O O17 0.500000 0.500000 0.822103
#
# Coordination Sequence:
#
# PCOD9328691 Si02
#       8
#    16  16  16  16   4  16  16  16
#     4  12  23  39  62  92 129 178 222 261 325 411
#     4  11  19  39  67  97 121 157 212 278 334 382
#     4  12  22  39  61  98 130 168 216 273 336 393
#     4  11  20  39  64  97 124 165 210 275 332 384
#     4  12  20  36  68  88 136 160 204 284 346 376
#     4  12  26  40  59  89 138 183 221 264 320 397
#     4  12  23  37  65  98 133 164 207 272 343 387
#     4  11  21  38  67  96 125 159 219 278 324 390
#
# _framework density 18.910084999999999
#
# number of rings (size 3 to 8) (size 9 to 14) (size 15 to 20)
#    0.000    0.414    7.586    3.724    1.931    0.276 
#    0.000    1.379    0.000    0.000    0.000    2.897 
#    0.000    0.000    0.000    0.000    0.000    0.000 
#
# Total GULP energy -161614.016663 kJ/mol
# GULP energy per Si atom -5572.897126 kJ/mol
# Density = 1.886704 g / cm^3
# Si number density = 18.910085 Si / 1000 Ang^3
#
#
#
# Elastic Constant Matrix: (Units=GPa)
#
#
# Indices 1 2 3 4 5 6 
#
# 1 93.2053 55.3162 29.2285 0.0000 0.0000 0.0000
# 2 55.3162 77.3808 38.7070 0.0000 0.0000 0.0000
# 3 29.2285 38.7070 114.3894 0.0000 0.0000 0.0000
# 4 0.0000 0.0000 0.0000 17.1657 0.0000 0.0000
# 5 0.0000 0.0000 0.0000 0.0000 17.3695 0.0000
# 6 0.0000 0.0000 0.0000 0.0000 0.0000 -53.9302
#
#
#
# Elastic Compliance Matrix: (Units=1/GPa)
#
#
# Indices 1 2 3 4 5 6 
#
# 1 0.018644 -0.013175 -0.000306 0.000000 0.000000 0.000000
# 2 -0.013175 0.024866 -0.005048 0.000000 0.000000 0.000000
# 3 -0.000306 -0.005048 0.010528 0.000000 0.000000 0.000000
# 4 0.000000 0.000000 0.000000 0.058256 0.000000 0.000000
# 5 0.000000 0.000000 0.000000 0.000000 0.057572 0.000000
# 6 0.000000 0.000000 0.000000 0.000000 0.000000 -0.018542
#
#
# Mechanical properties :
#
#
# Convention : Reuss Voigt Hill
#
# Bulk Modulus (GPa) = 58.88713 59.05322 58.97017
# Shear Modulus (GPa) = 25.76770 6.90258 16.33514
#
# Velocity S-wave (km/s) = 3.69540 1.91263 2.94229
# Velocity P-wave (km/s) = 7.02967 6.01446 6.54179
#
# Compressibility (1/GPa) = 0.01698164
#
# Stress axis : x y z
#
# Youngs Moduli (GPa) = 53.63653 40.21517 94.98237
#
# Poissons Ratio (x) = 0.52983 0.02904
# Poissons Ratio (y) = 0.70665 0.47945
# Poissons Ratio (z) = 0.01640 0.20300
#
# Static dielectric constant tensor:
#      x y z
#    x 1.697490 0.000000 0.000000 
#    y 0.000000 1.681740 0.000000 
#    z 0.000000 0.000000 1.945800 
# 
# From -- ./inp_files/32649.got.cif
#   From: 2010.05.17/outbox.cif.g08.bks.cpg/sg22_17_cif.got.tgz:32649.got - 2010.06.03 23:40:54.
