data_PCOD9328046
_publ_section_title
;
Structure prediction by ZEFSAII (Michael W. Deem and Ramdas Pophale) SiO2 
 PCOD9328046
Probable space group: F 2 2 2
;
_chemical_formula_sum "Si O2"
_cell_formula_units_Z 76
_cell_length_a 21.736663
_cell_length_b 17.506437
_cell_length_c 9.582761
_cell_angle_alpha 90.000000
_cell_angle_beta 90.000000
_cell_angle_gamma 90.000000
_cell_volume 3646.542623
_symmetry_space_group_name_H-M "F 2 2 2"
_symmetry_group_IT_number 22
_symmetry_cell_setting 'orthorhombic'
loop_
_space_group_symop_operation_xyz
x,y,z
-x,-y,z
x,-y,-z
-x,y,-z
x,1/2+y,1/2+z
-x,1/2-y,1/2+z
x,1/2-y,1/2-z
-x,1/2+y,1/2-z
1/2+x,y,1/2+z
1/2-x,-y,1/2+z
1/2+x,-y,1/2-z
1/2-x,y,1/2-z
1/2+x,1/2+y,z
1/2-x,1/2-y,z
1/2+x,1/2-y,-z
1/2-x,1/2+y,-z
loop_
_atom_site_type_symbol
_atom_site_label
_atom_site_fract_x
_atom_site_fract_y
_atom_site_fract_z
Si Si1 0.164894 0.623066 0.355448
Si Si2 0.500000 0.500000 0.500000
Si Si3 0.862180 0.777688 0.512541
Si Si4 0.556645 0.750000 0.250000
Si Si5 0.452300 0.627414 0.292248
Si Si6 0.212541 0.417026 0.955507
O O1 0.171009 0.711173 0.401473
O O2 0.091881 0.607352 0.339100
O O3 0.190096 0.601799 0.201762
O O4 0.213410 0.583042 0.457666
O O5 0.463788 0.555905 0.394193
O O6 0.899919 0.745030 0.383819
O O7 0.912642 0.813486 0.615852
O O8 0.817229 0.845827 0.463457
O O9 0.513792 0.674308 0.256956
O O10 0.189549 0.500000 0.000000
#
# Coordination Sequence:
#
# PCOD9328046 Si02
#       6
#    16   4  16   8  16  16
#     4  10  22  42  67  92 130 178 227 275 334 402
#     4  12  24  40  64  98 136 170 232 268 358 410
#     4  11  22  40  69  97 133 179 232 276 341 403
#     4  12  22  40  65 107 136 174 232 284 324 412
#     4  11  22  39  68  96 131 180 224 278 338 411
#     4  10  22  43  69  99 130 172 230 282 341 407
#
# _framework density 20.841660999999998
#
# number of rings (size 3 to 8) (size 9 to 14) (size 15 to 20)
#    0.000    1.263    4.211    2.526    5.895    3.368 
#   11.368    1.053    0.000    0.000    0.000    0.000 
#    0.000    0.000    0.000    0.000    0.000    0.000 
#
# Total GULP energy -105898.629323 kJ/mol
# GULP energy per Si atom -5573.612070 kJ/mol
# Density = 2.079422 g / cm^3
# Si number density = 20.841661 Si / 1000 Ang^3
#
#
#
# Elastic Constant Matrix: (Units=GPa)
#
#
# Indices 1 2 3 4 5 6 
#
# 1 74.2486 54.4132 46.5915 0.0000 0.0000 0.0000
# 2 54.4132 163.1178 44.6856 0.0000 0.0000 0.0000
# 3 46.5915 44.6856 49.7178 0.0000 0.0000 0.0000
# 4 0.0000 0.0000 0.0000 16.8920 0.0000 0.0000
# 5 0.0000 0.0000 0.0000 0.0000 14.1174 0.0000
# 6 0.0000 0.0000 0.0000 0.0000 0.0000 33.6935
#
#
#
# Elastic Compliance Matrix: (Units=1/GPa)
#
#
# Indices 1 2 3 4 5 6 
#
# 1 0.034120 -0.003479 -0.028847 0.000000 0.000000 0.000000
# 2 -0.003479 0.008488 -0.004368 0.000000 0.000000 0.000000
# 3 -0.028847 -0.004368 0.051073 0.000000 0.000000 0.000000
# 4 0.000000 0.000000 0.000000 0.059200 0.000000 0.000000
# 5 0.000000 0.000000 0.000000 0.000000 0.070835 0.000000
# 6 0.000000 0.000000 0.000000 0.000000 0.000000 0.029679
#
#
# Mechanical properties :
#
#
# Convention : Reuss Voigt Hill
#
# Bulk Modulus (GPa) = 49.28272 64.27389 56.77831
# Shear Modulus (GPa) = 14.99035 22.36685 18.67860
#
# Velocity S-wave (km/s) = 2.68479 3.27950 2.99693
# Velocity P-wave (km/s) = 5.77134 6.72653 6.26716
#
# Compressibility (1/GPa) = 0.02029109
#
# Stress axis : x y z
#
# Youngs Moduli (GPa) = 29.30836 117.81602 19.57973
#
# Poissons Ratio (x) = 0.40990 0.56483
# Poissons Ratio (y) = 0.10197 0.08553
# Poissons Ratio (z) = 0.84547 0.51466
#
# Static dielectric constant tensor:
#      x y z
#    x 1.846870 0.000000 0.000000 
#    y 0.000000 1.768420 0.000000 
#    z 0.000000 0.000000 1.750570 
# 
# From -- ./inp_files/23566.got.cif
#   From: 2010.05.17/outbox.cif.g08.bks.cpg/sg22_12_cif.got.tgz:23566.got - 2010.06.03 23:40:54.
