data_PCOD9328770
_publ_section_title
;
Structure prediction by ZEFSAII (Michael W. Deem and Ramdas Pophale) SiO2 
 PCOD9328770
Probable space group: F 2 2 2
;
_chemical_formula_sum "Si O2"
_cell_formula_units_Z 80
_cell_length_a 10.032885
_cell_length_b 15.400725
_cell_length_c 26.573514
_cell_angle_alpha 90.000000
_cell_angle_beta 90.000000
_cell_angle_gamma 90.000000
_cell_volume 4105.972046
_symmetry_space_group_name_H-M "F 2 2 2"
_symmetry_group_IT_number 22
_symmetry_cell_setting 'orthorhombic'
loop_
_space_group_symop_operation_xyz
x,y,z
-x,-y,z
x,-y,-z
-x,y,-z
x,1/2+y,1/2+z
-x,1/2-y,1/2+z
x,1/2-y,1/2-z
-x,1/2+y,1/2-z
1/2+x,y,1/2+z
1/2-x,-y,1/2+z
1/2+x,-y,1/2-z
1/2-x,y,1/2-z
1/2+x,1/2+y,z
1/2-x,1/2-y,z
1/2+x,1/2-y,-z
1/2-x,1/2+y,-z
loop_
_atom_site_type_symbol
_atom_site_label
_atom_site_fract_x
_atom_site_fract_y
_atom_site_fract_z
Si Si1 0.034077 0.096451 0.882705
Si Si2 0.226739 0.146920 0.061123
Si Si3 0.089277 0.249434 0.690753
Si Si4 0.719084 0.853752 0.947428
Si Si5 0.521358 0.900604 0.120843
O O1 0.922976 0.125162 0.923166
O O2 0.035671 0.165839 0.837943
O O3 0.175572 0.100245 0.910806
O O4 0.000000 0.000000 0.865334
O O5 0.250000 0.250000 0.061543
O O6 0.328091 0.109468 0.102085
O O7 0.260144 0.117028 0.004693
O O8 0.061978 0.250000 0.750000
O O9 0.250000 0.250000 0.683658
O O10 0.023550 0.166299 0.663899
O O11 0.750000 0.750000 0.944630
O O12 0.573180 0.874670 0.926451
O O13 0.500000 0.000000 0.135535
#
# Coordination Sequence:
#
# PCOD9328770 Si02
#       5
#    16  16  16  16  16
#     4  12  23  40  65  94 127 162 208 257 309 369
#     4  11  23  37  63  95 131 168 203 254 310 356
#     4  11  24  47  70  88 119 164 213 261 318 380
#     4  11  21  41  63  89 131 178 211 236 294 386
#     4  12  23  40  65  94 127 162 208 257 309 369
#
# _framework density 19.483816000000001
#
# number of rings (size 3 to 8) (size 9 to 14) (size 15 to 20)
#    0.000    0.600    6.000    2.400    0.000    8.800 
#    0.000    2.000    0.000    0.000    0.000    0.000 
#    0.000    0.000    0.000    0.000    0.000    0.000 
#
# Total GULP energy -111897.710985 kJ/mol
# GULP energy per Si atom -5594.885549 kJ/mol
# Density = 1.943947 g / cm^3
# Si number density = 19.483816 Si / 1000 Ang^3
#
#
#
# Elastic Constant Matrix: (Units=GPa)
#
#
# Indices 1 2 3 4 5 6 
#
# 1 34.8580 -14.5703 -4.6833 0.0000 0.0000 0.0000
# 2 -14.5703 137.7219 37.8916 0.0000 0.0000 0.0000
# 3 -4.6833 37.8916 121.5669 0.0000 0.0000 0.0000
# 4 0.0000 0.0000 0.0000 -4.0281 0.0000 0.0000
# 5 0.0000 0.0000 0.0000 0.0000 138.5564 0.0000
# 6 0.0000 0.0000 0.0000 0.0000 0.0000 29.7450
#
#
#
# Elastic Compliance Matrix: (Units=1/GPa)
#
#
# Indices 1 2 3 4 5 6 
#
# 1 0.030019 0.003126 0.000182 0.000000 0.000000 0.000000
# 2 0.003126 0.008268 -0.002457 0.000000 0.000000 0.000000
# 3 0.000182 -0.002457 0.008999 0.000000 0.000000 0.000000
# 4 0.000000 0.000000 0.000000 -0.248256 0.000000 0.000000
# 5 0.000000 0.000000 0.000000 0.000000 0.007217 0.000000
# 6 0.000000 0.000000 0.000000 0.000000 0.000000 0.033619
#
#
# Mechanical properties :
#
#
# Convention : Reuss Voigt Hill
#
# Bulk Modulus (GPa) = 20.41325 36.82476 28.61900
# Shear Modulus (GPa) = -34.36223 51.22193 8.42985
#
# Velocity S-wave (km/s) = -4.20411 5.13289 2.08230
# Velocity P-wave (km/s) = 3.61474 7.35323 4.52789
#
# Compressibility (1/GPa) = 0.04898780
#
# Stress axis : x y z
#
# Youngs Moduli (GPa) = 33.31242 120.95465 111.12806
#
# Poissons Ratio (x) = -0.37807 -0.02025
# Poissons Ratio (y) = -0.10413 0.27299
# Poissons Ratio (z) = -0.00607 0.29713
#
# Static dielectric constant tensor:
#      x y z
#    x 1.664420 0.000000 0.000000 
#    y 0.000000 1.527410 0.000000 
#    z 0.000000 0.000000 1.648860 
# 
# From -- ./inp_files/47945.got.cif
#   From: 2010.05.17/outbox.cif.g08.bks.cpg/sg22_24_cif.got.tgz:47945.got - 2010.06.03 23:40:54.
