data_PCOD9328508
_publ_section_title
;
Structure prediction by ZEFSAII (Michael W. Deem and Ramdas Pophale) SiO2 
 PCOD9328508
Probable space group: F 2 2 2
;
_chemical_formula_sum "Si O2"
_cell_formula_units_Z 60
_cell_length_a 17.381378
_cell_length_b 5.209120
_cell_length_c 27.226246
_cell_angle_alpha 90.000000
_cell_angle_beta 90.000000
_cell_angle_gamma 90.000000
_cell_volume 2465.110156
_symmetry_space_group_name_H-M "F 2 2 2"
_symmetry_group_IT_number 22
_symmetry_cell_setting 'orthorhombic'
loop_
_space_group_symop_operation_xyz
x,y,z
-x,-y,z
x,-y,-z
-x,y,-z
x,1/2+y,1/2+z
-x,1/2-y,1/2+z
x,1/2-y,1/2-z
-x,1/2+y,1/2-z
1/2+x,y,1/2+z
1/2-x,-y,1/2+z
1/2+x,-y,1/2-z
1/2-x,y,1/2-z
1/2+x,1/2+y,z
1/2-x,1/2-y,z
1/2+x,1/2-y,-z
1/2-x,1/2+y,-z
loop_
_atom_site_type_symbol
_atom_site_label
_atom_site_fract_x
_atom_site_fract_y
_atom_site_fract_z
Si Si1 0.250000 0.250000 0.908965
Si Si2 0.000000 0.500000 0.612268
Si Si3 0.250000 0.750000 0.750000
Si Si4 0.553125 0.250000 0.250000
Si Si5 0.642922 0.514557 0.829299
Si Si6 0.898177 0.762423 0.532476
O O1 0.296601 0.434888 0.872493
O O2 0.182613 0.349449 0.943682
O O3 0.931635 0.383945 0.645751
O O4 0.956533 0.696889 0.576498
O O5 0.308099 0.607826 0.786228
O O6 0.500000 0.500000 0.248388
O O7 0.604612 0.246556 0.200329
O O8 0.890468 0.500000 0.500000
O O9 0.922338 0.000000 0.500000
#
# Coordination Sequence:
#
# PCOD9328508 Si02
#       6
#     8   8   4   8  16  16
#     4  10  24  45  75 108 150 194 255 305 370 460
#     4  10  25  46  74 110 150 190 258 314 367 452
#     4  12  26  46  82 108 168 204 254 310 382 458
#     4  12  25  47  76 110 154 204 250 310 377 441
#     4  11  24  47  71 118 149 206 250 312 371 444
#     4  11  25  49  75 109 149 195 245 310 386 442
#
# _framework density 24.339680999999999
#
# number of rings (size 3 to 8) (size 9 to 14) (size 15 to 20)
#    0.000    1.067    1.333    3.600    0.000    6.400 
#    9.600    0.000    0.000    1.600    0.000    0.000 
#    0.000    0.000    0.000    0.000    0.000    0.000 
#
# Total GULP energy -83876.301458 kJ/mol
# GULP energy per Si atom -5591.753431 kJ/mol
# Density = 2.428428 g / cm^3
# Si number density = 24.339681 Si / 1000 Ang^3
#
#
#
# Elastic Constant Matrix: (Units=GPa)
#
#
# Indices 1 2 3 4 5 6 
#
# 1 231.5782 53.4827 101.1760 0.0000 0.0000 0.0000
# 2 53.4827 94.2321 49.8315 0.0001 -0.0003 -0.0011
# 3 101.1760 49.8315 164.8047 0.0000 0.0001 0.0003
# 4 0.0000 0.0001 0.0000 3.9315 -0.0001 -0.0001
# 5 0.0000 -0.0003 0.0001 -0.0001 57.2005 0.0004
# 6 0.0000 -0.0011 0.0003 -0.0001 0.0004 24.0701
#
#
#
# Elastic Compliance Matrix: (Units=1/GPa)
#
#
# Indices 1 2 3 4 5 6 
#
# 1 0.006141 -0.001776 -0.003233 0.000000 0.000000 0.000000
# 2 -0.001776 0.013145 -0.002885 0.000000 0.000000 0.000001
# 3 -0.003233 -0.002885 0.008925 0.000000 0.000000 0.000000
# 4 0.000000 0.000000 0.000000 0.254353 0.000000 0.000001
# 5 0.000000 0.000000 0.000000 0.000000 0.017482 0.000000
# 6 0.000000 0.000001 0.000000 0.000001 0.000000 0.041545
#
#
# Mechanical properties :
#
#
# Convention : Reuss Voigt Hill
#
# Bulk Modulus (GPa) = 80.48709 99.95505 90.22107
# Shear Modulus (GPa) = 13.83050 36.11542 24.97296
#
# Velocity S-wave (km/s) = 2.38634 3.85620 3.20663
# Velocity P-wave (km/s) = 6.38223 7.80916 7.13147
#
# Compressibility (1/GPa) = 0.01242435
#
# Stress axis : x y z
#
# Youngs Moduli (GPa) = 162.84614 76.07280 112.04726
#
# Poissons Ratio (x) = 0.13507 0.36225
# Poissons Ratio (y) = 0.28915 0.32322
# Poissons Ratio (z) = 0.52649 0.21944
#
# Static dielectric constant tensor:
#      x y z
#    x 1.958330 0.000000 0.000000 
#    y 0.000000 1.946800 0.000000 
#    z 0.000000 0.000000 1.748360 
# 
# From -- ./inp_files/53384.got.cif
#   From: 2010.05.17/outbox.cif.g08.bks.cpg/sg22_27_cif.got.tgz:53384.got - 2010.06.03 23:40:54.
