data_PCOD9328873
_publ_section_title
;
Structure prediction by ZEFSAII (Michael W. Deem and Ramdas Pophale) SiO2 
 PCOD9328873
Probable space group: F 2 2 2
;
_chemical_formula_sum "Si O2"
_cell_formula_units_Z 72
_cell_length_a 11.487659
_cell_length_b 10.927229
_cell_length_c 25.777596
_cell_angle_alpha 90.000000
_cell_angle_beta 90.000000
_cell_angle_gamma 90.000000
_cell_volume 3235.817303
_symmetry_space_group_name_H-M "F 2 2 2"
_symmetry_group_IT_number 22
_symmetry_cell_setting 'orthorhombic'
loop_
_space_group_symop_operation_xyz
x,y,z
-x,-y,z
x,-y,-z
-x,y,-z
x,1/2+y,1/2+z
-x,1/2-y,1/2+z
x,1/2-y,1/2-z
-x,1/2+y,1/2-z
1/2+x,y,1/2+z
1/2-x,-y,1/2+z
1/2+x,-y,1/2-z
1/2-x,y,1/2-z
1/2+x,1/2+y,z
1/2-x,1/2-y,z
1/2+x,1/2-y,-z
1/2-x,1/2+y,-z
loop_
_atom_site_type_symbol
_atom_site_label
_atom_site_fract_x
_atom_site_fract_y
_atom_site_fract_z
Si Si1 0.786451 0.383240 0.036661
Si Si2 0.885071 0.712552 0.693755
Si Si3 0.250000 0.750000 0.892952
Si Si4 0.006734 0.361686 0.102214
Si Si5 0.130540 0.499117 0.626245
O O1 0.750000 0.250000 0.015959
O O2 0.918517 0.366484 0.054525
O O3 0.710975 0.417555 0.088060
O O4 0.769624 0.500000 0.000000
O O5 0.930864 0.750000 0.750000
O O6 0.750000 0.750000 0.691274
O O7 0.956345 0.776041 0.647482
O O8 0.883423 0.569593 0.680631
O O9 0.366167 0.816470 0.915395
O O10 0.311259 0.631372 0.866997
O O11 0.000000 0.500000 0.123364
O O12 0.000000 0.500000 0.602673
#
# Coordination Sequence:
#
# PCOD9328873 Si02
#       5
#    16  16   8  16  16
#     4  12  26  47  75 109 149 203 262 319 390 465
#     4  11  22  43  76 105 146 209 249 304 389 456
#     4  12  24  42  81 112 144 208 244 316 397 450
#     4  12  23  46  73 105 157 195 249 319 382 456
#     4  12  23  46  76 108 158 194 252 321 384 459
#
# _framework density 22.250947
#
# number of rings (size 3 to 8) (size 9 to 14) (size 15 to 20)
#    0.000    0.222    8.889    0.000    1.556    1.778 
#    0.000    2.778    0.000    1.333    0.000    0.000 
#    0.000    0.000    0.000    0.000    0.000    0.000 
#
# Total GULP energy -100520.650944 kJ/mol
# GULP energy per Si atom -5584.480608 kJ/mol
# Density = 2.220030 g / cm^3
# Si number density = 22.250947 Si / 1000 Ang^3
#
#
#
# Elastic Constant Matrix: (Units=GPa)
#
#
# Indices 1 2 3 4 5 6 
#
# 1 141.2303 50.4326 27.9322 0.0000 0.0000 0.0000
# 2 50.4326 200.4200 49.1413 0.0000 0.0000 0.0000
# 3 27.9322 49.1413 92.9645 0.0000 0.0000 0.0000
# 4 0.0000 0.0000 0.0000 28.9481 0.0000 0.0000
# 5 0.0000 0.0000 0.0000 0.0000 18.5614 0.0000
# 6 0.0000 0.0000 0.0000 0.0000 0.0000 54.3608
#
#
#
# Elastic Compliance Matrix: (Units=1/GPa)
#
#
# Indices 1 2 3 4 5 6 
#
# 1 0.007965 -0.001629 -0.001532 0.000000 0.000000 0.000000
# 2 -0.001629 0.006065 -0.002717 0.000000 0.000000 0.000000
# 3 -0.001532 -0.002717 0.012653 0.000000 0.000000 0.000000
# 4 0.000000 0.000000 0.000000 0.034545 0.000000 0.000000
# 5 0.000000 0.000000 0.000000 0.000000 0.053875 0.000000
# 6 0.000000 0.000000 0.000000 0.000000 0.000000 0.018396
#
#
# Mechanical properties :
#
#
# Convention : Reuss Voigt Hill
#
# Bulk Modulus (GPa) = 66.98651 76.62521 71.80586
# Shear Modulus (GPa) = 33.28196 40.84798 37.06497
#
# Velocity S-wave (km/s) = 3.87169 4.28926 4.08581
# Velocity P-wave (km/s) = 7.08216 7.68387 7.38915
#
# Compressibility (1/GPa) = 0.01492838
#
# Stress axis : x y z
#
# Youngs Moduli (GPa) = 125.54507 164.86692 79.03036
#
# Poissons Ratio (x) = 0.26850 0.12110
# Poissons Ratio (y) = 0.20446 0.21472
# Poissons Ratio (z) = 0.19238 0.44793
#
# Static dielectric constant tensor:
#      x y z
#    x 1.851260 0.000000 0.000000 
#    y 0.000000 1.879850 0.000000 
#    z 0.000000 0.000000 1.836080 
# 
# From -- ./inp_files/24369.got.cif
#   From: 2010.05.17/outbox.cif.g08.bks.cpg/sg22_13_cif.got.tgz:24369.got - 2010.06.03 23:40:54.
