data_PCOD9328574
_publ_section_title
;
Structure prediction by ZEFSAII (Michael W. Deem and Ramdas Pophale) SiO2 
 PCOD9328574
Probable space group: F 2 2 2
;
_chemical_formula_sum "Si O2"
_cell_formula_units_Z 104
_cell_length_a 19.598313
_cell_length_b 28.328951
_cell_length_c 8.852049
_cell_angle_alpha 90.000000
_cell_angle_beta 90.000000
_cell_angle_gamma 90.000000
_cell_volume 4914.654495
_symmetry_space_group_name_H-M "F 2 2 2"
_symmetry_group_IT_number 22
_symmetry_cell_setting 'orthorhombic'
loop_
_space_group_symop_operation_xyz
x,y,z
-x,-y,z
x,-y,-z
-x,y,-z
x,1/2+y,1/2+z
-x,1/2-y,1/2+z
x,1/2-y,1/2-z
-x,1/2+y,1/2-z
1/2+x,y,1/2+z
1/2-x,-y,1/2+z
1/2+x,-y,1/2-z
1/2-x,y,1/2-z
1/2+x,1/2+y,z
1/2-x,1/2-y,z
1/2+x,1/2-y,-z
1/2-x,1/2+y,-z
loop_
_atom_site_type_symbol
_atom_site_label
_atom_site_fract_x
_atom_site_fract_y
_atom_site_fract_z
Si Si1 0.243131 0.901333 0.931145
Si Si2 0.574933 0.239660 0.073570
Si Si3 0.500000 0.921403 0.000000
Si Si4 0.940395 0.036174 0.207162
Si Si5 0.119374 0.146062 0.436220
Si Si6 0.323932 0.000000 0.500000
Si Si7 0.128459 0.326681 0.399606
Si Si8 0.500000 0.616242 0.000000
O O1 0.250000 0.903576 0.750000
O O2 0.316349 0.884536 0.989271
O O3 0.219618 0.952805 0.981353
O O4 0.186179 0.861621 0.965149
O O5 0.570994 0.250000 0.250000
O O6 0.500000 0.242928 0.000000
O O7 0.600020 0.186381 0.052986
O O8 0.622787 0.276924 0.984479
O O9 0.545821 0.950829 0.881703
O O10 0.445420 0.888270 0.914068
O O11 0.872356 0.011027 0.145419
O O12 0.000000 0.000000 0.168919
O O13 0.956483 0.083079 0.111645
O O14 0.138692 0.173199 0.280980
O O15 0.055049 0.351104 0.419915
#
# Coordination Sequence:
#
# PCOD9328574 Si02
#       8
#    16  16   8  16  16   8  16   8
#     4  10  25  45  69  98 141 189 238 286 349 424
#     4  12  26  42  71 106 138 176 232 293 361 427
#     4  12  27  41  68 102 146 178 238 306 356 412
#     4  12  23  41  67 103 138 182 233 293 350 411
#     4  11  25  46  66 101 142 183 232 292 355 423
#     4  12  23  44  76  99 140 196 246 286 360 441
#     4  11  22  43  72 100 137 185 228 285 352 420
#     4  12  19  37  72 100 134 178 232 286 338 418
#
# _framework density 21.161203
#
# number of rings (size 3 to 8) (size 9 to 14) (size 15 to 20)
#    0.000    0.615    6.154    1.615    4.308    1.846 
#    0.000    5.385    0.000    0.000    0.000    0.000 
#    0.000    0.000    0.000    0.000    0.000    0.000 
#
# Total GULP energy -145328.965294 kJ/mol
# GULP energy per Si atom -5589.575588 kJ/mol
# Density = 2.111304 g / cm^3
# Si number density = 21.161203 Si / 1000 Ang^3
#
#
#
# Elastic Constant Matrix: (Units=GPa)
#
#
# Indices 1 2 3 4 5 6 
#
# 1 123.5509 63.7782 19.8798 0.0000 0.0000 0.0003
# 2 63.7782 118.8550 34.8773 0.0000 0.0000 0.0001
# 3 19.8798 34.8773 96.7536 0.0000 0.0000 0.0006
# 4 0.0000 0.0000 0.0000 31.0894 0.0000 0.0005
# 5 0.0000 0.0000 0.0000 0.0000 5.1641 -0.0003
# 6 0.0003 0.0001 0.0006 0.0005 -0.0003 -184.4775
#
#
#
# Elastic Compliance Matrix: (Units=1/GPa)
#
#
# Indices 1 2 3 4 5 6 
#
# 1 0.011197 -0.005964 -0.000151 0.000000 0.000000 0.000000
# 2 -0.005964 0.012586 -0.003311 0.000000 0.000000 0.000000
# 3 -0.000151 -0.003311 0.011560 0.000000 0.000000 0.000000
# 4 0.000000 0.000000 0.000000 0.032165 0.000000 0.000000
# 5 0.000000 0.000000 0.000000 0.000000 0.193645 0.000000
# 6 0.000000 0.000000 0.000000 0.000000 0.000000 -0.005421
#
#
# Mechanical properties :
#
#
# Convention : Reuss Voigt Hill
#
# Bulk Modulus (GPa) = 60.64150 64.02554 62.33352
# Shear Modulus (GPa) = 17.85197 -14.93651 1.45773
#
# Velocity S-wave (km/s) = 2.90766 -2.65966 0.83088
# Velocity P-wave (km/s) = 6.32391 4.57057 5.51733
#
# Compressibility (1/GPa) = 0.01649036
#
# Stress axis : x y z
#
# Youngs Moduli (GPa) = 89.31148 79.45557 86.50390
#
# Poissons Ratio (x) = 0.47387 0.01304
# Poissons Ratio (y) = 0.53266 0.28645
# Poissons Ratio (z) = 0.01346 0.26311
#
# Static dielectric constant tensor:
#      x y z
#    x 1.767430 0.000000 0.000000 
#    y 0.000000 1.779310 0.000000 
#    z 0.000000 0.000000 1.963210 
# 
# From -- ./inp_files/12980.got.cif
#   From: 2010.05.17/outbox.cif.g08.bks.cpg/sg22_7_cif.got.tgz:12980.got - 2010.06.03 23:40:54.
