data_PCOD9328468
_publ_section_title
;
Structure prediction by ZEFSAII (Michael W. Deem and Ramdas Pophale) SiO2 
 PCOD9328468
Probable space group: F 2 2 2
;
_chemical_formula_sum "Si O2"
_cell_formula_units_Z 88
_cell_length_a 8.275952
_cell_length_b 23.152690
_cell_length_c 21.985084
_cell_angle_alpha 90.000000
_cell_angle_beta 90.000000
_cell_angle_gamma 90.000000
_cell_volume 4212.574061
_symmetry_space_group_name_H-M "F 2 2 2"
_symmetry_group_IT_number 22
_symmetry_cell_setting 'orthorhombic'
loop_
_space_group_symop_operation_xyz
x,y,z
-x,-y,z
x,-y,-z
-x,y,-z
x,1/2+y,1/2+z
-x,1/2-y,1/2+z
x,1/2-y,1/2-z
-x,1/2+y,1/2-z
1/2+x,y,1/2+z
1/2-x,-y,1/2+z
1/2+x,-y,1/2-z
1/2-x,y,1/2-z
1/2+x,1/2+y,z
1/2-x,1/2-y,z
1/2+x,1/2-y,-z
1/2-x,1/2+y,-z
loop_
_atom_site_type_symbol
_atom_site_label
_atom_site_fract_x
_atom_site_fract_y
_atom_site_fract_z
Si Si1 0.946909 0.565098 0.914148
Si Si2 0.543325 0.632165 0.304180
Si Si3 0.500000 0.836712 0.000000
Si Si4 0.078517 0.356890 0.333652
Si Si5 0.566411 0.065337 0.437074
Si Si6 0.435684 0.738832 0.382072
O O1 0.053784 0.613197 0.950407
O O2 0.760148 0.570723 0.934220
O O3 0.000000 0.500000 0.926313
O O4 0.963323 0.580835 0.843088
O O5 0.734516 0.631113 0.318664
O O6 0.501631 0.636169 0.233263
O O7 0.488686 0.691098 0.334627
O O8 0.561148 0.790491 0.949296
O O9 0.007379 0.403053 0.379598
O O10 0.041860 0.295616 0.366929
O O11 0.500000 0.091903 0.500000
O O12 0.500000 0.000000 0.435807
O O13 0.250000 0.750000 0.369867
#
# Coordination Sequence:
#
# PCOD9328468 Si02
#       6
#    16  16   8  16  16  16
#     4  11  24  44  70  97 132 181 218 276 337 392
#     4  10  24  43  68 100 128 182 221 270 340 393
#     4  10  25  38  64  94 131 170 228 258 330 396
#     4  11  23  44  69  95 139 170 224 281 326 397
#     4  11  27  43  66 101 132 172 225 273 333 396
#     4  11  24  41  63  98 134 177 223 273 335 394
#
# _framework density 20.889841000000001
#
# number of rings (size 3 to 8) (size 9 to 14) (size 15 to 20)
#    0.000    1.273    0.000    4.636   11.455    8.727 
#    0.000    0.000    0.000    0.000    0.000    0.000 
#    0.000    0.000    0.000    0.000    0.000    0.000 
#
# Total GULP energy -122576.573753 kJ/mol
# GULP energy per Si atom -5571.662443 kJ/mol
# Density = 2.084229 g / cm^3
# Si number density = 20.889841 Si / 1000 Ang^3
#
#
#
# Elastic Constant Matrix: (Units=GPa)
#
#
# Indices 1 2 3 4 5 6 
#
# 1 91.2961 24.8714 43.7841 0.0000 0.0000 0.0000
# 2 24.8714 82.8298 44.6862 0.0000 0.0000 0.0000
# 3 43.7841 44.6862 140.1290 0.0000 0.0000 0.0000
# 4 0.0000 0.0000 0.0000 19.3988 0.0000 0.0000
# 5 0.0000 0.0000 0.0000 0.0000 44.2992 0.0000
# 6 0.0000 0.0000 0.0000 0.0000 0.0000 18.7473
#
#
#
# Elastic Compliance Matrix: (Units=1/GPa)
#
#
# Indices 1 2 3 4 5 6 
#
# 1 0.013179 -0.002096 -0.003449 0.000000 0.000000 0.000000
# 2 -0.002096 0.014915 -0.004101 0.000000 0.000000 0.000000
# 3 -0.003449 -0.004101 0.009522 0.000000 0.000000 0.000000
# 4 0.000000 0.000000 0.000000 0.051549 0.000000 0.000000
# 5 0.000000 0.000000 0.000000 0.000000 0.022574 0.000000
# 6 0.000000 0.000000 0.000000 0.000000 0.000000 0.053341
#
#
# Mechanical properties :
#
#
# Convention : Reuss Voigt Hill
#
# Bulk Modulus (GPa) = 54.57961 60.10426 57.34194
# Shear Modulus (GPa) = 26.24935 29.88328 28.06631
#
# Velocity S-wave (km/s) = 3.54865 3.78632 3.66941
# Velocity P-wave (km/s) = 6.55550 6.92455 6.74255
#
# Compressibility (1/GPa) = 0.01832186
#
# Stress axis : x y z
#
# Youngs Moduli (GPa) = 75.88018 67.04640 105.02118
#
# Poissons Ratio (x) = 0.14055 0.36224
# Poissons Ratio (y) = 0.15907 0.43072
# Poissons Ratio (z) = 0.26173 0.27498
#
# Static dielectric constant tensor:
#      x y z
#    x 1.797350 0.000000 0.000000 
#    y 0.000000 1.747580 0.000000 
#    z 0.000000 0.000000 1.807210 
# 
# From -- ./inp_files/41844.got.cif
#   From: 2010.05.17/outbox.cif.g08.bks.cpg/sg22_21_cif.got.tgz:41844.got - 2010.06.03 23:40:54.
