data_PCOD9328528
_publ_section_title
;
Structure prediction by ZEFSAII (Michael W. Deem and Ramdas Pophale) SiO2 
 PCOD9328528
Probable space group: F 2 2 2
;
_chemical_formula_sum "Si O2"
_cell_formula_units_Z 56
_cell_length_a 14.311607
_cell_length_b 30.748566
_cell_length_c 5.178615
_cell_angle_alpha 90.000000
_cell_angle_beta 90.000000
_cell_angle_gamma 90.000000
_cell_volume 2278.908528
_symmetry_space_group_name_H-M "F 2 2 2"
_symmetry_group_IT_number 22
_symmetry_cell_setting 'orthorhombic'
loop_
_space_group_symop_operation_xyz
x,y,z
-x,-y,z
x,-y,-z
-x,y,-z
x,1/2+y,1/2+z
-x,1/2-y,1/2+z
x,1/2-y,1/2-z
-x,1/2+y,1/2-z
1/2+x,y,1/2+z
1/2-x,-y,1/2+z
1/2+x,-y,1/2-z
1/2-x,y,1/2-z
1/2+x,1/2+y,z
1/2-x,1/2-y,z
1/2+x,1/2-y,-z
1/2-x,1/2+y,-z
loop_
_atom_site_type_symbol
_atom_site_label
_atom_site_fract_x
_atom_site_fract_y
_atom_site_fract_z
Si Si1 0.250000 0.250000 0.750000
Si Si2 0.852110 0.038170 0.826777
Si Si3 0.611464 0.184769 0.972801
Si Si4 0.000000 0.000000 0.500000
Si Si5 0.389569 0.870190 0.470109
O O1 0.319589 0.222337 0.932556
O O2 0.750000 0.023567 0.750000
O O3 0.842740 0.084402 0.961819
O O4 0.924292 0.036214 0.596179
O O5 0.894549 0.000000 0.000000
O O6 0.628851 0.146823 0.183806
O O7 0.500000 0.196409 0.000000
O O8 0.631497 0.166544 0.686743
O O9 0.500000 0.878225 0.500000
#
# Coordination Sequence:
#
# PCOD9328528 Si02
#       5
#     4  16  16   4  16
#     4  12  28  50  84 112 152 202 252 314 408 456
#     4  12  27  45  74 111 151 203 257 312 370 449
#     4  10  26  47  75 113 147 199 247 315 376 466
#     4  12  26  48  72 104 152 208 246 316 370 438
#     4  10  24  47  74 106 156 196 251 310 378 440
#
# _framework density 24.573166000000001
#
# number of rings (size 3 to 8) (size 9 to 14) (size 15 to 20)
#    0.000    1.143    1.429    2.143   14.000    5.714 
#    0.000    0.000    0.000    0.000    0.000    0.000 
#    0.000    0.000    0.000    0.000    0.000    0.000 
#
# Total GULP energy -78326.101916 kJ/mol
# GULP energy per Si atom -5594.721565 kJ/mol
# Density = 2.451724 g / cm^3
# Si number density = 24.573166 Si / 1000 Ang^3
#
#
#
# Elastic Constant Matrix: (Units=GPa)
#
#
# Indices 1 2 3 4 5 6 
#
# 1 136.1169 31.5139 16.2892 0.0000 -0.0009 0.0008
# 2 31.5139 86.6894 -0.7698 -0.0003 -0.0001 -0.0002
# 3 16.2892 -0.7698 55.6210 -0.0004 -0.0017 0.0042
# 4 0.0000 -0.0003 -0.0004 27.1454 0.0000 -0.0003
# 5 -0.0009 -0.0001 -0.0017 0.0000 17.1422 -0.0004
# 6 0.0008 -0.0002 0.0042 -0.0003 -0.0004 -92.9363
#
#
#
# Elastic Compliance Matrix: (Units=1/GPa)
#
#
# Indices 1 2 3 4 5 6 
#
# 1 0.008353 -0.003058 -0.002488 0.000000 0.000000 0.000000
# 2 -0.003058 0.012657 0.001071 0.000000 0.000000 0.000000
# 3 -0.002488 0.001071 0.018722 0.000000 0.000002 0.000001
# 4 0.000000 0.000000 0.000000 0.036839 0.000000 0.000000
# 5 0.000000 0.000000 0.000002 0.000000 0.058336 0.000000
# 6 0.000000 0.000000 0.000001 0.000000 0.000000 -0.010760
#
#
# Mechanical properties :
#
#
# Convention : Reuss Voigt Hill
#
# Bulk Modulus (GPa) = 32.48905 41.38821 36.93863
# Shear Modulus (GPa) = 34.87777 5.69653 20.28715
#
# Velocity S-wave (km/s) = 3.77151 1.52421 2.87641
# Velocity P-wave (km/s) = 5.67589 4.46957 5.10846
#
# Compressibility (1/GPa) = 0.03077960
#
# Stress axis : x y z
#
# Youngs Moduli (GPa) = 119.72440 79.00909 53.41198
#
# Poissons Ratio (x) = 0.24165 0.13291
# Poissons Ratio (y) = 0.36617 -0.05720
# Poissons Ratio (z) = 0.29793 -0.08461
#
# Static dielectric constant tensor:
#      x y z
#    x 1.917550 0.000000 0.000000 
#    y 0.000000 2.003860 0.000000 
#    z 0.000000 0.000000 1.916460 
# 
# From -- ./inp_files/1935.got.cif
#   From: 2010.05.17/outbox.cif.g08.bks.cpg/sg22_1_cif.got.tgz:1935.got - 2010.06.03 23:40:54.
