data_PCOD9328221
_publ_section_title
;
Structure prediction by ZEFSAII (Michael W. Deem and Ramdas Pophale) SiO2 
 PCOD9328221
Probable space group: F 2 2 2
;
_chemical_formula_sum "Si O2"
_cell_formula_units_Z 108
_cell_length_a 31.696511
_cell_length_b 11.319924
_cell_length_c 14.291827
_cell_angle_alpha 90.000000
_cell_angle_beta 90.000000
_cell_angle_gamma 90.000000
_cell_volume 5127.937477
_symmetry_space_group_name_H-M "F 2 2 2"
_symmetry_group_IT_number 22
_symmetry_cell_setting 'orthorhombic'
loop_
_space_group_symop_operation_xyz
x,y,z
-x,-y,z
x,-y,-z
-x,y,-z
x,1/2+y,1/2+z
-x,1/2-y,1/2+z
x,1/2-y,1/2-z
-x,1/2+y,1/2-z
1/2+x,y,1/2+z
1/2-x,-y,1/2+z
1/2+x,-y,1/2-z
1/2-x,y,1/2-z
1/2+x,1/2+y,z
1/2-x,1/2-y,z
1/2+x,1/2-y,-z
1/2-x,1/2+y,-z
loop_
_atom_site_type_symbol
_atom_site_label
_atom_site_fract_x
_atom_site_fract_y
_atom_site_fract_z
Si Si1 0.484998 0.312655 0.096575
Si Si2 0.939931 0.658101 0.837837
Si Si3 0.610830 0.714579 0.142435
Si Si4 0.707471 0.179819 0.419945
Si Si5 0.692279 0.422569 0.873082
Si Si6 0.860360 0.633262 0.975155
Si Si7 0.500000 0.000000 0.753906
Si Si8 0.250000 0.250000 0.250000
O O1 0.517452 0.204897 0.110857
O O2 0.435246 0.295548 0.097149
O O3 0.493054 0.389962 0.187299
O O4 0.500000 0.369164 0.000000
O O5 0.930400 0.750000 0.750000
O O6 0.902365 0.641333 0.911132
O O7 0.956251 0.529955 0.804455
O O8 0.606693 0.750000 0.250000
O O9 0.642069 0.602244 0.135881
O O10 0.633243 0.810699 0.077555
O O11 0.750000 0.250000 0.400018
O O12 0.706415 0.123385 0.524389
O O13 0.671926 0.280851 0.421407
O O14 0.700557 0.061834 0.358768
O O15 0.718851 0.337497 0.805860
O O16 0.846927 0.500000 0.000000
#
# Coordination Sequence:
#
# PCOD9328221 Si02
#       8
#    16  16  16  16  16  16   8   4
#     4  11  22  41  63  93 132 170 232 281 338 422
#     4  10  23  43  63  95 135 177 225 287 354 415
#     4  11  23  43  68 103 131 182 238 293 352 418
#     4  10  23  46  69 102 139 190 224 292 362 434
#     4  10  23  41  74 103 143 177 235 293 354 435
#     4  11  26  43  68 103 134 185 239 291 355 430
#     4  10  23  38  65  90 126 186 214 279 357 404
#     4  12  20  44  74 116 136 186 232 294 364 436
#
# _framework density 21.0611
#
# number of rings (size 3 to 8) (size 9 to 14) (size 15 to 20)
#    0.000    1.481    2.963    1.556    6.222    2.370 
#    5.333    0.370    0.000    0.000    0.000    0.000 
#    0.000    0.000    0.000    0.000    0.000    0.000 
#
# Total GULP energy -150577.323311 kJ/mol
# GULP energy per Si atom -5576.937900 kJ/mol
# Density = 2.101316 g / cm^3
# Si number density = 21.061100 Si / 1000 Ang^3
#
#
#
# Elastic Constant Matrix: (Units=GPa)
#
#
# Indices 1 2 3 4 5 6 
#
# 1 128.5848 77.1087 30.1495 0.0000 0.0000 0.0000
# 2 77.1087 143.6788 30.4020 0.0000 0.0000 0.0000
# 3 30.1495 30.4020 76.3055 0.0000 0.0000 0.0000
# 4 0.0000 0.0000 0.0000 22.4370 0.0000 0.0000
# 5 0.0000 0.0000 0.0000 0.0000 110.2127 0.0000
# 6 0.0000 0.0000 0.0000 0.0000 0.0000 16.7914
#
#
#
# Elastic Compliance Matrix: (Units=1/GPa)
#
#
# Indices 1 2 3 4 5 6 
#
# 1 0.011839 -0.005858 -0.002344 0.000000 0.000000 0.000000
# 2 -0.005858 0.010499 -0.001869 0.000000 0.000000 0.000000
# 3 -0.002344 -0.001869 0.014776 0.000000 0.000000 0.000000
# 4 0.000000 0.000000 0.000000 0.044569 0.000000 0.000000
# 5 0.000000 0.000000 0.000000 0.000000 0.009073 0.000000
# 6 0.000000 0.000000 0.000000 0.000000 0.000000 0.059554
#
#
# Mechanical properties :
#
#
# Convention : Reuss Voigt Hill
#
# Bulk Modulus (GPa) = 58.91559 69.32107 64.11833
# Shear Modulus (GPa) = 28.39132 43.94880 36.17006
#
# Velocity S-wave (km/s) = 3.67556 4.57303 4.14863
# Velocity P-wave (km/s) = 6.78582 7.80187 7.31152
#
# Compressibility (1/GPa) = 0.01697344
#
# Stress axis : x y z
#
# Youngs Moduli (GPa) = 84.46372 95.24586 67.67805
#
# Poissons Ratio (x) = 0.55794 0.15864
# Poissons Ratio (y) = 0.49478 0.12646
# Poissons Ratio (z) = 0.19798 0.17797
#
# Static dielectric constant tensor:
#      x y z
#    x 1.824100 0.000000 0.000000 
#    y 0.000000 1.836490 0.000000 
#    z 0.000000 0.000000 1.780450 
# 
# From -- ./inp_files/33548.got.cif
#   From: 2010.05.17/outbox.cif.g08.bks.cpg/sg22_17_cif.got.tgz:33548.got - 2010.06.03 23:40:54.
