data_PCOD9328309
_publ_section_title
;
Structure prediction by ZEFSAII (Michael W. Deem and Ramdas Pophale) SiO2 
 PCOD9328309
Probable space group: F 2 2 2
;
_chemical_formula_sum "Si O2"
_cell_formula_units_Z 96
_cell_length_a 17.735515
_cell_length_b 29.240165
_cell_length_c 9.108987
_cell_angle_alpha 90.000000
_cell_angle_beta 90.000000
_cell_angle_gamma 90.000000
_cell_volume 4723.823966
_symmetry_space_group_name_H-M "F 2 2 2"
_symmetry_group_IT_number 22
_symmetry_cell_setting 'orthorhombic'
loop_
_space_group_symop_operation_xyz
x,y,z
-x,-y,z
x,-y,-z
-x,y,-z
x,1/2+y,1/2+z
-x,1/2-y,1/2+z
x,1/2-y,1/2-z
-x,1/2+y,1/2-z
1/2+x,y,1/2+z
1/2-x,-y,1/2+z
1/2+x,-y,1/2-z
1/2-x,y,1/2-z
1/2+x,1/2+y,z
1/2-x,1/2-y,z
1/2+x,1/2-y,-z
1/2-x,1/2+y,-z
loop_
_atom_site_type_symbol
_atom_site_label
_atom_site_fract_x
_atom_site_fract_y
_atom_site_fract_z
Si Si1 0.917828 0.978105 0.351351
Si Si2 0.179383 0.884614 0.958681
Si Si3 0.851328 0.883093 0.386543
Si Si4 0.311665 0.029770 0.631647
Si Si5 0.082003 0.300113 0.930989
Si Si6 0.418247 0.804369 0.417682
O O1 0.911634 0.924400 0.388006
O O2 0.887977 0.000000 0.500000
O O3 0.866581 0.995028 0.217746
O O4 0.000000 0.000000 0.327992
O O5 0.158497 0.878091 0.788278
O O6 0.269083 0.894674 0.953151
O O7 0.148171 0.927177 0.054192
O O8 0.145745 0.839453 0.031856
O O9 0.874399 0.838278 0.476595
O O10 0.250000 0.045266 0.750000
O O11 0.277835 0.000000 0.500000
O O12 0.108938 0.247665 0.946717
O O13 0.074111 0.310051 0.757821
O O14 0.000000 0.300030 0.000000
O O15 0.500000 0.811288 0.500000
#
# Coordination Sequence:
#
# PCOD9328309 Si02
#       6
#    16  16  16  16  16  16
#     4  11  26  44  65  95 135 175 227 279 335 406
#     4  11  25  41  68  95 137 178 225 281 336 415
#     4  11  24  45  63 100 133 179 229 274 346 405
#     4  12  24  43  67  94 135 181 223 282 341 405
#     4  10  23  42  72  94 137 176 220 286 344 412
#     4  10  23  44  66 104 130 175 228 278 348 413
#
# _framework density 20.322517999999999
#
# number of rings (size 3 to 8) (size 9 to 14) (size 15 to 20)
#    0.000    1.167    1.667    3.500    7.000    4.333 
#    0.000    3.333    0.000    0.000    0.000    0.000 
#    0.000    0.000    0.000    0.000    0.000    0.000 
#
# Total GULP energy -133825.725373 kJ/mol
# GULP energy per Si atom -5576.071891 kJ/mol
# Density = 2.027626 g / cm^3
# Si number density = 20.322518 Si / 1000 Ang^3
#
#
#
# Elastic Constant Matrix: (Units=GPa)
#
#
# Indices 1 2 3 4 5 6 
#
# 1 59.1531 38.4821 32.1911 0.0000 0.0000 0.0000
# 2 38.4821 133.4745 69.1867 0.0000 0.0000 0.0000
# 3 32.1911 69.1867 132.7914 0.0000 0.0000 0.0000
# 4 0.0000 0.0000 0.0000 45.5638 0.0000 0.0000
# 5 0.0000 0.0000 0.0000 0.0000 31.1973 0.0000
# 6 0.0000 0.0000 0.0000 0.0000 0.0000 38.4898
#
#
#
# Elastic Compliance Matrix: (Units=1/GPa)
#
#
# Indices 1 2 3 4 5 6 
#
# 1 0.021500 -0.004791 -0.002716 0.000000 0.000000 0.000000
# 2 -0.004791 0.011332 -0.004743 0.000000 0.000000 0.000000
# 3 -0.002716 -0.004743 0.010660 0.000000 0.000000 0.000000
# 4 0.000000 0.000000 0.000000 0.021947 0.000000 0.000000
# 5 0.000000 0.000000 0.000000 0.000000 0.032054 0.000000
# 6 0.000000 0.000000 0.000000 0.000000 0.000000 0.025981
#
#
# Mechanical properties :
#
#
# Convention : Reuss Voigt Hill
#
# Bulk Modulus (GPa) = 52.65122 67.23763 59.94443
# Shear Modulus (GPa) = 32.40366 35.42078 33.91222
#
# Velocity S-wave (km/s) = 3.99741 4.17937 4.08941
# Velocity P-wave (km/s) = 6.87531 7.51310 7.20127
#
# Compressibility (1/GPa) = 0.01899291
#
# Stress axis : x y z
#
# Youngs Moduli (GPa) = 46.51165 88.24821 93.80899
#
# Poissons Ratio (x) = 0.42279 0.25477
# Poissons Ratio (y) = 0.22283 0.44490
# Poissons Ratio (z) = 0.12632 0.41853
#
# Static dielectric constant tensor:
#      x y z
#    x 1.739080 0.000000 0.000000 
#    y 0.000000 1.838590 0.000000 
#    z 0.000000 0.000000 1.724280 
# 
# From -- ./inp_files/12850.got.cif
#   From: 2010.05.17/outbox.cif.g08.bks.cpg/sg22_7_cif.got.tgz:12850.got - 2010.06.03 23:40:54.
