data_PCOD9328071
_publ_section_title
;
Structure prediction by ZEFSAII (Michael W. Deem and Ramdas Pophale) SiO2 
 PCOD9328071
Probable space group: F 2 2 2
;
_chemical_formula_sum "Si O2"
_cell_formula_units_Z 68
_cell_length_a 19.092651
_cell_length_b 27.565613
_cell_length_c 5.766868
_cell_angle_alpha 90.000000
_cell_angle_beta 90.000000
_cell_angle_gamma 90.000000
_cell_volume 3035.106254
_symmetry_space_group_name_H-M "F 2 2 2"
_symmetry_group_IT_number 22
_symmetry_cell_setting 'orthorhombic'
loop_
_space_group_symop_operation_xyz
x,y,z
-x,-y,z
x,-y,-z
-x,y,-z
x,1/2+y,1/2+z
-x,1/2-y,1/2+z
x,1/2-y,1/2-z
-x,1/2+y,1/2-z
1/2+x,y,1/2+z
1/2-x,-y,1/2+z
1/2+x,-y,1/2-z
1/2-x,y,1/2-z
1/2+x,1/2+y,z
1/2-x,1/2-y,z
1/2+x,1/2-y,-z
1/2-x,1/2+y,-z
loop_
_atom_site_type_symbol
_atom_site_label
_atom_site_fract_x
_atom_site_fract_y
_atom_site_fract_z
Si Si1 0.500000 0.721251 0.000000
Si Si2 0.750000 0.750000 0.250000
Si Si3 0.149770 0.799576 0.096626
Si Si4 0.250000 0.881999 0.250000
Si Si5 0.972039 0.443501 0.747285
Si Si6 0.181438 0.046737 0.377015
O O1 0.493864 0.750000 0.750000
O O2 0.570994 0.691830 0.977414
O O3 0.800468 0.715051 0.388641
O O4 0.150759 0.750000 0.250000
O O5 0.185489 0.846097 0.203096
O O6 0.218816 0.914705 0.455651
O O7 0.887326 0.435577 0.740998
O O8 0.000000 0.500000 0.746110
O O9 0.000000 0.423668 0.500000
O O10 0.000000 0.424123 0.000000
O O11 0.250000 0.026310 0.250000
O O12 0.149149 0.000000 0.500000
#
# Coordination Sequence:
#
# PCOD9328071 Si02
#       6
#     8   4  16   8  16  16
#     4  10  22  42  76 110 147 192 237 298 382 456
#     4  12  18  40  78 102 144 188 238 292 390 440
#     4  11  23  44  74 109 146 190 240 307 377 457
#     4  12  27  44  71 112 150 197 263 308 384 460
#     4  10  22  42  75  99 130 188 260 309 387 440
#     4  12  27  45  72 102 146 200 255 324 383 453
#
# _framework density 22.404489000000002
#
# number of rings (size 3 to 8) (size 9 to 14) (size 15 to 20)
#    0.000    0.941    7.059    0.000    8.235    0.000 
#    0.000    2.353    5.176    0.000    0.000    0.000 
#    0.000    0.000    0.000    0.000    0.000    0.000 
#
# Total GULP energy -94752.295701 kJ/mol
# GULP energy per Si atom -5573.664453 kJ/mol
# Density = 2.235350 g / cm^3
# Si number density = 22.404489 Si / 1000 Ang^3
#
#
#
# Elastic Constant Matrix: (Units=GPa)
#
#
# Indices 1 2 3 4 5 6 
#
# 1 213.8577 17.0901 43.3030 -0.0073 0.0017 0.0215
# 2 17.0901 68.4880 10.5813 -0.0075 0.0044 0.0153
# 3 43.3030 10.5813 107.2085 -0.0076 -0.0019 0.0277
# 4 -0.0073 -0.0075 -0.0076 20.4050 0.0049 0.0292
# 5 0.0017 0.0044 -0.0019 0.0049 51.7500 -0.0178
# 6 0.0215 0.0153 0.0277 0.0292 -0.0178 -26.4463
#
#
#
# Elastic Compliance Matrix: (Units=1/GPa)
#
#
# Indices 1 2 3 4 5 6 
#
# 1 0.005156 -0.000980 -0.001986 0.000001 0.000000 0.000002
# 2 -0.000980 0.015013 -0.001086 0.000005 -0.000001 0.000007
# 3 -0.001986 -0.001086 0.010237 0.000003 0.000001 0.000008
# 4 0.000001 0.000005 0.000003 0.049008 -0.000005 0.000054
# 5 0.000000 -0.000001 0.000001 -0.000005 0.019324 -0.000013
# 6 0.000002 0.000007 0.000008 0.000054 -0.000013 -0.037812
#
#
# Mechanical properties :
#
#
# Convention : Reuss Voigt Hill
#
# Bulk Modulus (GPa) = 44.83707 59.05589 51.94648
# Shear Modulus (GPa) = 65.39036 30.38040 47.88538
#
# Velocity S-wave (km/s) = 5.40829 3.68638 4.62812
# Velocity P-wave (km/s) = 7.68476 6.67348 7.19690
#
# Compressibility (1/GPa) = 0.02230297
#
# Stress axis : x y z
#
# Youngs Moduli (GPa) = 193.93157 66.60718 97.68488
#
# Poissons Ratio (x) = 0.06527 0.19401
# Poissons Ratio (y) = 0.19003 0.10609
# Poissons Ratio (z) = 0.38516 0.07234
#
# Static dielectric constant tensor:
#      x y z
#    x 1.788120 0.000020 -0.000020 
#    y 0.000020 1.541410 -0.000020 
#    z -0.000020 -0.000020 1.674190 
# 
# From -- ./inp_files/3836.got.cif
#   From: 2010.05.17/outbox.cif.g08.bks.cpg/sg22_2_cif.got.tgz:3836.got - 2010.06.03 23:40:54.
