data_PCOD9328997
_publ_section_title
;
Structure prediction by ZEFSAII (Michael W. Deem and Ramdas Pophale) SiO2 
 PCOD9328997
Probable space group: F 2 2 2
;
_chemical_formula_sum "Si O2"
_cell_formula_units_Z 80
_cell_length_a 28.617107
_cell_length_b 12.267690
_cell_length_c 12.165115
_cell_angle_alpha 90.000000
_cell_angle_beta 90.000000
_cell_angle_gamma 90.000000
_cell_volume 4270.755798
_symmetry_space_group_name_H-M "F 2 2 2"
_symmetry_group_IT_number 22
_symmetry_cell_setting 'orthorhombic'
loop_
_space_group_symop_operation_xyz
x,y,z
-x,-y,z
x,-y,-z
-x,y,-z
x,1/2+y,1/2+z
-x,1/2-y,1/2+z
x,1/2-y,1/2-z
-x,1/2+y,1/2-z
1/2+x,y,1/2+z
1/2-x,-y,1/2+z
1/2+x,-y,1/2-z
1/2-x,y,1/2-z
1/2+x,1/2+y,z
1/2-x,1/2-y,z
1/2+x,1/2-y,-z
1/2-x,1/2+y,-z
loop_
_atom_site_type_symbol
_atom_site_label
_atom_site_fract_x
_atom_site_fract_y
_atom_site_fract_z
Si Si1 0.368424 0.250000 0.250000
Si Si2 0.369521 0.750000 0.250000
Si Si3 0.948045 0.885280 0.139554
Si Si4 0.709907 0.904647 0.838900
Si Si5 0.948823 0.364411 0.377489
Si Si6 0.289373 0.840907 0.904765
O O1 0.403769 0.163389 0.300781
O O2 0.336157 0.205707 0.151309
O O3 0.336984 0.850303 0.210878
O O4 0.405581 0.707795 0.158930
O O5 0.998890 0.831097 0.159090
O O6 0.946826 0.012755 0.167574
O O7 0.945009 0.874294 0.008291
O O8 0.750000 0.875934 0.750000
O O9 0.713915 0.035920 0.855903
O O10 0.712839 0.855760 0.962709
O O11 0.250000 0.750000 0.877319
#
# Coordination Sequence:
#
# PCOD9328997 Si02
#       6
#     8   8  16  16  16  16
#     4  12  20  34  58  86 112 144 188 240 294 342
#     4  12  20  34  58  86 112 144 188 240 294 342
#     4   9  19  35  54  79 112 149 188 229 278 341
#     4  11  24  41  60  84 116 153 195 244 299 358
#     4   9  19  35  54  79 112 149 188 229 278 341
#     4  11  24  41  60  84 116 153 195 244 299 358
#
# _framework density 18.732047000000001
#
# number of rings (size 3 to 8) (size 9 to 14) (size 15 to 20)
#    0.000    1.600    0.000    7.200    0.000    0.000 
#    0.000    4.000    0.000    0.000    0.000   16.800 
#    0.000    0.000    0.000    0.000    0.000    0.000 
#
# Total GULP energy -111370.104122 kJ/mol
# GULP energy per Si atom -5568.505206 kJ/mol
# Density = 1.868941 g / cm^3
# Si number density = 18.732047 Si / 1000 Ang^3
#
#
#
# Elastic Constant Matrix: (Units=GPa)
#
#
# Indices 1 2 3 4 5 6 
#
# 1 169.0388 63.9948 60.4045 0.0000 0.0000 0.0000
# 2 63.9948 91.3172 38.2324 0.0000 0.0000 0.0000
# 3 60.4045 38.2324 86.8992 0.0000 0.0000 0.0000
# 4 0.0000 0.0000 0.0000 20.3362 0.0000 0.0000
# 5 0.0000 0.0000 0.0000 0.0000 31.7116 0.0000
# 6 0.0000 0.0000 0.0000 0.0000 0.0000 34.9946
#
#
#
# Elastic Compliance Matrix: (Units=1/GPa)
#
#
# Indices 1 2 3 4 5 6 
#
# 1 0.009237 -0.004640 -0.004380 0.000000 0.000000 0.000000
# 2 -0.004640 0.015754 -0.003706 0.000000 0.000000 0.000000
# 3 -0.004380 -0.003706 0.016182 0.000000 0.000000 0.000000
# 4 0.000000 0.000000 0.000000 0.049173 0.000000 0.000000
# 5 0.000000 0.000000 0.000000 0.000000 0.031534 0.000000
# 6 0.000000 0.000000 0.000000 0.000000 0.000000 0.028576
#
#
# Mechanical properties :
#
#
# Convention : Reuss Voigt Hill
#
# Bulk Modulus (GPa) = 63.60157 74.72430 69.16294
# Shear Modulus (GPa) = 27.60155 29.71671 28.65913
#
# Velocity S-wave (km/s) = 3.84278 3.98730 3.91570
# Velocity P-wave (km/s) = 7.32914 7.82150 7.57932
#
# Compressibility (1/GPa) = 0.01572288
#
# Stress axis : x y z
#
# Youngs Moduli (GPa) = 108.25568 63.47572 61.79552
#
# Poissons Ratio (x) = 0.29452 0.27064
# Poissons Ratio (y) = 0.50229 0.22901
# Poissons Ratio (z) = 0.47412 0.23524
#
# Static dielectric constant tensor:
#      x y z
#    x 1.726710 0.000000 0.000000 
#    y 0.000000 1.686990 0.000000 
#    z 0.000000 0.000000 1.653740 
# 
# From -- ./inp_files/23596.got.cif
#   From: 2010.05.17/outbox.cif.g08.bks.cpg/sg22_12_cif.got.tgz:23596.got - 2010.06.03 23:40:54.
