data_PCOD9328487
_publ_section_title
;
Structure prediction by ZEFSAII (Michael W. Deem and Ramdas Pophale) SiO2 
 PCOD9328487
Probable space group: F 2 2 2
;
_chemical_formula_sum "Si O2"
_cell_formula_units_Z 72
_cell_length_a 10.050156
_cell_length_b 10.939206
_cell_length_c 34.544478
_cell_angle_alpha 90.000000
_cell_angle_beta 90.000000
_cell_angle_gamma 90.000000
_cell_volume 3797.845019
_symmetry_space_group_name_H-M "F 2 2 2"
_symmetry_group_IT_number 22
_symmetry_cell_setting 'orthorhombic'
loop_
_space_group_symop_operation_xyz
x,y,z
-x,-y,z
x,-y,-z
-x,y,-z
x,1/2+y,1/2+z
-x,1/2-y,1/2+z
x,1/2-y,1/2-z
-x,1/2+y,1/2-z
1/2+x,y,1/2+z
1/2-x,-y,1/2+z
1/2+x,-y,1/2-z
1/2-x,y,1/2-z
1/2+x,1/2+y,z
1/2-x,1/2-y,z
1/2+x,1/2-y,-z
1/2-x,1/2+y,-z
loop_
_atom_site_type_symbol
_atom_site_label
_atom_site_fract_x
_atom_site_fract_y
_atom_site_fract_z
Si Si1 0.057019 0.700863 0.705818
Si Si2 0.155313 0.860603 0.011300
Si Si3 0.708782 0.460062 0.205692
Si Si4 0.250000 0.250000 0.913175
Si Si5 0.562182 0.376669 0.352594
O O1 0.064830 0.750000 0.750000
O O2 0.170837 0.601080 0.699283
O O3 0.920135 0.624662 0.701040
O O4 0.044797 0.803390 0.673113
O O5 0.250000 0.750000 0.994985
O O6 0.183011 0.846538 0.057295
O O7 0.000000 0.840699 0.000000
O O8 0.190374 0.000000 0.000000
O O9 0.750000 0.447034 0.250000
O O10 0.824420 0.414822 0.178087
O O11 0.365387 0.198346 0.885935
O O12 0.500000 0.500000 0.368985
#
# Coordination Sequence:
#
# PCOD9328487 Si02
#       5
#    16  16  16   8  16
#     4  11  22  38  61  85 123 178 227 270 314 366
#     4   9  21  44  73 102 132 167 212 260 321 404
#     4  11  22  38  61  85 123 178 227 270 314 366
#     4  10  24  44  69  96 136 162 198 272 321 396
#     4  12  24  41  61  91 131 170 210 267 329 367
#
# _framework density 18.958120000000001
#
# number of rings (size 3 to 8) (size 9 to 14) (size 15 to 20)
#    0.667    0.667    4.444    1.333    0.000    5.333 
#    8.000    0.000    0.000    0.000    0.000    0.000 
#    0.000    0.000    0.000    0.000    0.000    0.000 
#
# Total GULP energy -100452.079862 kJ/mol
# GULP energy per Si atom -5580.671103 kJ/mol
# Density = 1.891497 g / cm^3
# Si number density = 18.958120 Si / 1000 Ang^3
#
#
#
# Elastic Constant Matrix: (Units=GPa)
#
#
# Indices 1 2 3 4 5 6 
#
# 1 66.5709 32.4134 22.5417 0.0000 0.0000 0.0000
# 2 32.4134 131.0997 48.1089 0.0000 0.0000 0.0000
# 3 22.5417 48.1089 106.1169 0.0000 0.0000 0.0000
# 4 0.0000 0.0000 0.0000 58.9310 0.0000 0.0000
# 5 0.0000 0.0000 0.0000 0.0000 -23.2028 0.0000
# 6 0.0000 0.0000 0.0000 0.0000 0.0000 26.8687
#
#
#
# Elastic Compliance Matrix: (Units=1/GPa)
#
#
# Indices 1 2 3 4 5 6 
#
# 1 0.017459 -0.003546 -0.002101 0.000000 0.000000 0.000000
# 2 -0.003546 0.009870 -0.003722 0.000000 0.000000 0.000000
# 3 -0.002101 -0.003722 0.011557 0.000000 0.000000 0.000000
# 4 0.000000 0.000000 0.000000 0.016969 0.000000 0.000000
# 5 0.000000 0.000000 0.000000 0.000000 -0.043098 0.000000
# 6 0.000000 0.000000 0.000000 0.000000 0.000000 0.037218
#
#
# Mechanical properties :
#
#
# Convention : Reuss Voigt Hill
#
# Bulk Modulus (GPa) = 49.62850 56.65729 53.14289
# Shear Modulus (GPa) = 66.28765 25.90097 46.09431
#
# Velocity S-wave (km/s) = 5.91956 3.70025 4.93625
# Velocity P-wave (km/s) = 8.54145 6.94307 7.78340
#
# Compressibility (1/GPa) = 0.02014971
#
# Stress axis : x y z
#
# Youngs Moduli (GPa) = 57.27548 101.31651 86.52675
#
# Poissons Ratio (x) = 0.35923 0.18183
# Poissons Ratio (y) = 0.20308 0.32201
# Poissons Ratio (z) = 0.12036 0.37705
#
# Static dielectric constant tensor:
#      x y z
#    x 1.661670 0.000000 0.000000 
#    y 0.000000 1.718290 0.000000 
#    z 0.000000 0.000000 1.639330 
# 
# From -- ./inp_files/52451.got.cif
#   From: 2010.05.17/outbox.cif.g08.bks.cpg/sg22_27_cif.got.tgz:52451.got - 2010.06.03 23:40:54.
