data_PCOD9328955
_publ_section_title
;
Structure prediction by ZEFSAII (Michael W. Deem and Ramdas Pophale) SiO2 
 PCOD9328955
Probable space group: F 2 2 2
;
_chemical_formula_sum "Si O2"
_cell_formula_units_Z 56
_cell_length_a 11.282562
_cell_length_b 20.665588
_cell_length_c 11.094424
_cell_angle_alpha 90.000000
_cell_angle_beta 90.000000
_cell_angle_gamma 90.000000
_cell_volume 2586.784530
_symmetry_space_group_name_H-M "F 2 2 2"
_symmetry_group_IT_number 22
_symmetry_cell_setting 'orthorhombic'
loop_
_space_group_symop_operation_xyz
x,y,z
-x,-y,z
x,-y,-z
-x,y,-z
x,1/2+y,1/2+z
-x,1/2-y,1/2+z
x,1/2-y,1/2-z
-x,1/2+y,1/2-z
1/2+x,y,1/2+z
1/2-x,-y,1/2+z
1/2+x,-y,1/2-z
1/2-x,y,1/2-z
1/2+x,1/2+y,z
1/2-x,1/2-y,z
1/2+x,1/2-y,-z
1/2-x,1/2+y,-z
loop_
_atom_site_type_symbol
_atom_site_label
_atom_site_fract_x
_atom_site_fract_y
_atom_site_fract_z
Si Si1 0.500000 0.891373 0.000000
Si Si2 0.387551 0.177277 0.217506
Si Si3 0.032611 0.927080 0.137999
Si Si4 0.719271 0.537481 0.623757
O O1 0.416620 0.846690 0.917494
O O2 0.589881 0.933371 0.912809
O O3 0.426174 0.250000 0.250000
O O4 0.250000 0.172921 0.250000
O O5 0.458469 0.126558 0.296684
O O6 0.173077 0.912568 0.143793
O O7 0.000000 0.000000 0.181794
O O8 0.000000 0.926277 0.000000
O O9 0.750252 0.500000 0.500000
O O10 0.750000 0.498170 0.750000
#
# Coordination Sequence:
#
# PCOD9328955 Si02
#       4
#     8  16  16  16
#     4  12  27  48  74 110 149 206 266 318 390 466
#     4  11  27  50  76 110 153 202 260 321 388 465
#     4  11  23  43  74 106 147 197 251 311 388 461
#     4  12  26  45  73 112 155 203 255 324 393 462
#
# _framework density 21.648499000000001
#
# number of rings (size 3 to 8) (size 9 to 14) (size 15 to 20)
#    0.000    0.571    5.714    2.143    6.000    0.000 
#    0.000    1.429    0.000    0.000    0.000    0.000 
#    0.000    0.000    0.000    0.000    0.000    0.000 
#
# Total GULP energy -78014.590474 kJ/mol
# GULP energy per Si atom -5572.470748 kJ/mol
# Density = 2.159923 g / cm^3
# Si number density = 21.648499 Si / 1000 Ang^3
#
#
#
# Elastic Constant Matrix: (Units=GPa)
#
#
# Indices 1 2 3 4 5 6 
#
# 1 149.7733 61.7876 49.7772 0.0000 0.0000 0.0000
# 2 61.7876 142.9293 74.3841 0.0000 0.0000 0.0000
# 3 49.7772 74.3841 155.8798 0.0000 0.0000 0.0000
# 4 0.0000 0.0000 0.0000 1.0859 0.0000 0.0000
# 5 0.0000 0.0000 0.0000 0.0000 52.3764 0.0000
# 6 0.0000 0.0000 0.0000 0.0000 0.0000 45.8754
#
#
#
# Elastic Compliance Matrix: (Units=1/GPa)
#
#
# Indices 1 2 3 4 5 6 
#
# 1 0.008305 -0.002940 -0.001249 0.000000 0.000000 0.000000
# 2 -0.002940 0.010349 -0.004000 0.000000 0.000000 0.000000
# 3 -0.001249 -0.004000 0.008723 0.000000 0.000000 0.000000
# 4 0.000000 0.000000 0.000000 0.920911 0.000000 0.000000
# 5 0.000000 0.000000 0.000000 0.000000 0.019093 0.000000
# 6 0.000000 0.000000 0.000000 0.000000 0.000000 0.021798
#
#
# Mechanical properties :
#
#
# Convention : Reuss Voigt Hill
#
# Bulk Modulus (GPa) = 90.91713 91.16449 91.04081
# Shear Modulus (GPa) = 4.95431 37.37643 21.16537
#
# Velocity S-wave (km/s) = 1.51443 4.15964 3.13018
# Velocity P-wave (km/s) = 6.71909 8.07916 7.43031
#
# Compressibility (1/GPa) = 0.01099903
#
# Stress axis : x y z
#
# Youngs Moduli (GPa) = 120.41266 96.62851 114.64520
#
# Poissons Ratio (x) = 0.28410 0.14319
# Poissons Ratio (y) = 0.35403 0.45853
# Poissons Ratio (z) = 0.15039 0.38647
#
# Static dielectric constant tensor:
#      x y z
#    x 1.901730 0.000000 0.000000 
#    y 0.000000 1.757060 0.000000 
#    z 0.000000 0.000000 1.704930 
# 
# From -- ./inp_files/17679.got.cif
#   From: 2010.05.17/outbox.cif.g08.bks.cpg/sg22_9_cif.got.tgz:17679.got - 2010.06.03 23:40:54.
