data_PCOD9328906
_publ_section_title
;
Structure prediction by ZEFSAII (Michael W. Deem and Ramdas Pophale) SiO2 
 PCOD9328906
Probable space group: F 2 2 2
;
_chemical_formula_sum "Si O2"
_cell_formula_units_Z 96
_cell_length_a 15.623365
_cell_length_b 13.793639
_cell_length_c 19.440745
_cell_angle_alpha 90.000000
_cell_angle_beta 90.000000
_cell_angle_gamma 90.000000
_cell_volume 4189.539973
_symmetry_space_group_name_H-M "F 2 2 2"
_symmetry_group_IT_number 22
_symmetry_cell_setting 'orthorhombic'
loop_
_space_group_symop_operation_xyz
x,y,z
-x,-y,z
x,-y,-z
-x,y,-z
x,1/2+y,1/2+z
-x,1/2-y,1/2+z
x,1/2-y,1/2-z
-x,1/2+y,1/2-z
1/2+x,y,1/2+z
1/2-x,-y,1/2+z
1/2+x,-y,1/2-z
1/2-x,y,1/2-z
1/2+x,1/2+y,z
1/2-x,1/2-y,z
1/2+x,1/2-y,-z
1/2-x,1/2+y,-z
loop_
_atom_site_type_symbol
_atom_site_label
_atom_site_fract_x
_atom_site_fract_y
_atom_site_fract_z
Si Si1 0.231665 0.857918 0.596090
Si Si2 0.653970 0.000541 0.356474
Si Si3 0.904686 0.615149 0.982233
Si Si4 0.375739 0.364799 0.271208
Si Si5 0.066503 0.133266 0.760261
Si Si6 0.698483 0.649111 0.650760
O O1 0.250000 0.750000 0.619102
O O2 0.173036 0.849084 0.529296
O O3 0.168972 0.893017 0.657678
O O4 0.319492 0.919246 0.586034
O O5 0.577918 0.076101 0.333175
O O6 0.730319 0.073738 0.370789
O O7 0.659439 0.927996 0.291568
O O8 0.876847 0.646157 0.905785
O O9 0.906070 0.500000 0.000000
O O10 0.000000 0.651905 0.000000
O O11 0.368779 0.250000 0.250000
O O12 0.476032 0.392537 0.272959
O O13 0.066306 0.250000 0.750000
O O14 0.153402 0.111699 0.719753
O O15 0.750000 0.750000 0.658754
#
# Coordination Sequence:
#
# PCOD9328906 Si02
#       6
#    16  16  16  16  16  16
#     4  12  23  42  67  93 124 169 218 265 315 379
#     4  12  24  39  64  93 131 164 209 258 315 378
#     4  11  25  44  64  91 126 168 216 270 324 374
#     4  11  23  39  62  95 131 166 203 254 321 384
#     4  11  23  39  62  95 131 166 203 254 321 384
#     4  12  23  42  67  93 124 169 218 265 315 379
#
# _framework density 22.914210000000001
#
# number of rings (size 3 to 8) (size 9 to 14) (size 15 to 20)
#    0.000    0.500    5.000    5.000    0.000    0.000 
#    0.000    0.000    0.000    0.000    0.000    5.833 
#    0.000    0.000    0.000    0.000    0.000    0.000 
#
# Total GULP energy -133662.441482 kJ/mol
# GULP energy per Si atom -5569.268395 kJ/mol
# Density = 2.286206 g / cm^3
# Si number density = 22.914210 Si / 1000 Ang^3
#
#
#
# Elastic Constant Matrix: (Units=GPa)
#
#
# Indices 1 2 3 4 5 6 
#
# 1 100.2086 17.9858 19.9081 0.0000 0.0000 0.0000
# 2 17.9858 112.0626 -11.1988 0.0000 0.0000 0.0000
# 3 19.9081 -11.1988 34.8760 0.0000 0.0000 0.0000
# 4 0.0000 0.0000 0.0000 11.5404 0.0000 0.0000
# 5 0.0000 0.0000 0.0000 0.0000 38.5053 0.0000
# 6 0.0000 0.0000 0.0000 0.0000 0.0000 15.9858
#
#
#
# Elastic Compliance Matrix: (Units=1/GPa)
#
#
# Indices 1 2 3 4 5 6 
#
# 1 0.011995 -0.002696 -0.007713 0.000000 0.000000 0.000000
# 2 -0.002696 0.009825 0.004694 0.000000 0.000000 0.000000
# 3 -0.007713 0.004694 0.034583 0.000000 0.000000 0.000000
# 4 0.000000 0.000000 0.000000 0.086652 0.000000 0.000000
# 5 0.000000 0.000000 0.000000 0.000000 0.025970 0.000000
# 6 0.000000 0.000000 0.000000 0.000000 0.000000 0.062555
#
#
# Mechanical properties :
#
#
# Convention : Reuss Voigt Hill
#
# Bulk Modulus (GPa) = 22.23525 33.39305 27.81415
# Shear Modulus (GPa) = 19.37958 27.90310 23.64134
#
# Velocity S-wave (km/s) = 2.91132 3.49337 3.21554
# Velocity P-wave (km/s) = 4.58539 5.55664 5.09422
#
# Compressibility (1/GPa) = 0.04497363
#
# Stress axis : x y z
#
# Youngs Moduli (GPa) = 83.36531 101.77734 28.91590
#
# Poissons Ratio (x) = 0.27439 0.22303
# Poissons Ratio (y) = 0.22475 -0.13573
# Poissons Ratio (z) = 0.64300 -0.47774
#
# Static dielectric constant tensor:
#      x y z
#    x 1.929650 0.000000 0.000000 
#    y 0.000000 2.013080 0.000000 
#    z 0.000000 0.000000 1.926660 
# 
# From -- ./inp_files/43469.got.cif
#   From: 2010.05.17/outbox.cif.g08.bks.cpg/sg22_22_cif.got.tgz:43469.got - 2010.06.03 23:40:54.
