data_PCOD9328438
_publ_section_title
;
Structure prediction by ZEFSAII (Michael W. Deem and Ramdas Pophale) SiO2 
 PCOD9328438
Probable space group: F 2 2 2
;
_chemical_formula_sum "Si O2"
_cell_formula_units_Z 64
_cell_length_a 19.027539
_cell_length_b 5.627201
_cell_length_c 25.728911
_cell_angle_alpha 90.000000
_cell_angle_beta 90.000000
_cell_angle_gamma 90.000000
_cell_volume 2754.840465
_symmetry_space_group_name_H-M "F 2 2 2"
_symmetry_group_IT_number 22
_symmetry_cell_setting 'orthorhombic'
loop_
_space_group_symop_operation_xyz
x,y,z
-x,-y,z
x,-y,-z
-x,y,-z
x,1/2+y,1/2+z
-x,1/2-y,1/2+z
x,1/2-y,1/2-z
-x,1/2+y,1/2-z
1/2+x,y,1/2+z
1/2-x,-y,1/2+z
1/2+x,-y,1/2-z
1/2-x,y,1/2-z
1/2+x,1/2+y,z
1/2-x,1/2-y,z
1/2+x,1/2-y,-z
1/2-x,1/2+y,-z
loop_
_atom_site_type_symbol
_atom_site_label
_atom_site_fract_x
_atom_site_fract_y
_atom_site_fract_z
Si Si1 0.151910 0.116927 0.195253
Si Si2 0.250000 0.750000 0.139442
Si Si3 0.324921 0.372759 0.409109
Si Si4 0.027485 0.747811 0.941210
Si Si5 0.000000 0.000000 0.780500
O O1 0.162788 0.250000 0.250000
O O2 0.151435 0.304484 0.149038
O O3 0.213128 0.938692 0.177327
O O4 0.076527 0.988906 0.193461
O O5 0.191842 0.648182 0.099426
O O6 0.250000 0.250000 0.421284
O O7 0.388486 0.281577 0.443380
O O8 0.000000 0.500000 0.915606
O O9 0.000000 0.000000 0.918433
O O10 0.000000 0.747182 0.000000
O O11 0.995405 0.250000 0.750000
#
# Coordination Sequence:
#
# PCOD9328438 Si02
#       5
#    16   8  16  16   8
#     4  10  24  42  61  97 138 190 243 290 355 412
#     4  10  24  41  66  98 140 194 244 304 350 427
#     4  10  24  42  68 102 141 187 235 299 359 429
#     4  10  24  47  75 107 139 182 237 296 369 443
#     4  10  24  42  58  88 131 178 239 292 338 402
#
# _framework density 23.231836999999999
#
# number of rings (size 3 to 8) (size 9 to 14) (size 15 to 20)
#    0.000    2.000    0.000    0.000   15.750    5.500 
#    2.250    5.000    0.000    0.000    0.000    0.000 
#    0.000    0.000    0.000    0.000    0.000    0.000 
#
# Total GULP energy -89239.718516 kJ/mol
# GULP energy per Si atom -5577.482407 kJ/mol
# Density = 2.317896 g / cm^3
# Si number density = 23.231837 Si / 1000 Ang^3
#
#
#
# Elastic Constant Matrix: (Units=GPa)
#
#
# Indices 1 2 3 4 5 6 
#
# 1 174.1477 33.1906 46.0746 -0.0003 0.0002 0.0004
# 2 33.1906 125.2806 11.3242 -0.0011 0.0017 0.0017
# 3 46.0746 11.3242 66.5053 0.0001 0.0000 0.0002
# 4 -0.0003 -0.0011 0.0001 4.9813 0.0004 -0.0006
# 5 0.0002 0.0017 0.0000 0.0004 16.8776 -0.0002
# 6 0.0004 0.0017 0.0002 -0.0006 -0.0002 85.7402
#
#
#
# Elastic Compliance Matrix: (Units=1/GPa)
#
#
# Indices 1 2 3 4 5 6 
#
# 1 0.007298 -0.001500 -0.004801 0.000000 0.000000 0.000000
# 2 -0.001500 0.008415 -0.000394 0.000002 -0.000001 0.000000
# 3 -0.004801 -0.000394 0.018429 -0.000001 0.000000 0.000000
# 4 0.000000 0.000002 -0.000001 0.200751 -0.000004 0.000002
# 5 0.000000 -0.000001 0.000000 -0.000004 0.059250 0.000000
# 6 0.000000 0.000000 0.000000 0.000002 0.000000 0.011663
#
#
# Mechanical properties :
#
#
# Convention : Reuss Voigt Hill
#
# Bulk Modulus (GPa) = 48.18364 60.79027 54.48695
# Shear Modulus (GPa) = 15.33208 39.87609 27.60409
#
# Velocity S-wave (km/s) = 2.57176 4.14749 3.45077
# Velocity P-wave (km/s) = 5.44095 7.01136 6.27547
#
# Compressibility (1/GPa) = 0.02075393
#
# Stress axis : x y z
#
# Youngs Moduli (GPa) = 137.01960 118.83576 54.26083
#
# Poissons Ratio (x) = 0.17820 0.26050
# Poissons Ratio (y) = 0.20547 0.02138
# Poissons Ratio (z) = 0.65781 0.04682
#
# Static dielectric constant tensor:
#      x y z
#    x 1.977730 0.000000 0.000000 
#    y 0.000000 2.510320 -0.000010 
#    z 0.000000 -0.000010 1.470150 
# 
# From -- ./inp_files/34208.got.cif
#   From: 2010.05.17/outbox.cif.g08.bks.cpg/sg22_18_cif.got.tgz:34208.got - 2010.06.03 23:40:54.
