data_PCOD9328310
_publ_section_title
;
Structure prediction by ZEFSAII (Michael W. Deem and Ramdas Pophale) SiO2 
 PCOD9328310
Probable space group: F 2 2 2
;
_chemical_formula_sum "Si O2"
_cell_formula_units_Z 116
_cell_length_a 26.247837
_cell_length_b 24.365427
_cell_length_c 8.269224
_cell_angle_alpha 90.000000
_cell_angle_beta 90.000000
_cell_angle_gamma 90.000000
_cell_volume 5288.497502
_symmetry_space_group_name_H-M "F 2 2 2"
_symmetry_group_IT_number 22
_symmetry_cell_setting 'orthorhombic'
loop_
_space_group_symop_operation_xyz
x,y,z
-x,-y,z
x,-y,-z
-x,y,-z
x,1/2+y,1/2+z
-x,1/2-y,1/2+z
x,1/2-y,1/2-z
-x,1/2+y,1/2-z
1/2+x,y,1/2+z
1/2-x,-y,1/2+z
1/2+x,-y,1/2-z
1/2-x,y,1/2-z
1/2+x,1/2+y,z
1/2-x,1/2-y,z
1/2+x,1/2-y,-z
1/2-x,1/2+y,-z
loop_
_atom_site_type_symbol
_atom_site_label
_atom_site_fract_x
_atom_site_fract_y
_atom_site_fract_z
Si Si1 0.697165 0.539018 0.843797
Si Si2 0.472756 0.188614 0.176091
Si Si3 0.500000 0.500000 0.000000
Si Si4 0.048209 0.104986 0.834897
Si Si5 0.140613 0.139644 0.366181
Si Si6 0.388144 0.549260 0.412226
Si Si7 0.190928 0.743961 0.945999
Si Si8 0.650605 0.856993 0.504440
O O1 0.750000 0.532872 0.750000
O O2 0.649587 0.527429 0.725301
O O3 0.695381 0.500000 0.000000
O O4 0.686886 0.601850 0.898490
O O5 0.470186 0.250000 0.250000
O O6 0.503678 0.148067 0.297752
O O7 0.416321 0.163776 0.155165
O O8 0.500000 0.190662 0.000000
O O9 0.531617 0.455742 0.104950
O O10 0.074782 0.093398 0.664517
O O11 0.092553 0.127720 0.950946
O O12 0.142953 0.081908 0.453730
O O13 0.170546 0.183426 0.475276
O O14 0.161424 0.133875 0.185058
O O15 0.416604 0.500000 0.500000
O O16 0.184618 0.750000 0.750000
O O17 0.250000 0.750000 0.983865
O O18 0.160544 0.792721 0.031500
#
# Coordination Sequence:
#
# PCOD9328310 Si02
#       8
#    16  16   4  16  16  16  16  16
#     4  11  25  45  69 102 136 181 236 292 362 431
#     4  12  27  45  70 104 141 194 250 313 376 445
#     4  12  28  40  74  96 144 192 246 294 368 444
#     4  11  27  44  67 102 140 189 244 300 363 445
#     4  11  23  43  71 102 140 185 236 290 368 439
#     4  11  25  43  68  99 140 180 233 297 355 429
#     4   9  20  40  69 104 134 178 230 282 351 427
#     4  10  23  42  72  98 141 185 231 296 361 435
#
# _framework density 21.934394999999999
#
# number of rings (size 3 to 8) (size 9 to 14) (size 15 to 20)
#    0.000    1.241    1.379    3.310   14.483    0.000 
#    2.483    2.069    0.000    0.000    0.000    0.000 
#    0.000    0.000    0.000    0.000    0.000    0.000 
#
# Total GULP energy -162099.018509 kJ/mol
# GULP energy per Si atom -5589.621328 kJ/mol
# Density = 2.188447 g / cm^3
# Si number density = 21.934395 Si / 1000 Ang^3
#
#
#
# Elastic Constant Matrix: (Units=GPa)
#
#
# Indices 1 2 3 4 5 6 
#
# 1 80.6741 31.7841 8.4784 0.0027 -0.0063 -0.0037
# 2 31.7841 131.4491 41.2525 0.0019 -0.0052 -0.0039
# 3 8.4784 41.2525 63.2262 0.0017 -0.0098 -0.0066
# 4 0.0027 0.0019 0.0017 39.1856 -0.0029 -0.0023
# 5 -0.0063 -0.0052 -0.0098 -0.0029 7.7770 0.0076
# 6 -0.0037 -0.0039 -0.0066 -0.0023 0.0076 20.4288
#
#
#
# Elastic Compliance Matrix: (Units=1/GPa)
#
#
# Indices 1 2 3 4 5 6 
#
# 1 0.013709 -0.003443 0.000408 -0.000001 0.000009 0.000002
# 2 -0.003443 0.010431 -0.006344 0.000000 -0.000004 -0.000001
# 3 0.000408 -0.006344 0.019901 -0.000001 0.000021 0.000005
# 4 -0.000001 0.000000 -0.000001 0.025520 0.000009 0.000003
# 5 0.000009 -0.000004 0.000021 0.000009 0.128584 -0.000048
# 6 0.000002 -0.000001 0.000005 0.000003 -0.000048 0.048950
#
#
# Mechanical properties :
#
#
# Convention : Reuss Voigt Hill
#
# Bulk Modulus (GPa) = 39.55244 48.70883 44.13063
# Shear Modulus (GPa) = 18.22951 26.40060 22.31506
#
# Velocity S-wave (km/s) = 2.88600 3.47308 3.19306
# Velocity P-wave (km/s) = 5.40154 6.19176 5.81010
#
# Compressibility (1/GPa) = 0.02528289
#
# Stress axis : x y z
#
# Youngs Moduli (GPa) = 72.94421 95.86870 50.24933
#
# Poissons Ratio (x) = 0.33006 -0.02050
# Poissons Ratio (y) = 0.25114 0.31879
# Poissons Ratio (z) = -0.02976 0.60820
#
# Static dielectric constant tensor:
#      x y z
#    x 1.793910 0.000000 0.000000 
#    y 0.000000 1.781260 0.000000 
#    z 0.000000 0.000000 1.869480 
# 
# From -- ./inp_files/14983.got.cif
#   From: 2010.05.17/outbox.cif.g08.bks.cpg/sg22_8_cif.got.tgz:14983.got - 2010.06.03 23:40:54.
