data_PCOD9328726
_publ_section_title
;
Structure prediction by ZEFSAII (Michael W. Deem and Ramdas Pophale) SiO2 
 PCOD9328726
Probable space group: F 2 2 2
;
_chemical_formula_sum "Si O2"
_cell_formula_units_Z 92
_cell_length_a 8.576863
_cell_length_b 22.700446
_cell_length_c 21.159512
_cell_angle_alpha 90.000000
_cell_angle_beta 90.000000
_cell_angle_gamma 90.000000
_cell_volume 4119.727689
_symmetry_space_group_name_H-M "F 2 2 2"
_symmetry_group_IT_number 22
_symmetry_cell_setting 'orthorhombic'
loop_
_space_group_symop_operation_xyz
x,y,z
-x,-y,z
x,-y,-z
-x,y,-z
x,1/2+y,1/2+z
-x,1/2-y,1/2+z
x,1/2-y,1/2-z
-x,1/2+y,1/2-z
1/2+x,y,1/2+z
1/2-x,-y,1/2+z
1/2+x,-y,1/2-z
1/2-x,y,1/2-z
1/2+x,1/2+y,z
1/2-x,1/2-y,z
1/2+x,1/2-y,-z
1/2-x,1/2+y,-z
loop_
_atom_site_type_symbol
_atom_site_label
_atom_site_fract_x
_atom_site_fract_y
_atom_site_fract_z
Si Si1 0.951600 0.684765 0.924319
Si Si2 0.983802 0.796737 0.160449
Si Si3 0.062504 0.431396 0.150451
Si Si4 0.814021 0.437925 0.978447
Si Si5 0.250000 0.250000 0.750000
Si Si6 0.381710 0.840259 0.451365
Si Si7 0.250000 0.860171 0.750000
O O1 0.768498 0.694038 0.928157
O O2 0.030678 0.737057 0.882870
O O3 0.967038 0.623073 0.883990
O O4 0.000000 0.681522 0.000000
O O5 0.838033 0.817386 0.201136
O O6 0.130965 0.786791 0.206573
O O7 0.020659 0.849338 0.111617
O O8 0.193604 0.435808 0.096623
O O9 0.127697 0.402701 0.214066
O O10 0.000000 0.500000 0.156263
O O11 0.755681 0.500000 0.000000
O O12 0.700936 0.391757 0.010491
O O13 0.000000 0.436254 0.000000
O O14 0.500000 0.810203 0.500000
#
# Coordination Sequence:
#
# PCOD9328726 Si02
#       7
#    16  16  16  16   4  16   8
#     4  12  24  46  82 115 153 201 249 326 400 473
#     4  12  28  49  72 113 157 202 263 314 394 455
#     4  12  24  49  78 110 153 207 266 316 383 471
#     4  11  20  43  79 109 144 197 256 317 401 456
#     4  12  24  46  70 104 150 206 248 310 372 464
#     4  12  23  43  69 115 156 183 244 321 389 464
#     4  12  32  55  75 114 157 223 270 316 378 479
#
# _framework density 22.331572000000001
#
# number of rings (size 3 to 8) (size 9 to 14) (size 15 to 20)
#    0.000    0.174    6.957    2.609    0.000    3.478 
#    6.261    1.739    0.000    0.000    0.000    0.000 
#    0.000    0.000    0.000    0.000    0.000    0.000 
#
# Total GULP energy -128053.715864 kJ/mol
# GULP energy per Si atom -5567.552864 kJ/mol
# Density = 2.228074 g / cm^3
# Si number density = 22.331572 Si / 1000 Ang^3
#
#
#
# Elastic Constant Matrix: (Units=GPa)
#
#
# Indices 1 2 3 4 5 6 
#
# 1 93.2540 52.9082 58.4816 0.0000 0.0000 0.0000
# 2 52.9082 188.8645 59.6492 0.0000 0.0000 0.0000
# 3 58.4816 59.6492 150.2707 0.0000 0.0000 0.0000
# 4 0.0000 0.0000 0.0000 29.0942 0.0000 0.0000
# 5 0.0000 0.0000 0.0000 0.0000 62.0217 0.0000
# 6 0.0000 0.0000 0.0000 0.0000 0.0000 28.4605
#
#
#
# Elastic Compliance Matrix: (Units=1/GPa)
#
#
# Indices 1 2 3 4 5 6 
#
# 1 0.015348 -0.002759 -0.004878 0.000000 0.000000 0.000000
# 2 -0.002759 0.006550 -0.001526 0.000000 0.000000 0.000000
# 3 -0.004878 -0.001526 0.009159 0.000000 0.000000 0.000000
# 4 0.000000 0.000000 0.000000 0.034371 0.000000 0.000000
# 5 0.000000 0.000000 0.000000 0.000000 0.016123 0.000000
# 6 0.000000 0.000000 0.000000 0.000000 0.000000 0.035136
#
#
# Mechanical properties :
#
#
# Convention : Reuss Voigt Hill
#
# Bulk Modulus (GPa) = 78.55224 86.05191 82.30207
# Shear Modulus (GPa) = 35.90503 41.33863 38.62183
#
# Velocity S-wave (km/s) = 4.01411 4.30714 4.16320
# Velocity P-wave (km/s) = 7.53232 7.95944 7.74882
#
# Compressibility (1/GPa) = 0.01273038
#
# Stress axis : x y z
#
# Youngs Moduli (GPa) = 65.15657 152.67895 109.18494
#
# Poissons Ratio (x) = 0.42123 0.53258
# Poissons Ratio (y) = 0.17976 0.16663
# Poissons Ratio (z) = 0.31782 0.23301
#
# Static dielectric constant tensor:
#      x y z
#    x 1.823900 0.000000 0.000000 
#    y 0.000000 1.889210 0.000000 
#    z 0.000000 0.000000 1.871490 
# 
# From -- ./inp_files/41880.got.cif
#   From: 2010.05.17/outbox.cif.g08.bks.cpg/sg22_21_cif.got.tgz:41880.got - 2010.06.03 23:40:54.
