data_PCOD9328834
_publ_section_title
;
Structure prediction by ZEFSAII (Michael W. Deem and Ramdas Pophale) SiO2 
 PCOD9328834
Probable space group: F 2 2 2
;
_chemical_formula_sum "Si O2"
_cell_formula_units_Z 128
_cell_length_a 24.312464
_cell_length_b 22.827739
_cell_length_c 11.573338
_cell_angle_alpha 90.000000
_cell_angle_beta 90.000000
_cell_angle_gamma 90.000000
_cell_volume 6423.186186
_symmetry_space_group_name_H-M "F 2 2 2"
_symmetry_group_IT_number 22
_symmetry_cell_setting 'orthorhombic'
loop_
_space_group_symop_operation_xyz
x,y,z
-x,-y,z
x,-y,-z
-x,y,-z
x,1/2+y,1/2+z
-x,1/2-y,1/2+z
x,1/2-y,1/2-z
-x,1/2+y,1/2-z
1/2+x,y,1/2+z
1/2-x,-y,1/2+z
1/2+x,-y,1/2-z
1/2-x,y,1/2-z
1/2+x,1/2+y,z
1/2-x,1/2-y,z
1/2+x,1/2-y,-z
1/2-x,1/2+y,-z
loop_
_atom_site_type_symbol
_atom_site_label
_atom_site_fract_x
_atom_site_fract_y
_atom_site_fract_z
Si Si1 0.663788 0.586796 0.051489
Si Si2 0.045980 0.873733 0.904712
Si Si3 0.892904 0.371446 0.899655
Si Si4 0.004672 0.064566 0.307809
Si Si5 0.186182 0.817318 0.780801
Si Si6 0.191040 0.529196 0.310133
Si Si7 0.536816 0.746035 0.383301
Si Si8 0.114806 0.052749 0.590404
O O1 0.597539 0.585197 0.069574
O O2 0.681974 0.651214 0.094373
O O3 0.688070 0.535833 0.133825
O O4 0.679514 0.571419 0.919980
O O5 0.011213 0.888587 0.791374
O O6 0.068293 0.807768 0.892257
O O7 0.000000 0.876881 0.000000
O O8 0.937867 0.422609 0.872700
O O9 0.848475 0.361385 0.800719
O O10 0.927148 0.311655 0.898473
O O11 0.865878 0.389560 0.020480
O O12 0.050380 0.933622 0.382713
O O13 0.000000 0.000000 0.254851
O O14 0.168247 0.750000 0.750000
O O15 0.250000 0.818748 0.750000
O O16 0.250000 0.538195 0.250000
O O17 0.145640 0.539095 0.209850
O O18 0.500000 0.745648 0.500000
O O19 0.513299 0.750000 0.250000
O O20 0.125054 0.000000 0.500000
#
# Coordination Sequence:
#
# PCOD9328834 Si02
#       8
#    16  16  16  16  16  16  16  16
#     4  11  22  46  69  98 141 174 236 294 348 429
#     4  11  23  39  66  93 135 179 222 288 341 426
#     4  12  23  40  67  96 141 179 224 290 351 412
#     4  12  22  38  58  96 134 174 219 270 353 414
#     4  11  24  43  75 107 129 180 245 298 351 405
#     4  11  27  44  69  99 134 192 233 288 363 423
#     4  11  22  40  66  97 135 184 238 276 354 426
#     4  12  25  39  63  98 140 180 233 283 349 425
#
# _framework density 19.927803999999998
#
# number of rings (size 3 to 8) (size 9 to 14) (size 15 to 20)
#    0.000    0.625    3.750    4.875    3.500    1.250 
#    0.000    0.000    0.000    0.000    0.000    0.000 
#    0.000    0.000    0.000    0.000    0.000    0.000 
#
# Total GULP energy -178346.238559 kJ/mol
# GULP energy per Si atom -5573.319955 kJ/mol
# Density = 1.988245 g / cm^3
# Si number density = 19.927804 Si / 1000 Ang^3
#
#
#
# Elastic Constant Matrix: (Units=GPa)
#
#
# Indices 1 2 3 4 5 6 
#
# 1 86.2663 28.7626 41.4288 0.0000 0.0000 0.0000
# 2 28.7626 104.9177 53.4652 0.0000 0.0000 0.0000
# 3 41.4288 53.4652 165.2295 0.0001 -0.0001 0.0000
# 4 0.0000 0.0000 0.0001 33.3489 0.0000 0.0000
# 5 0.0000 0.0000 -0.0001 0.0000 30.8730 0.0000
# 6 0.0000 0.0000 0.0000 0.0000 0.0000 21.4999
#
#
#
# Elastic Compliance Matrix: (Units=1/GPa)
#
#
# Indices 1 2 3 4 5 6 
#
# 1 0.013664 -0.002395 -0.002651 0.000000 0.000000 0.000000
# 2 -0.002395 0.011833 -0.003228 0.000000 0.000000 0.000000
# 3 -0.002651 -0.003228 0.007762 0.000000 0.000000 0.000000
# 4 0.000000 0.000000 0.000000 0.029986 0.000000 0.000000
# 5 0.000000 0.000000 0.000000 0.000000 0.032391 0.000000
# 6 0.000000 0.000000 0.000000 0.000000 0.000000 0.046512
#
#
# Mechanical properties :
#
#
# Convention : Reuss Voigt Hill
#
# Bulk Modulus (GPa) = 59.84617 67.08075 63.46346
# Shear Modulus (GPa) = 30.43853 32.66148 31.55000
#
# Velocity S-wave (km/s) = 3.91249 4.05284 3.98328
# Velocity P-wave (km/s) = 7.10681 7.45893 7.28500
#
# Compressibility (1/GPa) = 0.01670951
#
# Stress axis : x y z
#
# Youngs Moduli (GPa) = 73.18696 84.50921 128.84009
#
# Poissons Ratio (x) = 0.20239 0.34156
# Poissons Ratio (y) = 0.17527 0.41596
# Poissons Ratio (z) = 0.19402 0.27284
#
# Static dielectric constant tensor:
#      x y z
#    x 1.736680 0.000000 0.000000 
#    y 0.000000 1.737470 0.000000 
#    z 0.000000 0.000000 1.849010 
# 
# From -- ./inp_files/24066.got.cif
#   From: 2010.05.17/outbox.cif.g08.bks.cpg/sg22_13_cif.got.tgz:24066.got - 2010.06.03 23:40:54.
