data_PCOD9328454
_publ_section_title
;
Structure prediction by ZEFSAII (Michael W. Deem and Ramdas Pophale) SiO2 
 PCOD9328454
Probable space group: F 2 2 2
;
_chemical_formula_sum "Si O2"
_cell_formula_units_Z 92
_cell_length_a 8.488886
_cell_length_b 20.964745
_cell_length_c 23.582337
_cell_angle_alpha 90.000000
_cell_angle_beta 90.000000
_cell_angle_gamma 90.000000
_cell_volume 4196.885559
_symmetry_space_group_name_H-M "F 2 2 2"
_symmetry_group_IT_number 22
_symmetry_cell_setting 'orthorhombic'
loop_
_space_group_symop_operation_xyz
x,y,z
-x,-y,z
x,-y,-z
-x,y,-z
x,1/2+y,1/2+z
-x,1/2-y,1/2+z
x,1/2-y,1/2-z
-x,1/2+y,1/2-z
1/2+x,y,1/2+z
1/2-x,-y,1/2+z
1/2+x,-y,1/2-z
1/2-x,y,1/2-z
1/2+x,1/2+y,z
1/2-x,1/2-y,z
1/2+x,1/2-y,-z
1/2-x,1/2+y,-z
loop_
_atom_site_type_symbol
_atom_site_label
_atom_site_fract_x
_atom_site_fract_y
_atom_site_fract_z
Si Si1 0.769524 0.426933 0.919103
Si Si2 0.701417 0.153903 0.186606
Si Si3 0.500000 0.403817 0.000000
Si Si4 0.310122 0.006578 0.689562
Si Si5 0.121404 0.295008 0.576964
Si Si6 0.500000 0.500000 0.500000
Si Si7 0.118730 0.795674 0.631874
O O1 0.612980 0.438287 0.956166
O O2 0.757827 0.466168 0.861647
O O3 0.798618 0.353984 0.901011
O O4 0.904064 0.453955 0.958869
O O5 0.750000 0.174233 0.250000
O O6 0.811370 0.184917 0.138470
O O7 0.521824 0.173746 0.170478
O O8 0.741738 0.078413 0.183999
O O9 0.399193 0.357189 0.960145
O O10 0.250000 0.981508 0.750000
O O11 0.500000 0.000000 0.688157
O O12 0.250000 0.250000 0.548599
O O13 0.969193 0.251943 0.588204
O O14 0.250000 0.750000 0.660904
#
# Coordination Sequence:
#
# PCOD9328454 Si02
#       7
#    16  16   8  16  16   4  16
#     4  12  29  48  74 112 148 197 255 308 386 446
#     4  10  24  48  77 104 150 199 251 315 383 442
#     4  12  26  44  70 100 153 191 240 296 372 452
#     4  11  27  49  81 107 150 200 259 320 381 451
#     4  10  24  42  69 102 142 197 238 297 370 442
#     4  12  32  44  80 104 154 194 248 336 364 458
#     4  11  24  47  73 110 150 193 256 308 374 456
#
# _framework density 21.921018
#
# number of rings (size 3 to 8) (size 9 to 14) (size 15 to 20)
#    0.000    1.043    1.739    2.087   18.261    3.130 
#    0.000    3.478    0.000    0.000    0.000    0.000 
#    0.000    0.000    0.000    0.000    0.000    0.000 
#
# Total GULP energy -128615.990902 kJ/mol
# GULP energy per Si atom -5591.999604 kJ/mol
# Density = 2.187112 g / cm^3
# Si number density = 21.921018 Si / 1000 Ang^3
#
#
#
# Elastic Constant Matrix: (Units=GPa)
#
#
# Indices 1 2 3 4 5 6 
#
# 1 110.3941 60.4495 46.7773 0.0000 0.0000 0.0000
# 2 60.4495 114.7230 63.2820 0.0000 0.0000 0.0000
# 3 46.7773 63.2820 151.4678 0.0000 0.0000 0.0000
# 4 0.0000 0.0000 0.0000-1272.2809 0.0000 0.0000
# 5 0.0000 0.0000 0.0000 0.0000 26.5029 0.0000
# 6 0.0000 0.0000 0.0000 0.0000 0.0000 28.2081
#
#
#
# Elastic Compliance Matrix: (Units=1/GPa)
#
#
# Indices 1 2 3 4 5 6 
#
# 1 0.012988 -0.006018 -0.001497 0.000000 0.000000 0.000000
# 2 -0.006018 0.014115 -0.004039 0.000000 0.000000 0.000000
# 3 -0.001497 -0.004039 0.008752 0.000000 0.000000 0.000000
# 4 0.000000 0.000000 0.000000 -0.000786 0.000000 0.000000
# 5 0.000000 0.000000 0.000000 0.000000 0.037732 0.000000
# 6 0.000000 0.000000 0.000000 0.000000 0.000000 0.035451
#
#
# Mechanical properties :
#
#
# Convention : Reuss Voigt Hill
#
# Bulk Modulus (GPa) = 78.44350 79.73359 79.08855
# Shear Modulus (GPa) = 36.87094 -229.77557 -96.45232
#
# Velocity S-wave (km/s) = 4.10566 -10.24926 -6.64044
# Velocity P-wave (km/s) = 7.63790 10.17895 4.75781
#
# Compressibility (1/GPa) = 0.01274803
#
# Stress axis : x y z
#
# Youngs Moduli (GPa) = 76.99417 70.84441 114.26366
#
# Poissons Ratio (x) = 0.42634 0.17103
# Poissons Ratio (y) = 0.46335 0.46149
# Poissons Ratio (z) = 0.11524 0.28613
#
# Static dielectric constant tensor:
#      x y z
#    x 1.838160 0.000000 0.000000 
#    y 0.000000 1.842730 0.000000 
#    z 0.000000 0.000000 1.766360 
# 
# From -- ./inp_files/47302.got.cif
#   From: 2010.05.17/outbox.cif.g08.bks.cpg/sg22_24_cif.got.tgz:47302.got - 2010.06.03 23:40:54.
