data_PCOD9328717
_publ_section_title
;
Structure prediction by ZEFSAII (Michael W. Deem and Ramdas Pophale) SiO2 
 PCOD9328717
Probable space group: F 2 2 2
;
_chemical_formula_sum "Si O2"
_cell_formula_units_Z 104
_cell_length_a 8.704342
_cell_length_b 21.569254
_cell_length_c 26.750822
_cell_angle_alpha 90.000000
_cell_angle_beta 90.000000
_cell_angle_gamma 90.000000
_cell_volume 5022.364201
_symmetry_space_group_name_H-M "F 2 2 2"
_symmetry_group_IT_number 22
_symmetry_cell_setting 'orthorhombic'
loop_
_space_group_symop_operation_xyz
x,y,z
-x,-y,z
x,-y,-z
-x,y,-z
x,1/2+y,1/2+z
-x,1/2-y,1/2+z
x,1/2-y,1/2-z
-x,1/2+y,1/2-z
1/2+x,y,1/2+z
1/2-x,-y,1/2+z
1/2+x,-y,1/2-z
1/2-x,y,1/2-z
1/2+x,1/2+y,z
1/2-x,1/2-y,z
1/2+x,1/2-y,-z
1/2-x,1/2+y,-z
loop_
_atom_site_type_symbol
_atom_site_label
_atom_site_fract_x
_atom_site_fract_y
_atom_site_fract_z
Si Si1 0.869613 0.947611 0.144890
Si Si2 0.750000 0.492476 0.750000
Si Si3 0.066742 0.270482 0.801752
Si Si4 0.500000 0.335638 0.500000
Si Si5 0.858618 0.096245 0.323552
Si Si6 0.061823 0.561991 0.917999
Si Si7 0.750000 0.750000 0.551612
Si Si8 0.429664 0.333868 0.869783
O O1 0.718116 0.954930 0.111294
O O2 0.937193 0.883177 0.124795
O O3 0.827632 0.953108 0.204646
O O4 0.000000 0.000000 0.136619
O O5 0.850608 0.541566 0.783092
O O6 0.999683 0.250000 0.750000
O O7 0.250000 0.250000 0.802789
O O8 0.051885 0.343296 0.805226
O O9 0.000710 0.227394 0.844214
O O10 0.436661 0.380670 0.456095
O O11 0.369221 0.290002 0.520208
O O12 0.690929 0.125298 0.336195
O O13 0.939500 0.076652 0.374290
O O14 0.000000 0.500000 0.943864
O O15 0.665287 0.802480 0.585477
#
# Coordination Sequence:
#
# PCOD9328717 Si02
#       8
#    16   8  16   8  16  16   8  16
#     4  12  28  41  70 107 151 195 245 305 355 434
#     4  12  24  40  69 108 153 198 246 292 358 442
#     4   9  17  30  58  92 126 181 229 279 338 416
#     4  12  29  50  82 110 139 194 238 318 382 452
#     4  11  20  39  68  98 143 190 242 291 356 437
#     4  12  25  49  72 104 148 192 244 297 372 441
#     4  12  26  50  79 108 140 181 254 306 392 444
#     4  11  20  44  67 103 142 184 240 305 364 430
#
# _framework density 20.707379
#
# number of rings (size 3 to 8) (size 9 to 14) (size 15 to 20)
#    0.000    0.769    6.923    2.077    4.308    0.000 
#    0.000    0.000    0.000    0.923    0.000    0.000 
#    0.000    0.000    0.000    0.000    0.000    0.000 
#
# Total GULP energy -144968.250667 kJ/mol
# GULP energy per Si atom -5575.701949 kJ/mol
# Density = 2.066025 g / cm^3
# Si number density = 20.707379 Si / 1000 Ang^3
#
#
#
# Elastic Constant Matrix: (Units=GPa)
#
#
# Indices 1 2 3 4 5 6 
#
# 1 60.1278 46.7227 43.2177 0.0000 0.0000 0.0000
# 2 46.7227 128.7278 60.1385 0.0000 0.0000 0.0000
# 3 43.2177 60.1385 121.8210 0.0000 0.0000 0.0000
# 4 0.0000 0.0000 0.0000 123.3967 0.0000 0.0000
# 5 0.0000 0.0000 0.0000 0.0000 52.3021 0.0000
# 6 0.0000 0.0000 0.0000 0.0000 0.0000 51.7317
#
#
#
# Elastic Compliance Matrix: (Units=1/GPa)
#
#
# Indices 1 2 3 4 5 6 
#
# 1 0.026118 -0.006695 -0.005961 0.000000 0.000000 0.000000
# 2 -0.006695 0.011813 -0.003457 0.000000 0.000000 0.000000
# 3 -0.005961 -0.003457 0.012030 0.000000 0.000000 0.000000
# 4 0.000000 0.000000 0.000000 0.008104 0.000000 0.000000
# 5 0.000000 0.000000 0.000000 0.000000 0.019120 0.000000
# 6 0.000000 0.000000 0.000000 0.000000 0.000000 0.019330
#
#
# Mechanical properties :
#
#
# Convention : Reuss Voigt Hill
#
# Bulk Modulus (GPa) = 56.38111 67.87047 62.12579
# Shear Modulus (GPa) = 37.13287 56.19262 46.66274
#
# Velocity S-wave (km/s) = 4.23924 5.21492 4.75219
# Velocity P-wave (km/s) = 7.15878 8.31310 7.75744
#
# Compressibility (1/GPa) = 0.01773644
#
# Stress axis : x y z
#
# Youngs Moduli (GPa) = 38.28783 84.65128 83.12730
#
# Poissons Ratio (x) = 0.56675 0.49549
# Poissons Ratio (y) = 0.25634 0.28733
# Poissons Ratio (z) = 0.22822 0.29260
#
# Static dielectric constant tensor:
#      x y z
#    x 1.775600 0.000000 0.000000 
#    y 0.000000 1.720050 0.000000 
#    z 0.000000 0.000000 1.518930 
# 
# From -- ./inp_files/52000.got.cif
#   From: 2010.05.17/outbox.cif.g08.bks.cpg/sg22_26_cif.got.tgz:52000.got - 2010.06.03 23:40:54.
