data_PCOD9328414
_publ_section_title
;
Structure prediction by ZEFSAII (Michael W. Deem and Ramdas Pophale) SiO2 
 PCOD9328414
Probable space group: F 2 2 2
;
_chemical_formula_sum "Si O2"
_cell_formula_units_Z 60
_cell_length_a 8.818127
_cell_length_b 19.087714
_cell_length_c 15.557013
_cell_angle_alpha 90.000000
_cell_angle_beta 90.000000
_cell_angle_gamma 90.000000
_cell_volume 2618.523544
_symmetry_space_group_name_H-M "F 2 2 2"
_symmetry_group_IT_number 22
_symmetry_cell_setting 'orthorhombic'
loop_
_space_group_symop_operation_xyz
x,y,z
-x,-y,z
x,-y,-z
-x,y,-z
x,1/2+y,1/2+z
-x,1/2-y,1/2+z
x,1/2-y,1/2-z
-x,1/2+y,1/2-z
1/2+x,y,1/2+z
1/2-x,-y,1/2+z
1/2+x,-y,1/2-z
1/2-x,y,1/2-z
1/2+x,1/2+y,z
1/2-x,1/2-y,z
1/2+x,1/2-y,-z
1/2-x,1/2+y,-z
loop_
_atom_site_type_symbol
_atom_site_label
_atom_site_fract_x
_atom_site_fract_y
_atom_site_fract_z
Si Si1 0.323815 0.021857 0.844967
Si Si2 0.629379 0.347911 0.108081
Si Si3 0.718335 0.875603 0.353047
Si Si4 0.750000 0.250000 0.537904
Si Si5 0.750000 0.750000 0.750000
O O1 0.250000 0.028023 0.750000
O O2 0.258806 0.091316 0.891447
O O3 0.500000 0.000000 0.834585
O O4 0.264432 0.951165 0.888083
O O5 0.458885 0.373286 0.122393
O O6 0.653334 0.299789 0.190675
O O7 0.651883 0.296346 0.027759
O O8 0.750000 0.873020 0.250000
O O9 0.807108 0.810983 0.397605
#
# Coordination Sequence:
#
# PCOD9328414 Si02
#       5
#    16  16  16   8   4
#     4  11  23  42  72 103 139 186 241 293 353 427
#     4  11  24  45  70 103 143 184 235 293 359 417
#     4  11  25  44  74 103 142 188 239 293 352 433
#     4  11  27  45  69 106 144 184 235 293 359 415
#     4  10  24  36  72  96 142 182 220 288 344 426
#
# _framework density 22.913675999999999
#
# number of rings (size 3 to 8) (size 9 to 14) (size 15 to 20)
#    0.000    1.067    1.333    5.200    3.733    5.333 
#    0.000    4.000    0.000    0.000    0.000    0.000 
#    0.000    0.000    0.000    0.000    0.000    0.000 
#
# Total GULP energy -83649.796298 kJ/mol
# GULP energy per Si atom -5576.653087 kJ/mol
# Density = 2.286152 g / cm^3
# Si number density = 22.913676 Si / 1000 Ang^3
#
#
#
# Elastic Constant Matrix: (Units=GPa)
#
#
# Indices 1 2 3 4 5 6 
#
# 1 173.5372 62.6093 23.6709 0.0000 0.0000 0.0000
# 2 62.6093 184.6877 44.6172 0.0000 0.0000 0.0000
# 3 23.6709 44.6172 95.6124 0.0000 0.0000 0.0000
# 4 0.0000 0.0000 0.0000 33.7243 0.0000 0.0000
# 5 0.0000 0.0000 0.0000 0.0000 16.7972 0.0000
# 6 0.0000 0.0000 0.0000 0.0000 0.0000 25.4418
#
#
#
# Elastic Compliance Matrix: (Units=1/GPa)
#
#
# Indices 1 2 3 4 5 6 
#
# 1 0.006603 -0.002078 -0.000665 0.000000 0.000000 0.000000
# 2 -0.002078 0.006756 -0.002638 0.000000 0.000000 0.000000
# 3 -0.000665 -0.002638 0.011855 0.000000 0.000000 0.000000
# 4 0.000000 0.000000 0.000000 0.029652 0.000000 0.000000
# 5 0.000000 0.000000 0.000000 0.000000 0.059534 0.000000
# 6 0.000000 0.000000 0.000000 0.000000 0.000000 0.039305
#
#
# Mechanical properties :
#
#
# Convention : Reuss Voigt Hill
#
# Bulk Modulus (GPa) = 69.19747 79.51468 74.35607
# Shear Modulus (GPa) = 29.53607 36.72200 33.12904
#
# Velocity S-wave (km/s) = 3.59418 4.00762 3.80652
# Velocity P-wave (km/s) = 6.89122 7.49612 7.20003
#
# Compressibility (1/GPa) = 0.01445140
#
# Stress axis : x y z
#
# Youngs Moduli (GPa) = 151.45177 148.01066 84.35422
#
# Poissons Ratio (x) = 0.30752 0.05611
# Poissons Ratio (y) = 0.31467 0.22256
# Poissons Ratio (z) = 0.10073 0.39052
#
# Static dielectric constant tensor:
#      x y z
#    x 1.859140 0.000000 0.000000 
#    y 0.000000 1.864910 0.000000 
#    z 0.000000 0.000000 1.857480 
# 
# From -- ./inp_files/34721.got.cif
#   From: 2010.05.17/outbox.cif.g08.bks.cpg/sg22_18_cif.got.tgz:34721.got - 2010.06.03 23:40:54.
