data_PCOD9328813
_publ_section_title
;
Structure prediction by ZEFSAII (Michael W. Deem and Ramdas Pophale) SiO2 
 PCOD9328813
Probable space group: F 2 2 2
;
_chemical_formula_sum "Si O2"
_cell_formula_units_Z 116
_cell_length_a 22.168794
_cell_length_b 29.457979
_cell_length_c 8.462757
_cell_angle_alpha 90.000000
_cell_angle_beta 90.000000
_cell_angle_gamma 90.000000
_cell_volume 5526.585417
_symmetry_space_group_name_H-M "F 2 2 2"
_symmetry_group_IT_number 22
_symmetry_cell_setting 'orthorhombic'
loop_
_space_group_symop_operation_xyz
x,y,z
-x,-y,z
x,-y,-z
-x,y,-z
x,1/2+y,1/2+z
-x,1/2-y,1/2+z
x,1/2-y,1/2-z
-x,1/2+y,1/2-z
1/2+x,y,1/2+z
1/2-x,-y,1/2+z
1/2+x,-y,1/2-z
1/2-x,y,1/2-z
1/2+x,1/2+y,z
1/2-x,1/2-y,z
1/2+x,1/2-y,-z
1/2-x,1/2+y,-z
loop_
_atom_site_type_symbol
_atom_site_label
_atom_site_fract_x
_atom_site_fract_y
_atom_site_fract_z
Si Si1 0.869365 0.703910 0.664262
Si Si2 0.591247 0.573943 0.503794
Si Si3 0.274075 0.854882 0.516374
Si Si4 0.029399 0.650352 0.168355
Si Si5 0.774245 0.547624 0.923830
Si Si6 0.060258 0.707914 0.669084
Si Si7 0.654981 0.341567 0.658418
Si Si8 0.500000 0.500000 0.500000
O O1 0.849920 0.750000 0.750000
O O2 0.814915 0.670908 0.610953
O O3 0.910938 0.677786 0.789545
O O4 0.911243 0.711956 0.505262
O O5 0.551714 0.598896 0.639807
O O6 0.653500 0.553353 0.566995
O O7 0.614394 0.615785 0.395667
O O8 0.548793 0.535543 0.425741
O O9 0.256539 0.907297 0.493349
O O10 0.311706 0.853182 0.678015
O O11 0.208817 0.831381 0.537727
O O12 0.982076 0.663823 0.305100
O O13 0.000000 0.664020 0.000000
O O14 0.750000 0.545938 0.750000
O O15 0.757497 0.500000 0.000000
O O16 0.025072 0.750000 0.750000
O O17 0.113806 0.700452 0.795710
#
# Coordination Sequence:
#
# PCOD9328813 Si02
#       8
#    16  16  16  16  16  16  16   4
#     4  11  24  41  64  96 132 177 230 283 340 411
#     4  11  22  38  66  92 137 164 221 276 344 411
#     4   9  21  41  67  92 134 172 230 273 356 409
#     4  12  22  39  63  90 127 176 216 283 337 398
#     4  11  24  40  67 100 131 177 226 286 341 417
#     4  11  22  40  66  94 125 170 229 276 331 402
#     4   9  19  40  67  92 124 180 208 279 343 413
#     4  12  20  36  56 108 118 172 208 262 334 408
#
# _framework density 20.989452
#
# number of rings (size 3 to 8) (size 9 to 14) (size 15 to 20)
#    0.000    1.379    2.759    2.483    3.862    0.000 
#    0.000    5.517    6.069    0.000    0.000    6.759 
#    0.000    0.000    0.000    0.000    0.000    0.000 
#
# Total GULP energy -161704.736897 kJ/mol
# GULP energy per Si atom -5576.025410 kJ/mol
# Density = 2.094168 g / cm^3
# Si number density = 20.989452 Si / 1000 Ang^3
#
#
#
# Elastic Constant Matrix: (Units=GPa)
#
#
# Indices 1 2 3 4 5 6 
#
# 1 111.7807 46.0373 34.1817 -0.0010 0.0001 0.0005
# 2 46.0373 86.4691 16.6762 0.0000 -0.0003 0.0000
# 3 34.1817 16.6762 53.8723 -0.0037 0.0001 0.0012
# 4 -0.0010 0.0000 -0.0037 -8.9855 0.0020 0.0014
# 5 0.0001 -0.0003 0.0001 0.0020 37.7253 -0.0008
# 6 0.0005 0.0000 0.0012 0.0014 -0.0008 47.5282
#
#
#
# Elastic Compliance Matrix: (Units=1/GPa)
#
#
# Indices 1 2 3 4 5 6 
#
# 1 0.013399 -0.005843 -0.006693 0.000001 0.000000 0.000000
# 2 -0.005843 0.014847 -0.000888 0.000001 0.000000 0.000000
# 3 -0.006693 -0.000888 0.023084 -0.000009 0.000000 -0.000001
# 4 0.000001 0.000001 -0.000009 -0.111291 0.000006 0.000003
# 5 0.000000 0.000000 0.000000 0.000006 0.026507 0.000000
# 6 0.000000 0.000000 -0.000001 0.000003 0.000000 0.021040
#
#
# Mechanical properties :
#
#
# Convention : Reuss Voigt Hill
#
# Bulk Modulus (GPa) = 40.84761 49.54584 45.19672
# Shear Modulus (GPa) = 221.26495 25.60207 123.43351
#
# Velocity S-wave (km/s) = 10.27843 3.49629 7.67692
# Velocity P-wave (km/s) = 12.66352 6.32101 10.00799
#
# Compressibility (1/GPa) = 0.02448124
#
# Stress axis : x y z
#
# Youngs Moduli (GPa) = 74.63069 67.35299 43.31975
#
# Poissons Ratio (x) = 0.39356 0.28994
# Poissons Ratio (y) = 0.43608 0.03849
# Poissons Ratio (z) = 0.49951 0.05984
#
# Static dielectric constant tensor:
#      x y z
#    x 1.823450 0.000000 0.000000 
#    y 0.000000 1.696930 0.000000 
#    z 0.000000 0.000000 1.733530 
# 
# From -- ./inp_files/14110.got.cif
#   From: 2010.05.17/outbox.cif.g08.bks.cpg/sg22_8_cif.got.tgz:14110.got - 2010.06.03 23:40:54.
