data_PCOD9328571
_publ_section_title
;
Structure prediction by ZEFSAII (Michael W. Deem and Ramdas Pophale) SiO2 
 PCOD9328571
Probable space group: F 2 2 2
;
_chemical_formula_sum "Si O2"
_cell_formula_units_Z 68
_cell_length_a 7.128800
_cell_length_b 24.948473
_cell_length_c 18.603864
_cell_angle_alpha 90.000000
_cell_angle_beta 90.000000
_cell_angle_gamma 90.000000
_cell_volume 3308.746965
_symmetry_space_group_name_H-M "F 2 2 2"
_symmetry_group_IT_number 22
_symmetry_cell_setting 'orthorhombic'
loop_
_space_group_symop_operation_xyz
x,y,z
-x,-y,z
x,-y,-z
-x,y,-z
x,1/2+y,1/2+z
-x,1/2-y,1/2+z
x,1/2-y,1/2-z
-x,1/2+y,1/2-z
1/2+x,y,1/2+z
1/2-x,-y,1/2+z
1/2+x,-y,1/2-z
1/2-x,y,1/2-z
1/2+x,1/2+y,z
1/2-x,1/2-y,z
1/2+x,1/2-y,-z
1/2-x,1/2+y,-z
loop_
_atom_site_type_symbol
_atom_site_label
_atom_site_fract_x
_atom_site_fract_y
_atom_site_fract_z
Si Si1 0.250000 0.250000 0.250000
Si Si2 0.919618 0.946336 0.294999
Si Si3 0.250000 0.122156 0.750000
Si Si4 0.500000 0.860191 0.500000
Si Si5 0.809116 0.964807 0.063204
Si Si6 0.420366 0.793774 0.355495
O O1 0.398741 0.226212 0.309595
O O2 0.750000 0.921312 0.250000
O O3 0.826456 0.961128 0.369785
O O4 0.099809 0.910083 0.296197
O O5 0.000000 0.000000 0.258003
O O6 0.355608 0.157486 0.693182
O O7 0.356445 0.904760 0.534447
O O8 0.450907 0.820064 0.434208
O O9 0.000000 0.000000 0.080305
O O10 0.722165 0.000000 0.000000
O O11 0.250000 0.750000 0.357368
#
# Coordination Sequence:
#
# PCOD9328571 Si02
#       6
#     4  16   8   8  16  16
#     4  12  26  52  78  98 140 188 226 308 392 402
#     4  12  25  41  69 104 145 189 239 287 343 422
#     4  12  27  46  73 106 142 189 245 290 366 432
#     4  10  25  44  78 104 138 190 237 294 358 434
#     4   9  22  45  70 102 150 187 232 292 361 424
#     4  12  27  51  73 108 142 182 243 307 359 438
#
# _framework density 20.551587000000001
#
# number of rings (size 3 to 8) (size 9 to 14) (size 15 to 20)
#    0.000    1.176    3.529    2.118   13.176    0.471 
#    0.000    0.000    0.000    0.000    0.000    0.000 
#    0.000    0.000    0.000    0.000    0.000    0.000 
#
# Total GULP energy -94671.564817 kJ/mol
# GULP energy per Si atom -5568.915577 kJ/mol
# Density = 2.050481 g / cm^3
# Si number density = 20.551587 Si / 1000 Ang^3
#
#
#
# Elastic Constant Matrix: (Units=GPa)
#
#
# Indices 1 2 3 4 5 6 
#
# 1 162.8684 75.9241 75.0693 0.0000 0.0000 0.0000
# 2 75.9241 102.2680 47.3784 0.0000 0.0000 0.0000
# 3 75.0693 47.3784 170.3124 0.0000 0.0000 0.0000
# 4 0.0000 0.0000 0.0000 83.6485 0.0000 0.0000
# 5 0.0000 0.0000 0.0000 0.0000 23.7771 0.0000
# 6 0.0000 0.0000 0.0000 0.0000 0.0000 38.5757
#
#
#
# Elastic Compliance Matrix: (Units=1/GPa)
#
#
# Indices 1 2 3 4 5 6 
#
# 1 0.010441 -0.006451 -0.002808 0.000000 0.000000 0.000000
# 2 -0.006451 0.015210 -0.001388 0.000000 0.000000 0.000000
# 3 -0.002808 -0.001388 0.007495 0.000000 0.000000 0.000000
# 4 0.000000 0.000000 0.000000 0.011955 0.000000 0.000000
# 5 0.000000 0.000000 0.000000 0.000000 0.042057 0.000000
# 6 0.000000 0.000000 0.000000 0.000000 0.000000 0.025923
#
#
# Mechanical properties :
#
#
# Convention : Reuss Voigt Hill
#
# Bulk Modulus (GPa) = 84.36071 92.46582 88.41327
# Shear Modulus (GPa) = 36.14643 45.00539 40.57591
#
# Velocity S-wave (km/s) = 4.19837 4.68469 4.44818
# Velocity P-wave (km/s) = 8.03985 8.62273 8.33638
#
# Compressibility (1/GPa) = 0.01185386
#
# Stress axis : x y z
#
# Youngs Moduli (GPa) = 95.77413 65.74461 133.41838
#
# Poissons Ratio (x) = 0.42411 0.37460
# Poissons Ratio (y) = 0.61783 0.18517
# Poissons Ratio (z) = 0.26890 0.09125
#
# Static dielectric constant tensor:
#      x y z
#    x 1.694550 0.000000 0.000000 
#    y 0.000000 1.761770 0.000000 
#    z 0.000000 0.000000 1.647120 
# 
# From -- ./inp_files/34886.got.cif
#   From: 2010.05.17/outbox.cif.g08.bks.cpg/sg22_18_cif.got.tgz:34886.got - 2010.06.03 23:40:54.
