data_PCOD9328463
_publ_section_title
;
Structure prediction by ZEFSAII (Michael W. Deem and Ramdas Pophale) SiO2 
 PCOD9328463
Probable space group: F 2 2 2
;
_chemical_formula_sum "Si O2"
_cell_formula_units_Z 80
_cell_length_a 17.326961
_cell_length_b 13.744756
_cell_length_c 16.148899
_cell_angle_alpha 90.000000
_cell_angle_beta 90.000000
_cell_angle_gamma 90.000000
_cell_volume 3845.938638
_symmetry_space_group_name_H-M "F 2 2 2"
_symmetry_group_IT_number 22
_symmetry_cell_setting 'orthorhombic'
loop_
_space_group_symop_operation_xyz
x,y,z
-x,-y,z
x,-y,-z
-x,y,-z
x,1/2+y,1/2+z
-x,1/2-y,1/2+z
x,1/2-y,1/2-z
-x,1/2+y,1/2-z
1/2+x,y,1/2+z
1/2-x,-y,1/2+z
1/2+x,-y,1/2-z
1/2-x,y,1/2-z
1/2+x,1/2+y,z
1/2-x,1/2-y,z
1/2+x,1/2-y,-z
1/2-x,1/2+y,-z
loop_
_atom_site_type_symbol
_atom_site_label
_atom_site_fract_x
_atom_site_fract_y
_atom_site_fract_z
Si Si1 0.827913 0.400700 0.796220
Si Si2 0.847473 0.941802 0.583154
Si Si3 0.750000 0.750000 0.078466
Si Si4 0.909042 0.246010 0.155246
Si Si5 0.442089 0.250000 0.250000
Si Si6 0.671349 0.402537 0.042832
O O1 0.750000 0.429761 0.750000
O O2 0.867922 0.490786 0.839623
O O3 0.800365 0.322446 0.865266
O O4 0.887705 0.342840 0.740320
O O5 0.880671 0.835640 0.599434
O O6 0.754321 0.933317 0.580986
O O7 0.870290 0.000000 0.500000
O O8 0.696095 0.680488 0.023129
O O9 0.875900 0.250000 0.250000
O O10 0.882728 0.147675 0.110546
O O11 0.000176 0.256678 0.172281
O O12 0.639526 0.500000 0.000000
#
# Coordination Sequence:
#
# PCOD9328463 Si02
#       6
#    16  16   8  16   8  16
#     4  12  23  40  71  95 125 179 231 285 325 397
#     4  11  22  40  68 101 130 173 231 278 331 399
#     4  12  19  40  67  96 130 158 218 288 329 376
#     4  10  24  43  65  97 146 179 208 279 342 410
#     4  10  25  44  61  94 142 174 224 268 349 402
#     4  11  21  38  69 104 132 167 227 278 334 394
#
# _framework density 20.801164
#
# number of rings (size 3 to 8) (size 9 to 14) (size 15 to 20)
#    0.600    0.400    8.000    0.000    2.800    1.600 
#    0.000    5.000    0.000    4.800    0.000    0.000 
#    0.000    0.000    0.000    0.000    0.000    0.000 
#
# Total GULP energy -111659.336719 kJ/mol
# GULP energy per Si atom -5582.966836 kJ/mol
# Density = 2.075382 g / cm^3
# Si number density = 20.801164 Si / 1000 Ang^3
#
#
#
# Elastic Constant Matrix: (Units=GPa)
#
#
# Indices 1 2 3 4 5 6 
#
# 1 51.9984 13.6444 19.0405 0.0000 0.0000 0.0000
# 2 13.6444 116.9308 47.6720 0.0000 0.0000 0.0000
# 3 19.0405 47.6720 76.8939 0.0000 0.0000 0.0000
# 4 0.0000 0.0000 0.0000 56.7581 0.0000 0.0000
# 5 0.0000 0.0000 0.0000 0.0000 273.9218 0.0000
# 6 0.0000 0.0000 0.0000 0.0000 0.0000 -11.5733
#
#
#
# Elastic Compliance Matrix: (Units=1/GPa)
#
#
# Indices 1 2 3 4 5 6 
#
# 1 0.021166 -0.000446 -0.004965 0.000000 0.000000 0.000000
# 2 -0.000446 0.011454 -0.006991 0.000000 0.000000 0.000000
# 3 -0.004965 -0.006991 0.018569 0.000000 0.000000 0.000000
# 4 0.000000 0.000000 0.000000 0.017619 0.000000 0.000000
# 5 0.000000 0.000000 0.000000 0.000000 0.003651 0.000000
# 6 0.000000 0.000000 0.000000 0.000000 0.000000 -0.086406
#
#
# Mechanical properties :
#
#
# Convention : Reuss Voigt Hill
#
# Bulk Modulus (GPa) = 37.89884 45.17077 41.53480
# Shear Modulus (GPa) = 254.44084 74.85240 164.64662
#
# Velocity S-wave (km/s) = 11.07186 6.00523 8.90643
# Velocity P-wave (km/s) = 13.47988 8.35742 11.21503
#
# Compressibility (1/GPa) = 0.02638603
#
# Stress axis : x y z
#
# Youngs Moduli (GPa) = 47.24485 87.30392 53.85452
#
# Poissons Ratio (x) = 0.03891 0.26738
# Poissons Ratio (y) = 0.02106 0.37649
# Poissons Ratio (z) = 0.23457 0.61034
#
# Static dielectric constant tensor:
#      x y z
#    x 1.718520 0.000000 0.000000 
#    y 0.000000 1.692690 0.000000 
#    z 0.000000 0.000000 1.785000 
# 
# From -- ./inp_files/37861.got.cif
#   From: 2010.05.17/outbox.cif.g08.bks.cpg/sg22_19_cif.got.tgz:37861.got - 2010.06.03 23:40:54.
