data_PCOD9328404
_publ_section_title
;
Structure prediction by ZEFSAII (Michael W. Deem and Ramdas Pophale) SiO2 
 PCOD9328404
Probable space group: F 2 2 2
;
_chemical_formula_sum "Si O2"
_cell_formula_units_Z 116
_cell_length_a 9.624758
_cell_length_b 18.388547
_cell_length_c 27.260202
_cell_angle_alpha 90.000000
_cell_angle_beta 90.000000
_cell_angle_gamma 90.000000
_cell_volume 4824.655434
_symmetry_space_group_name_H-M "F 2 2 2"
_symmetry_group_IT_number 22
_symmetry_cell_setting 'orthorhombic'
loop_
_space_group_symop_operation_xyz
x,y,z
-x,-y,z
x,-y,-z
-x,y,-z
x,1/2+y,1/2+z
-x,1/2-y,1/2+z
x,1/2-y,1/2-z
-x,1/2+y,1/2-z
1/2+x,y,1/2+z
1/2-x,-y,1/2+z
1/2+x,-y,1/2-z
1/2-x,y,1/2-z
1/2+x,1/2+y,z
1/2-x,1/2-y,z
1/2+x,1/2-y,-z
1/2-x,1/2+y,-z
loop_
_atom_site_type_symbol
_atom_site_label
_atom_site_fract_x
_atom_site_fract_y
_atom_site_fract_z
Si Si1 0.261048 0.830499 0.103817
Si Si2 0.217428 0.575470 0.572069
Si Si3 0.156872 0.865648 0.291526
Si Si4 0.500000 0.000000 0.500000
Si Si5 0.484157 0.338576 0.446105
Si Si6 0.331947 0.996015 0.669659
Si Si7 0.458245 0.802597 0.622239
Si Si8 0.613787 0.351176 0.773374
O O1 0.250000 0.750000 0.081070
O O2 0.333411 0.824669 0.157064
O O3 0.367849 0.872681 0.070063
O O4 0.100982 0.848166 0.112003
O O5 0.365614 0.600856 0.552250
O O6 0.228159 0.516789 0.615619
O O7 0.159833 0.647651 0.598967
O O8 0.103795 0.548376 0.533187
O O9 0.250000 0.829548 0.250000
O O10 0.005907 0.870800 0.266357
O O11 0.242489 0.940058 0.305132
O O12 0.500000 0.305173 0.500000
O O13 0.455391 0.274087 0.406521
O O14 0.325199 0.923966 0.701846
O O15 0.500000 0.000000 0.664889
O O16 0.443354 0.802741 0.681259
O O17 0.750000 0.319030 0.750000
#
# Coordination Sequence:
#
# PCOD9328404 Si02
#       8
#    16  16  16   4  16  16  16  16
#     4  10  24  45  70 103 141 183 243 308 378 443
#     4  11  26  46  73 107 151 189 257 306 386 454
#     4  12  22  41  71  99 139 200 239 298 370 453
#     4  12  28  44  82 108 152 216 238 318 400 472
#     4  11  27  49  78 111 146 194 257 326 392 454
#     4  11  22  42  67 102 142 192 248 300 357 458
#     4  10  23  48  77 105 146 195 255 315 376 472
#     4  11  25  42  68 104 148 193 250 310 371 451
#
# _framework density 24.043168000000001
#
# number of rings (size 3 to 8) (size 9 to 14) (size 15 to 20)
#    0.000    1.103    3.448    1.655    6.759    2.483 
#    0.000    1.724    6.069    0.000    0.000    0.000 
#    0.000    0.000    0.000    0.000    0.000    0.000 
#
# Total GULP energy -162009.666163 kJ/mol
# GULP energy per Si atom -5586.540213 kJ/mol
# Density = 2.398844 g / cm^3
# Si number density = 24.043168 Si / 1000 Ang^3
#
#
#
# Elastic Constant Matrix: (Units=GPa)
#
#
# Indices 1 2 3 4 5 6 
#
# 1 182.0820 44.2687 70.0654 0.0000 0.0000 0.0000
# 2 44.2687 98.8619 37.3805 0.0000 0.0000 0.0000
# 3 70.0654 37.3805 128.9575 0.0000 0.0000 0.0000
# 4 0.0000 0.0000 0.0000 32.2956 0.0000 0.0000
# 5 0.0000 0.0000 0.0000 0.0000 29.3214 0.0000
# 6 0.0000 0.0000 0.0000 0.0000 0.0000 4.4744
#
#
#
# Elastic Compliance Matrix: (Units=1/GPa)
#
#
# Indices 1 2 3 4 5 6 
#
# 1 0.007273 -0.001980 -0.003378 0.000000 0.000000 0.000000
# 2 -0.001980 0.011899 -0.002374 0.000000 0.000000 0.000000
# 3 -0.003378 -0.002374 0.010278 0.000000 0.000000 0.000000
# 4 0.000000 0.000000 0.000000 0.030964 0.000000 0.000000
# 5 0.000000 0.000000 0.000000 0.000000 0.034105 0.000000
# 6 0.000000 0.000000 0.000000 0.000000 0.000000 0.223491
#
#
# Mechanical properties :
#
#
# Convention : Reuss Voigt Hill
#
# Bulk Modulus (GPa) = 71.49030 79.25896 75.37463
# Shear Modulus (GPa) = 14.78701 30.43074 22.60888
#
# Velocity S-wave (km/s) = 2.48265 3.56149 3.06983
# Velocity P-wave (km/s) = 6.16577 7.06747 6.63196
#
# Compressibility (1/GPa) = 0.01398791
#
# Stress axis : x y z
#
# Youngs Moduli (GPa) = 137.49272 84.04052 97.29746
#
# Poissons Ratio (x) = 0.16637 0.32865
# Poissons Ratio (y) = 0.27218 0.23094
# Poissons Ratio (z) = 0.46443 0.19948
#
# Static dielectric constant tensor:
#      x y z
#    x 1.979970 0.000000 0.000000 
#    y 0.000000 1.990320 0.000000 
#    z 0.000000 0.000000 1.947670 
# 
# From -- ./inp_files/52121.got.cif
#   From: 2010.05.17/outbox.cif.g08.bks.cpg/sg22_27_cif.got.tgz:52121.got - 2010.06.03 23:40:54.
