data_PCOD9328993
_publ_section_title
;
Structure prediction by ZEFSAII (Michael W. Deem and Ramdas Pophale) SiO2 
 PCOD9328993
Probable space group: F 2 2 2
;
_chemical_formula_sum "Si O2"
_cell_formula_units_Z 72
_cell_length_a 15.837372
_cell_length_b 7.993799
_cell_length_c 25.310497
_cell_angle_alpha 90.000000
_cell_angle_beta 90.000000
_cell_angle_gamma 90.000000
_cell_volume 3204.328370
_symmetry_space_group_name_H-M "F 2 2 2"
_symmetry_group_IT_number 22
_symmetry_cell_setting 'orthorhombic'
loop_
_space_group_symop_operation_xyz
x,y,z
-x,-y,z
x,-y,-z
-x,y,-z
x,1/2+y,1/2+z
-x,1/2-y,1/2+z
x,1/2-y,1/2-z
-x,1/2+y,1/2-z
1/2+x,y,1/2+z
1/2-x,-y,1/2+z
1/2+x,-y,1/2-z
1/2-x,y,1/2-z
1/2+x,1/2+y,z
1/2-x,1/2-y,z
1/2+x,1/2-y,-z
1/2-x,1/2+y,-z
loop_
_atom_site_type_symbol
_atom_site_label
_atom_site_fract_x
_atom_site_fract_y
_atom_site_fract_z
Si Si1 0.000000 0.000000 0.896738
Si Si2 0.950769 0.148228 0.555976
Si Si3 0.600676 0.520749 0.716107
Si Si4 0.846519 0.390410 0.325659
Si Si5 0.198205 0.917669 0.621241
O O1 0.038400 0.838597 0.926030
O O2 0.924887 0.931716 0.861843
O O3 0.855507 0.082353 0.566617
O O4 0.000000 0.153740 0.500000
O O5 0.000000 0.000000 0.586922
O O6 0.500000 0.500000 0.724350
O O7 0.648338 0.500051 0.771977
O O8 0.631432 0.703717 0.695230
O O9 0.631679 0.401641 0.669361
O O10 0.764153 0.437999 0.360476
O O11 0.250000 0.750000 0.619079
#
# Coordination Sequence:
#
# PCOD9328993 Si02
#       5
#     8  16  16  16  16
#     4  12  21  46  76 108 146 206 247 314 390 472
#     4  11  26  50  76 104 142 194 260 332 403 462
#     4  11  24  42  67 109 157 213 244 301 373 473
#     4  11  24  40  69 105 157 199 259 297 374 470
#     4  12  24  43  68 104 147 192 253 316 381 455
#
# _framework density 22.469607
#
# number of rings (size 3 to 8) (size 9 to 14) (size 15 to 20)
#    0.000    0.667    3.333    5.000    0.000    3.556 
#    0.000    4.444    0.000    0.000    0.000    0.000 
#    0.000    0.000    0.000    0.000    0.000    0.000 
#
# Total GULP energy -100267.674572 kJ/mol
# GULP energy per Si atom -5570.426365 kJ/mol
# Density = 2.241847 g / cm^3
# Si number density = 22.469607 Si / 1000 Ang^3
#
#
#
# Elastic Constant Matrix: (Units=GPa)
#
#
# Indices 1 2 3 4 5 6 
#
# 1 150.2230 25.2441 53.8674 0.0000 0.0000 0.0000
# 2 25.2441 95.2044 13.4079 0.0000 0.0000 0.0000
# 3 53.8674 13.4079 94.9980 0.0000 0.0000 0.0000
# 4 0.0000 0.0000 0.0000 25.3511 0.0000 0.0000
# 5 0.0000 0.0000 0.0000 0.0000 -147.4401 0.0000
# 6 0.0000 0.0000 0.0000 0.0000 0.0000 51.1172
#
#
#
# Elastic Compliance Matrix: (Units=1/GPa)
#
#
# Indices 1 2 3 4 5 6 
#
# 1 0.008595 -0.001625 -0.004645 0.000000 0.000000 0.000000
# 2 -0.001625 0.011024 -0.000634 0.000000 0.000000 0.000000
# 3 -0.004645 -0.000634 0.013250 0.000000 0.000000 0.000000
# 4 0.000000 0.000000 0.000000 0.039446 0.000000 0.000000
# 5 0.000000 0.000000 0.000000 0.000000 -0.006782 0.000000
# 6 0.000000 0.000000 0.000000 0.000000 0.000000 0.019563
#
#
# Mechanical properties :
#
#
# Convention : Reuss Voigt Hill
#
# Bulk Modulus (GPa) = 52.46319 58.38492 55.42406
# Shear Modulus (GPa) = 47.50275 2.33269 24.91772
#
# Velocity S-wave (km/s) = 4.60291 1.02000 3.33371
# Velocity P-wave (km/s) = 7.18667 5.23713 6.28792
#
# Compressibility (1/GPa) = 0.01906098
#
# Stress axis : x y z
#
# Youngs Moduli (GPa) = 116.34289 90.71164 75.47343
#
# Poissons Ratio (x) = 0.14741 0.35054
# Poissons Ratio (y) = 0.18906 0.04789
# Poissons Ratio (z) = 0.54035 0.05755
#
# Static dielectric constant tensor:
#      x y z
#    x 1.871710 0.000000 0.000000 
#    y 0.000000 2.089170 0.000000 
#    z 0.000000 0.000000 1.808990 
# 
# From -- ./inp_files/15417.got.cif
#   From: 2010.05.17/outbox.cif.g08.bks.cpg/sg22_8_cif.got.tgz:15417.got - 2010.06.03 23:40:54.
