data_PCOD9328425
_publ_section_title
;
Structure prediction by ZEFSAII (Michael W. Deem and Ramdas Pophale) SiO2 
 PCOD9328425
Probable space group: F 2 2 2
;
_chemical_formula_sum "Si O2"
_cell_formula_units_Z 88
_cell_length_a 21.748455
_cell_length_b 20.239110
_cell_length_c 8.985008
_cell_angle_alpha 90.000000
_cell_angle_beta 90.000000
_cell_angle_gamma 90.000000
_cell_volume 3954.925338
_symmetry_space_group_name_H-M "F 2 2 2"
_symmetry_group_IT_number 22
_symmetry_cell_setting 'orthorhombic'
loop_
_space_group_symop_operation_xyz
x,y,z
-x,-y,z
x,-y,-z
-x,y,-z
x,1/2+y,1/2+z
-x,1/2-y,1/2+z
x,1/2-y,1/2-z
-x,1/2+y,1/2-z
1/2+x,y,1/2+z
1/2-x,-y,1/2+z
1/2+x,-y,1/2-z
1/2-x,y,1/2-z
1/2+x,1/2+y,z
1/2-x,1/2-y,z
1/2+x,1/2-y,-z
1/2-x,1/2+y,-z
loop_
_atom_site_type_symbol
_atom_site_label
_atom_site_fract_x
_atom_site_fract_y
_atom_site_fract_z
Si Si1 0.801879 0.352668 0.550047
Si Si2 0.646445 0.500000 0.500000
Si Si3 0.839421 0.096163 0.248983
Si Si4 0.982407 0.074974 0.173321
Si Si5 0.325719 0.299124 0.505492
Si Si6 0.099441 0.378000 0.190711
O O1 0.806328 0.400872 0.408971
O O2 0.730012 0.337341 0.583041
O O3 0.819154 0.278812 0.494468
O O4 0.851202 0.376614 0.672631
O O5 0.678969 0.461650 0.363990
O O6 0.610146 0.441814 0.585082
O O7 0.911769 0.087707 0.211703
O O8 0.828175 0.164748 0.336547
O O9 0.030122 0.121751 0.255683
O O10 0.000000 0.000000 0.216105
O O11 0.000000 0.080777 0.000000
O O12 0.385520 0.316099 0.411754
#
# Coordination Sequence:
#
# PCOD9328425 Si02
#       6
#    16   8  16  16  16  16
#     4  11  22  44  69  92 134 179 218 261 321 387
#     4  10  24  39  60 100 130 160 220 263 324 372
#     4  11  22  41  66  97 131 171 218 267 320 390
#     4  11  22  40  69  93 128 174 219 257 327 405
#     4  10  24  42  67  99 128 176 222 264 316 383
#     4  11  22  41  66  97 131 171 218 267 320 390
#
# _framework density 22.250737999999998
#
# number of rings (size 3 to 8) (size 9 to 14) (size 15 to 20)
#    0.000    1.273    3.636    2.182    0.000    7.273 
#    0.000   20.000    0.000    0.000    0.000    0.000 
#    0.000    0.000    0.000    0.000    0.000    0.000 
#
# Total GULP energy -122814.313976 kJ/mol
# GULP energy per Si atom -5582.468817 kJ/mol
# Density = 2.220009 g / cm^3
# Si number density = 22.250738 Si / 1000 Ang^3
#
#
#
# Elastic Constant Matrix: (Units=GPa)
#
#
# Indices 1 2 3 4 5 6 
#
# 1 122.3340 23.3293 14.5204 0.0002 -0.0001 -0.0001
# 2 23.3293 50.7580 10.4663 0.0001 -0.0001 -0.0001
# 3 14.5204 10.4663 82.5381 0.0005 -0.0003 -0.0002
# 4 0.0002 0.0001 0.0005 25.4253 -0.0002 -0.0002
# 5 -0.0001 -0.0001 -0.0003 -0.0002 30.3173 0.0001
# 6 -0.0001 -0.0001 -0.0002 -0.0002 0.0001 19.3878
#
#
#
# Elastic Compliance Matrix: (Units=1/GPa)
#
#
# Indices 1 2 3 4 5 6 
#
# 1 0.009055 -0.003936 -0.001094 0.000000 0.000000 0.000000
# 2 -0.003936 0.021941 -0.002090 0.000000 0.000000 0.000000
# 3 -0.001094 -0.002090 0.012573 0.000000 0.000000 0.000000
# 4 0.000000 0.000000 0.000000 0.039331 0.000000 0.000000
# 5 0.000000 0.000000 0.000000 0.000000 0.032984 0.000000
# 6 0.000000 0.000000 0.000000 0.000000 0.000000 0.051579
#
#
# Mechanical properties :
#
#
# Convention : Reuss Voigt Hill
#
# Bulk Modulus (GPa) = 34.09530 39.14023 36.61777
# Shear Modulus (GPa) = 26.11242 28.84701 27.47971
#
# Velocity S-wave (km/s) = 3.42943 3.60453 3.51807
# Velocity P-wave (km/s) = 5.57116 5.91204 5.74413
#
# Compressibility (1/GPa) = 0.02932955
#
# Stress axis : x y z
#
# Youngs Moduli (GPa) = 110.43842 45.57590 79.53524
#
# Poissons Ratio (x) = 0.17940 0.08700
# Poissons Ratio (y) = 0.43471 0.16622
# Poissons Ratio (z) = 0.12080 0.09525
#
# Static dielectric constant tensor:
#      x y z
#    x 1.831360 0.000000 0.000000 
#    y 0.000000 1.816760 0.000000 
#    z 0.000000 0.000000 1.854640 
# 
# From -- ./inp_files/13752.got.cif
#   From: 2010.05.17/outbox.cif.g08.bks.cpg/sg22_7_cif.got.tgz:13752.got - 2010.06.03 23:40:54.
