data_PCOD9328794
_publ_section_title
;
Structure prediction by ZEFSAII (Michael W. Deem and Ramdas Pophale) SiO2 
 PCOD9328794
Probable space group: F 2 2 2
;
_chemical_formula_sum "Si O2"
_cell_formula_units_Z 88
_cell_length_a 14.309397
_cell_length_b 16.405990
_cell_length_c 16.876056
_cell_angle_alpha 90.000000
_cell_angle_beta 90.000000
_cell_angle_gamma 90.000000
_cell_volume 3961.819938
_symmetry_space_group_name_H-M "F 2 2 2"
_symmetry_group_IT_number 22
_symmetry_cell_setting 'orthorhombic'
loop_
_space_group_symop_operation_xyz
x,y,z
-x,-y,z
x,-y,-z
-x,y,-z
x,1/2+y,1/2+z
-x,1/2-y,1/2+z
x,1/2-y,1/2-z
-x,1/2+y,1/2-z
1/2+x,y,1/2+z
1/2-x,-y,1/2+z
1/2+x,-y,1/2-z
1/2-x,y,1/2-z
1/2+x,1/2+y,z
1/2-x,1/2-y,z
1/2+x,1/2-y,-z
1/2-x,1/2+y,-z
loop_
_atom_site_type_symbol
_atom_site_label
_atom_site_fract_x
_atom_site_fract_y
_atom_site_fract_z
Si Si1 0.604386 0.538246 0.911371
Si Si2 0.856563 0.244957 0.845224
Si Si3 0.659209 0.420755 0.800341
Si Si4 0.500000 0.000000 0.194864
Si Si5 0.484255 0.644436 0.411873
Si Si6 0.641317 0.776392 0.657695
O O1 0.500000 0.500000 0.893037
O O2 0.682648 0.494093 0.858128
O O3 0.615540 0.632601 0.878162
O O4 0.619532 0.500000 0.000000
O O5 0.864043 0.250000 0.750000
O O6 0.750000 0.250000 0.871635
O O7 0.882013 0.150713 0.855834
O O8 0.920193 0.313033 0.882489
O O9 0.750000 0.395203 0.750000
O O10 0.579654 0.454309 0.743397
O O11 0.545517 0.069821 0.142135
O O12 0.500000 0.615909 0.500000
O O13 0.410417 0.715996 0.402143
O O14 0.610184 0.750000 0.750000
O O15 0.750000 0.750000 0.656029
#
# Coordination Sequence:
#
# PCOD9328794 Si02
#       6
#    16  16  16   8  16  16
#     4  11  26  47  75 112 151 194 259 322 379 447
#     4  11  21  45  69 102 126 175 236 303 353 417
#     4  12  24  43  75 101 136 183 246 295 361 435
#     4  12  25  46  65 104 138 194 234 290 357 458
#     4  12  27  44  71  99 149 184 235 294 378 444
#     4  11  27  50  75 108 150 205 253 309 387 472
#
# _framework density 22.212014
#
# number of rings (size 3 to 8) (size 9 to 14) (size 15 to 20)
#    0.000    0.545    4.545    3.000   10.182    0.727 
#    3.273    0.000    0.000    0.000    0.000    0.000 
#    0.000    0.000    0.000    0.000    0.000    0.000 
#
# Total GULP energy -122536.726098 kJ/mol
# GULP energy per Si atom -5569.851186 kJ/mol
# Density = 2.216146 g / cm^3
# Si number density = 22.212014 Si / 1000 Ang^3
#
#
#
# Elastic Constant Matrix: (Units=GPa)
#
#
# Indices 1 2 3 4 5 6 
#
# 1 78.8971 9.2715 13.2641 0.0000 0.0000 0.0000
# 2 9.2715 167.8144 31.5896 0.0000 0.0000 0.0000
# 3 13.2641 31.5896 88.1213 0.0000 0.0000 0.0000
# 4 0.0000 0.0000 0.0000 49.3470 0.0000 0.0000
# 5 0.0000 0.0000 0.0000 0.0000 -5.9060 0.0000
# 6 0.0000 0.0000 0.0000 0.0000 0.0000 -3.2602
#
#
#
# Elastic Compliance Matrix: (Units=1/GPa)
#
#
# Indices 1 2 3 4 5 6 
#
# 1 0.013026 -0.000376 -0.001826 0.000000 0.000000 0.000000
# 2 -0.000376 0.006401 -0.002238 0.000000 0.000000 0.000000
# 3 -0.001826 -0.002238 0.012425 0.000000 0.000000 0.000000
# 4 0.000000 0.000000 0.000000 0.020265 0.000000 0.000000
# 5 0.000000 0.000000 0.000000 0.000000 -0.169320 0.000000
# 6 0.000000 0.000000 0.000000 0.000000 0.000000 -0.306734
#
#
# Mechanical properties :
#
#
# Convention : Reuss Voigt Hill
#
# Bulk Modulus (GPa) = 43.53077 49.23145 46.38111
# Shear Modulus (GPa) = -12.27296 26.75002 7.23853
#
# Velocity S-wave (km/s) = -2.35316 3.47407 1.80718
# Velocity P-wave (km/s) = 3.50103 6.18908 5.02802
#
# Compressibility (1/GPa) = 0.02297225
#
# Stress axis : x y z
#
# Youngs Moduli (GPa) = 76.77021 156.22496 80.48216
#
# Poissons Ratio (x) = 0.05873 0.14695
# Poissons Ratio (y) = 0.02886 0.18012
# Poissons Ratio (z) = 0.14017 0.34964
#
# Static dielectric constant tensor:
#      x y z
#    x 1.820060 0.000000 0.000000 
#    y 0.000000 2.135540 0.000000 
#    z 0.000000 0.000000 1.944240 
# 
# From -- ./inp_files/37138.got.cif
#   From: 2010.05.17/outbox.cif.g08.bks.cpg/sg22_19_cif.got.tgz:37138.got - 2010.06.03 23:40:54.
