data_PCOD9328859
_publ_section_title
;
Structure prediction by ZEFSAII (Michael W. Deem and Ramdas Pophale) SiO2 
 PCOD9328859
Probable space group: F 2 2 2
;
_chemical_formula_sum "Si O2"
_cell_formula_units_Z 88
_cell_length_a 13.790689
_cell_length_b 25.755627
_cell_length_c 12.517259
_cell_angle_alpha 90.000000
_cell_angle_beta 90.000000
_cell_angle_gamma 90.000000
_cell_volume 4445.978211
_symmetry_space_group_name_H-M "F 2 2 2"
_symmetry_group_IT_number 22
_symmetry_cell_setting 'orthorhombic'
loop_
_space_group_symop_operation_xyz
x,y,z
-x,-y,z
x,-y,-z
-x,y,-z
x,1/2+y,1/2+z
-x,1/2-y,1/2+z
x,1/2-y,1/2-z
-x,1/2+y,1/2-z
1/2+x,y,1/2+z
1/2-x,-y,1/2+z
1/2+x,-y,1/2-z
1/2-x,y,1/2-z
1/2+x,1/2+y,z
1/2-x,1/2-y,z
1/2+x,1/2-y,-z
1/2-x,1/2+y,-z
loop_
_atom_site_type_symbol
_atom_site_label
_atom_site_fract_x
_atom_site_fract_y
_atom_site_fract_z
Si Si1 0.332166 0.893034 0.826915
Si Si2 0.331712 0.202750 0.633480
Si Si3 0.613310 0.495001 0.370854
Si Si4 0.500000 0.741138 0.000000
Si Si5 0.186367 0.114090 0.579592
Si Si6 0.517855 0.676503 0.675217
O O1 0.250000 0.872247 0.750000
O O2 0.430210 0.861999 0.798602
O O3 0.342902 0.955003 0.814000
O O4 0.304017 0.889077 0.951785
O O5 0.250000 0.250000 0.638520
O O6 0.402046 0.211442 0.532338
O O7 0.271830 0.149775 0.624166
O O8 0.408812 0.194723 0.730774
O O9 0.500000 0.500000 0.341706
O O10 0.615665 0.500000 0.500000
O O11 0.668041 0.440179 0.358799
O O12 0.479361 0.775758 0.895003
O O13 0.087035 0.144969 0.596041
#
# Coordination Sequence:
#
# PCOD9328859 Si02
#       6
#    16  16  16   8  16  16
#     4  11  23  40  64  99 137 169 213 270 350 398
#     4  12  27  44  68  98 129 179 230 270 324 392
#     4   9  18  37  66  92 124 169 222 269 322 388
#     4  12  26  42  66  91 137 164 220 272 326 374
#     4  11  22  42  67  94 130 174 221 277 322 389
#     4  12  23  43  67  96 127 171 225 274 316 400
#
# _framework density 19.793168999999999
#
# number of rings (size 3 to 8) (size 9 to 14) (size 15 to 20)
#    0.000    0.909    5.455    1.091    5.091    1.455 
#    0.000    0.000    0.000    0.000    0.000    0.000 
#    0.000    0.000    0.000    0.000    0.000    0.000 
#
# Total GULP energy -122632.264853 kJ/mol
# GULP energy per Si atom -5574.193857 kJ/mol
# Density = 1.974812 g / cm^3
# Si number density = 19.793169 Si / 1000 Ang^3
#
#
#
# Elastic Constant Matrix: (Units=GPa)
#
#
# Indices 1 2 3 4 5 6 
#
# 1 152.2570 78.7081 71.4368 0.0000 0.0000 0.0000
# 2 78.7081 140.9313 36.2441 0.0000 0.0000 0.0000
# 3 71.4368 36.2441 74.9835 0.0000 0.0000 0.0000
# 4 0.0000 0.0000 0.0000 9.3514 0.0000 0.0000
# 5 0.0000 0.0000 0.0000 0.0000 38.6018 0.0000
# 6 0.0000 0.0000 0.0000 0.0000 0.0000 44.6613
#
#
#
# Elastic Compliance Matrix: (Units=1/GPa)
#
#
# Indices 1 2 3 4 5 6 
#
# 1 0.014623 -0.005235 -0.011401 0.000000 0.000000 0.000000
# 2 -0.005235 0.009977 0.000165 0.000000 0.000000 0.000000
# 3 -0.011401 0.000165 0.024119 0.000000 0.000000 0.000000
# 4 0.000000 0.000000 0.000000 0.106936 0.000000 0.000000
# 5 0.000000 0.000000 0.000000 0.000000 0.025906 0.000000
# 6 0.000000 0.000000 0.000000 0.000000 0.000000 0.022391
#
#
# Mechanical properties :
#
#
# Convention : Reuss Voigt Hill
#
# Bulk Modulus (GPa) = 63.38695 82.32774 72.85735
# Shear Modulus (GPa) = 20.64818 30.64174 25.64496
#
# Velocity S-wave (km/s) = 3.23336 3.93885 3.60341
# Velocity P-wave (km/s) = 6.78481 7.89749 7.36220
#
# Compressibility (1/GPa) = 0.01577612
#
# Stress axis : x y z
#
# Youngs Moduli (GPa) = 68.38445 100.23237 41.46170
#
# Poissons Ratio (x) = 0.52469 0.47272
# Poissons Ratio (y) = 0.35797 -0.00683
# Poissons Ratio (z) = 0.77967 -0.01651
#
# Static dielectric constant tensor:
#      x y z
#    x 1.719160 0.000000 0.000000 
#    y 0.000000 1.772470 0.000000 
#    z 0.000000 0.000000 1.702770 
# 
# From -- ./inp_files/18425.got.cif
#   From: 2010.05.17/outbox.cif.g08.bks.cpg/sg22_10_cif.got.tgz:18425.got - 2010.06.03 23:40:54.
