data_PCOD9328768
_publ_section_title
;
Structure prediction by ZEFSAII (Michael W. Deem and Ramdas Pophale) SiO2 
 PCOD9328768
Probable space group: F 2 2 2
;
_chemical_formula_sum "Si O2"
_cell_formula_units_Z 80
_cell_length_a 7.353255
_cell_length_b 18.790983
_cell_length_c 24.819100
_cell_angle_alpha 90.000000
_cell_angle_beta 90.000000
_cell_angle_gamma 90.000000
_cell_volume 3429.376405
_symmetry_space_group_name_H-M "F 2 2 2"
_symmetry_group_IT_number 22
_symmetry_cell_setting 'orthorhombic'
loop_
_space_group_symop_operation_xyz
x,y,z
-x,-y,z
x,-y,-z
-x,y,-z
x,1/2+y,1/2+z
-x,1/2-y,1/2+z
x,1/2-y,1/2-z
-x,1/2+y,1/2-z
1/2+x,y,1/2+z
1/2-x,-y,1/2+z
1/2+x,-y,1/2-z
1/2-x,y,1/2-z
1/2+x,1/2+y,z
1/2-x,1/2-y,z
1/2+x,1/2-y,-z
1/2-x,1/2+y,-z
loop_
_atom_site_type_symbol
_atom_site_label
_atom_site_fract_x
_atom_site_fract_y
_atom_site_fract_z
Si Si1 0.439897 0.821235 0.780431
Si Si2 0.778923 0.830056 0.400507
Si Si3 0.421969 0.578280 0.107303
Si Si4 0.223570 0.916868 0.003198
Si Si5 0.162058 0.043411 0.701338
O O1 0.510458 0.750000 0.750000
O O2 0.250000 0.833063 0.750000
O O3 0.396689 0.821024 0.845399
O O4 0.572648 0.886775 0.773914
O O5 0.750000 0.750000 0.420238
O O6 0.588523 0.868195 0.384382
O O7 0.822614 0.876002 0.454702
O O8 0.500000 0.500000 0.089993
O O9 0.267219 0.605607 0.065527
O O10 0.318429 0.562686 0.161292
O O11 0.000000 0.907386 0.000000
O O12 0.270661 0.000000 0.000000
O O13 0.250000 0.999395 0.750000
O O14 0.000000 0.000000 0.673689
#
# Coordination Sequence:
#
# PCOD9328768 Si02
#       5
#    16  16  16  16  16
#     4  11  23  45  70  96 141 194 234 293 377 445
#     4  11  21  40  73 107 138 191 242 294 366 449
#     4  11  21  43  73 103 144 192 244 303 369 443
#     4   9  17  37  70 101 134 186 239 287 361 439
#     4  12  26  42  67 105 140 183 250 313 364 438
#
# _framework density 23.327857000000002
#
# number of rings (size 3 to 8) (size 9 to 14) (size 15 to 20)
#    0.000    1.200    6.000    3.600    0.000    0.400 
#    0.000    7.000    0.000    0.000    0.000    0.000 
#    0.000    0.000    0.000    0.000    0.000    0.000 
#
# Total GULP energy -111534.996886 kJ/mol
# GULP energy per Si atom -5576.749844 kJ/mol
# Density = 2.327476 g / cm^3
# Si number density = 23.327857 Si / 1000 Ang^3
#
#
#
# Elastic Constant Matrix: (Units=GPa)
#
#
# Indices 1 2 3 4 5 6 
#
# 1 54.4719 24.5165 11.2692 0.0000 0.0000 0.0000
# 2 24.5165 140.5855 27.8144 0.0000 0.0000 0.0000
# 3 11.2692 27.8144 161.3914 0.0000 0.0000 0.0000
# 4 0.0000 0.0000 0.0000 48.1744 0.0000 0.0000
# 5 0.0000 0.0000 0.0000 0.0000 14.7155 0.0000
# 6 0.0000 0.0000 0.0000 0.0000 0.0000 25.6507
#
#
#
# Elastic Compliance Matrix: (Units=1/GPa)
#
#
# Indices 1 2 3 4 5 6 
#
# 1 0.020027 -0.003329 -0.000825 0.000000 0.000000 0.000000
# 2 -0.003329 0.007918 -0.001132 0.000000 0.000000 0.000000
# 3 -0.000825 -0.001132 0.006449 0.000000 0.000000 0.000000
# 4 0.000000 0.000000 0.000000 0.020758 0.000000 0.000000
# 5 0.000000 0.000000 0.000000 0.000000 0.067955 0.000000
# 6 0.000000 0.000000 0.000000 0.000000 0.000000 0.038985
#
#
# Mechanical properties :
#
#
# Convention : Reuss Voigt Hill
#
# Bulk Modulus (GPa) = 41.97882 53.73880 47.85881
# Shear Modulus (GPa) = 27.68474 37.23137 32.45805
#
# Velocity S-wave (km/s) = 3.44869 3.99934 3.73418
# Velocity P-wave (km/s) = 5.82169 6.66428 6.25718
#
# Compressibility (1/GPa) = 0.02382154
#
# Stress axis : x y z
#
# Youngs Moduli (GPa) = 49.93223 126.29948 155.06763
#
# Poissons Ratio (x) = 0.42050 0.12787
# Poissons Ratio (y) = 0.16624 0.17555
# Poissons Ratio (z) = 0.04117 0.14298
#
# Static dielectric constant tensor:
#      x y z
#    x 1.839190 0.000000 0.000000 
#    y 0.000000 1.887460 0.000000 
#    z 0.000000 0.000000 2.149170 
# 
# From -- ./inp_files/51791.got.cif
#   From: 2010.05.17/outbox.cif.g08.bks.cpg/sg22_26_cif.got.tgz:51791.got - 2010.06.03 23:40:54.
