data_PCOD9328305
_publ_section_title
;
Structure prediction by ZEFSAII (Michael W. Deem and Ramdas Pophale) SiO2 
 PCOD9328305
Probable space group: F 2 2 2
;
_chemical_formula_sum "Si O2"
_cell_formula_units_Z 96
_cell_length_a 15.952184
_cell_length_b 15.344424
_cell_length_c 19.673861
_cell_angle_alpha 90.000000
_cell_angle_beta 90.000000
_cell_angle_gamma 90.000000
_cell_volume 4815.710150
_symmetry_space_group_name_H-M "F 2 2 2"
_symmetry_group_IT_number 22
_symmetry_cell_setting 'orthorhombic'
loop_
_space_group_symop_operation_xyz
x,y,z
-x,-y,z
x,-y,-z
-x,y,-z
x,1/2+y,1/2+z
-x,1/2-y,1/2+z
x,1/2-y,1/2-z
-x,1/2+y,1/2-z
1/2+x,y,1/2+z
1/2-x,-y,1/2+z
1/2+x,-y,1/2-z
1/2-x,y,1/2-z
1/2+x,1/2+y,z
1/2-x,1/2-y,z
1/2+x,1/2-y,-z
1/2-x,1/2+y,-z
loop_
_atom_site_type_symbol
_atom_site_label
_atom_site_fract_x
_atom_site_fract_y
_atom_site_fract_z
Si Si1 0.500000 0.500000 0.231882
Si Si2 0.726220 0.925070 0.175395
Si Si3 0.903261 0.596765 0.977493
Si Si4 0.844372 0.213515 0.593340
Si Si5 0.597316 0.397537 0.884412
Si Si6 0.250000 0.750000 0.250000
Si Si7 0.500000 0.500000 0.000000
Si Si8 0.135805 0.103814 0.679964
O O1 0.553890 0.561573 0.181824
O O2 0.559273 0.435525 0.275351
O O3 0.750000 0.890690 0.250000
O O4 0.651278 0.866712 0.145740
O O5 0.805092 0.920261 0.125225
O O6 0.700924 0.024266 0.181139
O O7 0.893925 0.612471 0.897692
O O8 0.872092 0.500000 0.000000
O O9 0.857329 0.671726 0.019916
O O10 0.000000 0.600105 0.000000
O O11 0.750000 0.250000 0.600380
O O12 0.905931 0.292976 0.609612
O O13 0.556767 0.441098 0.950538
O O14 0.186485 0.812469 0.292563
#
# Coordination Sequence:
#
# PCOD9328305 Si02
#       8
#     8  16  16  16  16   4   4  16
#     4  11  22  47  69 100 135 186 226 290 363 410
#     4  11  21  44  68  95 137 177 233 289 345 409
#     4  11  24  42  65  95 135 178 219 281 348 411
#     4  10  24  41  65 102 121 174 234 279 330 405
#     4  10  23  42  70  97 135 178 232 287 347 419
#     4  12  28  48  68 112 138 194 238 288 360 444
#     4  10  24  44  64 104 140 182 210 288 370 424
#     4  12  25  45  70 100 144 185 234 285 360 427
#
# _framework density 19.934754999999999
#
# number of rings (size 3 to 8) (size 9 to 14) (size 15 to 20)
#    0.000    1.167    4.167    1.000    2.333    7.000 
#    3.000    0.000    0.000    0.000    0.000    0.000 
#    0.000    0.000    0.000    0.000    0.000    0.000 
#
# Total GULP energy -133997.386881 kJ/mol
# GULP energy per Si atom -5583.224453 kJ/mol
# Density = 1.988938 g / cm^3
# Si number density = 19.934755 Si / 1000 Ang^3
#
#
#
# Elastic Constant Matrix: (Units=GPa)
#
#
# Indices 1 2 3 4 5 6 
#
# 1 60.9415 43.1433 38.1540 0.0000 0.0000 0.0000
# 2 43.1433 152.2204 65.4797 0.0000 0.0000 0.0000
# 3 38.1540 65.4797 156.0659 0.0000 0.0000 0.0000
# 4 0.0000 0.0000 0.0000 40.3380 0.0000 0.0000
# 5 0.0000 0.0000 0.0000 0.0000 32.9339 0.0000
# 6 0.0000 0.0000 0.0000 0.0000 0.0000 26.3967
#
#
#
# Elastic Compliance Matrix: (Units=1/GPa)
#
#
# Indices 1 2 3 4 5 6 
#
# 1 0.021876 -0.004759 -0.003352 0.000000 0.000000 0.000000
# 2 -0.004759 0.009051 -0.002634 0.000000 0.000000 0.000000
# 3 -0.003352 -0.002634 0.008332 0.000000 0.000000 0.000000
# 4 0.000000 0.000000 0.000000 0.024791 0.000000 0.000000
# 5 0.000000 0.000000 0.000000 0.000000 0.030364 0.000000
# 6 0.000000 0.000000 0.000000 0.000000 0.000000 0.037884
#
#
# Mechanical properties :
#
#
# Convention : Reuss Voigt Hill
#
# Bulk Modulus (GPa) = 56.27193 73.64245 64.95719
# Shear Modulus (GPa) = 31.30666 34.76377 33.03522
#
# Velocity S-wave (km/s) = 3.96720 4.18051 4.07525
# Velocity P-wave (km/s) = 7.01956 7.76686 7.40265
#
# Compressibility (1/GPa) = 0.01777085
#
# Stress axis : x y z
#
# Youngs Moduli (GPa) = 45.71137 110.48148 120.01659
#
# Poissons Ratio (x) = 0.52574 0.40226
# Poissons Ratio (y) = 0.21752 0.31615
# Poissons Ratio (z) = 0.15321 0.29104
#
# Static dielectric constant tensor:
#      x y z
#    x 1.726620 0.000000 0.000000 
#    y 0.000000 1.724510 0.000000 
#    z 0.000000 0.000000 1.718460 
# 
# From -- ./inp_files/43532.got.cif
#   From: 2010.05.17/outbox.cif.g08.bks.cpg/sg22_22_cif.got.tgz:43532.got - 2010.06.03 23:40:54.
