data_PCOD9328362
_publ_section_title
;
Structure prediction by ZEFSAII (Michael W. Deem and Ramdas Pophale) SiO2 
 PCOD9328362
Probable space group: F 2 2 2
;
_chemical_formula_sum "Si O2"
_cell_formula_units_Z 68
_cell_length_a 11.152207
_cell_length_b 20.886095
_cell_length_c 14.523327
_cell_angle_alpha 90.000000
_cell_angle_beta 90.000000
_cell_angle_gamma 90.000000
_cell_volume 3382.861262
_symmetry_space_group_name_H-M "F 2 2 2"
_symmetry_group_IT_number 22
_symmetry_cell_setting 'orthorhombic'
loop_
_space_group_symop_operation_xyz
x,y,z
-x,-y,z
x,-y,-z
-x,y,-z
x,1/2+y,1/2+z
-x,1/2-y,1/2+z
x,1/2-y,1/2-z
-x,1/2+y,1/2-z
1/2+x,y,1/2+z
1/2-x,-y,1/2+z
1/2+x,-y,1/2-z
1/2-x,y,1/2-z
1/2+x,1/2+y,z
1/2-x,1/2-y,z
1/2+x,1/2-y,-z
1/2-x,1/2+y,-z
loop_
_atom_site_type_symbol
_atom_site_label
_atom_site_fract_x
_atom_site_fract_y
_atom_site_fract_z
Si Si1 0.777011 0.066515 0.522494
Si Si2 0.306398 0.317354 0.149550
Si Si3 0.447063 0.766246 0.397646
Si Si4 0.785930 0.347338 0.146792
Si Si5 0.000000 0.500000 0.000000
O O1 0.720477 0.121221 0.585887
O O2 0.806336 0.095820 0.423009
O O3 0.707492 0.000000 0.500000
O O4 0.907146 0.042902 0.558458
O O5 0.250000 0.327295 0.250000
O O6 0.250000 0.250000 0.112342
O O7 0.446895 0.302114 0.155282
O O8 0.500000 0.755963 0.500000
O O9 0.328717 0.809741 0.395391
O O10 0.399691 0.700124 0.354984
O O11 0.750000 0.364784 0.250000
#
# Coordination Sequence:
#
# PCOD9328362 Si02
#       5
#    16  16  16  16   4
#     4  10  23  45  66  96 131 190 234 281 348 417
#     4  11  25  39  68 103 137 172 229 294 351 413
#     4  11  22  41  64 100 137 177 219 282 350 412
#     4  11  25  41  67  99 141 181 231 286 353 420
#     4   8  24  40  72  86 140 182 242 284 334 440
#
# _framework density 20.101327000000001
#
# number of rings (size 3 to 8) (size 9 to 14) (size 15 to 20)
#    0.706    0.706    2.353    2.824   11.529    0.941 
#    0.000    2.353    0.000    0.000    0.000    0.000 
#    0.000    0.000    0.000    0.000    0.000    0.000 
#
# Total GULP energy -94768.907557 kJ/mol
# GULP energy per Si atom -5574.641621 kJ/mol
# Density = 2.005558 g / cm^3
# Si number density = 20.101327 Si / 1000 Ang^3
#
#
#
# Elastic Constant Matrix: (Units=GPa)
#
#
# Indices 1 2 3 4 5 6 
#
# 1 113.5758 45.4900 43.1858 0.0000 0.0000 0.0000
# 2 45.4900 152.4260 55.9694 0.0000 0.0000 0.0000
# 3 43.1858 55.9694 127.9290 0.0000 0.0000 0.0000
# 4 0.0000 0.0000 0.0000 9.1970 0.0000 0.0000
# 5 0.0000 0.0000 0.0000 0.0000 31.5440 0.0000
# 6 0.0000 0.0000 0.0000 0.0000 0.0000 19.4455
#
#
#
# Elastic Compliance Matrix: (Units=1/GPa)
#
#
# Indices 1 2 3 4 5 6 
#
# 1 0.010699 -0.002224 -0.002639 0.000000 0.000000 0.000000
# 2 -0.002224 0.008279 -0.002871 0.000000 0.000000 0.000000
# 3 -0.002639 -0.002871 0.009964 0.000000 0.000000 0.000000
# 4 0.000000 0.000000 0.000000 0.108731 0.000000 0.000000
# 5 0.000000 0.000000 0.000000 0.000000 0.031702 0.000000
# 6 0.000000 0.000000 0.000000 0.000000 0.000000 0.051426
#
#
# Mechanical properties :
#
#
# Convention : Reuss Voigt Hill
#
# Bulk Modulus (GPa) = 74.22005 75.91346 75.06675
# Shear Modulus (GPa) = 20.76775 28.65635 24.71205
#
# Velocity S-wave (km/s) = 3.21776 3.77980 3.51005
# Velocity P-wave (km/s) = 7.12800 7.54298 7.33843
#
# Compressibility (1/GPa) = 0.01347345
#
# Stress axis : x y z
#
# Youngs Moduli (GPa) = 93.46843 120.79404 100.36442
#
# Poissons Ratio (x) = 0.26865 0.26482
# Poissons Ratio (y) = 0.20788 0.28816
# Poissons Ratio (z) = 0.24663 0.34681
#
# Static dielectric constant tensor:
#      x y z
#    x 1.740530 0.000000 0.000000 
#    y 0.000000 1.756170 0.000000 
#    z 0.000000 0.000000 1.724360 
# 
# From -- ./inp_files/27965.got.cif
#   From: 2010.05.17/outbox.cif.g08.bks.cpg/sg22_14_cif.got.tgz:27965.got - 2010.06.03 23:40:54.
