data_PCOD9328995
_publ_section_title
;
Structure prediction by ZEFSAII (Michael W. Deem and Ramdas Pophale) SiO2 
 PCOD9328995
Probable space group: F 2 2 2
;
_chemical_formula_sum "Si O2"
_cell_formula_units_Z 52
_cell_length_a 6.966813
_cell_length_b 17.779284
_cell_length_c 15.708534
_cell_angle_alpha 90.000000
_cell_angle_beta 90.000000
_cell_angle_gamma 90.000000
_cell_volume 1945.736730
_symmetry_space_group_name_H-M "F 2 2 2"
_symmetry_group_IT_number 22
_symmetry_cell_setting 'orthorhombic'
loop_
_space_group_symop_operation_xyz
x,y,z
-x,-y,z
x,-y,-z
-x,y,-z
x,1/2+y,1/2+z
-x,1/2-y,1/2+z
x,1/2-y,1/2-z
-x,1/2+y,1/2-z
1/2+x,y,1/2+z
1/2-x,-y,1/2+z
1/2+x,-y,1/2-z
1/2-x,y,1/2-z
1/2+x,1/2+y,z
1/2-x,1/2-y,z
1/2+x,1/2-y,-z
1/2-x,1/2+y,-z
loop_
_atom_site_type_symbol
_atom_site_label
_atom_site_fract_x
_atom_site_fract_y
_atom_site_fract_z
Si Si1 0.934502 0.149368 0.407806
Si Si2 0.525401 0.799494 0.663355
Si Si3 0.749459 0.558751 0.340057
Si Si4 0.500000 0.000000 0.500000
O O1 0.032778 0.086533 0.351321
O O2 0.000000 0.124330 0.500000
O O3 0.716265 0.162715 0.377852
O O4 0.028841 0.232053 0.399317
O O5 0.551432 0.750000 0.750000
O O6 0.372903 0.864445 0.674101
O O7 0.750000 0.515052 0.250000
O O8 0.846413 0.529478 0.427528
#
# Coordination Sequence:
#
# PCOD9328995 Si02
#       4
#    16  16  16   4
#     4  11  24  40  73 119 159 202 250 331 426 492
#     4  11  24  43  75 121 161 193 259 333 420 511
#     4  12  27  53  80 109 162 220 272 340 403 468
#     4  12  32  60  78 118 164 230 308 322 370 514
#
# _framework density 26.725095
#
# number of rings (size 3 to 8) (size 9 to 14) (size 15 to 20)
#    0.000    0.615    3.077    4.615   10.769    0.000 
#   11.077    1.538    0.000    0.000    0.000    0.000 
#    0.000    0.000    0.000    0.000    0.000    0.000 
#
# Total GULP energy -72551.047791 kJ/mol
# GULP energy per Si atom -5580.849830 kJ/mol
# Density = 2.666427 g / cm^3
# Si number density = 26.725095 Si / 1000 Ang^3
#
#
#
# Elastic Constant Matrix: (Units=GPa)
#
#
# Indices 1 2 3 4 5 6 
#
# 1 139.1095 43.3346 48.0718 0.0000 0.0000 0.0000
# 2 43.3346 64.3736 58.4428 0.0000 0.0000 0.0000
# 3 48.0718 58.4428 210.8059 0.0000 0.0000 0.0000
# 4 0.0000 0.0000 0.0000 45.9507 0.0000 0.0000
# 5 0.0000 0.0000 0.0000 0.0000 35.1159 0.0000
# 6 0.0000 0.0000 0.0000 0.0000 0.0000 40.3191
#
#
#
# Elastic Compliance Matrix: (Units=1/GPa)
#
#
# Indices 1 2 3 4 5 6 
#
# 1 0.009136 -0.005691 -0.000506 0.000000 0.000000 0.000000
# 2 -0.005691 0.024305 -0.005440 0.000000 0.000000 0.000000
# 3 -0.000506 -0.005440 0.006367 0.000000 0.000000 0.000000
# 4 0.000000 0.000000 0.000000 0.021762 0.000000 0.000000
# 5 0.000000 0.000000 0.000000 0.000000 0.028477 0.000000
# 6 0.000000 0.000000 0.000000 0.000000 0.000000 0.024802
#
#
# Mechanical properties :
#
#
# Convention : Reuss Voigt Hill
#
# Bulk Modulus (GPa) = 60.48215 79.33194 69.90705
# Shear Modulus (GPa) = 34.81044 41.90647 38.35845
#
# Velocity S-wave (km/s) = 3.61298 3.96417 3.79264
# Velocity P-wave (km/s) = 6.33129 7.12051 6.73747
#
# Compressibility (1/GPa) = 0.01653380
#
# Stress axis : x y z
#
# Youngs Moduli (GPa) = 109.45478 41.14460 157.05435
#
# Poissons Ratio (x) = 0.23416 0.07941
# Poissons Ratio (y) = 0.62293 0.85442
# Poissons Ratio (z) = 0.05534 0.22384
#
# Static dielectric constant tensor:
#      x y z
#    x 2.147730 0.000000 0.000000 
#    y 0.000000 2.087330 0.000000 
#    z 0.000000 0.000000 2.315260 
# 
# From -- ./inp_files/16760.got.cif
#   From: 2010.05.17/outbox.cif.g08.bks.cpg/sg22_9_cif.got.tgz:16760.got - 2010.06.03 23:40:54.
