data_PCOD9328854
_publ_section_title
;
Structure prediction by ZEFSAII (Michael W. Deem and Ramdas Pophale) SiO2 
 PCOD9328854
Probable space group: F 2 2 2
;
_chemical_formula_sum "Si O2"
_cell_formula_units_Z 68
_cell_length_a 21.580254
_cell_length_b 25.176398
_cell_length_c 5.389343
_cell_angle_alpha 90.000000
_cell_angle_beta 90.000000
_cell_angle_gamma 90.000000
_cell_volume 2928.100456
_symmetry_space_group_name_H-M "F 2 2 2"
_symmetry_group_IT_number 22
_symmetry_cell_setting 'orthorhombic'
loop_
_space_group_symop_operation_xyz
x,y,z
-x,-y,z
x,-y,-z
-x,y,-z
x,1/2+y,1/2+z
-x,1/2-y,1/2+z
x,1/2-y,1/2-z
-x,1/2+y,1/2-z
1/2+x,y,1/2+z
1/2-x,-y,1/2+z
1/2+x,-y,1/2-z
1/2-x,y,1/2-z
1/2+x,1/2+y,z
1/2-x,1/2-y,z
1/2+x,1/2-y,-z
1/2-x,1/2+y,-z
loop_
_atom_site_type_symbol
_atom_site_label
_atom_site_fract_x
_atom_site_fract_y
_atom_site_fract_z
Si Si1 0.000000 0.666587 0.500000
Si Si2 0.500000 0.904915 0.000000
Si Si3 0.367841 0.795460 0.456991
Si Si4 0.215386 0.117392 0.994237
Si Si5 0.597525 0.500000 0.500000
Si Si6 0.750000 0.750000 0.250000
Si Si7 0.322990 0.500000 0.000000
O O1 0.994334 0.630960 0.751203
O O2 0.061398 0.702171 0.547478
O O3 0.557321 0.946002 0.011015
O O4 0.370028 0.750000 0.250000
O O5 0.353013 0.858718 0.449078
O O6 0.302056 0.780108 0.586486
O O7 0.250000 0.137270 0.750000
O O8 0.214811 0.054028 0.993737
O O9 0.250000 0.130745 0.250000
O O10 0.636763 0.500127 0.750592
#
# Coordination Sequence:
#
# PCOD9328854 Si02
#       7
#     8   8  16  16   8   4   8
#     4  12  30  48  82 115 160 199 275 339 410 466
#     4  11  24  47  70 115 154 219 258 328 402 484
#     4  12  29  50  79 115 155 213 267 336 400 482
#     4  12  25  46  73 110 156 208 264 325 401 483
#     4  11  22  41  72 103 162 207 267 311 398 489
#     4  12  26  52  80 110 152 210 262 320 404 480
#     4  12  24  42  72 115 154 206 259 336 394 478
#
# _framework density 23.223247000000001
#
# number of rings (size 3 to 8) (size 9 to 14) (size 15 to 20)
#    0.000    0.235    1.176    8.118    4.941    1.882 
#    0.000    0.000    0.000    0.000    0.000    0.000 
#    0.000    0.000    0.000    0.000    0.000    0.000 
#
# Total GULP energy -94724.555605 kJ/mol
# GULP energy per Si atom -5572.032683 kJ/mol
# Density = 2.317039 g / cm^3
# Si number density = 23.223247 Si / 1000 Ang^3
#
#
#
# Elastic Constant Matrix: (Units=GPa)
#
#
# Indices 1 2 3 4 5 6 
#
# 1 169.7254 47.1455 71.0596 -2.2069 -0.0170 -0.0342
# 2 47.1455 116.0681 58.8870 -1.4455 -0.0205 -0.0482
# 3 71.0596 58.8870 202.2379 -1.1355 -0.0168 -0.0626
# 4 -2.2069 -1.4455 -1.1355 1446.6740 0.5212 0.4791
# 5 -0.0170 -0.0205 -0.0168 0.5212 38.8526 0.0263
# 6 -0.0342 -0.0482 -0.0626 0.4791 0.0263 1.7804
#
#
#
# Elastic Compliance Matrix: (Units=1/GPa)
#
#
# Indices 1 2 3 4 5 6 
#
# 1 0.007263 -0.001942 -0.001986 0.000008 0.000001 0.000015
# 2 -0.001942 0.010629 -0.002412 0.000006 0.000004 0.000164
# 3 -0.001986 -0.002412 0.006345 -0.000001 0.000001 0.000120
# 4 0.000008 0.000006 -0.000001 0.000691 -0.000009 -0.000186
# 5 0.000001 0.000004 0.000001 -0.000009 0.025739 -0.000377
# 6 0.000015 0.000164 0.000120 -0.000186 -0.000377 0.561737
#
#
# Mechanical properties :
#
#
# Convention : Reuss Voigt Hill
#
# Bulk Modulus (GPa) = 86.54391 93.57951 90.06171
# Shear Modulus (GPa) = 7.94991 318.19070 163.07030
#
# Velocity S-wave (km/s) = 1.85221 11.71799 8.38874
# Velocity P-wave (km/s) = 6.47466 14.94874 11.51925
#
# Compressibility (1/GPa) = 0.01155483
#
# Stress axis : x y z
#
# Youngs Moduli (GPa) = 137.68114 94.08604 157.60289
#
# Poissons Ratio (x) = 0.18274 0.31307
# Poissons Ratio (y) = 0.26742 0.38018
# Poissons Ratio (z) = 0.27349 0.22696
#
# Static dielectric constant tensor:
#      x y z
#    x 1.791350 -0.000290 0.001150 
#    y -0.000290 2.223390 0.000020 
#    z 0.001150 0.000020 1.926850 
# 
# From -- ./inp_files/3858.got.cif
#   From: 2010.05.17/outbox.cif.g08.bks.cpg/sg22_2_cif.got.tgz:3858.got - 2010.06.03 23:40:54.
