data_PCOD9328679
_publ_section_title
;
Structure prediction by ZEFSAII (Michael W. Deem and Ramdas Pophale) SiO2 
 PCOD9328679
Probable space group: F 2 2 2
;
_chemical_formula_sum "Si O2"
_cell_formula_units_Z 72
_cell_length_a 17.355916
_cell_length_b 16.336480
_cell_length_c 11.612556
_cell_angle_alpha 90.000000
_cell_angle_beta 90.000000
_cell_angle_gamma 90.000000
_cell_volume 3292.561126
_symmetry_space_group_name_H-M "F 2 2 2"
_symmetry_group_IT_number 22
_symmetry_cell_setting 'orthorhombic'
loop_
_space_group_symop_operation_xyz
x,y,z
-x,-y,z
x,-y,-z
-x,y,-z
x,1/2+y,1/2+z
-x,1/2-y,1/2+z
x,1/2-y,1/2-z
-x,1/2+y,1/2-z
1/2+x,y,1/2+z
1/2-x,-y,1/2+z
1/2+x,-y,1/2-z
1/2-x,y,1/2-z
1/2+x,1/2+y,z
1/2-x,1/2-y,z
1/2+x,1/2-y,-z
1/2-x,1/2+y,-z
loop_
_atom_site_type_symbol
_atom_site_label
_atom_site_fract_x
_atom_site_fract_y
_atom_site_fract_z
Si Si1 0.427272 0.828702 0.167643
Si Si2 0.627209 0.375168 0.943296
Si Si3 0.587941 0.470663 0.173069
Si Si4 0.250000 0.250000 0.095810
Si Si5 0.908248 0.794150 0.400993
O O1 0.412167 0.750000 0.250000
O O2 0.392809 0.910623 0.222624
O O3 0.520157 0.839355 0.154382
O O4 0.400852 0.815485 0.036177
O O5 0.636529 0.447421 0.851234
O O6 0.571365 0.302939 0.898993
O O7 0.596071 0.416090 0.058176
O O8 0.704126 0.322595 0.967384
O O9 0.500000 0.500000 0.182214
O O10 0.177203 0.297476 0.152795
#
# Coordination Sequence:
#
# PCOD9328679 Si02
#       5
#    16  16  16   8  16
#     4  11  19  34  61  98 126 167 222 273 321 382
#     4   9  18  35  62  91 120 174 217 266 323 389
#     4  11  21  33  63  99 129 155 221 284 320 367
#     4   8  18  38  64  86 126 178 224 258 326 410
#     4   9  20  36  63  88 128 176 216 263 323 398
#
# _framework density 21.867476
#
# number of rings (size 3 to 8) (size 9 to 14) (size 15 to 20)
#    1.333    0.889    2.222    2.667    3.111    0.000 
#    0.000    7.778   14.667    0.000    0.000    0.000 
#    0.000    0.000    0.000    0.000    0.000    0.000 
#
# Total GULP energy -100232.885655 kJ/mol
# GULP energy per Si atom -5568.493648 kJ/mol
# Density = 2.181770 g / cm^3
# Si number density = 21.867476 Si / 1000 Ang^3
#
#
#
# Elastic Constant Matrix: (Units=GPa)
#
#
# Indices 1 2 3 4 5 6 
#
# 1 64.6406 11.5766 4.7306 0.0000 0.0000 0.0000
# 2 11.5766 128.8621 44.2785 0.0000 0.0000 0.0000
# 3 4.7306 44.2785 116.4591 0.0000 0.0000 0.0000
# 4 0.0000 0.0000 0.0000 34.3607 0.0000 0.0000
# 5 0.0000 0.0000 0.0000 0.0000 2.0687 0.0000
# 6 0.0000 0.0000 0.0000 0.0000 0.0000 34.0414
#
#
#
# Elastic Compliance Matrix: (Units=1/GPa)
#
#
# Indices 1 2 3 4 5 6 
#
# 1 0.015725 -0.001372 -0.000117 0.000000 0.000000 0.000000
# 2 -0.001372 0.009046 -0.003384 0.000000 0.000000 0.000000
# 3 -0.000117 -0.003384 0.009878 0.000000 0.000000 0.000000
# 4 0.000000 0.000000 0.000000 0.029103 0.000000 0.000000
# 5 0.000000 0.000000 0.000000 0.000000 0.483393 0.000000
# 6 0.000000 0.000000 0.000000 0.000000 0.000000 0.029376
#
#
# Mechanical properties :
#
#
# Convention : Reuss Voigt Hill
#
# Bulk Modulus (GPa) = 40.15653 47.90367 44.03010
# Shear Modulus (GPa) = 8.40947 30.71923 19.56435
#
# Velocity S-wave (km/s) = 1.96316 3.75212 2.99436
# Velocity P-wave (km/s) = 4.85202 6.38162 5.66865
#
# Compressibility (1/GPa) = 0.02490255
#
# Stress axis : x y z
#
# Youngs Moduli (GPa) = 63.59499 110.54361 101.23557
#
# Poissons Ratio (x) = 0.15172 0.01184
# Poissons Ratio (y) = 0.08728 0.34255
# Poissons Ratio (z) = 0.00744 0.37404
#
# Static dielectric constant tensor:
#      x y z
#    x 1.825990 0.000000 0.000000 
#    y 0.000000 1.817040 0.000000 
#    z 0.000000 0.000000 1.839570 
# 
# From -- ./inp_files/22457.got.cif
#   From: 2010.05.17/outbox.cif.g08.bks.cpg/sg22_12_cif.got.tgz:22457.got - 2010.06.03 23:40:54.
