data_PCOD9328843
_publ_section_title
;
Structure prediction by ZEFSAII (Michael W. Deem and Ramdas Pophale) SiO2 
 PCOD9328843
Probable space group: F 2 2 2
;
_chemical_formula_sum "Si O2"
_cell_formula_units_Z 64
_cell_length_a 12.226109
_cell_length_b 16.316929
_cell_length_c 14.273252
_cell_angle_alpha 90.000000
_cell_angle_beta 90.000000
_cell_angle_gamma 90.000000
_cell_volume 2847.407474
_symmetry_space_group_name_H-M "F 2 2 2"
_symmetry_group_IT_number 22
_symmetry_cell_setting 'orthorhombic'
loop_
_space_group_symop_operation_xyz
x,y,z
-x,-y,z
x,-y,-z
-x,y,-z
x,1/2+y,1/2+z
-x,1/2-y,1/2+z
x,1/2-y,1/2-z
-x,1/2+y,1/2-z
1/2+x,y,1/2+z
1/2-x,-y,1/2+z
1/2+x,-y,1/2-z
1/2-x,y,1/2-z
1/2+x,1/2+y,z
1/2-x,1/2-y,z
1/2+x,1/2-y,-z
1/2-x,1/2+y,-z
loop_
_atom_site_type_symbol
_atom_site_label
_atom_site_fract_x
_atom_site_fract_y
_atom_site_fract_z
Si Si1 0.750000 0.750000 0.107723
Si Si2 0.743743 0.000000 0.500000
Si Si3 0.407573 0.875938 0.575085
Si Si4 0.655315 0.066564 0.173126
Si Si5 0.919223 0.622608 0.208263
O O1 0.667652 0.698872 0.045248
O O2 0.828201 0.684934 0.165035
O O3 0.666070 0.956205 0.425935
O O4 0.808675 0.937050 0.564225
O O5 0.500000 0.888048 0.500000
O O6 0.434769 0.858838 0.682019
O O7 0.750000 0.089265 0.250000
O O8 0.544651 0.120547 0.173567
O O9 0.623089 0.971056 0.195383
#
# Coordination Sequence:
#
# PCOD9328843 Si02
#       5
#     8   8  16  16  16
#     4  12  25  50  70  98 147 202 237 286 386 450
#     4  12  23  41  68 100 140 178 244 302 356 424
#     4  12  25  41  69 100 138 189 241 298 364 436
#     4  11  22  41  68 106 141 179 248 309 352 422
#     4  11  23  43  71  97 145 195 233 298 369 436
#
# _framework density 22.476586999999999
#
# number of rings (size 3 to 8) (size 9 to 14) (size 15 to 20)
#    0.000    0.500    5.000    4.125    3.500    4.000 
#    0.000    0.000    0.000    1.500    0.000    0.000 
#    0.000    0.000    0.000    0.000    0.000    0.000 
#
# Total GULP energy -89261.460217 kJ/mol
# GULP energy per Si atom -5578.841264 kJ/mol
# Density = 2.242543 g / cm^3
# Si number density = 22.476587 Si / 1000 Ang^3
#
#
#
# Elastic Constant Matrix: (Units=GPa)
#
#
# Indices 1 2 3 4 5 6 
#
# 1 162.2225 26.1676 47.9106 0.0000 0.0000 0.0000
# 2 26.1676 54.2527 -9.7596 0.0000 0.0000 0.0000
# 3 47.9106 -9.7596 71.8326 0.0000 0.0000 0.0000
# 4 0.0000 0.0000 0.0000 13.4568 0.0000 0.0000
# 5 0.0000 0.0000 0.0000 0.0000 32.9053 0.0000
# 6 0.0000 0.0000 0.0000 0.0000 0.0000 33.6373
#
#
#
# Elastic Compliance Matrix: (Units=1/GPa)
#
#
# Indices 1 2 3 4 5 6 
#
# 1 0.009083 -0.005608 -0.006820 0.000000 0.000000 0.000000
# 2 -0.005608 0.022356 0.006778 0.000000 0.000000 0.000000
# 3 -0.006820 0.006778 0.019391 0.000000 0.000000 0.000000
# 4 0.000000 0.000000 0.000000 0.074312 0.000000 0.000000
# 5 0.000000 0.000000 0.000000 0.000000 0.030390 0.000000
# 6 0.000000 0.000000 0.000000 0.000000 0.000000 0.029729
#
#
# Mechanical properties :
#
#
# Convention : Reuss Voigt Hill
#
# Bulk Modulus (GPa) = 25.29721 46.32721 35.81221
# Shear Modulus (GPa) = 23.83914 30.93250 27.38582
#
# Velocity S-wave (km/s) = 3.26025 3.71375 3.49437
# Velocity P-wave (km/s) = 5.04496 6.24863 5.67878
#
# Compressibility (1/GPa) = 0.03953004
#
# Stress axis : x y z
#
# Youngs Moduli (GPa) = 110.09247 44.72979 51.57010
#
# Poissons Ratio (x) = 0.25085 0.35172
# Poissons Ratio (y) = 0.61740 -0.34954
# Poissons Ratio (z) = 0.75086 -0.30317
#
# Static dielectric constant tensor:
#      x y z
#    x 1.894590 0.000000 0.000000 
#    y 0.000000 1.864980 0.000000 
#    z 0.000000 0.000000 1.831330 
# 
# From -- ./inp_files/20887.got.cif
#   From: 2010.05.17/outbox.cif.g08.bks.cpg/sg22_11_cif.got.tgz:20887.got - 2010.06.03 23:40:54.
