data_PCOD9328962
_publ_section_title
;
Structure prediction by ZEFSAII (Michael W. Deem and Ramdas Pophale) SiO2 
 PCOD9328962
Probable space group: F 2 2 2
;
_chemical_formula_sum "Si O2"
_cell_formula_units_Z 72
_cell_length_a 19.082740
_cell_length_b 14.319369
_cell_length_c 10.920828
_cell_angle_alpha 90.000000
_cell_angle_beta 90.000000
_cell_angle_gamma 90.000000
_cell_volume 2984.146781
_symmetry_space_group_name_H-M "F 2 2 2"
_symmetry_group_IT_number 22
_symmetry_cell_setting 'orthorhombic'
loop_
_space_group_symop_operation_xyz
x,y,z
-x,-y,z
x,-y,-z
-x,y,-z
x,1/2+y,1/2+z
-x,1/2-y,1/2+z
x,1/2-y,1/2-z
-x,1/2+y,1/2-z
1/2+x,y,1/2+z
1/2-x,-y,1/2+z
1/2+x,-y,1/2-z
1/2-x,y,1/2-z
1/2+x,1/2+y,z
1/2-x,1/2-y,z
1/2+x,1/2-y,-z
1/2-x,1/2+y,-z
loop_
_atom_site_type_symbol
_atom_site_label
_atom_site_fract_x
_atom_site_fract_y
_atom_site_fract_z
Si Si1 0.611159 0.500000 0.500000
Si Si2 0.552788 0.787671 0.616981
Si Si3 0.500000 0.500000 0.297535
Si Si4 0.750000 0.932213 0.750000
Si Si5 0.612901 0.992788 0.642548
Si Si6 0.691273 0.319557 0.477971
O O1 0.558819 0.463289 0.393410
O O2 0.658556 0.412341 0.541736
O O3 0.500000 0.784717 0.500000
O O4 0.527327 0.750000 0.750000
O O5 0.579670 0.890346 0.651350
O O6 0.623740 0.736664 0.570035
O O7 0.553060 0.555130 0.205812
O O8 0.685315 0.994827 0.710908
O O9 0.729999 0.865776 0.862002
O O10 0.624633 0.000000 0.500000
O O11 0.750000 0.250000 0.535978
#
# Coordination Sequence:
#
# PCOD9328962 Si02
#       6
#     8  16   8   8  16  16
#     4  11  26  42  76 114 147 204 258 317 386 470
#     4  12  25  44  75 110 151 205 263 324 398 472
#     4  11  23  44  72 112 155 193 252 314 390 463
#     4  12  23  42  72 102 145 196 255 308 386 474
#     4  12  26  45  73 110 151 199 255 324 391 468
#     4  12  24  45  73 108 147 201 261 316 386 476
#
# _framework density 24.127499
#
# number of rings (size 3 to 8) (size 9 to 14) (size 15 to 20)
#    0.000    0.222    6.667    2.000    7.778    0.000 
#    0.000    0.000    0.000    0.667    0.000    0.000 
#    0.000    0.000    0.000    0.000    0.000    0.000 
#
# Total GULP energy -100439.736111 kJ/mol
# GULP energy per Si atom -5579.985340 kJ/mol
# Density = 2.407258 g / cm^3
# Si number density = 24.127499 Si / 1000 Ang^3
#
#
#
# Elastic Constant Matrix: (Units=GPa)
#
#
# Indices 1 2 3 4 5 6 
#
# 1 211.9525 49.2385 89.3253 0.0000 0.0000 0.0000
# 2 49.2385 85.9162 45.9360 0.0000 0.0000 0.0000
# 3 89.3253 45.9360 111.5057 0.0000 0.0000 0.0000
# 4 0.0000 0.0000 0.0000 19.7525 0.0000 0.0000
# 5 0.0000 0.0000 0.0000 0.0000 42.1425 0.0000
# 6 0.0000 0.0000 0.0000 0.0000 0.0000 -81.9332
#
#
#
# Elastic Compliance Matrix: (Units=1/GPa)
#
#
# Indices 1 2 3 4 5 6 
#
# 1 0.007242 -0.001345 -0.005247 0.000000 0.000000 0.000000
# 2 -0.001345 0.015177 -0.005175 0.000000 0.000000 0.000000
# 3 -0.005247 -0.005175 0.015304 0.000000 0.000000 0.000000
# 4 0.000000 0.000000 0.000000 0.050626 0.000000 0.000000
# 5 0.000000 0.000000 0.000000 0.000000 0.023729 0.000000
# 6 0.000000 0.000000 0.000000 0.000000 0.000000 -0.012205
#
#
# Mechanical properties :
#
#
# Convention : Reuss Voigt Hill
#
# Bulk Modulus (GPa) = 70.48169 86.48600 78.48384
# Shear Modulus (GPa) = 39.02096 10.98402 25.00249
#
# Velocity S-wave (km/s) = 4.02591 2.13597 3.22260
# Velocity P-wave (km/s) = 7.13345 6.48123 6.81515
#
# Compressibility (1/GPa) = 0.01418808
#
# Stress axis : x y z
#
# Youngs Moduli (GPa) = 138.08546 65.89016 65.34403
#
# Poissons Ratio (x) = 0.08861 0.34288
# Poissons Ratio (y) = 0.18569 0.33815
# Poissons Ratio (z) = 0.72459 0.34098
#
# Static dielectric constant tensor:
#      x y z
#    x 1.961050 0.000000 0.000000 
#    y 0.000000 2.061740 0.000000 
#    z 0.000000 0.000000 2.730810 
# 
# From -- ./inp_files/21141.got.cif
#   From: 2010.05.17/outbox.cif.g08.bks.cpg/sg22_11_cif.got.tgz:21141.got - 2010.06.03 23:40:54.
