data_PCOD9328722
_publ_section_title
;
Structure prediction by ZEFSAII (Michael W. Deem and Ramdas Pophale) SiO2 
 PCOD9328722
Probable space group: F 2 2 2
;
_chemical_formula_sum "Si O2"
_cell_formula_units_Z 64
_cell_length_a 13.263420
_cell_length_b 8.263881
_cell_length_c 23.489711
_cell_angle_alpha 90.000000
_cell_angle_beta 90.000000
_cell_angle_gamma 90.000000
_cell_volume 2574.644377
_symmetry_space_group_name_H-M "F 2 2 2"
_symmetry_group_IT_number 22
_symmetry_cell_setting 'orthorhombic'
loop_
_space_group_symop_operation_xyz
x,y,z
-x,-y,z
x,-y,-z
-x,y,-z
x,1/2+y,1/2+z
-x,1/2-y,1/2+z
x,1/2-y,1/2-z
-x,1/2+y,1/2-z
1/2+x,y,1/2+z
1/2-x,-y,1/2+z
1/2+x,-y,1/2-z
1/2-x,y,1/2-z
1/2+x,1/2+y,z
1/2-x,1/2-y,z
1/2+x,1/2-y,-z
1/2-x,1/2+y,-z
loop_
_atom_site_type_symbol
_atom_site_label
_atom_site_fract_x
_atom_site_fract_y
_atom_site_fract_z
Si Si1 0.177395 0.604573 0.129393
Si Si2 0.163665 0.857676 0.851480
Si Si3 0.005139 0.197304 0.933106
Si Si4 0.628964 0.432618 0.252480
O O1 0.250000 0.750000 0.151569
O O2 0.264659 0.478624 0.111018
O O3 0.114392 0.526316 0.181407
O O4 0.100106 0.698469 0.088894
O O5 0.250000 0.750000 0.822526
O O6 0.090563 0.761833 0.893626
O O7 0.105254 0.953330 0.801224
O O8 0.000000 0.000000 0.926328
O O9 0.000000 0.229717 0.000000
O O10 0.587452 0.250000 0.250000
O O11 0.750000 0.431195 0.250000
#
# Coordination Sequence:
#
# PCOD9328722 Si02
#       4
#    16  16  16  16
#     4  11  20  41  74  98 141 198 234 294 381 435
#     4  11  24  43  71 109 148 187 247 310 378 449
#     4  11  24  45  72 109 146 192 261 307 351 455
#     4   9  15  34  68  94 132 189 226 279 364 447
#
# _framework density 24.857804000000002
#
# number of rings (size 3 to 8) (size 9 to 14) (size 15 to 20)
#    0.000    1.500    7.500    0.000    0.000    6.500 
#    0.000    3.750   27.500    0.000    0.000    0.000 
#    0.000    0.000    0.000    0.000    0.000    0.000 
#
# Total GULP energy -89116.419860 kJ/mol
# GULP energy per Si atom -5569.776241 kJ/mol
# Density = 2.480123 g / cm^3
# Si number density = 24.857804 Si / 1000 Ang^3
#
#
#
# Elastic Constant Matrix: (Units=GPa)
#
#
# Indices 1 2 3 4 5 6 
#
# 1 144.9772 49.4933 73.3638 0.0000 0.0000 0.0000
# 2 49.4933 82.0815 51.0007 0.0000 0.0000 0.0000
# 3 73.3638 51.0007 192.5333 0.0000 0.0000 0.0000
# 4 0.0000 0.0000 0.0000 26.2528 0.0000 0.0000
# 5 0.0000 0.0000 0.0000 0.0000 26.2586 0.0000
# 6 0.0000 0.0000 0.0000 0.0000 0.0000 44.7358
#
#
#
# Elastic Compliance Matrix: (Units=1/GPa)
#
#
# Indices 1 2 3 4 5 6 
#
# 1 0.009630 -0.004221 -0.002551 0.000000 0.000000 0.000000
# 2 -0.004221 0.016434 -0.002745 0.000000 0.000000 0.000000
# 3 -0.002551 -0.002745 0.006893 0.000000 0.000000 0.000000
# 4 0.000000 0.000000 0.000000 0.038091 0.000000 0.000000
# 5 0.000000 0.000000 0.000000 0.000000 0.038083 0.000000
# 6 0.000000 0.000000 0.000000 0.000000 0.000000 0.022353
#
#
# Mechanical properties :
#
#
# Convention : Reuss Voigt Hill
#
# Bulk Modulus (GPa) = 71.82776 85.25640 78.54208
# Shear Modulus (GPa) = 32.22501 35.83173 34.02837
#
# Velocity S-wave (km/s) = 3.60443 3.80079 3.70391
# Velocity P-wave (km/s) = 6.80299 7.32348 7.06803
#
# Compressibility (1/GPa) = 0.01392219
#
# Stress axis : x y z
#
# Youngs Moduli (GPa) = 103.84504 60.85030 145.07380
#
# Poissons Ratio (x) = 0.25687 0.37010
# Poissons Ratio (y) = 0.43837 0.39818
# Poissons Ratio (z) = 0.26492 0.16701
#
# Static dielectric constant tensor:
#      x y z
#    x 2.057270 0.000000 0.000000 
#    y 0.000000 2.190090 0.000000 
#    z 0.000000 0.000000 1.947510 
# 
# From -- ./inp_files/48629.got.cif
#   From: 2010.05.17/outbox.cif.g08.bks.cpg/sg22_25_cif.got.tgz:48629.got - 2010.06.03 23:40:54.
