data_PCOD9328562
_publ_section_title
;
Structure prediction by ZEFSAII (Michael W. Deem and Ramdas Pophale) SiO2 
 PCOD9328562
Probable space group: F 2 2 2
;
_chemical_formula_sum "Si O2"
_cell_formula_units_Z 56
_cell_length_a 4.884981
_cell_length_b 18.659713
_cell_length_c 24.712041
_cell_angle_alpha 90.000000
_cell_angle_beta 90.000000
_cell_angle_gamma 90.000000
_cell_volume 2252.560449
_symmetry_space_group_name_H-M "F 2 2 2"
_symmetry_group_IT_number 22
_symmetry_cell_setting 'orthorhombic'
loop_
_space_group_symop_operation_xyz
x,y,z
-x,-y,z
x,-y,-z
-x,y,-z
x,1/2+y,1/2+z
-x,1/2-y,1/2+z
x,1/2-y,1/2-z
-x,1/2+y,1/2-z
1/2+x,y,1/2+z
1/2-x,-y,1/2+z
1/2+x,-y,1/2-z
1/2-x,y,1/2-z
1/2+x,1/2+y,z
1/2-x,1/2-y,z
1/2+x,1/2-y,-z
1/2-x,1/2+y,-z
loop_
_atom_site_type_symbol
_atom_site_label
_atom_site_fract_x
_atom_site_fract_y
_atom_site_fract_z
Si Si1 0.750000 0.250000 0.355260
Si Si2 0.131501 0.179945 0.051408
Si Si3 0.481056 0.877084 0.284303
Si Si4 0.738803 0.047972 0.612631
O O1 0.532618 0.218144 0.399305
O O2 0.706580 0.184950 0.312249
O O3 0.250000 0.250000 0.023398
O O4 0.315906 0.119769 0.079613
O O5 0.000000 0.140765 0.000000
O O6 0.750000 0.852269 0.250000
O O7 0.607696 0.923536 0.332136
O O8 0.250000 0.918403 0.250000
O O9 0.500000 0.000000 0.585860
O O10 0.000000 0.000000 0.621537
#
# Coordination Sequence:
#
# PCOD9328562 Si02
#       4
#     8  16  16  16
#     4  10  25  42  72 110 152 192 247 322 380 448
#     4  11  25  46  80 112 150 196 253 315 385 457
#     4  11  25  44  73 109 152 203 258 314 378 451
#     4  11  27  49  76 108 155 201 252 312 379 453
#
# _framework density 24.860598
#
# number of rings (size 3 to 8) (size 9 to 14) (size 15 to 20)
#    0.000    1.143    1.429    2.143   16.000    4.000 
#    0.000    1.429    0.000    0.000    0.000    0.000 
#    0.000    0.000    0.000    0.000    0.000    0.000 
#
# Total GULP energy -77949.417684 kJ/mol
# GULP energy per Si atom -5567.815549 kJ/mol
# Density = 2.480401 g / cm^3
# Si number density = 24.860598 Si / 1000 Ang^3
#
#
#
# Elastic Constant Matrix: (Units=GPa)
#
#
# Indices 1 2 3 4 5 6 
#
# 1 124.6548 54.1219 31.3912 0.0000 0.0000 0.0000
# 2 54.1219 152.7366 34.9070 0.0000 0.0000 0.0000
# 3 31.3912 34.9070 95.9897 0.0000 0.0000 0.0000
# 4 0.0000 0.0000 0.0000 23.2718 0.0000 0.0000
# 5 0.0000 0.0000 0.0000 0.0000 23.7424 0.0000
# 6 0.0000 0.0000 0.0000 0.0000 0.0000 43.8273
#
#
#
# Elastic Compliance Matrix: (Units=1/GPa)
#
#
# Indices 1 2 3 4 5 6 
#
# 1 0.009865 -0.003008 -0.002132 0.000000 0.000000 0.000000
# 2 -0.003008 0.008058 -0.001947 0.000000 0.000000 0.000000
# 3 -0.002132 -0.001947 0.011823 0.000000 0.000000 0.000000
# 4 0.000000 0.000000 0.000000 0.042970 0.000000 0.000000
# 5 0.000000 0.000000 0.000000 0.000000 0.042119 0.000000
# 6 0.000000 0.000000 0.000000 0.000000 0.000000 0.022817
#
#
# Mechanical properties :
#
#
# Convention : Reuss Voigt Hill
#
# Bulk Modulus (GPa) = 64.21770 68.24681 66.23225
# Shear Modulus (GPa) = 31.84360 35.03235 33.43798
#
# Velocity S-wave (km/s) = 3.58283 3.75794 3.67143
# Velocity P-wave (km/s) = 6.55765 6.80741 6.68370
#
# Compressibility (1/GPa) = 0.01557203
#
# Stress axis : x y z
#
# Youngs Moduli (GPa) = 101.36560 124.09843 84.58147
#
# Poissons Ratio (x) = 0.37334 0.18034
# Poissons Ratio (y) = 0.30495 0.16464
# Poissons Ratio (z) = 0.21613 0.24156
#
# Static dielectric constant tensor:
#      x y z
#    x 2.169660 0.000000 0.000000 
#    y 0.000000 1.979520 0.000000 
#    z 0.000000 0.000000 1.990860 
# 
# From -- ./inp_files/51012.got.cif
#   From: 2010.05.17/outbox.cif.g08.bks.cpg/sg22_26_cif.got.tgz:51012.got - 2010.06.03 23:40:54.
