data_PCOD9328469
_publ_section_title
;
Structure prediction by ZEFSAII (Michael W. Deem and Ramdas Pophale) SiO2 
 PCOD9328469
Probable space group: F 2 2 2
;
_chemical_formula_sum "Si O2"
_cell_formula_units_Z 64
_cell_length_a 11.031613
_cell_length_b 8.609510
_cell_length_c 31.558996
_cell_angle_alpha 90.000000
_cell_angle_beta 90.000000
_cell_angle_gamma 90.000000
_cell_volume 2997.371897
_symmetry_space_group_name_H-M "F 2 2 2"
_symmetry_group_IT_number 22
_symmetry_cell_setting 'orthorhombic'
loop_
_space_group_symop_operation_xyz
x,y,z
-x,-y,z
x,-y,-z
-x,y,-z
x,1/2+y,1/2+z
-x,1/2-y,1/2+z
x,1/2-y,1/2-z
-x,1/2+y,1/2-z
1/2+x,y,1/2+z
1/2-x,-y,1/2+z
1/2+x,-y,1/2-z
1/2-x,y,1/2-z
1/2+x,1/2+y,z
1/2-x,1/2-y,z
1/2+x,1/2-y,-z
1/2-x,1/2+y,-z
loop_
_atom_site_type_symbol
_atom_site_label
_atom_site_fract_x
_atom_site_fract_y
_atom_site_fract_z
Si Si1 0.376537 0.927279 0.264781
Si Si2 0.376242 0.451162 0.141365
Si Si3 0.620578 0.828001 0.019954
Si Si4 0.887785 0.608135 0.119029
O O1 0.375862 0.750000 0.250000
O O2 0.250000 0.001511 0.250000
O O3 0.500000 0.000000 0.247415
O O4 0.377932 0.952210 0.315204
O O5 0.500000 0.500000 0.117469
O O6 0.243504 0.474136 0.121641
O O7 0.385995 0.264711 0.146964
O O8 0.750000 0.750000 0.011853
O O9 0.600158 0.839307 0.070298
O O10 0.500000 0.751647 0.000000
O O11 0.627203 0.000000 0.000000
O O12 0.000000 0.500000 0.130586
#
# Coordination Sequence:
#
# PCOD9328469 Si02
#       4
#    16  16  16  16
#     4  10  24  44  69 101 138 176 230 282 343 410
#     4  10  24  43  68 101 135 180 234 274 348 405
#     4  11  23  44  68 100 137 180 231 282 343 401
#     4  11  23  45  67  94 142 176 228 288 337 406
#
# _framework density 21.352039000000001
#
# number of rings (size 3 to 8) (size 9 to 14) (size 15 to 20)
#    0.000    1.500    5.000    0.000    0.000   21.000 
#    0.000    0.000    0.000    0.000    0.000    0.000 
#    0.000    0.000    0.000    0.000    0.000    0.000 
#
# Total GULP energy -89279.817884 kJ/mol
# GULP energy per Si atom -5579.988618 kJ/mol
# Density = 2.130344 g / cm^3
# Si number density = 21.352039 Si / 1000 Ang^3
#
#
#
# Elastic Constant Matrix: (Units=GPa)
#
#
# Indices 1 2 3 4 5 6 
#
# 1 249.3613 54.2691 19.6092 0.0000 0.0000 0.0000
# 2 54.2691 73.4739 25.7950 0.0000 0.0000 0.0000
# 3 19.6092 25.7950 82.0140 0.0000 0.0000 0.0000
# 4 0.0000 0.0000 0.0000 11.7140 0.0000 0.0000
# 5 0.0000 0.0000 0.0000 0.0000 31.6009 0.0000
# 6 0.0000 0.0000 0.0000 0.0000 0.0000 49.0701
#
#
#
# Elastic Compliance Matrix: (Units=1/GPa)
#
#
# Indices 1 2 3 4 5 6 
#
# 1 0.004778 -0.003517 -0.000036 0.000000 0.000000 0.000000
# 2 -0.003517 0.017888 -0.004785 0.000000 0.000000 0.000000
# 3 -0.000036 -0.004785 0.013707 0.000000 0.000000 0.000000
# 4 0.000000 0.000000 0.000000 0.085368 0.000000 0.000000
# 5 0.000000 0.000000 0.000000 0.000000 0.031645 0.000000
# 6 0.000000 0.000000 0.000000 0.000000 0.000000 0.020379
#
#
# Mechanical properties :
#
#
# Convention : Reuss Voigt Hill
#
# Bulk Modulus (GPa) = 50.77089 67.13288 58.95189
# Shear Modulus (GPa) = 25.37984 38.82205 32.10095
#
# Velocity S-wave (km/s) = 3.45140 4.26865 3.88159
# Velocity P-wave (km/s) = 6.30179 7.47023 6.91075
#
# Compressibility (1/GPa) = 0.01969632
#
# Stress axis : x y z
#
# Youngs Moduli (GPa) = 209.27292 55.90432 72.95655
#
# Poissons Ratio (x) = 0.19660 0.00266
# Poissons Ratio (y) = 0.73594 0.34911
# Poissons Ratio (z) = 0.00763 0.26751
#
# Static dielectric constant tensor:
#      x y z
#    x 1.858180 0.000000 0.000000 
#    y 0.000000 1.782800 0.000000 
#    z 0.000000 0.000000 1.784900 
# 
# From -- ./inp_files/8519.got.cif
#   From: 2010.05.17/outbox.cif.g08.bks.cpg/sg22_5_cif.got.tgz:8519.got - 2010.06.03 23:40:54.
