data_PCOD9328907
_publ_section_title
;
Structure prediction by ZEFSAII (Michael W. Deem and Ramdas Pophale) SiO2 
 PCOD9328907
Probable space group: F 2 2 2
;
_chemical_formula_sum "Si O2"
_cell_formula_units_Z 112
_cell_length_a 5.116429
_cell_length_b 29.012775
_cell_length_c 35.263624
_cell_angle_alpha 90.000000
_cell_angle_beta 90.000000
_cell_angle_gamma 90.000000
_cell_volume 5234.595940
_symmetry_space_group_name_H-M "F 2 2 2"
_symmetry_group_IT_number 22
_symmetry_cell_setting 'orthorhombic'
loop_
_space_group_symop_operation_xyz
x,y,z
-x,-y,z
x,-y,-z
-x,y,-z
x,1/2+y,1/2+z
-x,1/2-y,1/2+z
x,1/2-y,1/2-z
-x,1/2+y,1/2-z
1/2+x,y,1/2+z
1/2-x,-y,1/2+z
1/2+x,-y,1/2-z
1/2-x,y,1/2-z
1/2+x,1/2+y,z
1/2-x,1/2-y,z
1/2+x,1/2-y,-z
1/2-x,1/2+y,-z
loop_
_atom_site_type_symbol
_atom_site_label
_atom_site_fract_x
_atom_site_fract_y
_atom_site_fract_z
Si Si1 0.835325 0.802072 0.586461
Si Si2 0.867155 0.954532 0.177549
Si Si3 0.713891 0.879771 0.851431
Si Si4 0.393469 0.953285 0.899980
Si Si5 0.988730 0.605010 0.225196
Si Si6 0.645993 0.315038 0.964812
Si Si7 0.746562 0.918869 0.478207
O O1 0.750000 0.750000 0.594778
O O2 0.813073 0.833606 0.623760
O O3 0.603470 0.823369 0.561408
O O4 0.107510 0.799677 0.561838
O O5 0.038268 0.908633 0.166459
O O6 0.763935 0.969598 0.136614
O O7 0.636656 0.940468 0.206014
O O8 0.000000 0.000000 0.193959
O O9 0.592614 0.917388 0.880641
O O10 0.558267 0.867945 0.812952
O O11 0.241825 0.928496 0.933560
O O12 0.500000 0.000000 0.917789
O O13 0.750000 0.624673 0.250000
O O14 0.250000 0.597972 0.250000
O O15 0.741497 0.363430 0.981427
O O16 0.500000 0.287735 0.000000
O O17 0.500000 0.938179 0.500000
O O18 0.000000 0.935960 0.500000
#
# Coordination Sequence:
#
# PCOD9328907 Si02
#       7
#    16  16  16  16  16  16  16
#     4  12  26  44  71 104 134 178 229 284 345 402
#     4  11  23  42  69 102 139 185 228 272 339 407
#     4  11  24  44  70  99 138 178 225 281 335 407
#     4  11  23  39  65  94 133 182 234 282 331 398
#     4  11  24  46  68 103 138 182 220 273 338 410
#     4  11  23  43  68  97 137 179 221 280 350 412
#     4  11  24  41  65  92 129 180 230 282 343 390
#
# _framework density 21.39611
#
# number of rings (size 3 to 8) (size 9 to 14) (size 15 to 20)
#    0.000    0.857    4.286    3.429    4.000    1.429 
#    2.571    1.429    0.000    0.429    3.714    0.000 
#    0.000    0.000    0.000    0.000    0.000    0.000 
#
# Total GULP energy -155977.527281 kJ/mol
# GULP energy per Si atom -5570.625974 kJ/mol
# Density = 2.134741 g / cm^3
# Si number density = 21.396110 Si / 1000 Ang^3
#
#
#
# Elastic Constant Matrix: (Units=GPa)
#
#
# Indices 1 2 3 4 5 6 
#
# 1 150.6220 31.4601 79.9252 0.0000 0.0000 0.0000
# 2 31.4601 77.4828 45.6500 0.0000 0.0000 0.0000
# 3 79.9252 45.6500 162.9059 0.0000 0.0000 0.0000
# 4 0.0000 0.0000 0.0000 103.9769 0.0000 0.0000
# 5 0.0000 0.0000 0.0000 0.0000 34.3177 0.0000
# 6 0.0000 0.0000 0.0000 0.0000 0.0000 -79.7712
#
#
#
# Elastic Compliance Matrix: (Units=1/GPa)
#
#
# Indices 1 2 3 4 5 6 
#
# 1 0.009079 -0.001272 -0.004098 0.000000 0.000000 0.000000
# 2 -0.001272 0.015636 -0.003758 0.000000 0.000000 0.000000
# 3 -0.004098 -0.003758 0.009202 0.000000 0.000000 0.000000
# 4 0.000000 0.000000 0.000000 0.009618 0.000000 0.000000
# 5 0.000000 0.000000 0.000000 0.000000 0.029139 0.000000
# 6 0.000000 0.000000 0.000000 0.000000 0.000000 -0.012536
#
#
# Mechanical properties :
#
#
# Convention : Reuss Voigt Hill
#
# Bulk Modulus (GPa) = 63.84698 78.34237 71.09467
# Shear Modulus (GPa) = 59.79761 27.30304 43.55032
#
# Velocity S-wave (km/s) = 5.29231 3.57609 4.51647
# Velocity P-wave (km/s) = 8.20061 7.33117 7.77805
#
# Compressibility (1/GPa) = 0.01566245
#
# Stress axis : x y z
#
# Youngs Moduli (GPa) = 110.13913 63.95335 108.67081
#
# Poissons Ratio (x) = 0.08135 0.44535
# Poissons Ratio (y) = 0.14010 0.40834
# Poissons Ratio (z) = 0.45136 0.24031
#
# Static dielectric constant tensor:
#      x y z
#    x 1.874990 0.000000 0.000000 
#    y 0.000000 1.806240 0.000000 
#    z 0.000000 0.000000 1.804120 
# 
# From -- ./inp_files/55173.got.cif
#   From: 2010.05.17/outbox.cif.g08.bks.cpg/sg22_28_cif.got.tgz:55173.got - 2010.06.03 23:40:54.
