data_PCOD9328446
_publ_section_title
;
Structure prediction by ZEFSAII (Michael W. Deem and Ramdas Pophale) SiO2 
 PCOD9328446
Probable space group: F 2 2 2
;
_chemical_formula_sum "Si O2"
_cell_formula_units_Z 88
_cell_length_a 23.038499
_cell_length_b 23.484268
_cell_length_c 8.128195
_cell_angle_alpha 90.000000
_cell_angle_beta 90.000000
_cell_angle_gamma 90.000000
_cell_volume 4397.697194
_symmetry_space_group_name_H-M "F 2 2 2"
_symmetry_group_IT_number 22
_symmetry_cell_setting 'orthorhombic'
loop_
_space_group_symop_operation_xyz
x,y,z
-x,-y,z
x,-y,-z
-x,y,-z
x,1/2+y,1/2+z
-x,1/2-y,1/2+z
x,1/2-y,1/2-z
-x,1/2+y,1/2-z
1/2+x,y,1/2+z
1/2-x,-y,1/2+z
1/2+x,-y,1/2-z
1/2-x,y,1/2-z
1/2+x,1/2+y,z
1/2-x,1/2-y,z
1/2+x,1/2-y,-z
1/2-x,1/2+y,-z
loop_
_atom_site_type_symbol
_atom_site_label
_atom_site_fract_x
_atom_site_fract_y
_atom_site_fract_z
Si Si1 0.861291 0.873663 0.958016
Si Si2 0.256748 0.314972 0.550141
Si Si3 0.564926 0.777041 0.431268
Si Si4 0.103016 0.000000 0.000000
Si Si5 0.615149 0.169165 0.084185
Si Si6 0.000000 0.000000 0.251371
Si Si7 0.000000 0.397763 0.000000
O O1 0.797755 0.851478 0.005731
O O2 0.878235 0.853323 0.771696
O O3 0.907521 0.839618 0.068529
O O4 0.863328 0.941226 0.976675
O O5 0.250000 0.313550 0.750000
O O6 0.250000 0.250000 0.491512
O O7 0.320437 0.339022 0.509532
O O8 0.500000 0.779343 0.500000
O O9 0.565797 0.750000 0.250000
O O10 0.601785 0.736059 0.553627
O O11 0.058811 0.004970 0.150590
O O12 0.558741 0.139213 0.005177
O O13 0.003509 0.941447 0.350112
#
# Coordination Sequence:
#
# PCOD9328446 Si02
#       7
#    16  16  16   8  16   8   8
#     4  11  23  42  66  92 131 173 222 265 321 393
#     4   9  18  37  65  94 127 172 216 262 323 395
#     4  12  26  38  61  97 134 164 209 275 335 388
#     4  11  24  40  64  92 124 169 218 264 322 385
#     4  11  21  40  67  98 124 167 220 271 332 387
#     4  10  24  42  60  88 128 174 208 264 328 400
#     4  11  22  40  64  92 128 163 220 270 330 391
#
# _framework density 20.010472
#
# number of rings (size 3 to 8) (size 9 to 14) (size 15 to 20)
#    0.000    1.273    4.545    1.636    5.091    0.000 
#    0.000    3.636    0.000    0.000    0.000    0.000 
#    0.000    0.000    0.000    0.000    0.000    0.000 
#
# Total GULP energy -122843.214795 kJ/mol
# GULP energy per Si atom -5583.782491 kJ/mol
# Density = 1.996493 g / cm^3
# Si number density = 20.010472 Si / 1000 Ang^3
#
#
#
# Elastic Constant Matrix: (Units=GPa)
#
#
# Indices 1 2 3 4 5 6 
#
# 1 150.2429 53.2265 25.0724 -0.0007 0.0005 0.0001
# 2 53.2265 150.0069 30.4589 -0.0008 0.0006 0.0003
# 3 25.0724 30.4589 51.9618 -0.0014 0.0007 0.0003
# 4 -0.0007 -0.0008 -0.0014 29.5216 0.0007 0.0003
# 5 0.0005 0.0006 0.0007 0.0007 15.8537 -0.0001
# 6 0.0001 0.0003 0.0003 0.0003 -0.0001 31.2433
#
#
#
# Elastic Compliance Matrix: (Units=1/GPa)
#
#
# Indices 1 2 3 4 5 6 
#
# 1 0.007879 -0.002297 -0.002455 0.000000 0.000000 0.000000
# 2 -0.002297 0.008237 -0.003720 0.000000 0.000000 0.000000
# 3 -0.002455 -0.003720 0.022610 0.000001 -0.000001 0.000000
# 4 0.000000 0.000000 0.000001 0.033874 -0.000001 0.000000
# 5 0.000000 0.000000 -0.000001 -0.000001 0.063077 0.000000
# 6 0.000000 0.000000 0.000000 0.000000 0.000000 0.032007
#
#
# Mechanical properties :
#
#
# Convention : Reuss Voigt Hill
#
# Bulk Modulus (GPa) = 45.91037 63.30302 54.60669
# Shear Modulus (GPa) = 26.05674 31.55397 28.80536
#
# Velocity S-wave (km/s) = 3.61245 3.97529 3.79821
# Velocity P-wave (km/s) = 6.35553 7.26459 6.82521
#
# Compressibility (1/GPa) = 0.02178157
#
# Stress axis : x y z
#
# Youngs Moduli (GPa) = 126.91162 121.40639 44.22806
#
# Poissons Ratio (x) = 0.27891 0.10860
# Poissons Ratio (y) = 0.29155 0.16452
# Poissons Ratio (z) = 0.31161 0.45160
#
# Static dielectric constant tensor:
#      x y z
#    x 1.683470 0.000000 0.000000 
#    y 0.000000 1.696570 0.000000 
#    z 0.000000 0.000000 1.762760 
# 
# From -- ./inp_files/12701.got.cif
#   From: 2010.05.17/outbox.cif.g08.bks.cpg/sg22_7_cif.got.tgz:12701.got - 2010.06.03 23:40:54.
