data_PCOD9328225
_publ_section_title
;
Structure prediction by ZEFSAII (Michael W. Deem and Ramdas Pophale) SiO2 
 PCOD9328225
Probable space group: F 2 2 2
;
_chemical_formula_sum "Si O2"
_cell_formula_units_Z 100
_cell_length_a 14.924970
_cell_length_b 19.869449
_cell_length_c 14.540104
_cell_angle_alpha 90.000000
_cell_angle_beta 90.000000
_cell_angle_gamma 90.000000
_cell_volume 4311.881367
_symmetry_space_group_name_H-M "F 2 2 2"
_symmetry_group_IT_number 22
_symmetry_cell_setting 'orthorhombic'
loop_
_space_group_symop_operation_xyz
x,y,z
-x,-y,z
x,-y,-z
-x,y,-z
x,1/2+y,1/2+z
-x,1/2-y,1/2+z
x,1/2-y,1/2-z
-x,1/2+y,1/2-z
1/2+x,y,1/2+z
1/2-x,-y,1/2+z
1/2+x,-y,1/2-z
1/2-x,y,1/2-z
1/2+x,1/2+y,z
1/2-x,1/2-y,z
1/2+x,1/2-y,-z
1/2-x,1/2+y,-z
loop_
_atom_site_type_symbol
_atom_site_label
_atom_site_fract_x
_atom_site_fract_y
_atom_site_fract_z
Si Si1 0.750000 0.931108 0.250000
Si Si2 0.000000 0.500000 0.000000
Si Si3 0.158386 0.767567 0.588526
Si Si4 0.128839 0.455967 0.838770
Si Si5 0.123818 0.115561 0.092710
Si Si6 0.260110 0.865954 0.444610
Si Si7 0.438389 0.122958 0.666151
Si Si8 0.964747 0.250000 0.750000
O O1 0.820676 0.890813 0.187287
O O2 0.813167 0.978081 0.314054
O O3 0.936127 0.537209 0.926709
O O4 0.250000 0.750000 0.639906
O O5 0.122372 0.693985 0.558968
O O6 0.304438 0.684956 0.505607
O O7 0.089806 0.787241 0.667429
O O8 0.196701 0.399176 0.870744
O O9 0.081830 0.431062 0.745592
O O10 0.021472 0.094346 0.105161
O O11 0.192448 0.084346 0.019033
O O12 0.348679 0.851914 0.383851
O O13 0.478860 0.190544 0.707728
#
# Coordination Sequence:
#
# PCOD9328225 Si02
#       8
#     8   4  16  16  16  16  16   8
#     4  12  24  48  75 105 152 198 262 314 374 454
#     4  12  28  44  76 108 144 184 272 316 378 452
#     4   9  21  38  67 105 137 186 246 299 372 431
#     4  12  26  48  72 107 145 199 250 315 386 449
#     4  10  24  40  74 102 145 192 252 304 372 438
#     4  11  23  45  69 102 149 190 246 304 379 465
#     4  11  24  45  67 108 151 193 246 307 385 452
#     4  10  23  38  71 104 144 190 244 308 373 449
#
# _framework density 23.191732999999999
#
# number of rings (size 3 to 8) (size 9 to 14) (size 15 to 20)
#    0.000    1.280    1.600    2.640   11.200    3.840 
#    0.000    4.000    3.520    0.000    0.000    0.000 
#    0.000    0.000    0.000    0.000    0.000    0.000 
#
# Total GULP energy -139183.654882 kJ/mol
# GULP energy per Si atom -5567.346195 kJ/mol
# Density = 2.313895 g / cm^3
# Si number density = 23.191733 Si / 1000 Ang^3
#
#
#
# Elastic Constant Matrix: (Units=GPa)
#
#
# Indices 1 2 3 4 5 6 
#
# 1 144.5392 33.0258 64.9524 0.0000 0.0000 0.0000
# 2 33.0258 57.7179 40.4804 0.0000 0.0000 0.0000
# 3 64.9524 40.4804 135.8096 0.0000 0.0000 0.0000
# 4 0.0000 0.0000 0.0000 42.4369 0.0000 0.0000
# 5 0.0000 0.0000 0.0000 0.0000 103.9178 0.0000
# 6 0.0000 0.0000 0.0000 0.0000 0.0000 27.8759
#
#
#
# Elastic Compliance Matrix: (Units=1/GPa)
#
#
# Indices 1 2 3 4 5 6 
#
# 1 0.009142 -0.002737 -0.003557 0.000000 0.000000 0.000000
# 2 -0.002737 0.022724 -0.005464 0.000000 0.000000 0.000000
# 3 -0.003557 -0.005464 0.010693 0.000000 0.000000 0.000000
# 4 0.000000 0.000000 0.000000 0.023564 0.000000 0.000000
# 5 0.000000 0.000000 0.000000 0.000000 0.009623 0.000000
# 6 0.000000 0.000000 0.000000 0.000000 0.000000 0.035873
#
#
# Mechanical properties :
#
#
# Convention : Reuss Voigt Hill
#
# Bulk Modulus (GPa) = 52.51068 68.33152 60.42110
# Shear Modulus (GPa) = 35.33992 48.15333 41.74663
#
# Velocity S-wave (km/s) = 3.90784 4.56160 4.24732
# Velocity P-wave (km/s) = 6.56146 7.56783 7.08254
#
# Compressibility (1/GPa) = 0.01904374
#
# Stress axis : x y z
#
# Youngs Moduli (GPa) = 109.38440 44.00629 93.51903
#
# Poissons Ratio (x) = 0.12043 0.33261
# Poissons Ratio (y) = 0.29934 0.51103
# Poissons Ratio (z) = 0.38904 0.24047
#
# Static dielectric constant tensor:
#      x y z
#    x 2.021060 0.000000 0.000000 
#    y 0.000000 1.927720 0.000000 
#    z 0.000000 0.000000 1.945580 
# 
# From -- ./inp_files/29588.got.cif
#   From: 2010.05.17/outbox.cif.g08.bks.cpg/sg22_15_cif.got.tgz:29588.got - 2010.06.03 23:40:54.
