data_PCOD9328369
_publ_section_title
;
Structure prediction by ZEFSAII (Michael W. Deem and Ramdas Pophale) SiO2 
 PCOD9328369
Probable space group: F 2 2 2
;
_chemical_formula_sum "Si O2"
_cell_formula_units_Z 72
_cell_length_a 16.918974
_cell_length_b 17.809598
_cell_length_c 10.800104
_cell_angle_alpha 90.000000
_cell_angle_beta 90.000000
_cell_angle_gamma 90.000000
_cell_volume 3254.288693
_symmetry_space_group_name_H-M "F 2 2 2"
_symmetry_group_IT_number 22
_symmetry_cell_setting 'orthorhombic'
loop_
_space_group_symop_operation_xyz
x,y,z
-x,-y,z
x,-y,-z
-x,y,-z
x,1/2+y,1/2+z
-x,1/2-y,1/2+z
x,1/2-y,1/2-z
-x,1/2+y,1/2-z
1/2+x,y,1/2+z
1/2-x,-y,1/2+z
1/2+x,-y,1/2-z
1/2-x,y,1/2-z
1/2+x,1/2+y,z
1/2-x,1/2-y,z
1/2+x,1/2-y,-z
1/2-x,1/2+y,-z
loop_
_atom_site_type_symbol
_atom_site_label
_atom_site_fract_x
_atom_site_fract_y
_atom_site_fract_z
Si Si1 0.039485 0.117090 0.299503
Si Si2 0.162381 0.607964 0.598109
Si Si3 0.867579 0.877218 0.814984
Si Si4 0.250000 0.750000 0.250000
Si Si5 0.750000 0.501367 0.750000
Si Si6 0.500000 0.500000 0.500000
Si Si7 0.641353 0.250000 0.750000
O O1 0.951691 0.134208 0.249758
O O2 0.088992 0.084633 0.184599
O O3 0.084767 0.194638 0.329353
O O4 0.043747 0.057640 0.408889
O O5 0.132847 0.601273 0.459152
O O6 0.234081 0.553535 0.634467
O O7 0.181569 0.691615 0.653612
O O8 0.810359 0.805033 0.818604
O O9 0.823080 0.942215 0.738763
#
# Coordination Sequence:
#
# PCOD9328369 Si02
#       7
#    16  16  16   4   8   4   8
#     4  10  23  45  70 110 135 191 247 292 371 414
#     4  10  23  47  71 102 139 189 240 302 348 441
#     4  11  23  46  72  99 145 189 236 305 353 449
#     4  10  26  40  64 118 140 192 232 286 388 432
#     4  11  24  40  62 105 136 180 240 275 376 410
#     4  12  24  40  70 112 152 174 232 328 348 432
#     4   8  23  41  74 108 130 180 240 294 357 423
#
# _framework density 22.124649999999999
#
# number of rings (size 3 to 8) (size 9 to 14) (size 15 to 20)
#    1.333    0.444    0.000    3.333    0.000    5.778 
#   24.000    3.333    0.000    0.000    0.000    0.000 
#    0.000    0.000    0.000    0.000    0.000    0.000 
#
# Total GULP energy -100303.654182 kJ/mol
# GULP energy per Si atom -5572.425232 kJ/mol
# Density = 2.207429 g / cm^3
# Si number density = 22.124650 Si / 1000 Ang^3
#
#
#
# Elastic Constant Matrix: (Units=GPa)
#
#
# Indices 1 2 3 4 5 6 
#
# 1 74.6581 36.4758 32.6654 0.0000 0.0000 0.0000
# 2 36.4758 138.7415 32.6512 0.0000 0.0000 0.0000
# 3 32.6654 32.6512 98.8473 0.0000 0.0000 0.0000
# 4 0.0000 0.0000 0.0000 30.0892 0.0000 0.0000
# 5 0.0000 0.0000 0.0000 0.0000 4.6807 0.0000
# 6 0.0000 0.0000 0.0000 0.0000 0.0000 30.5303
#
#
#
# Elastic Compliance Matrix: (Units=1/GPa)
#
#
# Indices 1 2 3 4 5 6 
#
# 1 0.017034 -0.003419 -0.004500 0.000000 0.000000 0.000000
# 2 -0.003419 0.008502 -0.001678 0.000000 0.000000 0.000000
# 3 -0.004500 -0.001678 0.012158 0.000000 0.000000 0.000000
# 4 0.000000 0.000000 0.000000 0.033234 0.000000 0.000000
# 5 0.000000 0.000000 0.000000 0.000000 0.213641 0.000000
# 6 0.000000 0.000000 0.000000 0.000000 0.000000 0.032754
#
#
# Mechanical properties :
#
#
# Convention : Reuss Voigt Hill
#
# Bulk Modulus (GPa) = 54.05730 57.31464 55.68597
# Shear Modulus (GPa) = 14.59072 27.09034 20.84053
#
# Velocity S-wave (km/s) = 2.57082 3.50300 3.07247
# Velocity P-wave (km/s) = 5.77046 6.50561 6.14903
#
# Compressibility (1/GPa) = 0.01849889
#
# Stress axis : x y z
#
# Youngs Moduli (GPa) = 58.70722 117.62539 82.25091
#
# Poissons Ratio (x) = 0.40220 0.37009
# Poissons Ratio (y) = 0.20074 0.13804
# Poissons Ratio (z) = 0.26416 0.19741
#
# Static dielectric constant tensor:
#      x y z
#    x 1.872820 0.000000 0.000000 
#    y 0.000000 1.892730 0.000000 
#    z 0.000000 0.000000 1.792600 
# 
# From -- ./inp_files/21164.got.cif
#   From: 2010.05.17/outbox.cif.g08.bks.cpg/sg22_11_cif.got.tgz:21164.got - 2010.06.03 23:40:54.
