data_PCOD9328327
_publ_section_title
;
Structure prediction by ZEFSAII (Michael W. Deem and Ramdas Pophale) SiO2 
 PCOD9328327
Probable space group: F 2 2 2
;
_chemical_formula_sum "Si O2"
_cell_formula_units_Z 116
_cell_length_a 23.477835
_cell_length_b 9.427245
_cell_length_c 24.535647
_cell_angle_alpha 90.000000
_cell_angle_beta 90.000000
_cell_angle_gamma 90.000000
_cell_volume 5430.506711
_symmetry_space_group_name_H-M "F 2 2 2"
_symmetry_group_IT_number 22
_symmetry_cell_setting 'orthorhombic'
loop_
_space_group_symop_operation_xyz
x,y,z
-x,-y,z
x,-y,-z
-x,y,-z
x,1/2+y,1/2+z
-x,1/2-y,1/2+z
x,1/2-y,1/2-z
-x,1/2+y,1/2-z
1/2+x,y,1/2+z
1/2-x,-y,1/2+z
1/2+x,-y,1/2-z
1/2-x,y,1/2-z
1/2+x,1/2+y,z
1/2-x,1/2-y,z
1/2+x,1/2-y,-z
1/2-x,1/2+y,-z
loop_
_atom_site_type_symbol
_atom_site_label
_atom_site_fract_x
_atom_site_fract_y
_atom_site_fract_z
Si Si1 0.669697 0.990187 0.766795
Si Si2 0.311238 0.214084 0.664925
Si Si3 0.692964 0.839527 0.480208
Si Si4 0.397917 0.155636 0.570622
Si Si5 0.445539 0.397934 0.221626
Si Si6 0.602297 0.147707 0.600876
Si Si7 0.750000 0.750000 0.250000
Si Si8 0.994786 0.156493 0.565210
O O1 0.692609 0.904562 0.712778
O O2 0.670660 0.865924 0.811047
O O3 0.604525 0.033212 0.757388
O O4 0.706536 0.133769 0.777299
O O5 0.250000 0.250000 0.639888
O O6 0.355373 0.159549 0.621364
O O7 0.750000 0.750000 0.485630
O O8 0.640261 0.793792 0.519562
O O9 0.667397 0.834696 0.418869
O O10 0.704674 0.000000 0.500000
O O11 0.452672 0.247776 0.583425
O O12 0.416676 0.992111 0.566916
O O13 0.500000 0.500000 0.215058
O O14 0.462649 0.250000 0.250000
O O15 0.414289 0.373463 0.163546
O O16 0.564825 0.278341 0.581695
O O17 0.000000 0.152862 0.500000
O O18 0.000000 0.000000 0.588086
#
# Coordination Sequence:
#
# PCOD9328327 Si02
#       8
#    16  16  16  16  16  16   4  16
#     4  11  23  42  67  97 141 184 229 290 348 415
#     4  11  22  41  69 100 134 182 227 279 344 416
#     4  10  23  43  68 101 139 175 225 283 350 412
#     4  11  22  41  72 102 132 177 230 280 340 418
#     4  12  28  46  68 101 140 182 233 292 353 414
#     4  11  24  45  69  98 136 186 230 279 345 419
#     4  12  20  46  68 100 136 178 244 290 344 426
#     4  11  24  42  67  99 134 174 224 281 341 410
#
# _framework density 21.360807000000001
#
# number of rings (size 3 to 8) (size 9 to 14) (size 15 to 20)
#    0.000    0.966    4.828    2.069    1.931    3.310 
#    1.241    2.759    0.000    0.000    0.000    0.000 
#    0.000    0.000    0.000    0.000    0.000    0.000 
#
# Total GULP energy -161964.312716 kJ/mol
# GULP energy per Si atom -5584.976301 kJ/mol
# Density = 2.131219 g / cm^3
# Si number density = 21.360807 Si / 1000 Ang^3
#
#
#
# Elastic Constant Matrix: (Units=GPa)
#
#
# Indices 1 2 3 4 5 6 
#
# 1 89.5338 50.4131 17.6454 0.0000 0.0000 0.0000
# 2 50.4131 133.4202 19.8699 0.0000 0.0000 0.0000
# 3 17.6454 19.8699 69.8042 0.0000 0.0000 0.0000
# 4 0.0000 0.0000 0.0000 12.8403 0.0000 0.0000
# 5 0.0000 0.0000 0.0000 0.0000 19.0609 0.0000
# 6 0.0000 0.0000 0.0000 0.0000 0.0000 43.4745
#
#
#
# Elastic Compliance Matrix: (Units=1/GPa)
#
#
# Indices 1 2 3 4 5 6 
#
# 1 0.014504 -0.005153 -0.002200 0.000000 0.000000 0.000000
# 2 -0.005153 0.009657 -0.001447 0.000000 0.000000 0.000000
# 3 -0.002200 -0.001447 0.015294 0.000000 0.000000 0.000000
# 4 0.000000 0.000000 0.000000 0.077880 0.000000 0.000000
# 5 0.000000 0.000000 0.000000 0.000000 0.052463 0.000000
# 6 0.000000 0.000000 0.000000 0.000000 0.000000 0.023002
#
#
# Mechanical properties :
#
#
# Convention : Reuss Voigt Hill
#
# Bulk Modulus (GPa) = 45.75146 52.06832 48.90989
# Shear Modulus (GPa) = 22.96914 28.73047 25.84981
#
# Velocity S-wave (km/s) = 3.28272 3.67141 3.48250
# Velocity P-wave (km/s) = 5.98609 6.51160 6.25437
#
# Compressibility (1/GPa) = 0.02185723
#
# Stress axis : x y z
#
# Youngs Moduli (GPa) = 68.94766 103.54650 65.38704
#
# Poissons Ratio (x) = 0.53354 0.14382
# Poissons Ratio (y) = 0.35527 0.09458
# Poissons Ratio (z) = 0.15166 0.14978
#
# Static dielectric constant tensor:
#      x y z
#    x 1.753930 0.000000 0.000000 
#    y 0.000000 1.779730 0.000000 
#    z 0.000000 0.000000 1.817700 
# 
# From -- ./inp_files/54209.got.cif
#   From: 2010.05.17/outbox.cif.g08.bks.cpg/sg22_28_cif.got.tgz:54209.got - 2010.06.03 23:40:54.
