data_PCOD9328389
_publ_section_title
;
Structure prediction by ZEFSAII (Michael W. Deem and Ramdas Pophale) SiO2 
 PCOD9328389
Probable space group: F 2 2 2
;
_chemical_formula_sum "Si O2"
_cell_formula_units_Z 64
_cell_length_a 18.635332
_cell_length_b 19.173450
_cell_length_c 7.772692
_cell_angle_alpha 90.000000
_cell_angle_beta 90.000000
_cell_angle_gamma 90.000000
_cell_volume 2777.210883
_symmetry_space_group_name_H-M "F 2 2 2"
_symmetry_group_IT_number 22
_symmetry_cell_setting 'orthorhombic'
loop_
_space_group_symop_operation_xyz
x,y,z
-x,-y,z
x,-y,-z
-x,y,-z
x,1/2+y,1/2+z
-x,1/2-y,1/2+z
x,1/2-y,1/2-z
-x,1/2+y,1/2-z
1/2+x,y,1/2+z
1/2-x,-y,1/2+z
1/2+x,-y,1/2-z
1/2-x,y,1/2-z
1/2+x,1/2+y,z
1/2-x,1/2-y,z
1/2+x,1/2-y,-z
1/2-x,1/2+y,-z
loop_
_atom_site_type_symbol
_atom_site_label
_atom_site_fract_x
_atom_site_fract_y
_atom_site_fract_z
Si Si1 0.262922 0.852915 0.554987
Si Si2 0.133143 0.262817 0.943329
Si Si3 0.540931 0.069963 0.322723
Si Si4 0.325330 0.000000 0.500000
Si Si5 0.500000 0.164233 0.000000
O O1 0.250000 0.831803 0.750000
O O2 0.196347 0.821100 0.448476
O O3 0.332701 0.810044 0.499258
O O4 0.275499 0.935364 0.553109
O O5 0.107876 0.250000 0.750000
O O6 0.067366 0.289165 0.055292
O O7 0.500000 0.094386 0.500000
O O8 0.620015 0.039993 0.369075
O O9 0.500000 0.000000 0.270732
O O10 0.530340 0.120352 0.161390
#
# Coordination Sequence:
#
# PCOD9328389 Si02
#       5
#    16  16  16   8   8
#     4  11  25  46  73 103 145 193 247 313 365 451
#     4  11  26  47  69 107 150 193 252 309 368 456
#     4   9  22  44  71 110 150 177 239 315 359 443
#     4  10  23  46  78 103 150 194 246 312 388 439
#     4  12  25  46  80 103 148 202 246 300 392 447
#
# _framework density 23.044703999999999
#
# number of rings (size 3 to 8) (size 9 to 14) (size 15 to 20)
#    0.000    1.750    0.000    4.875    7.000    6.000 
#   15.750    0.000    0.000    0.000    0.000    0.000 
#    0.000    0.000    0.000    0.000    0.000    0.000 
#
# Total GULP energy -89370.874980 kJ/mol
# GULP energy per Si atom -5585.679686 kJ/mol
# Density = 2.299225 g / cm^3
# Si number density = 23.044704 Si / 1000 Ang^3
#
#
#
# Elastic Constant Matrix: (Units=GPa)
#
#
# Indices 1 2 3 4 5 6 
#
# 1 71.5944 58.7525 5.1411 0.0000 -0.0001 0.0000
# 2 58.7525 159.9208 52.5079 -0.0002 -0.0001 0.0001
# 3 5.1411 52.5079 89.6503 0.0001 -0.0005 -0.0001
# 4 0.0000 -0.0002 0.0001 23.3157 -0.0002 0.0003
# 5 -0.0001 -0.0001 -0.0005 -0.0002 9.4303 0.0001
# 6 0.0000 0.0001 -0.0001 0.0003 0.0001 32.3629
#
#
#
# Elastic Compliance Matrix: (Units=1/GPa)
#
#
# Indices 1 2 3 4 5 6 
#
# 1 0.021166 -0.009134 0.004136 0.000000 0.000000 0.000000
# 2 -0.009134 0.011684 -0.006319 0.000000 0.000000 0.000000
# 3 0.004136 -0.006319 0.014618 0.000000 0.000001 0.000000
# 4 0.000000 0.000000 0.000000 0.042889 0.000001 0.000000
# 5 0.000000 0.000000 0.000001 0.000001 0.106041 0.000000
# 6 0.000000 0.000000 0.000000 0.000000 0.000000 0.030900
#
#
# Mechanical properties :
#
#
# Convention : Reuss Voigt Hill
#
# Bulk Modulus (GPa) = 40.26792 61.55206 50.90999
# Shear Modulus (GPa) = 19.36399 26.67272 23.01836
#
# Velocity S-wave (km/s) = 2.90190 3.40580 3.16390
# Velocity P-wave (km/s) = 5.36095 6.49875 5.95708
#
# Compressibility (1/GPa) = 0.02483366
#
# Stress axis : x y z
#
# Youngs Moduli (GPa) = 47.24467 85.58893 68.40660
#
# Poissons Ratio (x) = 0.78179 -0.28294
# Poissons Ratio (y) = 0.43154 0.43228
# Poissons Ratio (z) = -0.19541 0.54086
#
# Static dielectric constant tensor:
#      x y z
#    x 7.680320 0.000000 0.000010 
#    y 0.000000 1.843910 0.000000 
#    z 0.000010 0.000000 1.873580 
# 
# From -- ./inp_files/12408.got.cif
#   From: 2010.05.17/outbox.cif.g08.bks.cpg/sg22_7_cif.got.tgz:12408.got - 2010.06.03 23:40:54.
