data_PCOD9328856
_publ_section_title
;
Structure prediction by ZEFSAII (Michael W. Deem and Ramdas Pophale) SiO2 
 PCOD9328856
Probable space group: F 2 2 2
;
_chemical_formula_sum "Si O2"
_cell_formula_units_Z 80
_cell_length_a 17.017236
_cell_length_b 13.815990
_cell_length_c 16.218942
_cell_angle_alpha 90.000000
_cell_angle_beta 90.000000
_cell_angle_gamma 90.000000
_cell_volume 3813.234844
_symmetry_space_group_name_H-M "F 2 2 2"
_symmetry_group_IT_number 22
_symmetry_cell_setting 'orthorhombic'
loop_
_space_group_symop_operation_xyz
x,y,z
-x,-y,z
x,-y,-z
-x,y,-z
x,1/2+y,1/2+z
-x,1/2-y,1/2+z
x,1/2-y,1/2-z
-x,1/2+y,1/2-z
1/2+x,y,1/2+z
1/2-x,-y,1/2+z
1/2+x,-y,1/2-z
1/2-x,y,1/2-z
1/2+x,1/2+y,z
1/2-x,1/2-y,z
1/2+x,1/2-y,-z
1/2-x,1/2+y,-z
loop_
_atom_site_type_symbol
_atom_site_label
_atom_site_fract_x
_atom_site_fract_y
_atom_site_fract_z
Si Si1 0.830340 0.400733 0.795365
Si Si2 0.844491 0.938793 0.584057
Si Si3 0.750000 0.750000 0.082341
Si Si4 0.951234 0.249284 0.085330
Si Si5 0.446916 0.250000 0.250000
Si Si6 0.670321 0.398513 0.041748
O O1 0.750000 0.427912 0.750000
O O2 0.867232 0.491779 0.841040
O O3 0.803007 0.320896 0.862816
O O4 0.891419 0.343873 0.739239
O O5 0.893350 0.841263 0.580355
O O6 0.751294 0.917351 0.590727
O O7 0.854658 0.000000 0.500000
O O8 0.696472 0.679948 0.027107
O O9 0.898870 0.152237 0.091471
O O10 0.003538 0.261448 0.166717
O O11 0.000000 0.245080 0.000000
O O12 0.647541 0.500000 0.000000
#
# Coordination Sequence:
#
# PCOD9328856 Si02
#       6
#    16  16   8  16   8  16
#     4  12  24  41  72 101 132 176 239 298 335 407
#     4  11  22  43  72 100 126 179 241 287 340 409
#     4  12  17  42  72 103 132 164 234 297 344 387
#     4  12  27  46  68  98 152 188 219 287 353 424
#     4  12  27  44  65 102 146 192 222 280 359 422
#     4  11  22  41  76 103 129 180 242 285 343 411
#
# _framework density 20.979562000000001
#
# number of rings (size 3 to 8) (size 9 to 14) (size 15 to 20)
#    0.000    0.400    8.000    2.400    0.000    4.800 
#    0.000    5.000    0.000    0.000    0.000    0.000 
#    0.000    0.000    0.000    0.000    0.000    0.000 
#
# Total GULP energy -111906.154043 kJ/mol
# GULP energy per Si atom -5595.307702 kJ/mol
# Density = 2.093181 g / cm^3
# Si number density = 20.979562 Si / 1000 Ang^3
#
#
#
# Elastic Constant Matrix: (Units=GPa)
#
#
# Indices 1 2 3 4 5 6 
#
# 1 82.2457 35.1080 27.7305 0.0000 0.0000 0.0000
# 2 35.1080 112.3097 23.1305 0.0000 0.0000 0.0000
# 3 27.7305 23.1305 72.3868 0.0000 0.0000 0.0000
# 4 0.0000 0.0000 0.0000 42.8736 0.0000 0.0000
# 5 0.0000 0.0000 0.0000 0.0000 27.8226 0.0000
# 6 0.0000 0.0000 0.0000 0.0000 0.0000 -27.4620
#
#
#
# Elastic Compliance Matrix: (Units=1/GPa)
#
#
# Indices 1 2 3 4 5 6 
#
# 1 0.015371 -0.003845 -0.004660 0.000000 0.000000 0.000000
# 2 -0.003845 0.010493 -0.001880 0.000000 0.000000 0.000000
# 3 -0.004660 -0.001880 0.016200 0.000000 0.000000 0.000000
# 4 0.000000 0.000000 0.000000 0.023324 0.000000 0.000000
# 5 0.000000 0.000000 0.000000 0.000000 0.035942 0.000000
# 6 0.000000 0.000000 0.000000 0.000000 0.000000 -0.036414
#
#
# Mechanical properties :
#
#
# Convention : Reuss Voigt Hill
#
# Bulk Modulus (GPa) = 46.95970 48.76445 47.86207
# Shear Modulus (GPa) = 53.88768 20.71174 37.29971
#
# Velocity S-wave (km/s) = 5.07361 3.14544 4.22110
# Velocity P-wave (km/s) = 7.53354 6.04036 6.82789
#
# Compressibility (1/GPa) = 0.02129486
#
# Stress axis : x y z
#
# Youngs Moduli (GPa) = 65.05647 95.30004 61.72660
#
# Poissons Ratio (x) = 0.36646 0.28763
# Poissons Ratio (y) = 0.25017 0.11604
# Poissons Ratio (z) = 0.30315 0.17915
#
# Static dielectric constant tensor:
#      x y z
#    x 1.773620 0.000000 0.000000 
#    y 0.000000 1.736450 0.000000 
#    z 0.000000 0.000000 1.799590 
# 
# From -- ./inp_files/37862.got.cif
#   From: 2010.05.17/outbox.cif.g08.bks.cpg/sg22_19_cif.got.tgz:37862.got - 2010.06.03 23:40:54.
