data_PCOD9328457
_publ_section_title
;
Structure prediction by ZEFSAII (Michael W. Deem and Ramdas Pophale) SiO2 
 PCOD9328457
Probable space group: F 2 2 2
;
_chemical_formula_sum "Si O2"
_cell_formula_units_Z 44
_cell_length_a 17.162194
_cell_length_b 13.657110
_cell_length_c 7.299474
_cell_angle_alpha 90.000000
_cell_angle_beta 90.000000
_cell_angle_gamma 90.000000
_cell_volume 1710.894303
_symmetry_space_group_name_H-M "F 2 2 2"
_symmetry_group_IT_number 22
_symmetry_cell_setting 'orthorhombic'
loop_
_space_group_symop_operation_xyz
x,y,z
-x,-y,z
x,-y,-z
-x,y,-z
x,1/2+y,1/2+z
-x,1/2-y,1/2+z
x,1/2-y,1/2-z
-x,1/2+y,1/2-z
1/2+x,y,1/2+z
1/2-x,-y,1/2+z
1/2+x,-y,1/2-z
1/2-x,y,1/2-z
1/2+x,1/2+y,z
1/2-x,1/2-y,z
1/2+x,1/2-y,-z
1/2-x,1/2+y,-z
loop_
_atom_site_type_symbol
_atom_site_label
_atom_site_fract_x
_atom_site_fract_y
_atom_site_fract_z
Si Si1 0.250000 0.502946 0.250000
Si Si2 0.000000 0.500000 0.500000
Si Si3 0.045205 0.354398 0.816715
Si Si4 0.205698 0.150736 0.478972
O O1 0.264313 0.580516 0.089653
O O2 0.315248 0.423808 0.312960
O O3 0.043455 0.428026 0.645032
O O4 0.011045 0.250000 0.750000
O O5 0.131604 0.334600 0.894335
O O6 0.000000 0.388183 0.000000
O O7 0.250000 0.250000 0.438006
#
# Coordination Sequence:
#
# PCOD9328457 Si02
#       4
#     8   4  16  16
#     4  10  24  42  70 112 144 206 254 318 388 472
#     4  12  30  52  80 116 160 216 270 338 396 484
#     4  12  28  53  82 118 158 218 271 332 405 479
#     4  11  25  48  73 111 159 200 261 331 392 469
#
# _framework density 25.717544
#
# number of rings (size 3 to 8) (size 9 to 14) (size 15 to 20)
#    0.000    0.727    1.818    3.818   10.182    8.727 
#    0.000    0.000    0.000    0.000    0.000    0.000 
#    0.000    0.000    0.000    0.000    0.000    0.000 
#
# Total GULP energy -61357.135437 kJ/mol
# GULP energy per Si atom -5577.921403 kJ/mol
# Density = 2.565901 g / cm^3
# Si number density = 25.717544 Si / 1000 Ang^3
#
#
#
# Elastic Constant Matrix: (Units=GPa)
#
#
# Indices 1 2 3 4 5 6 
#
# 1 84.7821 35.5963 54.9680 0.0000 0.0000 0.0000
# 2 35.5963 227.0614 95.3366 0.0000 0.0000 0.0000
# 3 54.9680 95.3366 188.0894 0.0000 0.0000 0.0000
# 4 0.0000 0.0000 0.0000 60.6021 0.0000 0.0000
# 5 0.0000 0.0000 0.0000 0.0000 15.3507 0.0000
# 6 0.0000 0.0000 0.0000 0.0000 0.0000 12.8203
#
#
#
# Elastic Compliance Matrix: (Units=1/GPa)
#
#
# Indices 1 2 3 4 5 6 
#
# 1 0.014623 -0.000633 -0.003953 0.000000 0.000000 0.000000
# 2 -0.000633 0.005622 -0.002665 0.000000 0.000000 0.000000
# 3 -0.003953 -0.002665 0.007823 0.000000 0.000000 0.000000
# 4 0.000000 0.000000 0.000000 0.016501 0.000000 0.000000
# 5 0.000000 0.000000 0.000000 0.000000 0.065144 0.000000
# 6 0.000000 0.000000 0.000000 0.000000 0.000000 0.078001
#
#
# Mechanical properties :
#
#
# Convention : Reuss Voigt Hill
#
# Bulk Modulus (GPa) = 73.70699 96.85942 85.28320
# Shear Modulus (GPa) = 24.18529 38.69010 31.43769
#
# Velocity S-wave (km/s) = 3.06995 3.88290 3.50011
# Velocity P-wave (km/s) = 6.42562 7.60573 7.04044
#
# Compressibility (1/GPa) = 0.01356723
#
# Stress axis : x y z
#
# Youngs Moduli (GPa) = 68.38335 177.86766 127.83630
#
# Poissons Ratio (x) = 0.11256 0.50532
# Poissons Ratio (y) = 0.04327 0.34065
# Poissons Ratio (z) = 0.27031 0.47397
#
# Static dielectric constant tensor:
#      x y z
#    x 2.031000 0.000000 0.000000 
#    y 0.000000 1.988360 0.000000 
#    z 0.000000 0.000000 2.430330 
# 
# From -- ./inp_files/10611.got.cif
#   From: 2010.05.17/outbox.cif.g08.bks.cpg/sg22_6_cif.got.tgz:10611.got - 2010.06.03 23:40:54.
