data_PCOD9328238
_publ_section_title
;
Structure prediction by ZEFSAII (Michael W. Deem and Ramdas Pophale) SiO2 
 PCOD9328238
Probable space group: F 2 2 2
;
_chemical_formula_sum "Si O2"
_cell_formula_units_Z 68
_cell_length_a 8.624741
_cell_length_b 18.237226
_cell_length_c 19.995621
_cell_angle_alpha 90.000000
_cell_angle_beta 90.000000
_cell_angle_gamma 90.000000
_cell_volume 3145.138237
_symmetry_space_group_name_H-M "F 2 2 2"
_symmetry_group_IT_number 22
_symmetry_cell_setting 'orthorhombic'
loop_
_space_group_symop_operation_xyz
x,y,z
-x,-y,z
x,-y,-z
-x,y,-z
x,1/2+y,1/2+z
-x,1/2-y,1/2+z
x,1/2-y,1/2-z
-x,1/2+y,1/2-z
1/2+x,y,1/2+z
1/2-x,-y,1/2+z
1/2+x,-y,1/2-z
1/2-x,y,1/2-z
1/2+x,1/2+y,z
1/2-x,1/2-y,z
1/2+x,1/2-y,-z
1/2-x,1/2+y,-z
loop_
_atom_site_type_symbol
_atom_site_label
_atom_site_fract_x
_atom_site_fract_y
_atom_site_fract_z
Si Si1 0.737890 0.513407 0.110024
Si Si2 0.090272 0.604569 0.718393
Si Si3 0.933827 0.261586 0.328879
Si Si4 0.533823 0.605843 0.637325
Si Si5 0.000000 0.500000 0.500000
O O1 0.653926 0.534057 0.179241
O O2 0.806680 0.430739 0.111822
O O3 0.890702 0.563041 0.105761
O O4 0.620878 0.535032 0.051714
O O5 0.250000 0.637957 0.750000
O O6 0.009093 0.658594 0.664635
O O7 0.979625 0.591549 0.782170
O O8 0.966843 0.250000 0.250000
O O9 0.750000 0.250000 0.336156
O O10 0.994424 0.192385 0.370298
#
# Coordination Sequence:
#
# PCOD9328238 Si02
#       5
#    16  16  16  16   4
#     4  10  23  40  59  89 119 163 206 261 296 358
#     4   9  19  36  63  97 130 159 193 242 311 380
#     4   9  18  33  55  93 133 163 181 227 304 391
#     4   9  20  39  62  93 129 154 192 244 317 372
#     4  12  28  42  60  80 116 162 224 264 300 334
#
# _framework density 21.620671000000002
#
# number of rings (size 3 to 8) (size 9 to 14) (size 15 to 20)
#    0.000    2.588    0.000    0.000    3.294   18.353 
#   25.412    0.000    0.000    5.647    0.000    0.000 
#    0.000    0.000    0.000    0.000    0.000    0.000 
#
# Total GULP energy -94651.247621 kJ/mol
# GULP energy per Si atom -5567.720448 kJ/mol
# Density = 2.157146 g / cm^3
# Si number density = 21.620671 Si / 1000 Ang^3
#
#
#
# Elastic Constant Matrix: (Units=GPa)
#
#
# Indices 1 2 3 4 5 6 
#
# 1 106.8906 42.3206 27.1565 0.0000 0.0000 0.0000
# 2 42.3206 62.6048 12.2542 0.0000 0.0000 0.0000
# 3 27.1565 12.2542 51.8550 0.0000 0.0000 0.0000
# 4 0.0000 0.0000 0.0000 -3.6524 0.0000 0.0000
# 5 0.0000 0.0000 0.0000 0.0000 37.5784 0.0000
# 6 0.0000 0.0000 0.0000 0.0000 0.0000 31.7624
#
#
#
# Elastic Compliance Matrix: (Units=1/GPa)
#
#
# Indices 1 2 3 4 5 6 
#
# 1 0.014069 -0.008459 -0.005369 0.000000 0.000000 0.000000
# 2 -0.008459 0.021835 -0.000730 0.000000 0.000000 0.000000
# 3 -0.005369 -0.000730 0.022269 0.000000 0.000000 0.000000
# 4 0.000000 0.000000 0.000000 -0.273791 0.000000 0.000000
# 5 0.000000 0.000000 0.000000 0.000000 0.026611 0.000000
# 6 0.000000 0.000000 0.000000 0.000000 0.000000 0.031484
#
#
# Mechanical properties :
#
#
# Convention : Reuss Voigt Hill
#
# Bulk Modulus (GPa) = 34.41603 42.75701 38.58652
# Shear Modulus (GPa) = -42.11486 22.44560 -9.83463
#
# Velocity S-wave (km/s) = -4.41829 3.22554 -2.13509
# Velocity P-wave (km/s) = 3.17422 5.80440 3.43623
#
# Compressibility (1/GPa) = 0.02905623
#
# Stress axis : x y z
#
# Youngs Moduli (GPa) = 71.08011 45.79881 44.90640
#
# Poissons Ratio (x) = 0.38743 0.24109
# Poissons Ratio (y) = 0.60130 0.03277
# Poissons Ratio (z) = 0.38160 0.03342
#
# Static dielectric constant tensor:
#      x y z
#    x 1.860110 0.000000 0.000000 
#    y 0.000000 1.963520 0.000000 
#    z 0.000000 0.000000 1.779960 
# 
# From -- ./inp_files/11237.got.cif
#   From: 2010.05.17/outbox.cif.g08.bks.cpg/sg22_6_cif.got.tgz:11237.got - 2010.06.03 23:40:54.
