data_PCOD9328881
_publ_section_title
;
Structure prediction by ZEFSAII (Michael W. Deem and Ramdas Pophale) SiO2 
 PCOD9328881
Probable space group: F 2 2 2
;
_chemical_formula_sum "Si O2"
_cell_formula_units_Z 84
_cell_length_a 13.012358
_cell_length_b 14.596610
_cell_length_c 21.152435
_cell_angle_alpha 90.000000
_cell_angle_beta 90.000000
_cell_angle_gamma 90.000000
_cell_volume 4017.615555
_symmetry_space_group_name_H-M "F 2 2 2"
_symmetry_group_IT_number 22
_symmetry_cell_setting 'orthorhombic'
loop_
_space_group_symop_operation_xyz
x,y,z
-x,-y,z
x,-y,-z
-x,y,-z
x,1/2+y,1/2+z
-x,1/2-y,1/2+z
x,1/2-y,1/2-z
-x,1/2+y,1/2-z
1/2+x,y,1/2+z
1/2-x,-y,1/2+z
1/2+x,-y,1/2-z
1/2-x,y,1/2-z
1/2+x,1/2+y,z
1/2-x,1/2-y,z
1/2+x,1/2-y,-z
1/2-x,1/2+y,-z
loop_
_atom_site_type_symbol
_atom_site_label
_atom_site_fract_x
_atom_site_fract_y
_atom_site_fract_z
Si Si1 0.250000 0.402350 0.750000
Si Si2 0.163084 0.142242 0.949556
Si Si3 0.030434 0.197456 0.609740
Si Si4 0.000000 0.500000 0.500000
Si Si5 0.081441 0.750000 0.250000
Si Si6 0.669954 0.032245 0.126151
Si Si7 0.691815 0.170096 0.927255
O O1 0.158217 0.332839 0.730444
O O2 0.307126 0.465529 0.699869
O O3 0.113684 0.234571 0.921697
O O4 0.238676 0.094331 0.900972
O O5 0.233267 0.157171 0.012073
O O6 0.073392 0.068897 0.962078
O O7 0.022544 0.223240 0.684903
O O8 0.070597 0.092719 0.608813
O O9 0.074307 0.204829 0.430022
O O10 0.678621 0.930837 0.100447
O O11 0.750000 0.250000 0.888589
#
# Coordination Sequence:
#
# PCOD9328881 Si02
#       7
#     8  16  16   4   8  16  16
#     4   9  18  38  73 102 132 172 243 284 331 410
#     4  12  24  42  70 100 137 179 230 285 343 418
#     4  11  24  43  73 102 140 180 235 290 348 413
#     4  12  24  44  64  98 142 180 232 276 346 422
#     4   9  18  40  71 106 130 180 233 288 343 406
#     4  11  22  44  69 103 136 182 227 289 340 411
#     4  12  26  45  64 103 145 184 227 280 357 412
#
# _framework density 20.907923
#
# number of rings (size 3 to 8) (size 9 to 14) (size 15 to 20)
#    0.000    0.952    3.810    3.429    0.000    2.286 
#    3.429    3.810    0.000    0.000    0.000    0.000 
#    0.000    0.000    0.000    0.000    0.000    0.000 
#
# Total GULP energy -117143.912018 kJ/mol
# GULP energy per Si atom -5578.281525 kJ/mol
# Density = 2.086034 g / cm^3
# Si number density = 20.907923 Si / 1000 Ang^3
#
#
#
# Elastic Constant Matrix: (Units=GPa)
#
#
# Indices 1 2 3 4 5 6 
#
# 1 112.2981 34.9400 31.1039 0.0000 0.0000 0.0000
# 2 34.9400 145.6390 35.0459 0.0000 0.0000 0.0000
# 3 31.1039 35.0459 68.6477 0.0000 0.0000 0.0000
# 4 0.0000 0.0000 0.0000 17.6861 0.0000 0.0000
# 5 0.0000 0.0000 0.0000 0.0000 5.5195 0.0000
# 6 0.0000 0.0000 0.0000 0.0000 0.0000 42.3348
#
#
#
# Elastic Compliance Matrix: (Units=1/GPa)
#
#
# Indices 1 2 3 4 5 6 
#
# 1 0.010486 -0.001565 -0.003953 0.000000 0.000000 0.000000
# 2 -0.001565 0.008061 -0.003407 0.000000 0.000000 0.000000
# 3 -0.003953 -0.003407 0.018097 0.000000 0.000000 0.000000
# 4 0.000000 0.000000 0.000000 0.056542 0.000000 0.000000
# 5 0.000000 0.000000 0.000000 0.000000 0.181175 0.000000
# 6 0.000000 0.000000 0.000000 0.000000 0.000000 0.023621
#
#
# Mechanical properties :
#
#
# Convention : Reuss Voigt Hill
#
# Bulk Modulus (GPa) = 53.19879 58.75159 55.97519
# Shear Modulus (GPa) = 15.52331 28.14109 21.83220
#
# Velocity S-wave (km/s) = 2.72777 3.67270 3.23492
# Velocity P-wave (km/s) = 5.95151 6.79310 6.38618
#
# Compressibility (1/GPa) = 0.01879742
#
# Stress axis : x y z
#
# Youngs Moduli (GPa) = 95.36114 124.04790 55.25743
#
# Poissons Ratio (x) = 0.19409 0.21841
# Poissons Ratio (y) = 0.14921 0.18824
# Poissons Ratio (z) = 0.37692 0.42258
#
# Static dielectric constant tensor:
#      x y z
#    x 1.792550 0.000000 0.000000 
#    y 0.000000 1.770920 0.000000 
#    z 0.000000 0.000000 1.844060 
# 
# From -- ./inp_files/48886.got.cif
#   From: 2010.05.17/outbox.cif.g08.bks.cpg/sg22_25_cif.got.tgz:48886.got - 2010.06.03 23:40:54.
