data_PCOD9328833
_publ_section_title
;
Structure prediction by ZEFSAII (Michael W. Deem and Ramdas Pophale) SiO2 
 PCOD9328833
Probable space group: F 2 2 2
;
_chemical_formula_sum "Si O2"
_cell_formula_units_Z 104
_cell_length_a 19.555420
_cell_length_b 18.718664
_cell_length_c 14.111733
_cell_angle_alpha 90.000000
_cell_angle_beta 90.000000
_cell_angle_gamma 90.000000
_cell_volume 5165.618723
_symmetry_space_group_name_H-M "F 2 2 2"
_symmetry_group_IT_number 22
_symmetry_cell_setting 'orthorhombic'
loop_
_space_group_symop_operation_xyz
x,y,z
-x,-y,z
x,-y,-z
-x,y,-z
x,1/2+y,1/2+z
-x,1/2-y,1/2+z
x,1/2-y,1/2-z
-x,1/2+y,1/2-z
1/2+x,y,1/2+z
1/2-x,-y,1/2+z
1/2+x,-y,1/2-z
1/2-x,y,1/2-z
1/2+x,1/2+y,z
1/2-x,1/2-y,z
1/2+x,1/2-y,-z
1/2-x,1/2+y,-z
loop_
_atom_site_type_symbol
_atom_site_label
_atom_site_fract_x
_atom_site_fract_y
_atom_site_fract_z
Si Si1 0.285910 0.463115 0.852582
Si Si2 0.500000 0.348601 0.500000
Si Si3 0.741980 0.403358 0.551095
Si Si4 0.391453 0.777734 0.117093
Si Si5 0.500000 0.000000 0.252361
Si Si6 0.750000 0.250000 0.017509
Si Si7 0.907809 0.547766 0.095048
Si Si8 0.082524 0.372725 0.701176
O O1 0.250000 0.461050 0.750000
O O2 0.292016 0.544909 0.889275
O O3 0.354804 0.417682 0.842973
O O4 0.242860 0.428920 0.940358
O O5 0.435148 0.304443 0.529847
O O6 0.529499 0.397537 0.583094
O O7 0.759966 0.320495 0.545795
O O8 0.666677 0.417267 0.594510
O O9 0.314566 0.763469 0.085289
O O10 0.424434 0.702973 0.148477
O O11 0.396850 0.840607 0.195282
O O12 0.569082 0.993112 0.188692
O O13 0.482949 0.925283 0.303543
O O14 0.909885 0.500000 0.000000
#
# Coordination Sequence:
#
# PCOD9328833 Si02
#       8
#    16   8  16  16   8   8  16  16
#     4  11  22  40  65  96 137 166 214 281 328 399
#     4  12  21  38  62  91 124 166 214 272 324 387
#     4  11  24  40  65  99 130 173 219 274 343 392
#     4  11  24  41  65  94 130 170 225 277 338 393
#     4  12  23  40  62  97 132 168 220 273 336 399
#     4  12  22  41  65  96 128 172 222 280 330 400
#     4  12  19  34  64  95 121 157 211 277 328 385
#     4  11  24  40  62  95 130 171 213 273 340 394
#
# _framework density 20.133115
#
# number of rings (size 3 to 8) (size 9 to 14) (size 15 to 20)
#    0.000    0.615    7.692    1.846    0.000    0.615 
#    2.769    0.385    0.000    0.000    0.000    0.000 
#    0.000    0.000    0.000    0.000    0.000    0.000 
#
# Total GULP energy -145037.596098 kJ/mol
# GULP energy per Si atom -5578.369081 kJ/mol
# Density = 2.008729 g / cm^3
# Si number density = 20.133115 Si / 1000 Ang^3
#
#
#
# Elastic Constant Matrix: (Units=GPa)
#
#
# Indices 1 2 3 4 5 6 
#
# 1 55.7889 26.4929 -5.4470 0.0000 0.0000 0.0000
# 2 26.4929 148.4231 13.6906 0.0000 0.0000 0.0000
# 3 -5.4470 13.6906 31.6359 0.0000 0.0000 0.0000
# 4 0.0000 0.0000 0.0000 29.1740 0.0000 0.0000
# 5 0.0000 0.0000 0.0000 0.0000 12.7197 0.0000
# 6 0.0000 0.0000 0.0000 0.0000 0.0000 41.5520
#
#
#
# Elastic Compliance Matrix: (Units=1/GPa)
#
#
# Indices 1 2 3 4 5 6 
#
# 1 0.020404 -0.004131 0.005301 0.000000 0.000000 0.000000
# 2 -0.004131 0.007854 -0.004110 0.000000 0.000000 0.000000
# 3 0.005301 -0.004110 0.034301 0.000000 0.000000 0.000000
# 4 0.000000 0.000000 0.000000 0.034277 0.000000 0.000000
# 5 0.000000 0.000000 0.000000 0.000000 0.078618 0.000000
# 6 0.000000 0.000000 0.000000 0.000000 0.000000 0.024066
#
#
# Mechanical properties :
#
#
# Convention : Reuss Voigt Hill
#
# Bulk Modulus (GPa) = 17.64342 33.92457 25.78400
# Shear Modulus (GPa) = 22.29216 30.09655 26.19436
#
# Velocity S-wave (km/s) = 3.33113 3.87056 3.61093
# Velocity P-wave (km/s) = 4.85568 6.07138 5.49724
#
# Compressibility (1/GPa) = 0.05667834
#
# Stress axis : x y z
#
# Youngs Moduli (GPa) = 49.01010 127.32408 29.15369
#
# Poissons Ratio (x) = 0.52597 -0.15454
# Poissons Ratio (y) = 0.20246 0.11982
# Poissons Ratio (z) = -0.25979 0.52332
#
# Static dielectric constant tensor:
#      x y z
#    x 1.698080 0.000000 0.000000 
#    y 0.000000 1.748520 0.000000 
#    z 0.000000 0.000000 1.746300 
# 
# From -- ./inp_files/31741.got.cif
#   From: 2010.05.17/outbox.cif.g08.bks.cpg/sg22_16_cif.got.tgz:31741.got - 2010.06.03 23:40:54.
