data_PCOD9328342
_publ_section_title
;
Structure prediction by ZEFSAII (Michael W. Deem and Ramdas Pophale) SiO2 
 PCOD9328342
Probable space group: F 2 2 2
;
_chemical_formula_sum "Si O2"
_cell_formula_units_Z 112
_cell_length_a 10.894900
_cell_length_b 14.082380
_cell_length_c 32.612619
_cell_angle_alpha 90.000000
_cell_angle_beta 90.000000
_cell_angle_gamma 90.000000
_cell_volume 5003.627657
_symmetry_space_group_name_H-M "F 2 2 2"
_symmetry_group_IT_number 22
_symmetry_cell_setting 'orthorhombic'
loop_
_space_group_symop_operation_xyz
x,y,z
-x,-y,z
x,-y,-z
-x,y,-z
x,1/2+y,1/2+z
-x,1/2-y,1/2+z
x,1/2-y,1/2-z
-x,1/2+y,1/2-z
1/2+x,y,1/2+z
1/2-x,-y,1/2+z
1/2+x,-y,1/2-z
1/2-x,y,1/2-z
1/2+x,1/2+y,z
1/2-x,1/2-y,z
1/2+x,1/2-y,-z
1/2-x,1/2+y,-z
loop_
_atom_site_type_symbol
_atom_site_label
_atom_site_fract_x
_atom_site_fract_y
_atom_site_fract_z
Si Si1 0.696202 0.147633 0.090137
Si Si2 0.940428 0.832831 0.377562
Si Si3 0.187454 0.485462 0.790298
Si Si4 0.201782 0.034180 0.126527
Si Si5 0.522169 0.170388 0.786918
Si Si6 0.186314 0.389992 0.512541
Si Si7 0.441414 0.155478 0.434439
O O1 0.750000 0.250000 0.102813
O O2 0.570229 0.118787 0.112125
O O3 0.700299 0.143334 0.040592
O O4 0.786066 0.065388 0.104153
O O5 0.823424 0.900681 0.380211
O O6 0.943580 0.755800 0.412927
O O7 0.942376 0.787318 0.331722
O O8 0.250000 0.449869 0.750000
O O9 0.286067 0.508920 0.825563
O O10 0.094137 0.397997 0.798270
O O11 0.121004 0.585828 0.779225
O O12 0.092382 0.086898 0.103431
O O13 0.512665 0.250000 0.750000
O O14 0.194911 0.500000 0.500000
O O15 0.163950 0.343395 0.468778
O O16 0.064518 0.370433 0.540359
#
# Coordination Sequence:
#
# PCOD9328342 Si02
#       7
#    16  16  16  16  16  16  16
#     4  12  24  43  70  97 133 180 228 278 338 401
#     4  11  24  46  70 101 137 177 227 283 341 403
#     4  10  23  44  66  98 136 177 219 277 334 398
#     4  11  24  44  71  97 136 181 226 276 341 407
#     4  10  23  44  68  97 138 175 219 276 336 401
#     4  11  24  45  66  96 142 179 223 285 339 394
#     4  11  23  43  71  98 134 180 228 277 337 406
#
# _framework density 22.383759999999999
#
# number of rings (size 3 to 8) (size 9 to 14) (size 15 to 20)
#    0.000    1.143    4.286    1.714    2.000    2.857 
#    0.000    0.000    0.000    0.000    0.000    0.000 
#    0.000    0.000    0.000    0.000    0.000    0.000 
#
# Total GULP energy -156105.906669 kJ/mol
# GULP energy per Si atom -5575.210952 kJ/mol
# Density = 2.233281 g / cm^3
# Si number density = 22.383760 Si / 1000 Ang^3
#
#
#
# Elastic Constant Matrix: (Units=GPa)
#
#
# Indices 1 2 3 4 5 6 
#
# 1 38.6300 0.6327 28.9461 0.0000 0.0000 0.0000
# 2 0.6327 73.7800 24.3838 0.0000 0.0000 0.0000
# 3 28.9461 24.3838 132.3167 0.0000 0.0000 0.0000
# 4 0.0000 0.0000 0.0000 36.2423 0.0000 0.0000
# 5 0.0000 0.0000 0.0000 0.0000 257.3512 0.0000
# 6 0.0000 0.0000 0.0000 0.0000 0.0000 16.5935
#
#
#
# Elastic Compliance Matrix: (Units=1/GPa)
#
#
# Indices 1 2 3 4 5 6 
#
# 1 0.031271 0.002122 -0.007232 0.000000 0.000000 0.000000
# 2 0.002122 0.014577 -0.003150 0.000000 0.000000 0.000000
# 3 -0.007232 -0.003150 0.009720 0.000000 0.000000 0.000000
# 4 0.000000 0.000000 0.000000 0.027592 0.000000 0.000000
# 5 0.000000 0.000000 0.000000 0.000000 0.003886 0.000000
# 6 0.000000 0.000000 0.000000 0.000000 0.000000 0.060265
#
#
# Mechanical properties :
#
#
# Convention : Reuss Voigt Hill
#
# Bulk Modulus (GPa) = 25.61016 39.18353 32.39684
# Shear Modulus (GPa) = 28.27300 74.75501 51.51401
#
# Velocity S-wave (km/s) = 3.55787 5.78528 4.80250
# Velocity P-wave (km/s) = 5.32393 7.88475 6.72731
#
# Compressibility (1/GPa) = 0.03904701
#
# Stress axis : x y z
#
# Youngs Moduli (GPa) = 31.97862 68.60208 102.87747
#
# Poissons Ratio (x) = -0.14557 0.74401
# Poissons Ratio (y) = -0.06786 0.32411
# Poissons Ratio (z) = 0.23127 0.21613
#
# Static dielectric constant tensor:
#      x y z
#    x 1.992990 0.000000 0.000000 
#    y 0.000000 1.605300 0.000000 
#    z 0.000000 0.000000 1.863680 
# 
# From -- ./inp_files/56093.got.cif
#   From: 2010.05.17/outbox.cif.g08.bks.cpg/sg22_29_cif.got.tgz:56093.got - 2010.06.03 23:40:54.
