data_PCOD9328219
_publ_section_title
;
Structure prediction by ZEFSAII (Michael W. Deem and Ramdas Pophale) SiO2 
 PCOD9328219
Probable space group: F 2 2 2
;
_chemical_formula_sum "Si O2"
_cell_formula_units_Z 96
_cell_length_a 15.389335
_cell_length_b 20.266370
_cell_length_c 16.452543
_cell_angle_alpha 90.000000
_cell_angle_beta 90.000000
_cell_angle_gamma 90.000000
_cell_volume 5131.317121
_symmetry_space_group_name_H-M "F 2 2 2"
_symmetry_group_IT_number 22
_symmetry_cell_setting 'orthorhombic'
loop_
_space_group_symop_operation_xyz
x,y,z
-x,-y,z
x,-y,-z
-x,y,-z
x,1/2+y,1/2+z
-x,1/2-y,1/2+z
x,1/2-y,1/2-z
-x,1/2+y,1/2-z
1/2+x,y,1/2+z
1/2-x,-y,1/2+z
1/2+x,-y,1/2-z
1/2-x,y,1/2-z
1/2+x,1/2+y,z
1/2-x,1/2-y,z
1/2+x,1/2-y,-z
1/2-x,1/2+y,-z
loop_
_atom_site_type_symbol
_atom_site_label
_atom_site_fract_x
_atom_site_fract_y
_atom_site_fract_z
Si Si1 0.354069 0.844933 0.250392
Si Si2 0.602330 0.984888 0.825330
Si Si3 0.382264 0.246542 0.056594
Si Si4 0.248640 0.634886 0.578283
Si Si5 0.250000 0.422617 0.250000
Si Si6 0.438311 0.758961 0.372892
Si Si7 0.689396 0.000000 0.000000
O O1 0.250000 0.835299 0.250000
O O2 0.377214 0.917075 0.220278
O O3 0.394387 0.825213 0.337598
O O4 0.399865 0.796626 0.185864
O O5 0.500000 0.000000 0.820887
O O6 0.666529 0.036089 0.780395
O O7 0.632931 0.983279 0.919759
O O8 0.337855 0.176874 0.077976
O O9 0.319292 0.309708 0.051152
O O10 0.457817 0.261381 0.121535
O O11 0.413559 0.240951 0.964189
O O12 0.224832 0.617631 0.670446
O O13 0.258022 0.566908 0.526488
#
# Coordination Sequence:
#
# PCOD9328219 Si02
#       7
#    16  16  16  16   8  16   8
#     4  11  24  40  66  92 125 168 211 276 331 390
#     4  11  24  41  65  92 130 166 216 276 326 397
#     4  10  23  40  62  93 125 171 206 272 314 392
#     4  10  23  39  66  86 132 166 210 261 323 388
#     4  10  24  41  56  95 120 166 216 252 336 383
#     4  10  23  38  63  93 123 157 221 257 328 380
#     4  10  23  42  66  99 120 174 219 266 322 386
#
# _framework density 18.708646999999999
#
# number of rings (size 3 to 8) (size 9 to 14) (size 15 to 20)
#    0.000    1.667    0.833    2.250   14.000    2.667 
#    0.000    0.000    0.000    0.000    0.000    0.000 
#    0.000    0.000    0.000    0.000    0.000    0.000 
#
# Total GULP energy -133774.807757 kJ/mol
# GULP energy per Si atom -5573.950323 kJ/mol
# Density = 1.866607 g / cm^3
# Si number density = 18.708647 Si / 1000 Ang^3
#
#
#
# Elastic Constant Matrix: (Units=GPa)
#
#
# Indices 1 2 3 4 5 6 
#
# 1 98.7619 14.2306 30.0979 0.0000 0.0000 0.0000
# 2 14.2306 76.5131 20.3768 0.0000 0.0000 0.0000
# 3 30.0979 20.3768 105.0297 0.0000 0.0000 0.0000
# 4 0.0000 0.0000 0.0000 21.8174 0.0000 0.0000
# 5 0.0000 0.0000 0.0000 0.0000 -50.3667 0.0000
# 6 0.0000 0.0000 0.0000 0.0000 0.0000 14.3258
#
#
#
# Elastic Compliance Matrix: (Units=1/GPa)
#
#
# Indices 1 2 3 4 5 6 
#
# 1 0.011215 -0.001297 -0.002962 0.000000 0.000000 0.000000
# 2 -0.001297 0.013932 -0.002331 0.000000 0.000000 0.000000
# 3 -0.002962 -0.002331 0.010822 0.000000 0.000000 0.000000
# 4 0.000000 0.000000 0.000000 0.045835 0.000000 0.000000
# 5 0.000000 0.000000 0.000000 0.000000 -0.019854 0.000000
# 6 0.000000 0.000000 0.000000 0.000000 0.000000 0.069804
#
#
# Mechanical properties :
#
#
# Convention : Reuss Voigt Hill
#
# Bulk Modulus (GPa) = 43.88242 45.52391 44.70317
# Shear Modulus (GPa) = 32.78029 11.52858 22.15443
#
# Velocity S-wave (km/s) = 4.19041 2.48506 3.44493
# Velocity P-wave (km/s) = 6.84976 5.71139 6.30632
#
# Compressibility (1/GPa) = 0.02278817
#
# Stress axis : x y z
#
# Youngs Moduli (GPa) = 89.16642 71.77861 92.40216
#
# Poissons Ratio (x) = 0.09310 0.27371
# Poissons Ratio (y) = 0.11565 0.21541
# Poissons Ratio (z) = 0.26413 0.16733
#
# Static dielectric constant tensor:
#      x y z
#    x 1.688330 0.000000 0.000000 
#    y 0.000000 1.839790 0.000000 
#    z 0.000000 0.000000 1.645150 
# 
# From -- ./inp_files/29422.got.cif
#   From: 2010.05.17/outbox.cif.g08.bks.cpg/sg22_15_cif.got.tgz:29422.got - 2010.06.03 23:40:54.
