data_PCOD9328019
_publ_section_title
;
Structure prediction by ZEFSAII (Michael W. Deem and Ramdas Pophale) SiO2 
 PCOD9328019
Probable space group: F 2 2 2
;
_chemical_formula_sum "Si O2"
_cell_formula_units_Z 96
_cell_length_a 19.030178
_cell_length_b 14.179567
_cell_length_c 14.379929
_cell_angle_alpha 90.000000
_cell_angle_beta 90.000000
_cell_angle_gamma 90.000000
_cell_volume 3880.275497
_symmetry_space_group_name_H-M "F 2 2 2"
_symmetry_group_IT_number 22
_symmetry_cell_setting 'orthorhombic'
loop_
_space_group_symop_operation_xyz
x,y,z
-x,-y,z
x,-y,-z
-x,y,-z
x,1/2+y,1/2+z
-x,1/2-y,1/2+z
x,1/2-y,1/2-z
-x,1/2+y,1/2-z
1/2+x,y,1/2+z
1/2-x,-y,1/2+z
1/2+x,-y,1/2-z
1/2-x,y,1/2-z
1/2+x,1/2+y,z
1/2-x,1/2-y,z
1/2+x,1/2-y,-z
1/2-x,1/2+y,-z
loop_
_atom_site_type_symbol
_atom_site_label
_atom_site_fract_x
_atom_site_fract_y
_atom_site_fract_z
Si Si1 0.391165 0.083728 0.070569
Si Si2 0.267149 0.358630 0.531207
Si Si3 0.185185 0.033009 0.823514
Si Si4 0.013170 0.739923 0.594310
Si Si5 0.378477 0.853503 0.725359
Si Si6 0.379058 0.333665 0.693040
O O1 0.434521 0.179222 0.052909
O O2 0.397420 0.086499 0.182250
O O3 0.307661 0.094300 0.054136
O O4 0.415152 0.000000 0.000000
O O5 0.250000 0.250000 0.512200
O O6 0.204651 0.413036 0.581990
O O7 0.330202 0.361544 0.607561
O O8 0.250000 0.041453 0.750000
O O9 0.120627 0.086102 0.771513
O O10 0.168718 0.923189 0.834719
O O11 0.053502 0.676400 0.667909
O O12 0.000000 0.682584 0.500000
O O13 0.950167 0.791919 0.649236
O O14 0.346427 0.750000 0.750000
O O15 0.341977 0.250000 0.750000
#
# Coordination Sequence:
#
# PCOD9328019 Si02
#       6
#    16  16  16  16  16  16
#     4  11  23  46  70 112 146 195 272 318 387 468
#     4  11  22  42  71 107 146 185 252 323 389 458
#     4  10  22  41  73 106 144 198 253 316 393 460
#     4  11  24  46  74 107 152 204 260 323 405 467
#     4  10  24  48  70 106 160 208 259 311 402 479
#     4  11  20  40  73 107 144 189 253 328 387 458
#
# _framework density 24.740511000000001
#
# number of rings (size 3 to 8) (size 9 to 14) (size 15 to 20)
#    0.000    1.333    3.333    3.500    0.000    0.667 
#   15.000    4.167    0.000    5.000    0.000    0.000 
#    0.000    0.000    0.000    0.000    0.000    0.000 
#
# Total GULP energy -134023.154034 kJ/mol
# GULP energy per Si atom -5584.298085 kJ/mol
# Density = 2.468420 g / cm^3
# Si number density = 24.740511 Si / 1000 Ang^3
#
#
#
# Elastic Constant Matrix: (Units=GPa)
#
#
# Indices 1 2 3 4 5 6 
#
# 1 89.4560 25.0883 53.1393 0.0000 0.0000 0.0000
# 2 25.0883 127.9237 47.8888 0.0000 0.0000 0.0000
# 3 53.1393 47.8888 142.5871 0.0000 0.0000 0.0000
# 4 0.0000 0.0000 0.0000 27.7634 0.0000 0.0000
# 5 0.0000 0.0000 0.0000 0.0000 4.4463 0.0000
# 6 0.0000 0.0000 0.0000 0.0000 0.0000 21.1980
#
#
#
# Elastic Compliance Matrix: (Units=1/GPa)
#
#
# Indices 1 2 3 4 5 6 
#
# 1 0.014454 -0.000936 -0.005073 0.000000 0.000000 0.000000
# 2 -0.000936 0.009002 -0.002675 0.000000 0.000000 0.000000
# 3 -0.005073 -0.002675 0.009802 0.000000 0.000000 0.000000
# 4 0.000000 0.000000 0.000000 0.036019 0.000000 0.000000
# 5 0.000000 0.000000 0.000000 0.000000 0.224905 0.000000
# 6 0.000000 0.000000 0.000000 0.000000 0.000000 0.047174
#
#
# Mechanical properties :
#
#
# Convention : Reuss Voigt Hill
#
# Bulk Modulus (GPa) = 62.92344 68.02216 65.47280
# Shear Modulus (GPa) = 13.73553 26.27156 20.00354
#
# Velocity S-wave (km/s) = 2.35879 3.26219 2.84656
# Velocity P-wave (km/s) = 5.73647 6.46089 6.10943
#
# Compressibility (1/GPa) = 0.01589233
#
# Stress axis : x y z
#
# Youngs Moduli (GPa) = 69.18322 111.08713 102.02036
#
# Poissons Ratio (x) = 0.10396 0.51750
# Poissons Ratio (y) = 0.06475 0.27286
# Poissons Ratio (z) = 0.35093 0.29711
#
# Static dielectric constant tensor:
#      x y z
#    x 2.018270 0.000000 0.000000 
#    y 0.000000 2.059080 0.000000 
#    z 0.000000 0.000000 2.179650 
# 
# From -- ./inp_files/31508.got.cif
#   From: 2010.05.17/outbox.cif.g08.bks.cpg/sg22_16_cif.got.tgz:31508.got - 2010.06.03 23:40:54.
