data_PCOD9328912
_publ_section_title
;
Structure prediction by ZEFSAII (Michael W. Deem and Ramdas Pophale) SiO2 
 PCOD9328912
Probable space group: F 2 2 2
;
_chemical_formula_sum "Si O2"
_cell_formula_units_Z 80
_cell_length_a 8.265249
_cell_length_b 30.824156
_cell_length_c 16.735754
_cell_angle_alpha 90.000000
_cell_angle_beta 90.000000
_cell_angle_gamma 90.000000
_cell_volume 4263.756742
_symmetry_space_group_name_H-M "F 2 2 2"
_symmetry_group_IT_number 22
_symmetry_cell_setting 'orthorhombic'
loop_
_space_group_symop_operation_xyz
x,y,z
-x,-y,z
x,-y,-z
-x,y,-z
x,1/2+y,1/2+z
-x,1/2-y,1/2+z
x,1/2-y,1/2-z
-x,1/2+y,1/2-z
1/2+x,y,1/2+z
1/2-x,-y,1/2+z
1/2+x,-y,1/2-z
1/2-x,y,1/2-z
1/2+x,1/2+y,z
1/2-x,1/2-y,z
1/2+x,1/2-y,-z
1/2-x,1/2+y,-z
loop_
_atom_site_type_symbol
_atom_site_label
_atom_site_fract_x
_atom_site_fract_y
_atom_site_fract_z
Si Si1 0.687000 0.201081 0.520366
Si Si2 0.793881 0.639878 0.157595
Si Si3 0.801550 0.955342 0.342332
Si Si4 0.192711 0.950757 0.342028
Si Si5 0.383874 0.630611 0.425828
O O1 0.500000 0.200932 0.500000
O O2 0.750000 0.250000 0.522033
O O3 0.715676 0.176892 0.604271
O O4 0.786279 0.171848 0.457028
O O5 0.750000 0.643191 0.250000
O O6 0.742202 0.591396 0.127279
O O7 0.987308 0.642475 0.143133
O O8 0.750000 0.956739 0.250000
O O9 0.996684 0.953263 0.344155
O O10 0.748598 0.002387 0.374745
O O11 0.250000 0.945609 0.250000
O O12 0.227826 0.908579 0.395046
O O13 0.500000 0.616470 0.500000
#
# Coordination Sequence:
#
# PCOD9328912 Si02
#       5
#    16  16  16  16  16
#     4  11  23  40  59  77 104 139 175 222 282 333
#     4   9  18  35  58  81 108 141 180 219 259 317
#     4   8  15  28  47  76 110 142 172 211 260 304
#     4   9  16  28  50  77 106 142 181 215 248 300
#     4   9  19  35  53  78 110 143 178 216 267 323
#
# _framework density 18.762796999999999
#
# number of rings (size 3 to 8) (size 9 to 14) (size 15 to 20)
#    0.000    2.800    0.000    1.800    0.000    5.200 
#    0.000   17.000    0.000    5.400    0.000    0.000 
#    0.000    0.000    0.000    0.000    0.000    0.000 
#
# Total GULP energy -111371.099945 kJ/mol
# GULP energy per Si atom -5568.554997 kJ/mol
# Density = 1.872009 g / cm^3
# Si number density = 18.762797 Si / 1000 Ang^3
#
#
#
# Elastic Constant Matrix: (Units=GPa)
#
#
# Indices 1 2 3 4 5 6 
#
# 1 44.5091 47.0933 35.9188 0.0000 0.0000 0.0000
# 2 47.0933 219.4040 78.8828 0.0000 0.0000 0.0000
# 3 35.9188 78.8828 71.5858 0.0000 0.0000 0.0000
# 4 0.0000 0.0000 0.0000 28.9988 0.0000 0.0000
# 5 0.0000 0.0000 0.0000 0.0000 28.4014 0.0000
# 6 0.0000 0.0000 0.0000 0.0000 0.0000 18.8137
#
#
#
# Elastic Compliance Matrix: (Units=1/GPa)
#
#
# Indices 1 2 3 4 5 6 
#
# 1 0.038372 -0.002176 -0.016856 0.000000 0.000000 0.000000
# 2 -0.002176 0.007672 -0.007362 0.000000 0.000000 0.000000
# 3 -0.016856 -0.007362 0.030539 0.000000 0.000000 0.000000
# 4 0.000000 0.000000 0.000000 0.034484 0.000000 0.000000
# 5 0.000000 0.000000 0.000000 0.000000 0.035209 0.000000
# 6 0.000000 0.000000 0.000000 0.000000 0.000000 0.053153
#
#
# Mechanical properties :
#
#
# Convention : Reuss Voigt Hill
#
# Bulk Modulus (GPa) = 42.02438 73.25430 57.63934
# Shear Modulus (GPa) = 19.21978 26.81639 23.01808
#
# Velocity S-wave (km/s) = 3.20403 3.78462 3.50636
# Velocity P-wave (km/s) = 6.01116 7.63052 6.86873
#
# Compressibility (1/GPa) = 0.02379571
#
# Stress axis : x y z
#
# Youngs Moduli (GPa) = 26.06045 130.34912 32.74501
#
# Poissons Ratio (x) = 0.28366 0.55194
# Poissons Ratio (y) = 0.05671 0.24106
# Poissons Ratio (z) = 0.43927 0.95961
#
# Static dielectric constant tensor:
#      x y z
#    x 1.671230 0.000000 0.000000 
#    y 0.000000 1.714280 0.000000 
#    z 0.000000 0.000000 1.651350 
# 
# From -- ./inp_files/11666.got.cif
#   From: 2010.05.17/outbox.cif.g08.bks.cpg/sg22_6_cif.got.tgz:11666.got - 2010.06.03 23:40:54.
