data_PCOD9328939
_publ_section_title
;
Structure prediction by ZEFSAII (Michael W. Deem and Ramdas Pophale) SiO2 
 PCOD9328939
Probable space group: F 2 2 2
;
_chemical_formula_sum "Si O2"
_cell_formula_units_Z 88
_cell_length_a 10.856419
_cell_length_b 25.485933
_cell_length_c 15.471897
_cell_angle_alpha 90.000000
_cell_angle_beta 90.000000
_cell_angle_gamma 90.000000
_cell_volume 4280.856787
_symmetry_space_group_name_H-M "F 2 2 2"
_symmetry_group_IT_number 22
_symmetry_cell_setting 'orthorhombic'
loop_
_space_group_symop_operation_xyz
x,y,z
-x,-y,z
x,-y,-z
-x,y,-z
x,1/2+y,1/2+z
-x,1/2-y,1/2+z
x,1/2-y,1/2-z
-x,1/2+y,1/2-z
1/2+x,y,1/2+z
1/2-x,-y,1/2+z
1/2+x,-y,1/2-z
1/2-x,y,1/2-z
1/2+x,1/2+y,z
1/2-x,1/2-y,z
1/2+x,1/2-y,-z
1/2-x,1/2+y,-z
loop_
_atom_site_type_symbol
_atom_site_label
_atom_site_fract_x
_atom_site_fract_y
_atom_site_fract_z
Si Si1 0.125166 0.150930 0.303938
Si Si2 0.867388 0.375005 0.999700
Si Si3 0.387547 0.040891 0.272826
Si Si4 0.962099 0.750000 0.750000
Si Si5 0.368698 0.939167 0.527271
Si Si6 0.883489 0.764257 0.561843
O O1 0.250000 0.155461 0.250000
O O2 0.148439 0.152684 0.406233
O O3 0.080032 0.091565 0.284947
O O4 0.041269 0.198220 0.271209
O O5 0.748907 0.410527 0.012253
O O6 0.880985 0.327655 0.067017
O O7 0.000000 0.403618 0.000000
O O8 0.250000 0.019756 0.250000
O O9 0.368665 0.061865 0.369719
O O10 0.500000 0.000000 0.270145
O O11 0.893824 0.740848 0.658355
O O12 0.500000 0.915823 0.500000
O O13 0.365739 0.000000 0.500000
O O14 0.750000 0.750000 0.523978
O O15 0.000000 0.749990 0.500000
#
# Coordination Sequence:
#
# PCOD9328939 Si02
#       6
#    16  16  16   8  16  16
#     4  11  23  42  73 101 141 187 237 296 357 428
#     4  11  23  46  67 106 139 177 238 298 347 431
#     4  11  23  45  69 105 141 182 243 293 355 430
#     4  12  24  46  70 104 143 190 239 302 355 430
#     4  11  23  44  71 102 143 185 231 297 359 428
#     4  11  26  45  68 101 141 179 237 292 349 427
#
# _framework density 20.556633000000001
#
# number of rings (size 3 to 8) (size 9 to 14) (size 15 to 20)
#    0.000    0.909    9.091    0.545    2.545    4.000 
#    0.000    0.000    0.000    0.000    0.000    0.000 
#    0.000    0.000    0.000    0.000    0.000    0.000 
#
# Total GULP energy -122748.737176 kJ/mol
# GULP energy per Si atom -5579.488053 kJ/mol
# Density = 2.050985 g / cm^3
# Si number density = 20.556633 Si / 1000 Ang^3
#
#
#
# Elastic Constant Matrix: (Units=GPa)
#
#
# Indices 1 2 3 4 5 6 
#
# 1 186.7632 37.6677 19.4266 0.0000 0.0000 0.0000
# 2 37.6677 64.3955 -3.7915 0.0000 0.0000 0.0000
# 3 19.4266 -3.7915 92.8880 0.0000 0.0000 0.0000
# 4 0.0000 0.0000 0.0000 43.4638 0.0000 0.0000
# 5 0.0000 0.0000 0.0000 0.0000 30.8049 0.0000
# 6 0.0000 0.0000 0.0000 0.0000 0.0000 35.4686
#
#
#
# Elastic Compliance Matrix: (Units=1/GPa)
#
#
# Indices 1 2 3 4 5 6 
#
# 1 0.006263 -0.003749 -0.001463 0.000000 0.000000 0.000000
# 2 -0.003749 0.017811 0.001511 0.000000 0.000000 0.000000
# 3 -0.001463 0.001511 0.011133 0.000000 0.000000 0.000000
# 4 0.000000 0.000000 0.000000 0.023008 0.000000 0.000000
# 5 0.000000 0.000000 0.000000 0.000000 0.032462 0.000000
# 6 0.000000 0.000000 0.000000 0.000000 0.000000 0.028194
#
#
# Mechanical properties :
#
#
# Convention : Reuss Voigt Hill
#
# Bulk Modulus (GPa) = 35.96475 50.07248 43.01862
# Shear Modulus (GPa) = 36.88898 41.33039 39.10969
#
# Velocity S-wave (km/s) = 4.24076 4.48879 4.36654
# Velocity P-wave (km/s) = 6.44299 7.16079 6.81135
#
# Compressibility (1/GPa) = 0.02780500
#
# Stress axis : x y z
#
# Youngs Moduli (GPa) = 159.67403 56.14432 89.82083
#
# Poissons Ratio (x) = 0.21051 0.13139
# Poissons Ratio (y) = 0.59870 -0.13574
# Poissons Ratio (z) = 0.23358 -0.08485
#
# Static dielectric constant tensor:
#      x y z
#    x 1.629900 0.000000 0.000000 
#    y 0.000000 1.822280 0.000000 
#    z 0.000000 0.000000 1.782500 
# 
# From -- ./inp_files/28210.got.cif
#   From: 2010.05.17/outbox.cif.g08.bks.cpg/sg22_15_cif.got.tgz:28210.got - 2010.06.03 23:40:54.
