data_PCOD9328710
_publ_section_title
;
Structure prediction by ZEFSAII (Michael W. Deem and Ramdas Pophale) SiO2 
 PCOD9328710
Probable space group: F 2 2 2
;
_chemical_formula_sum "Si O2"
_cell_formula_units_Z 80
_cell_length_a 12.074336
_cell_length_b 16.582925
_cell_length_c 17.200132
_cell_angle_alpha 90.000000
_cell_angle_beta 90.000000
_cell_angle_gamma 90.000000
_cell_volume 3443.944733
_symmetry_space_group_name_H-M "F 2 2 2"
_symmetry_group_IT_number 22
_symmetry_cell_setting 'orthorhombic'
loop_
_space_group_symop_operation_xyz
x,y,z
-x,-y,z
x,-y,-z
-x,y,-z
x,1/2+y,1/2+z
-x,1/2-y,1/2+z
x,1/2-y,1/2-z
-x,1/2+y,1/2-z
1/2+x,y,1/2+z
1/2-x,-y,1/2+z
1/2+x,-y,1/2-z
1/2-x,y,1/2-z
1/2+x,1/2+y,z
1/2-x,1/2-y,z
1/2+x,1/2-y,-z
1/2-x,1/2+y,-z
loop_
_atom_site_type_symbol
_atom_site_label
_atom_site_fract_x
_atom_site_fract_y
_atom_site_fract_z
Si Si1 0.807037 0.630160 0.334687
Si Si2 0.548905 0.413436 0.377866
Si Si3 0.000000 0.220225 0.500000
Si Si4 0.961547 0.666610 0.714914
Si Si5 0.711163 0.554373 0.840474
Si Si6 0.750000 0.750000 0.040134
O O1 0.750000 0.633355 0.250000
O O2 0.827209 0.536589 0.355212
O O3 0.740526 0.672853 0.402680
O O4 0.921037 0.678431 0.324757
O O5 0.500000 0.500000 0.398669
O O6 0.505715 0.339358 0.426588
O O7 0.521990 0.393940 0.287719
O O8 0.680780 0.421536 0.387859
O O9 0.873867 0.259008 0.500854
O O10 0.916575 0.750000 0.750000
O O11 0.881542 0.621992 0.655485
O O12 0.750000 0.555584 0.750000
#
# Coordination Sequence:
#
# PCOD9328710 Si02
#       6
#    16  16   8  16  16   8
#     4  11  20  38  65  95 125 159 209 272 328 376
#     4  11  22  40  63  90 124 167 213 259 314 384
#     4  12  27  44  64  90 129 172 218 262 311 386
#     4  11  21  35  61  97 132 164 203 261 328 388
#     4   9  20  35  60  94 129 163 205 261 324 387
#     4  12  27  44  64  92 125 170 218 268 324 386
#
# _framework density 23.229178000000001
#
# number of rings (size 3 to 8) (size 9 to 14) (size 15 to 20)
#    0.000    1.200    0.000    9.600    0.000    6.800 
#    0.000    0.000    0.000    0.000    0.000    0.000 
#    0.000    0.000    0.000    0.000    0.000    0.000 
#
# Total GULP energy -111756.738553 kJ/mol
# GULP energy per Si atom -5587.836928 kJ/mol
# Density = 2.317631 g / cm^3
# Si number density = 23.229178 Si / 1000 Ang^3
#
#
#
# Elastic Constant Matrix: (Units=GPa)
#
#
# Indices 1 2 3 4 5 6 
#
# 1 156.9494 47.6219 34.9101 0.0000 0.0000 0.0000
# 2 47.6219 114.7428 14.8222 0.0000 0.0000 0.0000
# 3 34.9101 14.8222 41.3373 0.0000 0.0000 0.0000
# 4 0.0000 0.0000 0.0000 1.8199 0.0000 0.0000
# 5 0.0000 0.0000 0.0000 0.0000 12.6029 0.0000
# 6 0.0000 0.0000 0.0000 0.0000 0.0000 30.4482
#
#
#
# Elastic Compliance Matrix: (Units=1/GPa)
#
#
# Indices 1 2 3 4 5 6 
#
# 1 0.008605 -0.002761 -0.006278 0.000000 0.000000 0.000000
# 2 -0.002761 0.010024 -0.001263 0.000000 0.000000 0.000000
# 3 -0.006278 -0.001263 0.029946 0.000000 0.000000 0.000000
# 4 0.000000 0.000000 0.000000 0.549481 0.000000 0.000000
# 5 0.000000 0.000000 0.000000 0.000000 0.079347 0.000000
# 6 0.000000 0.000000 0.000000 0.000000 0.000000 0.032843
#
#
# Mechanical properties :
#
#
# Convention : Reuss Voigt Hill
#
# Bulk Modulus (GPa) = 35.74896 56.41533 46.08214
# Shear Modulus (GPa) = 6.75519 23.35255 15.05387
#
# Velocity S-wave (km/s) = 1.70715 3.17410 2.54846
# Velocity P-wave (km/s) = 4.39419 6.14592 5.34235
#
# Compressibility (1/GPa) = 0.02797284
#
# Stress axis : x y z
#
# Youngs Moduli (GPa) = 116.20591 99.76043 33.39394
#
# Poissons Ratio (x) = 0.27540 0.20963
# Poissons Ratio (y) = 0.32080 0.04217
# Poissons Ratio (z) = 0.72949 0.12599
#
# Static dielectric constant tensor:
#      x y z
#    x 2.029880 0.000000 0.000000 
#    y 0.000000 1.841130 0.000000 
#    z 0.000000 0.000000 1.928240 
# 
# From -- ./inp_files/22531.got.cif
#   From: 2010.05.17/outbox.cif.g08.bks.cpg/sg22_12_cif.got.tgz:22531.got - 2010.06.03 23:40:54.
