data_PCOD9328814
_publ_section_title
;
Structure prediction by ZEFSAII (Michael W. Deem and Ramdas Pophale) SiO2 
 PCOD9328814
Probable space group: F 2 2 2
;
_chemical_formula_sum "Si O2"
_cell_formula_units_Z 48
_cell_length_a 20.810696
_cell_length_b 10.538181
_cell_length_c 11.639991
_cell_angle_alpha 90.000000
_cell_angle_beta 90.000000
_cell_angle_gamma 90.000000
_cell_volume 2552.730123
_symmetry_space_group_name_H-M "F 2 2 2"
_symmetry_group_IT_number 22
_symmetry_cell_setting 'orthorhombic'
loop_
_space_group_symop_operation_xyz
x,y,z
-x,-y,z
x,-y,-z
-x,y,-z
x,1/2+y,1/2+z
-x,1/2-y,1/2+z
x,1/2-y,1/2-z
-x,1/2+y,1/2-z
1/2+x,y,1/2+z
1/2-x,-y,1/2+z
1/2+x,-y,1/2-z
1/2-x,y,1/2-z
1/2+x,1/2+y,z
1/2-x,1/2-y,z
1/2+x,1/2-y,-z
1/2-x,1/2+y,-z
loop_
_atom_site_type_symbol
_atom_site_label
_atom_site_fract_x
_atom_site_fract_y
_atom_site_fract_z
Si Si1 0.750000 0.445620 0.250000
Si Si2 0.808312 0.320275 0.627580
Si Si3 0.358400 0.750000 0.250000
Si Si4 0.071445 0.349421 0.525640
O O1 0.783410 0.538066 0.343893
O O2 0.691468 0.358218 0.293943
O O3 0.815724 0.250000 0.750000
O O4 0.750000 0.250000 0.563967
O O5 0.873704 0.304850 0.561104
O O6 0.402786 0.689588 0.151008
O O7 0.069233 0.500000 0.500000
O O8 0.000000 0.299018 0.500000
#
# Coordination Sequence:
#
# PCOD9328814 Si02
#       4
#     8  16   8  16
#     4   9  19  38  62  94 121 157 218 262 312 381
#     4   9  20  39  63  89 126 166 209 270 313 372
#     4  11  22  38  66  94 121 164 216 268 319 384
#     4  11  24  40  62  89 131 173 208 263 319 387
#
# _framework density 18.803395999999999
#
# number of rings (size 3 to 8) (size 9 to 14) (size 15 to 20)
#    0.000    2.333    3.333    0.000    7.000    0.000 
#    0.000    0.000    0.000    8.000    0.000    0.000 
#    0.000    0.000    0.000    0.000    0.000    0.000 
#
# Total GULP energy -66861.841828 kJ/mol
# GULP energy per Si atom -5571.820152 kJ/mol
# Density = 1.876060 g / cm^3
# Si number density = 18.803396 Si / 1000 Ang^3
#
#
#
# Elastic Constant Matrix: (Units=GPa)
#
#
# Indices 1 2 3 4 5 6 
#
# 1 210.4706 43.9237 78.6092 0.0000 0.0000 0.0000
# 2 43.9237 81.4721 31.6870 0.0000 0.0000 0.0000
# 3 78.6092 31.6870 102.6311 0.0000 0.0000 0.0000
# 4 0.0000 0.0000 0.0000 14.5471 0.0000 0.0000
# 5 0.0000 0.0000 0.0000 0.0000 26.2558 0.0000
# 6 0.0000 0.0000 0.0000 0.0000 0.0000 25.0242
#
#
#
# Elastic Compliance Matrix: (Units=1/GPa)
#
#
# Indices 1 2 3 4 5 6 
#
# 1 0.006903 -0.001892 -0.004703 0.000000 0.000000 0.000000
# 2 -0.001892 0.014468 -0.003018 0.000000 0.000000 0.000000
# 3 -0.004703 -0.003018 0.014277 0.000000 0.000000 0.000000
# 4 0.000000 0.000000 0.000000 0.068742 0.000000 0.000000
# 5 0.000000 0.000000 0.000000 0.000000 0.038087 0.000000
# 6 0.000000 0.000000 0.000000 0.000000 0.000000 0.039961
#
#
# Mechanical properties :
#
#
# Convention : Reuss Voigt Hill
#
# Bulk Modulus (GPa) = 60.89138 78.11262 69.50200
# Shear Modulus (GPa) = 24.13855 29.18901 26.66378
#
# Velocity S-wave (km/s) = 3.58681 3.94423 3.76976
# Velocity P-wave (km/s) = 7.04323 7.89776 7.48270
#
# Compressibility (1/GPa) = 0.01642269
#
# Stress axis : x y z
#
# Youngs Moduli (GPa) = 144.87280 69.11825 70.04130
#
# Poissons Ratio (x) = 0.13079 0.32939
# Poissons Ratio (y) = 0.27415 0.21135
# Poissons Ratio (z) = 0.68130 0.20857
#
# Static dielectric constant tensor:
#      x y z
#    x 1.666250 0.000000 0.000000 
#    y 0.000000 1.711800 0.000000 
#    z 0.000000 0.000000 1.665120 
# 
# From -- ./inp_files/17625.got.cif
#   From: 2010.05.17/outbox.cif.g08.bks.cpg/sg22_9_cif.got.tgz:17625.got - 2010.06.03 23:40:54.
