data_PCOD9328173
_publ_section_title
;
Structure prediction by ZEFSAII (Michael W. Deem and Ramdas Pophale) SiO2 
 PCOD9328173
Probable space group: F 2 2 2
;
_chemical_formula_sum "Si O2"
_cell_formula_units_Z 60
_cell_length_a 32.744922
_cell_length_b 16.328331
_cell_length_c 5.072481
_cell_angle_alpha 90.000000
_cell_angle_beta 90.000000
_cell_angle_gamma 90.000000
_cell_volume 2712.103036
_symmetry_space_group_name_H-M "F 2 2 2"
_symmetry_group_IT_number 22
_symmetry_cell_setting 'orthorhombic'
loop_
_space_group_symop_operation_xyz
x,y,z
-x,-y,z
x,-y,-z
-x,y,-z
x,1/2+y,1/2+z
-x,1/2-y,1/2+z
x,1/2-y,1/2-z
-x,1/2+y,1/2-z
1/2+x,y,1/2+z
1/2-x,-y,1/2+z
1/2+x,-y,1/2-z
1/2-x,y,1/2-z
1/2+x,1/2+y,z
1/2-x,1/2-y,z
1/2+x,1/2-y,-z
1/2-x,1/2+y,-z
loop_
_atom_site_type_symbol
_atom_site_label
_atom_site_fract_x
_atom_site_fract_y
_atom_site_fract_z
Si Si1 0.526529 0.151372 0.254088
Si Si2 0.315550 0.335519 0.636957
Si Si3 0.391600 0.445158 0.738304
Si Si4 0.750000 0.946299 0.750000
Si Si5 0.750000 0.750000 0.250000
O O1 0.500000 0.124153 0.500000
O O2 0.529386 0.250000 0.250000
O O3 0.571677 0.116556 0.293914
O O4 0.500000 0.126393 0.000000
O O5 0.331174 0.250000 0.750000
O O6 0.353686 0.395392 0.606913
O O7 0.287278 0.388407 0.833017
O O8 0.281998 0.305931 0.419420
O O9 0.407373 0.500000 0.500000
O O10 0.381472 0.500000 0.000000
O O11 0.762808 0.000000 0.500000
#
# Coordination Sequence:
#
# PCOD9328173 Si02
#       5
#    16  16  16   8   4
#     4  10  22  45  74 107 145 192 243 293 355 435
#     4  12  26  46  70 101 136 189 246 301 357 441
#     4  12  28  46  70 110 149 192 239 302 373 431
#     4  12  24  42  67  97 134 174 224 294 368 424
#     4  12  24  48  76 100 136 190 262 298 374 418
#
# _framework density 22.123052999999999
#
# number of rings (size 3 to 8) (size 9 to 14) (size 15 to 20)
#    0.000    0.533    2.667    4.800    3.733    3.200 
#    7.200    0.000    0.000    0.000    0.000    0.000 
#    0.000    0.000    0.000    0.000    0.000    0.000 
#
# Total GULP energy -83671.371425 kJ/mol
# GULP energy per Si atom -5578.091428 kJ/mol
# Density = 2.207270 g / cm^3
# Si number density = 22.123053 Si / 1000 Ang^3
#
#
#
# Elastic Constant Matrix: (Units=GPa)
#
#
# Indices 1 2 3 4 5 6 
#
# 1 133.5975 22.5446 23.0134 0.0004 0.0005 0.0022
# 2 22.5446 65.9023 25.3825 0.0004 0.0005 0.0033
# 3 23.0134 25.3825 124.2270 0.0005 0.0012 0.0117
# 4 0.0004 0.0004 0.0005 -27.1309 0.0007 0.0034
# 5 0.0005 0.0005 0.0012 0.0007 21.9124 -0.0023
# 6 0.0022 0.0033 0.0117 0.0034 -0.0023 -359.1542
#
#
#
# Elastic Compliance Matrix: (Units=1/GPa)
#
#
# Indices 1 2 3 4 5 6 
#
# 1 0.008059 -0.002368 -0.001009 0.000000 0.000000 0.000000
# 2 -0.002368 0.017166 -0.003069 0.000000 0.000000 0.000000
# 3 -0.001009 -0.003069 0.008864 0.000000 0.000000 0.000000
# 4 0.000000 0.000000 0.000000 -0.036858 0.000001 0.000000
# 5 0.000000 0.000000 0.000000 0.000001 0.045636 0.000000
# 6 0.000000 0.000000 0.000000 0.000000 0.000000 -0.002784
#
#
# Mechanical properties :
#
#
# Convention : Reuss Voigt Hill
#
# Bulk Modulus (GPa) = 47.17739 51.73420 49.45579
# Shear Modulus (GPa) = 83.27889 -56.02212 13.62839
#
# Velocity S-wave (km/s) = 6.14209 -5.03765 2.48468
# Velocity P-wave (km/s) = 8.46591 3.22517 5.53488
#
# Compressibility (1/GPa) = 0.02119659
#
# Stress axis : x y z
#
# Youngs Moduli (GPa) = 124.09091 58.25455 112.81961
#
# Poissons Ratio (x) = 0.13796 0.11384
# Poissons Ratio (y) = 0.29387 0.34621
# Poissons Ratio (z) = 0.12521 0.17877
#
# Static dielectric constant tensor:
#      x y z
#    x 1.801150 0.000000 0.000000 
#    y 0.000000 1.873050 0.000000 
#    z 0.000000 0.000000 1.866020 
# 
# From -- ./inp_files/5257.got.cif
#   From: 2010.05.17/outbox.cif.g08.bks.cpg/sg22_3_cif.got.tgz:5257.got - 2010.06.03 23:40:54.
