data_PCOD9328233
_publ_section_title
;
Structure prediction by ZEFSAII (Michael W. Deem and Ramdas Pophale) SiO2 
 PCOD9328233
Probable space group: F 2 2 2
;
_chemical_formula_sum "Si O2"
_cell_formula_units_Z 88
_cell_length_a 29.814159
_cell_length_b 10.927540
_cell_length_c 13.028471
_cell_angle_alpha 90.000000
_cell_angle_beta 90.000000
_cell_angle_gamma 90.000000
_cell_volume 4244.616117
_symmetry_space_group_name_H-M "F 2 2 2"
_symmetry_group_IT_number 22
_symmetry_cell_setting 'orthorhombic'
loop_
_space_group_symop_operation_xyz
x,y,z
-x,-y,z
x,-y,-z
-x,y,-z
x,1/2+y,1/2+z
-x,1/2-y,1/2+z
x,1/2-y,1/2-z
-x,1/2+y,1/2-z
1/2+x,y,1/2+z
1/2-x,-y,1/2+z
1/2+x,-y,1/2-z
1/2-x,y,1/2-z
1/2+x,1/2+y,z
1/2-x,1/2-y,z
1/2+x,1/2-y,-z
1/2-x,1/2+y,-z
loop_
_atom_site_type_symbol
_atom_site_label
_atom_site_fract_x
_atom_site_fract_y
_atom_site_fract_z
Si Si1 0.037473 0.805259 0.421364
Si Si2 0.319318 0.927031 0.150650
Si Si3 0.826513 0.136720 0.117400
Si Si4 0.500000 0.000000 0.763795
Si Si5 0.926981 0.952348 0.888618
Si Si6 0.742885 0.000000 0.500000
Si Si7 0.893407 0.500000 0.000000
O O1 0.014402 0.891317 0.338318
O O2 0.058381 0.687086 0.370806
O O3 0.000000 0.762722 0.500000
O O4 0.074335 0.884038 0.483380
O O5 0.310589 0.914006 0.271644
O O6 0.329186 0.784331 0.120709
O O7 0.361771 0.999653 0.101556
O O8 0.276925 0.988903 0.095190
O O9 0.873373 0.063494 0.109449
O O10 0.792088 0.107970 0.025595
O O11 0.543886 0.027047 0.694122
O O12 0.940412 0.000000 0.000000
#
# Coordination Sequence:
#
# PCOD9328233 Si02
#       7
#    16  16  16   8  16   8   8
#     4  12  23  41  66  97 138 181 227 278 333 394
#     4  10  23  39  70  98 129 167 225 278 340 408
#     4  11  22  42  69  97 130 173 220 277 340 408
#     4  12  24  40  66 100 128 182 226 280 324 396
#     4  12  26  44  65  98 141 179 225 276 341 401
#     4  11  22  40  65  97 129 165 220 280 341 408
#     4  11  19  40  63 104 132 173 224 285 333 394
#
# _framework density 20.732146
#
# number of rings (size 3 to 8) (size 9 to 14) (size 15 to 20)
#    0.000    0.727    4.545    4.091    2.545    1.455 
#    0.000    0.000    0.000   25.091    0.000    0.000 
#    0.000    0.000    0.000    0.000    0.000    0.000 
#
# Total GULP energy -122631.785145 kJ/mol
# GULP energy per Si atom -5574.172052 kJ/mol
# Density = 2.068496 g / cm^3
# Si number density = 20.732146 Si / 1000 Ang^3
#
#
#
# Elastic Constant Matrix: (Units=GPa)
#
#
# Indices 1 2 3 4 5 6 
#
# 1 128.4412 25.8224 32.3419 0.0000 0.0000 0.0000
# 2 25.8224 65.2813 38.6846 0.0000 0.0000 0.0000
# 3 32.3419 38.6846 92.7691 0.0000 0.0000 0.0000
# 4 0.0000 0.0000 0.0000 26.5090 0.0000 0.0000
# 5 0.0000 0.0000 0.0000 0.0000 31.6327 0.0000
# 6 0.0000 0.0000 0.0000 0.0000 0.0000 24.9783
#
#
#
# Elastic Compliance Matrix: (Units=1/GPa)
#
#
# Indices 1 2 3 4 5 6 
#
# 1 0.008767 -0.002200 -0.002139 0.000000 0.000000 0.000000
# 2 -0.002200 0.020898 -0.007947 0.000000 0.000000 0.000000
# 3 -0.002139 -0.007947 0.014839 0.000000 0.000000 0.000000
# 4 0.000000 0.000000 0.000000 0.037723 0.000000 0.000000
# 5 0.000000 0.000000 0.000000 0.000000 0.031613 0.000000
# 6 0.000000 0.000000 0.000000 0.000000 0.000000 0.040035
#
#
# Mechanical properties :
#
#
# Convention : Reuss Voigt Hill
#
# Bulk Modulus (GPa) = 50.17323 53.35438 51.76381
# Shear Modulus (GPa) = 27.01375 29.26688 28.14032
#
# Velocity S-wave (km/s) = 3.61361 3.76129 3.68819
# Velocity P-wave (km/s) = 6.45478 6.68237 6.56956
#
# Compressibility (1/GPa) = 0.01993095
#
# Stress axis : x y z
#
# Youngs Moduli (GPa) = 114.06982 47.85111 67.38934
#
# Poissons Ratio (x) = 0.10529 0.14413
# Poissons Ratio (y) = 0.25099 0.53557
# Poissons Ratio (z) = 0.24397 0.38029
#
# Static dielectric constant tensor:
#      x y z
#    x 1.816180 0.000000 0.000000 
#    y 0.000000 1.728960 0.000000 
#    z 0.000000 0.000000 1.768720 
# 
# From -- ./inp_files/25271.got.cif
#   From: 2010.05.17/outbox.cif.g08.bks.cpg/sg22_13_cif.got.tgz:25271.got - 2010.06.03 23:40:54.
