data_PCOD9328311
_publ_section_title
;
Structure prediction by ZEFSAII (Michael W. Deem and Ramdas Pophale) SiO2 
 PCOD9328311
Probable space group: F 2 2 2
;
_chemical_formula_sum "Si O2"
_cell_formula_units_Z 116
_cell_length_a 9.068343
_cell_length_b 20.874216
_cell_length_c 26.056816
_cell_angle_alpha 90.000000
_cell_angle_beta 90.000000
_cell_angle_gamma 90.000000
_cell_volume 4932.413273
_symmetry_space_group_name_H-M "F 2 2 2"
_symmetry_group_IT_number 22
_symmetry_cell_setting 'orthorhombic'
loop_
_space_group_symop_operation_xyz
x,y,z
-x,-y,z
x,-y,-z
-x,y,-z
x,1/2+y,1/2+z
-x,1/2-y,1/2+z
x,1/2-y,1/2-z
-x,1/2+y,1/2-z
1/2+x,y,1/2+z
1/2-x,-y,1/2+z
1/2+x,-y,1/2-z
1/2-x,y,1/2-z
1/2+x,1/2+y,z
1/2-x,1/2-y,z
1/2+x,1/2-y,-z
1/2-x,1/2+y,-z
loop_
_atom_site_type_symbol
_atom_site_label
_atom_site_fract_x
_atom_site_fract_y
_atom_site_fract_z
Si Si1 0.480828 0.848502 0.554510
Si Si2 0.442711 0.727324 0.156196
Si Si3 0.574441 0.068403 0.245738
Si Si4 0.399679 0.874680 0.137005
Si Si5 0.662166 0.144318 0.697568
Si Si6 0.801013 0.092327 0.594725
Si Si7 0.250000 0.250000 0.750000
Si Si8 0.355934 0.036861 0.596617
O O1 0.500000 0.815535 0.500000
O O2 0.549525 0.813036 0.603719
O O3 0.307234 0.861306 0.563130
O O4 0.567212 0.916809 0.554978
O O5 0.105543 0.702199 0.138206
O O6 0.606073 0.713203 0.177811
O O7 0.349404 0.712735 0.208570
O O8 0.750000 0.061120 0.250000
O O9 0.550523 0.108975 0.194447
O O10 0.484356 0.102171 0.291188
O O11 0.500000 0.000000 0.237914
O O12 0.525141 0.895505 0.096320
O O13 0.251654 0.915754 0.128145
O O14 0.750000 0.148071 0.750000
O O15 0.748736 0.107558 0.653038
O O16 0.752107 0.020673 0.580438
O O17 0.500000 0.000000 0.620441
#
# Coordination Sequence:
#
# PCOD9328311 Si02
#       8
#    16  16  16  16  16  16   4  16
#     4  10  24  49  79 111 150 204 264 326 402 487
#     4  11  27  44  73 107 156 206 264 320 401 486
#     4  12  28  40  65  98 147 199 262 323 392 473
#     4  12  25  45  65 103 151 202 251 324 396 477
#     4  11  24  44  63 102 146 206 260 318 400 480
#     4  10  23  43  70 104 146 193 253 326 397 479
#     4  12  24  44  66 112 148 196 266 326 388 478
#     4  10  23  42  74 104 141 191 252 322 398 475
#
# _framework density 23.517897999999999
#
# number of rings (size 3 to 8) (size 9 to 14) (size 15 to 20)
#    0.000    1.103    1.379    3.310   11.586    4.690 
#    2.483    4.828    1.517    3.310    0.000    0.000 
#    0.000    0.000    0.000    0.000    0.000    0.000 
#
# Total GULP energy -161875.257997 kJ/mol
# GULP energy per Si atom -5581.905448 kJ/mol
# Density = 2.346437 g / cm^3
# Si number density = 23.517898 Si / 1000 Ang^3
#
#
#
# Elastic Constant Matrix: (Units=GPa)
#
#
# Indices 1 2 3 4 5 6 
#
# 1 140.1362 45.6095 39.7757 0.0000 0.0000 0.0000
# 2 45.6095 97.6151 23.9283 0.0000 0.0000 0.0000
# 3 39.7757 23.9283 116.3922 0.0000 0.0000 0.0000
# 4 0.0000 0.0000 0.0000 15.9003 0.0000 0.0000
# 5 0.0000 0.0000 0.0000 0.0000 24.5732 0.0000
# 6 0.0000 0.0000 0.0000 0.0000 0.0000 25.5530
#
#
#
# Elastic Compliance Matrix: (Units=1/GPa)
#
#
# Indices 1 2 3 4 5 6 
#
# 1 0.008974 -0.003624 -0.002322 0.000000 0.000000 0.000000
# 2 -0.003624 0.012251 -0.001280 0.000000 0.000000 0.000000
# 3 -0.002322 -0.001280 0.009648 0.000000 0.000000 0.000000
# 4 0.000000 0.000000 0.000000 0.062892 0.000000 0.000000
# 5 0.000000 0.000000 0.000000 0.000000 0.040695 0.000000
# 6 0.000000 0.000000 0.000000 0.000000 0.000000 0.039134
#
#
# Mechanical properties :
#
#
# Convention : Reuss Voigt Hill
#
# Bulk Modulus (GPa) = 60.89424 63.64118 62.26771
# Shear Modulus (GPa) = 25.83692 29.52728 27.68210
#
# Velocity S-wave (km/s) = 3.31812 3.54718 3.43456
# Velocity P-wave (km/s) = 6.37407 6.62542 6.50096
#
# Compressibility (1/GPa) = 0.01642191
#
# Stress axis : x y z
#
# Youngs Moduli (GPa) = 111.42738 81.62307 103.64516
#
# Poissons Ratio (x) = 0.29581 0.24065
# Poissons Ratio (y) = 0.40382 0.13269
# Poissons Ratio (z) = 0.25872 0.10450
#
# Static dielectric constant tensor:
#      x y z
#    x 1.896850 0.000000 0.000000 
#    y 0.000000 1.925310 0.000000 
#    z 0.000000 0.000000 1.858600 
# 
# From -- ./inp_files/55705.got.cif
#   From: 2010.05.17/outbox.cif.g08.bks.cpg/sg22_28_cif.got.tgz:55705.got - 2010.06.03 23:40:54.
