data_PCOD9328914
_publ_section_title
;
Structure prediction by ZEFSAII (Michael W. Deem and Ramdas Pophale) SiO2 
 PCOD9328914
Probable space group: F 2 2 2
;
_chemical_formula_sum "Si O2"
_cell_formula_units_Z 68
_cell_length_a 14.365632
_cell_length_b 25.539031
_cell_length_c 8.330046
_cell_angle_alpha 90.000000
_cell_angle_beta 90.000000
_cell_angle_gamma 90.000000
_cell_volume 3056.163270
_symmetry_space_group_name_H-M "F 2 2 2"
_symmetry_group_IT_number 22
_symmetry_cell_setting 'orthorhombic'
loop_
_space_group_symop_operation_xyz
x,y,z
-x,-y,z
x,-y,-z
-x,y,-z
x,1/2+y,1/2+z
-x,1/2-y,1/2+z
x,1/2-y,1/2-z
-x,1/2+y,1/2-z
1/2+x,y,1/2+z
1/2-x,-y,1/2+z
1/2+x,-y,1/2-z
1/2-x,y,1/2-z
1/2+x,1/2+y,z
1/2-x,1/2-y,z
1/2+x,1/2-y,-z
1/2-x,1/2+y,-z
loop_
_atom_site_type_symbol
_atom_site_label
_atom_site_fract_x
_atom_site_fract_y
_atom_site_fract_z
Si Si1 0.423350 0.889537 0.117486
Si Si2 0.733785 0.100255 0.565362
Si Si3 0.599050 0.179149 0.432546
Si Si4 0.250000 0.250000 0.750000
Si Si5 0.000000 0.500000 0.768242
Si Si6 0.142721 0.500000 0.500000
O O1 0.423281 0.860606 0.286695
O O2 0.452536 0.950709 0.143998
O O3 0.500000 0.865958 0.000000
O O4 0.326523 0.882037 0.025447
O O5 0.750000 0.085009 0.750000
O O6 0.653671 0.143803 0.561670
O O7 0.703358 0.050013 0.461208
O O8 0.500000 0.199849 0.500000
O O9 0.677427 0.218038 0.362107
O O10 0.920585 0.480491 0.646494
#
# Coordination Sequence:
#
# PCOD9328914 Si02
#       6
#    16  16  16   4   8   8
#     4  12  25  43  71 107 152 202 255 315 384 463
#     4  12  26  44  71 109 154 204 257 314 386 467
#     4  12  26  54  81 111 153 196 256 333 390 469
#     4  12  28  56  86 114 156 204 266 328 412 456
#     4  11  23  40  62 100 150 204 256 306 378 454
#     4  11  24  38  63 100 148 208 249 308 375 460
#
# _framework density 22.250119000000002
#
# number of rings (size 3 to 8) (size 9 to 14) (size 15 to 20)
#    0.000    0.235    4.706    4.588    6.588    0.941 
#    4.235    0.000    0.000    0.000    0.000    0.000 
#    0.000    0.000    0.000    0.000    0.000    0.000 
#
# Total GULP energy -94987.602125 kJ/mol
# GULP energy per Si atom -5587.506007 kJ/mol
# Density = 2.219948 g / cm^3
# Si number density = 22.250119 Si / 1000 Ang^3
#
#
#
# Elastic Constant Matrix: (Units=GPa)
#
#
# Indices 1 2 3 4 5 6 
#
# 1 171.8536 39.5976 31.6285 0.0000 0.0000 0.0000
# 2 39.5976 72.6766 5.4452 0.0000 0.0000 0.0000
# 3 31.6285 5.4452 69.9062 0.0000 0.0000 0.0000
# 4 0.0000 0.0000 0.0000 23.8364 0.0000 0.0000
# 5 0.0000 0.0000 0.0000 0.0000 34.9420 0.0000
# 6 0.0000 0.0000 0.0000 0.0000 0.0000 29.4566
#
#
#
# Elastic Compliance Matrix: (Units=1/GPa)
#
#
# Indices 1 2 3 4 5 6 
#
# 1 0.007222 -0.003712 -0.002979 0.000000 0.000000 0.000000
# 2 -0.003712 0.015748 0.000453 0.000000 0.000000 0.000000
# 3 -0.002979 0.000453 0.015617 0.000000 0.000000 0.000000
# 4 0.000000 0.000000 0.000000 0.041953 0.000000 0.000000
# 5 0.000000 0.000000 0.000000 0.000000 0.028619 0.000000
# 6 0.000000 0.000000 0.000000 0.000000 0.000000 0.033948
#
#
# Mechanical properties :
#
#
# Convention : Reuss Voigt Hill
#
# Bulk Modulus (GPa) = 38.29619 51.97544 45.13581
# Shear Modulus (GPa) = 30.43456 33.49802 31.96629
#
# Velocity S-wave (km/s) = 3.70244 3.88431 3.79447
# Velocity P-wave (km/s) = 5.96041 6.59754 6.28705
#
# Compressibility (1/GPa) = 0.02611226
#
# Stress axis : x y z
#
# Youngs Moduli (GPa) = 138.45859 63.49975 64.03180
#
# Poissons Ratio (x) = 0.23571 0.19072
# Poissons Ratio (y) = 0.51395 -0.02899
# Poissons Ratio (z) = 0.41241 -0.02875
#
# Static dielectric constant tensor:
#      x y z
#    x 1.842260 0.000000 0.000000 
#    y 0.000000 1.830300 0.000000 
#    z 0.000000 0.000000 1.841230 
# 
# From -- ./inp_files/10055.got.cif
#   From: 2010.05.17/outbox.cif.g08.bks.cpg/sg22_6_cif.got.tgz:10055.got - 2010.06.03 23:40:54.
