data_PCOD9328278
_publ_section_title
;
Structure prediction by ZEFSAII (Michael W. Deem and Ramdas Pophale) SiO2 
 PCOD9328278
Probable space group: F 2 2 2
;
_chemical_formula_sum "Si O2"
_cell_formula_units_Z 116
_cell_length_a 25.173527
_cell_length_b 23.179295
_cell_length_c 9.471281
_cell_angle_alpha 90.000000
_cell_angle_beta 90.000000
_cell_angle_gamma 90.000000
_cell_volume 5526.536112
_symmetry_space_group_name_H-M "F 2 2 2"
_symmetry_group_IT_number 22
_symmetry_cell_setting 'orthorhombic'
loop_
_space_group_symop_operation_xyz
x,y,z
-x,-y,z
x,-y,-z
-x,y,-z
x,1/2+y,1/2+z
-x,1/2-y,1/2+z
x,1/2-y,1/2-z
-x,1/2+y,1/2-z
1/2+x,y,1/2+z
1/2-x,-y,1/2+z
1/2+x,-y,1/2-z
1/2-x,y,1/2-z
1/2+x,1/2+y,z
1/2-x,1/2-y,z
1/2+x,1/2-y,-z
1/2-x,1/2+y,-z
loop_
_atom_site_type_symbol
_atom_site_label
_atom_site_fract_x
_atom_site_fract_y
_atom_site_fract_z
Si Si1 0.294349 0.643300 0.928736
Si Si2 0.552145 0.310349 0.671606
Si Si3 0.132210 0.411842 0.209505
Si Si4 0.440646 0.989268 0.334071
Si Si5 0.358533 0.610705 0.203355
Si Si6 0.750000 0.250000 0.750000
Si Si7 0.565084 0.192833 0.157800
Si Si8 0.298221 0.935699 0.045278
O O1 0.316957 0.601845 0.805947
O O2 0.282208 0.705279 0.853757
O O3 0.335973 0.638508 0.059290
O O4 0.242251 0.613769 0.995419
O O5 0.556087 0.250000 0.750000
O O6 0.595619 0.355675 0.719550
O O7 0.492591 0.335584 0.691469
O O8 0.562028 0.296937 0.507959
O O9 0.098895 0.464780 0.266694
O O10 0.149707 0.425657 0.050894
O O11 0.410394 0.928727 0.320305
O O12 0.500000 0.000000 0.275152
O O13 0.443766 0.000000 0.500000
O O14 0.381544 0.659765 0.304307
O O15 0.314929 0.573844 0.291644
O O16 0.565208 0.250000 0.250000
O O17 0.278970 0.000000 0.000000
#
# Coordination Sequence:
#
# PCOD9328278 Si02
#       8
#    16  16  16  16  16   4  16  16
#     4  12  29  45  76  99 142 184 249 304 364 437
#     4  10  23  41  68  97 135 184 234 286 346 435
#     4  12  23  44  70 102 132 193 229 287 364 425
#     4  11  24  42  68 108 150 185 237 294 354 436
#     4  12  25  45  69 108 139 190 234 295 371 423
#     4  12  28  56  74 108 140 196 262 318 376 440
#     4  10  23  42  64  99 137 177 232 290 354 421
#     4  12  26  46  73 105 142 183 241 300 363 441
#
# _framework density 20.989640999999999
#
# number of rings (size 3 to 8) (size 9 to 14) (size 15 to 20)
#    0.000    0.690    5.517    1.241    4.828    2.207 
#    0.000    1.379    0.000    0.000    0.000    0.000 
#    0.000    0.000    0.000    0.000    0.000    0.000 
#
# Total GULP energy -161920.276923 kJ/mol
# GULP energy per Si atom -5583.457825 kJ/mol
# Density = 2.094187 g / cm^3
# Si number density = 20.989641 Si / 1000 Ang^3
#
#
#
# Elastic Constant Matrix: (Units=GPa)
#
#
# Indices 1 2 3 4 5 6 
#
# 1 81.0343 37.6419 25.5143 -0.0003 0.0002 0.0000
# 2 37.6419 89.2800 32.1022 -0.0005 0.0003 -0.0004
# 3 25.5143 32.1022 89.5378 -0.0024 0.0015 0.0004
# 4 -0.0003 -0.0005 -0.0024 33.7024 0.0005 -0.0005
# 5 0.0002 0.0003 0.0015 0.0005 32.1939 0.0004
# 6 0.0000 -0.0004 0.0004 -0.0005 0.0004 75.1029
#
#
#
# Elastic Compliance Matrix: (Units=1/GPa)
#
#
# Indices 1 2 3 4 5 6 
#
# 1 0.015792 -0.005786 -0.002426 0.000000 0.000000 0.000000
# 2 -0.005786 0.014978 -0.003721 0.000000 0.000000 0.000000
# 3 -0.002426 -0.003721 0.013194 0.000001 -0.000001 0.000000
# 4 0.000000 0.000000 0.000001 0.029671 0.000000 0.000000
# 5 0.000000 0.000000 -0.000001 0.000000 0.031062 0.000000
# 6 0.000000 0.000000 0.000000 0.000000 0.000000 0.013315
#
#
# Mechanical properties :
#
#
# Convention : Reuss Voigt Hill
#
# Bulk Modulus (GPa) = 49.75584 50.04099 49.89842
# Shear Modulus (GPa) = 33.65246 39.17277 36.41261
#
# Velocity S-wave (km/s) = 4.00845 4.32475 4.16960
# Velocity P-wave (km/s) = 6.72161 6.98788 6.85604
#
# Compressibility (1/GPa) = 0.02009814
#
# Stress axis : x y z
#
# Youngs Moduli (GPa) = 63.32385 66.76328 75.79264
#
# Poissons Ratio (x) = 0.38629 0.18384
# Poissons Ratio (y) = 0.36639 0.28206
# Poissons Ratio (z) = 0.15359 0.24846
#
# Static dielectric constant tensor:
#      x y z
#    x 1.823560 0.000000 0.000000 
#    y 0.000000 1.733320 0.000000 
#    z 0.000000 0.000000 1.720660 
# 
# From -- ./inp_files/14989.got.cif
#   From: 2010.05.17/outbox.cif.g08.bks.cpg/sg22_8_cif.got.tgz:14989.got - 2010.06.03 23:40:54.
