data_PCOD9328708
_publ_section_title
;
Structure prediction by ZEFSAII (Michael W. Deem and Ramdas Pophale) SiO2 
 PCOD9328708
Probable space group: F 2 2 2
;
_chemical_formula_sum "Si O2"
_cell_formula_units_Z 104
_cell_length_a 19.643666
_cell_length_b 19.591466
_cell_length_c 14.207945
_cell_angle_alpha 90.000000
_cell_angle_beta 90.000000
_cell_angle_gamma 90.000000
_cell_volume 5467.902266
_symmetry_space_group_name_H-M "F 2 2 2"
_symmetry_group_IT_number 22
_symmetry_cell_setting 'orthorhombic'
loop_
_space_group_symop_operation_xyz
x,y,z
-x,-y,z
x,-y,-z
-x,y,-z
x,1/2+y,1/2+z
-x,1/2-y,1/2+z
x,1/2-y,1/2-z
-x,1/2+y,1/2-z
1/2+x,y,1/2+z
1/2-x,-y,1/2+z
1/2+x,-y,1/2-z
1/2-x,y,1/2-z
1/2+x,1/2+y,z
1/2-x,1/2-y,z
1/2+x,1/2-y,-z
1/2-x,1/2+y,-z
loop_
_atom_site_type_symbol
_atom_site_label
_atom_site_fract_x
_atom_site_fract_y
_atom_site_fract_z
Si Si1 0.830857 0.100113 0.227883
Si Si2 0.935257 0.692731 0.829628
Si Si3 0.782389 0.000000 0.500000
Si Si4 0.674471 0.544748 0.288573
Si Si5 0.650114 0.726708 0.499315
Si Si6 0.592841 0.178564 0.807245
Si Si7 0.216062 0.855083 0.037636
O O1 0.750000 0.103210 0.250000
O O2 0.881166 0.135161 0.300786
O O3 0.831161 0.139036 0.129376
O O4 0.848264 0.020584 0.227845
O O5 0.928647 0.750000 0.750000
O O6 0.012803 0.668233 0.826586
O O7 0.912648 0.722995 0.929455
O O8 0.820675 0.017584 0.600742
O O9 0.737398 0.068220 0.486710
O O10 0.750000 0.562014 0.250000
O O11 0.626691 0.609326 0.269734
O O12 0.631611 0.688505 0.405167
O O13 0.713048 0.686553 0.548376
O O14 0.673771 0.803257 0.472773
O O15 0.600119 0.250000 0.750000
#
# Coordination Sequence:
#
# PCOD9328708 Si02
#       7
#    16  16   8  16  16  16  16
#     4  11  20  38  63  94 122 155 206 267 321 355
#     4  11  22  40  64  90 128 163 208 269 313 375
#     4  12  20  40  60  95 123 156 206 262 318 366
#     4  11  24  40  64  89 128 164 205 264 309 377
#     4  11  22  39  62  94 124 163 209 263 311 372
#     4  11  27  42  58  90 129 179 212 239 314 390
#     4  11  22  34  65  96 120 156 209 265 318 358
#
# _framework density 19.020091000000001
#
# number of rings (size 3 to 8) (size 9 to 14) (size 15 to 20)
#    0.000    0.923    7.692    0.462    2.154    1.231 
#    0.000    0.000    0.000    0.000    0.000    1.077 
#    0.000    0.000    0.000    0.000    0.000    0.000 
#
# Total GULP energy -144812.090117 kJ/mol
# GULP energy per Si atom -5569.695774 kJ/mol
# Density = 1.897680 g / cm^3
# Si number density = 19.020091 Si / 1000 Ang^3
#
#
#
# Elastic Constant Matrix: (Units=GPa)
#
#
# Indices 1 2 3 4 5 6 
#
# 1 84.8438 61.6330 9.2366 0.0000 0.0000 0.0000
# 2 61.6330 127.6982 -0.7369 0.0000 0.0000 0.0000
# 3 9.2366 -0.7369 36.8474 0.0000 0.0000 0.0000
# 4 0.0000 0.0000 0.0000 24.8842 0.0000 0.0000
# 5 0.0000 0.0000 0.0000 0.0000 565.6429 0.0000
# 6 0.0000 0.0000 0.0000 0.0000 0.0000 22.7382
#
#
#
# Elastic Compliance Matrix: (Units=1/GPa)
#
#
# Indices 1 2 3 4 5 6 
#
# 1 0.019012 -0.009204 -0.004950 0.000000 0.000000 0.000000
# 2 -0.009204 0.012288 0.002553 0.000000 0.000000 0.000000
# 3 -0.004950 0.002553 0.028431 0.000000 0.000000 0.000000
# 4 0.000000 0.000000 0.000000 0.040186 0.000000 0.000000
# 5 0.000000 0.000000 0.000000 0.000000 0.001768 0.000000
# 6 0.000000 0.000000 0.000000 0.000000 0.000000 0.043979
#
#
# Mechanical properties :
#
#
# Convention : Reuss Voigt Hill
#
# Bulk Modulus (GPa) = 27.37604 43.29496 35.33550
# Shear Modulus (GPa) = 27.61795 134.60352 81.11073
#
# Velocity S-wave (km/s) = 3.81470 8.42157 6.53738
# Velocity P-wave (km/s) = 5.81610 10.83401 8.69491
#
# Compressibility (1/GPa) = 0.03652829
#
# Stress axis : x y z
#
# Youngs Moduli (GPa) = 52.59950 81.37907 35.17312
#
# Poissons Ratio (x) = 0.74905 0.17410
# Poissons Ratio (y) = 0.48415 -0.08980
# Poissons Ratio (z) = 0.26035 -0.20776
#
# Static dielectric constant tensor:
#      x y z
#    x 1.649130 0.000000 0.000000 
#    y 0.000000 1.560120 0.000000 
#    z 0.000000 0.000000 1.723610 
# 
# From -- ./inp_files/31708.got.cif
#   From: 2010.05.17/outbox.cif.g08.bks.cpg/sg22_16_cif.got.tgz:31708.got - 2010.06.03 23:40:54.
