data_PCOD9328804
_publ_section_title
;
Structure prediction by ZEFSAII (Michael W. Deem and Ramdas Pophale) SiO2 
 PCOD9328804
Probable space group: F 2 2 2
;
_chemical_formula_sum "Si O2"
_cell_formula_units_Z 88
_cell_length_a 12.514867
_cell_length_b 30.258282
_cell_length_c 11.826177
_cell_angle_alpha 90.000000
_cell_angle_beta 90.000000
_cell_angle_gamma 90.000000
_cell_volume 4478.317487
_symmetry_space_group_name_H-M "F 2 2 2"
_symmetry_group_IT_number 22
_symmetry_cell_setting 'orthorhombic'
loop_
_space_group_symop_operation_xyz
x,y,z
-x,-y,z
x,-y,-z
-x,y,-z
x,1/2+y,1/2+z
-x,1/2-y,1/2+z
x,1/2-y,1/2-z
-x,1/2+y,1/2-z
1/2+x,y,1/2+z
1/2-x,-y,1/2+z
1/2+x,-y,1/2-z
1/2-x,y,1/2-z
1/2+x,1/2+y,z
1/2-x,1/2-y,z
1/2+x,1/2-y,-z
1/2-x,1/2+y,-z
loop_
_atom_site_type_symbol
_atom_site_label
_atom_site_fract_x
_atom_site_fract_y
_atom_site_fract_z
Si Si1 0.090092 0.061365 0.278540
Si Si2 0.903316 0.625928 0.414160
Si Si3 0.180005 0.605976 0.991354
Si Si4 0.879259 0.698615 0.227643
Si Si5 0.652713 0.461774 0.326534
Si Si6 0.500000 0.832415 0.000000
O O1 0.111127 0.080036 0.154581
O O2 0.137353 0.096846 0.365404
O O3 0.963336 0.056285 0.292618
O O4 0.140739 0.014234 0.309817
O O5 0.792639 0.630120 0.482252
O O6 0.923285 0.664487 0.322122
O O7 0.000000 0.623281 0.500000
O O8 0.179079 0.558385 0.051545
O O9 0.092151 0.636290 0.052218
O O10 0.902032 0.750000 0.250000
O O11 0.750000 0.693242 0.250000
O O12 0.933782 0.690319 0.103494
O O13 0.750000 0.445766 0.250000
#
# Coordination Sequence:
#
# PCOD9328804 Si02
#       6
#    16  16  16  16  16   8
#     4  11  22  39  58  88 129 176 231 274 340 412
#     4  12  24  42  66  98 140 185 226 292 363 416
#     4  12  21  39  66  92 127 178 228 276 334 413
#     4  11  24  45  73 104 139 181 233 289 359 437
#     4  11  22  36  57  90 129 172 229 286 332 394
#     4  12  22  42  75 100 130 180 230 285 342 434
#
# _framework density 19.650238000000002
#
# number of rings (size 3 to 8) (size 9 to 14) (size 15 to 20)
#    0.000    0.545    5.455    3.273    1.273    1.455 
#    0.000    5.455    0.000    1.091    0.000    0.000 
#    0.000    0.000    0.000    0.000    0.000    0.000 
#
# Total GULP energy -122672.721225 kJ/mol
# GULP energy per Si atom -5576.032783 kJ/mol
# Density = 1.960551 g / cm^3
# Si number density = 19.650238 Si / 1000 Ang^3
#
#
#
# Elastic Constant Matrix: (Units=GPa)
#
#
# Indices 1 2 3 4 5 6 
#
# 1 142.5164 25.2449 53.0532 0.0000 0.0000 0.0000
# 2 25.2449 101.2595 49.3648 0.0000 0.0000 0.0000
# 3 53.0532 49.3648 104.5832 0.0000 0.0000 0.0000
# 4 0.0000 0.0000 0.0000 32.8107 0.0000 0.0000
# 5 0.0000 0.0000 0.0000 0.0000 34.2165 0.0000
# 6 0.0000 0.0000 0.0000 0.0000 0.0000 -26.0452
#
#
#
# Elastic Compliance Matrix: (Units=1/GPa)
#
#
# Indices 1 2 3 4 5 6 
#
# 1 0.008650 -0.000023 -0.004378 0.000000 0.000000 0.000000
# 2 -0.000023 0.012827 -0.006043 0.000000 0.000000 0.000000
# 3 -0.004378 -0.006043 0.014635 0.000000 0.000000 0.000000
# 4 0.000000 0.000000 0.000000 0.030478 0.000000 0.000000
# 5 0.000000 0.000000 0.000000 0.000000 0.029226 0.000000
# 6 0.000000 0.000000 0.000000 0.000000 0.000000 -0.038395
#
#
# Mechanical properties :
#
#
# Convention : Reuss Voigt Hill
#
# Bulk Modulus (GPa) = 65.67732 67.07609 66.37671
# Shear Modulus (GPa) = 59.96405 22.90948 41.43677
#
# Velocity S-wave (km/s) = 5.53009 3.41818 4.59706
# Velocity P-wave (km/s) = 8.61810 7.05604 7.87589
#
# Compressibility (1/GPa) = 0.01522596
#
# Stress axis : x y z
#
# Youngs Moduli (GPa) = 115.60285 77.95826 68.32969
#
# Poissons Ratio (x) = 0.00176 0.29911
# Poissons Ratio (y) = 0.00260 0.41294
# Poissons Ratio (z) = 0.50605 0.47112
#
# Static dielectric constant tensor:
#      x y z
#    x 1.691040 0.000000 0.000000 
#    y 0.000000 1.722600 0.000000 
#    z 0.000000 0.000000 1.778310 
# 
# From -- ./inp_files/18389.got.cif
#   From: 2010.05.17/outbox.cif.g08.bks.cpg/sg22_10_cif.got.tgz:18389.got - 2010.06.03 23:40:54.
