data_PCOD9328282
_publ_section_title
;
Structure prediction by ZEFSAII (Michael W. Deem and Ramdas Pophale) SiO2 
 PCOD9328282
Probable space group: F 2 2 2
;
_chemical_formula_sum "Si O2"
_cell_formula_units_Z 112
_cell_length_a 12.895073
_cell_length_b 14.177356
_cell_length_c 32.426622
_cell_angle_alpha 90.000000
_cell_angle_beta 90.000000
_cell_angle_gamma 90.000000
_cell_volume 5928.171496
_symmetry_space_group_name_H-M "F 2 2 2"
_symmetry_group_IT_number 22
_symmetry_cell_setting 'orthorhombic'
loop_
_space_group_symop_operation_xyz
x,y,z
-x,-y,z
x,-y,-z
-x,y,-z
x,1/2+y,1/2+z
-x,1/2-y,1/2+z
x,1/2-y,1/2-z
-x,1/2+y,1/2-z
1/2+x,y,1/2+z
1/2-x,-y,1/2+z
1/2+x,-y,1/2-z
1/2-x,y,1/2-z
1/2+x,1/2+y,z
1/2-x,1/2-y,z
1/2+x,1/2-y,-z
1/2-x,1/2+y,-z
loop_
_atom_site_type_symbol
_atom_site_label
_atom_site_fract_x
_atom_site_fract_y
_atom_site_fract_z
Si Si1 0.455460 0.647419 0.546759
Si Si2 0.767469 0.860973 0.899153
Si Si3 0.152690 0.313556 0.408921
Si Si4 0.756163 0.484363 0.955638
Si Si5 0.975376 0.892029 0.855790
Si Si6 0.936498 0.904867 0.635557
Si Si7 0.875630 0.250865 0.298728
O O1 0.500000 0.649563 0.500000
O O2 0.401624 0.747937 0.556571
O O3 0.369180 0.564411 0.544777
O O4 0.521207 0.629831 0.589935
O O5 0.750000 0.750000 0.896894
O O6 0.886137 0.881072 0.890097
O O7 0.687544 0.917589 0.869889
O O8 0.737212 0.907879 0.941566
O O9 0.250000 0.250000 0.394973
O O10 0.189806 0.413201 0.427634
O O11 0.074627 0.335833 0.372062
O O12 0.708602 0.500000 0.000000
O O13 0.922659 0.846907 0.816146
O O14 0.000000 0.000000 0.849737
O O15 0.933655 0.828319 0.672831
O O16 0.000000 0.000000 0.644910
O O17 0.893178 0.250000 0.250000
O O18 0.750000 0.250000 0.305472
#
# Coordination Sequence:
#
# PCOD9328282 Si02
#       7
#    16  16  16  16  16  16  16
#     4  11  23  39  63  94 131 176 227 282 331 396
#     4  12  22  39  63  96 125 177 226 264 329 400
#     4  10  23  42  60  91 127 181 221 275 337 393
#     4  11  24  38  58  92 131 171 229 285 333 384
#     4  12  22  41  69  93 127 174 216 268 338 404
#     4  12  22  38  69  99 129 171 221 273 336 395
#     4  11  24  46  72 103 135 166 217 279 342 417
#
# _framework density 18.89284
#
# number of rings (size 3 to 8) (size 9 to 14) (size 15 to 20)
#    0.000    0.714    7.143    0.857    0.000    4.571 
#    0.000    1.429    0.000    0.429    0.000    0.000 
#    0.000    0.000    0.000    0.000    0.000    0.000 
#
# Total GULP energy -155988.735591 kJ/mol
# GULP energy per Si atom -5571.026271 kJ/mol
# Density = 1.884984 g / cm^3
# Si number density = 18.892840 Si / 1000 Ang^3
#
#
#
# Elastic Constant Matrix: (Units=GPa)
#
#
# Indices 1 2 3 4 5 6 
#
# 1 102.9125 53.4868 40.8726 0.0000 0.0000 0.0000
# 2 53.4868 121.7230 51.0610 0.0000 0.0000 0.0000
# 3 40.8726 51.0610 108.1324 0.0000 0.0000 0.0000
# 4 0.0000 0.0000 0.0000 -3.5934 0.0000 0.0000
# 5 0.0000 0.0000 0.0000 0.0000 33.0616 0.0000
# 6 0.0000 0.0000 0.0000 0.0000 0.0000 24.5736
#
#
#
# Elastic Compliance Matrix: (Units=1/GPa)
#
#
# Indices 1 2 3 4 5 6 
#
# 1 0.013247 -0.004639 -0.002816 0.000000 0.000000 0.000000
# 2 -0.004639 0.011870 -0.003851 0.000000 0.000000 0.000000
# 3 -0.002816 -0.003851 0.012131 0.000000 0.000000 0.000000
# 4 0.000000 0.000000 0.000000 -0.278288 0.000000 0.000000
# 5 0.000000 0.000000 0.000000 0.000000 0.030247 0.000000
# 6 0.000000 0.000000 0.000000 0.000000 0.000000 0.040694
#
#
# Mechanical properties :
#
#
# Convention : Reuss Voigt Hill
#
# Bulk Modulus (GPa) = 68.33699 69.28984 68.81342
# Shear Modulus (GPa) = -35.06109 23.29820 -5.88145
#
# Velocity S-wave (km/s) = -4.31256 3.51547 -1.76630
# Velocity P-wave (km/s) = 3.38405 7.29608 5.68703
#
# Compressibility (1/GPa) = 0.01463336
#
# Stress axis : x y z
#
# Youngs Moduli (GPa) = 75.49018 84.24925 82.43301
#
# Poissons Ratio (x) = 0.39087 0.23216
# Poissons Ratio (y) = 0.35023 0.31747
# Poissons Ratio (z) = 0.21261 0.32447
#
# Static dielectric constant tensor:
#      x y z
#    x 1.712530 0.000000 0.000000 
#    y 0.000000 1.693520 0.000000 
#    z 0.000000 0.000000 1.673280 
# 
# From -- ./inp_files/56104.got.cif
#   From: 2010.05.17/outbox.cif.g08.bks.cpg/sg22_29_cif.got.tgz:56104.got - 2010.06.03 23:40:54.
