data_PCOD9328153
_publ_section_title
;
Structure prediction by ZEFSAII (Michael W. Deem and Ramdas Pophale) SiO2 
 PCOD9328153
Probable space group: F 2 2 2
;
_chemical_formula_sum "Si O2"
_cell_formula_units_Z 88
_cell_length_a 17.924339
_cell_length_b 8.680322
_cell_length_c 26.750347
_cell_angle_alpha 90.000000
_cell_angle_beta 90.000000
_cell_angle_gamma 90.000000
_cell_volume 4162.060653
_symmetry_space_group_name_H-M "F 2 2 2"
_symmetry_group_IT_number 22
_symmetry_cell_setting 'orthorhombic'
loop_
_space_group_symop_operation_xyz
x,y,z
-x,-y,z
x,-y,-z
-x,y,-z
x,1/2+y,1/2+z
-x,1/2-y,1/2+z
x,1/2-y,1/2-z
-x,1/2+y,1/2-z
1/2+x,y,1/2+z
1/2-x,-y,1/2+z
1/2+x,-y,1/2-z
1/2-x,y,1/2-z
1/2+x,1/2+y,z
1/2-x,1/2-y,z
1/2+x,1/2-y,-z
1/2-x,1/2+y,-z
loop_
_atom_site_type_symbol
_atom_site_label
_atom_site_fract_x
_atom_site_fract_y
_atom_site_fract_z
Si Si1 0.446691 0.360153 0.846900
Si Si2 0.198884 0.454277 0.342977
Si Si3 0.575881 0.563688 0.589418
Si Si4 0.965112 0.250000 0.750000
Si Si5 0.643403 0.390435 0.683150
Si Si6 0.738286 0.933118 0.947502
O O1 0.500000 0.500000 0.863545
O O2 0.365290 0.423256 0.833170
O O3 0.437240 0.235703 0.890448
O O4 0.486219 0.291087 0.797870
O O5 0.276162 0.470803 0.312469
O O6 0.164998 0.284784 0.332752
O O7 0.224159 0.479258 0.400659
O O8 0.500000 0.500000 0.566714
O O9 0.595621 0.466856 0.639482
O O10 0.649328 0.546213 0.556715
O O11 0.908265 0.383416 0.768216
O O12 0.750000 0.750000 0.942942
O O13 0.765864 0.000000 0.000000
#
# Coordination Sequence:
#
# PCOD9328153 Si02
#       6
#    16  16  16   8  16  16
#     4  12  24  41  65  93 135 182 222 277 329 400
#     4  10  22  45  64  93 133 179 212 267 352 392
#     4  11  22  42  68  97 135 174 216 272 350 396
#     4  12  24  39  66 103 130 178 238 278 317 386
#     4  10  23  38  66  95 132 179 221 278 323 397
#     4  11  25  43  73  99 130 169 223 278 331 414
#
# _framework density 21.143373
#
# number of rings (size 3 to 8) (size 9 to 14) (size 15 to 20)
#    0.000    1.091    5.455    0.000    7.636    1.818 
#    0.000    0.000    8.000    0.545    0.000    0.000 
#    0.000    0.000    0.000    0.000    0.000    0.000 
#
# Total GULP energy -123008.898266 kJ/mol
# GULP energy per Si atom -5591.313558 kJ/mol
# Density = 2.109525 g / cm^3
# Si number density = 21.143373 Si / 1000 Ang^3
#
#
#
# Elastic Constant Matrix: (Units=GPa)
#
#
# Indices 1 2 3 4 5 6 
#
# 1 142.0545 14.3327 23.1365 0.0000 0.0000 0.0000
# 2 14.3327 47.1318 7.3450 0.0000 0.0000 0.0000
# 3 23.1365 7.3450 80.8309 0.0000 0.0000 0.0000
# 4 0.0000 0.0000 0.0000 10.7812 0.0000 0.0000
# 5 0.0000 0.0000 0.0000 0.0000 57.4017 0.0000
# 6 0.0000 0.0000 0.0000 0.0000 0.0000 36.4495
#
#
#
# Elastic Compliance Matrix: (Units=1/GPa)
#
#
# Indices 1 2 3 4 5 6 
#
# 1 0.007564 -0.001991 -0.001984 0.000000 0.000000 0.000000
# 2 -0.001991 0.022046 -0.001433 0.000000 0.000000 0.000000
# 3 -0.001984 -0.001433 0.013070 0.000000 0.000000 0.000000
# 4 0.000000 0.000000 0.000000 0.092754 0.000000 0.000000
# 5 0.000000 0.000000 0.000000 0.000000 0.017421 0.000000
# 6 0.000000 0.000000 0.000000 0.000000 0.000000 0.027435
#
#
# Mechanical properties :
#
#
# Convention : Reuss Voigt Hill
#
# Bulk Modulus (GPa) = 31.38492 39.96063 35.67278
# Shear Modulus (GPa) = 24.78597 35.94002 30.36300
#
# Velocity S-wave (km/s) = 3.42757 4.12737 3.79364
# Velocity P-wave (km/s) = 5.52634 6.45402 6.00811
#
# Compressibility (1/GPa) = 0.03186243
#
# Stress axis : x y z
#
# Youngs Moduli (GPa) = 132.21285 45.35995 76.51315
#
# Poissons Ratio (x) = 0.09031 0.15180
# Poissons Ratio (y) = 0.26322 0.10968
# Poissons Ratio (z) = 0.26231 0.06502
#
# Static dielectric constant tensor:
#      x y z
#    x 1.776390 0.000000 0.000000 
#    y 0.000000 -0.048790 0.000000 
#    z 0.000000 0.000000 1.729850 
# 
# From -- ./inp_files/40335.got.cif
#   From: 2010.05.17/outbox.cif.g08.bks.cpg/sg22_21_cif.got.tgz:40335.got - 2010.06.03 23:40:54.
