data_PCOD9328581
_publ_section_title
;
Structure prediction by ZEFSAII (Michael W. Deem and Ramdas Pophale) SiO2 
 PCOD9328581
Probable space group: F 2 2 2
;
_chemical_formula_sum "Si O2"
_cell_formula_units_Z 88
_cell_length_a 23.979881
_cell_length_b 20.020050
_cell_length_c 8.447033
_cell_angle_alpha 90.000000
_cell_angle_beta 90.000000
_cell_angle_gamma 90.000000
_cell_volume 4055.238228
_symmetry_space_group_name_H-M "F 2 2 2"
_symmetry_group_IT_number 22
_symmetry_cell_setting 'orthorhombic'
loop_
_space_group_symop_operation_xyz
x,y,z
-x,-y,z
x,-y,-z
-x,y,-z
x,1/2+y,1/2+z
-x,1/2-y,1/2+z
x,1/2-y,1/2-z
-x,1/2+y,1/2-z
1/2+x,y,1/2+z
1/2-x,-y,1/2+z
1/2+x,-y,1/2-z
1/2-x,y,1/2-z
1/2+x,1/2+y,z
1/2-x,1/2-y,z
1/2+x,1/2-y,-z
1/2-x,1/2+y,-z
loop_
_atom_site_type_symbol
_atom_site_label
_atom_site_fract_x
_atom_site_fract_y
_atom_site_fract_z
Si Si1 0.891851 0.537634 0.661351
Si Si2 0.250000 0.750000 0.448913
Si Si3 0.303563 0.130752 0.136290
Si Si4 0.358089 0.189302 0.647670
Si Si5 0.500000 0.587147 0.000000
Si Si6 0.086100 0.679793 0.682710
Si Si7 0.847863 0.500000 0.000000
O O1 0.868285 0.500000 0.500000
O O2 0.869242 0.612694 0.686292
O O3 0.955859 0.549083 0.611238
O O4 0.881397 0.504249 0.832292
O O5 0.287189 0.699469 0.551143
O O6 0.292695 0.798052 0.360251
O O7 0.250000 0.116912 0.250000
O O8 0.364238 0.145205 0.216018
O O9 0.311652 0.067231 0.022308
O O10 0.382486 0.250000 0.750000
O O11 0.382334 0.199242 0.475864
O O12 0.537511 0.630714 0.122197
O O13 0.064307 0.750000 0.750000
#
# Coordination Sequence:
#
# PCOD9328581 Si02
#       7
#    16   8  16  16   8  16   8
#     4  11  26  51  74 105 154 199 248 322 388 464
#     4  12  22  42  72 104 146 196 236 296 384 454
#     4  12  24  45  72 110 151 200 246 304 382 464
#     4  11  23  40  71 106 145 183 247 299 365 458
#     4  10  25  46  76 102 144 195 248 314 388 445
#     4  11  22  45  73 103 146 188 238 312 385 446
#     4  12  28  46  79 112 150 197 270 306 374 470
#
# _framework density 21.700329
#
# number of rings (size 3 to 8) (size 9 to 14) (size 15 to 20)
#    0.000    0.727    3.636    4.091    0.000    4.364 
#    0.000    6.364    0.000    0.000    0.000    0.000 
#    0.000    0.000    0.000    0.000    0.000    0.000 
#
# Total GULP energy -122666.723482 kJ/mol
# GULP energy per Si atom -5575.760158 kJ/mol
# Density = 2.165094 g / cm^3
# Si number density = 21.700329 Si / 1000 Ang^3
#
#
#
# Elastic Constant Matrix: (Units=GPa)
#
#
# Indices 1 2 3 4 5 6 
#
# 1 107.7322 57.0169 26.3719 0.0000 0.0000 0.0000
# 2 57.0169 166.0953 65.6876 0.0000 0.0000 0.0000
# 3 26.3719 65.6876 92.5547 0.0001 -0.0001 0.0000
# 4 0.0000 0.0000 0.0001 37.8779 0.0000 0.0000
# 5 0.0000 0.0000 -0.0001 0.0000 32.8211 -0.0001
# 6 0.0000 0.0000 0.0000 0.0000 -0.0001 49.0619
#
#
#
# Elastic Compliance Matrix: (Units=1/GPa)
#
#
# Indices 1 2 3 4 5 6 
#
# 1 0.011371 -0.003645 -0.000653 0.000000 0.000000 0.000000
# 2 -0.003645 0.009538 -0.005731 0.000000 0.000000 0.000000
# 3 -0.000653 -0.005731 0.015058 0.000000 0.000000 0.000000
# 4 0.000000 0.000000 0.000000 0.026401 0.000000 0.000000
# 5 0.000000 0.000000 0.000000 0.000000 0.030468 0.000000
# 6 0.000000 0.000000 0.000000 0.000000 0.000000 0.020382
#
#
# Mechanical properties :
#
#
# Convention : Reuss Voigt Hill
#
# Bulk Modulus (GPa) = 62.85649 73.83723 68.34686
# Shear Modulus (GPa) = 36.08016 38.43925 37.25971
#
# Velocity S-wave (km/s) = 4.08199 4.21333 4.14818
# Velocity P-wave (km/s) = 7.15859 7.60061 7.38291
#
# Compressibility (1/GPa) = 0.01590926
#
# Stress axis : x y z
#
# Youngs Moduli (GPa) = 87.94005 104.83857 66.41077
#
# Poissons Ratio (x) = 0.38217 0.04336
# Poissons Ratio (y) = 0.32057 0.38060
# Poissons Ratio (z) = 0.05742 0.60082
#
# Static dielectric constant tensor:
#      x y z
#    x 1.820940 0.000000 0.000000 
#    y 0.000000 0.658730 0.000000 
#    z 0.000000 0.000000 1.867350 
# 
# From -- ./inp_files/13789.got.cif
#   From: 2010.05.17/outbox.cif.g08.bks.cpg/sg22_7_cif.got.tgz:13789.got - 2010.06.03 23:40:54.
