data_PCOD9328586
_publ_section_title
;
Structure prediction by ZEFSAII (Michael W. Deem and Ramdas Pophale) SiO2 
 PCOD9328586
Probable space group: F 2 2 2
;
_chemical_formula_sum "Si O2"
_cell_formula_units_Z 64
_cell_length_a 7.720936
_cell_length_b 20.668775
_cell_length_c 17.513371
_cell_angle_alpha 90.000000
_cell_angle_beta 90.000000
_cell_angle_gamma 90.000000
_cell_volume 2794.823832
_symmetry_space_group_name_H-M "F 2 2 2"
_symmetry_group_IT_number 22
_symmetry_cell_setting 'orthorhombic'
loop_
_space_group_symop_operation_xyz
x,y,z
-x,-y,z
x,-y,-z
-x,y,-z
x,1/2+y,1/2+z
-x,1/2-y,1/2+z
x,1/2-y,1/2-z
-x,1/2+y,1/2-z
1/2+x,y,1/2+z
1/2-x,-y,1/2+z
1/2+x,-y,1/2-z
1/2-x,y,1/2-z
1/2+x,1/2+y,z
1/2-x,1/2-y,z
1/2+x,1/2-y,-z
1/2-x,1/2+y,-z
loop_
_atom_site_type_symbol
_atom_site_label
_atom_site_fract_x
_atom_site_fract_y
_atom_site_fract_z
Si Si1 0.793309 0.570487 0.520298
Si Si2 0.638868 0.187312 0.565733
Si Si3 0.369507 0.058072 0.818316
Si Si4 0.045948 0.322597 0.267556
O O1 0.724019 0.500000 0.500000
O O2 0.738488 0.630373 0.467238
O O3 0.740034 0.578056 0.607697
O O4 0.000000 0.568969 0.500000
O O5 0.500000 0.203614 0.500000
O O6 0.750000 0.250000 0.585043
O O7 0.539338 0.165820 0.641762
O O8 0.250000 0.031345 0.750000
O O9 0.457317 0.121912 0.782244
O O10 0.500000 0.000000 0.837886
O O11 0.980204 0.250000 0.250000
O O12 0.250000 0.324124 0.250000
#
# Coordination Sequence:
#
# PCOD9328586 Si02
#       4
#    16  16  16  16
#     4  10  25  47  73 102 147 189 244 307 368 428
#     4  11  24  44  73 100 143 189 235 297 365 426
#     4  12  28  46  77 110 147 196 250 302 371 441
#     4  11  25  49  73 108 150 195 244 305 364 440
#
# _framework density 22.899474000000001
#
# number of rings (size 3 to 8) (size 9 to 14) (size 15 to 20)
#    0.000    1.000    2.500    3.750   14.000    1.000 
#    0.000    0.000    0.000    0.000    0.000    0.000 
#    0.000    0.000    0.000    0.000    0.000    0.000 
#
# Total GULP energy -89469.683815 kJ/mol
# GULP energy per Si atom -5591.855238 kJ/mol
# Density = 2.284735 g / cm^3
# Si number density = 22.899474 Si / 1000 Ang^3
#
#
#
# Elastic Constant Matrix: (Units=GPa)
#
#
# Indices 1 2 3 4 5 6 
#
# 1 79.6425 50.3526 58.7709 0.0000 0.0000 0.0000
# 2 50.3526 172.8295 73.4312 0.0000 0.0000 0.0000
# 3 58.7709 73.4312 223.8306 0.0000 0.0000 0.0000
# 4 0.0000 0.0000 0.0000 47.5262 0.0000 0.0000
# 5 0.0000 0.0000 0.0000 0.0000 22.7908 0.0000
# 6 0.0000 0.0000 0.0000 0.0000 0.0000 31.5532
#
#
#
# Elastic Compliance Matrix: (Units=1/GPa)
#
#
# Indices 1 2 3 4 5 6 
#
# 1 0.017325 -0.003619 -0.003362 0.000000 0.000000 0.000000
# 2 -0.003619 0.007479 -0.001503 0.000000 0.000000 0.000000
# 3 -0.003362 -0.001503 0.005844 0.000000 0.000000 0.000000
# 4 0.000000 0.000000 0.000000 0.021041 0.000000 0.000000
# 5 0.000000 0.000000 0.000000 0.000000 0.043877 0.000000
# 6 0.000000 0.000000 0.000000 0.000000 0.000000 0.031693
#
#
# Mechanical properties :
#
#
# Convention : Reuss Voigt Hill
#
# Bulk Modulus (GPa) = 73.10355 93.49024 83.29690
# Shear Modulus (GPa) = 33.60512 39.95723 36.78118
#
# Velocity S-wave (km/s) = 3.83496 4.18173 4.01209
# Velocity P-wave (km/s) = 7.18347 8.01441 7.61029
#
# Compressibility (1/GPa) = 0.01367923
#
# Stress axis : x y z
#
# Youngs Moduli (GPa) = 57.72018 133.70343 171.12917
#
# Poissons Ratio (x) = 0.48390 0.57528
# Poissons Ratio (y) = 0.20890 0.25727
# Poissons Ratio (z) = 0.19403 0.20101
#
# Static dielectric constant tensor:
#      x y z
#    x 1.908840 0.000000 0.000000 
#    y 0.000000 1.892940 0.000000 
#    z 0.000000 0.000000 1.858200 
# 
# From -- ./inp_files/34791.got.cif
#   From: 2010.05.17/outbox.cif.g08.bks.cpg/sg22_18_cif.got.tgz:34791.got - 2010.06.03 23:40:54.
