data_PCOD9328530
_publ_section_title
;
Structure prediction by ZEFSAII (Michael W. Deem and Ramdas Pophale) SiO2 
 PCOD9328530
Probable space group: F 2 2 2
;
_chemical_formula_sum "Si O2"
_cell_formula_units_Z 68
_cell_length_a 10.760967
_cell_length_b 14.002307
_cell_length_c 20.907024
_cell_angle_alpha 90.000000
_cell_angle_beta 90.000000
_cell_angle_gamma 90.000000
_cell_volume 3150.236163
_symmetry_space_group_name_H-M "F 2 2 2"
_symmetry_group_IT_number 22
_symmetry_cell_setting 'orthorhombic'
loop_
_space_group_symop_operation_xyz
x,y,z
-x,-y,z
x,-y,-z
-x,y,-z
x,1/2+y,1/2+z
-x,1/2-y,1/2+z
x,1/2-y,1/2-z
-x,1/2+y,1/2-z
1/2+x,y,1/2+z
1/2-x,-y,1/2+z
1/2+x,-y,1/2-z
1/2-x,y,1/2-z
1/2+x,1/2+y,z
1/2-x,1/2-y,z
1/2+x,1/2-y,-z
1/2-x,1/2+y,-z
loop_
_atom_site_type_symbol
_atom_site_label
_atom_site_fract_x
_atom_site_fract_y
_atom_site_fract_z
Si Si1 0.214874 0.861658 0.178041
Si Si2 0.381953 0.801906 0.953719
Si Si3 0.571235 0.651980 0.153319
Si Si4 0.750000 0.750000 0.250000
Si Si5 0.762648 0.986156 0.073532
O O1 0.250000 0.894698 0.250000
O O2 0.250000 0.750000 0.172118
O O3 0.066649 0.868638 0.174496
O O4 0.267624 0.922187 0.117587
O O5 0.250000 0.750000 0.975352
O O6 0.424068 0.744293 0.891817
O O7 0.348033 0.909695 0.934543
O O8 0.500000 0.797755 0.000000
O O9 0.662531 0.680281 0.209847
O O10 0.629623 0.567622 0.111975
O O11 0.803671 0.000000 0.000000
#
# Coordination Sequence:
#
# PCOD9328530 Si02
#       5
#    16  16  16   4  16
#     4  11  27  49  70 107 149 201 249 308 378 436
#     4  10  24  47  75 114 148 198 243 308 381 443
#     4  11  25  45  78 102 144 199 243 310 373 450
#     4  12  20  48  74 104 138 184 270 286 380 444
#     4  11  26  47  72 115 143 191 249 306 376 448
#
# _framework density 21.585684000000001
#
# number of rings (size 3 to 8) (size 9 to 14) (size 15 to 20)
#    0.000    1.176    3.529    2.118   11.529    1.412 
#    0.000    0.000    0.000    0.000    0.000    0.000 
#    0.000    0.000    0.000    0.000    0.000    0.000 
#
# Total GULP energy -95004.466959 kJ/mol
# GULP energy per Si atom -5588.498056 kJ/mol
# Density = 2.153655 g / cm^3
# Si number density = 21.585684 Si / 1000 Ang^3
#
#
#
# Elastic Constant Matrix: (Units=GPa)
#
#
# Indices 1 2 3 4 5 6 
#
# 1 131.2249 30.6338 80.2397 0.0000 0.0000 0.0000
# 2 30.6338 98.1728 82.5004 0.0000 0.0000 0.0000
# 3 80.2397 82.5004 177.0686 0.0000 0.0000 0.0000
# 4 0.0000 0.0000 0.0000 62.2408 0.0000 0.0000
# 5 0.0000 0.0000 0.0000 0.0000 70.8967 0.0000
# 6 0.0000 0.0000 0.0000 0.0000 0.0000 17.7237
#
#
#
# Elastic Compliance Matrix: (Units=1/GPa)
#
#
# Indices 1 2 3 4 5 6 
#
# 1 0.010627 0.001201 -0.005375 0.000000 0.000000 0.000000
# 2 0.001201 0.016877 -0.008408 0.000000 0.000000 0.000000
# 3 -0.005375 -0.008408 0.012001 0.000000 0.000000 0.000000
# 4 0.000000 0.000000 0.000000 0.016067 0.000000 0.000000
# 5 0.000000 0.000000 0.000000 0.000000 0.014105 0.000000
# 6 0.000000 0.000000 0.000000 0.000000 0.000000 0.056422
#
#
# Mechanical properties :
#
#
# Convention : Reuss Voigt Hill
#
# Bulk Modulus (GPa) = 69.73079 88.13491 78.93285
# Shear Modulus (GPa) = 32.04282 44.37839 38.21061
#
# Velocity S-wave (km/s) = 3.85703 4.53914 4.21192
# Velocity P-wave (km/s) = 7.22564 8.26986 7.76533
#
# Compressibility (1/GPa) = 0.01434087
#
# Stress axis : x y z
#
# Youngs Moduli (GPa) = 94.10061 59.25339 83.32882
#
# Poissons Ratio (x) = -0.07117 0.44792
# Poissons Ratio (y) = -0.11303 0.70059
# Poissons Ratio (z) = 0.50582 0.49818
#
# Static dielectric constant tensor:
#      x y z
#    x 1.678550 0.000000 0.000000 
#    y 0.000000 1.817230 0.000000 
#    z 0.000000 0.000000 1.799150 
# 
# From -- ./inp_files/42483.got.cif
#   From: 2010.05.17/outbox.cif.g08.bks.cpg/sg22_22_cif.got.tgz:42483.got - 2010.06.03 23:40:54.
