data_PCOD9328081
_publ_section_title
;
Structure prediction by ZEFSAII (Michael W. Deem and Ramdas Pophale) SiO2 
 PCOD9328081
Probable space group: F 2 2 2
;
_chemical_formula_sum "Si O2"
_cell_formula_units_Z 108
_cell_length_a 12.014736
_cell_length_b 14.650700
_cell_length_c 29.215921
_cell_angle_alpha 90.000000
_cell_angle_beta 90.000000
_cell_angle_gamma 90.000000
_cell_volume 5142.711830
_symmetry_space_group_name_H-M "F 2 2 2"
_symmetry_group_IT_number 22
_symmetry_cell_setting 'orthorhombic'
loop_
_space_group_symop_operation_xyz
x,y,z
-x,-y,z
x,-y,-z
-x,y,-z
x,1/2+y,1/2+z
-x,1/2-y,1/2+z
x,1/2-y,1/2-z
-x,1/2+y,1/2-z
1/2+x,y,1/2+z
1/2-x,-y,1/2+z
1/2+x,-y,1/2-z
1/2-x,y,1/2-z
1/2+x,1/2+y,z
1/2-x,1/2-y,z
1/2+x,1/2-y,-z
1/2-x,1/2+y,-z
loop_
_atom_site_type_symbol
_atom_site_label
_atom_site_fract_x
_atom_site_fract_y
_atom_site_fract_z
Si Si1 0.750000 0.250000 0.250000
Si Si2 0.920342 0.385303 0.284601
Si Si3 0.944332 0.402198 0.952565
Si Si4 0.809241 0.943447 0.043106
Si Si5 0.250000 0.015485 0.250000
Si Si6 0.101038 0.933627 0.111747
Si Si7 0.558146 0.710253 0.092117
Si Si8 0.664486 0.668216 0.191580
O O1 0.834288 0.303172 0.282420
O O2 0.862354 0.454177 0.248447
O O3 0.903203 0.432166 0.333753
O O4 0.047056 0.349736 0.281125
O O5 0.816648 0.416825 0.965398
O O6 0.947229 0.317403 0.917420
O O7 0.000000 0.500000 0.938996
O O8 0.000000 0.371959 0.000000
O O9 0.876289 0.851054 0.054941
O O10 0.801991 0.014813 0.085920
O O11 0.855448 0.000000 0.000000
O O12 0.264154 0.079909 0.294108
O O13 0.065042 0.833492 0.095867
O O14 0.000000 0.000000 0.096963
O O15 0.621176 0.684795 0.139889
O O16 0.750000 0.750000 0.201723
#
# Coordination Sequence:
#
# PCOD9328081 Si02
#       8
#     4  16  16  16   8  16  16  16
#     4  10  24  40  64  84 142 176 218 282 356 418
#     4  10  22  43  62  97 137 176 223 287 355 426
#     4  11  23  43  59  91 136 180 229 283 351 414
#     4  11  21  38  63  98 126 170 224 288 332 424
#     4  11  21  37  71  98 132 178 223 289 355 419
#     4   9  20  40  66  95 129 167 224 284 344 415
#     4  10  23  42  70  93 137 178 227 291 352 418
#     4  11  23  42  70 105 132 181 237 291 352 434
#
# _framework density 21.000594
#
# number of rings (size 3 to 8) (size 9 to 14) (size 15 to 20)
#    0.000    1.630    1.481    4.667    4.148    2.074 
#    5.333    0.000    0.000    0.000    0.000    0.000 
#    0.000    0.000    0.000    0.000    0.000    0.000 
#
# Total GULP energy -150351.988939 kJ/mol
# GULP energy per Si atom -5568.592183 kJ/mol
# Density = 2.095280 g / cm^3
# Si number density = 21.000594 Si / 1000 Ang^3
#
#
#
# Elastic Constant Matrix: (Units=GPa)
#
#
# Indices 1 2 3 4 5 6 
#
# 1 112.1323 40.8382 28.5476 0.0000 0.0000 0.0000
# 2 40.8382 130.7471 38.7048 0.0000 0.0000 0.0000
# 3 28.5476 38.7048 61.8409 0.0000 0.0000 0.0000
# 4 0.0000 0.0000 0.0000 18.6584 0.0000 0.0000
# 5 0.0000 0.0000 0.0000 0.0000 29.9157 0.0000
# 6 0.0000 0.0000 0.0000 0.0000 0.0000 14.1811
#
#
#
# Elastic Compliance Matrix: (Units=1/GPa)
#
#
# Indices 1 2 3 4 5 6 
#
# 1 0.010638 -0.002294 -0.003475 0.000000 0.000000 0.000000
# 2 -0.002294 0.009882 -0.005126 0.000000 0.000000 0.000000
# 3 -0.003475 -0.005126 0.020983 0.000000 0.000000 0.000000
# 4 0.000000 0.000000 0.000000 0.053595 0.000000 0.000000
# 5 0.000000 0.000000 0.000000 0.000000 0.033427 0.000000
# 6 0.000000 0.000000 0.000000 0.000000 0.000000 0.070517
#
#
# Mechanical properties :
#
#
# Convention : Reuss Voigt Hill
#
# Bulk Modulus (GPa) = 50.72787 57.87794 54.30291
# Shear Modulus (GPa) = 21.98728 25.65969 23.82349
#
# Velocity S-wave (km/s) = 3.23922 3.49930 3.37177
# Velocity P-wave (km/s) = 6.18045 6.62923 6.40877
#
# Compressibility (1/GPa) = 0.01971303
#
# Stress axis : x y z
#
# Youngs Moduli (GPa) = 94.00032 101.19022 47.65744
#
# Poissons Ratio (x) = 0.23214 0.16562
# Poissons Ratio (y) = 0.21564 0.24430
# Poissons Ratio (z) = 0.32666 0.51872
#
# Static dielectric constant tensor:
#      x y z
#    x 1.814510 0.000000 0.000000 
#    y 0.000000 1.847570 0.000000 
#    z 0.000000 0.000000 1.845040 
# 
# From -- ./inp_files/56121.got.cif
#   From: 2010.05.17/outbox.cif.g08.bks.cpg/sg22_29_cif.got.tgz:56121.got - 2010.06.03 23:40:54.
