data_PCOD9328922
_publ_section_title
;
Structure prediction by ZEFSAII (Michael W. Deem and Ramdas Pophale) SiO2 
 PCOD9328922
Probable space group: F 2 2 2
;
_chemical_formula_sum "Si O2"
_cell_formula_units_Z 120
_cell_length_a 12.683459
_cell_length_b 15.375454
_cell_length_c 30.881460
_cell_angle_alpha 90.000000
_cell_angle_beta 90.000000
_cell_angle_gamma 90.000000
_cell_volume 6022.315200
_symmetry_space_group_name_H-M "F 2 2 2"
_symmetry_group_IT_number 22
_symmetry_cell_setting 'orthorhombic'
loop_
_space_group_symop_operation_xyz
x,y,z
-x,-y,z
x,-y,-z
-x,y,-z
x,1/2+y,1/2+z
-x,1/2-y,1/2+z
x,1/2-y,1/2-z
-x,1/2+y,1/2-z
1/2+x,y,1/2+z
1/2-x,-y,1/2+z
1/2+x,-y,1/2-z
1/2-x,y,1/2-z
1/2+x,1/2+y,z
1/2-x,1/2-y,z
1/2+x,1/2-y,-z
1/2-x,1/2+y,-z
loop_
_atom_site_type_symbol
_atom_site_label
_atom_site_fract_x
_atom_site_fract_y
_atom_site_fract_z
Si Si1 0.787369 0.500000 0.500000
Si Si2 0.866717 0.215557 0.572546
Si Si3 0.331352 0.091309 0.850872
Si Si4 0.383217 0.485996 0.432386
Si Si5 0.911288 0.429497 0.331195
Si Si6 0.623372 0.349716 0.257368
Si Si7 0.579934 0.237728 0.390542
Si Si8 0.643860 0.691171 0.987326
O O1 0.708739 0.472769 0.460949
O O2 0.850963 0.409770 0.503196
O O3 0.750000 0.250000 0.584221
O O4 0.855837 0.114243 0.564864
O O5 0.908203 0.261093 0.528600
O O6 0.961044 0.225808 0.606342
O O7 0.213339 0.054960 0.841216
O O8 0.388623 0.111829 0.805424
O O9 0.341727 0.184399 0.875940
O O10 0.381176 0.023889 0.884265
O O11 0.500000 0.500000 0.450151
O O12 0.922247 0.410007 0.280225
O O13 0.925109 0.339083 0.356211
O O14 0.000000 0.500000 0.344475
O O15 0.586307 0.250000 0.250000
O O16 0.750000 0.346721 0.250000
O O17 0.608718 0.198978 0.437598
O O18 0.750000 0.750000 0.987012
#
# Coordination Sequence:
#
# PCOD9328922 Si02
#       8
#     8  16  16  16  16  16  16  16
#     4  12  23  40  63  90 134 174 221 280 345 394
#     4  11  25  44  60  88 135 178 217 285 341 389
#     4  11  23  41  68  97 128 168 227 274 329 409
#     4  12  24  39  63  96 124 172 231 280 327 399
#     4  11  24  39  64 101 134 167 209 277 341 404
#     4   9  18  39  65  91 125 164 208 272 335 390
#     4  12  23  40  67  94 125 172 228 276 333 403
#     4  11  23  41  64  90 130 174 218 279 336 397
#
# _framework density 19.925892000000001
#
# number of rings (size 3 to 8) (size 9 to 14) (size 15 to 20)
#    0.000    0.933    5.333    3.400    1.867    2.667 
#    0.000    0.667    0.000    0.000    0.000    0.933 
#    0.000    0.000    0.000    0.000    0.000    0.000 
#
# Total GULP energy -167194.142677 kJ/mol
# GULP energy per Si atom -5573.138089 kJ/mol
# Density = 1.988054 g / cm^3
# Si number density = 19.925892 Si / 1000 Ang^3
#
#
#
# Elastic Constant Matrix: (Units=GPa)
#
#
# Indices 1 2 3 4 5 6 
#
# 1 63.2170 25.1246 15.5797 0.0000 0.0000 0.0000
# 2 25.1246 115.7970 28.9189 0.0000 0.0000 0.0000
# 3 15.5797 28.9189 116.2736 0.0000 0.0000 0.0000
# 4 0.0000 0.0000 0.0000 29.1149 0.0000 0.0000
# 5 0.0000 0.0000 0.0000 0.0000 59.3990 0.0000
# 6 0.0000 0.0000 0.0000 0.0000 0.0000 13.3694
#
#
#
# Elastic Compliance Matrix: (Units=1/GPa)
#
#
# Indices 1 2 3 4 5 6 
#
# 1 0.017553 -0.003434 -0.001498 0.000000 0.000000 0.000000
# 2 -0.003434 0.009880 -0.001997 0.000000 0.000000 0.000000
# 3 -0.001498 -0.001997 0.009298 0.000000 0.000000 0.000000
# 4 0.000000 0.000000 0.000000 0.034347 0.000000 0.000000
# 5 0.000000 0.000000 0.000000 0.000000 0.016835 0.000000
# 6 0.000000 0.000000 0.000000 0.000000 0.000000 0.074798
#
#
# Mechanical properties :
#
#
# Convention : Reuss Voigt Hill
#
# Bulk Modulus (GPa) = 43.72199 48.28155 46.00177
# Shear Modulus (GPa) = 27.14560 35.42096 31.28328
#
# Velocity S-wave (km/s) = 3.69498 4.22077 3.96660
# Velocity P-wave (km/s) = 6.33985 6.93083 6.64192
#
# Compressibility (1/GPa) = 0.02287179
#
# Stress axis : x y z
#
# Youngs Moduli (GPa) = 56.97176 101.21775 107.55261
#
# Poissons Ratio (x) = 0.34762 0.16108
# Poissons Ratio (y) = 0.19566 0.21479
# Poissons Ratio (z) = 0.08533 0.20214
#
# Static dielectric constant tensor:
#      x y z
#    x 1.771810 0.000000 0.000000 
#    y 0.000000 1.721250 0.000000 
#    z 0.000000 0.000000 1.743750 
# 
# From -- ./inp_files/56572.got.cif
#   From: 2010.05.17/outbox.cif.g08.bks.cpg/sg22_29_cif.got.tgz:56572.got - 2010.06.03 23:40:54.
