data_PCOD9328399
_publ_section_title
;
Structure prediction by ZEFSAII (Michael W. Deem and Ramdas Pophale) SiO2 
 PCOD9328399
Probable space group: F 2 2 2
;
_chemical_formula_sum "Si O2"
_cell_formula_units_Z 48
_cell_length_a 12.873443
_cell_length_b 18.467944
_cell_length_c 8.231710
_cell_angle_alpha 90.000000
_cell_angle_beta 90.000000
_cell_angle_gamma 90.000000
_cell_volume 1957.056327
_symmetry_space_group_name_H-M "F 2 2 2"
_symmetry_group_IT_number 22
_symmetry_cell_setting 'orthorhombic'
loop_
_space_group_symop_operation_xyz
x,y,z
-x,-y,z
x,-y,-z
-x,y,-z
x,1/2+y,1/2+z
-x,1/2-y,1/2+z
x,1/2-y,1/2-z
-x,1/2+y,1/2-z
1/2+x,y,1/2+z
1/2-x,-y,1/2+z
1/2+x,-y,1/2-z
1/2-x,y,1/2-z
1/2+x,1/2+y,z
1/2-x,1/2-y,z
1/2+x,1/2-y,-z
1/2-x,1/2+y,-z
loop_
_atom_site_type_symbol
_atom_site_label
_atom_site_fract_x
_atom_site_fract_y
_atom_site_fract_z
Si Si1 0.364856 0.023602 0.184555
Si Si2 0.639714 0.374036 0.153799
Si Si3 0.585771 0.671587 0.199067
O O1 0.250000 0.029535 0.250000
O O2 0.404204 0.105330 0.178917
O O3 0.400677 0.955285 0.297461
O O4 0.370143 0.000000 0.000000
O O5 0.750000 0.362394 0.250000
O O6 0.539563 0.323604 0.183817
O O7 0.645592 0.359885 0.960469
O O8 0.625294 0.750000 0.250000
#
# Coordination Sequence:
#
# PCOD9328399 Si02
#       3
#    16  16  16
#     4  11  23  43  72 102 137 187 242 294 353 426
#     4  10  23  47  76 100 139 192 243 292 351 429
#     4  11  25  45  71 107 145 184 235 298 364 424
#
# _framework density 24.526631999999999
#
# number of rings (size 3 to 8) (size 9 to 14) (size 15 to 20)
#    0.000    1.333    0.000    6.000    0.000   12.000 
#    0.000   11.667    0.000    0.000    0.000    0.000 
#    0.000    0.000    0.000    0.000    0.000    0.000 
#
# Total GULP energy -66834.824957 kJ/mol
# GULP energy per Si atom -5569.568746 kJ/mol
# Density = 2.447081 g / cm^3
# Si number density = 24.526632 Si / 1000 Ang^3
#
#
#
# Elastic Constant Matrix: (Units=GPa)
#
#
# Indices 1 2 3 4 5 6 
#
# 1 100.0626 33.9782 27.1945 0.0000 0.0000 0.0000
# 2 33.9782 192.2521 115.1832 0.0000 0.0000 0.0000
# 3 27.1945 115.1832 162.6191 0.0000 0.0000 0.0000
# 4 0.0000 0.0000 0.0000 19.2537 0.0000 0.0000
# 5 0.0000 0.0000 0.0000 0.0000 20.7931 0.0000
# 6 0.0000 0.0000 0.0000 0.0000 0.0000 32.1412
#
#
#
# Elastic Compliance Matrix: (Units=1/GPa)
#
#
# Indices 1 2 3 4 5 6 
#
# 1 0.010689 -0.001421 -0.000781 0.000000 0.000000 0.000000
# 2 -0.001421 0.009225 -0.006296 0.000000 0.000000 0.000000
# 3 -0.000781 -0.006296 0.010740 0.000000 0.000000 0.000000
# 4 0.000000 0.000000 0.000000 0.051938 0.000000 0.000000
# 5 0.000000 0.000000 0.000000 0.000000 0.048093 0.000000
# 6 0.000000 0.000000 0.000000 0.000000 0.000000 0.031113
#
#
# Mechanical properties :
#
#
# Convention : Reuss Voigt Hill
#
# Bulk Modulus (GPa) = 73.22600 89.73842 81.48221
# Shear Modulus (GPa) = 27.27083 33.00944 30.14014
#
# Velocity S-wave (km/s) = 3.33811 3.67258 3.50933
# Velocity P-wave (km/s) = 6.69163 7.39266 7.05086
#
# Compressibility (1/GPa) = 0.01365635
#
# Stress axis : x y z
#
# Youngs Moduli (GPa) = 93.55800 108.40046 93.11288
#
# Poissons Ratio (x) = 0.15407 0.07269
# Poissons Ratio (y) = 0.13298 0.58628
# Poissons Ratio (z) = 0.07304 0.68253
#
# Static dielectric constant tensor:
#      x y z
#    x 2.060260 0.000000 0.000000 
#    y 0.000000 1.947450 0.000000 
#    z 0.000000 0.000000 1.952040 
# 
# From -- ./inp_files/9108.got.cif
#   From: 2010.05.17/outbox.cif.g08.bks.cpg/sg22_5_cif.got.tgz:9108.got - 2010.06.03 23:40:54.
