data_PCOD9328622
_publ_section_title
;
Structure prediction by ZEFSAII (Michael W. Deem and Ramdas Pophale) SiO2 
 PCOD9328622
Probable space group: F 2 2 2
;
_chemical_formula_sum "Si O2"
_cell_formula_units_Z 56
_cell_length_a 14.265128
_cell_length_b 23.324226
_cell_length_c 7.063138
_cell_angle_alpha 90.000000
_cell_angle_beta 90.000000
_cell_angle_gamma 90.000000
_cell_volume 2350.068955
_symmetry_space_group_name_H-M "F 2 2 2"
_symmetry_group_IT_number 22
_symmetry_cell_setting 'orthorhombic'
loop_
_space_group_symop_operation_xyz
x,y,z
-x,-y,z
x,-y,-z
-x,y,-z
x,1/2+y,1/2+z
-x,1/2-y,1/2+z
x,1/2-y,1/2-z
-x,1/2+y,1/2-z
1/2+x,y,1/2+z
1/2-x,-y,1/2+z
1/2+x,-y,1/2-z
1/2-x,y,1/2-z
1/2+x,1/2+y,z
1/2-x,1/2-y,z
1/2+x,1/2-y,-z
1/2-x,1/2+y,-z
loop_
_atom_site_type_symbol
_atom_site_label
_atom_site_fract_x
_atom_site_fract_y
_atom_site_fract_z
Si Si1 0.770647 0.567400 0.529234
Si Si2 0.392147 0.167973 0.551194
Si Si3 0.100765 0.145209 0.509320
Si Si4 0.363942 0.250000 0.250000
O O1 0.776216 0.500000 0.500000
O O2 0.750000 0.573563 0.750000
O O3 0.863969 0.603677 0.490856
O O4 0.682478 0.602100 0.443487
O O5 0.500000 0.181160 0.500000
O O6 0.380046 0.169172 0.778047
O O7 0.326577 0.210078 0.424968
O O8 0.000000 0.114587 0.500000
O O9 0.910028 0.199435 0.628384
#
# Coordination Sequence:
#
# PCOD9328622 Si02
#       4
#    16  16  16   8
#     4  10  26  46  67  93 134 170 225 276 316 386
#     4  11  24  42  66 102 132 172 216 267 328 387
#     4  11  24  42  66 102 132 172 216 267 328 387
#     4  12  24  41  72  93 144 164 224 255 336 393
#
# _framework density 23.829086
#
# number of rings (size 3 to 8) (size 9 to 14) (size 15 to 20)
#    0.000    1.143    2.857    1.714    4.000    3.429 
#    0.000   10.000    0.000    0.000    0.000    0.000 
#    0.000    0.000    0.000    0.000    0.000    0.000 
#
# Total GULP energy -78049.515553 kJ/mol
# GULP energy per Si atom -5574.965397 kJ/mol
# Density = 2.377485 g / cm^3
# Si number density = 23.829086 Si / 1000 Ang^3
#
#
#
# Elastic Constant Matrix: (Units=GPa)
#
#
# Indices 1 2 3 4 5 6 
#
# 1 86.3023 53.9176 3.0666 0.0000 0.0000 0.0000
# 2 53.9176 170.5720 26.4700 0.0000 0.0000 0.0000
# 3 3.0666 26.4700 159.9212 0.0000 0.0000 0.0000
# 4 0.0000 0.0000 0.0000 36.6705 0.0000 0.0000
# 5 0.0000 0.0000 0.0000 0.0000 12.3157 0.0000
# 6 0.0000 0.0000 0.0000 0.0000 0.0000 17.9419
#
#
#
# Elastic Compliance Matrix: (Units=1/GPa)
#
#
# Indices 1 2 3 4 5 6 
#
# 1 0.014476 -0.004652 0.000492 0.000000 0.000000 0.000000
# 2 -0.004652 0.007512 -0.001154 0.000000 0.000000 0.000000
# 3 0.000492 -0.001154 0.006435 0.000000 0.000000 0.000000
# 4 0.000000 0.000000 0.000000 0.027270 0.000000 0.000000
# 5 0.000000 0.000000 0.000000 0.000000 0.081197 0.000000
# 6 0.000000 0.000000 0.000000 0.000000 0.000000 0.055735
#
#
# Mechanical properties :
#
#
# Convention : Reuss Voigt Hill
#
# Bulk Modulus (GPa) = 56.19539 64.85598 60.52568
# Shear Modulus (GPa) = 23.90220 35.60838 29.75529
#
# Velocity S-wave (km/s) = 3.17056 3.86984 3.53752
# Velocity P-wave (km/s) = 6.08582 6.87341 6.49157
#
# Compressibility (1/GPa) = 0.01779505
#
# Stress axis : x y z
#
# Youngs Moduli (GPa) = 69.07871 133.11427 155.40784
#
# Poissons Ratio (x) = 0.61929 -0.07653
# Poissons Ratio (y) = 0.32138 0.17938
# Poissons Ratio (z) = -0.03402 0.15364
#
# Static dielectric constant tensor:
#      x y z
#    x 2.051280 0.000000 0.000000 
#    y 0.000000 1.886430 0.000000 
#    z 0.000000 0.000000 1.979930 
# 
# From -- ./inp_files/9538.got.cif
#   From: 2010.05.17/outbox.cif.g08.bks.cpg/sg22_5_cif.got.tgz:9538.got - 2010.06.03 23:40:54.
