data_PCOD9328566
_publ_section_title
;
Structure prediction by ZEFSAII (Michael W. Deem and Ramdas Pophale) SiO2 
 PCOD9328566
Probable space group: F 2 2 2
;
_chemical_formula_sum "Si O2"
_cell_formula_units_Z 68
_cell_length_a 13.988739
_cell_length_b 11.158901
_cell_length_c 18.339701
_cell_angle_alpha 90.000000
_cell_angle_beta 90.000000
_cell_angle_gamma 90.000000
_cell_volume 2862.808136
_symmetry_space_group_name_H-M "F 2 2 2"
_symmetry_group_IT_number 22
_symmetry_cell_setting 'orthorhombic'
loop_
_space_group_symop_operation_xyz
x,y,z
-x,-y,z
x,-y,-z
-x,y,-z
x,1/2+y,1/2+z
-x,1/2-y,1/2+z
x,1/2-y,1/2-z
-x,1/2+y,1/2-z
1/2+x,y,1/2+z
1/2-x,-y,1/2+z
1/2+x,-y,1/2-z
1/2-x,y,1/2-z
1/2+x,1/2+y,z
1/2-x,1/2-y,z
1/2+x,1/2-y,-z
1/2-x,1/2+y,-z
loop_
_atom_site_type_symbol
_atom_site_label
_atom_site_fract_x
_atom_site_fract_y
_atom_site_fract_z
Si Si1 0.867340 0.219557 0.967308
Si Si2 0.362739 0.233011 0.632864
Si Si3 0.500000 0.500000 0.000000
Si Si4 0.351515 0.182677 0.182381
Si Si5 0.101800 0.941569 0.256197
O O1 0.750000 0.250000 0.970188
O O2 0.922308 0.089047 0.958393
O O3 0.897317 0.296649 0.896653
O O4 0.898181 0.245653 0.050357
O O5 0.250000 0.250000 0.629984
O O6 0.374095 0.108579 0.676530
O O7 0.400540 0.334282 0.686507
O O8 0.402247 0.250000 0.250000
O O9 0.250000 0.250000 0.176923
O O10 0.337231 0.046423 0.205730
O O11 0.000000 0.000000 0.250317
#
# Coordination Sequence:
#
# PCOD9328566 Si02
#       5
#    16  16   4  16  16
#     4  10  26  48  75 116 151 202 272 324 401 483
#     4  10  25  47  73 102 147 200 252 312 403 460
#     4  12  28  44  88 108 164 216 258 348 406 478
#     4  10  25  43  71 102 146 192 251 314 399 467
#     4  11  25  41  69 104 144 187 245 321 374 482
#
# _framework density 23.752901000000001
#
# number of rings (size 3 to 8) (size 9 to 14) (size 15 to 20)
#    0.000    1.647    0.000    1.412   18.118    6.588 
#    0.000    1.176    0.000    0.000    0.000    0.000 
#    0.000    0.000    0.000    0.000    0.000    0.000 
#
# Total GULP energy -94680.786582 kJ/mol
# GULP energy per Si atom -5569.458034 kJ/mol
# Density = 2.369884 g / cm^3
# Si number density = 23.752901 Si / 1000 Ang^3
#
#
#
# Elastic Constant Matrix: (Units=GPa)
#
#
# Indices 1 2 3 4 5 6 
#
# 1 119.0771 43.2696 35.5759 0.0000 0.0000 0.0000
# 2 43.2696 143.8767 75.5904 0.0000 0.0000 0.0000
# 3 35.5759 75.5904 260.9262 0.0000 0.0000 0.0000
# 4 0.0000 0.0000 0.0000 -828.5798 0.0000 0.0000
# 5 0.0000 0.0000 0.0000 0.0000 13.0463 0.0000
# 6 0.0000 0.0000 0.0000 0.0000 0.0000 54.6750
#
#
#
# Elastic Compliance Matrix: (Units=1/GPa)
#
#
# Indices 1 2 3 4 5 6 
#
# 1 0.009495 -0.002566 -0.000551 0.000000 0.000000 0.000000
# 2 -0.002566 0.008892 -0.002226 0.000000 0.000000 0.000000
# 3 -0.000551 -0.002226 0.004553 0.000000 0.000000 0.000000
# 4 0.000000 0.000000 0.000000 -0.001207 0.000000 0.000000
# 5 0.000000 0.000000 0.000000 0.000000 0.076650 0.000000
# 6 0.000000 0.000000 0.000000 0.000000 0.000000 0.018290
#
#
# Mechanical properties :
#
#
# Convention : Reuss Voigt Hill
#
# Bulk Modulus (GPa) = 81.61453 92.52797 87.07125
# Shear Modulus (GPa) = 38.03930 -127.54210 -44.75140
#
# Velocity S-wave (km/s) = 4.00617 -7.33566 -4.34526
# Velocity P-wave (km/s) = 7.47219 5.71929 3.40024
#
# Compressibility (1/GPa) = 0.01225272
#
# Stress axis : x y z
#
# Youngs Moduli (GPa) = 105.31855 112.46563 219.65723
#
# Poissons Ratio (x) = 0.28858 0.12108
# Poissons Ratio (y) = 0.27024 0.48897
# Poissons Ratio (z) = 0.05806 0.25035
#
# Static dielectric constant tensor:
#      x y z
#    x 2.083850 0.000000 0.000000 
#    y 0.000000 1.903360 0.000000 
#    z 0.000000 0.000000 1.937130 
# 
# From -- ./inp_files/43294.got.cif
#   From: 2010.05.17/outbox.cif.g08.bks.cpg/sg22_22_cif.got.tgz:43294.got - 2010.06.03 23:40:54.
