data_PCOD9328177
_publ_section_title
;
Structure prediction by ZEFSAII (Michael W. Deem and Ramdas Pophale) SiO2 
 PCOD9328177
Probable space group: F 2 2 2
;
_chemical_formula_sum "Si O2"
_cell_formula_units_Z 104
_cell_length_a 9.484405
_cell_length_b 18.513509
_cell_length_c 28.708308
_cell_angle_alpha 90.000000
_cell_angle_beta 90.000000
_cell_angle_gamma 90.000000
_cell_volume 5040.880816
_symmetry_space_group_name_H-M "F 2 2 2"
_symmetry_group_IT_number 22
_symmetry_cell_setting 'orthorhombic'
loop_
_space_group_symop_operation_xyz
x,y,z
-x,-y,z
x,-y,-z
-x,y,-z
x,1/2+y,1/2+z
-x,1/2-y,1/2+z
x,1/2-y,1/2-z
-x,1/2+y,1/2-z
1/2+x,y,1/2+z
1/2-x,-y,1/2+z
1/2+x,-y,1/2-z
1/2-x,y,1/2-z
1/2+x,1/2+y,z
1/2-x,1/2-y,z
1/2+x,1/2-y,-z
1/2-x,1/2+y,-z
loop_
_atom_site_type_symbol
_atom_site_label
_atom_site_fract_x
_atom_site_fract_y
_atom_site_fract_z
Si Si1 0.000000 0.830780 0.500000
Si Si2 0.750000 0.750000 0.446538
Si Si3 0.250000 0.136439 0.750000
Si Si4 0.203341 0.076660 0.848160
Si Si5 0.468040 0.302666 0.289732
Si Si6 0.543706 0.314584 0.867635
Si Si7 0.479051 0.914928 0.092404
Si Si8 0.780902 0.408841 0.838380
O O1 0.137751 0.789804 0.519697
O O2 0.049339 0.877543 0.456086
O O3 0.638412 0.793254 0.412706
O O4 0.190086 0.093104 0.793665
O O5 0.377270 0.179792 0.771773
O O6 0.351963 0.097903 0.871696
O O7 0.085827 0.128238 0.873235
O O8 0.218151 0.988946 0.846963
O O9 0.405556 0.250000 0.250000
O O10 0.486764 0.257519 0.337927
O O11 0.386001 0.378862 0.298197
O O12 0.649598 0.357398 0.834561
O O13 0.625428 0.891753 0.115899
O O14 0.500000 0.000000 0.085457
#
# Coordination Sequence:
#
# PCOD9328177 Si02
#       8
#     8   8   8  16  16  16  16  16
#     4  12  25  48  72 108 141 178 244 304 384 480
#     4  12  28  46  73 108 144 185 240 310 390 462
#     4  12  25  44  64 108 141 198 260 304 361 446
#     4  11  26  43  74 101 146 193 249 312 367 450
#     4  12  24  41  69  98 144 198 257 300 365 446
#     4  12  24  46  69 103 145 187 240 316 377 448
#     4  10  22  45  76 102 137 190 238 302 380 460
#     4  11  23  48  68 101 144 191 244 309 379 439
#
# _framework density 20.631314
#
# number of rings (size 3 to 8) (size 9 to 14) (size 15 to 20)
#    0.000    0.615    6.154    0.923    2.154    2.462 
#    2.769    0.000    0.000    0.000    0.000    0.000 
#    0.000    0.000    0.000    0.000    0.000    0.000 
#
# Total GULP energy -144772.590253 kJ/mol
# GULP energy per Si atom -5568.176548 kJ/mol
# Density = 2.058436 g / cm^3
# Si number density = 20.631314 Si / 1000 Ang^3
#
#
#
# Elastic Constant Matrix: (Units=GPa)
#
#
# Indices 1 2 3 4 5 6 
#
# 1 137.7443 67.4852 41.9436 0.0000 0.0000 0.0000
# 2 67.4852 112.9032 51.8729 0.0000 0.0000 0.0000
# 3 41.9436 51.8729 111.4156 0.0000 0.0000 0.0000
# 4 0.0000 0.0000 0.0000 135.3823 0.0000 0.0000
# 5 0.0000 0.0000 0.0000 0.0000 37.7439 0.0000
# 6 0.0000 0.0000 0.0000 0.0000 0.0000 36.6808
#
#
#
# Elastic Compliance Matrix: (Units=1/GPa)
#
#
# Indices 1 2 3 4 5 6 
#
# 1 0.010412 -0.005626 -0.001300 0.000000 0.000000 0.000000
# 2 -0.005626 0.014307 -0.004543 0.000000 0.000000 0.000000
# 3 -0.001300 -0.004543 0.011580 0.000000 0.000000 0.000000
# 4 0.000000 0.000000 0.000000 0.007386 0.000000 0.000000
# 5 0.000000 0.000000 0.000000 0.000000 0.026494 0.000000
# 6 0.000000 0.000000 0.000000 0.000000 0.000000 0.027262
#
#
# Mechanical properties :
#
#
# Convention : Reuss Voigt Hill
#
# Bulk Modulus (GPa) = 74.84868 76.07406 75.46137
# Shear Modulus (GPa) = 40.05257 55.34550 47.69903
#
# Velocity S-wave (km/s) = 4.41085 5.18500 4.81351
# Velocity P-wave (km/s) = 7.89296 8.53222 8.21881
#
# Compressibility (1/GPa) = 0.01336029
#
# Stress axis : x y z
#
# Youngs Moduli (GPa) = 96.04065 69.89365 86.35468
#
# Poissons Ratio (x) = 0.39324 0.11229
# Poissons Ratio (y) = 0.54035 0.39233
# Poissons Ratio (z) = 0.12488 0.31754
#
# Static dielectric constant tensor:
#      x y z
#    x 1.757310 0.000000 0.000000 
#    y 0.000000 1.832340 0.000000 
#    z 0.000000 0.000000 1.729770 
# 
# From -- ./inp_files/52011.got.cif
#   From: 2010.05.17/outbox.cif.g08.bks.cpg/sg22_27_cif.got.tgz:52011.got - 2010.06.03 23:40:54.
