data_PCOD9328966
_publ_section_title
;
Structure prediction by ZEFSAII (Michael W. Deem and Ramdas Pophale) SiO2 
 PCOD9328966
Probable space group: F 2 2 2
;
_chemical_formula_sum "Si O2"
_cell_formula_units_Z 64
_cell_length_a 15.741183
_cell_length_b 17.498579
_cell_length_c 11.047897
_cell_angle_alpha 90.000000
_cell_angle_beta 90.000000
_cell_angle_gamma 90.000000
_cell_volume 3043.124826
_symmetry_space_group_name_H-M "F 2 2 2"
_symmetry_group_IT_number 22
_symmetry_cell_setting 'orthorhombic'
loop_
_space_group_symop_operation_xyz
x,y,z
-x,-y,z
x,-y,-z
-x,y,-z
x,1/2+y,1/2+z
-x,1/2-y,1/2+z
x,1/2-y,1/2-z
-x,1/2+y,1/2-z
1/2+x,y,1/2+z
1/2-x,-y,1/2+z
1/2+x,-y,1/2-z
1/2-x,y,1/2-z
1/2+x,1/2+y,z
1/2-x,1/2-y,z
1/2+x,1/2-y,-z
1/2-x,1/2+y,-z
loop_
_atom_site_type_symbol
_atom_site_label
_atom_site_fract_x
_atom_site_fract_y
_atom_site_fract_z
Si Si1 0.149553 0.262594 0.888731
Si Si2 0.099058 0.887413 0.984866
Si Si3 0.410049 0.431269 0.569315
Si Si4 0.343986 0.995336 0.305221
O O1 0.117257 0.250000 0.750000
O O2 0.250000 0.250000 0.885669
O O3 0.111684 0.200944 0.981887
O O4 0.131464 0.348698 0.928592
O O5 0.150743 0.934730 0.085844
O O6 0.129761 0.922074 0.857527
O O7 0.000000 0.906319 0.000000
O O8 0.362085 0.500000 0.500000
O O9 0.500000 0.423461 0.500000
O O10 0.409169 0.462483 0.705714
O O11 0.250000 0.996036 0.250000
#
# Coordination Sequence:
#
# PCOD9328966 Si02
#       4
#    16  16  16  16
#     4  11  23  45  72 104 138 186 238 287 355 426
#     4  11  25  44  73 103 144 186 238 297 359 418
#     4  11  26  42  70 103 141 182 235 290 350 420
#     4  11  24  43  71 105 139 187 237 291 350 425
#
# _framework density 21.031013999999999
#
# number of rings (size 3 to 8) (size 9 to 14) (size 15 to 20)
#    0.000    1.000    2.500    3.750   14.000    0.000 
#    0.000    1.250    0.000    0.000    0.000    0.000 
#    0.000    0.000    0.000    0.000    0.000    0.000 
#
# Total GULP energy -89390.436917 kJ/mol
# GULP energy per Si atom -5586.902307 kJ/mol
# Density = 2.098315 g / cm^3
# Si number density = 21.031014 Si / 1000 Ang^3
#
#
#
# Elastic Constant Matrix: (Units=GPa)
#
#
# Indices 1 2 3 4 5 6 
#
# 1 130.4276 47.4605 46.4872 0.0000 0.0000 0.0000
# 2 47.4605 221.1602 70.1731 0.0000 0.0000 0.0000
# 3 46.4872 70.1731 95.2750 0.0000 0.0000 0.0000
# 4 0.0000 0.0000 0.0000 41.0701 0.0000 0.0000
# 5 0.0000 0.0000 0.0000 0.0000 34.1211 0.0000
# 6 0.0000 0.0000 0.0000 0.0000 0.0000 23.9598
#
#
#
# Elastic Compliance Matrix: (Units=1/GPa)
#
#
# Indices 1 2 3 4 5 6 
#
# 1 0.009371 -0.000731 -0.004034 0.000000 0.000000 0.000000
# 2 -0.000731 0.005958 -0.004031 0.000000 0.000000 0.000000
# 3 -0.004034 -0.004031 0.015433 0.000000 0.000000 0.000000
# 4 0.000000 0.000000 0.000000 0.024349 0.000000 0.000000
# 5 0.000000 0.000000 0.000000 0.000000 0.029307 0.000000
# 6 0.000000 0.000000 0.000000 0.000000 0.000000 0.041737
#
#
# Mechanical properties :
#
#
# Convention : Reuss Voigt Hill
#
# Bulk Modulus (GPa) = 75.93336 86.12270 81.02803
# Shear Modulus (GPa) = 33.75267 38.67968 36.21618
#
# Velocity S-wave (km/s) = 4.01047 4.29321 4.15424
# Velocity P-wave (km/s) = 7.59137 8.10029 7.84996
#
# Compressibility (1/GPa) = 0.01316944
#
# Stress axis : x y z
#
# Youngs Moduli (GPa) = 106.71391 167.85316 64.79494
#
# Poissons Ratio (x) = 0.12271 0.26137
# Poissons Ratio (y) = 0.07801 0.26121
# Poissons Ratio (z) = 0.43047 0.67666
#
# Static dielectric constant tensor:
#      x y z
#    x 1.761720 0.000000 0.000000 
#    y 0.000000 1.769630 0.000000 
#    z 0.000000 0.000000 1.825580 
# 
# From -- ./inp_files/19355.got.cif
#   From: 2010.05.17/outbox.cif.g08.bks.cpg/sg22_10_cif.got.tgz:19355.got - 2010.06.03 23:40:54.
