data_PCOD9328643
_publ_section_title
;
Structure prediction by ZEFSAII (Michael W. Deem and Ramdas Pophale) SiO2 
 PCOD9328643
Probable space group: F 2 2 2
;
_chemical_formula_sum "Si O2"
_cell_formula_units_Z 104
_cell_length_a 23.313962
_cell_length_b 11.357784
_cell_length_c 20.686981
_cell_angle_alpha 90.000000
_cell_angle_beta 90.000000
_cell_angle_gamma 90.000000
_cell_volume 5477.807987
_symmetry_space_group_name_H-M "F 2 2 2"
_symmetry_group_IT_number 22
_symmetry_cell_setting 'orthorhombic'
loop_
_space_group_symop_operation_xyz
x,y,z
-x,-y,z
x,-y,-z
-x,y,-z
x,1/2+y,1/2+z
-x,1/2-y,1/2+z
x,1/2-y,1/2-z
-x,1/2+y,1/2-z
1/2+x,y,1/2+z
1/2-x,-y,1/2+z
1/2+x,-y,1/2-z
1/2-x,y,1/2-z
1/2+x,1/2+y,z
1/2-x,1/2-y,z
1/2+x,1/2-y,-z
1/2-x,1/2+y,-z
loop_
_atom_site_type_symbol
_atom_site_label
_atom_site_fract_x
_atom_site_fract_y
_atom_site_fract_z
Si Si1 0.619061 0.615433 0.468873
Si Si2 0.417129 0.551079 0.666918
Si Si3 0.145382 0.000000 0.000000
Si Si4 0.477067 0.801295 0.182279
Si Si5 0.314599 0.889522 0.739548
Si Si6 0.445980 0.690119 0.047252
Si Si7 0.808784 0.820655 0.099367
O O1 0.648831 0.500000 0.500000
O O2 0.583127 0.562625 0.410331
O O3 0.582548 0.689473 0.520158
O O4 0.654715 0.713736 0.430360
O O5 0.444597 0.424709 0.677169
O O6 0.456559 0.660441 0.688187
O O7 0.358533 0.558562 0.708063
O O8 0.186260 0.080370 0.044338
O O9 0.101949 0.912301 0.039015
O O10 0.457727 0.750000 0.250000
O O11 0.465971 0.717774 0.120420
O O12 0.313231 0.750000 0.750000
O O13 0.250000 0.936908 0.750000
O O14 0.329902 0.889504 0.663474
O O15 0.500000 0.663362 0.000000
O O16 0.750000 0.750000 0.114295
#
# Coordination Sequence:
#
# PCOD9328643 Si02
#       7
#    16  16   8  16  16  16  16
#     4  11  21  36  64  90 119 160 213 261 305 373
#     4  11  22  39  62  90 122 159 216 263 309 378
#     4  10  27  40  60  96 124 172 211 256 324 382
#     4  11  25  38  59  92 124 171 207 262 318 373
#     4  11  20  38  63  91 119 154 206 266 324 375
#     4  11  22  42  62  86 132 171 209 252 320 390
#     4  11  23  42  64  91 124 163 210 267 323 383
#
# _framework density 18.985697999999999
#
# number of rings (size 3 to 8) (size 9 to 14) (size 15 to 20)
#    0.000    1.077    6.154    0.692    3.231    0.308 
#    2.769    0.000    0.000    0.462    0.000    0.000 
#    0.000    0.000    0.000    0.000    0.000    0.000 
#
# Total GULP energy -144771.114389 kJ/mol
# GULP energy per Si atom -5568.119784 kJ/mol
# Density = 1.894249 g / cm^3
# Si number density = 18.985698 Si / 1000 Ang^3
#
#
#
# Elastic Constant Matrix: (Units=GPa)
#
#
# Indices 1 2 3 4 5 6 
#
# 1 50.5729 6.6818 9.2415 0.0000 0.0000 0.0000
# 2 6.6818 79.1196 39.6884 0.0000 0.0000 0.0000
# 3 9.2415 39.6884 105.4986 0.0000 0.0000 0.0000
# 4 0.0000 0.0000 0.0000 37.1521 0.0000 0.0000
# 5 0.0000 0.0000 0.0000 0.0000 23.3687 0.0000
# 6 0.0000 0.0000 0.0000 0.0000 0.0000 6.1278
#
#
#
# Elastic Compliance Matrix: (Units=1/GPa)
#
#
# Indices 1 2 3 4 5 6 
#
# 1 0.020160 -0.001007 -0.001387 0.000000 0.000000 0.000000
# 2 -0.001007 0.015629 -0.005792 0.000000 0.000000 0.000000
# 3 -0.001387 -0.005792 0.011779 0.000000 0.000000 0.000000
# 4 0.000000 0.000000 0.000000 0.026916 0.000000 0.000000
# 5 0.000000 0.000000 0.000000 0.000000 0.042792 0.000000
# 6 0.000000 0.000000 0.000000 0.000000 0.000000 0.163190
#
#
# Mechanical properties :
#
#
# Convention : Reuss Voigt Hill
#
# Bulk Modulus (GPa) = 32.05398 38.49052 35.27225
# Shear Modulus (GPa) = 16.27410 25.30168 20.78789
#
# Velocity S-wave (km/s) = 2.93093 3.65454 3.31255
# Velocity P-wave (km/s) = 5.32670 6.17454 5.76622
#
# Compressibility (1/GPa) = 0.03119737
#
# Stress axis : x y z
#
# Youngs Moduli (GPa) = 49.60336 63.98238 84.89617
#
# Poissons Ratio (x) = 0.06441 0.11777
# Poissons Ratio (y) = 0.04993 0.49168
# Poissons Ratio (z) = 0.06881 0.37056
#
# Static dielectric constant tensor:
#      x y z
#    x 1.726440 0.000000 0.000000 
#    y 0.000000 1.676230 0.000000 
#    z 0.000000 0.000000 2.397970 
# 
# From -- ./inp_files/40013.got.cif
#   From: 2010.05.17/outbox.cif.g08.bks.cpg/sg22_21_cif.got.tgz:40013.got - 2010.06.03 23:40:54.
