data_PCOD9328766
_publ_section_title
;
Structure prediction by ZEFSAII (Michael W. Deem and Ramdas Pophale) SiO2 
 PCOD9328766
Probable space group: F 2 2 2
;
_chemical_formula_sum "Si O2"
_cell_formula_units_Z 68
_cell_length_a 25.012146
_cell_length_b 17.711721
_cell_length_c 6.528185
_cell_angle_alpha 90.000000
_cell_angle_beta 90.000000
_cell_angle_gamma 90.000000
_cell_volume 2892.039170
_symmetry_space_group_name_H-M "F 2 2 2"
_symmetry_group_IT_number 22
_symmetry_cell_setting 'orthorhombic'
loop_
_space_group_symop_operation_xyz
x,y,z
-x,-y,z
x,-y,-z
-x,y,-z
x,1/2+y,1/2+z
-x,1/2-y,1/2+z
x,1/2-y,1/2-z
-x,1/2+y,1/2-z
1/2+x,y,1/2+z
1/2-x,-y,1/2+z
1/2+x,-y,1/2-z
1/2-x,y,1/2-z
1/2+x,1/2+y,z
1/2-x,1/2-y,z
1/2+x,1/2-y,-z
1/2-x,1/2+y,-z
loop_
_atom_site_type_symbol
_atom_site_label
_atom_site_fract_x
_atom_site_fract_y
_atom_site_fract_z
Si Si1 0.056484 0.182868 0.101009
Si Si2 0.250000 0.250000 0.250000
Si Si3 0.349682 0.664316 0.230115
Si Si4 0.298783 0.099157 0.385486
Si Si5 0.601766 0.923176 0.111177
O O1 0.073979 0.250000 0.250000
O O2 0.054183 0.112340 0.256289
O O3 0.100061 0.170354 0.924852
O O4 0.000000 0.200084 0.000000
O O5 0.289201 0.189729 0.355677
O O6 0.327933 0.750000 0.250000
O O7 0.372551 0.633405 0.443426
O O8 0.309258 0.602737 0.128886
O O9 0.250000 0.066691 0.250000
O O10 0.350994 0.067648 0.276528
O O11 0.587791 0.000000 0.000000
#
# Coordination Sequence:
#
# PCOD9328766 Si02
#       5
#    16   4  16  16  16
#     4  11  24  42  72 101 133 171 232 286 343 412
#     4   8  16  36  58  96 132 166 238 296 302 404
#     4  11  21  40  70  95 132 180 223 287 339 394
#     4   9  21  38  59  95 140 173 235 278 329 400
#     4  11  25  45  66 100 142 182 224 281 350 415
#
# _framework density 23.512822
#
# number of rings (size 3 to 8) (size 9 to 14) (size 15 to 20)
#    0.706    0.941    2.353    2.118    3.294    4.706 
#    4.235    3.529    0.000    0.000    0.000    0.000 
#    0.000    0.000    0.000    0.000    0.000    0.000 
#
# Total GULP energy -94796.149866 kJ/mol
# GULP energy per Si atom -5576.244110 kJ/mol
# Density = 2.345931 g / cm^3
# Si number density = 23.512822 Si / 1000 Ang^3
#
#
#
# Elastic Constant Matrix: (Units=GPa)
#
#
# Indices 1 2 3 4 5 6 
#
# 1 39.9554 -20.6396 13.5413 0.0000 0.0000 0.0000
# 2 -20.6396 83.8238 23.5592 -0.0003 0.0001 0.0001
# 3 13.5413 23.5592 96.4736 -0.0006 0.0003 0.0002
# 4 0.0000 -0.0003 -0.0006 33.3007 0.0002 0.0001
# 5 0.0000 0.0001 0.0003 0.0002 24.2125 0.0000
# 6 0.0000 0.0001 0.0002 0.0001 0.0000 15.8529
#
#
#
# Elastic Compliance Matrix: (Units=1/GPa)
#
#
# Indices 1 2 3 4 5 6 
#
# 1 0.032563 0.009988 -0.007010 0.000000 0.000000 0.000000
# 2 0.009988 0.015873 -0.005278 0.000000 0.000000 0.000000
# 3 -0.007010 -0.005278 0.012638 0.000000 0.000000 0.000000
# 4 0.000000 0.000000 0.000000 0.030029 0.000000 0.000000
# 5 0.000000 0.000000 0.000000 0.000000 0.041301 0.000000
# 6 0.000000 0.000000 0.000000 0.000000 0.000000 0.063080
#
#
# Mechanical properties :
#
#
# Convention : Reuss Voigt Hill
#
# Bulk Modulus (GPa) = 17.70716 28.13052 22.91884
# Shear Modulus (GPa) = 22.84058 28.25936 25.54997
#
# Velocity S-wave (km/s) = 3.12013 3.47056 3.30000
# Velocity P-wave (km/s) = 4.53072 5.29619 4.92834
#
# Compressibility (1/GPa) = 0.05647433
#
# Stress axis : x y z
#
# Youngs Moduli (GPa) = 30.70963 63.00193 79.12419
#
# Poissons Ratio (x) = -0.62926 0.55464
# Poissons Ratio (y) = -0.30673 0.41762
# Poissons Ratio (z) = 0.21527 0.33253
#
# Static dielectric constant tensor:
#      x y z
#    x 1.881380 0.000000 0.000000 
#    y 0.000000 1.968820 0.000000 
#    z 0.000000 0.000000 1.923910 
# 
# From -- ./inp_files/5389.got.cif
#   From: 2010.05.17/outbox.cif.g08.bks.cpg/sg22_3_cif.got.tgz:5389.got - 2010.06.03 23:40:54.
