data_PCOD9328100
_publ_section_title
;
Structure prediction by ZEFSAII (Michael W. Deem and Ramdas Pophale) SiO2 
 PCOD9328100
Probable space group: F 2 2 2
;
_chemical_formula_sum "Si O2"
_cell_formula_units_Z 88
_cell_length_a 13.812193
_cell_length_b 11.149094
_cell_length_c 22.821074
_cell_angle_alpha 90.000000
_cell_angle_beta 90.000000
_cell_angle_gamma 90.000000
_cell_volume 3514.295646
_symmetry_space_group_name_H-M "F 2 2 2"
_symmetry_group_IT_number 22
_symmetry_cell_setting 'orthorhombic'
loop_
_space_group_symop_operation_xyz
x,y,z
-x,-y,z
x,-y,-z
-x,y,-z
x,1/2+y,1/2+z
-x,1/2-y,1/2+z
x,1/2-y,1/2-z
-x,1/2+y,1/2-z
1/2+x,y,1/2+z
1/2-x,-y,1/2+z
1/2+x,-y,1/2-z
1/2-x,y,1/2-z
1/2+x,1/2+y,z
1/2-x,1/2-y,z
1/2+x,1/2-y,-z
1/2-x,1/2+y,-z
loop_
_atom_site_type_symbol
_atom_site_label
_atom_site_fract_x
_atom_site_fract_y
_atom_site_fract_z
Si Si1 0.500000 0.000000 0.377559
Si Si2 0.000000 0.673384 0.000000
Si Si3 0.250000 0.486321 0.250000
Si Si4 0.370517 0.819829 0.312290
Si Si5 0.391026 0.868717 0.830833
Si Si6 0.648516 0.184117 0.580268
Si Si7 0.899933 0.894240 0.615278
O O1 0.461385 0.893506 0.336567
O O2 0.596049 0.948052 0.412517
O O3 0.929191 0.753163 0.038561
O O4 0.063541 0.607226 0.049011
O O5 0.291947 0.578187 0.202031
O O6 0.339776 0.406763 0.271591
O O7 0.382981 0.750000 0.250000
O O8 0.347347 0.724687 0.363475
O O9 0.358866 0.741868 0.854943
O O10 0.505832 0.880658 0.840941
O O11 0.353978 0.976242 0.873900
O O12 0.750000 0.250000 0.559903
#
# Coordination Sequence:
#
# PCOD9328100 Si02
#       7
#     8   8   8  16  16  16  16
#     4  12  26  47  76 106 160 217 264 346 408 486
#     4  10  22  50  78 104 152 207 265 346 408 482
#     4  12  25  40  71 108 152 193 251 336 392 494
#     4  12  25  42  67 102 147 193 253 318 403 484
#     4  10  22  43  68 100 142 188 251 315 390 479
#     4  11  25  50  72 114 153 205 276 331 406 503
#     4  10  22  44  72 100 137 196 252 314 399 480
#
# _framework density 25.040579000000001
#
# number of rings (size 3 to 8) (size 9 to 14) (size 15 to 20)
#    0.000    1.091    5.455    1.364    2.545    6.182 
#    3.273    5.000    0.000    0.000    0.000    0.000 
#    0.000    0.000    0.000    0.000    0.000    0.000 
#
# Total GULP energy -122537.034591 kJ/mol
# GULP energy per Si atom -5569.865209 kJ/mol
# Density = 2.498359 g / cm^3
# Si number density = 25.040579 Si / 1000 Ang^3
#
#
#
# Elastic Constant Matrix: (Units=GPa)
#
#
# Indices 1 2 3 4 5 6 
#
# 1 107.1507 18.8787 16.1006 0.0000 0.0000 0.0000
# 2 18.8787 91.6857 34.1415 0.0000 0.0000 0.0000
# 3 16.1006 34.1415 101.6017 0.0000 0.0000 0.0000
# 4 0.0000 0.0000 0.0000 -5.2475 0.0000 0.0000
# 5 0.0000 0.0000 0.0000 0.0000 15.5198 0.0000
# 6 0.0000 0.0000 0.0000 0.0000 0.0000 35.5424
#
#
#
# Elastic Compliance Matrix: (Units=1/GPa)
#
#
# Indices 1 2 3 4 5 6 
#
# 1 0.009772 -0.001641 -0.000997 0.000000 0.000000 0.000000
# 2 -0.001641 0.012742 -0.004022 0.000000 0.000000 0.000000
# 3 -0.000997 -0.004022 0.011352 0.000000 0.000000 0.000000
# 4 0.000000 0.000000 0.000000 -0.190568 0.000000 0.000000
# 5 0.000000 0.000000 0.000000 0.000000 0.064434 0.000000
# 6 0.000000 0.000000 0.000000 0.000000 0.000000 0.028135
#
#
# Mechanical properties :
#
#
# Convention : Reuss Voigt Hill
#
# Bulk Modulus (GPa) = 48.67054 48.74219 48.70637
# Shear Modulus (GPa) = -113.72777 24.58410 -44.57183
#
# Velocity S-wave (km/s) = -6.74655 3.13672 -4.22356
# Velocity P-wave (km/s) = 6.41943 5.71194 2.07158
#
# Compressibility (1/GPa) = 0.02054631
#
# Stress axis : x y z
#
# Youngs Moduli (GPa) = 102.33787 78.47884 88.09144
#
# Poissons Ratio (x) = 0.12876 0.08784
# Poissons Ratio (y) = 0.16791 0.35429
# Poissons Ratio (z) = 0.10205 0.31563
#
# Static dielectric constant tensor:
#      x y z
#    x 2.216150 0.000000 0.000000 
#    y 0.000000 2.069970 0.000000 
#    z 0.000000 0.000000 1.991870 
# 
# From -- ./inp_files/48818.got.cif
#   From: 2010.05.17/outbox.cif.g08.bks.cpg/sg22_25_cif.got.tgz:48818.got - 2010.06.03 23:40:54.
