data_PCOD9328489
_publ_section_title
;
Structure prediction by ZEFSAII (Michael W. Deem and Ramdas Pophale) SiO2 
 PCOD9328489
Probable space group: F 2 2 2
;
_chemical_formula_sum "Si O2"
_cell_formula_units_Z 68
_cell_length_a 6.953620
_cell_length_b 17.837189
_cell_length_c 20.143418
_cell_angle_alpha 90.000000
_cell_angle_beta 90.000000
_cell_angle_gamma 90.000000
_cell_volume 2498.449253
_symmetry_space_group_name_H-M "F 2 2 2"
_symmetry_group_IT_number 22
_symmetry_cell_setting 'orthorhombic'
loop_
_space_group_symop_operation_xyz
x,y,z
-x,-y,z
x,-y,-z
-x,y,-z
x,1/2+y,1/2+z
-x,1/2-y,1/2+z
x,1/2-y,1/2-z
-x,1/2+y,1/2-z
1/2+x,y,1/2+z
1/2-x,-y,1/2+z
1/2+x,-y,1/2-z
1/2-x,y,1/2-z
1/2+x,1/2+y,z
1/2-x,1/2-y,z
1/2+x,1/2-y,-z
1/2-x,1/2+y,-z
loop_
_atom_site_type_symbol
_atom_site_label
_atom_site_fract_x
_atom_site_fract_y
_atom_site_fract_z
Si Si1 0.259317 0.384299 0.420180
Si Si2 0.022471 0.825080 0.796138
Si Si3 0.750000 0.957043 0.250000
Si Si4 0.500000 0.284379 0.500000
Si Si5 0.000000 0.500000 0.500000
Si Si6 0.000000 0.000000 0.640264
Si Si7 0.750000 0.250000 0.380344
O O1 0.176664 0.341211 0.356019
O O2 0.308513 0.329471 0.479674
O O3 0.458953 0.426723 0.402944
O O4 0.120817 0.446662 0.451099
O O5 0.048221 0.750000 0.750000
O O6 0.067486 0.901070 0.756602
O O7 0.815414 0.815838 0.830473
O O8 0.806163 0.001941 0.315297
O O9 0.567133 0.254706 0.428427
#
# Coordination Sequence:
#
# PCOD9328489 Si02
#       7
#    16  16   8   8   4   8   8
#     4  11  25  46  77 106 157 188 258 311 373 450
#     4  11  26  47  72 110 147 202 239 316 378 457
#     4  10  25  44  74 102 157 180 248 302 374 454
#     4  12  26  46  70 110 141 199 244 316 366 446
#     4  12  24  50  76 116 144 214 252 316 376 434
#     4  10  24  44  70 108 135 197 232 306 368 440
#     4  12  27  44  72 106 147 194 254 294 390 448
#
# _framework density 27.216882999999999
#
# number of rings (size 3 to 8) (size 9 to 14) (size 15 to 20)
#    0.000    0.941    0.000    4.941    9.882    5.647 
#    4.235    0.000    0.000    0.000    0.000    0.000 
#    0.000    0.000    0.000    0.000    0.000    0.000 
#
# Total GULP energy -94959.686354 kJ/mol
# GULP energy per Si atom -5585.863903 kJ/mol
# Density = 2.715494 g / cm^3
# Si number density = 27.216883 Si / 1000 Ang^3
#
#
#
# Elastic Constant Matrix: (Units=GPa)
#
#
# Indices 1 2 3 4 5 6 
#
# 1 94.0336 45.7172 36.5514 0.0000 0.0000 0.0000
# 2 45.7172 119.3674 63.1585 0.0000 0.0000 0.0000
# 3 36.5514 63.1585 134.1852 0.0000 0.0000 0.0000
# 4 0.0000 0.0000 0.0000 37.7594 0.0000 0.0000
# 5 0.0000 0.0000 0.0000 0.0000 69.8544 0.0000
# 6 0.0000 0.0000 0.0000 0.0000 0.0000 60.4366
#
#
#
# Elastic Compliance Matrix: (Units=1/GPa)
#
#
# Indices 1 2 3 4 5 6 
#
# 1 0.013332 -0.004241 -0.001636 0.000000 0.000000 0.000000
# 2 -0.004241 0.012505 -0.004731 0.000000 0.000000 0.000000
# 3 -0.001636 -0.004731 0.010124 0.000000 0.000000 0.000000
# 4 0.000000 0.000000 0.000000 0.026483 0.000000 0.000000
# 5 0.000000 0.000000 0.000000 0.000000 0.014315 0.000000
# 6 0.000000 0.000000 0.000000 0.000000 0.000000 0.016546
#
#
# Mechanical properties :
#
#
# Convention : Reuss Voigt Hill
#
# Bulk Modulus (GPa) = 67.80810 70.93783 69.37296
# Shear Modulus (GPa) = 41.86346 47.08734 44.47540
#
# Velocity S-wave (km/s) = 3.92617 4.16393 4.04680
# Velocity P-wave (km/s) = 6.74694 7.01700 6.88329
#
# Compressibility (1/GPa) = 0.01474750
#
# Stress axis : x y z
#
# Youngs Moduli (GPa) = 75.00752 79.97014 98.77038
#
# Poissons Ratio (x) = 0.33913 0.16154
# Poissons Ratio (y) = 0.31809 0.46724
# Poissons Ratio (z) = 0.12268 0.37830
#
# Static dielectric constant tensor:
#      x y z
#    x 2.134590 0.000000 0.000000 
#    y 0.000000 2.194470 0.000000 
#    z 0.000000 0.000000 2.091440 
# 
# From -- ./inp_files/41581.got.cif
#   From: 2010.05.17/outbox.cif.g08.bks.cpg/sg22_21_cif.got.tgz:41581.got - 2010.06.03 23:40:54.
