data_PCOD9328902
_publ_section_title
;
Structure prediction by ZEFSAII (Michael W. Deem and Ramdas Pophale) SiO2 
 PCOD9328902
Probable space group: F 2 2 2
;
_chemical_formula_sum "Si O2"
_cell_formula_units_Z 104
_cell_length_a 18.349298
_cell_length_b 13.924269
_cell_length_c 20.683280
_cell_angle_alpha 90.000000
_cell_angle_beta 90.000000
_cell_angle_gamma 90.000000
_cell_volume 5284.589650
_symmetry_space_group_name_H-M "F 2 2 2"
_symmetry_group_IT_number 22
_symmetry_cell_setting 'orthorhombic'
loop_
_space_group_symop_operation_xyz
x,y,z
-x,-y,z
x,-y,-z
-x,y,-z
x,1/2+y,1/2+z
-x,1/2-y,1/2+z
x,1/2-y,1/2-z
-x,1/2+y,1/2-z
1/2+x,y,1/2+z
1/2-x,-y,1/2+z
1/2+x,-y,1/2-z
1/2-x,y,1/2-z
1/2+x,1/2+y,z
1/2-x,1/2-y,z
1/2+x,1/2-y,-z
1/2-x,1/2+y,-z
loop_
_atom_site_type_symbol
_atom_site_label
_atom_site_fract_x
_atom_site_fract_y
_atom_site_fract_z
Si Si1 0.459125 0.250000 0.250000
Si Si2 0.418934 0.901318 0.029636
Si Si3 0.671482 0.860466 0.728435
Si Si4 0.098711 0.904193 0.097397
Si Si5 0.550147 0.091491 0.179503
Si Si6 0.665407 0.283818 0.983258
Si Si7 0.070268 0.370324 0.372871
O O1 0.506723 0.185939 0.201062
O O2 0.423922 0.328521 0.200525
O O3 0.422493 0.903615 0.106646
O O4 0.500000 0.892801 0.000000
O O5 0.374135 0.809908 0.009832
O O6 0.388059 0.000000 0.000000
O O7 0.666616 0.750000 0.750000
O O8 0.750000 0.895792 0.750000
O O9 0.649923 0.864083 0.654166
O O10 0.613294 0.919325 0.768730
O O11 0.015292 0.863507 0.103767
O O12 0.090165 0.017832 0.113173
O O13 0.139242 0.870453 0.031740
O O14 0.500000 0.000000 0.184110
O O15 0.750000 0.250000 0.979464
O O16 0.626944 0.310040 0.915739
#
# Coordination Sequence:
#
# PCOD9328902 Si02
#       7
#     8  16  16  16  16  16  16
#     4  12  22  40  72 106 144 176 232 300 338 424
#     4  11  23  43  66  99 128 177 228 283 351 416
#     4  11  23  38  64 104 141 175 219 281 359 412
#     4  11  23  45  72 103 137 185 243 293 352 432
#     4  12  22  40  69 101 137 176 232 285 343 420
#     4  12  27  44  69  98 138 182 229 303 362 424
#     4  11  24  45  72 103 135 190 246 284 357 434
#
# _framework density 19.679863000000001
#
# number of rings (size 3 to 8) (size 9 to 14) (size 15 to 20)
#    0.000    0.615    3.846    5.538    4.308    2.462 
#    0.000    0.385    0.000    0.000    0.000    0.000 
#    0.000    0.000    0.000    0.000    0.000    0.000 
#
# Total GULP energy -145110.426950 kJ/mol
# GULP energy per Si atom -5581.170267 kJ/mol
# Density = 1.963507 g / cm^3
# Si number density = 19.679863 Si / 1000 Ang^3
#
#
#
# Elastic Constant Matrix: (Units=GPa)
#
#
# Indices 1 2 3 4 5 6 
#
# 1 69.2722 30.0669 13.3585 0.0000 0.0000 0.0000
# 2 30.0669 112.0050 27.5291 0.0000 0.0000 0.0000
# 3 13.3585 27.5291 125.7845 0.0000 0.0000 0.0000
# 4 0.0000 0.0000 0.0000 35.9704 0.0000 0.0000
# 5 0.0000 0.0000 0.0000 0.0000 20.6806 0.0000
# 6 0.0000 0.0000 0.0000 0.0000 0.0000 51.2546
#
#
#
# Elastic Compliance Matrix: (Units=1/GPa)
#
#
# Indices 1 2 3 4 5 6 
#
# 1 0.016420 -0.004205 -0.000823 0.000000 0.000000 0.000000
# 2 -0.004205 0.010513 -0.001854 0.000000 0.000000 0.000000
# 3 -0.000823 -0.001854 0.008443 0.000000 0.000000 0.000000
# 4 0.000000 0.000000 0.000000 0.027801 0.000000 0.000000
# 5 0.000000 0.000000 0.000000 0.000000 0.048355 0.000000
# 6 0.000000 0.000000 0.000000 0.000000 0.000000 0.019510
#
#
# Mechanical properties :
#
#
# Convention : Reuss Voigt Hill
#
# Bulk Modulus (GPa) = 46.27488 49.88564 48.08026
# Shear Modulus (GPa) = 32.89232 37.32160 35.10696
#
# Velocity S-wave (km/s) = 4.09267 4.35953 4.22821
# Velocity P-wave (km/s) = 6.77482 7.12350 6.95135
#
# Compressibility (1/GPa) = 0.02161000
#
# Stress axis : x y z
#
# Youngs Moduli (GPa) = 60.90169 95.12197 118.43622
#
# Poissons Ratio (x) = 0.40003 0.09752
# Poissons Ratio (y) = 0.25612 0.21961
# Poissons Ratio (z) = 0.05015 0.17638
#
# Static dielectric constant tensor:
#      x y z
#    x 1.637240 0.000000 0.000000 
#    y 0.000000 1.710320 0.000000 
#    z 0.000000 0.000000 1.546420 
# 
# From -- ./inp_files/44266.got.cif
#   From: 2010.05.17/outbox.cif.g08.bks.cpg/sg22_23_cif.got.tgz:44266.got - 2010.06.03 23:40:54.
