data_PCOD9328699
_publ_section_title
;
Structure prediction by ZEFSAII (Michael W. Deem and Ramdas Pophale) SiO2 
 PCOD9328699
Probable space group: F 2 2 2
;
_chemical_formula_sum "Si O2"
_cell_formula_units_Z 80
_cell_length_a 16.404233
_cell_length_b 26.249131
_cell_length_c 9.572719
_cell_angle_alpha 90.000000
_cell_angle_beta 90.000000
_cell_angle_gamma 90.000000
_cell_volume 4121.982752
_symmetry_space_group_name_H-M "F 2 2 2"
_symmetry_group_IT_number 22
_symmetry_cell_setting 'orthorhombic'
loop_
_space_group_symop_operation_xyz
x,y,z
-x,-y,z
x,-y,-z
-x,y,-z
x,1/2+y,1/2+z
-x,1/2-y,1/2+z
x,1/2-y,1/2-z
-x,1/2+y,1/2-z
1/2+x,y,1/2+z
1/2-x,-y,1/2+z
1/2+x,-y,1/2-z
1/2-x,y,1/2-z
1/2+x,1/2+y,z
1/2-x,1/2-y,z
1/2+x,1/2-y,-z
1/2-x,1/2+y,-z
loop_
_atom_site_type_symbol
_atom_site_label
_atom_site_fract_x
_atom_site_fract_y
_atom_site_fract_z
Si Si1 0.750000 0.750000 0.512240
Si Si2 0.981173 0.442337 0.834712
Si Si3 0.299640 0.960486 0.873536
Si Si4 0.890986 0.860808 0.748487
Si Si5 0.752154 0.138069 0.017907
Si Si6 0.112425 0.750000 0.250000
O O1 0.750504 0.693849 0.444431
O O2 0.827639 0.749974 0.616329
O O3 0.884734 0.437826 0.819995
O O4 0.000000 0.500000 0.792044
O O5 0.039902 0.403144 0.757633
O O6 0.000000 0.436967 0.000000
O O7 0.250000 0.987535 0.750000
O O8 0.248818 0.911858 0.924465
O O9 0.315002 0.000000 0.000000
O O10 0.830356 0.863996 0.880205
O O11 0.829064 0.865357 0.616234
O O12 0.930858 0.804354 0.747245
#
# Coordination Sequence:
#
# PCOD9328699 Si02
#       6
#     8  16  16  16  16   8
#     4   7  12  26  51  84 116 142 188 232 272 336
#     4  11  20  36  57  86 114 146 193 243 286 342
#     4  12  26  40  60  85 117 151 198 239 293 354
#     4   9  16  30  61  86 117 146 194 242 279 331
#     4   9  17  32  58  89 113 151 191 235 284 339
#     4   7  12  24  48  90 113 142 188 236 273 326
#
# _framework density 19.408135999999999
#
# number of rings (size 3 to 8) (size 9 to 14) (size 15 to 20)
#    0.000    2.400    4.000    2.400    5.600    0.000 
#    0.000    1.500    4.400    0.000    0.000    0.000 
#    0.000    0.000    0.000    0.000    0.000    0.000 
#
# Total GULP energy -111425.954264 kJ/mol
# GULP energy per Si atom -5571.297713 kJ/mol
# Density = 1.936396 g / cm^3
# Si number density = 19.408136 Si / 1000 Ang^3
#
#
#
# Elastic Constant Matrix: (Units=GPa)
#
#
# Indices 1 2 3 4 5 6 
#
# 1 89.7977 45.8765 23.2181 0.0000 0.0000 0.0000
# 2 45.8765 151.9124 19.4652 0.0000 0.0000 0.0000
# 3 23.2181 19.4652 25.7978 0.0000 0.0000 0.0000
# 4 0.0000 0.0000 0.0000 19.1801 0.0000 0.0000
# 5 0.0000 0.0000 0.0000 0.0000 12.0430 0.0000
# 6 0.0000 0.0000 0.0000 0.0000 0.0000 31.7920
#
#
#
# Elastic Compliance Matrix: (Units=1/GPa)
#
#
# Indices 1 2 3 4 5 6 
#
# 1 0.015863 -0.003278 -0.011803 0.000000 0.000000 0.000000
# 2 -0.003278 0.007965 -0.003059 0.000000 0.000000 0.000000
# 3 -0.011803 -0.003059 0.051694 0.000000 0.000000 0.000000
# 4 0.000000 0.000000 0.000000 0.052137 0.000000 0.000000
# 5 0.000000 0.000000 0.000000 0.000000 0.083036 0.000000
# 6 0.000000 0.000000 0.000000 0.000000 0.000000 0.031454
#
#
# Mechanical properties :
#
#
# Convention : Reuss Voigt Hill
#
# Bulk Modulus (GPa) = 25.48384 49.40307 37.44345
# Shear Modulus (GPa) = 17.15208 24.53291 20.84250
#
# Velocity S-wave (km/s) = 2.97603 3.55921 3.28060
# Velocity P-wave (km/s) = 4.99680 6.51158 5.80382
#
# Compressibility (1/GPa) = 0.03924056
#
# Stress axis : x y z
#
# Youngs Moduli (GPa) = 63.04120 125.55417 19.34458
#
# Poissons Ratio (x) = 0.41157 0.22832
# Poissons Ratio (y) = 0.20665 0.05918
# Poissons Ratio (z) = 0.74408 0.38411
#
# Static dielectric constant tensor:
#      x y z
#    x 1.685740 0.000000 0.000000 
#    y 0.000000 1.724900 0.000000 
#    z 0.000000 0.000000 1.711990 
# 
# From -- ./inp_files/11694.got.cif
#   From: 2010.05.17/outbox.cif.g08.bks.cpg/sg22_6_cif.got.tgz:11694.got - 2010.06.03 23:40:54.
