data_PCOD9328265
_publ_section_title
;
Structure prediction by ZEFSAII (Michael W. Deem and Ramdas Pophale) SiO2 
 PCOD9328265
Probable space group: F 2 2 2
;
_chemical_formula_sum "Si O2"
_cell_formula_units_Z 72
_cell_length_a 12.030539
_cell_length_b 22.191639
_cell_length_c 14.025072
_cell_angle_alpha 90.000000
_cell_angle_beta 90.000000
_cell_angle_gamma 90.000000
_cell_volume 3744.376955
_symmetry_space_group_name_H-M "F 2 2 2"
_symmetry_group_IT_number 22
_symmetry_cell_setting 'orthorhombic'
loop_
_space_group_symop_operation_xyz
x,y,z
-x,-y,z
x,-y,-z
-x,y,-z
x,1/2+y,1/2+z
-x,1/2-y,1/2+z
x,1/2-y,1/2-z
-x,1/2+y,1/2-z
1/2+x,y,1/2+z
1/2-x,-y,1/2+z
1/2+x,-y,1/2-z
1/2-x,y,1/2-z
1/2+x,1/2+y,z
1/2-x,1/2-y,z
1/2+x,1/2-y,-z
1/2-x,1/2+y,-z
loop_
_atom_site_type_symbol
_atom_site_label
_atom_site_fract_x
_atom_site_fract_y
_atom_site_fract_z
Si Si1 0.583214 0.819896 0.276213
Si Si2 0.250000 0.412424 0.250000
Si Si3 0.870092 0.784152 0.015491
Si Si4 0.132982 0.006227 0.887897
Si Si5 0.654814 0.141846 0.321716
O O1 0.596337 0.750000 0.250000
O O2 0.657099 0.865251 0.215127
O O3 0.615531 0.822929 0.388128
O O4 0.458809 0.842460 0.268553
O O5 0.195975 0.454981 0.328988
O O6 0.750000 0.750000 0.028063
O O7 0.850047 0.822651 0.920817
O O8 0.000000 0.757150 0.000000
O O9 0.164842 0.071636 0.847696
O O10 0.000000 0.000000 0.875799
O O11 0.157357 0.000000 0.000000
O O12 0.750000 0.161383 0.250000
#
# Coordination Sequence:
#
# PCOD9328265 Si02
#       5
#    16   8  16  16  16
#     4  11  24  40  66  95 132 174 218 278 333 399
#     4  12  21  40  68  94 125 164 222 272 332 394
#     4  10  23  41  64  97 135 176 225 274 339 403
#     4  11  23  41  68  94 128 174 220 275 332 405
#     4  11  24  40  64  98 132 174 224 273 337 397
#
# _framework density 19.228833000000002
#
# number of rings (size 3 to 8) (size 9 to 14) (size 15 to 20)
#    0.000    1.111    3.333    3.000   12.444    0.000 
#    0.000    0.000    0.000    4.667    0.000    0.000 
#    0.000    0.000    0.000    0.000    0.000    0.000 
#
# Total GULP energy -100362.559894 kJ/mol
# GULP energy per Si atom -5575.697772 kJ/mol
# Density = 1.918507 g / cm^3
# Si number density = 19.228833 Si / 1000 Ang^3
#
#
#
# Elastic Constant Matrix: (Units=GPa)
#
#
# Indices 1 2 3 4 5 6 
#
# 1 164.4537 66.9399 53.0797 0.0000 0.0000 0.0000
# 2 66.9399 109.0121 36.1896 0.0000 0.0000 0.0000
# 3 53.0797 36.1896 85.3393 0.0000 0.0000 0.0000
# 4 0.0000 0.0000 0.0000 24.4117 0.0000 0.0000
# 5 0.0000 0.0000 0.0000 0.0000 38.8319 0.0000
# 6 0.0000 0.0000 0.0000 0.0000 0.0000 30.1099
#
#
#
# Elastic Compliance Matrix: (Units=1/GPa)
#
#
# Indices 1 2 3 4 5 6 
#
# 1 0.009061 -0.004298 -0.003813 0.000000 0.000000 0.000000
# 2 -0.004298 0.012715 -0.002719 0.000000 0.000000 0.000000
# 3 -0.003813 -0.002719 0.015243 0.000000 0.000000 0.000000
# 4 0.000000 0.000000 0.000000 0.040964 0.000000 0.000000
# 5 0.000000 0.000000 0.000000 0.000000 0.025752 0.000000
# 6 0.000000 0.000000 0.000000 0.000000 0.000000 0.033212
#
#
# Mechanical properties :
#
#
# Convention : Reuss Voigt Hill
#
# Bulk Modulus (GPa) = 65.10925 74.58039 69.84482
# Shear Modulus (GPa) = 30.53885 32.17708 31.35797
#
# Velocity S-wave (km/s) = 3.98952 4.09513 4.04267
# Velocity P-wave (km/s) = 7.42667 7.82496 7.62842
#
# Compressibility (1/GPa) = 0.01535880
#
# Stress axis : x y z
#
# Youngs Moduli (GPa) = 110.36329 78.64639 65.60585
#
# Poissons Ratio (x) = 0.33803 0.25016
# Poissons Ratio (y) = 0.47435 0.17836
# Poissons Ratio (z) = 0.42083 0.21382
#
# Static dielectric constant tensor:
#      x y z
#    x 1.777660 0.000000 0.000000 
#    y 0.000000 1.680260 0.000000 
#    z 0.000000 0.000000 1.647940 
# 
# From -- ./inp_files/28049.got.cif
#   From: 2010.05.17/outbox.cif.g08.bks.cpg/sg22_15_cif.got.tgz:28049.got - 2010.06.03 23:40:54.
