data_PCOD9328462
_publ_section_title
;
Structure prediction by ZEFSAII (Michael W. Deem and Ramdas Pophale) SiO2 
 PCOD9328462
Probable space group: F 2 2 2
;
_chemical_formula_sum "Si O2"
_cell_formula_units_Z 88
_cell_length_a 15.318411
_cell_length_b 11.330459
_cell_length_c 25.520314
_cell_angle_alpha 90.000000
_cell_angle_beta 90.000000
_cell_angle_gamma 90.000000
_cell_volume 4429.423800
_symmetry_space_group_name_H-M "F 2 2 2"
_symmetry_group_IT_number 22
_symmetry_cell_setting 'orthorhombic'
loop_
_space_group_symop_operation_xyz
x,y,z
-x,-y,z
x,-y,-z
-x,y,-z
x,1/2+y,1/2+z
-x,1/2-y,1/2+z
x,1/2-y,1/2-z
-x,1/2+y,1/2-z
1/2+x,y,1/2+z
1/2-x,-y,1/2+z
1/2+x,-y,1/2-z
1/2-x,y,1/2-z
1/2+x,1/2+y,z
1/2-x,1/2-y,z
1/2+x,1/2-y,-z
1/2-x,1/2+y,-z
loop_
_atom_site_type_symbol
_atom_site_label
_atom_site_fract_x
_atom_site_fract_y
_atom_site_fract_z
Si Si1 0.173692 0.660698 0.868661
Si Si2 0.858164 0.500000 0.500000
Si Si3 0.391557 0.752198 0.372149
Si Si4 0.452549 0.780431 0.550720
Si Si5 0.245720 0.083424 0.902120
Si Si6 0.487122 0.637532 0.711138
O O1 0.250000 0.750000 0.851913
O O2 0.124112 0.708572 0.920738
O O3 0.221969 0.540843 0.882192
O O4 0.098579 0.639905 0.825753
O O5 0.914432 0.404143 0.531096
O O6 0.800250 0.431205 0.457812
O O7 0.472942 0.797249 0.405701
O O8 0.330081 0.666172 0.405828
O O9 0.325033 0.859483 0.362208
O O10 0.429992 0.676755 0.324477
O O11 0.500000 0.723704 0.500000
O O12 0.500000 0.500000 0.729937
O O13 0.477610 0.750000 0.750000
#
# Coordination Sequence:
#
# PCOD9328462 Si02
#       6
#    16   8  16  16  16  16
#     4  11  24  43  68  97 136 178 222 283 345 401
#     4  12  23  36  62  97 140 186 234 277 312 394
#     4  10  24  43  65  94 138 180 217 279 341 398
#     4  11  23  37  58  95 138 182 230 272 324 390
#     4  11  23  40  66  95 140 180 227 272 329 393
#     4  11  25  50  75 102 133 172 228 287 358 427
#
# _framework density 19.867142999999999
#
# number of rings (size 3 to 8) (size 9 to 14) (size 15 to 20)
#    0.000    1.091    5.455    0.273    2.545    1.818 
#    0.000    2.727    0.000    0.000    0.000    0.000 
#    0.000    0.000    0.000    0.000    0.000    0.000 
#
# Total GULP energy -122768.711861 kJ/mol
# GULP energy per Si atom -5580.395994 kJ/mol
# Density = 1.982192 g / cm^3
# Si number density = 19.867143 Si / 1000 Ang^3
#
#
#
# Elastic Constant Matrix: (Units=GPa)
#
#
# Indices 1 2 3 4 5 6 
#
# 1 99.3981 65.9009 9.8290 0.0000 0.0000 0.0000
# 2 65.9009 167.3754 42.8405 0.0000 0.0000 0.0000
# 3 9.8290 42.8405 42.8078 0.0000 0.0000 0.0000
# 4 0.0000 0.0000 0.0000 23.2772 0.0000 0.0000
# 5 0.0000 0.0000 0.0000 0.0000 -4.2337 0.0000
# 6 0.0000 0.0000 0.0000 0.0000 0.0000 32.6273
#
#
#
# Elastic Compliance Matrix: (Units=1/GPa)
#
#
# Indices 1 2 3 4 5 6 
#
# 1 0.013909 -0.006263 0.003075 0.000000 0.000000 0.000000
# 2 -0.006263 0.010852 -0.009423 0.000000 0.000000 0.000000
# 3 0.003075 -0.009423 0.032084 0.000000 0.000000 0.000000
# 4 0.000000 0.000000 0.000000 0.042960 0.000000 0.000000
# 5 0.000000 0.000000 0.000000 0.000000 -0.236197 0.000000
# 6 0.000000 0.000000 0.000000 0.000000 0.000000 0.030649
#
#
# Mechanical properties :
#
#
# Convention : Reuss Voigt Hill
#
# Bulk Modulus (GPa) = 31.62278 60.74691 46.18485
# Shear Modulus (GPa) = -71.45093 23.06821 -24.19136
#
# Velocity S-wave (km/s) = -6.00354 3.41122 -3.49328
# Velocity P-wave (km/s) = 5.66612 6.79398 2.65078
#
# Compressibility (1/GPa) = 0.03162277
#
# Stress axis : x y z
#
# Youngs Moduli (GPa) = 71.89501 92.14495 31.16803
#
# Poissons Ratio (x) = 0.57714 -0.09583
# Poissons Ratio (y) = 0.45031 0.29369
# Poissons Ratio (z) = -0.22104 0.86825
#
# Static dielectric constant tensor:
#      x y z
#    x 1.712510 0.000000 0.000000 
#    y 0.000000 1.760720 0.000000 
#    z 0.000000 0.000000 1.705590 
# 
# From -- ./inp_files/28339.got.cif
#   From: 2010.05.17/outbox.cif.g08.bks.cpg/sg22_15_cif.got.tgz:28339.got - 2010.06.03 23:40:54.
