data_PCOD9328281
_publ_section_title
;
Structure prediction by ZEFSAII (Michael W. Deem and Ramdas Pophale) SiO2 
 PCOD9328281
Probable space group: F 2 2 2
;
_chemical_formula_sum "Si O2"
_cell_formula_units_Z 108
_cell_length_a 11.757110
_cell_length_b 30.170079
_cell_length_c 14.886451
_cell_angle_alpha 90.000000
_cell_angle_beta 90.000000
_cell_angle_gamma 90.000000
_cell_volume 5280.416763
_symmetry_space_group_name_H-M "F 2 2 2"
_symmetry_group_IT_number 22
_symmetry_cell_setting 'orthorhombic'
loop_
_space_group_symop_operation_xyz
x,y,z
-x,-y,z
x,-y,-z
-x,y,-z
x,1/2+y,1/2+z
-x,1/2-y,1/2+z
x,1/2-y,1/2-z
-x,1/2+y,1/2-z
1/2+x,y,1/2+z
1/2-x,-y,1/2+z
1/2+x,-y,1/2-z
1/2-x,y,1/2-z
1/2+x,1/2+y,z
1/2-x,1/2-y,z
1/2+x,1/2-y,-z
1/2-x,1/2+y,-z
loop_
_atom_site_type_symbol
_atom_site_label
_atom_site_fract_x
_atom_site_fract_y
_atom_site_fract_z
Si Si1 0.130685 0.987345 0.598920
Si Si2 0.382388 0.740298 0.945838
Si Si3 0.778871 0.606577 0.080901
Si Si4 0.500000 0.000000 0.500000
Si Si5 0.439723 0.146960 0.363775
Si Si6 0.866495 0.815321 0.308638
Si Si7 0.366226 0.082392 0.587524
Si Si8 0.250000 0.044990 0.750000
O O1 0.150000 0.935557 0.610595
O O2 0.176549 0.000000 0.500000
O O3 0.189090 0.014316 0.677437
O O4 0.000000 0.000000 0.599493
O O5 0.250000 0.750000 0.979413
O O6 0.394538 0.688440 0.922078
O O7 0.390308 0.768647 0.854235
O O8 0.500000 0.751349 0.000000
O O9 0.661344 0.610744 0.136506
O O10 0.847056 0.650430 0.109021
O O11 0.734961 0.597603 0.979478
O O12 0.577228 0.964360 0.554889
O O13 0.455740 0.165555 0.263229
O O14 0.544735 0.122425 0.407986
O O15 0.750000 0.812933 0.250000
O O16 0.330455 0.074815 0.689514
#
# Coordination Sequence:
#
# PCOD9328281 Si02
#       8
#    16  16  16   4  16  16  16   8
#     4  11  26  46  64  92 139 185 231 291 353 424
#     4  12  24  46  73 112 145 187 236 294 365 427
#     4  11  21  42  68  96 131 177 230 288 346 415
#     4  12  24  40  72  92 132 184 248 288 340 432
#     4  11  24  42  74 103 135 176 238 299 335 424
#     4  10  23  41  75 102 135 183 245 290 337 440
#     4  12  25  44  64 105 136 184 231 294 359 419
#     4  12  28  42  66  96 141 181 232 296 360 422
#
# _framework density 20.452931
#
# number of rings (size 3 to 8) (size 9 to 14) (size 15 to 20)
#    0.000    0.741    5.926    2.222    6.222    0.000 
#    5.333    0.000    0.000    0.889    0.000    0.000 
#    0.000    0.000    0.000    0.000    0.000    0.000 
#
# Total GULP energy -150638.518280 kJ/mol
# GULP energy per Si atom -5579.204381 kJ/mol
# Density = 2.040638 g / cm^3
# Si number density = 20.452931 Si / 1000 Ang^3
#
#
#
# Elastic Constant Matrix: (Units=GPa)
#
#
# Indices 1 2 3 4 5 6 
#
# 1 94.6469 51.8063 45.9883 0.0000 0.0000 0.0000
# 2 51.8063 137.1011 44.3106 0.0000 0.0000 0.0000
# 3 45.9883 44.3106 122.7238 0.0000 0.0000 0.0000
# 4 0.0000 0.0000 0.0000 35.0736 0.0000 0.0000
# 5 0.0000 0.0000 0.0000 0.0000 36.8761 0.0000
# 6 0.0000 0.0000 0.0000 0.0000 0.0000 31.9767
#
#
#
# Elastic Compliance Matrix: (Units=1/GPa)
#
#
# Indices 1 2 3 4 5 6 
#
# 1 0.014885 -0.004327 -0.004016 0.000000 0.000000 0.000000
# 2 -0.004327 0.009515 -0.001814 0.000000 0.000000 0.000000
# 3 -0.004016 -0.001814 0.010308 0.000000 0.000000 0.000000
# 4 0.000000 0.000000 0.000000 0.028511 0.000000 0.000000
# 5 0.000000 0.000000 0.000000 0.000000 0.027118 0.000000
# 6 0.000000 0.000000 0.000000 0.000000 0.000000 0.031273
#
#
# Mechanical properties :
#
#
# Convention : Reuss Voigt Hill
#
# Bulk Modulus (GPa) = 69.46741 70.96467 70.21604
# Shear Modulus (GPa) = 34.07801 34.94306 34.51053
#
# Velocity S-wave (km/s) = 4.08630 4.13784 4.11215
# Velocity P-wave (km/s) = 7.50347 7.58952 7.54662
#
# Compressibility (1/GPa) = 0.01439524
#
# Stress axis : x y z
#
# Youngs Moduli (GPa) = 67.18131 105.09534 97.01018
#
# Poissons Ratio (x) = 0.45472 0.38956
# Poissons Ratio (y) = 0.29068 0.17599
# Poissons Ratio (z) = 0.26978 0.19066
#
# Static dielectric constant tensor:
#      x y z
#    x 1.783030 0.000000 0.000000 
#    y 0.000000 1.745030 0.000000 
#    z 0.000000 0.000000 1.749900 
# 
# From -- ./inp_files/28476.got.cif
#   From: 2010.05.17/outbox.cif.g08.bks.cpg/sg22_15_cif.got.tgz:28476.got - 2010.06.03 23:40:54.
