data_PCOD9328846
_publ_section_title
;
Structure prediction by ZEFSAII (Michael W. Deem and Ramdas Pophale) SiO2 
 PCOD9328846
Probable space group: F 2 2 2
;
_chemical_formula_sum "Si O2"
_cell_formula_units_Z 68
_cell_length_a 16.076119
_cell_length_b 22.210879
_cell_length_c 8.073313
_cell_angle_alpha 90.000000
_cell_angle_beta 90.000000
_cell_angle_gamma 90.000000
_cell_volume 2882.695358
_symmetry_space_group_name_H-M "F 2 2 2"
_symmetry_group_IT_number 22
_symmetry_cell_setting 'orthorhombic'
loop_
_space_group_symop_operation_xyz
x,y,z
-x,-y,z
x,-y,-z
-x,y,-z
x,1/2+y,1/2+z
-x,1/2-y,1/2+z
x,1/2-y,1/2-z
-x,1/2+y,1/2-z
1/2+x,y,1/2+z
1/2-x,-y,1/2+z
1/2+x,-y,1/2-z
1/2-x,y,1/2-z
1/2+x,1/2+y,z
1/2-x,1/2-y,z
1/2+x,1/2-y,-z
1/2-x,1/2+y,-z
loop_
_atom_site_type_symbol
_atom_site_label
_atom_site_fract_x
_atom_site_fract_y
_atom_site_fract_z
Si Si1 0.631069 0.900210 0.096110
Si Si2 0.292717 0.558703 0.072714
Si Si3 0.407117 0.780714 0.068889
Si Si4 0.000000 0.500000 0.000000
Si Si5 0.597697 0.158900 0.550335
O O1 0.614847 0.866887 0.268397
O O2 0.720017 0.929192 0.060905
O O3 0.627860 0.847167 0.956955
O O4 0.562598 0.953102 0.087996
O O5 0.250000 0.550043 0.250000
O O6 0.338463 0.500000 0.000000
O O7 0.354038 0.614975 0.073309
O O8 0.407992 0.750000 0.250000
O O9 0.500000 0.788098 0.000000
O O10 0.368443 0.726894 0.960695
O O11 0.500000 0.159261 0.500000
#
# Coordination Sequence:
#
# PCOD9328846 Si02
#       5
#    16  16  16   4  16
#     4  12  25  46  73 103 146 184 242 289 356 420
#     4  12  27  46  68 102 147 189 234 293 354 419
#     4  11  22  41  70 103 142 183 235 294 353 418
#     4  12  28  40  74 108 138 192 228 288 348 424
#     4  11  26  45  73 106 138 186 238 290 354 420
#
# _framework density 23.589033000000001
#
# number of rings (size 3 to 8) (size 9 to 14) (size 15 to 20)
#    0.000    0.471    2.353    7.059    3.294    1.412 
#    0.000    4.706    0.000    0.000    0.000    0.000 
#    0.000    0.000    0.000    0.000    0.000    0.000 
#
# Total GULP energy -95062.342348 kJ/mol
# GULP energy per Si atom -5591.902491 kJ/mol
# Density = 2.353534 g / cm^3
# Si number density = 23.589033 Si / 1000 Ang^3
#
#
#
# Elastic Constant Matrix: (Units=GPa)
#
#
# Indices 1 2 3 4 5 6 
#
# 1 59.0942 18.9215 4.3211 0.0000 0.0000 0.0000
# 2 18.9215 164.3025 34.4369 0.0000 0.0000 0.0000
# 3 4.3211 34.4369 145.1286 0.0000 0.0000 0.0000
# 4 0.0000 0.0000 0.0000 41.6741 0.0000 0.0000
# 5 0.0000 0.0000 0.0000 0.0000 23.4828 0.0000
# 6 0.0000 0.0000 0.0000 0.0000 0.0000 21.4545
#
#
#
# Elastic Compliance Matrix: (Units=1/GPa)
#
#
# Indices 1 2 3 4 5 6 
#
# 1 0.017570 -0.002014 -0.000045 0.000000 0.000000 0.000000
# 2 -0.002014 0.006636 -0.001515 0.000000 0.000000 0.000000
# 3 -0.000045 -0.001515 0.007251 0.000000 0.000000 0.000000
# 4 0.000000 0.000000 0.000000 0.023996 0.000000 0.000000
# 5 0.000000 0.000000 0.000000 0.000000 0.042584 0.000000
# 6 0.000000 0.000000 0.000000 0.000000 0.000000 0.046610
#
#
# Mechanical properties :
#
#
# Convention : Reuss Voigt Hill
#
# Bulk Modulus (GPa) = 41.13605 53.76491 47.45048
# Shear Modulus (GPa) = 31.26990 38.04536 34.65763
#
# Velocity S-wave (km/s) = 3.64485 4.02038 3.83721
# Velocity P-wave (km/s) = 5.93209 6.66281 6.30804
#
# Compressibility (1/GPa) = 0.02430958
#
# Stress axis : x y z
#
# Youngs Moduli (GPa) = 56.91421 150.69963 137.90863
#
# Poissons Ratio (x) = 0.30350 0.00624
# Poissons Ratio (y) = 0.11462 0.20888
# Poissons Ratio (z) = 0.00258 0.22825
#
# Static dielectric constant tensor:
#      x y z
#    x 2.041750 0.000000 0.000000 
#    y 0.000000 1.973890 0.000000 
#    z 0.000000 0.000000 1.961490 
# 
# From -- ./inp_files/11238.got.cif
#   From: 2010.05.17/outbox.cif.g08.bks.cpg/sg22_6_cif.got.tgz:11238.got - 2010.06.03 23:40:54.
