data_PCOD9328047
_publ_section_title
;
Structure prediction by ZEFSAII (Michael W. Deem and Ramdas Pophale) SiO2 
 PCOD9328047
Probable space group: F 2 2 2
;
_chemical_formula_sum "Si O2"
_cell_formula_units_Z 48
_cell_length_a 5.167899
_cell_length_b 14.171843
_cell_length_c 28.217141
_cell_angle_alpha 90.000000
_cell_angle_beta 90.000000
_cell_angle_gamma 90.000000
_cell_volume 2066.585406
_symmetry_space_group_name_H-M "F 2 2 2"
_symmetry_group_IT_number 22
_symmetry_cell_setting 'orthorhombic'
loop_
_space_group_symop_operation_xyz
x,y,z
-x,-y,z
x,-y,-z
-x,y,-z
x,1/2+y,1/2+z
-x,1/2-y,1/2+z
x,1/2-y,1/2-z
-x,1/2+y,1/2-z
1/2+x,y,1/2+z
1/2-x,-y,1/2+z
1/2+x,-y,1/2-z
1/2-x,y,1/2-z
1/2+x,1/2+y,z
1/2-x,1/2-y,z
1/2+x,1/2-y,-z
1/2-x,1/2+y,-z
loop_
_atom_site_type_symbol
_atom_site_label
_atom_site_fract_x
_atom_site_fract_y
_atom_site_fract_z
Si Si1 0.250000 0.250000 0.921755
Si Si2 0.995692 0.390517 0.716709
Si Si3 0.250000 0.250000 0.359223
Si Si4 0.755159 0.457220 0.447143
O O1 0.508678 0.220718 0.892505
O O2 0.206520 0.154242 0.950506
O O3 0.250000 0.370173 0.750000
O O4 0.000000 0.500000 0.701416
O O5 0.750000 0.380790 0.750000
O O6 0.912014 0.322985 0.673762
O O7 0.500000 0.500000 0.423699
O O8 0.751910 0.500000 0.500000
O O9 0.000000 0.500000 0.420720
#
# Coordination Sequence:
#
# PCOD9328047 Si02
#       4
#     8  16   8  16
#     4  12  26  42  64 102 138 175 224 285 351 396
#     4  10  22  42  67  94 128 177 228 267 320 402
#     4  12  25  40  67 100 140 175 216 287 348 392
#     4  10  23  43  69  95 128 175 226 279 333 409
#
# _framework density 23.226718999999999
#
# number of rings (size 3 to 8) (size 9 to 14) (size 15 to 20)
#    0.000    1.333    0.000    4.500    0.000   10.667 
#    0.000    0.000    0.000    0.000    0.000    0.000 
#    0.000    0.000    0.000    0.000    0.000    0.000 
#
# Total GULP energy -66885.873698 kJ/mol
# GULP energy per Si atom -5573.822808 kJ/mol
# Density = 2.317385 g / cm^3
# Si number density = 23.226719 Si / 1000 Ang^3
#
#
#
# Elastic Constant Matrix: (Units=GPa)
#
#
# Indices 1 2 3 4 5 6 
#
# 1 230.4297 41.2697 26.9361 0.0000 0.0000 0.0000
# 2 41.2697 191.0900 49.8552 0.0000 0.0000 0.0000
# 3 26.9361 49.8552 73.6233 0.0000 0.0000 0.0000
# 4 0.0000 0.0000 0.0000 22.2585 0.0000 0.0000
# 5 0.0000 0.0000 0.0000 0.0000 13.5156 0.0000
# 6 0.0000 0.0000 0.0000 0.0000 0.0000 47.0968
#
#
#
# Elastic Compliance Matrix: (Units=1/GPa)
#
#
# Indices 1 2 3 4 5 6 
#
# 1 0.004604 -0.000674 -0.001228 0.000000 0.000000 0.000000
# 2 -0.000674 0.006455 -0.004124 0.000000 0.000000 0.000000
# 3 -0.001228 -0.004124 0.016825 0.000000 0.000000 0.000000
# 4 0.000000 0.000000 0.000000 0.044927 0.000000 0.000000
# 5 0.000000 0.000000 0.000000 0.000000 0.073989 0.000000
# 6 0.000000 0.000000 0.000000 0.000000 0.000000 0.021233
#
#
# Mechanical properties :
#
#
# Convention : Reuss Voigt Hill
#
# Bulk Modulus (GPa) = 63.16782 81.25165 72.20973
# Shear Modulus (GPa) = 26.97435 41.71298 34.34366
#
# Velocity S-wave (km/s) = 3.41156 4.24241 3.84946
# Velocity P-wave (km/s) = 6.54015 7.68474 7.13543
#
# Compressibility (1/GPa) = 0.01583085
#
# Stress axis : x y z
#
# Youngs Moduli (GPa) = 217.20375 154.92527 59.43590
#
# Poissons Ratio (x) = 0.10441 0.07299
# Poissons Ratio (y) = 0.14638 0.24514
# Poissons Ratio (z) = 0.26674 0.63897
#
# Static dielectric constant tensor:
#      x y z
#    x 1.877360 0.000000 0.000000 
#    y 0.000000 1.164600 0.000000 
#    z 0.000000 0.000000 0.973970 
# 
# From -- ./inp_files/54656.got.cif
#   From: 2010.05.17/outbox.cif.g08.bks.cpg/sg22_28_cif.got.tgz:54656.got - 2010.06.03 23:40:54.
