data_PCOD9328418
_publ_section_title
;
Structure prediction by ZEFSAII (Michael W. Deem and Ramdas Pophale) SiO2 
 PCOD9328418
Probable space group: F 2 2 2
;
_chemical_formula_sum "Si O2"
_cell_formula_units_Z 92
_cell_length_a 22.284592
_cell_length_b 7.805877
_cell_length_c 21.390473
_cell_angle_alpha 90.000000
_cell_angle_beta 90.000000
_cell_angle_gamma 90.000000
_cell_volume 3720.889552
_symmetry_space_group_name_H-M "F 2 2 2"
_symmetry_group_IT_number 22
_symmetry_cell_setting 'orthorhombic'
loop_
_space_group_symop_operation_xyz
x,y,z
-x,-y,z
x,-y,-z
-x,y,-z
x,1/2+y,1/2+z
-x,1/2-y,1/2+z
x,1/2-y,1/2-z
-x,1/2+y,1/2-z
1/2+x,y,1/2+z
1/2-x,-y,1/2+z
1/2+x,-y,1/2-z
1/2-x,y,1/2-z
1/2+x,1/2+y,z
1/2-x,1/2-y,z
1/2+x,1/2-y,-z
1/2-x,1/2+y,-z
loop_
_atom_site_type_symbol
_atom_site_label
_atom_site_fract_x
_atom_site_fract_y
_atom_site_fract_z
Si Si1 0.548842 0.151549 0.326889
Si Si2 0.616506 0.137060 0.912569
Si Si3 0.742038 0.956811 0.072164
Si Si4 0.250000 0.750000 0.750000
Si Si5 0.066979 0.810801 0.024502
Si Si6 0.661377 0.536968 0.163329
Si Si7 0.500000 0.500000 0.654988
O O1 0.563388 0.182318 0.401261
O O2 0.522671 0.335465 0.306666
O O3 0.500000 0.000000 0.323418
O O4 0.612917 0.082992 0.303498
O O5 0.674627 0.019003 0.902847
O O6 0.625569 0.312256 0.873173
O O7 0.555528 0.057793 0.887481
O O8 0.610346 0.187426 0.985523
O O9 0.750000 0.750000 0.078298
O O10 0.794499 0.045598 0.111636
O O11 0.747286 0.000000 0.000000
O O12 0.293462 0.630028 0.789970
O O13 0.000000 0.771198 0.000000
O O14 0.081868 0.000000 0.000000
#
# Coordination Sequence:
#
# PCOD9328418 Si02
#       7
#    16  16  16   4  16  16   8
#     4  12  23  39  66 108 150 198 240 302 388 455
#     4  11  22  36  59 103 146 198 245 292 379 441
#     4  10  24  38  59  99 144 197 248 303 376 451
#     4  12  24  52  84 102 136 208 282 316 368 466
#     4  11  17  30  55  93 150 198 233 281 364 468
#     4  11  23  45  74  99 140 200 258 315 379 441
#     4  12  24  37  66 106 160 186 244 306 361 478
#
# _framework density 24.725269999999998
#
# number of rings (size 3 to 8) (size 9 to 14) (size 15 to 20)
#    0.000    0.870    9.565    0.000    7.304    0.696 
#    0.000    0.000    1.913    2.087    0.000    0.000 
#    0.000    0.000    0.000    0.000    0.000    0.000 
#
# Total GULP energy -128842.947661 kJ/mol
# GULP energy per Si atom -5601.867290 kJ/mol
# Density = 2.466899 g / cm^3
# Si number density = 24.725270 Si / 1000 Ang^3
#
#
#
# Elastic Constant Matrix: (Units=GPa)
#
#
# Indices 1 2 3 4 5 6 
#
# 1 197.0451 66.5349 33.9872 0.0000 0.0000 0.0000
# 2 66.5349 125.4976 29.7242 0.0000 0.0000 0.0000
# 3 33.9872 29.7242 71.3491 0.0000 0.0000 0.0000
# 4 0.0000 0.0000 0.0000 32.6849 0.0000 0.0000
# 5 0.0000 0.0000 0.0000 0.0000 23.9387 0.0000
# 6 0.0000 0.0000 0.0000 0.0000 0.0000 41.9922
#
#
#
# Elastic Compliance Matrix: (Units=1/GPa)
#
#
# Indices 1 2 3 4 5 6 
#
# 1 0.006386 -0.002957 -0.001810 0.000000 0.000000 0.000000
# 2 -0.002957 0.010210 -0.002845 0.000000 0.000000 0.000000
# 3 -0.001810 -0.002845 0.016063 0.000000 0.000000 0.000000
# 4 0.000000 0.000000 0.000000 0.030595 0.000000 0.000000
# 5 0.000000 0.000000 0.000000 0.000000 0.041773 0.000000
# 6 0.000000 0.000000 0.000000 0.000000 0.000000 0.023814
#
#
# Mechanical properties :
#
#
# Convention : Reuss Voigt Hill
#
# Bulk Modulus (GPa) = 57.35612 72.70938 65.03275
# Shear Modulus (GPa) = 33.36100 37.29953 35.33027
#
# Velocity S-wave (km/s) = 3.67722 3.88823 3.78420
# Velocity P-wave (km/s) = 6.42472 7.04475 6.74187
#
# Compressibility (1/GPa) = 0.01743493
#
# Stress axis : x y z
#
# Youngs Moduli (GPa) = 156.60352 97.94634 62.25488
#
# Poissons Ratio (x) = 0.28960 0.11268
# Poissons Ratio (y) = 0.46303 0.17711
# Poissons Ratio (z) = 0.28345 0.27865
#
# Static dielectric constant tensor:
#      x y z
#    x 1.959880 0.000000 0.000000 
#    y 0.000000 2.029190 0.000000 
#    z 0.000000 0.000000 2.000190 
# 
# From -- ./inp_files/53873.got.cif
#   From: 2010.05.17/outbox.cif.g08.bks.cpg/sg22_27_cif.got.tgz:53873.got - 2010.06.03 23:40:54.
