data_PCOD9328368
_publ_section_title
;
Structure prediction by ZEFSAII (Michael W. Deem and Ramdas Pophale) SiO2 
 PCOD9328368
Probable space group: F 2 2 2
;
_chemical_formula_sum "Si O2"
_cell_formula_units_Z 116
_cell_length_a 10.734548
_cell_length_b 18.209785
_cell_length_c 27.894086
_cell_angle_alpha 90.000000
_cell_angle_beta 90.000000
_cell_angle_gamma 90.000000
_cell_volume 5452.563299
_symmetry_space_group_name_H-M "F 2 2 2"
_symmetry_group_IT_number 22
_symmetry_cell_setting 'orthorhombic'
loop_
_space_group_symop_operation_xyz
x,y,z
-x,-y,z
x,-y,-z
-x,y,-z
x,1/2+y,1/2+z
-x,1/2-y,1/2+z
x,1/2-y,1/2-z
-x,1/2+y,1/2-z
1/2+x,y,1/2+z
1/2-x,-y,1/2+z
1/2+x,-y,1/2-z
1/2-x,y,1/2-z
1/2+x,1/2+y,z
1/2-x,1/2-y,z
1/2+x,1/2-y,-z
1/2-x,1/2+y,-z
loop_
_atom_site_type_symbol
_atom_site_label
_atom_site_fract_x
_atom_site_fract_y
_atom_site_fract_z
Si Si1 0.989866 0.177313 0.945580
Si Si2 0.374844 0.959139 0.129435
Si Si3 0.551030 0.361255 0.289927
Si Si4 0.004024 0.588798 0.315056
Si Si5 0.873437 0.791245 0.369683
Si Si6 0.213229 0.665773 0.381219
Si Si7 0.250000 0.250000 0.750000
Si Si8 0.196972 0.587694 0.605278
O O1 0.940966 0.238555 0.907853
O O2 0.896885 0.107652 0.937803
O O3 0.126573 0.158388 0.927327
O O4 0.000000 0.201780 0.000000
O O5 0.396994 0.935828 0.185152
O O6 0.339361 0.879377 0.109834
O O7 0.500000 0.000000 0.113679
O O8 0.256438 0.008776 0.115788
O O9 0.494398 0.381085 0.238547
O O10 0.455791 0.322372 0.326420
O O11 0.661114 0.303750 0.280026
O O12 0.126164 0.627108 0.339814
O O13 0.000000 0.500000 0.314507
O O14 0.886865 0.607782 0.348385
O O15 0.750000 0.750000 0.350797
O O16 0.815587 0.859745 0.398033
O O17 0.250000 0.750000 0.373173
#
# Coordination Sequence:
#
# PCOD9328368 Si02
#       8
#    16  16  16  16  16  16   4  16
#     4  10  24  47  80 109 133 183 244 302 376 458
#     4  12  24  44  68  98 144 196 232 291 365 426
#     4  12  27  42  66 103 147 195 253 295 362 428
#     4  11  24  44  68 101 146 201 251 296 354 429
#     4  10  23  45  69 100 143 184 235 301 372 433
#     4  11  25  44  74 107 143 191 242 305 365 424
#     4  12  32  40  62 108 152 184 262 326 324 420
#     4  10  23  45  70 102 145 189 239 309 355 439
#
# _framework density 21.274398000000001
#
# number of rings (size 3 to 8) (size 9 to 14) (size 15 to 20)
#    0.000    1.103    2.759    2.069   11.586    2.207 
#    2.483    1.379    0.000    0.828    0.000    0.000 
#    0.000    0.000    0.000    0.000    0.000    0.000 
#
# Total GULP energy -161838.271704 kJ/mol
# GULP energy per Si atom -5580.630059 kJ/mol
# Density = 2.122598 g / cm^3
# Si number density = 21.274398 Si / 1000 Ang^3
#
#
#
# Elastic Constant Matrix: (Units=GPa)
#
#
# Indices 1 2 3 4 5 6 
#
# 1 107.8867 53.9656 33.8258 0.0000 0.0000 0.0000
# 2 53.9656 140.7405 29.7483 0.0000 0.0000 0.0000
# 3 33.8258 29.7483 99.9196 0.0000 0.0000 0.0000
# 4 0.0000 0.0000 0.0000 8.4715 0.0000 0.0000
# 5 0.0000 0.0000 0.0000 0.0000 0.7765 0.0000
# 6 0.0000 0.0000 0.0000 0.0000 0.0000 51.7571
#
#
#
# Elastic Compliance Matrix: (Units=1/GPa)
#
#
# Indices 1 2 3 4 5 6 
#
# 1 0.012221 -0.004068 -0.002926 0.000000 0.000000 0.000000
# 2 -0.004068 0.008936 -0.001284 0.000000 0.000000 0.000000
# 3 -0.002926 -0.001284 0.011381 0.000000 0.000000 0.000000
# 4 0.000000 0.000000 0.000000 0.118042 0.000000 0.000000
# 5 0.000000 0.000000 0.000000 0.000000 1.287755 0.000000
# 6 0.000000 0.000000 0.000000 0.000000 0.000000 0.019321
#
#
# Mechanical properties :
#
#
# Convention : Reuss Voigt Hill
#
# Bulk Modulus (GPa) = 62.56437 64.84736 63.70586
# Shear Modulus (GPa) = 3.37943 27.60152 15.49048
#
# Velocity S-wave (km/s) = 1.26172 3.60586 2.70131
# Velocity P-wave (km/s) = 5.62092 6.91982 6.30391
#
# Compressibility (1/GPa) = 0.01598354
#
# Stress axis : x y z
#
# Youngs Moduli (GPa) = 81.82604 111.90397 87.86741
#
# Poissons Ratio (x) = 0.45517 0.25712
# Poissons Ratio (y) = 0.33283 0.11278
# Poissons Ratio (z) = 0.23944 0.14363
#
# Static dielectric constant tensor:
#      x y z
#    x 1.807780 0.000000 0.000000 
#    y 0.000000 1.856090 0.000000 
#    z 0.000000 0.000000 1.756200 
# 
# From -- ./inp_files/52718.got.cif
#   From: 2010.05.17/outbox.cif.g08.bks.cpg/sg22_27_cif.got.tgz:52718.got - 2010.06.03 23:40:54.
