data_PCOD9328065
_publ_section_title
;
Structure prediction by ZEFSAII (Michael W. Deem and Ramdas Pophale) SiO2 
 PCOD9328065
Probable space group: F 2 2 2
;
_chemical_formula_sum "Si O2"
_cell_formula_units_Z 96
_cell_length_a 14.086491
_cell_length_b 21.033620
_cell_length_c 15.393449
_cell_angle_alpha 90.000000
_cell_angle_beta 90.000000
_cell_angle_gamma 90.000000
_cell_volume 4560.923447
_symmetry_space_group_name_H-M "F 2 2 2"
_symmetry_group_IT_number 22
_symmetry_cell_setting 'orthorhombic'
loop_
_space_group_symop_operation_xyz
x,y,z
-x,-y,z
x,-y,-z
-x,y,-z
x,1/2+y,1/2+z
-x,1/2-y,1/2+z
x,1/2-y,1/2-z
-x,1/2+y,1/2-z
1/2+x,y,1/2+z
1/2-x,-y,1/2+z
1/2+x,-y,1/2-z
1/2-x,y,1/2-z
1/2+x,1/2+y,z
1/2-x,1/2-y,z
1/2+x,1/2-y,-z
1/2-x,1/2+y,-z
loop_
_atom_site_type_symbol
_atom_site_label
_atom_site_fract_x
_atom_site_fract_y
_atom_site_fract_z
Si Si1 0.397686 0.645902 0.474965
Si Si2 0.246913 0.438955 0.059286
Si Si3 0.250000 0.250000 0.985586
Si Si4 0.750000 0.487899 0.750000
Si Si5 0.860072 0.678223 0.719146
Si Si6 0.389204 0.655053 0.015071
Si Si7 0.067781 0.938173 0.310435
O O1 0.500000 0.673988 0.500000
O O2 0.340819 0.610255 0.551380
O O3 0.321674 0.698265 0.441409
O O4 0.419157 0.590720 0.405852
O O5 0.267128 0.451186 0.160060
O O6 0.222486 0.500000 0.000000
O O7 0.339537 0.409837 0.012982
O O8 0.327614 0.291828 0.036115
O O9 0.837518 0.532138 0.771999
O O10 0.881829 0.750000 0.750000
O O11 0.750000 0.666027 0.750000
O O12 0.866382 0.670628 0.615401
O O13 0.937485 0.627621 0.755656
O O14 0.500000 0.656343 0.000000
O O15 0.000000 0.000000 0.309493
#
# Coordination Sequence:
#
# PCOD9328065 Si02
#       7
#    16  16   8   8  16  16  16
#     4  11  23  43  70 102 134 182 239 304 370 441
#     4  11  23  42  65  97 142 192 234 295 371 444
#     4  10  22  42  71  99 130 180 232 294 370 446
#     4  12  24  42  63  95 148 186 236 292 372 450
#     4  11  22  43  72 105 140 186 251 315 367 445
#     4  11  24  42  68 102 140 185 240 300 379 447
#     4  12  25  39  67 105 140 181 245 304 369 434
#
# _framework density 21.048369999999998
#
# number of rings (size 3 to 8) (size 9 to 14) (size 15 to 20)
#    0.000    0.833    2.500    6.500    2.333    0.333 
#    0.000    0.000    0.000    4.500    0.000    0.000 
#    0.000    0.000    0.000    0.000    0.000    0.000 
#
# Total GULP energy -133735.181925 kJ/mol
# GULP energy per Si atom -5572.299247 kJ/mol
# Density = 2.100046 g / cm^3
# Si number density = 21.048370 Si / 1000 Ang^3
#
#
#
# Elastic Constant Matrix: (Units=GPa)
#
#
# Indices 1 2 3 4 5 6 
#
# 1 158.0726 64.4530 33.2926 0.0000 0.0000 0.0000
# 2 64.4530 139.7249 35.6306 0.0000 0.0000 0.0000
# 3 33.2926 35.6306 113.9360 0.0000 0.0000 0.0000
# 4 0.0000 0.0000 0.0000 4.9682 0.0000 0.0000
# 5 0.0000 0.0000 0.0000 0.0000 20.9537 0.0000
# 6 0.0000 0.0000 0.0000 0.0000 0.0000 49.4185
#
#
#
# Elastic Compliance Matrix: (Units=1/GPa)
#
#
# Indices 1 2 3 4 5 6 
#
# 1 0.007960 -0.003345 -0.001280 0.000000 0.000000 0.000000
# 2 -0.003345 0.009183 -0.001894 0.000000 0.000000 0.000000
# 3 -0.001280 -0.001894 0.009743 0.000000 0.000000 0.000000
# 4 0.000000 0.000000 0.000000 0.201282 0.000000 0.000000
# 5 0.000000 0.000000 0.000000 0.000000 0.047724 0.000000
# 6 0.000000 0.000000 0.000000 0.000000 0.000000 0.020235
#
#
# Mechanical properties :
#
#
# Convention : Reuss Voigt Hill
#
# Bulk Modulus (GPa) = 72.21570 75.38731 73.80151
# Shear Modulus (GPa) = 15.93464 33.62523 24.77994
#
# Velocity S-wave (km/s) = 2.75444 4.00124 3.43488
# Velocity P-wave (km/s) = 6.67082 7.56575 7.13233
#
# Compressibility (1/GPa) = 0.01384740
#
# Stress axis : x y z
#
# Youngs Moduli (GPa) = 125.63135 108.89504 102.63605
#
# Poissons Ratio (x) = 0.36430 0.13134
# Poissons Ratio (y) = 0.42029 0.19442
# Poissons Ratio (z) = 0.16077 0.20627
#
# Static dielectric constant tensor:
#      x y z
#    x 1.980670 0.000000 0.000000 
#    y 0.000000 1.848980 0.000000 
#    z 0.000000 0.000000 1.743000 
# 
# From -- ./inp_files/29409.got.cif
#   From: 2010.05.17/outbox.cif.g08.bks.cpg/sg22_15_cif.got.tgz:29409.got - 2010.06.03 23:40:54.
