data_PCOD9328743
_publ_section_title
;
Structure prediction by ZEFSAII (Michael W. Deem and Ramdas Pophale) SiO2 
 PCOD9328743
Probable space group: F 2 2 2
;
_chemical_formula_sum "Si O2"
_cell_formula_units_Z 116
_cell_length_a 10.024332
_cell_length_b 29.823029
_cell_length_c 21.607711
_cell_angle_alpha 90.000000
_cell_angle_beta 90.000000
_cell_angle_gamma 90.000000
_cell_volume 6459.753638
_symmetry_space_group_name_H-M "F 2 2 2"
_symmetry_group_IT_number 22
_symmetry_cell_setting 'orthorhombic'
loop_
_space_group_symop_operation_xyz
x,y,z
-x,-y,z
x,-y,-z
-x,y,-z
x,1/2+y,1/2+z
-x,1/2-y,1/2+z
x,1/2-y,1/2-z
-x,1/2+y,1/2-z
1/2+x,y,1/2+z
1/2-x,-y,1/2+z
1/2+x,-y,1/2-z
1/2-x,y,1/2-z
1/2+x,1/2+y,z
1/2-x,1/2-y,z
1/2+x,1/2-y,-z
1/2-x,1/2+y,-z
loop_
_atom_site_type_symbol
_atom_site_label
_atom_site_fract_x
_atom_site_fract_y
_atom_site_fract_z
Si Si1 0.739833 0.195825 0.610959
Si Si2 0.593703 0.039479 0.827891
Si Si3 0.977491 0.140917 0.667794
Si Si4 0.347319 0.792395 0.480307
Si Si5 0.541991 0.863472 0.312465
Si Si6 0.216781 0.826673 0.155032
Si Si7 0.750000 0.250000 0.250000
Si Si8 0.104784 0.537347 0.677321
O O1 0.750000 0.250000 0.614873
O O2 0.877276 0.173317 0.631746
O O3 0.708320 0.182305 0.540382
O O4 0.620451 0.176067 0.652745
O O5 0.546109 0.088707 0.849497
O O6 0.745436 0.026991 0.842586
O O7 0.590994 0.039296 0.752414
O O8 0.500000 0.000000 0.850722
O O9 0.933433 0.142294 0.739692
O O10 0.128987 0.158804 0.659892
O O11 0.500000 0.780785 0.500000
O O12 0.250000 0.750000 0.473658
O O13 0.330591 0.816629 0.414733
O O14 0.382822 0.863866 0.319810
O O15 0.587207 0.910735 0.340008
O O16 0.185056 0.784483 0.200734
O O17 0.000000 0.500000 0.655452
#
# Coordination Sequence:
#
# PCOD9328743 Si02
#       8
#    16  16  16  16  16  16   4  16
#     4  11  25  38  59  83 118 163 203 247 293 348
#     4   9  18  33  52  81 119 152 193 244 304 362
#     4  11  23  37  57  90 121 158 197 250 305 361
#     4  11  25  42  61  81 112 159 211 251 288 351
#     4  11  21  39  56  88 124 156 198 249 301 364
#     4  12  25  38  61  84 121 156 201 243 302 353
#     4  12  24  40  56  90 120 160 182 250 304 356
#     4   9  18  32  54  80 117 156 193 241 301 365
#
# _framework density 17.957341
#
# number of rings (size 3 to 8) (size 9 to 14) (size 15 to 20)
#    0.000    1.379    4.828    0.414    7.724    1.103 
#    0.000    0.000    0.000    0.000    0.000    5.793 
#    0.000    0.000    0.000    0.000    0.000    0.000 
#
# Total GULP energy -161544.161166 kJ/mol
# GULP energy per Si atom -5570.488316 kJ/mol
# Density = 1.791647 g / cm^3
# Si number density = 17.957341 Si / 1000 Ang^3
#
#
#
# Elastic Constant Matrix: (Units=GPa)
#
#
# Indices 1 2 3 4 5 6 
#
# 1 121.3643 51.0404 15.4871 0.0000 0.0000 0.0000
# 2 51.0404 99.8457 25.4176 0.0000 0.0000 0.0000
# 3 15.4871 25.4176 75.0848 0.0000 0.0000 0.0000
# 4 0.0000 0.0000 0.0000 3.0773 0.0000 0.0000
# 5 0.0000 0.0000 0.0000 0.0000 22.9525 0.0000
# 6 0.0000 0.0000 0.0000 0.0000 0.0000 26.7711
#
#
#
# Elastic Compliance Matrix: (Units=1/GPa)
#
#
# Indices 1 2 3 4 5 6 
#
# 1 0.010506 -0.005273 -0.000382 0.000000 0.000000 0.000000
# 2 -0.005273 0.013607 -0.003518 0.000000 0.000000 0.000000
# 3 -0.000382 -0.003518 0.014588 0.000000 0.000000 0.000000
# 4 0.000000 0.000000 0.000000 0.324955 0.000000 0.000000
# 5 0.000000 0.000000 0.000000 0.000000 0.043568 0.000000
# 6 0.000000 0.000000 0.000000 0.000000 0.000000 0.037354
#
#
# Mechanical properties :
#
#
# Convention : Reuss Voigt Hill
#
# Bulk Modulus (GPa) = 49.13139 53.35388 51.24263
# Shear Modulus (GPa) = 10.64486 24.18351 17.41418
#
# Velocity S-wave (km/s) = 2.43736 3.67375 3.11746
# Velocity P-wave (km/s) = 5.94478 6.91167 6.44638
#
# Compressibility (1/GPa) = 0.02035359
#
# Stress axis : x y z
#
# Youngs Moduli (GPa) = 95.18222 73.49206 68.54903
#
# Poissons Ratio (x) = 0.38756 0.02618
# Poissons Ratio (y) = 0.50194 0.24119
# Poissons Ratio (z) = 0.03635 0.25858
#
# Static dielectric constant tensor:
#      x y z
#    x 1.603780 0.000000 0.000000 
#    y 0.000000 1.638130 0.000000 
#    z 0.000000 0.000000 1.624360 
# 
# From -- ./inp_files/47605.got.cif
#   From: 2010.05.17/outbox.cif.g08.bks.cpg/sg22_24_cif.got.tgz:47605.got - 2010.06.03 23:40:54.
