data_PCOD9328687
_publ_section_title
;
Structure prediction by ZEFSAII (Michael W. Deem and Ramdas Pophale) SiO2 
 PCOD9328687
Probable space group: F 2 2 2
;
_chemical_formula_sum "Si O2"
_cell_formula_units_Z 88
_cell_length_a 12.626290
_cell_length_b 22.847796
_cell_length_c 14.125854
_cell_angle_alpha 90.000000
_cell_angle_beta 90.000000
_cell_angle_gamma 90.000000
_cell_volume 4075.067301
_symmetry_space_group_name_H-M "F 2 2 2"
_symmetry_group_IT_number 22
_symmetry_cell_setting 'orthorhombic'
loop_
_space_group_symop_operation_xyz
x,y,z
-x,-y,z
x,-y,-z
-x,y,-z
x,1/2+y,1/2+z
-x,1/2-y,1/2+z
x,1/2-y,1/2-z
-x,1/2+y,1/2-z
1/2+x,y,1/2+z
1/2-x,-y,1/2+z
1/2+x,-y,1/2-z
1/2-x,y,1/2-z
1/2+x,1/2+y,z
1/2-x,1/2-y,z
1/2+x,1/2-y,-z
1/2-x,1/2+y,-z
loop_
_atom_site_type_symbol
_atom_site_label
_atom_site_fract_x
_atom_site_fract_y
_atom_site_fract_z
Si Si1 0.987209 0.131064 0.201087
Si Si2 0.000000 0.226240 0.500000
Si Si3 0.164024 0.694974 0.154387
Si Si4 0.663548 0.500000 0.000000
Si Si5 0.340154 0.796099 0.623174
Si Si6 0.000000 0.000000 0.827928
Si Si7 0.812348 0.622998 0.553277
O O1 0.917445 0.177285 0.262247
O O2 0.931104 0.126400 0.096908
O O3 0.105342 0.158101 0.194951
O O4 0.988839 0.061727 0.228294
O O5 0.093212 0.196939 0.559861
O O6 0.059370 0.261202 0.417499
O O7 0.250000 0.750000 0.156711
O O8 0.240058 0.640235 0.140500
O O9 0.595600 0.492154 0.903542
O O10 0.720889 0.560376 0.984204
O O11 0.250000 0.750000 0.651297
O O12 0.301381 0.831934 0.531903
#
# Coordination Sequence:
#
# PCOD9328687 Si02
#       7
#    16   8  16   8  16   8  16
#     4  11  23  38  67 102 137 177 219 285 327 395
#     4  12  22  40  60  94 130 172 214 270 330 400
#     4  12  25  43  67  99 133 173 227 275 340 402
#     4   9  18  32  66  97 126 174 228 275 320 395
#     4  12  21  38  64  95 138 169 213 271 337 399
#     4   9  18  36  62  97 138 174 226 269 330 384
#     4  11  19  38  65  98 130 172 225 275 324 401
#
# _framework density 21.594736000000001
#
# number of rings (size 3 to 8) (size 9 to 14) (size 15 to 20)
#    0.000    0.909    7.273    0.545    0.000    5.818 
#    0.000    4.545    0.000    2.182    0.000    0.000 
#    0.000    0.000    0.000    0.000    0.000    0.000 
#
# Total GULP energy -122531.235814 kJ/mol
# GULP energy per Si atom -5569.601628 kJ/mol
# Density = 2.154558 g / cm^3
# Si number density = 21.594736 Si / 1000 Ang^3
#
#
#
# Elastic Constant Matrix: (Units=GPa)
#
#
# Indices 1 2 3 4 5 6 
#
# 1 88.0603 53.3287 18.2237 0.0000 0.0000 0.0000
# 2 53.3287 148.1875 34.2660 0.0000 0.0000 0.0000
# 3 18.2237 34.2660 62.6013 0.0000 0.0000 0.0000
# 4 0.0000 0.0000 0.0000 22.9385 0.0000 0.0000
# 5 0.0000 0.0000 0.0000 0.0000 31.3309 0.0000
# 6 0.0000 0.0000 0.0000 0.0000 0.0000 22.0213
#
#
#
# Elastic Compliance Matrix: (Units=1/GPa)
#
#
# Indices 1 2 3 4 5 6 
#
# 1 0.014655 -0.004909 -0.001579 0.000000 0.000000 0.000000
# 2 -0.004909 0.009370 -0.003700 0.000000 0.000000 0.000000
# 3 -0.001579 -0.003700 0.018459 0.000000 0.000000 0.000000
# 4 0.000000 0.000000 0.000000 0.043595 0.000000 0.000000
# 5 0.000000 0.000000 0.000000 0.000000 0.031917 0.000000
# 6 0.000000 0.000000 0.000000 0.000000 0.000000 0.045411
#
#
# Mechanical properties :
#
#
# Convention : Reuss Voigt Hill
#
# Bulk Modulus (GPa) = 45.23160 56.72066 50.97613
# Shear Modulus (GPa) = 26.15694 28.12685 27.14189
#
# Velocity S-wave (km/s) = 3.48410 3.61291 3.54909
# Velocity P-wave (km/s) = 6.09724 6.61265 6.36017
#
# Compressibility (1/GPa) = 0.02210844
#
# Stress axis : x y z
#
# Youngs Moduli (GPa) = 68.23382 106.71941 54.17372
#
# Poissons Ratio (x) = 0.52388 0.08556
# Poissons Ratio (y) = 0.33495 0.20044
# Poissons Ratio (z) = 0.10776 0.39486
#
# Static dielectric constant tensor:
#      x y z
#    x 1.877010 0.000000 0.000000 
#    y 0.000000 1.855620 0.000000 
#    z 0.000000 0.000000 1.822560 
# 
# From -- ./inp_files/28244.got.cif
#   From: 2010.05.17/outbox.cif.g08.bks.cpg/sg22_15_cif.got.tgz:28244.got - 2010.06.03 23:40:54.
