data_PCOD9328407
_publ_section_title
;
Structure prediction by ZEFSAII (Michael W. Deem and Ramdas Pophale) SiO2 
 PCOD9328407
Probable space group: F 2 2 2
;
_chemical_formula_sum "Si O2"
_cell_formula_units_Z 56
_cell_length_a 20.625980
_cell_length_b 10.453743
_cell_length_c 10.586823
_cell_angle_alpha 90.000000
_cell_angle_beta 90.000000
_cell_angle_gamma 90.000000
_cell_volume 2282.716949
_symmetry_space_group_name_H-M "F 2 2 2"
_symmetry_group_IT_number 22
_symmetry_cell_setting 'orthorhombic'
loop_
_space_group_symop_operation_xyz
x,y,z
-x,-y,z
x,-y,-z
-x,y,-z
x,1/2+y,1/2+z
-x,1/2-y,1/2+z
x,1/2-y,1/2-z
-x,1/2+y,1/2-z
1/2+x,y,1/2+z
1/2-x,-y,1/2+z
1/2+x,-y,1/2-z
1/2-x,y,1/2-z
1/2+x,1/2+y,z
1/2-x,1/2-y,z
1/2+x,1/2-y,-z
1/2-x,1/2+y,-z
loop_
_atom_site_type_symbol
_atom_site_label
_atom_site_fract_x
_atom_site_fract_y
_atom_site_fract_z
Si Si1 0.845863 0.103126 0.405954
Si Si2 0.432005 0.250000 0.750000
Si Si3 0.354053 0.633786 0.937834
Si Si4 0.250000 0.946504 0.750000
Si Si5 0.500000 0.681253 0.000000
O O1 0.885679 0.130143 0.277317
O O2 0.838514 0.237192 0.481084
O O3 0.781355 0.037068 0.356376
O O4 0.878017 0.000000 0.500000
O O5 0.472177 0.248892 0.622977
O O6 0.309456 0.631290 0.812988
O O7 0.336431 0.500000 0.000000
O O8 0.433328 0.625319 0.937279
#
# Coordination Sequence:
#
# PCOD9328407 Si02
#       5
#    16   8  16   8   8
#     4  11  27  48  72 110 153 199 255 319 394 470
#     4  10  24  49  80 111 152 206 264 328 396 472
#     4  11  26  47  75 109 150 200 257 323 392 464
#     4  12  26  46  76 108 152 202 256 318 386 470
#     4  10  23  50  79 112 155 206 265 326 395 474
#
# _framework density 24.532167999999999
#
# number of rings (size 3 to 8) (size 9 to 14) (size 15 to 20)
#    0.000    1.143    0.000    4.714    0.000   17.714 
#    0.000   28.571    0.000    0.000    0.000    0.000 
#    0.000    0.000    0.000    0.000    0.000    0.000 
#
# Total GULP energy -78038.704407 kJ/mol
# GULP energy per Si atom -5574.193172 kJ/mol
# Density = 2.447633 g / cm^3
# Si number density = 24.532168 Si / 1000 Ang^3
#
#
#
# Elastic Constant Matrix: (Units=GPa)
#
#
# Indices 1 2 3 4 5 6 
#
# 1 183.0523 36.3494 72.2672 0.0000 0.0000 0.0000
# 2 36.3494 159.4841 68.6282 0.0000 0.0000 0.0000
# 3 72.2672 68.6282 105.1343 0.0000 0.0000 0.0000
# 4 0.0000 0.0000 0.0000 37.4668 0.0000 0.0000
# 5 0.0000 0.0000 0.0000 0.0000 56.1871 0.0000
# 6 0.0000 0.0000 0.0000 0.0000 0.0000 -17.3685
#
#
#
# Elastic Compliance Matrix: (Units=1/GPa)
#
#
# Indices 1 2 3 4 5 6 
#
# 1 0.007555 0.000713 -0.005659 0.000000 0.000000 0.000000
# 2 0.000713 0.008787 -0.006226 0.000000 0.000000 0.000000
# 3 -0.005659 -0.006226 0.017466 0.000000 0.000000 0.000000
# 4 0.000000 0.000000 0.000000 0.026690 0.000000 0.000000
# 5 0.000000 0.000000 0.000000 0.000000 0.017798 0.000000
# 6 0.000000 0.000000 0.000000 0.000000 0.000000 -0.057576
#
#
# Mechanical properties :
#
#
# Convention : Reuss Voigt Hill
#
# Bulk Modulus (GPa) = 87.22742 89.12893 88.17817
# Shear Modulus (GPa) = 106.64421 33.28549 69.96485
#
# Velocity S-wave (km/s) = 6.60042 3.68749 5.34617
# Velocity P-wave (km/s) = 9.68096 7.38515 8.60992
#
# Compressibility (1/GPa) = 0.01146429
#
# Stress axis : x y z
#
# Youngs Moduli (GPa) = 132.35572 113.80740 57.25567
#
# Poissons Ratio (x) = -0.08116 0.32400
# Poissons Ratio (y) = -0.09438 0.35647
# Poissons Ratio (z) = 0.74899 0.70855
#
# Static dielectric constant tensor:
#      x y z
#    x 2.022440 0.000000 0.000000 
#    y 0.000000 1.986740 0.000000 
#    z 0.000000 0.000000 2.011830 
# 
# From -- ./inp_files/22169.got.cif
#   From: 2010.05.17/outbox.cif.g08.bks.cpg/sg22_12_cif.got.tgz:22169.got - 2010.06.03 23:40:54.
