data_PCOD9328694
_publ_section_title
;
Structure prediction by ZEFSAII (Michael W. Deem and Ramdas Pophale) SiO2 
 PCOD9328694
Probable space group: F 2 2 2
;
_chemical_formula_sum "Si O2"
_cell_formula_units_Z 36
_cell_length_a 15.733208
_cell_length_b 6.968760
_cell_length_c 14.398137
_cell_angle_alpha 90.000000
_cell_angle_beta 90.000000
_cell_angle_gamma 90.000000
_cell_volume 1578.625427
_symmetry_space_group_name_H-M "F 2 2 2"
_symmetry_group_IT_number 22
_symmetry_cell_setting 'orthorhombic'
loop_
_space_group_symop_operation_xyz
x,y,z
-x,-y,z
x,-y,-z
-x,y,-z
x,1/2+y,1/2+z
-x,1/2-y,1/2+z
x,1/2-y,1/2-z
-x,1/2+y,1/2-z
1/2+x,y,1/2+z
1/2-x,-y,1/2+z
1/2+x,-y,1/2-z
1/2-x,y,1/2-z
1/2+x,1/2+y,z
1/2-x,1/2-y,z
1/2+x,1/2-y,-z
1/2-x,1/2+y,-z
loop_
_atom_site_type_symbol
_atom_site_label
_atom_site_fract_x
_atom_site_fract_y
_atom_site_fract_z
Si Si1 0.644544 0.516555 0.900644
Si Si2 0.750000 0.750000 0.750000
Si Si3 0.508731 0.221647 0.859564
O O1 0.697613 0.610499 0.818246
O O2 0.601049 0.314471 0.874859
O O3 0.563678 0.659214 0.912460
O O4 0.690004 0.500000 0.000000
O O5 0.490099 0.250000 0.750000
O O6 0.500000 0.000000 0.882431
#
# Coordination Sequence:
#
# PCOD9328694 Si02
#       3
#    16   4  16
#     4  11  25  45  70 104 143 190 241 292 359 432
#     4  12  24  56  66 106 162 178 240 306 356 426
#     4  11  19  42  74 105 139 187 242 301 349 418
#
# _framework density 22.804649000000001
#
# number of rings (size 3 to 8) (size 9 to 14) (size 15 to 20)
#    0.000    0.889    6.667    2.667    0.000    3.556 
#   16.000    2.222    0.000    0.000    0.000    0.000 
#    0.000    0.000    0.000    0.000    0.000    0.000 
#
# Total GULP energy -50346.275066 kJ/mol
# GULP energy per Si atom -5594.030563 kJ/mol
# Density = 2.275274 g / cm^3
# Si number density = 22.804649 Si / 1000 Ang^3
#
#
#
# Elastic Constant Matrix: (Units=GPa)
#
#
# Indices 1 2 3 4 5 6 
#
# 1 79.9118 47.7679 55.1712 0.0000 0.0000 0.0000
# 2 47.7679 192.1124 35.6779 0.0000 0.0000 0.0000
# 3 55.1712 35.6779 177.5498 0.0000 0.0000 0.0000
# 4 0.0000 0.0000 0.0000 19.5046 0.0000 0.0000
# 5 0.0000 0.0000 0.0000 0.0000 23.6473 0.0000
# 6 0.0000 0.0000 0.0000 0.0000 0.0000 25.7577
#
#
#
# Elastic Compliance Matrix: (Units=1/GPa)
#
#
# Indices 1 2 3 4 5 6 
#
# 1 0.018020 -0.003574 -0.004881 0.000000 0.000000 0.000000
# 2 -0.003574 0.006116 -0.000118 0.000000 0.000000 0.000000
# 3 -0.004881 -0.000118 0.007173 0.000000 0.000000 0.000000
# 4 0.000000 0.000000 0.000000 0.051270 0.000000 0.000000
# 5 0.000000 0.000000 0.000000 0.000000 0.042288 0.000000
# 6 0.000000 0.000000 0.000000 0.000000 0.000000 0.038823
#
#
# Mechanical properties :
#
#
# Convention : Reuss Voigt Hill
#
# Bulk Modulus (GPa) = 70.61449 80.75645 75.68547
# Shear Modulus (GPa) = 26.94564 34.51239 30.72901
#
# Velocity S-wave (km/s) = 3.44115 3.89446 3.67480
# Velocity P-wave (km/s) = 6.84258 7.46402 7.16004
#
# Compressibility (1/GPa) = 0.01416140
#
# Stress axis : x y z
#
# Youngs Moduli (GPa) = 55.49276 163.50654 139.41509
#
# Poissons Ratio (x) = 0.58440 0.68054
# Poissons Ratio (y) = 0.19834 0.01650
# Poissons Ratio (z) = 0.27088 0.01935
#
# Static dielectric constant tensor:
#      x y z
#    x 1.840130 0.000000 0.000000 
#    y 0.000000 1.832500 0.000000 
#    z 0.000000 0.000000 1.901460 
# 
# From -- ./inp_files/8837.got.cif
#   From: 2010.05.17/outbox.cif.g08.bks.cpg/sg22_5_cif.got.tgz:8837.got - 2010.06.03 23:40:54.
