data_PCOD9328400
_publ_section_title
;
Structure prediction by ZEFSAII (Michael W. Deem and Ramdas Pophale) SiO2 
 PCOD9328400
Probable space group: F 2 2 2
;
_chemical_formula_sum "Si O2"
_cell_formula_units_Z 104
_cell_length_a 26.154841
_cell_length_b 14.714068
_cell_length_c 11.817102
_cell_angle_alpha 90.000000
_cell_angle_beta 90.000000
_cell_angle_gamma 90.000000
_cell_volume 4547.742090
_symmetry_space_group_name_H-M "F 2 2 2"
_symmetry_group_IT_number 22
_symmetry_cell_setting 'orthorhombic'
loop_
_space_group_symop_operation_xyz
x,y,z
-x,-y,z
x,-y,-z
-x,y,-z
x,1/2+y,1/2+z
-x,1/2-y,1/2+z
x,1/2-y,1/2-z
-x,1/2+y,1/2-z
1/2+x,y,1/2+z
1/2-x,-y,1/2+z
1/2+x,-y,1/2-z
1/2-x,y,1/2-z
1/2+x,1/2+y,z
1/2-x,1/2-y,z
1/2+x,1/2-y,-z
1/2-x,1/2+y,-z
loop_
_atom_site_type_symbol
_atom_site_label
_atom_site_fract_x
_atom_site_fract_y
_atom_site_fract_z
Si Si1 0.750000 0.250000 0.028751
Si Si2 0.626427 0.155102 0.733686
Si Si3 0.910148 0.997094 0.374488
Si Si4 0.661986 0.335475 0.313012
Si Si5 0.750000 0.949384 0.750000
Si Si6 0.500000 0.500000 0.805720
Si Si7 0.790215 0.571061 0.412283
Si Si8 0.516474 0.801548 0.371749
O O1 0.702621 0.207756 0.099490
O O2 0.771674 0.166018 0.958654
O O3 0.654582 0.250000 0.750000
O O4 0.664475 0.087330 0.674040
O O5 0.577528 0.183304 0.654557
O O6 0.612748 0.103288 0.849490
O O7 0.873855 0.085284 0.360624
O O8 0.951456 0.000147 0.276015
O O9 0.931941 0.000000 0.500000
O O10 0.635933 0.250000 0.250000
O O11 0.701107 0.387423 0.228870
O O12 0.743588 0.015741 0.855645
O O13 0.496303 0.404906 0.870329
O O14 0.811967 0.500000 0.500000
O O15 0.500000 0.764679 0.500000
O O16 0.500607 0.750000 0.250000
#
# Coordination Sequence:
#
# PCOD9328400 Si02
#       8
#     8  16  16  16   8   8  16  16
#     4  12  27  41  66  98 138 186 230 294 350 434
#     4  10  25  45  65 100 138 176 233 293 348 434
#     4  11  26  44  72 102 141 188 242 302 372 440
#     4  12  23  45  66  99 143 183 235 297 359 435
#     4  12  23  45  66  94 142 178 231 291 350 424
#     4  10  24  48  72 106 143 186 241 304 365 444
#     4  12  26  42  66  94 133 181 230 280 354 423
#     4  10  23  47  76 106 146 186 236 300 373 441
#
# _framework density 22.868490999999999
#
# number of rings (size 3 to 8) (size 9 to 14) (size 15 to 20)
#    0.000    0.923    4.615    0.462    6.462    6.769 
#    0.000    0.000    0.000    0.000    0.000    0.000 
#    0.000    0.000    0.000    0.000    0.000    0.000 
#
# Total GULP energy -144931.301495 kJ/mol
# GULP energy per Si atom -5574.280827 kJ/mol
# Density = 2.281644 g / cm^3
# Si number density = 22.868491 Si / 1000 Ang^3
#
#
#
# Elastic Constant Matrix: (Units=GPa)
#
#
# Indices 1 2 3 4 5 6 
#
# 1 32.2095 5.3896 5.1086 0.0000 0.0000 0.0000
# 2 5.3896 140.7997 35.8961 0.0000 0.0000 0.0000
# 3 5.1086 35.8961 108.5856 0.0000 0.0000 0.0000
# 4 0.0000 0.0000 0.0000 39.9751 0.0000 0.0000
# 5 0.0000 0.0000 0.0000 0.0000 11.3649 0.0000
# 6 0.0000 0.0000 0.0000 0.0000 0.0000 22.2602
#
#
#
# Elastic Compliance Matrix: (Units=1/GPa)
#
#
# Indices 1 2 3 4 5 6 
#
# 1 0.031384 -0.000901 -0.001179 0.000000 0.000000 0.000000
# 2 -0.000901 0.007782 -0.002530 0.000000 0.000000 0.000000
# 3 -0.001179 -0.002530 0.010101 0.000000 0.000000 0.000000
# 4 0.000000 0.000000 0.000000 0.025016 0.000000 0.000000
# 5 0.000000 0.000000 0.000000 0.000000 0.087990 0.000000
# 6 0.000000 0.000000 0.000000 0.000000 0.000000 0.044923
#
#
# Mechanical properties :
#
#
# Convention : Reuss Voigt Hill
#
# Bulk Modulus (GPa) = 24.97000 41.59815 33.28408
# Shear Modulus (GPa) = 21.76138 30.40008 26.08073
#
# Velocity S-wave (km/s) = 3.08813 3.64997 3.38074
# Velocity P-wave (km/s) = 4.86395 5.99939 5.46126
#
# Compressibility (1/GPa) = 0.04004806
#
# Stress axis : x y z
#
# Youngs Moduli (GPa) = 31.86289 128.50475 98.99823
#
# Poissons Ratio (x) = 0.11576 0.11669
# Poissons Ratio (y) = 0.02870 0.25048
# Poissons Ratio (z) = 0.03756 0.32513
#
# Static dielectric constant tensor:
#      x y z
#    x 1.890930 0.000000 0.000000 
#    y 0.000000 2.688640 0.000000 
#    z 0.000000 0.000000 1.966650 
# 
# From -- ./inp_files/24707.got.cif
#   From: 2010.05.17/outbox.cif.g08.bks.cpg/sg22_13_cif.got.tgz:24707.got - 2010.06.03 23:40:54.
