data_PCOD9328014
_publ_section_title
;
Structure prediction by ZEFSAII (Michael W. Deem and Ramdas Pophale) SiO2 
 PCOD9328014
Probable space group: F 2 2 2
;
_chemical_formula_sum "Si O2"
_cell_formula_units_Z 112
_cell_length_a 12.658383
_cell_length_b 16.886626
_cell_length_c 25.688451
_cell_angle_alpha 90.000000
_cell_angle_beta 90.000000
_cell_angle_gamma 90.000000
_cell_volume 5491.095969
_symmetry_space_group_name_H-M "F 2 2 2"
_symmetry_group_IT_number 22
_symmetry_cell_setting 'orthorhombic'
loop_
_space_group_symop_operation_xyz
x,y,z
-x,-y,z
x,-y,-z
-x,y,-z
x,1/2+y,1/2+z
-x,1/2-y,1/2+z
x,1/2-y,1/2-z
-x,1/2+y,1/2-z
1/2+x,y,1/2+z
1/2-x,-y,1/2+z
1/2+x,-y,1/2-z
1/2-x,y,1/2-z
1/2+x,1/2+y,z
1/2-x,1/2-y,z
1/2+x,1/2-y,-z
1/2-x,1/2+y,-z
loop_
_atom_site_type_symbol
_atom_site_label
_atom_site_fract_x
_atom_site_fract_y
_atom_site_fract_z
Si Si1 0.725184 0.843918 0.807145
Si Si2 0.440901 0.296284 0.082608
Si Si3 0.431640 0.116098 0.050543
Si Si4 0.126193 0.232560 0.307511
Si Si5 0.312537 0.831955 0.413430
Si Si6 0.794806 0.416758 0.519168
Si Si7 0.499783 0.589758 0.336270
O O1 0.750000 0.877742 0.750000
O O2 0.750000 0.750000 0.804178
O O3 0.790265 0.873681 0.857788
O O4 0.603352 0.862184 0.818803
O O5 0.415228 0.211397 0.056092
O O6 0.419552 0.282614 0.144112
O O7 0.564009 0.316275 0.077518
O O8 0.370922 0.363399 0.054879
O O9 0.317488 0.075009 0.047964
O O10 0.495514 0.090817 0.101395
O O11 0.500000 0.099396 0.000000
O O12 0.081986 0.250000 0.250000
O O13 0.250000 0.250000 0.307133
O O14 0.100168 0.141151 0.318849
O O15 0.250000 0.750000 0.410363
O O16 0.270039 0.874142 0.464611
O O17 0.841836 0.500000 0.500000
O O18 0.500000 0.500000 0.317108
#
# Coordination Sequence:
#
# PCOD9328014 Si02
#       7
#    16  16  16  16  16  16  16
#     4  10  22  41  70  98 132 176 228 285 346 424
#     4  11  22  41  67  92 133 176 234 279 342 415
#     4  11  22  39  67  94 127 175 219 274 346 418
#     4  10  22  43  71  96 131 185 239 281 345 436
#     4  11  22  40  65  96 127 173 227 279 340 416
#     4  12  26  39  62  94 142 180 226 282 345 421
#     4  11  25  41  68 101 143 167 228 301 357 401
#
# _framework density 20.396657000000001
#
# number of rings (size 3 to 8) (size 9 to 14) (size 15 to 20)
#    0.000    1.143    0.000    9.429    8.000    1.143 
#    2.571    0.000    0.000    0.000    0.000    0.000 
#    0.000    0.000    0.000    0.000    0.000    0.000 
#
# Total GULP energy -156436.964832 kJ/mol
# GULP energy per Si atom -5587.034458 kJ/mol
# Density = 2.035023 g / cm^3
# Si number density = 20.396657 Si / 1000 Ang^3
#
#
#
# Elastic Constant Matrix: (Units=GPa)
#
#
# Indices 1 2 3 4 5 6 
#
# 1 104.0676 29.9581 17.7565 0.0000 0.0000 0.0000
# 2 29.9581 95.7863 18.2395 0.0000 0.0000 0.0000
# 3 17.7565 18.2395 137.2441 0.0000 0.0000 0.0000
# 4 0.0000 0.0000 0.0000 20.1628 0.0000 0.0000
# 5 0.0000 0.0000 0.0000 0.0000 -17.0417 0.0000
# 6 0.0000 0.0000 0.0000 0.0000 0.0000 7.6660
#
#
#
# Elastic Compliance Matrix: (Units=1/GPa)
#
#
# Indices 1 2 3 4 5 6 
#
# 1 0.010682 -0.003158 -0.000962 0.000000 0.000000 0.000000
# 2 -0.003158 0.011644 -0.001139 0.000000 0.000000 0.000000
# 3 -0.000962 -0.001139 0.007562 0.000000 0.000000 0.000000
# 4 0.000000 0.000000 0.000000 0.049596 0.000000 0.000000
# 5 0.000000 0.000000 0.000000 0.000000 -0.058680 0.000000
# 6 0.000000 0.000000 0.000000 0.000000 0.000000 0.130447
#
#
# Mechanical properties :
#
#
# Convention : Reuss Voigt Hill
#
# Bulk Modulus (GPa) = 51.62445 52.11180 51.86813
# Shear Modulus (GPa) = 29.72167 20.23368 24.97768
#
# Velocity S-wave (km/s) = 3.82145 3.15304 3.50322
# Velocity P-wave (km/s) = 6.69601 6.23379 6.46903
#
# Compressibility (1/GPa) = 0.01937067
#
# Stress axis : x y z
#
# Youngs Moduli (GPa) = 93.61208 85.87817 132.23713
#
# Poissons Ratio (x) = 0.27118 0.12727
# Poissons Ratio (y) = 0.29560 0.15061
# Poissons Ratio (z) = 0.09009 0.09781
#
# Static dielectric constant tensor:
#      x y z
#    x 1.079750 0.000000 0.000000 
#    y 0.000000 1.754680 0.000000 
#    z 0.000000 0.000000 1.780400 
# 
# From -- ./inp_files/53201.got.cif
#   From: 2010.05.17/outbox.cif.g08.bks.cpg/sg22_27_cif.got.tgz:53201.got - 2010.06.03 23:40:54.
