data_PCOD9328162
_publ_section_title
;
Structure prediction by ZEFSAII (Michael W. Deem and Ramdas Pophale) SiO2 
 PCOD9328162
Probable space group: F 2 2 2
;
_chemical_formula_sum "Si O2"
_cell_formula_units_Z 88
_cell_length_a 29.619510
_cell_length_b 11.428127
_cell_length_c 11.389819
_cell_angle_alpha 90.000000
_cell_angle_beta 90.000000
_cell_angle_gamma 90.000000
_cell_volume 3855.402727
_symmetry_space_group_name_H-M "F 2 2 2"
_symmetry_group_IT_number 22
_symmetry_cell_setting 'orthorhombic'
loop_
_space_group_symop_operation_xyz
x,y,z
-x,-y,z
x,-y,-z
-x,y,-z
x,1/2+y,1/2+z
-x,1/2-y,1/2+z
x,1/2-y,1/2-z
-x,1/2+y,1/2-z
1/2+x,y,1/2+z
1/2-x,-y,1/2+z
1/2+x,-y,1/2-z
1/2-x,y,1/2-z
1/2+x,1/2+y,z
1/2-x,1/2-y,z
1/2+x,1/2-y,-z
1/2-x,1/2+y,-z
loop_
_atom_site_type_symbol
_atom_site_label
_atom_site_fract_x
_atom_site_fract_y
_atom_site_fract_z
Si Si1 0.681878 0.750000 0.250000
Si Si2 0.531158 0.250000 0.750000
Si Si3 0.652278 0.500000 0.500000
Si Si4 0.250000 0.250000 0.447340
Si Si5 0.596287 0.109100 0.424877
Si Si6 0.891716 0.565776 0.235864
Si Si7 0.177692 0.265074 0.888849
Si Si8 0.500000 0.702787 0.000000
O O1 0.713660 0.701008 0.353448
O O2 0.649279 0.644138 0.211610
O O3 0.563500 0.361558 0.761073
O O4 0.506176 0.233935 0.874163
O O5 0.620753 0.443899 0.599973
O O6 0.680515 0.399932 0.431587
O O7 0.215474 0.308393 0.539874
O O8 0.628764 0.219625 0.428957
O O9 0.546316 0.133608 0.472571
O O10 0.614262 0.000000 0.500000
O O11 0.600367 0.060272 0.292667
O O12 0.183441 0.250000 0.750000
#
# Coordination Sequence:
#
# PCOD9328162 Si02
#       8
#     8   8   8   8  16  16  16   8
#     4  10  22  45  70 106 142 202 248 305 383 457
#     4  11  26  45  74 107 150 199 250 313 383 466
#     4  12  24  46  72 107 150 196 248 317 380 478
#     4  11  23  44  72 104 149 187 258 312 370 469
#     4  12  25  46  75 106 144 196 254 310 380 458
#     4  11  23  45  74 104 145 200 248 309 387 458
#     4  12  26  48  72 108 150 199 249 317 394 460
#     4  12  27  44  72 115 150 197 254 316 387 472
#
# _framework density 22.825113000000002
#
# number of rings (size 3 to 8) (size 9 to 14) (size 15 to 20)
#    0.000    0.545    5.455    2.727    1.273    1.455 
#    4.909    0.000    0.000    4.909    0.000    0.000 
#    0.000    0.000    0.000    0.000    0.000    0.000 
#
# Total GULP energy -122678.639558 kJ/mol
# GULP energy per Si atom -5576.301798 kJ/mol
# Density = 2.277316 g / cm^3
# Si number density = 22.825113 Si / 1000 Ang^3
#
#
#
# Elastic Constant Matrix: (Units=GPa)
#
#
# Indices 1 2 3 4 5 6 
#
# 1 103.4752 34.7048 61.7728 0.0000 0.0000 0.0000
# 2 34.7048 72.6413 26.9274 0.0000 0.0000 0.0000
# 3 61.7728 26.9274 178.3014 0.0000 0.0000 0.0000
# 4 0.0000 0.0000 0.0000 35.1163 0.0000 0.0000
# 5 0.0000 0.0000 0.0000 0.0000 16.5458 0.0000
# 6 0.0000 0.0000 0.0000 0.0000 0.0000 -0.0842
#
#
#
# Elastic Compliance Matrix: (Units=1/GPa)
#
#
# Indices 1 2 3 4 5 6 
#
# 1 0.013758 -0.005091 -0.003998 0.000000 0.000000 0.000000
# 2 -0.005091 0.016467 -0.000723 0.000000 0.000000 0.000000
# 3 -0.003998 -0.000723 0.007103 0.000000 0.000000 0.000000
# 4 0.000000 0.000000 0.000000 0.028477 0.000000 0.000000
# 5 0.000000 0.000000 0.000000 0.000000 0.060438 0.000000
# 6 0.000000 0.000000 0.000000 0.000000 0.000000-11.877024
#
#
# Mechanical properties :
#
#
# Convention : Reuss Voigt Hill
#
# Bulk Modulus (GPa) = 56.48487 66.80309 61.64398
# Shear Modulus (GPa) = -0.42643 25.71646 12.64501
#
# Velocity S-wave (km/s) = -0.43270 3.36024 2.35626
# Velocity P-wave (km/s) = 4.95489 6.66227 5.87098
#
# Compressibility (1/GPa) = 0.01770385
#
# Stress axis : x y z
#
# Youngs Moduli (GPa) = 72.68376 60.72901 140.79213
#
# Poissons Ratio (x) = 0.30918 0.56284
# Poissons Ratio (y) = 0.37005 0.10179
# Poissons Ratio (z) = 0.29057 0.04391
#
# Static dielectric constant tensor:
#      x y z
#    x 1.857050 0.000000 0.000000 
#    y 0.000000 1.891100 0.000000 
#    z 0.000000 0.000000 1.934850 
# 
# From -- ./inp_files/25297.got.cif
#   From: 2010.05.17/outbox.cif.g08.bks.cpg/sg22_13_cif.got.tgz:25297.got - 2010.06.03 23:40:54.
