data_PCOD9328187
_publ_section_title
;
Structure prediction by ZEFSAII (Michael W. Deem and Ramdas Pophale) SiO2 
 PCOD9328187
Probable space group: F 2 2 2
;
_chemical_formula_sum "Si O2"
_cell_formula_units_Z 64
_cell_length_a 20.801302
_cell_length_b 14.697049
_cell_length_c 8.825465
_cell_angle_alpha 90.000000
_cell_angle_beta 90.000000
_cell_angle_gamma 90.000000
_cell_volume 2698.101344
_symmetry_space_group_name_H-M "F 2 2 2"
_symmetry_group_IT_number 22
_symmetry_cell_setting 'orthorhombic'
loop_
_space_group_symop_operation_xyz
x,y,z
-x,-y,z
x,-y,-z
-x,y,-z
x,1/2+y,1/2+z
-x,1/2-y,1/2+z
x,1/2-y,1/2-z
-x,1/2+y,1/2-z
1/2+x,y,1/2+z
1/2-x,-y,1/2+z
1/2+x,-y,1/2-z
1/2-x,y,1/2-z
1/2+x,1/2+y,z
1/2-x,1/2-y,z
1/2+x,1/2-y,-z
1/2-x,1/2+y,-z
loop_
_atom_site_type_symbol
_atom_site_label
_atom_site_fract_x
_atom_site_fract_y
_atom_site_fract_z
Si Si1 0.168476 0.500000 0.000000
Si Si2 0.812067 0.800843 0.462845
Si Si3 0.937609 0.441645 0.226210
Si Si4 0.077672 0.750000 0.750000
Si Si5 0.000000 0.867495 0.000000
Si Si6 0.882999 0.250000 0.250000
O O1 0.205691 0.405086 0.000170
O O2 0.122307 0.510252 0.147628
O O3 0.750000 0.750000 0.404188
O O4 0.872763 0.807700 0.350900
O O5 0.836451 0.740367 0.605983
O O6 0.948820 0.426005 0.404642
O O7 0.925764 0.334576 0.189216
O O8 0.000000 0.500000 0.176617
O O9 0.037112 0.691384 0.628104
#
# Coordination Sequence:
#
# PCOD9328187 Si02
#       6
#     8  16  16   8   8   8
#     4  10  25  44  74 108 146 199 258 310 390 452
#     4  11  24  49  75 107 147 204 261 320 376 450
#     4  11  22  41  70 109 153 194 249 308 377 465
#     4  12  26  42  75 111 153 203 248 312 386 462
#     4  12  25  42  74 115 158 196 249 314 388 463
#     4  10  22  46  71 107 148 201 265 308 390 454
#
# _framework density 23.720383000000002
#
# number of rings (size 3 to 8) (size 9 to 14) (size 15 to 20)
#    0.000    1.000    2.500    3.750    3.500    2.000 
#    0.000   12.500    0.000    0.000    0.000    0.000 
#    0.000    0.000    0.000    0.000    0.000    0.000 
#
# Total GULP energy -89108.375262 kJ/mol
# GULP energy per Si atom -5569.273454 kJ/mol
# Density = 2.366639 g / cm^3
# Si number density = 23.720383 Si / 1000 Ang^3
#
#
#
# Elastic Constant Matrix: (Units=GPa)
#
#
# Indices 1 2 3 4 5 6 
#
# 1 97.6311 67.1772 51.6390 0.0000 0.0000 0.0000
# 2 67.1772 160.8230 39.1465 0.0000 0.0000 0.0000
# 3 51.6390 39.1465 156.2046 0.0000 0.0000 0.0000
# 4 0.0000 0.0000 0.0000 37.3342 0.0000 0.0000
# 5 0.0000 0.0000 0.0000 0.0000 -39.8171 0.0000
# 6 0.0000 0.0000 0.0000 0.0000 0.0000 20.2400
#
#
#
# Elastic Compliance Matrix: (Units=1/GPa)
#
#
# Indices 1 2 3 4 5 6 
#
# 1 0.016372 -0.005880 -0.003939 0.000000 0.000000 0.000000
# 2 -0.005880 0.008734 -0.000245 0.000000 0.000000 0.000000
# 3 -0.003939 -0.000245 0.007765 0.000000 0.000000 0.000000
# 4 0.000000 0.000000 0.000000 0.026785 0.000000 0.000000
# 5 0.000000 0.000000 0.000000 0.000000 -0.025115 0.000000
# 6 0.000000 0.000000 0.000000 0.000000 0.000000 0.049407
#
#
# Mechanical properties :
#
#
# Convention : Reuss Voigt Hill
#
# Bulk Modulus (GPa) = 78.47025 81.17602 79.82313
# Shear Modulus (GPa) = 46.15825 20.66448 33.41137
#
# Velocity S-wave (km/s) = 4.41606 2.95476 3.75714
# Velocity P-wave (km/s) = 7.69125 6.77770 7.24888
#
# Compressibility (1/GPa) = 0.01274368
#
# Stress axis : x y z
#
# Youngs Moduli (GPa) = 61.08122 114.49884 128.77769
#
# Poissons Ratio (x) = 0.67324 0.50721
# Poissons Ratio (y) = 0.35915 0.03155
# Poissons Ratio (z) = 0.24058 0.02805
#
# Static dielectric constant tensor:
#      x y z
#    x 1.929750 0.000000 0.000000 
#    y 0.000000 2.124580 0.000000 
#    z 0.000000 0.000000 1.958910 
# 
# From -- ./inp_files/9893.got.cif
#   From: 2010.05.17/outbox.cif.g08.bks.cpg/sg22_5_cif.got.tgz:9893.got - 2010.06.03 23:40:54.
