data_PCOD9328288
_publ_section_title
;
Structure prediction by ZEFSAII (Michael W. Deem and Ramdas Pophale) SiO2 
 PCOD9328288
Probable space group: F 2 2 2
;
_chemical_formula_sum "Si O2"
_cell_formula_units_Z 112
_cell_length_a 30.479293
_cell_length_b 15.816050
_cell_length_c 11.573427
_cell_angle_alpha 90.000000
_cell_angle_beta 90.000000
_cell_angle_gamma 90.000000
_cell_volume 5579.109622
_symmetry_space_group_name_H-M "F 2 2 2"
_symmetry_group_IT_number 22
_symmetry_cell_setting 'orthorhombic'
loop_
_space_group_symop_operation_xyz
x,y,z
-x,-y,z
x,-y,-z
-x,y,-z
x,1/2+y,1/2+z
-x,1/2-y,1/2+z
x,1/2-y,1/2-z
-x,1/2+y,1/2-z
1/2+x,y,1/2+z
1/2-x,-y,1/2+z
1/2+x,-y,1/2-z
1/2-x,y,1/2-z
1/2+x,1/2+y,z
1/2-x,1/2-y,z
1/2+x,1/2-y,-z
1/2-x,1/2+y,-z
loop_
_atom_site_type_symbol
_atom_site_label
_atom_site_fract_x
_atom_site_fract_y
_atom_site_fract_z
Si Si1 0.986305 0.658964 0.699542
Si Si2 0.049153 0.472632 0.863243
Si Si3 0.198092 0.153544 0.235355
Si Si4 0.441063 0.100208 0.468111
Si Si5 0.351999 0.001828 0.138341
Si Si6 0.841683 0.600195 0.494426
Si Si7 0.697887 0.649350 0.762137
O O1 0.997986 0.750000 0.750000
O O2 0.956252 0.619298 0.802840
O O3 0.959066 0.651307 0.579776
O O4 0.031456 0.617310 0.648722
O O5 0.096846 0.504035 0.820921
O O6 0.000000 0.500000 0.826480
O O7 0.049812 0.500000 0.000000
O O8 0.182439 0.250000 0.250000
O O9 0.250000 0.150477 0.250000
O O10 0.190145 0.128858 0.104553
O O11 0.173316 0.083683 0.312824
O O12 0.390708 0.126228 0.459766
O O13 0.445125 0.000000 0.500000
O O14 0.328442 0.915541 0.179991
O O15 0.351746 0.000000 0.000000
O O16 0.843073 0.500000 0.500000
O O17 0.822926 0.631206 0.614037
O O18 0.692527 0.750000 0.750000
O O19 0.750000 0.630595 0.750000
#
# Coordination Sequence:
#
# PCOD9328288 Si02
#       7
#    16  16  16  16  16  16  16
#     4  11  23  40  65  96 135 170 225 286 335 400
#     4  10  23  42  64  92 132 176 215 272 339 400
#     4  11  27  45  68 100 140 180 221 290 354 412
#     4  10  23  43  66  94 129 186 226 275 343 400
#     4  11  25  44  69 100 135 181 229 278 349 416
#     4  11  24  43  70  99 133 181 237 276 338 424
#     4  11  26  43  70 103 137 180 226 287 345 403
#
# _framework density 20.074887
#
# number of rings (size 3 to 8) (size 9 to 14) (size 15 to 20)
#    0.000    1.286    1.429    3.000    8.000    6.286 
#    2.571    0.000    0.000    0.000    0.000    0.000 
#    0.000    0.000    0.000    0.000    0.000    0.000 
#
# Total GULP energy -155921.883333 kJ/mol
# GULP energy per Si atom -5568.638690 kJ/mol
# Density = 2.002920 g / cm^3
# Si number density = 20.074887 Si / 1000 Ang^3
#
#
#
# Elastic Constant Matrix: (Units=GPa)
#
#
# Indices 1 2 3 4 5 6 
#
# 1 149.9357 65.8921 47.8919 0.0000 0.0000 0.0000
# 2 65.8921 100.7311 49.0198 0.0000 0.0000 0.0000
# 3 47.8919 49.0198 120.7502 0.0000 0.0000 0.0000
# 4 0.0000 0.0000 0.0000 29.5350 0.0000 0.0000
# 5 0.0000 0.0000 0.0000 0.0000 33.4392 0.0000
# 6 0.0000 0.0000 0.0000 0.0000 0.0000 164.1906
#
#
#
# Elastic Compliance Matrix: (Units=1/GPa)
#
#
# Indices 1 2 3 4 5 6 
#
# 1 0.009592 -0.005512 -0.001567 0.000000 0.000000 0.000000
# 2 -0.005512 0.015539 -0.004122 0.000000 0.000000 0.000000
# 3 -0.001567 -0.004122 0.010576 0.000000 0.000000 0.000000
# 4 0.000000 0.000000 0.000000 0.033858 0.000000 0.000000
# 5 0.000000 0.000000 0.000000 0.000000 0.029905 0.000000
# 6 0.000000 0.000000 0.000000 0.000000 0.000000 0.006090
#
#
# Mechanical properties :
#
#
# Convention : Reuss Voigt Hill
#
# Bulk Modulus (GPa) = 75.15528 77.44716 76.30122
# Shear Modulus (GPa) = 37.76456 59.34050 48.55253
#
# Velocity S-wave (km/s) = 4.34197 5.44277 4.92323
# Velocity P-wave (km/s) = 7.91553 8.84088 8.39097
#
# Compressibility (1/GPa) = 0.01330578
#
# Stress axis : x y z
#
# Youngs Moduli (GPa) = 104.24819 64.35339 94.55072
#
# Poissons Ratio (x) = 0.35474 0.14814
# Poissons Ratio (y) = 0.57465 0.38974
# Poissons Ratio (z) = 0.16333 0.26526
#
# Static dielectric constant tensor:
#      x y z
#    x 1.767870 0.000000 0.000000 
#    y 0.000000 1.734720 0.000000 
#    z 0.000000 0.000000 1.688550 
# 
# From -- ./inp_files/25394.got.cif
#   From: 2010.05.17/outbox.cif.g08.bks.cpg/sg22_13_cif.got.tgz:25394.got - 2010.06.03 23:40:54.
