data_PCOD9328185
_publ_section_title
;
Structure prediction by ZEFSAII (Michael W. Deem and Ramdas Pophale) SiO2 
 PCOD9328185
Probable space group: F 2 2 2
;
_chemical_formula_sum "Si O2"
_cell_formula_units_Z 88
_cell_length_a 23.204634
_cell_length_b 27.029439
_cell_length_c 6.030294
_cell_angle_alpha 90.000000
_cell_angle_beta 90.000000
_cell_angle_gamma 90.000000
_cell_volume 3782.250082
_symmetry_space_group_name_H-M "F 2 2 2"
_symmetry_group_IT_number 22
_symmetry_cell_setting 'orthorhombic'
loop_
_space_group_symop_operation_xyz
x,y,z
-x,-y,z
x,-y,-z
-x,y,-z
x,1/2+y,1/2+z
-x,1/2-y,1/2+z
x,1/2-y,1/2-z
-x,1/2+y,1/2-z
1/2+x,y,1/2+z
1/2-x,-y,1/2+z
1/2+x,-y,1/2-z
1/2-x,y,1/2-z
1/2+x,1/2+y,z
1/2-x,1/2-y,z
1/2+x,1/2-y,-z
1/2-x,1/2+y,-z
loop_
_atom_site_type_symbol
_atom_site_label
_atom_site_fract_x
_atom_site_fract_y
_atom_site_fract_z
Si Si1 0.120839 0.000000 0.500000
Si Si2 0.333274 0.160258 0.012290
Si Si3 0.560108 0.404397 0.400600
Si Si4 0.000000 0.383721 0.500000
Si Si5 0.156025 0.750000 0.250000
Si Si6 0.417077 0.203316 0.364624
Si Si7 0.750000 0.416869 0.750000
Si Si8 0.819537 0.000000 0.000000
O O1 0.082220 0.951524 0.532616
O O2 0.151298 0.008335 0.747747
O O3 0.387297 0.133465 0.893556
O O4 0.309738 0.205194 0.864928
O O5 0.363092 0.187652 0.216644
O O6 0.291503 0.118616 0.107648
O O7 0.500000 0.384685 0.500000
O O8 0.539685 0.417028 0.154367
O O9 0.955977 0.344566 0.608926
O O10 0.111836 0.723544 0.416136
O O11 0.448618 0.250000 0.250000
O O12 0.781856 0.452109 0.570184
#
# Coordination Sequence:
#
# PCOD9328185 Si02
#       8
#     8  16  16   8   8  16   8   8
#     4  12  30  54  83 112 177 200 284 340 436 512
#     4  11  24  48  73 115 156 211 268 349 412 511
#     4  12  26  47  72 116 156 214 257 334 416 511
#     4  12  24  38  75 108 158 206 264 321 410 498
#     4  10  22  46  71 106 160 206 274 331 418 496
#     4  10  23  39  66 107 152 200 261 323 396 492
#     4  12  28  52  87 116 164 211 294 364 442 502
#     4  12  29  56  82 124 154 220 279 368 424 522
#
# _framework density 23.266572
#
# number of rings (size 3 to 8) (size 9 to 14) (size 15 to 20)
#    0.000    0.727    5.455    0.818    6.364    0.000 
#    3.273    5.000    0.000    0.000    0.000    0.000 
#    0.000    0.000    0.000    0.000    0.000    0.000 
#
# Total GULP energy -122642.349581 kJ/mol
# GULP energy per Si atom -5574.652254 kJ/mol
# Density = 2.321362 g / cm^3
# Si number density = 23.266572 Si / 1000 Ang^3
#
#
#
# Elastic Constant Matrix: (Units=GPa)
#
#
# Indices 1 2 3 4 5 6 
#
# 1 104.4151 51.8463 58.6378 0.0716 -0.0317 -0.0759
# 2 51.8463 117.8821 48.0851 0.0636 -0.0283 -0.0665
# 3 58.6378 48.0851 136.4782 0.1329 -0.0756 -0.1225
# 4 0.0716 0.0636 0.1329 52.0388 -0.0784 -0.1060
# 5 -0.0317 -0.0283 -0.0756 -0.0784 29.8606 0.0808
# 6 -0.0759 -0.0665 -0.1225 -0.1060 0.0808 34.9181
#
#
#
# Elastic Compliance Matrix: (Units=1/GPa)
#
#
# Indices 1 2 3 4 5 6 
#
# 1 0.014371 -0.004440 -0.004610 -0.000003 -0.000001 0.000007
# 2 -0.004440 0.011279 -0.002066 -0.000002 0.000001 0.000005
# 3 -0.004610 -0.002066 0.010036 -0.000017 0.000018 0.000021
# 4 -0.000003 -0.000002 -0.000017 0.019217 0.000050 0.000058
# 5 -0.000001 0.000001 0.000018 0.000050 0.033489 -0.000077
# 6 0.000007 0.000005 0.000021 0.000058 -0.000077 0.028639
#
#
# Mechanical properties :
#
#
# Convention : Reuss Voigt Hill
#
# Bulk Modulus (GPa) = 74.33329 75.10153 74.71741
# Shear Modulus (GPa) = 34.78340 36.71057 35.74699
#
# Velocity S-wave (km/s) = 3.87071 3.97649 3.92396
# Velocity P-wave (km/s) = 7.21072 7.30973 7.26039
#
# Compressibility (1/GPa) = 0.01345292
#
# Stress axis : x y z
#
# Youngs Moduli (GPa) = 69.58603 88.66332 99.64253
#
# Poissons Ratio (x) = 0.39366 0.45935
# Poissons Ratio (y) = 0.30896 0.20587
# Poissons Ratio (z) = 0.32079 0.18319
#
# Static dielectric constant tensor:
#      x y z
#    x 1.614480 -0.000040 -0.000050 
#    y -0.000040 1.868330 -0.000020 
#    z -0.000050 -0.000020 2.054430 
# 
# From -- ./inp_files/4937.got.cif
#   From: 2010.05.17/outbox.cif.g08.bks.cpg/sg22_3_cif.got.tgz:4937.got - 2010.06.03 23:40:54.
