data_PCOD9328608
_publ_section_title
;
Structure prediction by ZEFSAII (Michael W. Deem and Ramdas Pophale) SiO2 
 PCOD9328608
Probable space group: F 2 2 2
;
_chemical_formula_sum "Si O2"
_cell_formula_units_Z 64
_cell_length_a 5.958783
_cell_length_b 16.429440
_cell_length_c 28.157662
_cell_angle_alpha 90.000000
_cell_angle_beta 90.000000
_cell_angle_gamma 90.000000
_cell_volume 2756.620123
_symmetry_space_group_name_H-M "F 2 2 2"
_symmetry_group_IT_number 22
_symmetry_cell_setting 'orthorhombic'
loop_
_space_group_symop_operation_xyz
x,y,z
-x,-y,z
x,-y,-z
-x,y,-z
x,1/2+y,1/2+z
-x,1/2-y,1/2+z
x,1/2-y,1/2-z
-x,1/2+y,1/2-z
1/2+x,y,1/2+z
1/2-x,-y,1/2+z
1/2+x,-y,1/2-z
1/2-x,y,1/2-z
1/2+x,1/2+y,z
1/2-x,1/2-y,z
1/2+x,1/2-y,-z
1/2-x,1/2+y,-z
loop_
_atom_site_type_symbol
_atom_site_label
_atom_site_fract_x
_atom_site_fract_y
_atom_site_fract_z
Si Si1 0.318774 0.428110 0.424280
Si Si2 0.000000 0.500000 0.500000
Si Si3 0.746789 0.489858 0.176208
Si Si4 0.750000 0.750000 0.250000
Si Si5 0.573263 0.683978 0.826162
Si Si6 0.250000 0.250000 0.405464
O O1 0.500000 0.500000 0.433375
O O2 0.137389 0.444169 0.464316
O O3 0.243395 0.451821 0.370257
O O4 0.361516 0.331333 0.428092
O O5 0.500000 0.500000 0.200676
O O6 0.720004 0.395444 0.163338
O O7 0.000000 0.500000 0.196193
O O8 0.611069 0.689015 0.215733
O O9 0.750000 0.750000 0.809844
O O10 0.446496 0.713230 0.872917
#
# Coordination Sequence:
#
# PCOD9328608 Si02
#       6
#    16   4  16   4  16   8
#     4  11  23  42  68 104 138 189 239 303 368 435
#     4  12  22  44  60  94 154 192 226 296 370 440
#     4  11  22  42  73 103 132 180 246 295 355 423
#     4  10  26  40  68 102 148 188 236 292 390 432
#     4  11  22  41  71  99 138 184 234 301 359 443
#     4  11  22  43  74 106 132 182 252 300 364 441
#
# _framework density 23.216837999999999
#
# number of rings (size 3 to 8) (size 9 to 14) (size 15 to 20)
#    0.000    1.000    3.750    3.750    3.500    0.000 
#    4.500    0.000    5.500    0.000    0.000    0.000 
#    0.000    0.000    0.000    0.000    0.000    0.000 
#
# Total GULP energy -89125.244546 kJ/mol
# GULP energy per Si atom -5570.327784 kJ/mol
# Density = 2.316400 g / cm^3
# Si number density = 23.216838 Si / 1000 Ang^3
#
#
#
# Elastic Constant Matrix: (Units=GPa)
#
#
# Indices 1 2 3 4 5 6 
#
# 1 154.3724 43.1062 20.7035 0.0000 0.0000 0.0000
# 2 43.1062 205.9062 22.3192 0.0000 0.0000 0.0000
# 3 20.7035 22.3192 74.5819 0.0000 0.0000 0.0000
# 4 0.0000 0.0000 0.0000 -10.0514 0.0000 0.0000
# 5 0.0000 0.0000 0.0000 0.0000 -26.5940 0.0000
# 6 0.0000 0.0000 0.0000 0.0000 0.0000 38.4901
#
#
#
# Elastic Compliance Matrix: (Units=1/GPa)
#
#
# Indices 1 2 3 4 5 6 
#
# 1 0.007053 -0.001307 -0.001567 0.000000 0.000000 0.000000
# 2 -0.001307 0.005261 -0.001212 0.000000 0.000000 0.000000
# 3 -0.001567 -0.001212 0.014206 0.000000 0.000000 0.000000
# 4 0.000000 0.000000 0.000000 -0.099489 0.000000 0.000000
# 5 0.000000 0.000000 0.000000 0.000000 -0.037602 0.000000
# 6 0.000000 0.000000 0.000000 0.000000 0.000000 0.025981
#
#
# Mechanical properties :
#
#
# Convention : Reuss Voigt Hill
#
# Bulk Modulus (GPa) = 54.49764 67.45760 60.97762
# Shear Modulus (GPa) = -71.11999 23.61771 -23.75114
#
# Velocity S-wave (km/s) = -5.54071 3.19292 -3.20193
# Velocity P-wave (km/s) = 4.17233 6.53541 3.55691
#
# Compressibility (1/GPa) = 0.01834942
#
# Stress axis : x y z
#
# Youngs Moduli (GPa) = 141.78683 190.06039 70.39448
#
# Poissons Ratio (x) = 0.24835 0.11029
# Poissons Ratio (y) = 0.18527 0.08531
# Poissons Ratio (z) = 0.22215 0.23032
#
# Static dielectric constant tensor:
#      x y z
#    x 1.963400 0.000000 0.000000 
#    y 0.000000 1.951510 0.000000 
#    z 0.000000 0.000000 1.860010 
# 
# From -- ./inp_files/54794.got.cif
#   From: 2010.05.17/outbox.cif.g08.bks.cpg/sg22_28_cif.got.tgz:54794.got - 2010.06.03 23:40:54.
