data_PCOD9328989
_publ_section_title
;
Structure prediction by ZEFSAII (Michael W. Deem and Ramdas Pophale) SiO2 
 PCOD9328989
Probable space group: F 2 2 2
;
_chemical_formula_sum "Si O2"
_cell_formula_units_Z 64
_cell_length_a 8.846751
_cell_length_b 12.727947
_cell_length_c 22.258076
_cell_angle_alpha 90.000000
_cell_angle_beta 90.000000
_cell_angle_gamma 90.000000
_cell_volume 2506.281123
_symmetry_space_group_name_H-M "F 2 2 2"
_symmetry_group_IT_number 22
_symmetry_cell_setting 'orthorhombic'
loop_
_space_group_symop_operation_xyz
x,y,z
-x,-y,z
x,-y,-z
-x,y,-z
x,1/2+y,1/2+z
-x,1/2-y,1/2+z
x,1/2-y,1/2-z
-x,1/2+y,1/2-z
1/2+x,y,1/2+z
1/2-x,-y,1/2+z
1/2+x,-y,1/2-z
1/2-x,y,1/2-z
1/2+x,1/2+y,z
1/2-x,1/2-y,z
1/2+x,1/2-y,-z
1/2-x,1/2+y,-z
loop_
_atom_site_type_symbol
_atom_site_label
_atom_site_fract_x
_atom_site_fract_y
_atom_site_fract_z
Si Si1 0.442982 0.121648 0.937487
Si Si2 0.081963 0.372322 0.734625
Si Si3 0.656079 0.644036 0.331391
Si Si4 0.645456 0.541466 0.891753
O O1 0.524617 0.170003 0.879828
O O2 0.263867 0.112822 0.927782
O O3 0.500000 0.000000 0.938180
O O4 0.500000 0.169339 0.000000
O O5 0.087121 0.250000 0.750000
O O6 0.250000 0.411826 0.750000
O O7 0.073739 0.396963 0.664665
O O8 0.933540 0.401567 0.773490
O O9 0.750000 0.750000 0.318965
O O10 0.757512 0.554997 0.363412
O O11 0.500000 0.500000 0.927080
#
# Coordination Sequence:
#
# PCOD9328989 Si02
#       4
#    16  16  16  16
#     4   9  20  43  69  93 132 182 233 291 346 403
#     4  11  24  40  62  97 138 178 219 279 339 417
#     4  11  24  44  64  98 142 183 225 281 353 421
#     4  11  24  40  70 103 135 184 231 284 354 421
#
# _framework density 25.535843
#
# number of rings (size 3 to 8) (size 9 to 14) (size 15 to 20)
#    0.000    1.500    2.500    1.500    3.500    2.500 
#    0.000   15.000    0.000    0.000    0.000    0.000 
#    0.000    0.000    0.000    0.000    0.000    0.000 
#
# Total GULP energy -89529.502838 kJ/mol
# GULP energy per Si atom -5595.593927 kJ/mol
# Density = 2.547772 g / cm^3
# Si number density = 25.535843 Si / 1000 Ang^3
#
#
#
# Elastic Constant Matrix: (Units=GPa)
#
#
# Indices 1 2 3 4 5 6 
#
# 1 231.5554 41.8685 77.5271 0.0000 0.0000 0.0000
# 2 41.8685 103.2485 14.6451 0.0000 0.0000 0.0000
# 3 77.5271 14.6451 136.0261 0.0000 0.0000 0.0000
# 4 0.0000 0.0000 0.0000 58.5788 0.0000 0.0000
# 5 0.0000 0.0000 0.0000 0.0000 7.8539 0.0000
# 6 0.0000 0.0000 0.0000 0.0000 0.0000 45.0020
#
#
#
# Elastic Compliance Matrix: (Units=1/GPa)
#
#
# Indices 1 2 3 4 5 6 
#
# 1 0.005672 -0.001870 -0.003031 0.000000 0.000000 0.000000
# 2 -0.001870 0.010452 -0.000060 0.000000 0.000000 0.000000
# 3 -0.003031 -0.000060 0.009086 0.000000 0.000000 0.000000
# 4 0.000000 0.000000 0.000000 0.017071 0.000000 0.000000
# 5 0.000000 0.000000 0.000000 0.000000 0.127325 0.000000
# 6 0.000000 0.000000 0.000000 0.000000 0.000000 0.022221
#
#
# Mechanical properties :
#
#
# Convention : Reuss Voigt Hill
#
# Bulk Modulus (GPa) = 65.41114 82.10128 73.75621
# Shear Modulus (GPa) = 24.17286 44.73958 34.45622
#
# Velocity S-wave (km/s) = 3.08006 4.19027 3.67730
# Velocity P-wave (km/s) = 6.19032 7.45871 6.85392
#
# Compressibility (1/GPa) = 0.01528791
#
# Stress axis : x y z
#
# Youngs Moduli (GPa) = 176.31713 95.67448 110.06512
#
# Poissons Ratio (x) = 0.17891 0.33363
# Poissons Ratio (y) = 0.32971 0.00655
# Poissons Ratio (z) = 0.53445 0.00570
#
# Static dielectric constant tensor:
#      x y z
#    x 2.069170 0.000000 0.000000 
#    y 0.000000 2.067600 0.000000 
#    z 0.000000 0.000000 2.036240 
# 
# From -- ./inp_files/9773.got.cif
#   From: 2010.05.17/outbox.cif.g08.bks.cpg/sg22_5_cif.got.tgz:9773.got - 2010.06.03 23:40:54.
