data_PCOD9328793
_publ_section_title
;
Structure prediction by ZEFSAII (Michael W. Deem and Ramdas Pophale) SiO2 
 PCOD9328793
Probable space group: F 2 2 2
;
_chemical_formula_sum "Si O2"
_cell_formula_units_Z 80
_cell_length_a 25.570116
_cell_length_b 15.389869
_cell_length_c 9.811778
_cell_angle_alpha 90.000000
_cell_angle_beta 90.000000
_cell_angle_gamma 90.000000
_cell_volume 3861.138096
_symmetry_space_group_name_H-M "F 2 2 2"
_symmetry_group_IT_number 22
_symmetry_cell_setting 'orthorhombic'
loop_
_space_group_symop_operation_xyz
x,y,z
-x,-y,z
x,-y,-z
-x,y,-z
x,1/2+y,1/2+z
-x,1/2-y,1/2+z
x,1/2-y,1/2-z
-x,1/2+y,1/2-z
1/2+x,y,1/2+z
1/2-x,-y,1/2+z
1/2+x,-y,1/2-z
1/2-x,y,1/2-z
1/2+x,1/2+y,z
1/2-x,1/2-y,z
1/2+x,1/2-y,-z
1/2-x,1/2+y,-z
loop_
_atom_site_type_symbol
_atom_site_label
_atom_site_fract_x
_atom_site_fract_y
_atom_site_fract_z
Si Si1 0.703306 0.538236 0.854816
Si Si2 0.866372 0.250000 0.750000
Si Si3 0.948494 0.097297 0.096563
Si Si4 0.398915 0.431758 0.181404
Si Si5 0.311765 0.770542 0.459467
Si Si6 0.105641 0.750000 0.250000
O O1 0.750000 0.538152 0.750000
O O2 0.656333 0.478856 0.798280
O O3 0.686096 0.635533 0.887989
O O4 0.720551 0.500000 0.000000
O O5 0.899934 0.339827 0.759637
O O6 0.830757 0.263424 0.615689
O O7 0.932908 0.177601 0.188691
O O8 0.941572 0.009705 0.187140
O O9 0.904944 0.092720 0.977633
O O10 0.000000 0.104536 0.000000
O O11 0.250000 0.750000 0.451536
O O12 0.354623 0.718075 0.369710
#
# Coordination Sequence:
#
# PCOD9328793 Si02
#       6
#    16   8  16  16  16   8
#     4  12  23  42  65  98 144 197 248 291 366 446
#     4  12  23  41  68 105 147 194 241 292 357 446
#     4  11  23  45  76 103 137 195 242 303 381 443
#     4  11  21  45  68  97 140 186 242 295 363 439
#     4  12  25  40  67 104 155 197 240 297 372 445
#     4  12  21  47  70 109 143 184 248 308 366 444
#
# _framework density 20.719280000000001
#
# number of rings (size 3 to 8) (size 9 to 14) (size 15 to 20)
#    0.000    0.400    8.000    3.000    2.800    0.800 
#    0.000    1.000    0.000    0.000    0.000    0.000 
#    0.000    0.000    0.000    0.000    0.000    0.000 
#
# Total GULP energy -111428.435273 kJ/mol
# GULP energy per Si atom -5571.421764 kJ/mol
# Density = 2.067212 g / cm^3
# Si number density = 20.719280 Si / 1000 Ang^3
#
#
#
# Elastic Constant Matrix: (Units=GPa)
#
#
# Indices 1 2 3 4 5 6 
#
# 1 153.0605 60.9508 46.9934 0.0000 0.0000 0.0000
# 2 60.9508 165.8810 47.7275 0.0000 0.0000 0.0000
# 3 46.9934 47.7275 84.3888 0.0000 0.0000 0.0000
# 4 0.0000 0.0000 0.0000 46.7512 0.0000 0.0000
# 5 0.0000 0.0000 0.0000 0.0000 36.9285 0.0000
# 6 0.0000 0.0000 0.0000 0.0000 0.0000 -8.8623
#
#
#
# Elastic Compliance Matrix: (Units=1/GPa)
#
#
# Indices 1 2 3 4 5 6 
#
# 1 0.008447 -0.002091 -0.003522 0.000000 0.000000 0.000000
# 2 -0.002091 0.007717 -0.003201 0.000000 0.000000 0.000000
# 3 -0.003522 -0.003201 0.015621 0.000000 0.000000 0.000000
# 4 0.000000 0.000000 0.000000 0.021390 0.000000 0.000000
# 5 0.000000 0.000000 0.000000 0.000000 0.027079 0.000000
# 6 0.000000 0.000000 0.000000 0.000000 0.000000 -0.112838
#
#
# Mechanical properties :
#
#
# Convention : Reuss Voigt Hill
#
# Bulk Modulus (GPa) = 70.62022 79.40820 75.01421
# Shear Modulus (GPa) = -488.37899 31.47405 -228.45247
#
# Velocity S-wave (km/s) = -15.36958 3.90175 -10.51191
# Velocity P-wave (km/s) = 16.75730 7.66206 10.53802
#
# Compressibility (1/GPa) = 0.01416025
#
# Stress axis : x y z
#
# Youngs Moduli (GPa) = 118.38456 129.57682 64.01599
#
# Poissons Ratio (x) = 0.27088 0.22544
# Poissons Ratio (y) = 0.24749 0.20489
# Poissons Ratio (z) = 0.41690 0.41472
#
# Static dielectric constant tensor:
#      x y z
#    x 1.850480 0.000000 0.000000 
#    y 0.000000 1.893670 0.000000 
#    z 0.000000 0.000000 1.853570 
# 
# From -- ./inp_files/14674.got.cif
#   From: 2010.05.17/outbox.cif.g08.bks.cpg/sg22_8_cif.got.tgz:14674.got - 2010.06.03 23:40:54.
