data_PCOD9328122
_publ_section_title
;
Structure prediction by ZEFSAII (Michael W. Deem and Ramdas Pophale) SiO2 
 PCOD9328122
Probable space group: F 2 2 2
;
_chemical_formula_sum "Si O2"
_cell_formula_units_Z 44
_cell_length_a 4.787446
_cell_length_b 13.961001
_cell_length_c 27.229236
_cell_angle_alpha 90.000000
_cell_angle_beta 90.000000
_cell_angle_gamma 90.000000
_cell_volume 1819.935107
_symmetry_space_group_name_H-M "F 2 2 2"
_symmetry_group_IT_number 22
_symmetry_cell_setting 'orthorhombic'
loop_
_space_group_symop_operation_xyz
x,y,z
-x,-y,z
x,-y,-z
-x,y,-z
x,1/2+y,1/2+z
-x,1/2-y,1/2+z
x,1/2-y,1/2-z
-x,1/2+y,1/2-z
1/2+x,y,1/2+z
1/2-x,-y,1/2+z
1/2+x,-y,1/2-z
1/2-x,y,1/2-z
1/2+x,1/2+y,z
1/2-x,1/2-y,z
1/2+x,1/2-y,-z
1/2-x,1/2+y,-z
loop_
_atom_site_type_symbol
_atom_site_label
_atom_site_fract_x
_atom_site_fract_y
_atom_site_fract_z
Si Si1 0.545157 0.888339 0.174975
Si Si2 0.542836 0.111048 0.391359
Si Si3 0.750000 0.750000 0.467399
Si Si4 0.250000 0.250000 0.750000
O O1 0.860937 0.872798 0.158096
O O2 0.439489 0.818682 0.216585
O O3 0.358246 0.871120 0.125801
O O4 0.500000 0.000000 0.188475
O O5 0.417289 0.175409 0.433749
O O6 0.500000 0.000000 0.404326
O O7 0.500000 0.704770 0.500000
#
# Coordination Sequence:
#
# PCOD9328122 Si02
#       4
#    16  16   8   4
#     4  10  23  40  64  93 129 175 220 260 317 389
#     4  10  22  44  64  88 130 175 211 258 324 390
#     4  12  24  39  66 101 130 161 216 275 324 388
#     4  12  24  40  68 100 136 170 216 284 324 356
#
# _framework density 24.176684999999999
#
# number of rings (size 3 to 8) (size 9 to 14) (size 15 to 20)
#    0.000    1.455    0.000    4.364    0.000    8.000 
#    0.000    1.818    0.000    0.000    0.000    0.000 
#    0.000    0.000    0.000    0.000    0.000    0.000 
#
# Total GULP energy -61711.527246 kJ/mol
# GULP energy per Si atom -5610.138841 kJ/mol
# Density = 2.412166 g / cm^3
# Si number density = 24.176685 Si / 1000 Ang^3
#
#
#
# Elastic Constant Matrix: (Units=GPa)
#
#
# Indices 1 2 3 4 5 6 
#
# 1 94.6211 32.8363 9.3287 0.0000 0.0000 0.0000
# 2 32.8363 136.0564 83.0368 0.0000 0.0000 0.0000
# 3 9.3287 83.0368 85.2221 0.0000 0.0000 0.0000
# 4 0.0000 0.0000 0.0000 -16.0982 0.0000 0.0000
# 5 0.0000 0.0000 0.0000 0.0000 26.3707 0.0000
# 6 0.0000 0.0000 0.0000 0.0000 0.0000 37.8399
#
#
#
# Elastic Compliance Matrix: (Units=1/GPa)
#
#
# Indices 1 2 3 4 5 6 
#
# 1 0.011994 -0.005165 0.003719 0.000000 0.000000 0.000000
# 2 -0.005165 0.020357 -0.019269 0.000000 0.000000 0.000000
# 3 0.003719 -0.019269 0.030102 0.000000 0.000000 0.000000
# 4 0.000000 0.000000 0.000000 -0.062119 0.000000 0.000000
# 5 0.000000 0.000000 0.000000 0.000000 0.037921 0.000000
# 6 0.000000 0.000000 0.000000 0.000000 0.000000 0.026427
#
#
# Mechanical properties :
#
#
# Convention : Reuss Voigt Hill
#
# Bulk Modulus (GPa) = 47.56582 62.92258 55.24420
# Shear Modulus (GPa) = 44.20110 22.33565 33.26837
#
# Velocity S-wave (km/s) = 4.28045 3.04279 3.71354
# Velocity P-wave (km/s) = 6.64429 6.19898 6.42550
#
# Compressibility (1/GPa) = 0.02102350
#
# Stress axis : x y z
#
# Youngs Moduli (GPa) = 83.37475 49.12410 33.22025
#
# Poissons Ratio (x) = 0.25370 -0.12355
# Poissons Ratio (y) = 0.43059 0.64013
# Poissons Ratio (z) = -0.31009 0.94659
#
# Static dielectric constant tensor:
#      x y z
#    x 1.876250 0.000000 0.000000 
#    y 0.000000 1.906730 0.000000 
#    z 0.000000 0.000000 1.916670 
# 
# From -- ./inp_files/1534.got.cif
#   From: 2010.05.17/outbox.cif.g08.bks.cpg/sg22_1_cif.got.tgz:1534.got - 2010.06.03 23:40:54.
