data_PCOD9328380
_publ_section_title
;
Structure prediction by ZEFSAII (Michael W. Deem and Ramdas Pophale) SiO2 
 PCOD9328380
Probable space group: F 2 2 2
;
_chemical_formula_sum "Si O2"
_cell_formula_units_Z 48
_cell_length_a 6.904851
_cell_length_b 21.946355
_cell_length_c 12.390946
_cell_angle_alpha 90.000000
_cell_angle_beta 90.000000
_cell_angle_gamma 90.000000
_cell_volume 1877.678250
_symmetry_space_group_name_H-M "F 2 2 2"
_symmetry_group_IT_number 22
_symmetry_cell_setting 'orthorhombic'
loop_
_space_group_symop_operation_xyz
x,y,z
-x,-y,z
x,-y,-z
-x,y,-z
x,1/2+y,1/2+z
-x,1/2-y,1/2+z
x,1/2-y,1/2-z
-x,1/2+y,1/2-z
1/2+x,y,1/2+z
1/2-x,-y,1/2+z
1/2+x,-y,1/2-z
1/2-x,y,1/2-z
1/2+x,1/2+y,z
1/2-x,1/2-y,z
1/2+x,1/2-y,-z
1/2-x,1/2+y,-z
loop_
_atom_site_type_symbol
_atom_site_label
_atom_site_fract_x
_atom_site_fract_y
_atom_site_fract_z
Si Si1 0.250000 0.411755 0.750000
Si Si2 0.025188 0.681806 0.776954
Si Si3 0.722299 0.476155 0.867436
Si Si4 0.500000 0.890291 0.000000
O O1 0.411744 0.367308 0.795924
O O2 0.328477 0.459472 0.662113
O O3 0.958849 0.750000 0.750000
O O4 0.250000 0.682113 0.750000
O O5 0.977550 0.656255 0.897085
O O6 0.500000 0.500000 0.883685
O O7 0.750000 0.445277 0.750000
O O8 0.820930 0.433365 0.955599
#
# Coordination Sequence:
#
# PCOD9328380 Si02
#       4
#     8  16  16   8
#     4  10  23  46  78 106 171 204 258 352 408 468
#     4  11  26  52  79 112 166 219 280 345 396 484
#     4  10  23  45  82 125 168 213 259 349 421 492
#     4  12  24  47  90 118 162 221 276 328 430 497
#
# _framework density 25.563485
#
# number of rings (size 3 to 8) (size 9 to 14) (size 15 to 20)
#    1.000    0.333    0.000    5.500    0.000    2.667 
#   12.000   10.000    0.000    0.000    0.000    0.000 
#    0.000    0.000    0.000    0.000    0.000    0.000 
#
# Total GULP energy -66889.167794 kJ/mol
# GULP energy per Si atom -5574.097316 kJ/mol
# Density = 2.550530 g / cm^3
# Si number density = 25.563485 Si / 1000 Ang^3
#
#
#
# Elastic Constant Matrix: (Units=GPa)
#
#
# Indices 1 2 3 4 5 6 
#
# 1 197.2454 75.4945 44.9129 0.0000 0.0000 0.0000
# 2 75.4945 271.6453 63.5861 0.0000 0.0000 0.0000
# 3 44.9129 63.5861 217.6238 0.0000 0.0000 0.0000
# 4 0.0000 0.0000 0.0000 17.5378 0.0000 0.0000
# 5 0.0000 0.0000 0.0000 0.0000 31.5441 0.0000
# 6 0.0000 0.0000 0.0000 0.0000 0.0000 52.7594
#
#
#
# Elastic Compliance Matrix: (Units=1/GPa)
#
#
# Indices 1 2 3 4 5 6 
#
# 1 0.005794 -0.001428 -0.000778 0.000000 0.000000 0.000000
# 2 -0.001428 0.004303 -0.000963 0.000000 0.000000 0.000000
# 3 -0.000778 -0.000963 0.005037 0.000000 0.000000 0.000000
# 4 0.000000 0.000000 0.000000 0.057020 0.000000 0.000000
# 5 0.000000 0.000000 0.000000 0.000000 0.031702 0.000000
# 6 0.000000 0.000000 0.000000 0.000000 0.000000 0.018954
#
#
# Mechanical properties :
#
#
# Convention : Reuss Voigt Hill
#
# Bulk Modulus (GPa) = 113.68899 117.16683 115.42791
# Shear Modulus (GPa) = 37.85595 53.86964 45.86280
#
# Velocity S-wave (km/s) = 3.85237 4.59550 4.24025
# Velocity P-wave (km/s) = 8.02231 8.60763 8.32012
#
# Compressibility (1/GPa) = 0.00879593
#
# Stress axis : x y z
#
# Youngs Moduli (GPa) = 172.60395 232.37110 198.52962
#
# Poissons Ratio (x) = 0.33181 0.15455
# Poissons Ratio (y) = 0.24646 0.19113
# Poissons Ratio (z) = 0.13437 0.22371
#
# Static dielectric constant tensor:
#      x y z
#    x 2.207940 0.000000 0.000000 
#    y 0.000000 2.045750 0.000000 
#    z 0.000000 0.000000 2.230630 
# 
# From -- ./inp_files/26653.got.cif
#   From: 2010.05.17/outbox.cif.g08.bks.cpg/sg22_14_cif.got.tgz:26653.got - 2010.06.03 23:40:54.
