data_PCOD9328264
_publ_section_title
;
Structure prediction by ZEFSAII (Michael W. Deem and Ramdas Pophale) SiO2 
 PCOD9328264
Probable space group: F 2 2 2
;
_chemical_formula_sum "Si O2"
_cell_formula_units_Z 88
_cell_length_a 27.719897
_cell_length_b 12.011924
_cell_length_c 14.302187
_cell_angle_alpha 90.000000
_cell_angle_beta 90.000000
_cell_angle_gamma 90.000000
_cell_volume 4762.189137
_symmetry_space_group_name_H-M "F 2 2 2"
_symmetry_group_IT_number 22
_symmetry_cell_setting 'orthorhombic'
loop_
_space_group_symop_operation_xyz
x,y,z
-x,-y,z
x,-y,-z
-x,y,-z
x,1/2+y,1/2+z
-x,1/2-y,1/2+z
x,1/2-y,1/2-z
-x,1/2+y,1/2-z
1/2+x,y,1/2+z
1/2-x,-y,1/2+z
1/2+x,-y,1/2-z
1/2-x,y,1/2-z
1/2+x,1/2+y,z
1/2-x,1/2-y,z
1/2+x,1/2-y,-z
1/2-x,1/2+y,-z
loop_
_atom_site_type_symbol
_atom_site_label
_atom_site_fract_x
_atom_site_fract_y
_atom_site_fract_z
Si Si1 0.374919 0.750000 0.750000
Si Si2 0.694410 0.423856 0.779562
Si Si3 0.556337 0.131414 0.389890
Si Si4 0.947822 0.864738 0.111432
Si Si5 0.839854 0.838414 0.824010
Si Si6 0.279718 0.131925 0.486044
O O1 0.338150 0.655160 0.716385
O O2 0.409055 0.799516 0.670981
O O3 0.750000 0.425625 0.750000
O O4 0.670530 0.543382 0.777706
O O5 0.693567 0.380530 0.886689
O O6 0.558384 0.154184 0.500916
O O7 0.502594 0.166125 0.359817
O O8 0.603512 0.180845 0.342233
O O9 0.558525 0.997611 0.376143
O O10 0.820211 0.750000 0.750000
O O11 0.813524 0.846645 0.924189
O O12 0.250000 0.250000 0.479853
O O13 0.259693 0.000000 0.500000
#
# Coordination Sequence:
#
# PCOD9328264 Si02
#       6
#     8  16  16  16  16  16
#     4  12  19  34  60  94 112 150 197 258 302 360
#     4  11  24  39  60  88 123 159 208 259 312 370
#     4   9  18  39  54  89 118 162 196 250 301 376
#     4   9  19  32  65  85 120 153 206 244 308 369
#     4  11  24  37  62  87 125 162 208 254 314 371
#     4  10  23  41  63  89 124 168 209 262 314 377
#
# _framework density 18.478898000000001
#
# number of rings (size 3 to 8) (size 9 to 14) (size 15 to 20)
#    0.000    1.818    1.818    3.545   11.455    0.000 
#    0.000    0.000    0.000    0.000    0.000    2.545 
#    0.000    0.000    0.000    0.000    0.000    0.000 
#
# Total GULP energy -122547.134860 kJ/mol
# GULP energy per Si atom -5570.324312 kJ/mol
# Density = 1.843684 g / cm^3
# Si number density = 18.478898 Si / 1000 Ang^3
#
#
#
# Elastic Constant Matrix: (Units=GPa)
#
#
# Indices 1 2 3 4 5 6 
#
# 1 95.7421 39.4174 20.0758 0.0000 0.0000 0.0000
# 2 39.4174 97.9731 25.9906 0.0000 0.0000 0.0000
# 3 20.0758 25.9906 50.8276 0.0000 0.0000 0.0000
# 4 0.0000 0.0000 0.0000 35.2518 0.0000 0.0000
# 5 0.0000 0.0000 0.0000 0.0000 20.2035 0.0000
# 6 0.0000 0.0000 0.0000 0.0000 0.0000 20.4182
#
#
#
# Elastic Compliance Matrix: (Units=1/GPa)
#
#
# Indices 1 2 3 4 5 6 
#
# 1 0.012857 -0.004426 -0.002815 0.000000 0.000000 0.000000
# 2 -0.004426 0.013332 -0.005069 0.000000 0.000000 0.000000
# 3 -0.002815 -0.005069 0.023378 0.000000 0.000000 0.000000
# 4 0.000000 0.000000 0.000000 0.028367 0.000000 0.000000
# 5 0.000000 0.000000 0.000000 0.000000 0.049496 0.000000
# 6 0.000000 0.000000 0.000000 0.000000 0.000000 0.048976
#
#
# Mechanical properties :
#
#
# Convention : Reuss Voigt Hill
#
# Bulk Modulus (GPa) = 40.08466 46.16782 43.12624
# Shear Modulus (GPa) = 23.88410 25.77863 24.83136
#
# Velocity S-wave (km/s) = 3.59904 3.73906 3.66972
# Velocity P-wave (km/s) = 6.24580 6.60902 6.42998
#
# Compressibility (1/GPa) = 0.02494720
#
# Stress axis : x y z
#
# Youngs Moduli (GPa) = 77.77729 75.00521 42.77444
#
# Poissons Ratio (x) = 0.33198 0.12041
# Poissons Ratio (y) = 0.34424 0.21684
# Poissons Ratio (z) = 0.21895 0.38023
#
# Static dielectric constant tensor:
#      x y z
#    x 1.668180 0.000000 0.000000 
#    y 0.000000 1.762170 0.000000 
#    z 0.000000 0.000000 1.622760 
# 
# From -- ./inp_files/20139.got.cif
#   From: 2010.05.17/outbox.cif.g08.bks.cpg/sg22_11_cif.got.tgz:20139.got - 2010.06.03 23:40:54.
