data_PCOD9328820
_publ_section_title
;
Structure prediction by ZEFSAII (Michael W. Deem and Ramdas Pophale) SiO2 
 PCOD9328820
Probable space group: F 2 2 2
;
_chemical_formula_sum "Si O2"
_cell_formula_units_Z 72
_cell_length_a 18.193799
_cell_length_b 20.014952
_cell_length_c 9.409181
_cell_angle_alpha 90.000000
_cell_angle_beta 90.000000
_cell_angle_gamma 90.000000
_cell_volume 3426.334572
_symmetry_space_group_name_H-M "F 2 2 2"
_symmetry_group_IT_number 22
_symmetry_cell_setting 'orthorhombic'
loop_
_space_group_symop_operation_xyz
x,y,z
-x,-y,z
x,-y,-z
-x,y,-z
x,1/2+y,1/2+z
-x,1/2-y,1/2+z
x,1/2-y,1/2-z
-x,1/2+y,1/2-z
1/2+x,y,1/2+z
1/2-x,-y,1/2+z
1/2+x,-y,1/2-z
1/2-x,y,1/2-z
1/2+x,1/2+y,z
1/2-x,1/2-y,z
1/2+x,1/2-y,-z
1/2-x,1/2+y,-z
loop_
_atom_site_type_symbol
_atom_site_label
_atom_site_fract_x
_atom_site_fract_y
_atom_site_fract_z
Si Si1 0.096062 0.056009 0.262165
Si Si2 0.545107 0.578859 0.853277
Si Si3 0.709000 0.500000 0.500000
Si Si4 0.825929 0.687871 0.331029
Si Si5 0.797970 0.867310 0.884515
O O1 0.152623 0.029315 0.380669
O O2 0.131901 0.119252 0.189056
O O3 0.011204 0.080402 0.281537
O O4 0.080300 0.994931 0.156507
O O5 0.617339 0.622691 0.840178
O O6 0.500000 0.592401 0.000000
O O7 0.759324 0.437256 0.444556
O O8 0.863469 0.750000 0.250000
O O9 0.750000 0.679742 0.250000
O O10 0.803907 0.688854 0.494618
O O11 0.750000 0.848331 0.750000
#
# Coordination Sequence:
#
# PCOD9328820 Si02
#       5
#    16  16   8  16  16
#     4  11  22  39  64 101 141 182 226 280 345 422
#     4  11  23  37  67 107 143 174 217 288 364 410
#     4  12  24  37  65 104 142 180 222 288 355 414
#     4  11  24  44  70  96 133 195 237 278 340 418
#     4  12  24  41  68 108 140 177 234 290 345 412
#
# _framework density 21.013708999999999
#
# number of rings (size 3 to 8) (size 9 to 14) (size 15 to 20)
#    0.000    0.667    6.667    2.667    3.111    1.778 
#    0.000    2.222    0.000   21.333    0.000    0.000 
#    0.000    0.000    0.000    0.000    0.000    0.000 
#
# Total GULP energy -100204.882271 kJ/mol
# GULP energy per Si atom -5566.937904 kJ/mol
# Density = 2.096588 g / cm^3
# Si number density = 21.013709 Si / 1000 Ang^3
#
#
#
# Elastic Constant Matrix: (Units=GPa)
#
#
# Indices 1 2 3 4 5 6 
#
# 1 136.6555 18.7518 36.8384 0.0000 0.0000 0.0000
# 2 18.7518 58.9810 28.1268 0.0000 0.0000 0.0000
# 3 36.8384 28.1268 93.2750 0.0000 0.0000 0.0000
# 4 0.0000 0.0000 0.0000 45.3067 0.0000 0.0000
# 5 0.0000 0.0000 0.0000 0.0000 36.6560 0.0000
# 6 0.0000 0.0000 0.0000 0.0000 0.0000 20.5636
#
#
#
# Elastic Compliance Matrix: (Units=1/GPa)
#
#
# Indices 1 2 3 4 5 6 
#
# 1 0.008268 -0.001251 -0.002888 0.000000 0.000000 0.000000
# 2 -0.001251 0.019992 -0.005534 0.000000 0.000000 0.000000
# 3 -0.002888 -0.005534 0.013530 0.000000 0.000000 0.000000
# 4 0.000000 0.000000 0.000000 0.022072 0.000000 0.000000
# 5 0.000000 0.000000 0.000000 0.000000 0.027281 0.000000
# 6 0.000000 0.000000 0.000000 0.000000 0.000000 0.048630
#
#
# Mechanical properties :
#
#
# Convention : Reuss Voigt Hill
#
# Bulk Modulus (GPa) = 44.55780 50.70507 47.63144
# Shear Modulus (GPa) = 30.01199 34.18489 32.09844
#
# Velocity S-wave (km/s) = 3.78327 4.03772 3.91256
# Velocity P-wave (km/s) = 6.35093 6.77639 6.56711
#
# Compressibility (1/GPa) = 0.02244276
#
# Stress axis : x y z
#
# Youngs Moduli (GPa) = 120.94956 50.02106 73.90766
#
# Poissons Ratio (x) = 0.06260 0.21345
# Poissons Ratio (y) = 0.15135 0.40902
# Poissons Ratio (z) = 0.34930 0.27682
#
# Static dielectric constant tensor:
#      x y z
#    x 1.843180 0.000000 0.000000 
#    y 0.000000 1.931930 0.000000 
#    z 0.000000 0.000000 1.935710 
# 
# From -- ./inp_files/12463.got.cif
#   From: 2010.05.17/outbox.cif.g08.bks.cpg/sg22_7_cif.got.tgz:12463.got - 2010.06.03 23:40:54.
