data_PCOD9328720
_publ_section_title
;
Structure prediction by ZEFSAII (Michael W. Deem and Ramdas Pophale) SiO2 
 PCOD9328720
Probable space group: F 2 2 2
;
_chemical_formula_sum "Si O2"
_cell_formula_units_Z 80
_cell_length_a 26.244461
_cell_length_b 8.353647
_cell_length_c 17.815233
_cell_angle_alpha 90.000000
_cell_angle_beta 90.000000
_cell_angle_gamma 90.000000
_cell_volume 3905.757576
_symmetry_space_group_name_H-M "F 2 2 2"
_symmetry_group_IT_number 22
_symmetry_cell_setting 'orthorhombic'
loop_
_space_group_symop_operation_xyz
x,y,z
-x,-y,z
x,-y,-z
-x,y,-z
x,1/2+y,1/2+z
-x,1/2-y,1/2+z
x,1/2-y,1/2-z
-x,1/2+y,1/2-z
1/2+x,y,1/2+z
1/2-x,-y,1/2+z
1/2+x,-y,1/2-z
1/2-x,y,1/2-z
1/2+x,1/2+y,z
1/2-x,1/2-y,z
1/2+x,1/2-y,-z
1/2-x,1/2+y,-z
loop_
_atom_site_type_symbol
_atom_site_label
_atom_site_fract_x
_atom_site_fract_y
_atom_site_fract_z
Si Si1 0.950915 0.111552 0.190370
Si Si2 0.750000 0.503131 0.250000
Si Si3 0.142151 0.560665 0.770494
Si Si4 0.852261 0.863987 0.441412
Si Si5 0.250000 0.750000 0.615216
Si Si6 0.443937 0.686408 0.022000
O O1 0.962875 0.250000 0.250000
O O2 0.936291 0.191436 0.111284
O O3 0.905524 0.003344 0.223889
O O4 0.000000 0.000000 0.177177
O O5 0.808816 0.447903 0.247845
O O6 0.749674 0.601531 0.327863
O O7 0.152848 0.750000 0.750000
O O8 0.133599 0.565076 0.859789
O O9 0.802344 0.754374 0.430092
O O10 0.900328 0.774125 0.475919
O O11 0.837361 0.000000 0.500000
O O12 0.442534 0.500000 0.000000
O O13 0.500000 0.749164 0.000000
#
# Coordination Sequence:
#
# PCOD9328720 Si02
#       6
#    16   8  16  16   8  16
#     4  12  26  42  63  92 124 161 209 253 305 368
#     4   9  16  36  65  92 115 160 213 236 291 366
#     4  11  20  40  70  91 119 164 210 249 293 372
#     4  11  23  40  63  96 125 157 206 258 306 353
#     4   9  18  36  60  90 123 160 200 242 295 370
#     4  11  24  43  61  90 128 163 199 251 316 369
#
# _framework density 20.482581
#
# number of rings (size 3 to 8) (size 9 to 14) (size 15 to 20)
#    0.000    1.200    6.000    3.000    2.800    1.200 
#    3.600    0.500    0.000    0.000    0.000    0.000 
#    0.000    0.000    0.000    0.000    0.000    0.000 
#
# Total GULP energy -111589.424671 kJ/mol
# GULP energy per Si atom -5579.471234 kJ/mol
# Density = 2.043596 g / cm^3
# Si number density = 20.482581 Si / 1000 Ang^3
#
#
#
# Elastic Constant Matrix: (Units=GPa)
#
#
# Indices 1 2 3 4 5 6 
#
# 1 190.1076 22.3727 53.9094 0.0000 0.0000 0.0000
# 2 22.3727 35.5347 13.8638 0.0000 0.0000 0.0000
# 3 53.9094 13.8638 151.4706 0.0000 0.0000 0.0000
# 4 0.0000 0.0000 0.0000 -6.6146 0.0000 0.0000
# 5 0.0000 0.0000 0.0000 0.0000 -28.5329 0.0000
# 6 0.0000 0.0000 0.0000 0.0000 0.0000 14.9361
#
#
#
# Elastic Compliance Matrix: (Units=1/GPa)
#
#
# Indices 1 2 3 4 5 6 
#
# 1 0.006171 -0.003141 -0.001909 0.000000 0.000000 0.000000
# 2 -0.003141 0.030782 -0.001700 0.000000 0.000000 0.000000
# 3 -0.001909 -0.001700 0.007437 0.000000 0.000000 0.000000
# 4 0.000000 0.000000 0.000000 -0.151181 0.000000 0.000000
# 5 0.000000 0.000000 0.000000 0.000000 -0.035047 0.000000
# 6 0.000000 0.000000 0.000000 0.000000 0.000000 0.066952
#
#
# Mechanical properties :
#
#
# Convention : Reuss Voigt Hill
#
# Bulk Modulus (GPa) = 32.37115 61.93385 47.15250
# Shear Modulus (GPa) = -97.86435 15.08886 -41.38775
#
# Velocity S-wave (km/s) = -6.91976 2.71711 -4.50002
# Velocity P-wave (km/s) = 6.92860 6.33613 1.98229
#
# Compressibility (1/GPa) = 0.03089170
#
# Stress axis : x y z
#
# Youngs Moduli (GPa) = 162.04619 32.48657 134.46483
#
# Poissons Ratio (x) = 0.10203 0.25668
# Poissons Ratio (y) = 0.50892 0.22854
# Poissons Ratio (z) = 0.30933 0.05522
#
# Static dielectric constant tensor:
#      x y z
#    x 1.780870 0.000000 0.000000 
#    y 0.000000 1.775090 0.000000 
#    z 0.000000 0.000000 1.710600 
# 
# From -- ./inp_files/39905.got.cif
#   From: 2010.05.17/outbox.cif.g08.bks.cpg/sg22_20_cif.got.tgz:39905.got - 2010.06.03 23:40:54.
