data_PCOD9328334
_publ_section_title
;
Structure prediction by ZEFSAII (Michael W. Deem and Ramdas Pophale) SiO2 
 PCOD9328334
Probable space group: F 2 2 2
;
_chemical_formula_sum "Si O2"
_cell_formula_units_Z 68
_cell_length_a 19.548700
_cell_length_b 29.786734
_cell_length_c 5.575193
_cell_angle_alpha 90.000000
_cell_angle_beta 90.000000
_cell_angle_gamma 90.000000
_cell_volume 3246.389875
_symmetry_space_group_name_H-M "F 2 2 2"
_symmetry_group_IT_number 22
_symmetry_cell_setting 'orthorhombic'
loop_
_space_group_symop_operation_xyz
x,y,z
-x,-y,z
x,-y,-z
-x,y,-z
x,1/2+y,1/2+z
-x,1/2-y,1/2+z
x,1/2-y,1/2-z
-x,1/2+y,1/2-z
1/2+x,y,1/2+z
1/2-x,-y,1/2+z
1/2+x,-y,1/2-z
1/2-x,y,1/2-z
1/2+x,1/2+y,z
1/2-x,1/2-y,z
1/2+x,1/2-y,-z
1/2-x,1/2+y,-z
loop_
_atom_site_type_symbol
_atom_site_label
_atom_site_fract_x
_atom_site_fract_y
_atom_site_fract_z
Si Si1 0.356642 0.628030 0.420696
Si Si2 0.417411 0.225260 0.999966
Si Si3 0.886532 0.541696 0.174071
Si Si4 0.284455 0.413170 0.978223
Si Si5 0.000000 0.500000 0.500000
O O1 0.385921 0.675666 0.486115
O O2 0.399864 0.586504 0.521052
O O3 0.342806 0.618552 0.139352
O O4 0.280668 0.618952 0.531574
O O5 0.397668 0.250000 0.250000
O O6 0.500000 0.222169 0.000000
O O7 0.397667 0.250000 0.750000
O O8 0.821698 0.553614 0.342252
O O9 0.950692 0.529556 0.336140
O O10 0.873222 0.500000 0.000000
O O11 0.250000 0.439118 0.750000
#
# Coordination Sequence:
#
# PCOD9328334 Si02
#       5
#    16  16  16  16   4
#     4   9  22  44  70  97 145 185 237 297 359 428
#     4  10  23  43  72 110 148 194 245 299 366 436
#     4  12  24  46  68 100 142 190 243 297 359 434
#     4   8  22  44  68 102 136 178 242 289 362 429
#     4  12  30  44  60 106 144 188 248 292 358 432
#
# _framework density 20.946342000000001
#
# number of rings (size 3 to 8) (size 9 to 14) (size 15 to 20)
#    1.412    0.471    0.000    2.471    3.294    3.765 
#   19.059    2.353    0.000    0.000    0.000    0.000 
#    0.000    0.000    0.000    0.000    0.000    0.000 
#
# Total GULP energy -94709.409034 kJ/mol
# GULP energy per Si atom -5571.141708 kJ/mol
# Density = 2.089867 g / cm^3
# Si number density = 20.946342 Si / 1000 Ang^3
#
#
#
# Elastic Constant Matrix: (Units=GPa)
#
#
# Indices 1 2 3 4 5 6 
#
# 1 66.0974 63.6578 44.6699 0.0402 -0.1180 -0.0304
# 2 63.6578 205.1770 98.1971 0.0028 -0.0007 -0.0041
# 3 44.6699 98.1971 123.0992 0.0529 -0.0219 -0.0438
# 4 0.0402 0.0028 0.0529 25.3256 0.0124 0.0048
# 5 -0.1180 -0.0007 -0.0219 0.0124 26.8121 0.0310
# 6 -0.0304 -0.0041 -0.0438 0.0048 0.0310 37.2514
#
#
#
# Elastic Compliance Matrix: (Units=1/GPa)
#
#
# Indices 1 2 3 4 5 6 
#
# 1 0.022886 -0.005056 -0.004271 -0.000027 0.000097 0.000013
# 2 -0.005056 0.009001 -0.005345 0.000018 -0.000026 -0.000009
# 3 -0.004271 -0.005345 0.013937 -0.000022 -0.000008 0.000012
# 4 -0.000027 0.000018 -0.000022 0.039486 -0.000018 -0.000005
# 5 0.000097 -0.000026 -0.000008 -0.000018 0.037297 -0.000031
# 6 0.000013 -0.000009 0.000012 -0.000005 -0.000031 0.026845
#
#
# Mechanical properties :
#
#
# Convention : Reuss Voigt Hill
#
# Bulk Modulus (GPa) = 60.68553 89.71371 75.19962
# Shear Modulus (GPa) = 27.13123 30.40106 28.76615
#
# Velocity S-wave (km/s) = 3.60289 3.81383 3.70986
# Velocity P-wave (km/s) = 6.80754 7.89411 7.37087
#
# Compressibility (1/GPa) = 0.01647839
#
# Stress axis : x y z
#
# Youngs Moduli (GPa) = 43.69565 111.10148 71.74942
#
# Poissons Ratio (x) = 0.56176 0.30646
# Poissons Ratio (y) = 0.22094 0.38352
# Poissons Ratio (z) = 0.18663 0.59386
#
# Static dielectric constant tensor:
#      x y z
#    x 1.778200 0.000010 0.000070 
#    y 0.000010 1.696940 -0.000030 
#    z 0.000070 -0.000030 1.992860 
# 
# From -- ./inp_files/3777.got.cif
#   From: 2010.05.17/outbox.cif.g08.bks.cpg/sg22_2_cif.got.tgz:3777.got - 2010.06.03 23:40:54.
