data_PCOD9328252
_publ_section_title
;
Structure prediction by ZEFSAII (Michael W. Deem and Ramdas Pophale) SiO2 
 PCOD9328252
Probable space group: F 2 2 2
;
_chemical_formula_sum "Si O2"
_cell_formula_units_Z 80
_cell_length_a 11.461339
_cell_length_b 10.631845
_cell_length_c 29.823250
_cell_angle_alpha 90.000000
_cell_angle_beta 90.000000
_cell_angle_gamma 90.000000
_cell_volume 3634.117489
_symmetry_space_group_name_H-M "F 2 2 2"
_symmetry_group_IT_number 22
_symmetry_cell_setting 'orthorhombic'
loop_
_space_group_symop_operation_xyz
x,y,z
-x,-y,z
x,-y,-z
-x,y,-z
x,1/2+y,1/2+z
-x,1/2-y,1/2+z
x,1/2-y,1/2-z
-x,1/2+y,1/2-z
1/2+x,y,1/2+z
1/2-x,-y,1/2+z
1/2+x,-y,1/2-z
1/2-x,y,1/2-z
1/2+x,1/2+y,z
1/2-x,1/2-y,z
1/2+x,1/2-y,-z
1/2-x,1/2+y,-z
loop_
_atom_site_type_symbol
_atom_site_label
_atom_site_fract_x
_atom_site_fract_y
_atom_site_fract_z
Si Si1 0.906665 0.393939 0.185694
Si Si2 0.555668 0.750000 0.250000
Si Si3 0.590042 0.675001 0.583894
Si Si4 0.822957 0.418599 0.443605
Si Si5 0.750000 0.036050 0.750000
Si Si6 0.375419 0.809082 0.541579
O O1 0.908168 0.386252 0.132288
O O2 0.789182 0.444605 0.209171
O O3 0.000000 0.500000 0.197228
O O4 0.967222 0.273811 0.208677
O O5 0.642483 0.867810 0.259667
O O6 0.682546 0.595525 0.553935
O O7 0.639862 0.815543 0.592017
O O8 0.468538 0.707358 0.559209
O O9 0.875163 0.358534 0.489699
O O10 0.872466 0.555338 0.434197
O O11 0.250000 0.750000 0.548484
#
# Coordination Sequence:
#
# PCOD9328252 Si02
#       6
#    16   8  16  16   8  16
#     4  10  23  40  66 101 130 171 217 275 338 404
#     4   9  20  43  68  94 128 173 216 259 344 408
#     4  11  23  41  63  98 137 167 226 285 332 403
#     4  10  24  42  63  95 128 180 233 276 340 401
#     4   9  20  43  68  92 132 171 215 272 328 422
#     4  11  23  42  67  91 128 185 230 282 338 397
#
# _framework density 22.013597000000001
#
# number of rings (size 3 to 8) (size 9 to 14) (size 15 to 20)
#    0.000    1.800    2.000    1.200    2.800    6.800 
#    3.600    6.000    0.000    0.000    0.000    0.000 
#    0.000    0.000    0.000    0.000    0.000    0.000 
#
# Total GULP energy -111364.629274 kJ/mol
# GULP energy per Si atom -5568.231464 kJ/mol
# Density = 2.196349 g / cm^3
# Si number density = 22.013597 Si / 1000 Ang^3
#
#
#
# Elastic Constant Matrix: (Units=GPa)
#
#
# Indices 1 2 3 4 5 6 
#
# 1 137.8257 33.8501 55.4199 0.0000 0.0000 0.0000
# 2 33.8501 64.2650 22.5552 0.0000 0.0000 0.0000
# 3 55.4199 22.5552 93.3297 0.0000 0.0000 0.0000
# 4 0.0000 0.0000 0.0000 34.6509 0.0000 0.0000
# 5 0.0000 0.0000 0.0000 0.0000 25.0549 0.0000
# 6 0.0000 0.0000 0.0000 0.0000 0.0000 -16.7807
#
#
#
# Elastic Compliance Matrix: (Units=1/GPa)
#
#
# Indices 1 2 3 4 5 6 
#
# 1 0.010225 -0.003556 -0.005212 0.000000 0.000000 0.000000
# 2 -0.003556 0.018240 -0.002296 0.000000 0.000000 0.000000
# 3 -0.005212 -0.002296 0.014365 0.000000 0.000000 0.000000
# 4 0.000000 0.000000 0.000000 0.028859 0.000000 0.000000
# 5 0.000000 0.000000 0.000000 0.000000 0.039912 0.000000
# 6 0.000000 0.000000 0.000000 0.000000 0.000000 -0.059592
#
#
# Mechanical properties :
#
#
# Convention : Reuss Voigt Hill
#
# Bulk Modulus (GPa) = 48.30980 57.67453 52.99217
# Shear Modulus (GPa) = 61.69960 20.82470 41.26215
#
# Velocity S-wave (km/s) = 5.29989 3.07904 4.33412
# Velocity P-wave (km/s) = 7.71005 6.23675 7.01220
#
# Compressibility (1/GPa) = 0.02069973
#
# Stress axis : x y z
#
# Youngs Moduli (GPa) = 97.80180 54.82545 69.61553
#
# Poissons Ratio (x) = 0.19498 0.36284
# Poissons Ratio (y) = 0.34782 0.15985
# Poissons Ratio (z) = 0.50975 0.12589
#
# Static dielectric constant tensor:
#      x y z
#    x 1.937180 0.000000 0.000000 
#    y 0.000000 1.928110 0.000000 
#    z 0.000000 0.000000 1.831100 
# 
# From -- ./inp_files/55919.got.cif
#   From: 2010.05.17/outbox.cif.g08.bks.cpg/sg22_28_cif.got.tgz:55919.got - 2010.06.03 23:40:54.
