data_PCOD9328921
_publ_section_title
;
Structure prediction by ZEFSAII (Michael W. Deem and Ramdas Pophale) SiO2 
 PCOD9328921
Probable space group: F 2 2 2
;
_chemical_formula_sum "Si O2"
_cell_formula_units_Z 96
_cell_length_a 24.089958
_cell_length_b 14.241498
_cell_length_c 14.455975
_cell_angle_alpha 90.000000
_cell_angle_beta 90.000000
_cell_angle_gamma 90.000000
_cell_volume 4959.513817
_symmetry_space_group_name_H-M "F 2 2 2"
_symmetry_group_IT_number 22
_symmetry_cell_setting 'orthorhombic'
loop_
_space_group_symop_operation_xyz
x,y,z
-x,-y,z
x,-y,-z
-x,y,-z
x,1/2+y,1/2+z
-x,1/2-y,1/2+z
x,1/2-y,1/2-z
-x,1/2+y,1/2-z
1/2+x,y,1/2+z
1/2-x,-y,1/2+z
1/2+x,-y,1/2-z
1/2-x,y,1/2-z
1/2+x,1/2+y,z
1/2-x,1/2-y,z
1/2+x,1/2-y,-z
1/2-x,1/2+y,-z
loop_
_atom_site_type_symbol
_atom_site_label
_atom_site_fract_x
_atom_site_fract_y
_atom_site_fract_z
Si Si1 0.076379 0.244750 0.461214
Si Si2 0.933943 0.018835 0.225066
Si Si3 0.358556 0.577718 0.922671
Si Si4 0.377031 0.947375 0.902675
Si Si5 0.256905 0.858813 0.860141
Si Si6 0.531655 0.788963 0.647376
O O1 0.126525 0.317262 0.454279
O O2 0.085428 0.146209 0.411462
O O3 0.064303 0.229190 0.570017
O O4 0.026324 0.297562 0.407406
O O5 0.934984 0.115840 0.167790
O O6 0.898063 0.946801 0.163870
O O7 0.903195 0.013441 0.323514
O O8 0.000000 0.000000 0.236830
O O9 0.293905 0.579510 0.897943
O O10 0.370293 0.500000 0.000000
O O11 0.315747 0.906646 0.882020
O O12 0.376598 0.000000 0.000000
O O13 0.250000 0.855963 0.750000
O O14 0.250000 0.750000 0.892515
O O15 0.521835 0.750000 0.750000
#
# Coordination Sequence:
#
# PCOD9328921 Si02
#       6
#    16  16  16  16  16  16
#     4  11  24  40  66  97 134 183 224 276 349 410
#     4  12  24  39  67  97 131 175 223 275 336 401
#     4  12  23  41  68  97 132 170 229 285 337 398
#     4  12  26  45  67  97 139 186 229 278 347 422
#     4  11  23  42  71  97 128 176 230 287 346 403
#     4  11  23  41  62  96 138 177 223 274 332 410
#
# _framework density 19.356736000000001
#
# number of rings (size 3 to 8) (size 9 to 14) (size 15 to 20)
#    0.000    0.500    6.667    2.500    0.000    2.000 
#    0.000    0.000    0.000    0.000    0.000    2.333 
#    0.000    0.000    0.000    0.000    0.000    0.000 
#
# Total GULP energy -133853.485273 kJ/mol
# GULP energy per Si atom -5577.228553 kJ/mol
# Density = 1.931268 g / cm^3
# Si number density = 19.356736 Si / 1000 Ang^3
#
#
#
# Elastic Constant Matrix: (Units=GPa)
#
#
# Indices 1 2 3 4 5 6 
#
# 1 105.0738 16.0164 45.3085 0.0000 0.0000 0.0000
# 2 16.0164 61.1151 20.2201 0.0000 0.0000 0.0000
# 3 45.3085 20.2201 124.0304 0.0000 0.0000 0.0000
# 4 0.0000 0.0000 0.0000 25.7492 0.0000 0.0000
# 5 0.0000 0.0000 0.0000 0.0000 30.0973 0.0000
# 6 0.0000 0.0000 0.0000 0.0000 0.0000 26.7043
#
#
#
# Elastic Compliance Matrix: (Units=1/GPa)
#
#
# Indices 1 2 3 4 5 6 
#
# 1 0.011463 -0.001711 -0.003909 0.000000 0.000000 0.000000
# 2 -0.001711 0.017551 -0.002236 0.000000 0.000000 0.000000
# 3 -0.003909 -0.002236 0.009855 0.000000 0.000000 0.000000
# 4 0.000000 0.000000 0.000000 0.038836 0.000000 0.000000
# 5 0.000000 0.000000 0.000000 0.000000 0.033226 0.000000
# 6 0.000000 0.000000 0.000000 0.000000 0.000000 0.037447
#
#
# Mechanical properties :
#
#
# Convention : Reuss Voigt Hill
#
# Bulk Modulus (GPa) = 43.18269 50.36768 46.77519
# Shear Modulus (GPa) = 29.10211 30.42178 29.76195
#
# Velocity S-wave (km/s) = 3.88166 3.96869 3.92541
# Velocity P-wave (km/s) = 6.51513 6.86133 6.69047
#
# Compressibility (1/GPa) = 0.02315743
#
# Stress axis : x y z
#
# Youngs Moduli (GPa) = 87.23445 56.97735 101.47207
#
# Poissons Ratio (x) = 0.09749 0.39662
# Poissons Ratio (y) = 0.14926 0.22691
# Poissons Ratio (z) = 0.34097 0.12741
#
# Static dielectric constant tensor:
#      x y z
#    x 1.693020 0.000000 0.000000 
#    y 0.000000 1.699080 0.000000 
#    z 0.000000 0.000000 1.683640 
# 
# From -- ./inp_files/31513.got.cif
#   From: 2010.05.17/outbox.cif.g08.bks.cpg/sg22_16_cif.got.tgz:31513.got - 2010.06.03 23:40:54.
