data_PCOD9328035
_publ_section_title
;
Structure prediction by ZEFSAII (Michael W. Deem and Ramdas Pophale) SiO2 
 PCOD9328035
Probable space group: F 2 2 2
;
_chemical_formula_sum "Si O2"
_cell_formula_units_Z 88
_cell_length_a 12.436867
_cell_length_b 23.106261
_cell_length_c 15.075466
_cell_angle_alpha 90.000000
_cell_angle_beta 90.000000
_cell_angle_gamma 90.000000
_cell_volume 4332.229050
_symmetry_space_group_name_H-M "F 2 2 2"
_symmetry_group_IT_number 22
_symmetry_cell_setting 'orthorhombic'
loop_
_space_group_symop_operation_xyz
x,y,z
-x,-y,z
x,-y,-z
-x,y,-z
x,1/2+y,1/2+z
-x,1/2-y,1/2+z
x,1/2-y,1/2-z
-x,1/2+y,1/2-z
1/2+x,y,1/2+z
1/2-x,-y,1/2+z
1/2+x,-y,1/2-z
1/2-x,y,1/2-z
1/2+x,1/2+y,z
1/2-x,1/2-y,z
1/2+x,1/2-y,-z
1/2-x,1/2+y,-z
loop_
_atom_site_type_symbol
_atom_site_label
_atom_site_fract_x
_atom_site_fract_y
_atom_site_fract_z
Si Si1 0.063188 0.718783 0.616940
Si Si2 0.673098 0.195403 0.450915
Si Si3 0.029583 0.437478 0.139785
Si Si4 0.325114 0.000000 0.000000
Si Si5 0.717074 0.912546 0.854025
Si Si6 0.633834 0.171525 0.792139
O O1 0.145325 0.683219 0.554268
O O2 0.108672 0.783953 0.628347
O O3 0.056596 0.690518 0.712954
O O4 0.943077 0.716341 0.582087
O O5 0.750000 0.250000 0.444243
O O6 0.721200 0.142213 0.395881
O O7 0.110371 0.394360 0.187107
O O8 0.000000 0.500000 0.181949
O O9 0.913223 0.406172 0.136843
O O10 0.095672 0.455658 0.051604
O O11 0.262200 0.033466 0.921833
O O12 0.750000 0.920782 0.750000
O O13 0.750000 0.181700 0.750000
#
# Coordination Sequence:
#
# PCOD9328035 Si02
#       6
#    16  16  16   8  16  16
#     4  10  23  41  58  98 135 163 221 274 336 411
#     4  11  23  39  64  93 131 176 209 266 347 408
#     4  10  22  42  65  99 131 172 230 285 327 394
#     4  10  25  46  68 101 134 177 244 284 332 407
#     4  11  23  42  67  96 136 172 229 280 343 412
#     4  11  22  40  68  94 131 174 221 280 333 401
#
# _framework density 20.312868000000002
#
# number of rings (size 3 to 8) (size 9 to 14) (size 15 to 20)
#    0.000    1.455    0.000    6.818    5.091    4.727 
#    3.273    0.000    0.000    0.000    0.000    0.000 
#    0.000    0.000    0.000    0.000    0.000    0.000 
#
# Total GULP energy -122594.371024 kJ/mol
# GULP energy per Si atom -5572.471410 kJ/mol
# Density = 2.026664 g / cm^3
# Si number density = 20.312868 Si / 1000 Ang^3
#
#
#
# Elastic Constant Matrix: (Units=GPa)
#
#
# Indices 1 2 3 4 5 6 
#
# 1 109.5400 46.1896 38.5190 0.0000 0.0000 0.0000
# 2 46.1896 113.1996 62.0517 0.0000 0.0000 0.0000
# 3 38.5190 62.0517 125.6933 0.0000 0.0000 0.0000
# 4 0.0000 0.0000 0.0000 33.5722 0.0000 0.0000
# 5 0.0000 0.0000 0.0000 0.0000 23.1737 0.0000
# 6 0.0000 0.0000 0.0000 0.0000 0.0000 23.8653
#
#
#
# Elastic Compliance Matrix: (Units=1/GPa)
#
#
# Indices 1 2 3 4 5 6 
#
# 1 0.011262 -0.003707 -0.001621 0.000000 0.000000 0.000000
# 2 -0.003707 0.013331 -0.005445 0.000000 0.000000 0.000000
# 3 -0.001621 -0.005445 0.011141 0.000000 0.000000 0.000000
# 4 0.000000 0.000000 0.000000 0.029787 0.000000 0.000000
# 5 0.000000 0.000000 0.000000 0.000000 0.043152 0.000000
# 6 0.000000 0.000000 0.000000 0.000000 0.000000 0.041902
#
#
# Mechanical properties :
#
#
# Convention : Reuss Voigt Hill
#
# Bulk Modulus (GPa) = 70.48410 71.32816 70.90613
# Shear Modulus (GPa) = 28.27227 29.56708 28.91967
#
# Velocity S-wave (km/s) = 3.73479 3.81935 3.77730
# Velocity P-wave (km/s) = 7.30566 7.39195 7.34893
#
# Compressibility (1/GPa) = 0.01418760
#
# Stress axis : x y z
#
# Youngs Moduli (GPa) = 88.79253 75.01104 89.75784
#
# Poissons Ratio (x) = 0.27803 0.14554
# Poissons Ratio (y) = 0.32911 0.48878
# Poissons Ratio (z) = 0.14398 0.40847
#
# Static dielectric constant tensor:
#      x y z
#    x 1.790520 0.000000 0.000000 
#    y 0.000000 1.733490 0.000000 
#    z 0.000000 0.000000 1.861150 
# 
# From -- ./inp_files/28214.got.cif
#   From: 2010.05.17/outbox.cif.g08.bks.cpg/sg22_15_cif.got.tgz:28214.got - 2010.06.03 23:40:54.
