data_PCOD9328666
_publ_section_title
;
Structure prediction by ZEFSAII (Michael W. Deem and Ramdas Pophale) SiO2 
 PCOD9328666
Probable space group: F 2 2 2
;
_chemical_formula_sum "Si O2"
_cell_formula_units_Z 68
_cell_length_a 8.782726
_cell_length_b 14.961621
_cell_length_c 22.197405
_cell_angle_alpha 90.000000
_cell_angle_beta 90.000000
_cell_angle_gamma 90.000000
_cell_volume 2916.823761
_symmetry_space_group_name_H-M "F 2 2 2"
_symmetry_group_IT_number 22
_symmetry_cell_setting 'orthorhombic'
loop_
_space_group_symop_operation_xyz
x,y,z
-x,-y,z
x,-y,-z
-x,y,-z
x,1/2+y,1/2+z
-x,1/2-y,1/2+z
x,1/2-y,1/2-z
-x,1/2+y,1/2-z
1/2+x,y,1/2+z
1/2-x,-y,1/2+z
1/2+x,-y,1/2-z
1/2-x,y,1/2-z
1/2+x,1/2+y,z
1/2-x,1/2-y,z
1/2+x,1/2-y,-z
1/2-x,1/2+y,-z
loop_
_atom_site_type_symbol
_atom_site_label
_atom_site_fract_x
_atom_site_fract_y
_atom_site_fract_z
Si Si1 0.500000 0.366791 0.500000
Si Si2 0.826794 0.392121 0.481417
Si Si3 0.910706 0.124495 0.156737
Si Si4 0.250000 0.250000 0.750000
Si Si5 0.220115 0.935334 0.816118
Si Si6 0.000000 0.000000 0.392798
O O1 0.679691 0.340431 0.509536
O O2 0.537856 0.422399 0.439823
O O3 0.814694 0.500000 0.500000
O O4 0.836903 0.376442 0.409252
O O5 0.000000 0.364386 0.500000
O O6 0.857264 0.197753 0.203513
O O7 0.092848 0.121874 0.149759
O O8 0.855202 0.033302 0.188366
O O9 0.250000 0.898261 0.750000
O O10 0.372477 0.956084 0.851599
#
# Coordination Sequence:
#
# PCOD9328666 Si02
#       6
#     8  16  16   4  16   8
#     4  11  18  30  54  98 138 164 198 303 380 415
#     4  11  19  34  62 102 133 167 233 306 370 414
#     4  11  23  42  65  98 146 190 243 301 368 449
#     4  12  28  48  66 100 156 218 230 290 396 454
#     4  11  21  36  66 100 128 177 251 313 346 419
#     4  11  18  32  56 100 138 151 218 302 376 405
#
# _framework density 23.313030000000001
#
# number of rings (size 3 to 8) (size 9 to 14) (size 15 to 20)
#    0.000    0.941    5.882    5.647    0.000    0.000 
#    0.000    0.588    2.588    0.000    0.000    0.000 
#    0.000    0.000    0.000    0.000    0.000    0.000 
#
# Total GULP energy -94665.222203 kJ/mol
# GULP energy per Si atom -5568.542483 kJ/mol
# Density = 2.325997 g / cm^3
# Si number density = 23.313030 Si / 1000 Ang^3
#
#
#
# Elastic Constant Matrix: (Units=GPa)
#
#
# Indices 1 2 3 4 5 6 
#
# 1 220.8607 34.7290 76.4376 0.0000 0.0000 0.0000
# 2 34.7290 33.4781 26.4955 0.0000 0.0000 0.0000
# 3 76.4376 26.4955 160.8827 0.0000 0.0000 0.0000
# 4 0.0000 0.0000 0.0000 23.3184 0.0000 0.0000
# 5 0.0000 0.0000 0.0000 0.0000 40.3092 0.0000
# 6 0.0000 0.0000 0.0000 0.0000 0.0000 -12.7020
#
#
#
# Elastic Compliance Matrix: (Units=1/GPa)
#
#
# Indices 1 2 3 4 5 6 
#
# 1 0.005963 -0.004534 -0.002086 0.000000 0.000000 0.000000
# 2 -0.004534 0.037795 -0.004070 0.000000 0.000000 0.000000
# 3 -0.002086 -0.004070 0.007877 0.000000 0.000000 0.000000
# 4 0.000000 0.000000 0.000000 0.042885 0.000000 0.000000
# 5 0.000000 0.000000 0.000000 0.000000 0.024808 0.000000
# 6 0.000000 0.000000 0.000000 0.000000 0.000000 -0.078728
#
#
# Mechanical properties :
#
#
# Convention : Reuss Voigt Hill
#
# Bulk Modulus (GPa) = 33.05374 76.72730 54.89052
# Shear Modulus (GPa) = 69.38058 28.68908 49.03483
#
# Velocity S-wave (km/s) = 5.46123 3.51180 4.59118
# Velocity P-wave (km/s) = 7.34682 7.03042 7.19036
#
# Compressibility (1/GPa) = 0.03025376
#
# Stress axis : x y z
#
# Youngs Moduli (GPa) = 167.70695 26.45831 126.94879
#
# Poissons Ratio (x) = 0.11997 0.26484
# Poissons Ratio (y) = 0.76047 0.51669
# Poissons Ratio (z) = 0.34987 0.10769
#
# Static dielectric constant tensor:
#      x y z
#    x 2.075370 0.000000 0.000000 
#    y 0.000000 1.944050 0.000000 
#    z 0.000000 0.000000 1.848620 
# 
# From -- ./inp_files/41572.got.cif
#   From: 2010.05.17/outbox.cif.g08.bks.cpg/sg22_21_cif.got.tgz:41572.got - 2010.06.03 23:40:54.
