data_PCOD9328070
_publ_section_title
;
Structure prediction by ZEFSAII (Michael W. Deem and Ramdas Pophale) SiO2 
 PCOD9328070
Probable space group: F 2 2 2
;
_chemical_formula_sum "Si O2"
_cell_formula_units_Z 44
_cell_length_a 15.294619
_cell_length_b 4.789449
_cell_length_c 26.891692
_cell_angle_alpha 90.000000
_cell_angle_beta 90.000000
_cell_angle_gamma 90.000000
_cell_volume 1969.891673
_symmetry_space_group_name_H-M "F 2 2 2"
_symmetry_group_IT_number 22
_symmetry_cell_setting 'orthorhombic'
loop_
_space_group_symop_operation_xyz
x,y,z
-x,-y,z
x,-y,-z
-x,y,-z
x,1/2+y,1/2+z
-x,1/2-y,1/2+z
x,1/2-y,1/2-z
-x,1/2+y,1/2-z
1/2+x,y,1/2+z
1/2-x,-y,1/2+z
1/2+x,-y,1/2-z
1/2-x,y,1/2-z
1/2+x,1/2+y,z
1/2-x,1/2-y,z
1/2+x,1/2-y,-z
1/2-x,1/2+y,-z
loop_
_atom_site_type_symbol
_atom_site_label
_atom_site_fract_x
_atom_site_fract_y
_atom_site_fract_z
Si Si1 0.000000 0.500000 0.896955
Si Si2 0.500000 0.000000 0.670848
Si Si3 0.250000 0.750000 0.750000
Si Si4 0.132226 0.250000 0.750000
Si Si5 0.343664 0.246062 0.962077
O O1 0.074779 0.348225 0.929100
O O2 0.036529 0.749533 0.862922
O O3 0.426247 0.125273 0.706359
O O4 0.185723 0.513998 0.772971
O O5 0.250000 0.250000 0.933285
O O6 0.364658 0.500000 0.000000
O O7 0.325533 0.000000 0.000000
#
# Coordination Sequence:
#
# PCOD9328070 Si02
#       5
#     8   8   4   8  16
#     4  12  24  40  68 113 134 189 238 304 350 424
#     4  12  25  44  71  99 144 179 241 294 355 420
#     4  10  22  42  74  98 120 184 252 278 358 434
#     4  11  23  46  69  99 140 192 234 293 361 442
#     4  10  22  43  69  99 142 185 228 283 354 427
#
# _framework density 22.336252000000002
#
# number of rings (size 3 to 8) (size 9 to 14) (size 15 to 20)
#    0.000    1.091    0.000    7.091    0.000    1.455 
#   13.091    0.000    4.000    0.000    0.000    0.000 
#    0.000    0.000    0.000    0.000    0.000    0.000 
#
# Total GULP energy -61304.381897 kJ/mol
# GULP energy per Si atom -5573.125627 kJ/mol
# Density = 2.228541 g / cm^3
# Si number density = 22.336252 Si / 1000 Ang^3
#
#
#
# Elastic Constant Matrix: (Units=GPa)
#
#
# Indices 1 2 3 4 5 6 
#
# 1 163.7244 71.8946 74.1701 0.0000 0.0000 0.0000
# 2 71.8946 188.7896 48.8964 0.0000 0.0000 0.0000
# 3 74.1701 48.8964 83.3463 0.0000 0.0000 0.0000
# 4 0.0000 0.0000 0.0000 48.1772 0.0000 0.0000
# 5 0.0000 0.0000 0.0000 0.0000 -7.7721 0.0000
# 6 0.0000 0.0000 0.0000 0.0000 0.0000 52.9495
#
#
#
# Elastic Compliance Matrix: (Units=1/GPa)
#
#
# Indices 1 2 3 4 5 6 
#
# 1 0.010789 -0.001913 -0.008479 0.000000 0.000000 0.000000
# 2 -0.001913 0.006585 -0.002161 0.000000 0.000000 0.000000
# 3 -0.008479 -0.002161 0.020811 0.000000 0.000000 0.000000
# 4 0.000000 0.000000 0.000000 0.020757 0.000000 0.000000
# 5 0.000000 0.000000 0.000000 0.000000 -0.128665 0.000000
# 6 0.000000 0.000000 0.000000 0.000000 0.000000 0.018886
#
#
# Mechanical properties :
#
#
# Convention : Reuss Voigt Hill
#
# Bulk Modulus (GPa) = 76.45343 91.75362 84.10352
# Shear Modulus (GPa) = -233.95504 34.73086 -99.61209
#
# Velocity S-wave (km/s) = -10.24547 3.94751 -6.68531
# Velocity P-wave (km/s) = 10.27895 7.87049 4.67505
#
# Compressibility (1/GPa) = 0.01307986
#
# Stress axis : x y z
#
# Youngs Moduli (GPa) = 92.68900 151.86077 48.05040
#
# Poissons Ratio (x) = 0.29044 0.40742
# Poissons Ratio (y) = 0.17727 0.10385
# Poissons Ratio (z) = 0.78590 0.32820
#
# Static dielectric constant tensor:
#      x y z
#    x 2.070460 0.000000 0.000000 
#    y 0.000000 1.811220 0.000000 
#    z 0.000000 0.000000 1.796770 
# 
# From -- ./inp_files/32774.got.cif
#   From: 2010.05.17/outbox.cif.g08.bks.cpg/sg22_17_cif.got.tgz:32774.got - 2010.06.03 23:40:54.
