data_PCOD9328276
_publ_section_title
;
Structure prediction by ZEFSAII (Michael W. Deem and Ramdas Pophale) SiO2 
 PCOD9328276
Probable space group: F 2 2 2
;
_chemical_formula_sum "Si O2"
_cell_formula_units_Z 88
_cell_length_a 10.441486
_cell_length_b 17.547676
_cell_length_c 23.001910
_cell_angle_alpha 90.000000
_cell_angle_beta 90.000000
_cell_angle_gamma 90.000000
_cell_volume 4214.497663
_symmetry_space_group_name_H-M "F 2 2 2"
_symmetry_group_IT_number 22
_symmetry_cell_setting 'orthorhombic'
loop_
_space_group_symop_operation_xyz
x,y,z
-x,-y,z
x,-y,-z
-x,y,-z
x,1/2+y,1/2+z
-x,1/2-y,1/2+z
x,1/2-y,1/2-z
-x,1/2+y,1/2-z
1/2+x,y,1/2+z
1/2-x,-y,1/2+z
1/2+x,-y,1/2-z
1/2-x,y,1/2-z
1/2+x,1/2+y,z
1/2-x,1/2-y,z
1/2+x,1/2-y,-z
1/2-x,1/2+y,-z
loop_
_atom_site_type_symbol
_atom_site_label
_atom_site_fract_x
_atom_site_fract_y
_atom_site_fract_z
Si Si1 0.206709 0.000000 0.000000
Si Si2 0.250000 0.250000 0.618112
Si Si3 0.372670 0.888191 0.778709
Si Si4 0.500000 0.500000 0.099357
Si Si5 0.250000 0.250000 0.151539
Si Si6 0.000000 0.500000 0.870854
Si Si7 0.116653 0.121993 0.540489
Si Si8 0.500385 0.662734 0.160952
O O1 0.288617 0.923275 0.998218
O O2 0.121289 0.998968 0.057103
O O3 0.183732 0.187714 0.576651
O O4 0.367339 0.209038 0.652782
O O5 0.250000 0.929078 0.750000
O O6 0.314524 0.815780 0.810957
O O7 0.464031 0.854390 0.728447
O O8 0.428186 0.943585 0.826916
O O9 0.493305 0.577948 0.134906
O O10 0.380117 0.292764 0.128713
O O11 0.075620 0.443608 0.913798
O O12 0.000000 0.148824 0.500000
#
# Coordination Sequence:
#
# PCOD9328276 Si02
#       8
#     8   8  16   8   8   8  16  16
#     4  11  23  46  68 100 133 181 232 290 350 421
#     4  12  28  44  74 115 142 181 240 308 372 414
#     4  10  23  41  68 100 140 185 232 275 347 435
#     4  11  25  40  77  97 136 179 225 296 354 414
#     4  10  23  44  67  95 142 191 225 270 348 431
#     4  12  24  42  71 103 132 190 234 286 350 414
#     4  12  26  47  72  99 144 185 239 294 357 427
#     4  11  23  45  70 106 142 183 233 290 351 435
#
# _framework density 20.880306000000001
#
# number of rings (size 3 to 8) (size 9 to 14) (size 15 to 20)
#    0.000    0.909    3.636    4.091    5.091    4.364 
#    0.000    7.273    0.000    0.000    0.000    0.000 
#    0.000    0.000    0.000    0.000    0.000    0.000 
#
# Total GULP energy -122781.854181 kJ/mol
# GULP energy per Si atom -5580.993372 kJ/mol
# Density = 2.083278 g / cm^3
# Si number density = 20.880306 Si / 1000 Ang^3
#
#
#
# Elastic Constant Matrix: (Units=GPa)
#
#
# Indices 1 2 3 4 5 6 
#
# 1 142.9901 67.2460 54.1986 0.0000 0.0000 0.0000
# 2 67.2460 133.4060 40.7132 0.0000 0.0000 0.0000
# 3 54.1986 40.7132 55.4430 0.0000 0.0000 0.0000
# 4 0.0000 0.0000 0.0000 18.0249 0.0000 0.0000
# 5 0.0000 0.0000 0.0000 0.0000 46.1125 0.0000
# 6 0.0000 0.0000 0.0000 0.0000 0.0000 55.4294
#
#
#
# Elastic Compliance Matrix: (Units=1/GPa)
#
#
# Indices 1 2 3 4 5 6 
#
# 1 0.012087 -0.003205 -0.009463 0.000000 0.000000 0.000000
# 2 -0.003205 0.010511 -0.004585 0.000000 0.000000 0.000000
# 3 -0.009463 -0.004585 0.030654 0.000000 0.000000 0.000000
# 4 0.000000 0.000000 0.000000 0.055479 0.000000 0.000000
# 5 0.000000 0.000000 0.000000 0.000000 0.021686 0.000000
# 6 0.000000 0.000000 0.000000 0.000000 0.000000 0.018041
#
#
# Mechanical properties :
#
#
# Convention : Reuss Voigt Hill
#
# Bulk Modulus (GPa) = 53.34385 72.90607 63.12496
# Shear Modulus (GPa) = 26.42531 35.22546 30.82539
#
# Velocity S-wave (km/s) = 3.56133 4.11179 3.84642
# Velocity P-wave (km/s) = 6.52025 7.58514 7.07277
#
# Compressibility (1/GPa) = 0.01874630
#
# Stress axis : x y z
#
# Youngs Moduli (GPa) = 82.73013 95.13991 32.62239
#
# Poissons Ratio (x) = 0.30494 0.30869
# Poissons Ratio (y) = 0.26516 0.14958
# Poissons Ratio (z) = 0.78284 0.43623
#
# Static dielectric constant tensor:
#      x y z
#    x 1.845250 0.000000 0.000000 
#    y 0.000000 1.674270 0.000000 
#    z 0.000000 0.000000 1.641820 
# 
# From -- ./inp_files/21474.got.cif
#   From: 2010.05.17/outbox.cif.g08.bks.cpg/sg22_11_cif.got.tgz:21474.got - 2010.06.03 23:40:54.
