data_PCOD9328713
_publ_section_title
;
Structure prediction by ZEFSAII (Michael W. Deem and Ramdas Pophale) SiO2 
 PCOD9328713
Probable space group: F 2 2 2
;
_chemical_formula_sum "Si O2"
_cell_formula_units_Z 92
_cell_length_a 27.133713
_cell_length_b 21.098518
_cell_length_c 7.665975
_cell_angle_alpha 90.000000
_cell_angle_beta 90.000000
_cell_angle_gamma 90.000000
_cell_volume 4388.626047
_symmetry_space_group_name_H-M "F 2 2 2"
_symmetry_group_IT_number 22
_symmetry_cell_setting 'orthorhombic'
loop_
_space_group_symop_operation_xyz
x,y,z
-x,-y,z
x,-y,-z
-x,y,-z
x,1/2+y,1/2+z
-x,1/2-y,1/2+z
x,1/2-y,1/2-z
-x,1/2+y,1/2-z
1/2+x,y,1/2+z
1/2-x,-y,1/2+z
1/2+x,-y,1/2-z
1/2-x,y,1/2-z
1/2+x,1/2+y,z
1/2-x,1/2-y,z
1/2+x,1/2-y,-z
1/2-x,1/2+y,-z
loop_
_atom_site_type_symbol
_atom_site_label
_atom_site_fract_x
_atom_site_fract_y
_atom_site_fract_z
Si Si1 0.904406 0.381109 0.697123
Si Si2 0.162044 0.571364 0.021000
Si Si3 0.916349 0.917026 0.829685
Si Si4 0.995454 0.175344 0.292867
Si Si5 0.136328 0.250000 0.250000
Si Si6 0.000000 0.500000 0.500000
Si Si7 0.722637 0.311195 0.559782
O O1 0.872976 0.409682 0.855412
O O2 0.890840 0.413819 0.517669
O O3 0.962890 0.373873 0.723708
O O4 0.892941 0.307258 0.673116
O O5 0.206659 0.623010 0.029888
O O6 0.181356 0.500000 0.000000
O O7 0.124171 0.570484 0.183204
O O8 0.943903 0.851350 0.778902
O O9 0.961248 0.965362 0.868282
O O10 0.001679 0.250000 0.250000
O O11 0.000000 0.170314 0.500000
O O12 0.170327 0.280600 0.104796
O O13 0.750000 0.323025 0.750000
O O14 0.750000 0.250000 0.475830
#
# Coordination Sequence:
#
# PCOD9328713 Si02
#       7
#    16  16  16  16   8   4  16
#     4  11  20  39  57  89 131 175 235 286 332 390
#     4  11  24  40  67  99 132 176 229 285 356 435
#     4  12  25  39  59  91 134 193 240 284 330 398
#     4  12  23  37  56  88 130 183 244 295 342 389
#     4   8  17  32  66  92 118 160 210 276 341 408
#     4  12  24  40  58  84 148 210 244 282 326 384
#     4   8  17  40  73 100 124 168 211 278 372 432
#
# _framework density 20.963280000000001
#
# number of rings (size 3 to 8) (size 9 to 14) (size 15 to 20)
#    0.000    1.565    4.348    2.087    0.000    0.000 
#    0.000    0.000   11.478    9.391    0.000    0.000 
#    0.000    0.000    0.000    0.000    0.000    0.000 
#
# Total GULP energy -128053.466590 kJ/mol
# GULP energy per Si atom -5567.542026 kJ/mol
# Density = 2.091557 g / cm^3
# Si number density = 20.963280 Si / 1000 Ang^3
#
#
#
# Elastic Constant Matrix: (Units=GPa)
#
#
# Indices 1 2 3 4 5 6 
#
# 1 62.7568 44.6338 21.9629 0.0001 0.0000 -0.0002
# 2 44.6338 147.1204 28.9086 0.0009 -0.0003 0.0001
# 3 21.9629 28.9086 127.4917 0.0025 -0.0007 0.0007
# 4 0.0001 0.0009 0.0025 18.1948 -0.0005 0.0004
# 5 0.0000 -0.0003 -0.0007 -0.0005 21.5132 0.0000
# 6 -0.0002 0.0001 0.0007 0.0004 0.0000 135.2988
#
#
#
# Elastic Compliance Matrix: (Units=1/GPa)
#
#
# Indices 1 2 3 4 5 6 
#
# 1 0.020926 -0.005903 -0.002266 0.000000 0.000000 0.000000
# 2 -0.005903 0.008779 -0.000974 0.000000 0.000000 0.000000
# 3 -0.002266 -0.000974 0.008455 -0.000001 0.000000 0.000000
# 4 0.000000 0.000000 -0.000001 0.054961 0.000001 0.000000
# 5 0.000000 0.000000 0.000000 0.000001 0.046483 0.000000
# 6 0.000000 0.000000 0.000000 0.000000 0.000000 0.007391
#
#
# Mechanical properties :
#
#
# Convention : Reuss Voigt Hill
#
# Bulk Modulus (GPa) = 50.31790 58.70882 54.51336
# Shear Modulus (GPa) = 29.08546 51.12558 40.10552
#
# Velocity S-wave (km/s) = 3.72889 4.94379 4.37868
# Velocity P-wave (km/s) = 6.52644 7.78810 7.18502
#
# Compressibility (1/GPa) = 0.01987364
#
# Stress axis : x y z
#
# Youngs Moduli (GPa) = 47.78683 113.90211 118.27491
#
# Poissons Ratio (x) = 0.67240 0.26806
# Poissons Ratio (y) = 0.28210 0.11517
# Poissons Ratio (z) = 0.10830 0.11091
#
# Static dielectric constant tensor:
#      x y z
#    x 1.777750 0.000000 0.000000 
#    y 0.000000 1.866790 0.000000 
#    z 0.000000 0.000000 1.625450 
# 
# From -- ./inp_files/15602.got.cif
#   From: 2010.05.17/outbox.cif.g08.bks.cpg/sg22_8_cif.got.tgz:15602.got - 2010.06.03 23:40:54.
