data_PCOD9328923
_publ_section_title
;
Structure prediction by ZEFSAII (Michael W. Deem and Ramdas Pophale) SiO2 
 PCOD9328923
Probable space group: F 2 2 2
;
_chemical_formula_sum "Si O2"
_cell_formula_units_Z 120
_cell_length_a 12.546056
_cell_length_b 19.834715
_cell_length_c 22.842989
_cell_angle_alpha 90.000000
_cell_angle_beta 90.000000
_cell_angle_gamma 90.000000
_cell_volume 5684.419452
_symmetry_space_group_name_H-M "F 2 2 2"
_symmetry_group_IT_number 22
_symmetry_cell_setting 'orthorhombic'
loop_
_space_group_symop_operation_xyz
x,y,z
-x,-y,z
x,-y,-z
-x,y,-z
x,1/2+y,1/2+z
-x,1/2-y,1/2+z
x,1/2-y,1/2-z
-x,1/2+y,1/2-z
1/2+x,y,1/2+z
1/2-x,-y,1/2+z
1/2+x,-y,1/2-z
1/2-x,y,1/2-z
1/2+x,1/2+y,z
1/2-x,1/2-y,z
1/2+x,1/2-y,-z
1/2-x,1/2+y,-z
loop_
_atom_site_type_symbol
_atom_site_label
_atom_site_fract_x
_atom_site_fract_y
_atom_site_fract_z
Si Si1 0.632685 0.899046 0.773632
Si Si2 0.300087 0.944602 0.050241
Si Si3 0.534074 0.314798 0.781372
Si Si4 0.329248 0.189928 0.525721
Si Si5 0.509674 0.877526 0.889900
Si Si6 0.549280 0.226557 0.586759
Si Si7 0.250000 0.871796 0.750000
Si Si8 0.678656 0.970282 0.160243
O O1 0.750000 0.880445 0.750000
O O2 0.545965 0.876872 0.726205
O O3 0.589425 0.865549 0.834328
O O4 0.635629 0.977836 0.790710
O O5 0.224049 0.882167 0.035795
O O6 0.416945 0.913376 0.062027
O O7 0.270298 0.983269 0.110339
O O8 0.301099 0.000000 0.000000
O O9 0.482254 0.250000 0.750000
O O10 0.563154 0.298358 0.847487
O O11 0.642353 0.329970 0.746372
O O12 0.250000 0.250000 0.543775
O O13 0.437444 0.198601 0.562208
O O14 0.360869 0.202096 0.458045
O O15 0.460653 0.807750 0.911899
O O16 0.418033 0.928239 0.868147
O O17 0.244739 0.918515 0.807271
#
# Coordination Sequence:
#
# PCOD9328923 Si02
#       8
#    16  16  16  16  16  16   8  16
#     4  11  23  41  67 105 143 181 228 292 364 420
#     4  11  26  44  73 104 138 182 240 300 367 422
#     4  12  26  44  70 105 143 190 236 288 356 436
#     4  11  26  48  72 101 143 186 242 300 367 431
#     4  11  23  46  71 107 142 180 239 308 355 429
#     4  11  26  46  72 104 145 188 242 295 364 432
#     4  12  25  44  72 100 145 196 232 282 356 438
#     4  11  25  43  72 106 144 179 238 298 357 430
#
# _framework density 21.110336
#
# number of rings (size 3 to 8) (size 9 to 14) (size 15 to 20)
#    0.000    0.800    4.667    1.800    7.467    2.400 
#    0.000    1.333    0.000    0.000    0.000    0.000 
#    0.000    0.000    0.000    0.000    0.000    0.000 
#
# Total GULP energy -167787.762072 kJ/mol
# GULP energy per Si atom -5592.925402 kJ/mol
# Density = 2.106229 g / cm^3
# Si number density = 21.110336 Si / 1000 Ang^3
#
#
#
# Elastic Constant Matrix: (Units=GPa)
#
#
# Indices 1 2 3 4 5 6 
#
# 1 84.5336 39.9725 13.4322 0.0000 0.0000 0.0000
# 2 39.9725 136.4851 50.6777 0.0000 0.0000 0.0000
# 3 13.4322 50.6777 73.9587 0.0000 0.0000 0.0000
# 4 0.0000 0.0000 0.0000 36.9672 0.0000 0.0000
# 5 0.0000 0.0000 0.0000 0.0000 29.1827 0.0000
# 6 0.0000 0.0000 0.0000 0.0000 0.0000 19.3705
#
#
#
# Elastic Compliance Matrix: (Units=1/GPa)
#
#
# Indices 1 2 3 4 5 6 
#
# 1 0.013738 -0.004154 0.000351 0.000000 0.000000 0.000000
# 2 -0.004154 0.011083 -0.006840 0.000000 0.000000 0.000000
# 3 0.000351 -0.006840 0.018144 0.000000 0.000000 0.000000
# 4 0.000000 0.000000 0.000000 0.027051 0.000000 0.000000
# 5 0.000000 0.000000 0.000000 0.000000 0.034267 0.000000
# 6 0.000000 0.000000 0.000000 0.000000 0.000000 0.051625
#
#
# Mechanical properties :
#
#
# Convention : Reuss Voigt Hill
#
# Bulk Modulus (GPa) = 46.12526 55.90470 51.01498
# Shear Modulus (GPa) = 27.11206 29.83039 28.47123
#
# Velocity S-wave (km/s) = 3.58761 3.76316 3.67643
# Velocity P-wave (km/s) = 6.24966 6.73955 6.49922
#
# Compressibility (1/GPa) = 0.02168009
#
# Stress axis : x y z
#
# Youngs Moduli (GPa) = 72.79079 90.22794 55.11444
#
# Poissons Ratio (x) = 0.37480 -0.01936
# Poissons Ratio (y) = 0.30236 0.37698
# Poissons Ratio (z) = -0.02557 0.61715
#
# Static dielectric constant tensor:
#      x y z
#    x 1.731820 0.000000 0.000000 
#    y 0.000000 1.746400 0.000000 
#    z 0.000000 0.000000 1.791900 
# 
# From -- ./inp_files/24000.got.cif
#   From: 2010.05.17/outbox.cif.g08.bks.cpg/sg22_12_cif.got.tgz:24000.got - 2010.06.03 23:40:54.
