data_PCOD9328885
_publ_section_title
;
Structure prediction by ZEFSAII (Michael W. Deem and Ramdas Pophale) SiO2 
 PCOD9328885
Probable space group: F 2 2 2
;
_chemical_formula_sum "Si O2"
_cell_formula_units_Z 48
_cell_length_a 9.289529
_cell_length_b 10.110972
_cell_length_c 25.614917
_cell_angle_alpha 90.000000
_cell_angle_beta 90.000000
_cell_angle_gamma 90.000000
_cell_volume 2405.910988
_symmetry_space_group_name_H-M "F 2 2 2"
_symmetry_group_IT_number 22
_symmetry_cell_setting 'orthorhombic'
loop_
_space_group_symop_operation_xyz
x,y,z
-x,-y,z
x,-y,-z
-x,y,-z
x,1/2+y,1/2+z
-x,1/2-y,1/2+z
x,1/2-y,1/2-z
-x,1/2+y,1/2-z
1/2+x,y,1/2+z
1/2-x,-y,1/2+z
1/2+x,-y,1/2-z
1/2-x,y,1/2-z
1/2+x,1/2+y,z
1/2-x,1/2-y,z
1/2+x,1/2-y,-z
1/2-x,1/2+y,-z
loop_
_atom_site_type_symbol
_atom_site_label
_atom_site_fract_x
_atom_site_fract_y
_atom_site_fract_z
Si Si1 0.917129 0.860308 0.702993
Si Si2 0.106938 0.613628 0.349272
Si Si3 0.153893 0.876487 0.028540
O O1 0.930313 0.750000 0.750000
O O2 0.962126 0.760331 0.656313
O O3 0.752616 0.893579 0.685662
O O4 0.000000 0.000000 0.708877
O O5 0.139179 0.594198 0.410061
O O6 0.000000 0.500000 0.331305
O O7 0.250000 0.750000 0.022070
O O8 0.000000 0.858752 0.000000
O O9 0.225049 0.000000 0.000000
#
# Coordination Sequence:
#
# PCOD9328885 Si02
#       3
#    16  16  16
#     4  11  25  45  71 103 136 180 229 291 344 416
#     4  11  22  45  68  96 142 181 227 280 341 401
#     4  11  23  43  65  99 142 185 229 282 329 400
#
# _framework density 19.950863999999999
#
# number of rings (size 3 to 8) (size 9 to 14) (size 15 to 20)
#    0.000    1.000    6.667    3.000    0.000    4.667 
#    0.000    3.333    0.000    0.000    0.000    0.000 
#    0.000    0.000    0.000    0.000    0.000    0.000 
#
# Total GULP energy -66811.460292 kJ/mol
# GULP energy per Si atom -5567.621691 kJ/mol
# Density = 1.990546 g / cm^3
# Si number density = 19.950864 Si / 1000 Ang^3
#
#
#
# Elastic Constant Matrix: (Units=GPa)
#
#
# Indices 1 2 3 4 5 6 
#
# 1 91.1935 89.4750 25.1548 0.0000 0.0000 0.0000
# 2 89.4750 217.4339 57.1117 0.0000 0.0000 0.0000
# 3 25.1548 57.1117 127.5856 0.0000 0.0000 0.0000
# 4 0.0000 0.0000 0.0000 37.2052 0.0000 0.0000
# 5 0.0000 0.0000 0.0000 0.0000 72.4410 0.0000
# 6 0.0000 0.0000 0.0000 0.0000 0.0000 60.4375
#
#
#
# Elastic Compliance Matrix: (Units=1/GPa)
#
#
# Indices 1 2 3 4 5 6 
#
# 1 0.018399 -0.007500 -0.000270 0.000000 0.000000 0.000000
# 2 -0.007500 0.008269 -0.002223 0.000000 0.000000 0.000000
# 3 -0.000270 -0.002223 0.008886 0.000000 0.000000 0.000000
# 4 0.000000 0.000000 0.000000 0.026878 0.000000 0.000000
# 5 0.000000 0.000000 0.000000 0.000000 0.013804 0.000000
# 6 0.000000 0.000000 0.000000 0.000000 0.000000 0.016546
#
#
# Mechanical properties :
#
#
# Convention : Reuss Voigt Hill
#
# Bulk Modulus (GPa) = 64.23457 86.63291 75.43374
# Shear Modulus (GPa) = 42.38740 51.64816 47.01778
#
# Velocity S-wave (km/s) = 4.61433 5.09351 4.85983
# Velocity P-wave (km/s) = 7.78817 8.83794 8.32961
#
# Compressibility (1/GPa) = 0.01556794
#
# Stress axis : x y z
#
# Youngs Moduli (GPa) = 54.34987 120.92720 112.53419
#
# Poissons Ratio (x) = 0.90701 0.03040
# Poissons Ratio (y) = 0.40765 0.25015
# Poissons Ratio (z) = 0.01468 0.26881
#
# Static dielectric constant tensor:
#      x y z
#    x 1.724360 0.000000 0.000000 
#    y 0.000000 1.433210 0.000000 
#    z 0.000000 0.000000 1.798370 
# 
# From -- ./inp_files/8167.got.cif
#   From: 2010.05.17/outbox.cif.g08.bks.cpg/sg22_5_cif.got.tgz:8167.got - 2010.06.03 23:40:54.
