data_PCOD9328815
_publ_section_title
;
Structure prediction by ZEFSAII (Michael W. Deem and Ramdas Pophale) SiO2 
 PCOD9328815
Probable space group: F 2 2 2
;
_chemical_formula_sum "Si O2"
_cell_formula_units_Z 116
_cell_length_a 16.788324
_cell_length_b 14.249521
_cell_length_c 26.090487
_cell_angle_alpha 90.000000
_cell_angle_beta 90.000000
_cell_angle_gamma 90.000000
_cell_volume 6241.511765
_symmetry_space_group_name_H-M "F 2 2 2"
_symmetry_group_IT_number 22
_symmetry_cell_setting 'orthorhombic'
loop_
_space_group_symop_operation_xyz
x,y,z
-x,-y,z
x,-y,-z
-x,y,-z
x,1/2+y,1/2+z
-x,1/2-y,1/2+z
x,1/2-y,1/2-z
-x,1/2+y,1/2-z
1/2+x,y,1/2+z
1/2-x,-y,1/2+z
1/2+x,-y,1/2-z
1/2-x,y,1/2-z
1/2+x,1/2+y,z
1/2-x,1/2-y,z
1/2+x,1/2-y,-z
1/2-x,1/2+y,-z
loop_
_atom_site_type_symbol
_atom_site_label
_atom_site_fract_x
_atom_site_fract_y
_atom_site_fract_z
Si Si1 0.576688 0.785239 0.303177
Si Si2 0.400844 0.812284 0.317655
Si Si3 0.330726 0.193033 0.899506
Si Si4 0.130143 0.007361 0.216558
Si Si5 0.750000 0.750000 0.750000
Si Si6 0.307879 0.492246 0.671470
Si Si7 0.328373 0.683670 0.607518
Si Si8 0.404953 0.387928 0.497708
O O1 0.615100 0.750000 0.250000
O O2 0.482714 0.762906 0.301460
O O3 0.594679 0.895037 0.301410
O O4 0.614511 0.738352 0.352941
O O5 0.386360 0.770786 0.373312
O O6 0.316521 0.796462 0.287303
O O7 0.415510 0.921203 0.308865
O O8 0.250000 0.250000 0.908020
O O9 0.320798 0.104763 0.859917
O O10 0.365473 0.155199 0.951950
O O11 0.219987 0.998509 0.195397
O O12 0.134103 0.997703 0.278681
O O13 0.314626 0.582528 0.634783
O O14 0.250000 0.750000 0.602018
O O15 0.368229 0.659423 0.553064
O O16 0.389977 0.500000 0.500000
O O17 0.500000 0.374116 0.500000
#
# Coordination Sequence:
#
# PCOD9328815 Si02
#       8
#    16  16  16  16   4  16  16  16
#     4  12  25  39  61  95 134 179 217 262 320 397
#     4  12  23  40  61  96 132 172 222 264 328 381
#     4  12  23  42  70  94 122 170 220 274 326 389
#     4  11  22  40  61  93 140 177 211 265 311 394
#     4  12  20  40  64  84 136 172 208 264 318 376
#     4  11  22  38  67  97 127 171 225 255 318 387
#     4  12  24  45  69  94 131 174 219 270 326 400
#     4  11  25  46  68  96 128 163 214 285 342 391
#
# _framework density 18.585241
#
# number of rings (size 3 to 8) (size 9 to 14) (size 15 to 20)
#    0.000    0.414    6.897    3.310    0.000    0.276 
#    0.000    0.000    0.000    0.000    0.000    3.862 
#    0.000    0.000    0.000    0.000    0.000    0.000 
#
# Total GULP energy -161782.584607 kJ/mol
# GULP energy per Si atom -5578.709814 kJ/mol
# Density = 1.854294 g / cm^3
# Si number density = 18.585241 Si / 1000 Ang^3
#
#
#
# Elastic Constant Matrix: (Units=GPa)
#
#
# Indices 1 2 3 4 5 6 
#
# 1 92.4781 36.0886 58.1695 0.0000 0.0000 0.0000
# 2 36.0886 110.7997 70.4356 0.0000 0.0000 0.0000
# 3 58.1695 70.4356 169.8899 0.0000 0.0000 0.0000
# 4 0.0000 0.0000 0.0000 -26.3192 0.0000 0.0000
# 5 0.0000 0.0000 0.0000 0.0000 -537.3855 0.0000
# 6 0.0000 0.0000 0.0000 0.0000 0.0000 -26.2305
#
#
#
# Elastic Compliance Matrix: (Units=1/GPa)
#
#
# Indices 1 2 3 4 5 6 
#
# 1 0.014123 -0.002072 -0.003977 0.000000 0.000000 0.000000
# 2 -0.002072 0.012559 -0.004498 0.000000 0.000000 0.000000
# 3 -0.003977 -0.004498 0.009112 0.000000 0.000000 0.000000
# 4 0.000000 0.000000 0.000000 -0.037995 0.000000 0.000000
# 5 0.000000 0.000000 0.000000 0.000000 -0.001861 0.000000
# 6 0.000000 0.000000 0.000000 0.000000 0.000000 -0.038124
#
#
# Mechanical properties :
#
#
# Convention : Reuss Voigt Hill
#
# Bulk Modulus (GPa) = 68.01620 78.06167 73.03894
# Shear Modulus (GPa) = -308.81582 -104.08878 -206.45230
#
# Velocity S-wave (km/s) = -12.90436 -7.49184 -10.55107
# Velocity P-wave (km/s) = 13.61447 5.72222 10.44264
#
# Compressibility (1/GPa) = 0.01470238
#
# Stress axis : x y z
#
# Youngs Moduli (GPa) = 70.80465 79.62221 109.74038
#
# Poissons Ratio (x) = 0.16499 0.43640
# Poissons Ratio (y) = 0.14672 0.49356
# Poissons Ratio (z) = 0.28157 0.35810
#
# Static dielectric constant tensor:
#      x y z
#    x 1.653800 0.000000 0.000000 
#    y 0.000000 1.671520 0.000000 
#    z 0.000000 0.000000 1.634130 
# 
# From -- ./inp_files/49496.got.cif
#   From: 2010.05.17/outbox.cif.g08.bks.cpg/sg22_25_cif.got.tgz:49496.got - 2010.06.03 23:40:54.
