data_PCOD9328405
_publ_section_title
;
Structure prediction by ZEFSAII (Michael W. Deem and Ramdas Pophale) SiO2 
 PCOD9328405
Probable space group: F 2 2 2
;
_chemical_formula_sum "Si O2"
_cell_formula_units_Z 68
_cell_length_a 8.873624
_cell_length_b 24.838791
_cell_length_c 13.141484
_cell_angle_alpha 90.000000
_cell_angle_beta 90.000000
_cell_angle_gamma 90.000000
_cell_volume 2896.515697
_symmetry_space_group_name_H-M "F 2 2 2"
_symmetry_group_IT_number 22
_symmetry_cell_setting 'orthorhombic'
loop_
_space_group_symop_operation_xyz
x,y,z
-x,-y,z
x,-y,-z
-x,y,-z
x,1/2+y,1/2+z
-x,1/2-y,1/2+z
x,1/2-y,1/2-z
-x,1/2+y,1/2-z
1/2+x,y,1/2+z
1/2-x,-y,1/2+z
1/2+x,-y,1/2-z
1/2-x,y,1/2-z
1/2+x,1/2+y,z
1/2-x,1/2-y,z
1/2+x,1/2-y,-z
1/2-x,1/2+y,-z
loop_
_atom_site_type_symbol
_atom_site_label
_atom_site_fract_x
_atom_site_fract_y
_atom_site_fract_z
Si Si1 0.586777 0.446136 0.701323
Si Si2 0.000000 0.500000 0.500000
Si Si3 0.890564 0.351017 0.185591
Si Si4 0.242050 0.411868 0.005828
Si Si5 0.301290 0.192863 0.132453
O O1 0.500000 0.500000 0.726829
O O2 0.750000 0.447769 0.750000
O O3 0.493667 0.395274 0.743276
O O4 0.623198 0.440767 0.581571
O O5 0.127744 0.546435 0.476789
O O6 0.750000 0.328936 0.250000
O O7 0.016156 0.311794 0.137587
O O8 0.823321 0.387671 0.096712
O O9 0.270793 0.357245 0.072201
O O10 0.250000 0.190725 0.250000
O O11 0.250000 0.250000 0.089073
#
# Coordination Sequence:
#
# PCOD9328405 Si02
#       5
#    16   4  16  16  16
#     4  11  23  39  65  98 141 192 240 298 368 439
#     4  12  28  40  70 112 152 198 254 302 368 448
#     4  11  24  44  71 103 142 188 250 302 372 445
#     4  11  25  44  70 102 156 192 253 302 377 440
#     4  10  23  49  78 106 150 194 248 313 386 450
#
# _framework density 23.476481
#
# number of rings (size 3 to 8) (size 9 to 14) (size 15 to 20)
#    0.000    1.176    0.000    7.765    8.235    0.941 
#    4.235    3.529    0.000    0.000    0.000    0.000 
#    0.000    0.000    0.000    0.000    0.000    0.000 
#
# Total GULP energy -94807.618269 kJ/mol
# GULP energy per Si atom -5576.918722 kJ/mol
# Density = 2.342305 g / cm^3
# Si number density = 23.476481 Si / 1000 Ang^3
#
#
#
# Elastic Constant Matrix: (Units=GPa)
#
#
# Indices 1 2 3 4 5 6 
#
# 1 134.9238 57.1905 44.8870 0.0000 0.0000 0.0000
# 2 57.1905 140.7769 7.5123 0.0000 0.0000 0.0000
# 3 44.8870 7.5123 59.3921 0.0000 0.0000 0.0000
# 4 0.0000 0.0000 0.0000 3.6729 0.0000 0.0000
# 5 0.0000 0.0000 0.0000 0.0000 10.8366 0.0000
# 6 0.0000 0.0000 0.0000 0.0000 0.0000 43.9814
#
#
#
# Elastic Compliance Matrix: (Units=1/GPa)
#
#
# Indices 1 2 3 4 5 6 
#
# 1 0.012192 -0.004492 -0.008646 0.000000 0.000000 0.000000
# 2 -0.004492 0.008806 0.002281 0.000000 0.000000 0.000000
# 3 -0.008646 0.002281 0.023083 0.000000 0.000000 0.000000
# 4 0.000000 0.000000 0.000000 0.272261 0.000000 0.000000
# 5 0.000000 0.000000 0.000000 0.000000 0.092280 0.000000
# 6 0.000000 0.000000 0.000000 0.000000 0.000000 0.022737
#
#
# Mechanical properties :
#
#
# Convention : Reuss Voigt Hill
#
# Bulk Modulus (GPa) = 44.70755 61.58581 53.14668
# Shear Modulus (GPa) = 10.85706 26.73172 18.79439
#
# Velocity S-wave (km/s) = 2.15283 3.37806 2.83249
# Velocity P-wave (km/s) = 5.02638 6.44244 5.77795
#
# Compressibility (1/GPa) = 0.02236759
#
# Stress axis : x y z
#
# Youngs Moduli (GPa) = 82.02177 113.55352 43.32127
#
# Poissons Ratio (x) = 0.51003 0.37456
# Poissons Ratio (y) = 0.36841 -0.09880
# Poissons Ratio (z) = 0.70918 -0.25898
#
# Static dielectric constant tensor:
#      x y z
#    x 1.935520 0.000000 0.000000 
#    y 0.000000 1.893330 0.000000 
#    z 0.000000 0.000000 2.063140 
# 
# From -- ./inp_files/26990.got.cif
#   From: 2010.05.17/outbox.cif.g08.bks.cpg/sg22_14_cif.got.tgz:26990.got - 2010.06.03 23:40:54.
