data_PCOD9328359
_publ_section_title
;
Structure prediction by ZEFSAII (Michael W. Deem and Ramdas Pophale) SiO2 
 PCOD9328359
Probable space group: F 2 2 2
;
_chemical_formula_sum "Si O2"
_cell_formula_units_Z 112
_cell_length_a 27.059930
_cell_length_b 11.576698
_cell_length_c 15.714400
_cell_angle_alpha 90.000000
_cell_angle_beta 90.000000
_cell_angle_gamma 90.000000
_cell_volume 4922.765820
_symmetry_space_group_name_H-M "F 2 2 2"
_symmetry_group_IT_number 22
_symmetry_cell_setting 'orthorhombic'
loop_
_space_group_symop_operation_xyz
x,y,z
-x,-y,z
x,-y,-z
-x,y,-z
x,1/2+y,1/2+z
-x,1/2-y,1/2+z
x,1/2-y,1/2-z
-x,1/2+y,1/2-z
1/2+x,y,1/2+z
1/2-x,-y,1/2+z
1/2+x,-y,1/2-z
1/2-x,y,1/2-z
1/2+x,1/2+y,z
1/2-x,1/2-y,z
1/2+x,1/2-y,-z
1/2-x,1/2+y,-z
loop_
_atom_site_type_symbol
_atom_site_label
_atom_site_fract_x
_atom_site_fract_y
_atom_site_fract_z
Si Si1 0.809102 0.260339 0.843491
Si Si2 0.386526 0.117647 0.559475
Si Si3 0.921768 0.419282 0.254435
Si Si4 0.954753 0.714872 0.048834
Si Si5 0.027192 0.351129 0.294912
Si Si6 0.376009 0.036483 0.098438
Si Si7 0.716548 0.632117 0.002784
O O1 0.830660 0.250000 0.750000
O O2 0.750000 0.250000 0.834812
O O3 0.829553 0.381252 0.878852
O O4 0.815685 0.156933 0.910564
O O5 0.400810 0.134138 0.659123
O O6 0.415523 0.218556 0.509824
O O7 0.327489 0.131518 0.563816
O O8 0.395956 0.000000 0.500000
O O9 0.937490 0.542401 0.291872
O O10 0.888340 0.440048 0.170805
O O11 0.976940 0.368377 0.240825
O O12 0.980354 0.811194 0.108918
O O13 0.924218 0.618444 0.098284
O O14 0.000000 0.657805 0.000000
O O15 0.055791 0.250000 0.250000
O O16 0.370432 0.000000 0.000000
O O17 0.750000 0.750000 0.992684
O O18 0.738268 0.500000 0.000000
#
# Coordination Sequence:
#
# PCOD9328359 Si02
#       7
#    16  16  16  16  16  16  16
#     4  10  24  47  78 111 139 186 253 319 384 471
#     4  11  22  39  67 110 140 186 243 310 370 440
#     4  11  25  40  68 101 147 189 249 299 371 441
#     4  12  24  41  68  99 152 190 254 298 374 449
#     4  11  23  40  63 100 139 198 238 310 356 434
#     4  12  29  46  71 106 148 200 251 314 391 460
#     4  10  23  44  76 116 151 190 247 313 394 469
#
# _framework density 22.751436999999999
#
# number of rings (size 3 to 8) (size 9 to 14) (size 15 to 20)
#    0.000    1.000    5.714    0.000    8.000    2.857 
#    0.000    0.000    0.000    0.857    3.714    0.000 
#    0.000    0.000    0.000    0.000    0.000    0.000 
#
# Total GULP energy -155873.665972 kJ/mol
# GULP energy per Si atom -5566.916642 kJ/mol
# Density = 2.269965 g / cm^3
# Si number density = 22.751437 Si / 1000 Ang^3
#
#
#
# Elastic Constant Matrix: (Units=GPa)
#
#
# Indices 1 2 3 4 5 6 
#
# 1 89.7576 8.3141 8.7328 0.0000 0.0000 0.0000
# 2 8.3141 68.6206 11.9014 0.0000 0.0000 0.0000
# 3 8.7328 11.9014 122.1816 0.0000 0.0000 0.0000
# 4 0.0000 0.0000 0.0000 54.7171 0.0000 0.0000
# 5 0.0000 0.0000 0.0000 0.0000 13.1891 0.0000
# 6 0.0000 0.0000 0.0000 0.0000 0.0000 44.9409
#
#
#
# Elastic Compliance Matrix: (Units=1/GPa)
#
#
# Indices 1 2 3 4 5 6 
#
# 1 0.011324 -0.001253 -0.000687 0.000000 0.000000 0.000000
# 2 -0.001253 0.014962 -0.001368 0.000000 0.000000 0.000000
# 3 -0.000687 -0.001368 0.008367 0.000000 0.000000 0.000000
# 4 0.000000 0.000000 0.000000 0.018276 0.000000 0.000000
# 5 0.000000 0.000000 0.000000 0.000000 0.075820 0.000000
# 6 0.000000 0.000000 0.000000 0.000000 0.000000 0.022251
#
#
# Mechanical properties :
#
#
# Convention : Reuss Voigt Hill
#
# Bulk Modulus (GPa) = 35.66737 37.60626 36.63682
# Shear Modulus (GPa) = 29.94690 39.34353 34.64522
#
# Velocity S-wave (km/s) = 3.63197 4.16297 3.90650
# Velocity P-wave (km/s) = 5.77055 6.29858 6.04034
#
# Compressibility (1/GPa) = 0.02803683
#
# Stress axis : x y z
#
# Youngs Moduli (GPa) = 88.30774 66.83641 119.51849
#
# Poissons Ratio (x) = 0.08373 0.08215
# Poissons Ratio (y) = 0.11063 0.16348
# Poissons Ratio (z) = 0.06070 0.09142
#
# Static dielectric constant tensor:
#      x y z
#    x 1.745090 0.000000 0.000000 
#    y 0.000000 2.201830 0.000000 
#    z 0.000000 0.000000 2.004330 
# 
# From -- ./inp_files/33515.got.cif
#   From: 2010.05.17/outbox.cif.g08.bks.cpg/sg22_17_cif.got.tgz:33515.got - 2010.06.03 23:40:54.
