data_PCOD9328140
_publ_section_title
;
Structure prediction by ZEFSAII (Michael W. Deem and Ramdas Pophale) SiO2 
 PCOD9328140
Probable space group: F 2 2 2
;
_chemical_formula_sum "Si O2"
_cell_formula_units_Z 104
_cell_length_a 7.830694
_cell_length_b 26.722505
_cell_length_c 19.918495
_cell_angle_alpha 90.000000
_cell_angle_beta 90.000000
_cell_angle_gamma 90.000000
_cell_volume 4168.059801
_symmetry_space_group_name_H-M "F 2 2 2"
_symmetry_group_IT_number 22
_symmetry_cell_setting 'orthorhombic'
loop_
_space_group_symop_operation_xyz
x,y,z
-x,-y,z
x,-y,-z
-x,y,-z
x,1/2+y,1/2+z
-x,1/2-y,1/2+z
x,1/2-y,1/2-z
-x,1/2+y,1/2-z
1/2+x,y,1/2+z
1/2-x,-y,1/2+z
1/2+x,-y,1/2-z
1/2-x,y,1/2-z
1/2+x,1/2+y,z
1/2-x,1/2-y,z
1/2+x,1/2-y,-z
1/2-x,1/2+y,-z
loop_
_atom_site_type_symbol
_atom_site_label
_atom_site_fract_x
_atom_site_fract_y
_atom_site_fract_z
Si Si1 0.544835 0.836384 0.741687
Si Si2 0.000000 0.270655 0.000000
Si Si3 0.458138 0.573132 0.926093
Si Si4 0.097107 0.683666 0.600040
Si Si5 0.992937 0.837067 0.388923
Si Si6 0.570348 0.053068 0.284698
Si Si7 0.945415 0.445276 0.921552
O O1 0.750000 0.836251 0.750000
O O2 0.470673 0.809082 0.676217
O O3 0.495938 0.816081 0.814161
O O4 0.478837 0.894120 0.732883
O O5 0.070945 0.231566 0.054279
O O6 0.904551 0.308512 0.052227
O O7 0.493861 0.632728 0.923702
O O8 0.569812 0.551650 0.865527
O O9 0.258517 0.561132 0.913078
O O10 0.500000 0.554924 0.000000
O O11 0.295223 0.669700 0.592736
O O12 0.031535 0.896275 0.388470
O O13 0.750000 0.057745 0.250000
O O14 0.500000 0.000000 0.261481
O O15 0.000000 0.500000 0.896772
O O16 0.000000 0.442607 0.000000
#
# Coordination Sequence:
#
# PCOD9328140 Si02
#       7
#    16   8  16  16  16  16  16
#     4  10  24  44  68  97 138 184 232 291 348 421
#     4  12  24  44  73 106 131 178 234 292 354 420
#     4  10  22  44  72 104 144 190 243 302 359 427
#     4  10  23  44  71 102 137 185 227 290 358 420
#     4  11  24  43  69 104 142 180 236 290 352 423
#     4  10  24  43  66 103 141 195 246 295 361 432
#     4  10  23  41  66 104 148 193 237 296 359 426
#
# _framework density 24.951657999999998
#
# number of rings (size 3 to 8) (size 9 to 14) (size 15 to 20)
#    0.000    1.692    1.538    0.923    0.000   16.308 
#    0.000    3.077    0.000    0.000    0.000    0.000 
#    0.000    0.000    0.000    0.000    0.000    0.000 
#
# Total GULP energy -145288.924592 kJ/mol
# GULP energy per Si atom -5588.035561 kJ/mol
# Density = 2.489487 g / cm^3
# Si number density = 24.951658 Si / 1000 Ang^3
#
#
#
# Elastic Constant Matrix: (Units=GPa)
#
#
# Indices 1 2 3 4 5 6 
#
# 1 61.0586 27.6219 30.3534 0.0000 0.0000 0.0000
# 2 27.6219 174.0935 54.2265 0.0000 0.0000 0.0000
# 3 30.3534 54.2265 222.6540 0.0000 0.0000 0.0000
# 4 0.0000 0.0000 0.0000 18.9105 0.0000 0.0000
# 5 0.0000 0.0000 0.0000 0.0000 25.2870 0.0000
# 6 0.0000 0.0000 0.0000 0.0000 0.0000 22.0873
#
#
#
# Elastic Compliance Matrix: (Units=1/GPa)
#
#
# Indices 1 2 3 4 5 6 
#
# 1 0.018390 -0.002312 -0.001944 0.000000 0.000000 0.000000
# 2 -0.002312 0.006506 -0.001269 0.000000 0.000000 0.000000
# 3 -0.001944 -0.001269 0.005065 0.000000 0.000000 0.000000
# 4 0.000000 0.000000 0.000000 0.052881 0.000000 0.000000
# 5 0.000000 0.000000 0.000000 0.000000 0.039546 0.000000
# 6 0.000000 0.000000 0.000000 0.000000 0.000000 0.045275
#
#
# Mechanical properties :
#
#
# Convention : Reuss Voigt Hill
#
# Bulk Modulus (GPa) = 52.88006 75.80106 64.34056
# Shear Modulus (GPa) = 27.02441 36.29726 31.66084
#
# Velocity S-wave (km/s) = 3.29457 3.81820 3.56601
# Velocity P-wave (km/s) = 5.97589 7.06281 6.54196
#
# Compressibility (1/GPa) = 0.01891072
#
# Stress axis : x y z
#
# Youngs Moduli (GPa) = 54.37704 153.69736 197.41696
#
# Poissons Ratio (x) = 0.35540 0.38376
# Poissons Ratio (y) = 0.12574 0.25059
# Poissons Ratio (z) = 0.10570 0.19510
#
# Static dielectric constant tensor:
#      x y z
#    x 1.573820 0.000000 0.000000 
#    y 0.000000 2.038390 0.000000 
#    z 0.000000 0.000000 2.019920 
# 
# From -- ./inp_files/42107.got.cif
#   From: 2010.05.17/outbox.cif.g08.bks.cpg/sg22_22_cif.got.tgz:42107.got - 2010.06.03 23:40:54.
