data_PCOD9328958
_publ_section_title
;
Structure prediction by ZEFSAII (Michael W. Deem and Ramdas Pophale) SiO2 
 PCOD9328958
Probable space group: F 2 2 2
;
_chemical_formula_sum "Si O2"
_cell_formula_units_Z 108
_cell_length_a 13.771930
_cell_length_b 30.358424
_cell_length_c 12.104413
_cell_angle_alpha 90.000000
_cell_angle_beta 90.000000
_cell_angle_gamma 90.000000
_cell_volume 5060.783541
_symmetry_space_group_name_H-M "F 2 2 2"
_symmetry_group_IT_number 22
_symmetry_cell_setting 'orthorhombic'
loop_
_space_group_symop_operation_xyz
x,y,z
-x,-y,z
x,-y,-z
-x,y,-z
x,1/2+y,1/2+z
-x,1/2-y,1/2+z
x,1/2-y,1/2-z
-x,1/2+y,1/2-z
1/2+x,y,1/2+z
1/2-x,-y,1/2+z
1/2+x,-y,1/2-z
1/2-x,y,1/2-z
1/2+x,1/2+y,z
1/2-x,1/2-y,z
1/2+x,1/2-y,-z
1/2-x,1/2+y,-z
loop_
_atom_site_type_symbol
_atom_site_label
_atom_site_fract_x
_atom_site_fract_y
_atom_site_fract_z
Si Si1 0.500000 0.000000 0.000000
Si Si2 0.101481 0.858565 0.941603
Si Si3 0.543700 0.633704 0.307432
Si Si4 0.649302 0.232107 0.441446
Si Si5 0.716580 0.420167 0.566839
Si Si6 0.250000 0.004557 0.250000
Si Si7 0.047052 0.269475 0.140897
Si Si8 0.117670 0.437548 0.840740
O O1 0.445175 0.968507 0.081617
O O2 0.077627 0.850516 0.813230
O O3 0.181271 0.896006 0.931783
O O4 0.145878 0.817342 0.010028
O O5 0.000000 0.870494 0.000000
O O6 0.629743 0.607729 0.373032
O O7 0.517325 0.679780 0.363545
O O8 0.450361 0.601880 0.299944
O O9 0.750000 0.250000 0.391895
O O10 0.625347 0.262602 0.546038
O O11 0.550276 0.239768 0.373153
O O12 0.730447 0.464361 0.642715
O O13 0.693997 0.423299 0.435704
O O14 0.161301 0.969610 0.247531
O O15 0.094092 0.250000 0.250000
#
# Coordination Sequence:
#
# PCOD9328958 Si02
#       8
#     4  16  16  16  16   8  16  16
#     4  12  20  44  72  96 136 172 224 304 336 396
#     4  12  25  46  65 102 147 178 232 293 354 414
#     4  12  24  45  71 105 132 190 237 289 354 410
#     4  11  24  41  67  99 136 184 224 288 337 411
#     4  12  25  46  73 102 140 182 232 293 341 436
#     4  12  24  48  68 106 140 178 232 282 364 410
#     4  11  23  44  66  97 137 181 234 286 337 412
#     4  12  26  43  73 104 139 179 234 297 348 423
#
# _framework density 21.340567
#
# number of rings (size 3 to 8) (size 9 to 14) (size 15 to 20)
#    0.000    0.296    7.407    0.889    8.296    0.593 
#    0.000    0.000    0.000    0.000    0.000    0.000 
#    0.000    0.000    0.000    0.000    0.000    0.000 
#
# Total GULP energy -150563.029164 kJ/mol
# GULP energy per Si atom -5576.408488 kJ/mol
# Density = 2.129200 g / cm^3
# Si number density = 21.340567 Si / 1000 Ang^3
#
#
#
# Elastic Constant Matrix: (Units=GPa)
#
#
# Indices 1 2 3 4 5 6 
#
# 1 82.1533 30.9620 -1.7191 0.0000 0.0000 0.0000
# 2 30.9620 111.8277 -1.6430 0.0000 0.0000 0.0000
# 3 -1.7191 -1.6430 50.3128 0.0000 0.0000 0.0000
# 4 0.0000 0.0000 0.0000 22.4566 0.0000 0.0000
# 5 0.0000 0.0000 0.0000 0.0000 16.1968 0.0000
# 6 0.0000 0.0000 0.0000 0.0000 0.0000 36.3553
#
#
#
# Elastic Compliance Matrix: (Units=1/GPa)
#
#
# Indices 1 2 3 4 5 6 
#
# 1 0.013596 -0.003759 0.000342 0.000000 0.000000 0.000000
# 2 -0.003759 0.009986 0.000198 0.000000 0.000000 0.000000
# 3 0.000342 0.000198 0.019894 0.000000 0.000000 0.000000
# 4 0.000000 0.000000 0.000000 0.044530 0.000000 0.000000
# 5 0.000000 0.000000 0.000000 0.000000 0.061741 0.000000
# 6 0.000000 0.000000 0.000000 0.000000 0.000000 0.027506
#
#
# Mechanical properties :
#
#
# Convention : Reuss Voigt Hill
#
# Bulk Modulus (GPa) = 27.00054 33.27708 30.13881
# Shear Modulus (GPa) = 25.50513 29.44801 27.47657
#
# Velocity S-wave (km/s) = 3.46084 3.71874 3.59211
# Velocity P-wave (km/s) = 5.35253 5.83660 5.59980
#
# Compressibility (1/GPa) = 0.03703630
#
# Stress axis : x y z
#
# Youngs Moduli (GPa) = 73.54901 100.13905 50.26695
#
# Poissons Ratio (x) = 0.37647 -0.01718
# Poissons Ratio (y) = 0.27650 -0.00994
# Poissons Ratio (z) = -0.02514 -0.01979
#
# Static dielectric constant tensor:
#      x y z
#    x 1.794320 0.000000 0.000000 
#    y 0.000000 1.764180 0.000000 
#    z 0.000000 0.000000 1.831990 
# 
# From -- ./inp_files/20334.got.cif
#   From: 2010.05.17/outbox.cif.g08.bks.cpg/sg22_11_cif.got.tgz:20334.got - 2010.06.03 23:40:54.
