data_PCOD9328644
_publ_section_title
;
Structure prediction by ZEFSAII (Michael W. Deem and Ramdas Pophale) SiO2 
 PCOD9328644
Probable space group: F 2 2 2
;
_chemical_formula_sum "Si O2"
_cell_formula_units_Z 120
_cell_length_a 21.794704
_cell_length_b 21.306071
_cell_length_c 11.183702
_cell_angle_alpha 90.000000
_cell_angle_beta 90.000000
_cell_angle_gamma 90.000000
_cell_volume 5193.258390
_symmetry_space_group_name_H-M "F 2 2 2"
_symmetry_group_IT_number 22
_symmetry_cell_setting 'orthorhombic'
loop_
_space_group_symop_operation_xyz
x,y,z
-x,-y,z
x,-y,-z
-x,y,-z
x,1/2+y,1/2+z
-x,1/2-y,1/2+z
x,1/2-y,1/2-z
-x,1/2+y,1/2-z
1/2+x,y,1/2+z
1/2-x,-y,1/2+z
1/2+x,-y,1/2-z
1/2-x,y,1/2-z
1/2+x,1/2+y,z
1/2-x,1/2-y,z
1/2+x,1/2-y,-z
1/2-x,1/2+y,-z
loop_
_atom_site_type_symbol
_atom_site_label
_atom_site_fract_x
_atom_site_fract_y
_atom_site_fract_z
Si Si1 0.500000 0.327008 0.500000
Si Si2 0.710278 0.483971 0.628881
Si Si3 0.630212 0.217535 0.046354
Si Si4 0.064943 0.568832 0.556359
Si Si5 0.715126 0.841917 0.126500
Si Si6 0.004774 0.069833 0.306688
Si Si7 0.172448 0.146943 0.946976
Si Si8 0.864122 0.596414 0.791208
O O1 0.442771 0.285032 0.535916
O O2 0.477941 0.375178 0.397319
O O3 0.741602 0.500000 0.500000
O O4 0.750000 0.489326 0.750000
O O5 0.688144 0.412188 0.631778
O O6 0.656900 0.534788 0.639652
O O7 0.652192 0.283926 0.094317
O O8 0.645892 0.157708 0.128110
O O9 0.664180 0.206212 0.919542
O O10 0.077882 0.500000 0.500000
O O11 0.119724 0.615713 0.528007
O O12 0.000000 0.590054 0.500000
O O13 0.050973 0.563850 0.696323
O O14 0.750000 0.827379 0.250000
O O15 0.766621 0.846232 0.023395
O O16 0.936227 0.089256 0.262405
O O17 0.000000 0.000000 0.360363
O O18 0.174932 0.104773 0.828985
#
# Coordination Sequence:
#
# PCOD9328644 Si02
#       8
#     8  16  16  16  16  16  16  16
#     4  10  27  42  70 102 143 194 240 286 366 434
#     4  11  23  43  72 102 143 183 238 302 360 433
#     4  11  26  48  68 103 147 189 244 294 354 444
#     4  11  22  44  68 104 139 174 236 303 357 426
#     4  11  27  47  70 105 144 189 242 302 362 443
#     4  11  22  40  67 100 141 182 231 295 363 428
#     4  12  26  45  76  99 142 193 239 297 365 430
#     4  11  24  42  69 106 138 182 243 296 361 429
#
# _framework density 23.106881000000001
#
# number of rings (size 3 to 8) (size 9 to 14) (size 15 to 20)
#    0.000    0.933    4.000    1.800    4.667    4.800 
#    0.000    1.333    0.000    0.000    0.000    0.000 
#    0.000    0.000    0.000    0.000    0.000    0.000 
#
# Total GULP energy -167962.923283 kJ/mol
# GULP energy per Si atom -5598.764109 kJ/mol
# Density = 2.305429 g / cm^3
# Si number density = 23.106881 Si / 1000 Ang^3
#
#
#
# Elastic Constant Matrix: (Units=GPa)
#
#
# Indices 1 2 3 4 5 6 
#
# 1 65.2146 20.3826 8.3840 0.0000 0.0000 0.0000
# 2 20.3826 101.6260 3.3806 0.0000 0.0000 0.0000
# 3 8.3840 3.3806 101.6919 0.0000 0.0000 0.0000
# 4 0.0000 0.0000 0.0000 23.7679 0.0000 0.0000
# 5 0.0000 0.0000 0.0000 0.0000 20.0792 0.0000
# 6 0.0000 0.0000 0.0000 0.0000 0.0000 14.6789
#
#
#
# Elastic Compliance Matrix: (Units=1/GPa)
#
#
# Indices 1 2 3 4 5 6 
#
# 1 0.016517 -0.003271 -0.001253 0.000000 0.000000 0.000000
# 2 -0.003271 0.010499 -0.000079 0.000000 0.000000 0.000000
# 3 -0.001253 -0.000079 0.009940 0.000000 0.000000 0.000000
# 4 0.000000 0.000000 0.000000 0.042074 0.000000 0.000000
# 5 0.000000 0.000000 0.000000 0.000000 0.049803 0.000000
# 6 0.000000 0.000000 0.000000 0.000000 0.000000 0.068125
#
#
# Mechanical properties :
#
#
# Convention : Reuss Voigt Hill
#
# Bulk Modulus (GPa) = 36.03768 36.98077 36.50922
# Shear Modulus (GPa) = 23.21117 27.46423 25.33770
#
# Velocity S-wave (km/s) = 3.17284 3.45131 3.31500
# Velocity P-wave (km/s) = 5.39004 5.64987 5.52148
#
# Compressibility (1/GPa) = 0.02774874
#
# Stress axis : x y z
#
# Youngs Moduli (GPa) = 60.54205 95.24979 100.60794
#
# Poissons Ratio (x) = 0.31157 0.12607
# Poissons Ratio (y) = 0.19804 0.00798
# Poissons Ratio (z) = 0.07586 0.00756
#
# Static dielectric constant tensor:
#      x y z
#    x 1.853570 0.000000 0.000000 
#    y 0.000000 1.821500 0.000000 
#    z 0.000000 0.000000 1.907040 
# 
# From -- ./inp_files/24018.got.cif
#   From: 2010.05.17/outbox.cif.g08.bks.cpg/sg22_13_cif.got.tgz:24018.got - 2010.06.03 23:40:54.
