data_PCOD9328092
_publ_section_title
;
Structure prediction by ZEFSAII (Michael W. Deem and Ramdas Pophale) SiO2 
 PCOD9328092
Probable space group: F 2 2 2
;
_chemical_formula_sum "Si O2"
_cell_formula_units_Z 68
_cell_length_a 8.346639
_cell_length_b 13.635014
_cell_length_c 26.448374
_cell_angle_alpha 90.000000
_cell_angle_beta 90.000000
_cell_angle_gamma 90.000000
_cell_volume 3009.997923
_symmetry_space_group_name_H-M "F 2 2 2"
_symmetry_group_IT_number 22
_symmetry_cell_setting 'orthorhombic'
loop_
_space_group_symop_operation_xyz
x,y,z
-x,-y,z
x,-y,-z
-x,y,-z
x,1/2+y,1/2+z
-x,1/2-y,1/2+z
x,1/2-y,1/2-z
-x,1/2+y,1/2-z
1/2+x,y,1/2+z
1/2-x,-y,1/2+z
1/2+x,-y,1/2-z
1/2-x,y,1/2-z
1/2+x,1/2+y,z
1/2-x,1/2-y,z
1/2+x,1/2-y,-z
1/2-x,1/2+y,-z
loop_
_atom_site_type_symbol
_atom_site_label
_atom_site_fract_x
_atom_site_fract_y
_atom_site_fract_z
Si Si1 0.640673 0.129817 0.917031
Si Si2 0.999310 0.338271 0.418709
Si Si3 0.000000 0.500000 0.000000
Si Si4 0.750000 0.250000 0.160811
Si Si5 0.500000 0.000000 0.500000
Si Si6 0.494877 0.389976 0.307354
Si Si7 0.250000 0.750000 0.750000
O O1 0.826351 0.124309 0.900217
O O2 0.565008 0.232230 0.937515
O O3 0.542340 0.104471 0.867186
O O4 0.615055 0.058902 0.963234
O O5 0.872266 0.310440 0.375592
O O6 0.934721 0.417153 0.459383
O O7 0.657866 0.170943 0.194332
O O8 0.500000 0.500000 0.286376
O O9 0.360481 0.321135 0.283141
#
# Coordination Sequence:
#
# PCOD9328092 Si02
#       7
#    16  16   4   8   4  16   4
#     4  10  22  43  66 102 142 193 237 303 357 439
#     4  10  23  38  59  92 142 189 242 299 354 424
#     4  12  20  36  80 104 148 192 248 284 370 450
#     4  10  24  47  68 101 144 187 244 304 374 451
#     4  12  24  32  56 100 132 188 254 282 346 426
#     4  11  25  48  78 108 148 191 245 306 386 440
#     4  12  28  50  76 116 148 184 260 320 364 462
#
# _framework density 22.591376
#
# number of rings (size 3 to 8) (size 9 to 14) (size 15 to 20)
#    0.000    1.412    1.176    4.235    3.294    8.000 
#    0.000    0.000    0.000    0.000    0.000    0.000 
#    0.000    0.000    0.000    0.000    0.000    0.000 
#
# Total GULP energy -94798.277569 kJ/mol
# GULP energy per Si atom -5576.369269 kJ/mol
# Density = 2.253996 g / cm^3
# Si number density = 22.591376 Si / 1000 Ang^3
#
#
#
# Elastic Constant Matrix: (Units=GPa)
#
#
# Indices 1 2 3 4 5 6 
#
# 1 129.1516 68.0120 26.6515 0.0000 0.0000 0.0000
# 2 68.0120 176.5443 54.6942 0.0000 0.0000 0.0000
# 3 26.6515 54.6942 68.7602 0.0000 0.0000 0.0000
# 4 0.0000 0.0000 0.0000 -124.2453 0.0000 0.0000
# 5 0.0000 0.0000 0.0000 0.0000 -17.6906 0.0000
# 6 0.0000 0.0000 0.0000 0.0000 0.0000 21.2949
#
#
#
# Elastic Compliance Matrix: (Units=1/GPa)
#
#
# Indices 1 2 3 4 5 6 
#
# 1 0.009770 -0.003438 -0.001052 0.000000 0.000000 0.000000
# 2 -0.003438 0.008726 -0.005609 0.000000 0.000000 0.000000
# 3 -0.001052 -0.005609 0.019413 0.000000 0.000000 0.000000
# 4 0.000000 0.000000 0.000000 -0.008049 0.000000 0.000000
# 5 0.000000 0.000000 0.000000 0.000000 -0.056527 0.000000
# 6 0.000000 0.000000 0.000000 0.000000 0.000000 0.046960
#
#
# Mechanical properties :
#
#
# Convention : Reuss Voigt Hill
#
# Bulk Modulus (GPa) = 56.46106 74.79685 65.62896
# Shear Modulus (GPa) = 107.77000 -9.12166 49.32417
#
# Velocity S-wave (km/s) = 6.91430 -2.01158 4.67767
# Velocity P-wave (km/s) = 9.42285 5.27117 7.63463
#
# Compressibility (1/GPa) = 0.01771132
#
# Stress axis : x y z
#
# Youngs Moduli (GPa) = 102.34950 114.59570 51.51315
#
# Poissons Ratio (x) = 0.39397 0.05421
# Poissons Ratio (y) = 0.35187 0.28892
# Poissons Ratio (z) = 0.10771 0.64273
#
# Static dielectric constant tensor:
#      x y z
#    x 6.072990 0.000000 0.000000 
#    y 0.000000 1.914130 0.000000 
#    z 0.000000 0.000000 1.772700 
# 
# From -- ./inp_files/51658.got.cif
#   From: 2010.05.17/outbox.cif.g08.bks.cpg/sg22_26_cif.got.tgz:51658.got - 2010.06.03 23:40:54.
