data_PCOD9328431
_publ_section_title
;
Structure prediction by ZEFSAII (Michael W. Deem and Ramdas Pophale) SiO2 
 PCOD9328431
Probable space group: F 2 2 2
;
_chemical_formula_sum "Si O2"
_cell_formula_units_Z 80
_cell_length_a 11.441798
_cell_length_b 18.854088
_cell_length_c 18.916270
_cell_angle_alpha 90.000000
_cell_angle_beta 90.000000
_cell_angle_gamma 90.000000
_cell_volume 4080.706035
_symmetry_space_group_name_H-M "F 2 2 2"
_symmetry_group_IT_number 22
_symmetry_cell_setting 'orthorhombic'
loop_
_space_group_symop_operation_xyz
x,y,z
-x,-y,z
x,-y,-z
-x,y,-z
x,1/2+y,1/2+z
-x,1/2-y,1/2+z
x,1/2-y,1/2-z
-x,1/2+y,1/2-z
1/2+x,y,1/2+z
1/2-x,-y,1/2+z
1/2+x,-y,1/2-z
1/2-x,y,1/2-z
1/2+x,1/2+y,z
1/2-x,1/2-y,z
1/2+x,1/2-y,-z
1/2-x,1/2+y,-z
loop_
_atom_site_type_symbol
_atom_site_label
_atom_site_fract_x
_atom_site_fract_y
_atom_site_fract_z
Si Si1 0.168744 0.954945 0.379024
Si Si2 0.070356 0.856095 0.826682
Si Si3 0.000000 0.000000 0.256206
Si Si4 0.621941 0.537040 0.075568
Si Si5 0.250000 0.250000 0.250000
Si Si6 0.198282 0.322786 0.670934
Si Si7 0.500000 0.500000 0.500000
O O1 0.251880 0.887216 0.374486
O O2 0.095120 0.964411 0.307898
O O3 0.082775 0.956183 0.446408
O O4 0.259314 0.019335 0.383955
O O5 0.099476 0.881008 0.906988
O O6 0.165232 0.802411 0.794917
O O7 0.941120 0.823128 0.825064
O O8 0.057803 0.931660 0.783675
O O9 0.500000 0.500000 0.097407
O O10 0.642098 0.500000 0.000000
O O11 0.250000 0.330960 0.750000
O O12 0.250000 0.250000 0.642312
#
# Coordination Sequence:
#
# PCOD9328431 Si02
#       7
#    16  16   8  16   4  16   4
#     4  11  21  40  64  94 127 164 224 275 325 395
#     4  12  23  42  64 104 137 178 220 287 355 413
#     4  11  22  37  69 100 129 174 228 288 341 396
#     4  11  22  39  67  93 129 172 227 281 325 402
#     4  12  28  40  66 108 160 174 220 296 384 412
#     4  11  22  39  64  91 128 170 213 262 336 408
#     4  10  24  40  66  92 130 164 206 284 334 376
#
# _framework density 19.60445
#
# number of rings (size 3 to 8) (size 9 to 14) (size 15 to 20)
#    0.000    0.800    6.000    2.400    0.000    0.000 
#    0.000    0.000    6.600    0.000    0.000    0.000 
#    0.000    0.000    0.000    0.000    0.000    0.000 
#
# Total GULP energy -111436.563315 kJ/mol
# GULP energy per Si atom -5571.828166 kJ/mol
# Density = 1.955983 g / cm^3
# Si number density = 19.604450 Si / 1000 Ang^3
#
#
#
# Elastic Constant Matrix: (Units=GPa)
#
#
# Indices 1 2 3 4 5 6 
#
# 1 149.2320 47.6166 32.4304 0.0000 0.0000 0.0000
# 2 47.6166 89.0284 26.2366 0.0000 0.0000 0.0000
# 3 32.4304 26.2366 59.1430 0.0000 0.0000 0.0000
# 4 0.0000 0.0000 0.0000 14.1382 0.0000 0.0000
# 5 0.0000 0.0000 0.0000 0.0000 6.0318 0.0000
# 6 0.0000 0.0000 0.0000 0.0000 0.0000 36.2525
#
#
#
# Elastic Compliance Matrix: (Units=1/GPa)
#
#
# Indices 1 2 3 4 5 6 
#
# 1 0.008534 -0.003664 -0.003054 0.000000 0.000000 0.000000
# 2 -0.003664 0.014495 -0.004421 0.000000 0.000000 0.000000
# 3 -0.003054 -0.004421 0.020544 0.000000 0.000000 0.000000
# 4 0.000000 0.000000 0.000000 0.070730 0.000000 0.000000
# 5 0.000000 0.000000 0.000000 0.000000 0.165789 0.000000
# 6 0.000000 0.000000 0.000000 0.000000 0.000000 0.027584
#
#
# Mechanical properties :
#
#
# Convention : Reuss Voigt Hill
#
# Bulk Modulus (GPa) = 46.96031 56.66339 51.81185
# Shear Modulus (GPa) = 14.83446 24.02579 19.43013
#
# Velocity S-wave (km/s) = 2.75378 3.50455 3.15160
# Velocity P-wave (km/s) = 5.84097 6.73364 6.30313
#
# Compressibility (1/GPa) = 0.02129458
#
# Stress axis : x y z
#
# Youngs Moduli (GPa) = 117.18049 68.98898 48.67618
#
# Poissons Ratio (x) = 0.25280 0.14865
# Poissons Ratio (y) = 0.42939 0.21519
# Poissons Ratio (z) = 0.35786 0.30499
#
# Static dielectric constant tensor:
#      x y z
#    x 1.691100 0.000000 0.000000 
#    y 0.000000 1.740840 0.000000 
#    z 0.000000 0.000000 1.809790 
# 
# From -- ./inp_files/21343.got.cif
#   From: 2010.05.17/outbox.cif.g08.bks.cpg/sg22_11_cif.got.tgz:21343.got - 2010.06.03 23:40:54.
