data_PCOD9328386
_publ_section_title
;
Structure prediction by ZEFSAII (Michael W. Deem and Ramdas Pophale) SiO2 
 PCOD9328386
Probable space group: F 2 2 2
;
_chemical_formula_sum "Si O2"
_cell_formula_units_Z 88
_cell_length_a 27.748934
_cell_length_b 11.512093
_cell_length_c 11.836200
_cell_angle_alpha 90.000000
_cell_angle_beta 90.000000
_cell_angle_gamma 90.000000
_cell_volume 3781.054073
_symmetry_space_group_name_H-M "F 2 2 2"
_symmetry_group_IT_number 22
_symmetry_cell_setting 'orthorhombic'
loop_
_space_group_symop_operation_xyz
x,y,z
-x,-y,z
x,-y,-z
-x,y,-z
x,1/2+y,1/2+z
-x,1/2-y,1/2+z
x,1/2-y,1/2-z
-x,1/2+y,1/2-z
1/2+x,y,1/2+z
1/2-x,-y,1/2+z
1/2+x,-y,1/2-z
1/2-x,y,1/2-z
1/2+x,1/2+y,z
1/2-x,1/2-y,z
1/2+x,1/2-y,-z
1/2-x,1/2+y,-z
loop_
_atom_site_type_symbol
_atom_site_label
_atom_site_fract_x
_atom_site_fract_y
_atom_site_fract_z
Si Si1 0.250000 0.750000 0.941512
Si Si2 0.000000 0.000000 0.308902
Si Si3 0.750000 0.445329 0.750000
Si Si4 0.938268 0.716347 0.122968
Si Si5 0.149592 0.064788 0.769176
Si Si6 0.567798 0.959467 0.374821
Si Si7 0.353842 0.720349 0.439494
O O1 0.250625 0.638202 0.859218
O O2 0.299395 0.765619 0.012870
O O3 0.025814 0.106171 0.374256
O O4 0.041105 0.962385 0.219152
O O5 0.795574 0.527818 0.738280
O O6 0.921975 0.750000 0.250000
O O7 0.962129 0.841567 0.102374
O O8 0.893527 0.707920 0.038110
O O9 0.139415 0.166875 0.859471
O O10 0.138181 0.111601 0.644279
O O11 0.120072 0.955275 0.816056
O O12 0.575487 0.000000 0.500000
#
# Coordination Sequence:
#
# PCOD9328386 Si02
#       7
#     8   8   8  16  16  16  16
#     4  11  26  41  72 106 152 203 255 312 388 466
#     4  10  25  46  71 108 146 196 254 324 398 470
#     4  11  26  43  70 110 150 203 262 313 384 480
#     4  10  23  46  75 106 149 196 254 321 393 473
#     4  11  25  45  73 111 154 199 258 315 394 472
#     4  11  22  47  77 107 146 201 262 320 397 473
#     4  11  24  46  71 110 154 201 248 321 390 471
#
# _framework density 23.273933
#
# number of rings (size 3 to 8) (size 9 to 14) (size 15 to 20)
#    0.000    1.273    1.818    2.455    7.636    3.636 
#    9.818    3.636    0.000    0.000    0.000    0.000 
#    0.000    0.000    0.000    0.000    0.000    0.000 
#
# Total GULP energy -122634.364069 kJ/mol
# GULP energy per Si atom -5574.289276 kJ/mol
# Density = 2.322096 g / cm^3
# Si number density = 23.273933 Si / 1000 Ang^3
#
#
#
# Elastic Constant Matrix: (Units=GPa)
#
#
# Indices 1 2 3 4 5 6 
#
# 1 137.6957 53.0336 69.2076 0.0000 0.0000 0.0000
# 2 53.0336 117.0278 47.2064 0.0000 0.0000 0.0000
# 3 69.2076 47.2064 149.9876 0.0000 0.0000 0.0000
# 4 0.0000 0.0000 0.0000 -11.6857 0.0000 0.0000
# 5 0.0000 0.0000 0.0000 0.0000 -581.1073 0.0000
# 6 0.0000 0.0000 0.0000 0.0000 0.0000 42.8205
#
#
#
# Elastic Compliance Matrix: (Units=1/GPa)
#
#
# Indices 1 2 3 4 5 6 
#
# 1 0.010395 -0.003179 -0.003796 0.000000 0.000000 0.000000
# 2 -0.003179 0.010760 -0.001919 0.000000 0.000000 0.000000
# 3 -0.003796 -0.001919 0.009023 0.000000 0.000000 0.000000
# 4 0.000000 0.000000 0.000000 -0.085574 0.000000 0.000000
# 5 0.000000 0.000000 0.000000 0.000000 -0.001721 0.000000
# 6 0.000000 0.000000 0.000000 0.000000 0.000000 0.023353
#
#
# Mechanical properties :
#
#
# Convention : Reuss Voigt Hill
#
# Bulk Modulus (GPa) = 80.72142 82.62291 81.67217
# Shear Modulus (GPa) = -422.09817 -94.31028 -258.20422
#
# Velocity S-wave (km/s) = -13.48164 -6.37258 -10.54430
# Velocity P-wave (km/s) = 14.40767 4.30920 10.63368
#
# Compressibility (1/GPa) = 0.01238829
#
# Stress axis : x y z
#
# Youngs Moduli (GPa) = 96.20264 92.93586 110.83096
#
# Poissons Ratio (x) = 0.29549 0.42068
# Poissons Ratio (y) = 0.30588 0.21274
# Poissons Ratio (z) = 0.36515 0.17839
#
# Static dielectric constant tensor:
#      x y z
#    x 1.912020 0.000000 0.000000 
#    y 0.000000 2.816580 0.000000 
#    z 0.000000 0.000000 1.939880 
# 
# From -- ./inp_files/25253.got.cif
#   From: 2010.05.17/outbox.cif.g08.bks.cpg/sg22_13_cif.got.tgz:25253.got - 2010.06.03 23:40:54.
