data_PCOD9328507
_publ_section_title
;
Structure prediction by ZEFSAII (Michael W. Deem and Ramdas Pophale) SiO2 
 PCOD9328507
Probable space group: F 2 2 2
;
_chemical_formula_sum "Si O2"
_cell_formula_units_Z 104
_cell_length_a 19.604487
_cell_length_b 27.505686
_cell_length_c 8.651534
_cell_angle_alpha 90.000000
_cell_angle_beta 90.000000
_cell_angle_gamma 90.000000
_cell_volume 4665.208757
_symmetry_space_group_name_H-M "F 2 2 2"
_symmetry_group_IT_number 22
_symmetry_cell_setting 'orthorhombic'
loop_
_space_group_symop_operation_xyz
x,y,z
-x,-y,z
x,-y,-z
-x,y,-z
x,1/2+y,1/2+z
-x,1/2-y,1/2+z
x,1/2-y,1/2-z
-x,1/2+y,1/2-z
1/2+x,y,1/2+z
1/2-x,-y,1/2+z
1/2+x,-y,1/2-z
1/2-x,y,1/2-z
1/2+x,1/2+y,z
1/2-x,1/2-y,z
1/2+x,1/2-y,-z
1/2-x,1/2+y,-z
loop_
_atom_site_type_symbol
_atom_site_label
_atom_site_fract_x
_atom_site_fract_y
_atom_site_fract_z
Si Si1 0.945940 0.636670 0.251452
Si Si2 0.244004 0.806958 0.572926
Si Si3 0.914680 0.897249 0.742183
Si Si4 0.290872 0.050294 0.914376
Si Si5 0.406515 0.806585 0.053882
Si Si6 0.000000 0.284697 0.500000
Si Si7 0.168981 0.389279 0.461764
O O1 0.965059 0.678712 0.377047
O O2 0.874343 0.613855 0.305770
O O3 0.004146 0.595327 0.240265
O O4 0.939430 0.664716 0.090901
O O5 0.250000 0.825571 0.750000
O O6 0.250000 0.750000 0.582947
O O7 0.172773 0.811188 0.487694
O O8 0.304692 0.835490 0.491106
O O9 0.862398 0.923002 0.624443
O O10 0.914262 0.839617 0.704231
O O11 0.883942 0.907301 0.909597
O O12 0.250000 0.045115 0.750000
O O13 0.238425 0.080219 0.023441
O O14 0.303823 0.000000 0.000000
O O15 0.441412 0.753566 0.058106
#
# Coordination Sequence:
#
# PCOD9328507 Si02
#       7
#    16  16  16  16  16   8  16
#     4  12  23  40  65  92 136 189 231 273 338 410
#     4  11  23  37  57  91 134 176 230 280 321 395
#     4  11  23  43  64  96 136 171 219 287 346 412
#     4  10  24  45  75 104 131 168 225 292 366 434
#     4  12  24  37  59  91 132 182 235 278 324 393
#     4  12  24  38  60  92 136 194 244 266 326 398
#     4  11  22  43  67  96 132 178 222 281 354 413
#
# _framework density 22.292677000000001
#
# number of rings (size 3 to 8) (size 9 to 14) (size 15 to 20)
#    0.000    0.769    6.154    1.385    2.154    1.846 
#    0.000    0.769    0.000   16.615    0.000    0.000 
#    0.000    0.000    0.000    0.000    0.000    0.000 
#
# Total GULP energy -145119.629255 kJ/mol
# GULP energy per Si atom -5581.524202 kJ/mol
# Density = 2.224194 g / cm^3
# Si number density = 22.292677 Si / 1000 Ang^3
#
#
#
# Elastic Constant Matrix: (Units=GPa)
#
#
# Indices 1 2 3 4 5 6 
#
# 1 151.2601 39.5418 13.6875 -0.0001 0.0002 0.0000
# 2 39.5418 81.5800 17.7870 0.0000 0.0001 0.0000
# 3 13.6875 17.7870 41.4684 -0.0002 0.0003 0.0001
# 4 -0.0001 0.0000 -0.0002 32.1156 0.0001 0.0000
# 5 0.0002 0.0001 0.0003 0.0001 50.0657 0.0000
# 6 0.0000 0.0000 0.0001 0.0000 0.0000 20.7643
#
#
#
# Elastic Compliance Matrix: (Units=1/GPa)
#
#
# Indices 1 2 3 4 5 6 
#
# 1 0.007610 -0.003465 -0.001026 0.000000 0.000000 0.000000
# 2 -0.003465 0.015100 -0.005333 0.000000 0.000000 0.000000
# 3 -0.001026 -0.005333 0.026741 0.000000 0.000000 0.000000
# 4 0.000000 0.000000 0.000000 0.031138 0.000000 0.000000
# 5 0.000000 0.000000 0.000000 0.000000 0.019974 0.000000
# 6 0.000000 0.000000 0.000000 0.000000 0.000000 0.048160
#
#
# Mechanical properties :
#
#
# Convention : Reuss Voigt Hill
#
# Bulk Modulus (GPa) = 33.55324 46.26012 39.90668
# Shear Modulus (GPa) = 28.04212 34.14193 31.09203
#
# Velocity S-wave (km/s) = 3.55055 3.91772 3.73865
# Velocity P-wave (km/s) = 5.64734 6.42348 6.04787
#
# Compressibility (1/GPa) = 0.02980338
#
# Stress axis : x y z
#
# Youngs Moduli (GPa) = 131.41139 66.22472 37.39600
#
# Poissons Ratio (x) = 0.22946 0.03835
# Poissons Ratio (y) = 0.45531 0.19944
# Poissons Ratio (z) = 0.13477 0.35319
#
# Static dielectric constant tensor:
#      x y z
#    x 1.904440 0.000000 0.000000 
#    y 0.000000 1.782370 0.000000 
#    z 0.000000 0.000000 1.910840 
# 
# From -- ./inp_files/12977.got.cif
#   From: 2010.05.17/outbox.cif.g08.bks.cpg/sg22_7_cif.got.tgz:12977.got - 2010.06.03 23:40:54.
