data_PCOD9328688
_publ_section_title
;
Structure prediction by ZEFSAII (Michael W. Deem and Ramdas Pophale) SiO2 
 PCOD9328688
Probable space group: F 2 2 2
;
_chemical_formula_sum "Si O2"
_cell_formula_units_Z 108
_cell_length_a 24.339630
_cell_length_b 14.056041
_cell_length_c 13.863529
_cell_angle_alpha 90.000000
_cell_angle_beta 90.000000
_cell_angle_gamma 90.000000
_cell_volume 4742.974421
_symmetry_space_group_name_H-M "F 2 2 2"
_symmetry_group_IT_number 22
_symmetry_cell_setting 'orthorhombic'
loop_
_space_group_symop_operation_xyz
x,y,z
-x,-y,z
x,-y,-z
-x,y,-z
x,1/2+y,1/2+z
-x,1/2-y,1/2+z
x,1/2-y,1/2-z
-x,1/2+y,1/2-z
1/2+x,y,1/2+z
1/2-x,-y,1/2+z
1/2+x,-y,1/2-z
1/2-x,y,1/2-z
1/2+x,1/2+y,z
1/2-x,1/2-y,z
1/2+x,1/2-y,-z
1/2-x,1/2+y,-z
loop_
_atom_site_type_symbol
_atom_site_label
_atom_site_fract_x
_atom_site_fract_y
_atom_site_fract_z
Si Si1 0.919939 0.646860 0.740781
Si Si2 0.156165 0.583300 0.430788
Si Si3 0.175531 0.387640 0.876005
Si Si4 0.500000 0.000000 0.200688
Si Si5 0.091710 0.157403 0.302770
Si Si6 0.311651 0.231546 0.056352
Si Si7 0.807956 0.550148 0.266570
Si Si8 0.750000 0.750000 0.750000
O O1 0.943704 0.750000 0.750000
O O2 0.881748 0.634396 0.648319
O O3 0.886390 0.631687 0.840458
O O4 0.963957 0.566687 0.734210
O O5 0.132996 0.500000 0.500000
O O6 0.177559 0.670357 0.496213
O O7 0.195370 0.522080 0.357821
O O8 0.185889 0.490358 0.832219
O O9 0.212122 0.315283 0.814387
O O10 0.189025 0.358367 0.983317
O O11 0.453817 0.078802 0.158860
O O12 0.066548 0.250000 0.250000
O O13 0.136450 0.203281 0.377168
O O14 0.134511 0.105280 0.228712
O O15 0.250000 0.250000 0.096119
O O16 0.750000 0.601582 0.250000
#
# Coordination Sequence:
#
# PCOD9328688 Si02
#       8
#    16  16  16   8  16  16  16   4
#     4  11  22  45  77 103 139 193 258 315 370 441
#     4  11  23  43  73 106 148 191 254 316 372 457
#     4  11  19  38  66 109 143 196 246 299 370 452
#     4  12  26  54  80  98 140 214 264 316 383 477
#     4  12  29  49  76 108 151 208 261 319 404 471
#     4  12  26  42  72 118 162 193 240 315 397 477
#     4  11  23  42  72 106 152 206 249 303 388 477
#     4  12  16  32  72 108 152 184 248 304 362 456
#
# _framework density 22.770520999999999
#
# number of rings (size 3 to 8) (size 9 to 14) (size 15 to 20)
#    0.000    0.593    6.667    3.111    4.148    0.593 
#    0.000    1.852    0.000    0.000    0.000    0.000 
#    0.000    0.000    0.000    0.000    0.000    0.000 
#
# Total GULP energy -150398.479910 kJ/mol
# GULP energy per Si atom -5570.314071 kJ/mol
# Density = 2.271869 g / cm^3
# Si number density = 22.770521 Si / 1000 Ang^3
#
#
#
# Elastic Constant Matrix: (Units=GPa)
#
#
# Indices 1 2 3 4 5 6 
#
# 1 126.2705 41.1697 19.6383 0.0000 0.0000 0.0000
# 2 41.1697 134.3217 39.0619 0.0000 0.0000 0.0000
# 3 19.6383 39.0619 79.1338 0.0000 0.0000 0.0000
# 4 0.0000 0.0000 0.0000 46.7440 0.0000 0.0000
# 5 0.0000 0.0000 0.0000 0.0000 -2.6890 0.0000
# 6 0.0000 0.0000 0.0000 0.0000 0.0000 34.7414
#
#
#
# Elastic Compliance Matrix: (Units=1/GPa)
#
#
# Indices 1 2 3 4 5 6 
#
# 1 0.008866 -0.002426 -0.001003 0.000000 0.000000 0.000000
# 2 -0.002426 0.009356 -0.004016 0.000000 0.000000 0.000000
# 3 -0.001003 -0.004016 0.014868 0.000000 0.000000 0.000000
# 4 0.000000 0.000000 0.000000 0.021393 0.000000 0.000000
# 5 0.000000 0.000000 0.000000 0.000000 -0.371885 0.000000
# 6 0.000000 0.000000 0.000000 0.000000 0.000000 0.028784
#
#
# Mechanical properties :
#
#
# Convention : Reuss Voigt Hill
#
# Bulk Modulus (GPa) = 54.94316 59.94065 57.44190
# Shear Modulus (GPa) = -18.68044 31.74969 6.53462
#
# Velocity S-wave (km/s) = -2.86733 3.73813 1.69588
# Velocity P-wave (km/s) = 3.63584 6.70913 5.39591
#
# Compressibility (1/GPa) = 0.01820063
#
# Stress axis : x y z
#
# Youngs Moduli (GPa) = 112.78494 106.87891 67.25717
#
# Poissons Ratio (x) = 0.25928 0.06745
# Poissons Ratio (y) = 0.27361 0.27014
# Poissons Ratio (z) = 0.11311 0.42927
#
# Static dielectric constant tensor:
#      x y z
#    x 1.936810 0.000000 0.000000 
#    y 0.000000 1.904110 0.000000 
#    z 0.000000 0.000000 1.863940 
# 
# From -- ./inp_files/32537.got.cif
#   From: 2010.05.17/outbox.cif.g08.bks.cpg/sg22_17_cif.got.tgz:32537.got - 2010.06.03 23:40:54.
