data_PCOD9328830
_publ_section_title
;
Structure prediction by ZEFSAII (Michael W. Deem and Ramdas Pophale) SiO2 
 PCOD9328830
Probable space group: F 2 2 2
;
_chemical_formula_sum "Si O2"
_cell_formula_units_Z 64
_cell_length_a 19.622629
_cell_length_b 24.799650
_cell_length_c 5.221164
_cell_angle_alpha 90.000000
_cell_angle_beta 90.000000
_cell_angle_gamma 90.000000
_cell_volume 2540.797652
_symmetry_space_group_name_H-M "F 2 2 2"
_symmetry_group_IT_number 22
_symmetry_cell_setting 'orthorhombic'
loop_
_space_group_symop_operation_xyz
x,y,z
-x,-y,z
x,-y,-z
-x,y,-z
x,1/2+y,1/2+z
-x,1/2-y,1/2+z
x,1/2-y,1/2-z
-x,1/2+y,1/2-z
1/2+x,y,1/2+z
1/2-x,-y,1/2+z
1/2+x,-y,1/2-z
1/2-x,y,1/2-z
1/2+x,1/2+y,z
1/2-x,1/2-y,z
1/2+x,1/2-y,-z
1/2-x,1/2+y,-z
loop_
_atom_site_type_symbol
_atom_site_label
_atom_site_fract_x
_atom_site_fract_y
_atom_site_fract_z
Si Si1 0.161261 0.942823 0.951588
Si Si2 0.289763 0.825657 0.501936
Si Si3 0.577210 0.082785 0.055534
Si Si4 0.062175 0.189728 0.831121
O O1 0.207650 0.890895 0.994980
O O2 0.125683 0.934936 0.676297
O O3 0.104105 0.939823 0.174985
O O4 0.196464 0.000000 0.000000
O O5 0.250000 0.807924 0.750000
O O6 0.367876 0.807527 0.489531
O O7 0.250000 0.808779 0.250000
O O8 0.577111 0.147876 0.101172
O O9 0.500000 0.066548 0.000000
O O10 0.043969 0.250000 0.750000
O O11 0.000000 0.167069 0.000000
#
# Coordination Sequence:
#
# PCOD9328830 Si02
#       4
#    16  16  16  16
#     4  11  24  41  65  97 135 183 237 292 354 427
#     4  11  25  47  71 101 142 184 233 294 359 428
#     4  11  22  40  64  98 141 182 231 294 360 428
#     4  11  25  46  75 109 145 193 248 304 366 439
#
# _framework density 25.188942999999998
#
# number of rings (size 3 to 8) (size 9 to 14) (size 15 to 20)
#    0.000    1.000    0.000    8.250    0.000    6.500 
#    0.000    3.750    0.000    0.000    0.000    0.000 
#    0.000    0.000    0.000    0.000    0.000    0.000 
#
# Total GULP energy -89770.246901 kJ/mol
# GULP energy per Si atom -5610.640431 kJ/mol
# Density = 2.513161 g / cm^3
# Si number density = 25.188943 Si / 1000 Ang^3
#
#
#
# Elastic Constant Matrix: (Units=GPa)
#
#
# Indices 1 2 3 4 5 6 
#
# 1 137.6954 -12.7635 74.0331 -0.0021 0.0065 -0.0093
# 2 -12.7635 156.2036 11.5595 0.0030 -0.0023 -0.0005
# 3 74.0331 11.5595 184.1372 0.0029 -0.0183 -0.0251
# 4 -0.0021 0.0030 0.0029 26.6230 -0.0001 -0.0097
# 5 0.0065 -0.0023 -0.0183 -0.0001 50.0590 0.0206
# 6 -0.0093 -0.0005 -0.0251 -0.0097 0.0206 -7.7614
#
#
#
# Elastic Compliance Matrix: (Units=1/GPa)
#
#
# Indices 1 2 3 4 5 6 
#
# 1 0.009436 0.001057 -0.003860 0.000001 -0.000003 0.000001
# 2 0.001057 0.006550 -0.000836 -0.000001 0.000000 0.000001
# 3 -0.003860 -0.000836 0.007035 -0.000001 0.000003 -0.000018
# 4 0.000001 -0.000001 -0.000001 0.037561 0.000000 -0.000047
# 5 -0.000003 0.000000 0.000003 0.000000 0.019976 0.000053
# 6 0.000001 0.000001 -0.000018 -0.000047 0.000053 -0.128843
#
#
# Mechanical properties :
#
#
# Convention : Reuss Voigt Hill
#
# Bulk Modulus (GPa) = 63.52345 69.29937 66.41141
# Shear Modulus (GPa) = -139.82910 40.79793 -49.51558
#
# Velocity S-wave (km/s) = -7.45873 4.02889 -4.43851
# Velocity P-wave (km/s) = 6.99309 7.01528 0.39423
#
# Compressibility (1/GPa) = 0.01574222
#
# Stress axis : x y z
#
# Youngs Moduli (GPa) = 105.98036 152.66923 142.14361
#
# Poissons Ratio (x) = -0.16132 0.54867
# Poissons Ratio (y) = -0.11198 0.11884
# Poissons Ratio (z) = 0.40908 0.12763
#
# Static dielectric constant tensor:
#      x y z
#    x 1.940680 0.000000 0.000010 
#    y 0.000000 2.031200 -0.000010 
#    z 0.000010 -0.000010 1.961890 
# 
# From -- ./inp_files/3689.got.cif
#   From: 2010.05.17/outbox.cif.g08.bks.cpg/sg22_2_cif.got.tgz:3689.got - 2010.06.03 23:40:54.
