data_PCOD9328099
_publ_section_title
;
Structure prediction by ZEFSAII (Michael W. Deem and Ramdas Pophale) SiO2 
 PCOD9328099
Probable space group: F 2 2 2
;
_chemical_formula_sum "Si O2"
_cell_formula_units_Z 88
_cell_length_a 10.982861
_cell_length_b 28.764928
_cell_length_c 11.288511
_cell_angle_alpha 90.000000
_cell_angle_beta 90.000000
_cell_angle_gamma 90.000000
_cell_volume 3566.280008
_symmetry_space_group_name_H-M "F 2 2 2"
_symmetry_group_IT_number 22
_symmetry_cell_setting 'orthorhombic'
loop_
_space_group_symop_operation_xyz
x,y,z
-x,-y,z
x,-y,-z
-x,y,-z
x,1/2+y,1/2+z
-x,1/2-y,1/2+z
x,1/2-y,1/2-z
-x,1/2+y,1/2-z
1/2+x,y,1/2+z
1/2-x,-y,1/2+z
1/2+x,-y,1/2-z
1/2-x,y,1/2-z
1/2+x,1/2+y,z
1/2-x,1/2-y,z
1/2+x,1/2-y,-z
1/2-x,1/2+y,-z
loop_
_atom_site_type_symbol
_atom_site_label
_atom_site_fract_x
_atom_site_fract_y
_atom_site_fract_z
Si Si1 0.250000 0.250000 0.573743
Si Si2 0.705683 0.500000 0.000000
Si Si3 0.942075 0.395620 0.255891
Si Si4 0.234557 0.318491 0.111141
Si Si5 0.260694 0.098028 0.954798
Si Si6 0.500000 0.500000 0.198724
Si Si7 0.513363 0.796443 0.816102
O O1 0.308406 0.212890 0.482134
O O2 0.349538 0.280285 0.646104
O O3 0.783848 0.545730 0.992235
O O4 0.618248 0.497833 0.885935
O O5 0.859906 0.400159 0.373555
O O6 0.865280 0.387544 0.135710
O O7 0.998047 0.447995 0.242448
O O8 0.997353 0.343584 0.263762
O O9 0.250000 0.310830 0.250000
O O10 0.091996 0.306697 0.088989
O O11 0.253170 0.370852 0.069746
O O12 0.470990 0.750000 0.750000
#
# Coordination Sequence:
#
# PCOD9328099 Si02
#       7
#     8   8  16  16  16   8  16
#     4  12  24  46  72  96 146 189 243 308 368 462
#     4   9  20  40  66 103 138 192 232 301 379 442
#     4  10  22  43  72 105 136 188 246 306 366 447
#     4  12  27  46  66 104 149 190 244 306 375 451
#     4  10  22  43  67  99 142 186 240 300 369 446
#     4   9  20  40  70 103 142 178 253 304 369 452
#     4  12  26  44  73 106 142 193 248 306 383 451
#
# _framework density 24.675573
#
# number of rings (size 3 to 8) (size 9 to 14) (size 15 to 20)
#    0.000    1.273    1.818    3.273    5.091    1.455 
#    3.273    1.818    0.000    0.000    0.000    0.000 
#    0.000    0.000    0.000    0.000    0.000    0.000 
#
# Total GULP energy -122669.465516 kJ/mol
# GULP energy per Si atom -5575.884796 kJ/mol
# Density = 2.461941 g / cm^3
# Si number density = 24.675573 Si / 1000 Ang^3
#
#
#
# Elastic Constant Matrix: (Units=GPa)
#
#
# Indices 1 2 3 4 5 6 
#
# 1 46.7769 14.0097 19.7374 0.0000 0.0000 0.0000
# 2 14.0097 220.0142 39.9922 0.0000 0.0000 0.0000
# 3 19.7374 39.9922 72.0556 0.0000 0.0000 0.0000
# 4 0.0000 0.0000 0.0000 52.1975 0.0000 0.0000
# 5 0.0000 0.0000 0.0000 0.0000 190.7405 0.0000
# 6 0.0000 0.0000 0.0000 0.0000 0.0000 28.6245
#
#
#
# Elastic Compliance Matrix: (Units=1/GPa)
#
#
# Indices 1 2 3 4 5 6 
#
# 1 0.024199 -0.000374 -0.006421 0.000000 0.000000 0.000000
# 2 -0.000374 0.005061 -0.002707 0.000000 0.000000 0.000000
# 3 -0.006421 -0.002707 0.017139 0.000000 0.000000 0.000000
# 4 0.000000 0.000000 0.000000 0.019158 0.000000 0.000000
# 5 0.000000 0.000000 0.000000 0.000000 0.005243 0.000000
# 6 0.000000 0.000000 0.000000 0.000000 0.000000 0.034935
#
#
# Mechanical properties :
#
#
# Convention : Reuss Voigt Hill
#
# Bulk Modulus (GPa) = 36.50094 54.03614 45.26854
# Shear Modulus (GPa) = 37.34946 71.98632 54.66789
#
# Velocity S-wave (km/s) = 3.89475 5.40707 4.71198
# Velocity P-wave (km/s) = 5.92029 7.80565 6.92741
#
# Compressibility (1/GPa) = 0.02739655
#
# Stress axis : x y z
#
# Youngs Moduli (GPa) = 41.32327 197.59218 58.34556
#
# Poissons Ratio (x) = 0.07385 0.37465
# Poissons Ratio (y) = 0.01544 0.15791
# Poissons Ratio (z) = 0.26535 0.53479
#
# Static dielectric constant tensor:
#      x y z
#    x 2.071490 0.000000 0.000000 
#    y 0.000000 1.748360 0.000000 
#    z 0.000000 0.000000 1.974430 
# 
# From -- ./inp_files/18473.got.cif
#   From: 2010.05.17/outbox.cif.g08.bks.cpg/sg22_10_cif.got.tgz:18473.got - 2010.06.03 23:40:54.
