data_PCOD9328778
_publ_section_title
;
Structure prediction by ZEFSAII (Michael W. Deem and Ramdas Pophale) SiO2 
 PCOD9328778
Probable space group: F 2 2 2
;
_chemical_formula_sum "Si O2"
_cell_formula_units_Z 56
_cell_length_a 7.974833
_cell_length_b 17.352451
_cell_length_c 17.409314
_cell_angle_alpha 90.000000
_cell_angle_beta 90.000000
_cell_angle_gamma 90.000000
_cell_volume 2409.151339
_symmetry_space_group_name_H-M "F 2 2 2"
_symmetry_group_IT_number 22
_symmetry_cell_setting 'orthorhombic'
loop_
_space_group_symop_operation_xyz
x,y,z
-x,-y,z
x,-y,-z
-x,y,-z
x,1/2+y,1/2+z
-x,1/2-y,1/2+z
x,1/2-y,1/2-z
-x,1/2+y,1/2-z
1/2+x,y,1/2+z
1/2-x,-y,1/2+z
1/2+x,-y,1/2-z
1/2-x,y,1/2-z
1/2+x,1/2+y,z
1/2-x,1/2-y,z
1/2+x,1/2-y,-z
1/2-x,1/2+y,-z
loop_
_atom_site_type_symbol
_atom_site_label
_atom_site_fract_x
_atom_site_fract_y
_atom_site_fract_z
Si Si1 0.250000 0.250000 0.589281
Si Si2 0.396606 0.088682 0.575972
Si Si3 0.404805 0.791804 0.833101
Si Si4 0.276387 0.048388 0.335748
O O1 0.309838 0.169040 0.555139
O O2 0.414345 0.276219 0.634518
O O3 0.500000 0.072251 0.500000
O O4 0.539821 0.086383 0.644056
O O5 0.269008 0.022213 0.604219
O O6 0.408807 0.750000 0.750000
O O7 0.250000 0.750000 0.876368
O O8 0.355081 0.881372 0.836360
O O9 0.250000 0.015832 0.250000
#
# Coordination Sequence:
#
# PCOD9328778 Si02
#       4
#     8  16  16  16
#     4  12  25  42  76 106 147 210 270 308 398 480
#     4  11  27  48  72 111 154 204 263 328 395 468
#     4  11  21  41  71 117 160 194 258 325 385 460
#     4  11  22  44  73 105 155 204 248 325 388 451
#
# _framework density 23.244700000000002
#
# number of rings (size 3 to 8) (size 9 to 14) (size 15 to 20)
#    0.000    0.857    5.714    2.143    0.000   10.286 
#    0.000    0.000    0.000   13.714    0.000    0.000 
#    0.000    0.000    0.000    0.000    0.000    0.000 
#
# Total GULP energy -78008.613809 kJ/mol
# GULP energy per Si atom -5572.043843 kJ/mol
# Density = 2.319179 g / cm^3
# Si number density = 23.244700 Si / 1000 Ang^3
#
#
#
# Elastic Constant Matrix: (Units=GPa)
#
#
# Indices 1 2 3 4 5 6 
#
# 1 125.1170 46.8423 41.2955 0.0000 0.0000 0.0000
# 2 46.8423 230.9106 66.7044 0.0000 0.0000 0.0000
# 3 41.2955 66.7044 109.1208 0.0000 0.0000 0.0000
# 4 0.0000 0.0000 0.0000 11.9929 0.0000 0.0000
# 5 0.0000 0.0000 0.0000 0.0000 29.9044 0.0000
# 6 0.0000 0.0000 0.0000 0.0000 0.0000 22.3287
#
#
#
# Elastic Compliance Matrix: (Units=1/GPa)
#
#
# Indices 1 2 3 4 5 6 
#
# 1 0.009343 -0.001061 -0.002887 0.000000 0.000000 0.000000
# 2 -0.001061 0.005380 -0.002887 0.000000 0.000000 0.000000
# 3 -0.002887 -0.002887 0.012022 0.000000 0.000000 0.000000
# 4 0.000000 0.000000 0.000000 0.083383 0.000000 0.000000
# 5 0.000000 0.000000 0.000000 0.000000 0.033440 0.000000
# 6 0.000000 0.000000 0.000000 0.000000 0.000000 0.044785
#
#
# Mechanical properties :
#
#
# Convention : Reuss Voigt Hill
#
# Bulk Modulus (GPa) = 76.48970 86.09251 81.29111
# Shear Modulus (GPa) = 24.22708 33.53229 28.87968
#
# Velocity S-wave (km/s) = 3.23191 3.80225 3.52862
# Velocity P-wave (km/s) = 6.84870 7.50959 7.18675
#
# Compressibility (1/GPa) = 0.01307366
#
# Stress axis : x y z
#
# Youngs Moduli (GPa) = 107.03560 185.87421 83.18429
#
# Poissons Ratio (x) = 0.19727 0.24014
# Poissons Ratio (y) = 0.11360 0.24016
# Poissons Ratio (z) = 0.30900 0.53664
#
# Static dielectric constant tensor:
#      x y z
#    x 2.014130 0.000000 0.000000 
#    y 0.000000 1.980240 0.000000 
#    z 0.000000 0.000000 1.972690 
# 
# From -- ./inp_files/41478.got.cif
#   From: 2010.05.17/outbox.cif.g08.bks.cpg/sg22_21_cif.got.tgz:41478.got - 2010.06.03 23:40:54.
