data_PCOD9328595
_publ_section_title
;
Structure prediction by ZEFSAII (Michael W. Deem and Ramdas Pophale) SiO2 
 PCOD9328595
Probable space group: F 2 2 2
;
_chemical_formula_sum "Si O2"
_cell_formula_units_Z 64
_cell_length_a 17.368809
_cell_length_b 30.950616
_cell_length_c 5.414047
_cell_angle_alpha 90.000000
_cell_angle_beta 90.000000
_cell_angle_gamma 90.000000
_cell_volume 2910.458145
_symmetry_space_group_name_H-M "F 2 2 2"
_symmetry_group_IT_number 22
_symmetry_cell_setting 'orthorhombic'
loop_
_space_group_symop_operation_xyz
x,y,z
-x,-y,z
x,-y,-z
-x,y,-z
x,1/2+y,1/2+z
-x,1/2-y,1/2+z
x,1/2-y,1/2-z
-x,1/2+y,1/2-z
1/2+x,y,1/2+z
1/2-x,-y,1/2+z
1/2+x,-y,1/2-z
1/2-x,y,1/2-z
1/2+x,1/2+y,z
1/2-x,1/2-y,z
1/2+x,1/2-y,-z
1/2-x,1/2+y,-z
loop_
_atom_site_type_symbol
_atom_site_label
_atom_site_fract_x
_atom_site_fract_y
_atom_site_fract_z
Si Si1 0.148959 0.500000 0.500000
Si Si2 0.907660 0.276345 0.000302
Si Si3 0.169577 0.133352 0.393349
Si Si4 0.049482 0.064734 0.249336
Si Si5 0.750000 0.929218 0.750000
O O1 0.097114 0.520032 0.717826
O O2 0.203233 0.539304 0.426589
O O3 0.888527 0.250000 0.250000
O O4 0.889105 0.250000 0.750000
O O5 0.864298 0.321708 0.986162
O O6 0.000000 0.283679 0.000000
O O7 0.250000 0.139924 0.250000
O O8 0.105913 0.106250 0.244299
O O9 0.190036 0.101247 0.614722
O O10 0.000000 0.065925 0.500000
O O11 0.000000 0.066626 0.000000
#
# Coordination Sequence:
#
# PCOD9328595 Si02
#       5
#     8  16  16  16   8
#     4  12  25  46  74 104 151 204 256 316 369 438
#     4  10  25  49  79 111 146 190 240 301 371 446
#     4  12  27  49  74 110 150 199 244 307 377 451
#     4  12  28  48  74 110 149 200 260 315 368 434
#     4  12  26  48  71 108 156 196 255 306 390 426
#
# _framework density 21.989663
#
# number of rings (size 3 to 8) (size 9 to 14) (size 15 to 20)
#    0.000    0.500    2.500    4.125    3.500    9.500 
#    0.000    0.000    0.000    0.000    0.000    0.000 
#    0.000    0.000    0.000    0.000    0.000    0.000 
#
# Total GULP energy -89618.652803 kJ/mol
# GULP energy per Si atom -5601.165800 kJ/mol
# Density = 2.193961 g / cm^3
# Si number density = 21.989663 Si / 1000 Ang^3
#
#
#
# Elastic Constant Matrix: (Units=GPa)
#
#
# Indices 1 2 3 4 5 6 
#
# 1 79.8338 73.7579 55.7436 -0.0023 0.0022 -0.0039
# 2 73.7579 202.3584 78.1053 -0.0010 -0.0017 -0.0006
# 3 55.7436 78.1053 144.9971 -0.0071 0.0040 -0.0041
# 4 -0.0023 -0.0010 -0.0071 23.2443 -0.0001 0.0004
# 5 0.0022 -0.0017 0.0040 -0.0001 28.8314 0.0048
# 6 -0.0039 -0.0006 -0.0041 0.0004 0.0048 61.7523
#
#
#
# Elastic Compliance Matrix: (Units=1/GPa)
#
#
# Indices 1 2 3 4 5 6 
#
# 1 0.021518 -0.005871 -0.005110 0.000000 -0.000001 0.000001
# 2 -0.005871 0.007841 -0.001966 -0.000001 0.000001 0.000000
# 3 -0.005110 -0.001966 0.009921 0.000002 -0.000001 0.000000
# 4 0.000000 -0.000001 0.000002 0.043021 0.000000 0.000000
# 5 -0.000001 0.000001 -0.000001 0.000000 0.034684 -0.000003
# 6 0.000001 0.000000 0.000000 0.000000 -0.000003 0.016194
#
#
# Mechanical properties :
#
#
# Convention : Reuss Voigt Hill
#
# Bulk Modulus (GPa) = 74.71363 93.60031 84.15697
# Shear Modulus (GPa) = 30.57448 37.40444 33.98946
#
# Velocity S-wave (km/s) = 3.73286 4.12879 3.93581
# Velocity P-wave (km/s) = 7.25461 8.08624 7.68169
#
# Compressibility (1/GPa) = 0.01338444
#
# Stress axis : x y z
#
# Youngs Moduli (GPa) = 46.47235 127.54154 100.80075
#
# Poissons Ratio (x) = 0.74877 0.51511
# Poissons Ratio (y) = 0.27283 0.19822
# Poissons Ratio (z) = 0.23748 0.25081
#
# Static dielectric constant tensor:
#      x y z
#    x 1.938090 0.000000 -0.000010 
#    y 0.000000 1.741990 0.000000 
#    z -0.000010 0.000000 1.815100 
# 
# From -- ./inp_files/2878.got.cif
#   From: 2010.05.17/outbox.cif.g08.bks.cpg/sg22_2_cif.got.tgz:2878.got - 2010.06.03 23:40:54.
