data_PCOD9328880
_publ_section_title
;
Structure prediction by ZEFSAII (Michael W. Deem and Ramdas Pophale) SiO2 
 PCOD9328880
Probable space group: F 2 2 2
;
_chemical_formula_sum "Si O2"
_cell_formula_units_Z 64
_cell_length_a 9.642287
_cell_length_b 32.775276
_cell_length_c 9.642249
_cell_angle_alpha 90.000000
_cell_angle_beta 90.000000
_cell_angle_gamma 90.000000
_cell_volume 3047.226623
_symmetry_space_group_name_H-M "F 2 2 2"
_symmetry_group_IT_number 22
_symmetry_cell_setting 'orthorhombic'
loop_
_space_group_symop_operation_xyz
x,y,z
-x,-y,z
x,-y,-z
-x,y,-z
x,1/2+y,1/2+z
-x,1/2-y,1/2+z
x,1/2-y,1/2-z
-x,1/2+y,1/2-z
1/2+x,y,1/2+z
1/2-x,-y,1/2+z
1/2+x,-y,1/2-z
1/2-x,y,1/2-z
1/2+x,1/2+y,z
1/2-x,1/2-y,z
1/2+x,1/2-y,-z
1/2-x,1/2+y,-z
loop_
_atom_site_type_symbol
_atom_site_label
_atom_site_fract_x
_atom_site_fract_y
_atom_site_fract_z
Si Si1 0.353469 0.078655 0.628061
Si Si2 0.386486 0.463435 0.157691
Si Si3 0.907691 0.213435 0.363514
Si Si4 0.878061 0.828655 0.896532
O O1 0.250000 0.068202 0.750000
O O2 0.489043 0.074888 0.315390
O O3 0.330147 0.125000 0.580144
O O4 0.339467 0.047381 0.499507
O O5 0.500000 0.500000 0.174063
O O6 0.250000 0.467662 0.250000
O O7 0.924063 0.250000 0.250000
O O8 0.934610 0.175112 0.260957
O O9 0.750493 0.202619 0.410533
O O10 0.000000 0.217662 0.500000
O O11 0.000000 0.818201 0.000000
#
# Coordination Sequence:
#
# PCOD9328880 Si02
#       4
#    16  16  16  16
#     4  11  22  44  68 102 141 176 223 293 353 413
#     4  11  25  45  69 100 143 189 235 285 349 419
#     4  11  25  45  69 100 143 189 235 285 349 419
#     4  11  22  44  68 102 141 176 223 293 353 413
#
# _framework density 21.002706
#
# number of rings (size 3 to 8) (size 9 to 14) (size 15 to 20)
#    0.000    1.000    5.000    4.500    0.000    4.000 
#    0.000    5.000    0.000    0.000    0.000    0.000 
#    0.000    0.000    0.000    0.000    0.000    0.000 
#
# Total GULP energy -89125.665730 kJ/mol
# GULP energy per Si atom -5570.354108 kJ/mol
# Density = 2.095490 g / cm^3
# Si number density = 21.002706 Si / 1000 Ang^3
#
#
#
# Elastic Constant Matrix: (Units=GPa)
#
#
# Indices 1 2 3 4 5 6 
#
# 1 167.8625 44.7458 134.5860 0.0000 0.0000 0.0000
# 2 44.7458 108.8249 44.7451 0.0000 0.0000 0.0000
# 3 134.5860 44.7451 167.8588 0.0000 0.0000 0.0000
# 4 0.0000 0.0000 0.0000 26.5051 0.0000 0.0000
# 5 0.0000 0.0000 0.0000 0.0000 66.2003 0.0000
# 6 0.0000 0.0000 0.0000 0.0000 0.0000 26.5053
#
#
#
# Elastic Compliance Matrix: (Units=1/GPa)
#
#
# Indices 1 2 3 4 5 6 
#
# 1 0.016908 -0.001548 -0.013144 0.000000 0.000000 0.000000
# 2 -0.001548 0.010462 -0.001548 0.000000 0.000000 0.000000
# 3 -0.013144 -0.001548 0.016909 0.000000 0.000000 0.000000
# 4 0.000000 0.000000 0.000000 0.037729 0.000000 0.000000
# 5 0.000000 0.000000 0.000000 0.000000 0.015106 0.000000
# 6 0.000000 0.000000 0.000000 0.000000 0.000000 0.037728
#
#
# Mechanical properties :
#
#
# Convention : Reuss Voigt Hill
#
# Bulk Modulus (GPa) = 84.74987 99.18888 91.96937
# Shear Modulus (GPa) = 29.19632 38.54011 33.86822
#
# Velocity S-wave (km/s) = 3.73248 4.28835 4.02003
# Velocity P-wave (km/s) = 7.68210 8.47639 8.08900
#
# Compressibility (1/GPa) = 0.01179943
#
# Stress axis : x y z
#
# Youngs Moduli (GPa) = 59.14202 95.58521 59.14080
#
# Poissons Ratio (x) = 0.14795 0.77736
# Poissons Ratio (y) = 0.09154 0.09154
# Poissons Ratio (z) = 0.77738 0.14794
#
# Static dielectric constant tensor:
#      x y z
#    x 1.774000 0.000000 0.000000 
#    y 0.000000 1.868960 0.000000 
#    z 0.000000 0.000000 1.774000 
# 
# From -- ./inp_files/16925.got.cif
#   From: 2010.05.17/outbox.cif.g08.bks.cpg/sg22_9_cif.got.tgz:16925.got - 2010.06.03 23:40:54.
