data_PCOD9328105
_publ_section_title
;
Structure prediction by ZEFSAII (Michael W. Deem and Ramdas Pophale) SiO2 
 PCOD9328105
Probable space group: F 2 2 2
;
_chemical_formula_sum "Si O2"
_cell_formula_units_Z 100
_cell_length_a 7.984788
_cell_length_b 21.385132
_cell_length_c 26.078488
_cell_angle_alpha 90.000000
_cell_angle_beta 90.000000
_cell_angle_gamma 90.000000
_cell_volume 4453.051657
_symmetry_space_group_name_H-M "F 2 2 2"
_symmetry_group_IT_number 22
_symmetry_cell_setting 'orthorhombic'
loop_
_space_group_symop_operation_xyz
x,y,z
-x,-y,z
x,-y,-z
-x,y,-z
x,1/2+y,1/2+z
-x,1/2-y,1/2+z
x,1/2-y,1/2-z
-x,1/2+y,1/2-z
1/2+x,y,1/2+z
1/2-x,-y,1/2+z
1/2+x,-y,1/2-z
1/2-x,y,1/2-z
1/2+x,1/2+y,z
1/2-x,1/2-y,z
1/2+x,1/2-y,-z
1/2-x,1/2+y,-z
loop_
_atom_site_type_symbol
_atom_site_label
_atom_site_fract_x
_atom_site_fract_y
_atom_site_fract_z
Si Si1 0.750000 0.750000 0.750000
Si Si2 0.811903 0.974104 0.052321
Si Si3 0.556771 0.638779 0.697075
Si Si4 0.250000 0.925759 0.750000
Si Si5 0.250000 0.750000 0.427524
Si Si6 0.805457 0.483840 0.163450
Si Si7 0.088116 0.217164 0.385931
Si Si8 0.681247 0.149468 0.986792
O O1 0.636071 0.702676 0.717325
O O2 0.801382 0.900157 0.040990
O O3 0.733497 0.999463 0.104814
O O4 0.000000 0.000000 0.054051
O O5 0.731662 0.000000 0.000000
O O6 0.414745 0.613616 0.735631
O O7 0.698708 0.587886 0.682467
O O8 0.458495 0.655027 0.644883
O O9 0.291734 0.970649 0.701891
O O10 0.415978 0.754774 0.393038
O O11 0.256331 0.688264 0.463888
O O12 0.000000 0.500000 0.171716
O O13 0.250000 0.250000 0.361706
O O14 0.137265 0.199353 0.443374
O O15 0.500000 0.119745 0.000000
#
# Coordination Sequence:
#
# PCOD9328105 Si02
#       8
#     4  16  16   8   8  16  16  16
#     4  12  28  46  68 108 146 186 236 316 382 462
#     4  11  27  43  64 107 145 188 243 305 366 438
#     4  11  26  46  70 109 142 186 244 305 385 444
#     4  10  23  47  80  99 135 190 250 308 364 468
#     4  10  23  44  72 103 146 201 246 301 362 460
#     4  10  23  46  75 102 137 191 247 299 380 446
#     4  11  24  43  70 107 143 191 244 300 368 452
#     4  10  22  43  69 100 140 193 245 298 365 439
#
# _framework density 22.456510000000002
#
# number of rings (size 3 to 8) (size 9 to 14) (size 15 to 20)
#    0.000    1.440    0.800    2.880    8.960    5.760 
#    2.880    0.000    0.000    0.000    0.000    0.000 
#    0.000    0.000    0.000    0.000    0.000    0.000 
#
# Total GULP energy -139588.915988 kJ/mol
# GULP energy per Si atom -5583.556640 kJ/mol
# Density = 2.240540 g / cm^3
# Si number density = 22.456510 Si / 1000 Ang^3
#
#
#
# Elastic Constant Matrix: (Units=GPa)
#
#
# Indices 1 2 3 4 5 6 
#
# 1 106.0584 65.8161 32.9297 0.0000 0.0000 0.0000
# 2 65.8161 112.5520 39.0998 0.0000 0.0000 0.0000
# 3 32.9297 39.0998 125.8365 0.0000 0.0000 0.0000
# 4 0.0000 0.0000 0.0000 58.7299 0.0000 0.0000
# 5 0.0000 0.0000 0.0000 0.0000 30.8186 0.0000
# 6 0.0000 0.0000 0.0000 0.0000 0.0000 23.9140
#
#
#
# Elastic Compliance Matrix: (Units=1/GPa)
#
#
# Indices 1 2 3 4 5 6 
#
# 1 0.014999 -0.008304 -0.001345 0.000000 0.000000 0.000000
# 2 -0.008304 0.014557 -0.002350 0.000000 0.000000 0.000000
# 3 -0.001345 -0.002350 0.009029 0.000000 0.000000 0.000000
# 4 0.000000 0.000000 0.000000 0.017027 0.000000 0.000000
# 5 0.000000 0.000000 0.000000 0.000000 0.032448 0.000000
# 6 0.000000 0.000000 0.000000 0.000000 0.000000 0.041816
#
#
# Mechanical properties :
#
#
# Convention : Reuss Voigt Hill
#
# Bulk Modulus (GPa) = 68.55186 68.90425 68.72805
# Shear Modulus (GPa) = 31.49857 36.46592 33.98225
#
# Velocity S-wave (km/s) = 3.74926 4.03407 3.89427
# Velocity P-wave (km/s) = 7.02391 7.24212 7.13385
#
# Compressibility (1/GPa) = 0.01458750
#
# Stress axis : x y z
#
# Youngs Moduli (GPa) = 66.66917 68.69565 110.75410
#
# Poissons Ratio (x) = 0.57044 0.14896
# Poissons Ratio (y) = 0.55361 0.26029
# Poissons Ratio (z) = 0.08967 0.16144
#
# Static dielectric constant tensor:
#      x y z
#    x 1.905500 0.000000 0.000000 
#    y 0.000000 1.962490 0.000000 
#    z 0.000000 0.000000 1.831610 
# 
# From -- ./inp_files/52010.got.cif
#   From: 2010.05.17/outbox.cif.g08.bks.cpg/sg22_27_cif.got.tgz:52010.got - 2010.06.03 23:40:54.
