data_PCOD9328683
_publ_section_title
;
Structure prediction by ZEFSAII (Michael W. Deem and Ramdas Pophale) SiO2 
 PCOD9328683
Probable space group: F 2 2 2
;
_chemical_formula_sum "Si O2"
_cell_formula_units_Z 112
_cell_length_a 12.805290
_cell_length_b 19.975039
_cell_length_c 23.910455
_cell_angle_alpha 90.000000
_cell_angle_beta 90.000000
_cell_angle_gamma 90.000000
_cell_volume 6115.963639
_symmetry_space_group_name_H-M "F 2 2 2"
_symmetry_group_IT_number 22
_symmetry_cell_setting 'orthorhombic'
loop_
_space_group_symop_operation_xyz
x,y,z
-x,-y,z
x,-y,-z
-x,y,-z
x,1/2+y,1/2+z
-x,1/2-y,1/2+z
x,1/2-y,1/2-z
-x,1/2+y,1/2-z
1/2+x,y,1/2+z
1/2-x,-y,1/2+z
1/2+x,-y,1/2-z
1/2-x,y,1/2-z
1/2+x,1/2+y,z
1/2-x,1/2-y,z
1/2+x,1/2-y,-z
1/2-x,1/2+y,-z
loop_
_atom_site_type_symbol
_atom_site_label
_atom_site_fract_x
_atom_site_fract_y
_atom_site_fract_z
Si Si1 0.867825 0.935600 0.602339
Si Si2 0.641932 0.720406 0.312989
Si Si3 0.910649 0.742713 0.653805
Si Si4 0.682829 0.358399 0.508029
Si Si5 0.253940 0.142237 0.688396
Si Si6 0.603975 0.591831 0.374513
Si Si7 0.107898 0.714677 0.477032
O O1 0.852135 0.914214 0.537560
O O2 0.772309 0.906099 0.637655
O O3 0.978425 0.901752 0.619080
O O4 0.876410 0.012465 0.621390
O O5 0.638637 0.750000 0.250000
O O6 0.750000 0.750000 0.337929
O O7 0.533059 0.744900 0.339543
O O8 0.639918 0.639953 0.323571
O O9 0.836521 0.800877 0.679662
O O10 0.866353 0.676719 0.683492
O O11 0.886656 0.730338 0.588784
O O12 0.661989 0.381980 0.570309
O O13 0.799716 0.334867 0.494235
O O14 0.621108 0.288560 0.502767
O O15 0.250000 0.111734 0.750000
O O16 0.000000 0.686648 0.500000
#
# Coordination Sequence:
#
# PCOD9328683 Si02
#       7
#    16  16  16  16  16  16  16
#     4  11  21  41  59  93 127 154 204 259 306 379
#     4  11  24  41  61  86 123 164 214 259 303 369
#     4  11  19  37  61  90 124 151 205 253 314 357
#     4  11  20  37  58  89 125 160 199 251 312 372
#     4  11  20  35  62  91 118 156 196 260 315 358
#     4  11  24  37  65  88 122 166 204 247 317 374
#     4  11  21  32  58  91 128 156 196 254 309 368
#
# _framework density 18.312730999999999
#
# number of rings (size 3 to 8) (size 9 to 14) (size 15 to 20)
#    0.000    1.000    4.286    5.143    4.000    1.143 
#    2.571    0.000    0.000    4.286    0.000    0.000 
#    0.000    0.000    0.000    0.000    0.000    0.000 
#
# Total GULP energy -156052.641388 kJ/mol
# GULP energy per Si atom -5573.308621 kJ/mol
# Density = 1.827105 g / cm^3
# Si number density = 18.312731 Si / 1000 Ang^3
#
#
#
# Elastic Constant Matrix: (Units=GPa)
#
#
# Indices 1 2 3 4 5 6 
#
# 1 109.0227 33.0314 -1.5354 0.0000 0.0000 0.0000
# 2 33.0314 76.7335 23.2581 0.0000 0.0000 0.0000
# 3 -1.5354 23.2581 75.5643 0.0000 0.0000 0.0000
# 4 0.0000 0.0000 0.0000 19.3241 0.0000 0.0000
# 5 0.0000 0.0000 0.0000 0.0000 23.8510 0.0000
# 6 0.0000 0.0000 0.0000 0.0000 0.0000 16.3139
#
#
#
# Elastic Compliance Matrix: (Units=1/GPa)
#
#
# Indices 1 2 3 4 5 6 
#
# 1 0.010769 -0.005186 0.001815 0.000000 0.000000 0.000000
# 2 -0.005186 0.016870 -0.005298 0.000000 0.000000 0.000000
# 3 0.001815 -0.005298 0.014901 0.000000 0.000000 0.000000
# 4 0.000000 0.000000 0.000000 0.051749 0.000000 0.000000
# 5 0.000000 0.000000 0.000000 0.000000 0.041927 0.000000
# 6 0.000000 0.000000 0.000000 0.000000 0.000000 0.061298
#
#
# Mechanical properties :
#
#
# Convention : Reuss Voigt Hill
#
# Bulk Modulus (GPa) = 39.67764 41.20317 40.44041
# Shear Modulus (GPa) = 22.39610 25.66887 24.03249
#
# Velocity S-wave (km/s) = 3.50091 3.74798 3.62655
# Velocity P-wave (km/s) = 6.16892 6.42483 6.29817
#
# Compressibility (1/GPa) = 0.02520311
#
# Stress axis : x y z
#
# Youngs Moduli (GPa) = 92.85751 59.27573 67.10826
#
# Poissons Ratio (x) = 0.30740 -0.12180
# Poissons Ratio (y) = 0.48155 0.35553
# Poissons Ratio (z) = -0.16854 0.31404
#
# Static dielectric constant tensor:
#      x y z
#    x 1.653320 0.000000 0.000000 
#    y 0.000000 1.674150 0.000000 
#    z 0.000000 0.000000 1.662920 
# 
# From -- ./inp_files/48284.got.cif
#   From: 2010.05.17/outbox.cif.g08.bks.cpg/sg22_25_cif.got.tgz:48284.got - 2010.06.03 23:40:54.
