data_PCOD9328145
_publ_section_title
;
Structure prediction by ZEFSAII (Michael W. Deem and Ramdas Pophale) SiO2 
 PCOD9328145
Probable space group: F 2 2 2
;
_chemical_formula_sum "Si O2"
_cell_formula_units_Z 64
_cell_length_a 5.570459
_cell_length_b 20.259266
_cell_length_c 26.063025
_cell_angle_alpha 90.000000
_cell_angle_beta 90.000000
_cell_angle_gamma 90.000000
_cell_volume 2941.301262
_symmetry_space_group_name_H-M "F 2 2 2"
_symmetry_group_IT_number 22
_symmetry_cell_setting 'orthorhombic'
loop_
_space_group_symop_operation_xyz
x,y,z
-x,-y,z
x,-y,-z
-x,y,-z
x,1/2+y,1/2+z
-x,1/2-y,1/2+z
x,1/2-y,1/2-z
-x,1/2+y,1/2-z
1/2+x,y,1/2+z
1/2-x,-y,1/2+z
1/2+x,-y,1/2-z
1/2-x,y,1/2-z
1/2+x,1/2+y,z
1/2-x,1/2-y,z
1/2+x,1/2-y,-z
1/2-x,1/2+y,-z
loop_
_atom_site_type_symbol
_atom_site_label
_atom_site_fract_x
_atom_site_fract_y
_atom_site_fract_z
Si Si1 0.750000 0.961586 0.750000
Si Si2 0.750000 0.250000 0.117060
Si Si3 0.500000 0.000000 0.586349
Si Si4 0.250000 0.750000 0.945339
Si Si5 0.663793 0.896254 0.855982
Si Si6 0.829553 0.894189 0.455339
O O1 0.643330 0.919092 0.797378
O O2 0.500000 0.000000 0.733655
O O3 0.501040 0.250243 0.085432
O O4 0.759056 0.179110 0.145185
O O5 0.676138 0.955147 0.620399
O O6 0.377515 0.945402 0.551924
O O7 0.245525 0.679366 0.972587
O O8 0.448638 0.892218 0.898071
O O9 0.000000 0.918790 0.500000
#
# Coordination Sequence:
#
# PCOD9328145 Si02
#       6
#     8   8   8   8  16  16
#     4  12  26  45  74 107 142 196 248 300 372 437
#     4  10  22  44  74 105 144 189 242 296 362 434
#     4  12  22  47  70 102 144 188 233 312 352 436
#     4  10  22  47  70 104 142 198 238 297 354 440
#     4  11  25  44  72 105 148 189 244 305 364 435
#     4  11  26  44  74 106 148 195 247 299 370 440
#
# _framework density 21.759073999999998
#
# number of rings (size 3 to 8) (size 9 to 14) (size 15 to 20)
#    0.000    1.000    3.750    2.250    0.000    8.500 
#    0.000    0.000    0.000    3.000    0.000    0.000 
#    0.000    0.000    0.000    0.000    0.000    0.000 
#
# Total GULP energy -89201.222272 kJ/mol
# GULP energy per Si atom -5575.076392 kJ/mol
# Density = 2.170955 g / cm^3
# Si number density = 21.759074 Si / 1000 Ang^3
#
#
#
# Elastic Constant Matrix: (Units=GPa)
#
#
# Indices 1 2 3 4 5 6 
#
# 1 73.7792 11.0575 19.1370 0.0000 0.0000 0.0000
# 2 11.0575 146.6292 11.0408 0.0000 0.0000 0.0000
# 3 19.1370 11.0408 103.7958 0.0000 0.0000 0.0000
# 4 0.0000 0.0000 0.0000 148.4356 0.0000 0.0000
# 5 0.0000 0.0000 0.0000 0.0000 18.1593 0.0000
# 6 0.0000 0.0000 0.0000 0.0000 0.0000 35.7557
#
#
#
# Elastic Compliance Matrix: (Units=1/GPa)
#
#
# Indices 1 2 3 4 5 6 
#
# 1 0.014349 -0.000890 -0.002551 0.000000 0.000000 0.000000
# 2 -0.000890 0.006930 -0.000573 0.000000 0.000000 0.000000
# 3 -0.002551 -0.000573 0.010166 0.000000 0.000000 0.000000
# 4 0.000000 0.000000 0.000000 0.006737 0.000000 0.000000
# 5 0.000000 0.000000 0.000000 0.000000 0.055068 0.000000
# 6 0.000000 0.000000 0.000000 0.000000 0.000000 0.027968
#
#
# Mechanical properties :
#
#
# Convention : Reuss Voigt Hill
#
# Bulk Modulus (GPa) = 42.70429 45.18607 43.94518
# Shear Modulus (GPa) = 36.48278 59.33473 47.90876
#
# Velocity S-wave (km/s) = 4.09916 5.22763 4.69741
# Velocity P-wave (km/s) = 6.48635 7.56632 7.04705
#
# Compressibility (1/GPa) = 0.02341685
#
# Stress axis : x y z
#
# Youngs Moduli (GPa) = 69.69131 144.29615 98.37133
#
# Poissons Ratio (x) = 0.12842 0.25093
# Poissons Ratio (y) = 0.06203 0.05637
# Poissons Ratio (z) = 0.17777 0.08269
#
# Static dielectric constant tensor:
#      x y z
#    x 1.748140 0.000000 0.000000 
#    y 0.000000 1.808110 0.000000 
#    z 0.000000 0.000000 1.809830 
# 
# From -- ./inp_files/3721.got.cif
#   From: 2010.05.17/outbox.cif.g08.bks.cpg/sg22_2_cif.got.tgz:3721.got - 2010.06.03 23:40:54.
