data_PCOD9328377
_publ_section_title
;
Structure prediction by ZEFSAII (Michael W. Deem and Ramdas Pophale) SiO2 
 PCOD9328377
Probable space group: F 2 2 2
;
_chemical_formula_sum "Si O2"
_cell_formula_units_Z 72
_cell_length_a 10.189735
_cell_length_b 27.620276
_cell_length_c 12.226812
_cell_angle_alpha 90.000000
_cell_angle_beta 90.000000
_cell_angle_gamma 90.000000
_cell_volume 3441.154233
_symmetry_space_group_name_H-M "F 2 2 2"
_symmetry_group_IT_number 22
_symmetry_cell_setting 'orthorhombic'
loop_
_space_group_symop_operation_xyz
x,y,z
-x,-y,z
x,-y,-z
-x,y,-z
x,1/2+y,1/2+z
-x,1/2-y,1/2+z
x,1/2-y,1/2-z
-x,1/2+y,1/2-z
1/2+x,y,1/2+z
1/2-x,-y,1/2+z
1/2+x,-y,1/2-z
1/2-x,y,1/2-z
1/2+x,1/2+y,z
1/2-x,1/2-y,z
1/2+x,1/2-y,-z
1/2-x,1/2+y,-z
loop_
_atom_site_type_symbol
_atom_site_label
_atom_site_fract_x
_atom_site_fract_y
_atom_site_fract_z
Si Si1 0.854100 0.789370 0.476693
Si Si2 0.595490 0.898698 0.409404
Si Si3 0.647270 0.601081 0.539573
Si Si4 0.750000 0.545360 0.750000
Si Si5 0.750000 0.332396 0.750000
Si Si6 0.000000 0.500000 0.671841
O O1 0.750000 0.750000 0.514229
O O2 0.847662 0.840589 0.539525
O O3 0.816318 0.802756 0.350167
O O4 0.000000 0.770643 0.500000
O O5 0.500000 0.873585 0.500000
O O6 0.738266 0.913269 0.455410
O O7 0.635148 0.865049 0.306668
O O8 0.519843 0.948283 0.385058
O O9 0.500000 0.587214 0.500000
O O10 0.697733 0.578977 0.652319
O O11 0.631055 0.508892 0.764649
#
# Coordination Sequence:
#
# PCOD9328377 Si02
#       6
#    16  16  16   8   8   8
#     4  10  23  45  73 104 136 175 228 278 348 424
#     4  11  23  43  67  96 137 181 230 279 336 398
#     4  10  25  44  68  96 137 180 219 282 354 403
#     4  12  27  44  67  99 142 179 237 286 335 402
#     4  10  24  44  74  99 142 183 216 286 352 410
#     4  12  27  42  65 100 134 184 239 282 331 400
#
# _framework density 20.923211999999999
#
# number of rings (size 3 to 8) (size 9 to 14) (size 15 to 20)
#    0.000    1.333    2.222    1.333   12.444    3.556 
#    0.000    5.000    0.000    0.000    0.000    0.000 
#    0.000    0.000    0.000    0.000    0.000    0.000 
#
# Total GULP energy -100341.419517 kJ/mol
# GULP energy per Si atom -5574.523307 kJ/mol
# Density = 2.087559 g / cm^3
# Si number density = 20.923212 Si / 1000 Ang^3
#
#
#
# Elastic Constant Matrix: (Units=GPa)
#
#
# Indices 1 2 3 4 5 6 
#
# 1 161.3323 26.9976 26.6152 0.0000 0.0000 0.0000
# 2 26.9976 37.6351 15.0628 0.0000 0.0000 0.0000
# 3 26.6152 15.0628 62.8764 0.0000 0.0000 0.0000
# 4 0.0000 0.0000 0.0000 -4.6720 0.0000 0.0000
# 5 0.0000 0.0000 0.0000 0.0000 37.2330 0.0000
# 6 0.0000 0.0000 0.0000 0.0000 0.0000 20.1234
#
#
#
# Elastic Compliance Matrix: (Units=1/GPa)
#
#
# Indices 1 2 3 4 5 6 
#
# 1 0.007269 -0.004405 -0.002022 0.000000 0.000000 0.000000
# 2 -0.004405 0.032059 -0.005815 0.000000 0.000000 0.000000
# 3 -0.002022 -0.005815 0.018153 0.000000 0.000000 0.000000
# 4 0.000000 0.000000 0.000000 -0.214041 0.000000 0.000000
# 5 0.000000 0.000000 0.000000 0.000000 0.026858 0.000000
# 6 0.000000 0.000000 0.000000 0.000000 0.000000 0.049693
#
#
# Mechanical properties :
#
#
# Convention : Reuss Voigt Hill
#
# Bulk Modulus (GPa) = 30.30646 44.35500 37.33073
# Shear Modulus (GPa) = -112.29589 23.41475 -44.44057
#
# Velocity S-wave (km/s) = -7.33396 3.34889 -4.61367
# Velocity P-wave (km/s) = 7.56306 6.01651 3.24049
#
# Compressibility (1/GPa) = 0.03299626
#
# Stress axis : x y z
#
# Youngs Moduli (GPa) = 137.56872 31.19292 55.08714
#
# Poissons Ratio (x) = 0.13742 0.11136
# Poissons Ratio (y) = 0.60604 0.32035
# Poissons Ratio (z) = 0.27811 0.18139
#
# Static dielectric constant tensor:
#      x y z
#    x 1.841080 0.000000 0.000000 
#    y 0.000000 1.890250 0.000000 
#    z 0.000000 0.000000 1.848950 
# 
# From -- ./inp_files/27161.got.cif
#   From: 2010.05.17/outbox.cif.g08.bks.cpg/sg22_14_cif.got.tgz:27161.got - 2010.06.03 23:40:54.
