data_PCOD9328517
_publ_section_title
;
Structure prediction by ZEFSAII (Michael W. Deem and Ramdas Pophale) SiO2 
 PCOD9328517
Probable space group: F 2 2 2
;
_chemical_formula_sum "Si O2"
_cell_formula_units_Z 52
_cell_length_a 13.708662
_cell_length_b 29.045623
_cell_length_c 5.430494
_cell_angle_alpha 90.000000
_cell_angle_beta 90.000000
_cell_angle_gamma 90.000000
_cell_volume 2162.295791
_symmetry_space_group_name_H-M "F 2 2 2"
_symmetry_group_IT_number 22
_symmetry_cell_setting 'orthorhombic'
loop_
_space_group_symop_operation_xyz
x,y,z
-x,-y,z
x,-y,-z
-x,y,-z
x,1/2+y,1/2+z
-x,1/2-y,1/2+z
x,1/2-y,1/2-z
-x,1/2+y,1/2-z
1/2+x,y,1/2+z
1/2-x,-y,1/2+z
1/2+x,-y,1/2-z
1/2-x,y,1/2-z
1/2+x,1/2+y,z
1/2-x,1/2-y,z
1/2+x,1/2-y,-z
1/2-x,1/2+y,-z
loop_
_atom_site_type_symbol
_atom_site_label
_atom_site_fract_x
_atom_site_fract_y
_atom_site_fract_z
Si Si1 0.853245 0.843605 0.115231
Si Si2 0.450560 0.250000 0.250000
Si Si3 0.403502 0.432751 0.358561
Si Si4 0.750000 0.905817 0.750000
Si Si5 0.500000 0.000000 0.500000
O O1 0.750000 0.840339 0.250000
O O2 0.895292 0.792854 0.122350
O O3 0.914440 0.880428 0.268008
O O4 0.830147 0.870819 0.864279
O O5 0.500000 0.270432 0.500000
O O6 0.500000 0.446032 0.500000
O O7 0.306990 0.433450 0.532986
O O8 0.420171 0.466346 0.130088
#
# Coordination Sequence:
#
# PCOD9328517 Si02
#       5
#    16   8  16   8   4
#     4  10  24  46  74 107 155 201 253 326 386 471
#     4  12  29  44  73 122 152 204 266 319 394 485
#     4  11  24  46  80 110 152 212 254 330 401 479
#     4  10  24  46  83 108 154 212 266 318 403 478
#     4  12  26  44  84 114 160 204 268 336 418 478
#
# _framework density 24.048514000000001
#
# number of rings (size 3 to 8) (size 9 to 14) (size 15 to 20)
#    0.000    1.231    0.000    3.692   15.077    0.000 
#    0.000    0.000  152.308    0.000    0.000    0.000 
#    0.000    0.000    0.000    0.000    0.000    0.000 
#
# Total GULP energy -72462.242296 kJ/mol
# GULP energy per Si atom -5574.018638 kJ/mol
# Density = 2.399378 g / cm^3
# Si number density = 24.048514 Si / 1000 Ang^3
#
#
#
# Elastic Constant Matrix: (Units=GPa)
#
#
# Indices 1 2 3 4 5 6 
#
# 1 80.7003 51.6609 33.8302 -0.0014 -0.0008 0.0001
# 2 51.6609 150.7605 31.7960 -0.0001 -0.0001 0.0001
# 3 33.8302 31.7960 95.9307 0.0001 -0.0016 0.0002
# 4 -0.0014 -0.0001 0.0001 -25.4390 0.0019 -0.0010
# 5 -0.0008 -0.0001 -0.0016 0.0019 20.3687 0.0000
# 6 0.0001 0.0001 0.0002 -0.0010 0.0000 29.7947
#
#
#
# Elastic Compliance Matrix: (Units=1/GPa)
#
#
# Indices 1 2 3 4 5 6 
#
# 1 0.017512 -0.005052 -0.004501 -0.000001 0.000000 0.000000
# 2 -0.005052 0.008589 -0.001065 0.000000 0.000000 0.000000
# 3 -0.004501 -0.001065 0.012365 0.000000 0.000001 0.000000
# 4 -0.000001 0.000000 0.000000 -0.039310 0.000004 -0.000001
# 5 0.000000 0.000000 0.000001 0.000004 0.049095 0.000000
# 6 0.000000 0.000000 0.000000 -0.000001 0.000000 0.033563
#
#
# Mechanical properties :
#
#
# Convention : Reuss Voigt Hill
#
# Bulk Modulus (GPa) = 58.04086 62.44064 60.24075
# Shear Modulus (GPa) = 45.95855 18.95184 32.45520
#
# Velocity S-wave (km/s) = 4.37633 2.81030 3.67764
# Velocity P-wave (km/s) = 7.05150 6.04576 6.56791
#
# Compressibility (1/GPa) = 0.01722924
#
# Stress axis : x y z
#
# Youngs Moduli (GPa) = 57.10251 116.43176 80.87531
#
# Poissons Ratio (x) = 0.58816 0.36406
# Poissons Ratio (y) = 0.28846 0.08615
# Poissons Ratio (z) = 0.25704 0.12403
#
# Static dielectric constant tensor:
#      x y z
#    x 2.094670 0.000000 0.000000 
#    y 0.000000 1.889170 0.000000 
#    z 0.000000 0.000000 1.584510 
# 
# From -- ./inp_files/1963.got.cif
#   From: 2010.05.17/outbox.cif.g08.bks.cpg/sg22_1_cif.got.tgz:1963.got - 2010.06.03 23:40:54.
