data_PCOD9328583
_publ_section_title
;
Structure prediction by ZEFSAII (Michael W. Deem and Ramdas Pophale) SiO2 
 PCOD9328583
Probable space group: F 2 2 2
;
_chemical_formula_sum "Si O2"
_cell_formula_units_Z 80
_cell_length_a 10.598096
_cell_length_b 15.864784
_cell_length_c 21.134678
_cell_angle_alpha 90.000000
_cell_angle_beta 90.000000
_cell_angle_gamma 90.000000
_cell_volume 3553.510869
_symmetry_space_group_name_H-M "F 2 2 2"
_symmetry_group_IT_number 22
_symmetry_cell_setting 'orthorhombic'
loop_
_space_group_symop_operation_xyz
x,y,z
-x,-y,z
x,-y,-z
-x,y,-z
x,1/2+y,1/2+z
-x,1/2-y,1/2+z
x,1/2-y,1/2-z
-x,1/2+y,1/2-z
1/2+x,y,1/2+z
1/2-x,-y,1/2+z
1/2+x,-y,1/2-z
1/2-x,y,1/2-z
1/2+x,1/2+y,z
1/2-x,1/2-y,z
1/2+x,1/2-y,-z
1/2-x,1/2+y,-z
loop_
_atom_site_type_symbol
_atom_site_label
_atom_site_fract_x
_atom_site_fract_y
_atom_site_fract_z
Si Si1 0.546251 0.694895 0.314347
Si Si2 0.806933 0.098538 0.018171
Si Si3 0.768085 0.937422 0.180978
Si Si4 0.394045 0.433823 0.606903
Si Si5 0.548432 0.148635 0.599550
O O1 0.528429 0.750000 0.250000
O O2 0.680351 0.646582 0.315396
O O3 0.447986 0.621841 0.335253
O O4 0.536731 0.759820 0.371628
O O5 0.673100 0.117603 0.050851
O O6 0.920659 0.118369 0.066552
O O7 0.842260 0.145503 0.953493
O O8 0.810368 0.000000 0.000000
O O9 0.750000 0.975302 0.250000
O O10 0.904945 0.909997 0.157429
O O11 0.713904 0.004939 0.133014
O O12 0.500000 0.500000 0.584274
#
# Coordination Sequence:
#
# PCOD9328583 Si02
#       5
#    16  16  16  16  16
#     4  11  24  46  69 104 148 181 237 304 364 424
#     4  11  24  48  70 100 143 184 244 304 354 440
#     4  11  22  43  75 101 137 190 241 288 356 444
#     4  10  25  47  69 106 137 190 238 295 370 426
#     4  11  23  42  74 102 135 190 235 294 368 424
#
# _framework density 22.512945999999999
#
# number of rings (size 3 to 8) (size 9 to 14) (size 15 to 20)
#    0.000    1.200    4.000    1.800    0.000    2.800 
#   18.000    1.000    0.000    0.000    0.000    0.000 
#    0.000    0.000    0.000    0.000    0.000    0.000 
#
# Total GULP energy -111769.590946 kJ/mol
# GULP energy per Si atom -5588.479547 kJ/mol
# Density = 2.246171 g / cm^3
# Si number density = 22.512946 Si / 1000 Ang^3
#
#
#
# Elastic Constant Matrix: (Units=GPa)
#
#
# Indices 1 2 3 4 5 6 
#
# 1 53.1101 21.6700 37.0806 0.0000 0.0000 0.0000
# 2 21.6700 75.0433 29.1785 0.0000 0.0000 0.0000
# 3 37.0806 29.1785 116.0984 0.0000 0.0000 0.0000
# 4 0.0000 0.0000 0.0000 45.5934 0.0000 0.0000
# 5 0.0000 0.0000 0.0000 0.0000 39.6428 0.0000
# 6 0.0000 0.0000 0.0000 0.0000 0.0000 15.0566
#
#
#
# Elastic Compliance Matrix: (Units=1/GPa)
#
#
# Indices 1 2 3 4 5 6 
#
# 1 0.025632 -0.004675 -0.007011 0.000000 0.000000 0.000000
# 2 -0.004675 0.015622 -0.002433 0.000000 0.000000 0.000000
# 3 -0.007011 -0.002433 0.011464 0.000000 0.000000 0.000000
# 4 0.000000 0.000000 0.000000 0.021933 0.000000 0.000000
# 5 0.000000 0.000000 0.000000 0.000000 0.025225 0.000000
# 6 0.000000 0.000000 0.000000 0.000000 0.000000 0.066416
#
#
# Mechanical properties :
#
#
# Convention : Reuss Voigt Hill
#
# Bulk Modulus (GPa) = 40.85266 46.67891 43.76578
# Shear Modulus (GPa) = 24.66809 30.48007 27.57408
#
# Velocity S-wave (km/s) = 3.31377 3.68352 3.50353
# Velocity P-wave (km/s) = 5.72950 6.23461 5.98738
#
# Compressibility (1/GPa) = 0.02447821
#
# Stress axis : x y z
#
# Youngs Moduli (GPa) = 39.01411 64.01357 87.22800
#
# Poissons Ratio (x) = 0.29929 0.61160
# Poissons Ratio (y) = 0.18241 0.21221
# Poissons Ratio (z) = 0.27355 0.15574
#
# Static dielectric constant tensor:
#      x y z
#    x 1.838730 0.000000 0.000000 
#    y 0.000000 1.815870 0.000000 
#    z 0.000000 0.000000 1.946560 
# 
# From -- ./inp_files/23558.got.cif
#   From: 2010.05.17/outbox.cif.g08.bks.cpg/sg22_12_cif.got.tgz:23558.got - 2010.06.03 23:40:54.
