data_PCOD9328701
_publ_section_title
;
Structure prediction by ZEFSAII (Michael W. Deem and Ramdas Pophale) SiO2 
 PCOD9328701
Probable space group: F 2 2 2
;
_chemical_formula_sum "Si O2"
_cell_formula_units_Z 108
_cell_length_a 19.685461
_cell_length_b 15.066673
_cell_length_c 19.340106
_cell_angle_alpha 90.000000
_cell_angle_beta 90.000000
_cell_angle_gamma 90.000000
_cell_volume 5736.167207
_symmetry_space_group_name_H-M "F 2 2 2"
_symmetry_group_IT_number 22
_symmetry_cell_setting 'orthorhombic'
loop_
_space_group_symop_operation_xyz
x,y,z
-x,-y,z
x,-y,-z
-x,y,-z
x,1/2+y,1/2+z
-x,1/2-y,1/2+z
x,1/2-y,1/2-z
-x,1/2+y,1/2-z
1/2+x,y,1/2+z
1/2-x,-y,1/2+z
1/2+x,-y,1/2-z
1/2-x,y,1/2-z
1/2+x,1/2+y,z
1/2-x,1/2-y,z
1/2+x,1/2-y,-z
1/2-x,1/2+y,-z
loop_
_atom_site_type_symbol
_atom_site_label
_atom_site_fract_x
_atom_site_fract_y
_atom_site_fract_z
Si Si1 0.980685 0.303732 0.319472
Si Si2 0.719226 0.506597 0.141025
Si Si3 0.000000 0.500000 0.500000
Si Si4 0.853283 0.023229 0.711812
Si Si5 0.388767 0.621540 0.070359
Si Si6 0.198351 0.679806 0.555095
Si Si7 0.500000 0.000000 0.262219
Si Si8 0.380168 0.219481 0.171162
O O1 0.961577 0.250000 0.250000
O O2 0.919954 0.312463 0.373314
O O3 0.006290 0.404990 0.301978
O O4 0.044077 0.248729 0.349358
O O5 0.793363 0.476376 0.168183
O O6 0.678147 0.535800 0.210780
O O7 0.672366 0.433079 0.105334
O O8 0.725440 0.586898 0.085950
O O9 0.950483 0.557593 0.547982
O O10 0.929065 0.985456 0.721604
O O11 0.865521 0.116069 0.673573
O O12 0.360271 0.661534 0.999896
O O13 0.250000 0.750000 0.521965
O O14 0.170366 0.730734 0.621567
O O15 0.372055 0.250000 0.250000
#
# Coordination Sequence:
#
# PCOD9328701 Si02
#       8
#    16  16   4  16  16  16   8  16
#     4  11  23  39  65  96 136 172 215 280 329 398
#     4  11  22  40  62  94 129 167 217 272 331 388
#     4  12  22  36  76  96 132 170 216 294 330 396
#     4  11  22  36  66  96 126 167 215 278 331 384
#     4  12  25  42  61  99 132 178 221 262 341 403
#     4  12  23  39  61  88 130 171 211 272 330 388
#     4  12  19  40  66  99 127 171 224 278 339 376
#     4  11  20  36  61  96 128 156 210 277 332 380
#
# _framework density 18.827902999999999
#
# number of rings (size 3 to 8) (size 9 to 14) (size 15 to 20)
#    0.000    0.593    8.889    1.333    0.000    0.296 
#    2.667    0.000    0.000    0.000    0.000    1.037 
#    0.000    0.000    0.000    0.000    0.000    0.000 
#
# Total GULP energy -150620.610841 kJ/mol
# GULP energy per Si atom -5578.541142 kJ/mol
# Density = 1.878505 g / cm^3
# Si number density = 18.827903 Si / 1000 Ang^3
#
#
#
# Elastic Constant Matrix: (Units=GPa)
#
#
# Indices 1 2 3 4 5 6 
#
# 1 126.5802 15.0615 28.3088 0.0000 0.0000 0.0000
# 2 15.0615 32.2187 13.5635 0.0000 0.0000 0.0000
# 3 28.3088 13.5635 44.8699 0.0000 0.0000 0.0000
# 4 0.0000 0.0000 0.0000 2.7662 0.0000 0.0000
# 5 0.0000 0.0000 0.0000 0.0000 35.0219 0.0000
# 6 0.0000 0.0000 0.0000 0.0000 0.0000 29.9080
#
#
#
# Elastic Compliance Matrix: (Units=1/GPa)
#
#
# Indices 1 2 3 4 5 6 
#
# 1 0.009327 -0.002157 -0.005232 0.000000 0.000000 0.000000
# 2 -0.002157 0.036063 -0.009540 0.000000 0.000000 0.000000
# 3 -0.005232 -0.009540 0.028472 0.000000 0.000000 0.000000
# 4 0.000000 0.000000 0.000000 0.361510 0.000000 0.000000
# 5 0.000000 0.000000 0.000000 0.000000 0.028554 0.000000
# 6 0.000000 0.000000 0.000000 0.000000 0.000000 0.033436
#
#
# Mechanical properties :
#
#
# Convention : Reuss Voigt Hill
#
# Bulk Modulus (GPa) = 24.99901 35.28183 30.14042
# Shear Modulus (GPa) = 9.18182 23.32155 16.25169
#
# Velocity S-wave (km/s) = 2.21072 3.52329 2.94116
# Velocity P-wave (km/s) = 4.45229 5.94401 5.25139
#
# Compressibility (1/GPa) = 0.04000158
#
# Stress axis : x y z
#
# Youngs Moduli (GPa) = 107.21553 27.72948 35.12276
#
# Poissons Ratio (x) = 0.05983 0.18377
# Poissons Ratio (y) = 0.23131 0.33507
# Poissons Ratio (z) = 0.56098 0.26454
#
# Static dielectric constant tensor:
#      x y z
#    x 1.610940 0.000000 0.000000 
#    y 0.000000 1.678540 0.000000 
#    z 0.000000 0.000000 1.664060 
# 
# From -- ./inp_files/44884.got.cif
#   From: 2010.05.17/outbox.cif.g08.bks.cpg/sg22_23_cif.got.tgz:44884.got - 2010.06.03 23:40:54.
