data_PCOD9328409
_publ_section_title
;
Structure prediction by ZEFSAII (Michael W. Deem and Ramdas Pophale) SiO2 
 PCOD9328409
Probable space group: F 2 2 2
;
_chemical_formula_sum "Si O2"
_cell_formula_units_Z 28
_cell_length_a 13.701653
_cell_length_b 14.421447
_cell_length_c 5.163326
_cell_angle_alpha 90.000000
_cell_angle_beta 90.000000
_cell_angle_gamma 90.000000
_cell_volume 1020.261149
_symmetry_space_group_name_H-M "F 2 2 2"
_symmetry_group_IT_number 22
_symmetry_cell_setting 'orthorhombic'
loop_
_space_group_symop_operation_xyz
x,y,z
-x,-y,z
x,-y,-z
-x,y,-z
x,1/2+y,1/2+z
-x,1/2-y,1/2+z
x,1/2-y,1/2-z
-x,1/2+y,1/2-z
1/2+x,y,1/2+z
1/2-x,-y,1/2+z
1/2+x,-y,1/2-z
1/2-x,y,1/2-z
1/2+x,1/2+y,z
1/2-x,1/2-y,z
1/2+x,1/2-y,-z
1/2-x,1/2+y,-z
loop_
_atom_site_type_symbol
_atom_site_label
_atom_site_fract_x
_atom_site_fract_y
_atom_site_fract_z
Si Si1 0.250000 0.250000 0.250000
Si Si2 0.573261 0.149543 0.806228
Si Si3 0.180506 0.500000 0.500000
O O1 0.322160 0.185869 0.084846
O O2 0.525781 0.250000 0.750000
O O3 0.609444 0.086181 0.570729
O O4 0.500000 0.101064 0.000000
O O5 0.250000 0.513466 0.250000
#
# Coordination Sequence:
#
# PCOD9328409 Si02
#       3
#     4  16   8
#     4   8  20  52  82 122 178 226 282 356 438 498
#     4  10  23  51  89 126 173 229 286 357 433 512
#     4  12  26  54  90 126 174 230 290 355 431 518
#
# _framework density 27.443956
#
# number of rings (size 3 to 8) (size 9 to 14) (size 15 to 20)
#    1.714    0.000    2.857    0.000    0.000    4.571 
#    0.000   22.857    0.000    0.000    0.000    0.000 
#    0.000    0.000    0.000    0.000    0.000    0.000 
#
# Total GULP energy -39047.168830 kJ/mol
# GULP energy per Si atom -5578.166976 kJ/mol
# Density = 2.738149 g / cm^3
# Si number density = 27.443956 Si / 1000 Ang^3
#
#
#
# Elastic Constant Matrix: (Units=GPa)
#
#
# Indices 1 2 3 4 5 6 
#
# 1 167.1305 33.0051 90.8907 0.0004 -0.0002 0.0000
# 2 33.0051 213.6456 76.8278 0.0008 -0.0004 0.0001
# 3 90.8907 76.8278 182.7420 0.0051 -0.0033 0.0000
# 4 0.0004 0.0008 0.0051 27.1494 -0.0011 0.0001
# 5 -0.0002 -0.0004 -0.0033 -0.0011 71.9471 -0.0002
# 6 0.0000 0.0001 0.0000 0.0001 -0.0002 -16.5814
#
#
#
# Elastic Compliance Matrix: (Units=1/GPa)
#
#
# Indices 1 2 3 4 5 6 
#
# 1 0.008212 0.000236 -0.004183 0.000001 0.000000 0.000000
# 2 0.000236 0.005521 -0.002438 0.000000 0.000000 0.000000
# 3 -0.004183 -0.002438 0.008578 -0.000001 0.000000 0.000000
# 4 0.000001 0.000000 -0.000001 0.036833 0.000001 0.000000
# 5 0.000000 0.000000 0.000000 0.000001 0.013899 0.000000
# 6 0.000000 0.000000 0.000000 0.000000 0.000000 -0.060309
#
#
# Mechanical properties :
#
#
# Convention : Reuss Voigt Hill
#
# Bulk Modulus (GPa) = 104.83485 107.21835 106.02660
# Shear Modulus (GPa) = 174.29736 40.68934 107.49335
#
# Velocity S-wave (km/s) = 7.97798 3.85468 6.26525
# Velocity P-wave (km/s) = 11.09715 7.67882 9.54230
#
# Compressibility (1/GPa) = 0.00953881
#
# Stress axis : x y z
#
# Youngs Moduli (GPa) = 121.77459 181.12349 116.57589
#
# Poissons Ratio (x) = -0.04271 0.48769
# Poissons Ratio (y) = -0.02871 0.28426
# Poissons Ratio (z) = 0.50944 0.44166
#
# Static dielectric constant tensor:
#      x y z
#    x 2.164270 0.000000 0.000000 
#    y 0.000000 2.204710 0.000000 
#    z 0.000000 0.000000 2.333790 
# 
# From -- ./inp_files/1115.got.cif
#   From: 2010.05.17/outbox.cif.g08.bks.cpg/sg22_1_cif.got.tgz:1115.got - 2010.06.03 23:40:54.
