data_PCOD9328783
_publ_section_title
;
Structure prediction by ZEFSAII (Michael W. Deem and Ramdas Pophale) SiO2 
 PCOD9328783
Probable space group: F 2 2 2
;
_chemical_formula_sum "Si O2"
_cell_formula_units_Z 80
_cell_length_a 11.156771
_cell_length_b 16.249202
_cell_length_c 21.034045
_cell_angle_alpha 90.000000
_cell_angle_beta 90.000000
_cell_angle_gamma 90.000000
_cell_volume 3813.233110
_symmetry_space_group_name_H-M "F 2 2 2"
_symmetry_group_IT_number 22
_symmetry_cell_setting 'orthorhombic'
loop_
_space_group_symop_operation_xyz
x,y,z
-x,-y,z
x,-y,-z
-x,y,-z
x,1/2+y,1/2+z
-x,1/2-y,1/2+z
x,1/2-y,1/2-z
-x,1/2+y,1/2-z
1/2+x,y,1/2+z
1/2-x,-y,1/2+z
1/2+x,-y,1/2-z
1/2-x,y,1/2-z
1/2+x,1/2+y,z
1/2-x,1/2-y,z
1/2+x,1/2-y,-z
1/2-x,1/2+y,-z
loop_
_atom_site_type_symbol
_atom_site_label
_atom_site_fract_x
_atom_site_fract_y
_atom_site_fract_z
Si Si1 0.234498 0.625969 0.862272
Si Si2 0.937022 0.768801 0.179532
Si Si3 0.147859 0.191061 0.627276
Si Si4 0.368660 0.528593 0.293229
Si Si5 0.354172 0.401716 0.499401
O O1 0.157504 0.695346 0.827554
O O2 0.367447 0.646107 0.835506
O O3 0.175225 0.539940 0.843374
O O4 0.211489 0.634189 0.937260
O O5 0.988052 0.750000 0.250000
O O6 0.033635 0.750587 0.125357
O O7 0.250000 0.250000 0.653640
O O8 0.114180 0.115168 0.672237
O O9 0.185310 0.148938 0.561331
O O10 0.500000 0.500000 0.267535
O O11 0.250000 0.535897 0.250000
O O12 0.329009 0.500000 0.500000
O O13 0.500000 0.393951 0.500000
#
# Coordination Sequence:
#
# PCOD9328783 Si02
#       5
#    16  16  16  16  16
#     4  11  22  42  71  98 125 181 233 282 336 411
#     4  11  24  42  67 102 139 173 230 286 344 414
#     4  12  28  42  67 104 142 183 222 292 362 402
#     4  12  25  45  70 101 137 185 239 286 350 420
#     4  11  21  42  69  96 133 170 234 287 334 415
#
# _framework density 20.979572999999998
#
# number of rings (size 3 to 8) (size 9 to 14) (size 15 to 20)
#    0.000    0.600    6.000    2.400    5.600    0.000 
#    0.000    0.000    0.000    1.200    0.000    0.000 
#    0.000    0.000    0.000    0.000    0.000    0.000 
#
# Total GULP energy -111520.272401 kJ/mol
# GULP energy per Si atom -5576.013620 kJ/mol
# Density = 2.093182 g / cm^3
# Si number density = 20.979573 Si / 1000 Ang^3
#
#
#
# Elastic Constant Matrix: (Units=GPa)
#
#
# Indices 1 2 3 4 5 6 
#
# 1 74.2668 34.3661 8.7958 0.0000 0.0000 0.0000
# 2 34.3661 86.5538 5.4688 0.0000 0.0000 0.0000
# 3 8.7958 5.4688 90.2093 0.0000 0.0000 0.0000
# 4 0.0000 0.0000 0.0000 -9.7887 0.0000 0.0000
# 5 0.0000 0.0000 0.0000 0.0000 18.2338 0.0000
# 6 0.0000 0.0000 0.0000 0.0000 0.0000 34.8113
#
#
#
# Elastic Compliance Matrix: (Units=1/GPa)
#
#
# Indices 1 2 3 4 5 6 
#
# 1 0.016630 -0.006525 -0.001226 0.000000 0.000000 0.000000
# 2 -0.006525 0.014158 -0.000222 0.000000 0.000000 0.000000
# 3 -0.001226 -0.000222 0.011218 0.000000 0.000000 0.000000
# 4 0.000000 0.000000 0.000000 -0.102158 0.000000 0.000000
# 5 0.000000 0.000000 0.000000 0.000000 0.054843 0.000000
# 6 0.000000 0.000000 0.000000 0.000000 0.000000 0.028726
#
#
# Mechanical properties :
#
#
# Convention : Reuss Voigt Hill
#
# Bulk Modulus (GPa) = 38.37323 38.69901 38.53612
# Shear Modulus (GPa) = 104.05635 22.14455 63.10045
#
# Velocity S-wave (km/s) = 7.05029 3.25242 5.49021
# Velocity P-wave (km/s) = 9.19815 5.70880 7.65494
#
# Compressibility (1/GPa) = 0.02605984
#
# Stress axis : x y z
#
# Youngs Moduli (GPa) = 60.13344 70.62938 89.13984
#
# Poissons Ratio (x) = 0.46088 0.10927
# Poissons Ratio (y) = 0.39239 0.01980
# Poissons Ratio (z) = 0.07372 0.01569
#
# Static dielectric constant tensor:
#      x y z
#    x 1.887510 0.000000 0.000000 
#    y 0.000000 1.745000 0.000000 
#    z 0.000000 0.000000 1.814610 
# 
# From -- ./inp_files/47940.got.cif
#   From: 2010.05.17/outbox.cif.g08.bks.cpg/sg22_24_cif.got.tgz:47940.got - 2010.06.03 23:40:54.
