data_PCOD9328702
_publ_section_title
;
Structure prediction by ZEFSAII (Michael W. Deem and Ramdas Pophale) SiO2 
 PCOD9328702
Probable space group: F 2 2 2
;
_chemical_formula_sum "Si O2"
_cell_formula_units_Z 64
_cell_length_a 14.735843
_cell_length_b 22.185585
_cell_length_c 9.407146
_cell_angle_alpha 90.000000
_cell_angle_beta 90.000000
_cell_angle_gamma 90.000000
_cell_volume 3075.415190
_symmetry_space_group_name_H-M "F 2 2 2"
_symmetry_group_IT_number 22
_symmetry_cell_setting 'orthorhombic'
loop_
_space_group_symop_operation_xyz
x,y,z
-x,-y,z
x,-y,-z
-x,y,-z
x,1/2+y,1/2+z
-x,1/2-y,1/2+z
x,1/2-y,1/2-z
-x,1/2+y,1/2-z
1/2+x,y,1/2+z
1/2-x,-y,1/2+z
1/2+x,-y,1/2-z
1/2-x,y,1/2-z
1/2+x,1/2+y,z
1/2-x,1/2-y,z
1/2+x,1/2-y,-z
1/2-x,1/2+y,-z
loop_
_atom_site_type_symbol
_atom_site_label
_atom_site_fract_x
_atom_site_fract_y
_atom_site_fract_z
Si Si1 0.102098 0.925620 0.844794
Si Si2 0.113288 0.445265 0.676046
Si Si3 0.250000 0.750000 0.488287
Si Si4 0.428972 0.208891 0.370517
Si Si5 0.250000 0.149852 0.750000
O O1 0.110935 0.854871 0.813141
O O2 0.994496 0.935936 0.823003
O O3 0.140030 0.987157 0.775088
O O4 0.132929 0.933976 0.008666
O O5 0.164114 0.393899 0.760849
O O6 0.342531 0.753102 0.576416
O O7 0.254515 0.807848 0.386426
O O8 0.500000 0.196870 0.500000
O O9 0.475612 0.250000 0.250000
#
# Coordination Sequence:
#
# PCOD9328702 Si02
#       5
#    16  16   8  16   8
#     4   9  17  36  59  87 118 157 209 251 313 365
#     4   9  17  33  61  90 114 157 210 260 295 377
#     4  11  25  40  58  92 136 164 206 270 308 380
#     4  12  25  42  66  93 127 171 212 259 323 378
#     4  11  20  36  64  94 125 160 220 252 313 366
#
# _framework density 20.810199000000001
#
# number of rings (size 3 to 8) (size 9 to 14) (size 15 to 20)
#    0.000    1.750    5.000    1.875    7.000    0.000 
#    4.500    0.000    0.000    0.000    0.000    0.000 
#    0.000    0.000    0.000    0.000    0.000    0.000 
#
# Total GULP energy -89112.145220 kJ/mol
# GULP energy per Si atom -5569.509076 kJ/mol
# Density = 2.076283 g / cm^3
# Si number density = 20.810199 Si / 1000 Ang^3
#
#
#
# Elastic Constant Matrix: (Units=GPa)
#
#
# Indices 1 2 3 4 5 6 
#
# 1 46.0097 7.8308 4.2911 0.0000 0.0000 0.0000
# 2 7.8308 172.8642 32.8496 0.0000 0.0000 0.0000
# 3 4.2911 32.8496 31.9955 0.0000 0.0000 0.0000
# 4 0.0000 0.0000 0.0000 0.5742 0.0000 0.0000
# 5 0.0000 0.0000 0.0000 0.0000 22.5791 0.0000
# 6 0.0000 0.0000 0.0000 0.0000 0.0000 30.1391
#
#
#
# Elastic Compliance Matrix: (Units=1/GPa)
#
#
# Indices 1 2 3 4 5 6 
#
# 1 0.022051 -0.000543 -0.002400 0.000000 0.000000 0.000000
# 2 -0.000543 0.007200 -0.007320 0.000000 0.000000 0.000000
# 3 -0.002400 -0.007320 0.039092 0.000000 0.000000 0.000000
# 4 0.000000 0.000000 0.000000 1.741474 0.000000 0.000000
# 5 0.000000 0.000000 0.000000 0.000000 0.044289 0.000000
# 6 0.000000 0.000000 0.000000 0.000000 0.000000 0.033179
#
#
# Mechanical properties :
#
#
# Convention : Reuss Voigt Hill
#
# Bulk Modulus (GPa) = 20.91292 37.86806 29.39049
# Shear Modulus (GPa) = 2.59909 24.38501 13.49205
#
# Velocity S-wave (km/s) = 1.11878 3.42684 2.54901
# Velocity P-wave (km/s) = 3.42638 5.82186 4.77672
#
# Compressibility (1/GPa) = 0.04781732
#
# Stress axis : x y z
#
# Youngs Moduli (GPa) = 45.34993 138.87947 25.58094
#
# Poissons Ratio (x) = 0.07539 0.06139
# Poissons Ratio (y) = 0.02462 0.18725
# Poissons Ratio (z) = 0.10884 1.01658
#
# Static dielectric constant tensor:
#      x y z
#    x 1.777740 0.000000 0.000000 
#    y 0.000000 1.806490 0.000000 
#    z 0.000000 0.000000 1.769710 
# 
# From -- ./inp_files/9852.got.cif
#   From: 2010.05.17/outbox.cif.g08.bks.cpg/sg22_5_cif.got.tgz:9852.got - 2010.06.03 23:40:54.
