data_PCOD9328773
_publ_section_title
;
Structure prediction by ZEFSAII (Michael W. Deem and Ramdas Pophale) SiO2 
 PCOD9328773
Probable space group: F 2 2 2
;
_chemical_formula_sum "Si O2"
_cell_formula_units_Z 104
_cell_length_a 26.929604
_cell_length_b 8.071465
_cell_length_c 22.817812
_cell_angle_alpha 90.000000
_cell_angle_beta 90.000000
_cell_angle_gamma 90.000000
_cell_volume 4959.710561
_symmetry_space_group_name_H-M "F 2 2 2"
_symmetry_group_IT_number 22
_symmetry_cell_setting 'orthorhombic'
loop_
_space_group_symop_operation_xyz
x,y,z
-x,-y,z
x,-y,-z
-x,y,-z
x,1/2+y,1/2+z
-x,1/2-y,1/2+z
x,1/2-y,1/2-z
-x,1/2+y,1/2-z
1/2+x,y,1/2+z
1/2-x,-y,1/2+z
1/2+x,-y,1/2-z
1/2-x,y,1/2-z
1/2+x,1/2+y,z
1/2-x,1/2-y,z
1/2+x,1/2-y,-z
1/2-x,1/2+y,-z
loop_
_atom_site_type_symbol
_atom_site_label
_atom_site_fract_x
_atom_site_fract_y
_atom_site_fract_z
Si Si1 0.092403 0.500000 0.000000
Si Si2 0.895647 0.921796 0.275355
Si Si3 0.344492 0.029772 0.882279
Si Si4 0.531433 0.351727 0.125892
Si Si5 0.360978 0.104528 0.666801
Si Si6 0.000000 0.742665 0.000000
Si Si7 0.745602 0.547766 0.818928
Si Si8 0.000000 0.500000 0.814086
O O1 0.130012 0.466580 0.945846
O O2 0.051252 0.641640 0.985526
O O3 0.878313 0.750000 0.250000
O O4 0.879663 0.919062 0.342371
O O5 0.873180 0.065650 0.234695
O O6 0.954213 0.939566 0.276056
O O7 0.349729 0.209602 0.852842
O O8 0.287968 0.984130 0.863812
O O9 0.500000 0.500000 0.153535
O O10 0.587445 0.419008 0.133108
O O11 0.515768 0.334290 0.058648
O O12 0.520911 0.165213 0.151611
O O13 0.309428 0.008153 0.657031
O O14 0.750000 0.493959 0.750000
O O15 0.750000 0.750000 0.816887
#
# Coordination Sequence:
#
# PCOD9328773 Si02
#       8
#     8  16  16  16  16   8  16   8
#     4  11  22  40  74 100 136 186 233 284 348 424
#     4  12  25  38  63  98 141 179 223 289 358 422
#     4  11  21  41  69 101 130 180 236 283 346 423
#     4  12  25  42  68  98 137 187 235 290 350 426
#     4  11  22  41  65  94 132 175 233 286 345 426
#     4  11  21  42  64  97 133 184 235 277 346 425
#     4   9  18  35  67  99 129 169 228 285 349 418
#     4  12  26  41  58 100 142 181 224 282 360 422
#
# _framework density 20.968966000000002
#
# number of rings (size 3 to 8) (size 9 to 14) (size 15 to 20)
#    0.000    0.923    4.615    3.462    3.231    0.000 
#    0.000    1.538    3.385    3.692    0.000    0.000 
#    0.000    0.000    0.000    0.000    0.000    0.000 
#
# Total GULP energy -144755.004442 kJ/mol
# GULP energy per Si atom -5567.500171 kJ/mol
# Density = 2.092124 g / cm^3
# Si number density = 20.968966 Si / 1000 Ang^3
#
#
#
# Elastic Constant Matrix: (Units=GPa)
#
#
# Indices 1 2 3 4 5 6 
#
# 1 198.3368 16.7071 64.1010 0.0000 0.0000 0.0000
# 2 16.7071 63.0946 26.3346 0.0000 0.0000 -0.0001
# 3 64.1010 26.3346 139.0437 0.0000 0.0000 0.0000
# 4 0.0000 0.0000 0.0000 11.1226 0.0000 0.0000
# 5 0.0000 0.0000 0.0000 0.0000 19.4475 0.0000
# 6 0.0000 -0.0001 0.0000 0.0000 0.0000 10.1575
#
#
#
# Elastic Compliance Matrix: (Units=1/GPa)
#
#
# Indices 1 2 3 4 5 6 
#
# 1 0.005937 -0.000467 -0.002649 0.000000 0.000000 0.000000
# 2 -0.000467 0.017246 -0.003051 0.000000 0.000000 0.000000
# 3 -0.002649 -0.003051 0.008991 0.000000 0.000000 0.000000
# 4 0.000000 0.000000 0.000000 0.089907 0.000000 0.000000
# 5 0.000000 0.000000 0.000000 0.000000 0.051421 0.000000
# 6 0.000000 0.000000 0.000000 0.000000 0.000000 0.098450
#
#
# Mechanical properties :
#
#
# Convention : Reuss Voigt Hill
#
# Bulk Modulus (GPa) = 50.40007 68.30671 59.35339
# Shear Modulus (GPa) = 17.18807 27.70100 22.44453
#
# Velocity S-wave (km/s) = 2.86613 3.63856 3.27520
# Velocity P-wave (km/s) = 5.91952 7.09211 6.53218
#
# Compressibility (1/GPa) = 0.01984124
#
# Stress axis : x y z
#
# Youngs Moduli (GPa) = 168.42656 57.98332 111.22195
#
# Poissons Ratio (x) = 0.02705 0.29461
# Poissons Ratio (y) = 0.07859 0.33937
# Poissons Ratio (z) = 0.44613 0.17693
#
# Static dielectric constant tensor:
#      x y z
#    x 1.839550 0.000000 0.000000 
#    y 0.000000 1.853790 0.000000 
#    z 0.000000 0.000000 1.749740 
# 
# From -- ./inp_files/45814.got.cif
#   From: 2010.05.17/outbox.cif.g08.bks.cpg/sg22_23_cif.got.tgz:45814.got - 2010.06.03 23:40:54.
