data_PCOD9328249
_publ_section_title
;
Structure prediction by ZEFSAII (Michael W. Deem and Ramdas Pophale) SiO2 
 PCOD9328249
Probable space group: F 2 2 2
;
_chemical_formula_sum "Si O2"
_cell_formula_units_Z 104
_cell_length_a 20.052893
_cell_length_b 14.284718
_cell_length_c 17.146429
_cell_angle_alpha 90.000000
_cell_angle_beta 90.000000
_cell_angle_gamma 90.000000
_cell_volume 4911.593243
_symmetry_space_group_name_H-M "F 2 2 2"
_symmetry_group_IT_number 22
_symmetry_cell_setting 'orthorhombic'
loop_
_space_group_symop_operation_xyz
x,y,z
-x,-y,z
x,-y,-z
-x,y,-z
x,1/2+y,1/2+z
-x,1/2-y,1/2+z
x,1/2-y,1/2-z
-x,1/2+y,1/2-z
1/2+x,y,1/2+z
1/2-x,-y,1/2+z
1/2+x,-y,1/2-z
1/2-x,y,1/2-z
1/2+x,1/2+y,z
1/2-x,1/2-y,z
1/2+x,1/2-y,-z
1/2-x,1/2+y,-z
loop_
_atom_site_type_symbol
_atom_site_label
_atom_site_fract_x
_atom_site_fract_y
_atom_site_fract_z
Si Si1 0.602574 0.529513 0.709988
Si Si2 0.520740 0.659504 0.305444
Si Si3 0.618674 0.151914 0.510991
Si Si4 0.067191 0.840859 0.524005
Si Si5 0.418486 0.496122 0.878198
Si Si6 0.687806 0.064243 0.062734
Si Si7 0.750000 0.250000 0.036700
O O1 0.562438 0.431946 0.719756
O O2 0.553176 0.614431 0.684499
O O3 0.618435 0.542437 0.800896
O O4 0.657745 0.521494 0.642114
O O5 0.519327 0.750000 0.250000
O O6 0.557988 0.681875 0.385744
O O7 0.572398 0.238999 0.486238
O O8 0.604585 0.075590 0.445010
O O9 0.690572 0.202600 0.512681
O O10 0.603150 0.098636 0.591453
O O11 0.128394 0.901201 0.494803
O O12 0.000000 0.891796 0.500000
O O13 0.500000 0.500000 0.871440
O O14 0.723616 0.161194 0.084530
O O15 0.728252 0.000000 0.000000
#
# Coordination Sequence:
#
# PCOD9328249 Si02
#       7
#    16  16  16  16  16  16   8
#     4  11  23  39  60 101 135 173 204 260 346 401
#     4  11  22  34  57  91 141 171 196 255 321 411
#     4  10  23  40  64  91 121 182 220 275 318 383
#     4  11  20  33  59  95 127 160 214 254 328 409
#     4  11  21  39  66 100 139 163 213 269 347 409
#     4  11  23  42  68  91 128 177 222 279 332 393
#     4  10  26  46  67  93 122 172 248 278 316 385
#
# _framework density 21.174391
#
# number of rings (size 3 to 8) (size 9 to 14) (size 15 to 20)
#    0.000    1.231    4.615    2.769    4.308    0.308 
#    0.000    1.538    0.000    0.923    0.000    0.000 
#    0.000    0.000    0.000    0.000    0.000    0.000 
#
# Total GULP energy -144780.589619 kJ/mol
# GULP energy per Si atom -5568.484216 kJ/mol
# Density = 2.112620 g / cm^3
# Si number density = 21.174391 Si / 1000 Ang^3
#
#
#
# Elastic Constant Matrix: (Units=GPa)
#
#
# Indices 1 2 3 4 5 6 
#
# 1 56.5083 16.5302 8.2635 0.0000 0.0000 0.0000
# 2 16.5302 127.1460 23.7087 0.0000 0.0000 0.0000
# 3 8.2635 23.7087 111.9962 0.0000 0.0000 0.0000
# 4 0.0000 0.0000 0.0000 23.9721 0.0000 0.0000
# 5 0.0000 0.0000 0.0000 0.0000 -3.9026 0.0000
# 6 0.0000 0.0000 0.0000 0.0000 0.0000 30.3250
#
#
#
# Elastic Compliance Matrix: (Units=1/GPa)
#
#
# Indices 1 2 3 4 5 6 
#
# 1 0.018481 -0.002237 -0.000890 0.000000 0.000000 0.000000
# 2 -0.002237 0.008459 -0.001626 0.000000 0.000000 0.000000
# 3 -0.000890 -0.001626 0.009339 0.000000 0.000000 0.000000
# 4 0.000000 0.000000 0.000000 0.041715 0.000000 0.000000
# 5 0.000000 0.000000 0.000000 0.000000 -0.256236 0.000000
# 6 0.000000 0.000000 0.000000 0.000000 0.000000 0.032976
#
#
# Mechanical properties :
#
#
# Convention : Reuss Voigt Hill
#
# Bulk Modulus (GPa) = 37.35020 43.62837 40.48929
# Shear Modulus (GPa) = -39.42072 26.55541 -6.43266
#
# Velocity S-wave (km/s) = -4.31944 3.54521 -1.74486
# Velocity P-wave (km/s) = 2.68313 6.11613 3.88638
#
# Compressibility (1/GPa) = 0.02677362
#
# Stress axis : x y z
#
# Youngs Moduli (GPa) = 54.10961 118.21866 107.08141
#
# Poissons Ratio (x) = 0.26442 0.09531
# Poissons Ratio (y) = 0.12103 0.17408
# Poissons Ratio (z) = 0.04816 0.19218
#
# Static dielectric constant tensor:
#      x y z
#    x 1.865520 0.000000 0.000000 
#    y 0.000000 1.834040 0.000000 
#    z 0.000000 0.000000 1.847640 
# 
# From -- ./inp_files/38950.got.cif
#   From: 2010.05.17/outbox.cif.g08.bks.cpg/sg22_20_cif.got.tgz:38950.got - 2010.06.03 23:40:54.
