data_PCOD9328952
_publ_section_title
;
Structure prediction by ZEFSAII (Michael W. Deem and Ramdas Pophale) SiO2 
 PCOD9328952
Probable space group: F 2 2 2
;
_chemical_formula_sum "Si O2"
_cell_formula_units_Z 68
_cell_length_a 21.419898
_cell_length_b 25.477298
_cell_length_c 5.078861
_cell_angle_alpha 90.000000
_cell_angle_beta 90.000000
_cell_angle_gamma 90.000000
_cell_volume 2771.641736
_symmetry_space_group_name_H-M "F 2 2 2"
_symmetry_group_IT_number 22
_symmetry_cell_setting 'orthorhombic'
loop_
_space_group_symop_operation_xyz
x,y,z
-x,-y,z
x,-y,-z
-x,y,-z
x,1/2+y,1/2+z
-x,1/2-y,1/2+z
x,1/2-y,1/2-z
-x,1/2+y,1/2-z
1/2+x,y,1/2+z
1/2-x,-y,1/2+z
1/2+x,-y,1/2-z
1/2-x,y,1/2-z
1/2+x,1/2+y,z
1/2-x,1/2-y,z
1/2+x,1/2-y,-z
1/2-x,1/2+y,-z
loop_
_atom_site_type_symbol
_atom_site_label
_atom_site_fract_x
_atom_site_fract_y
_atom_site_fract_z
Si Si1 0.181214 0.056708 0.634081
Si Si2 0.820856 0.335395 0.839373
Si Si3 0.604259 0.195396 0.321421
Si Si4 0.060354 0.083574 0.824084
Si Si5 0.500000 0.500000 0.500000
O O1 0.250000 0.063950 0.750000
O O2 0.170449 0.103765 0.424609
O O3 0.132253 0.067987 0.874091
O O4 0.178443 0.000000 0.500000
O O5 0.750000 0.326860 0.750000
O O6 0.867473 0.315026 0.611037
O O7 0.839378 0.306556 0.109900
O O8 0.571683 0.250000 0.250000
O O9 0.560455 0.145110 0.268629
O O10 0.049464 0.043619 0.590387
O O11 0.000000 0.070256 0.000000
#
# Coordination Sequence:
#
# PCOD9328952 Si02
#       5
#    16  16  16  16   4
#     4  11  24  44  75 117 164 212 272 338 416 490
#     4  11  23  43  72 111 157 205 265 323 400 480
#     4  11  26  47  73 109 151 206 267 333 396 474
#     4  11  27  47  76 108 155 205 264 328 398 486
#     4  12  26  48  76 110 144 200 256 318 390 484
#
# _framework density 24.534192999999998
#
# number of rings (size 3 to 8) (size 9 to 14) (size 15 to 20)
#    0.000    0.941    1.176    5.294    6.588    6.588 
#    2.118    0.000    0.000    0.000    0.000    0.000 
#    0.000    0.000    0.000    0.000    0.000    0.000 
#
# Total GULP energy -94827.331911 kJ/mol
# GULP energy per Si atom -5578.078348 kJ/mol
# Density = 2.447835 g / cm^3
# Si number density = 24.534193 Si / 1000 Ang^3
#
#
#
# Elastic Constant Matrix: (Units=GPa)
#
#
# Indices 1 2 3 4 5 6 
#
# 1 100.0692 -16.4568 -0.7613 -0.1980 0.6386 0.2415
# 2 -16.4568 139.1633 -2.8278 -0.2391 0.3751 0.2701
# 3 -0.7613 -2.8278 76.9573 -0.2260 0.5327 0.2157
# 4 -0.1980 -0.2391 -0.2260 31.7040 0.3062 0.1945
# 5 0.6386 0.3751 0.5327 0.3062 -38.1143 -0.3942
# 6 0.2415 0.2701 0.2157 0.1945 -0.3942 24.4216
#
#
#
# Elastic Compliance Matrix: (Units=1/GPa)
#
#
# Indices 1 2 3 4 5 6 
#
# 1 0.010192 0.001208 0.000144 0.000073 0.000186 -0.000113
# 2 0.001208 0.007334 0.000281 0.000064 0.000098 -0.000094
# 3 0.000144 0.000281 0.013005 0.000095 0.000189 -0.000117
# 4 0.000073 0.000064 0.000095 0.031542 0.000259 -0.000249
# 5 0.000186 0.000098 0.000189 0.000259 -0.026224 -0.000430
# 6 -0.000113 -0.000094 -0.000117 -0.000249 -0.000430 0.040946
#
#
# Mechanical properties :
#
#
# Convention : Reuss Voigt Hill
#
# Bulk Modulus (GPa) = 29.58648 30.67756 30.13202
# Shear Modulus (GPa) = 58.96562 26.01796 42.49179
#
# Velocity S-wave (km/s) = 4.90777 3.26003 4.16618
# Velocity P-wave (km/s) = 6.64834 5.16735 5.95407
#
# Compressibility (1/GPa) = 0.03379922
#
# Stress axis : x y z
#
# Youngs Moduli (GPa) = 98.11543 136.34371 76.89184
#
# Poissons Ratio (x) = -0.16471 -0.01111
# Poissons Ratio (y) = -0.11853 -0.02162
# Poissons Ratio (z) = -0.01417 -0.03834
#
# Static dielectric constant tensor:
#      x y z
#    x 2.068310 0.000240 0.000290 
#    y 0.000240 2.050230 -0.000060 
#    z 0.000290 -0.000060 2.064040 
# 
# From -- ./inp_files/3784.got.cif
#   From: 2010.05.17/outbox.cif.g08.bks.cpg/sg22_2_cif.got.tgz:3784.got - 2010.06.03 23:40:54.
