data_PCOD9328150
_publ_section_title
;
Structure prediction by ZEFSAII (Michael W. Deem and Ramdas Pophale) SiO2 
 PCOD9328150
Probable space group: F 2 2 2
;
_chemical_formula_sum "Si O2"
_cell_formula_units_Z 52
_cell_length_a 13.989163
_cell_length_b 29.847902
_cell_length_c 5.535641
_cell_angle_alpha 90.000000
_cell_angle_beta 90.000000
_cell_angle_gamma 90.000000
_cell_volume 2311.391213
_symmetry_space_group_name_H-M "F 2 2 2"
_symmetry_group_IT_number 22
_symmetry_cell_setting 'orthorhombic'
loop_
_space_group_symop_operation_xyz
x,y,z
-x,-y,z
x,-y,-z
-x,y,-z
x,1/2+y,1/2+z
-x,1/2-y,1/2+z
x,1/2-y,1/2-z
-x,1/2+y,1/2-z
1/2+x,y,1/2+z
1/2-x,-y,1/2+z
1/2+x,-y,1/2-z
1/2-x,y,1/2-z
1/2+x,1/2+y,z
1/2-x,1/2-y,z
1/2+x,1/2-y,-z
1/2-x,1/2+y,-z
loop_
_atom_site_type_symbol
_atom_site_label
_atom_site_fract_x
_atom_site_fract_y
_atom_site_fract_z
Si Si1 0.000000 0.831138 0.500000
Si Si2 0.250000 0.027816 0.250000
Si Si3 0.595841 0.398749 0.860296
Si Si4 0.347652 0.812843 0.383441
Si Si5 0.750000 0.750000 0.250000
O O1 0.930728 0.865083 0.356644
O O2 0.938095 0.805565 0.705085
O O3 0.341224 0.060262 0.276090
O O4 0.243059 0.000000 0.500000
O O5 0.500000 0.413409 0.000000
O O6 0.648434 0.364844 0.042408
O O7 0.250000 0.804124 0.250000
O O8 0.326719 0.781766 0.612305
#
# Coordination Sequence:
#
# PCOD9328150 Si02
#       5
#     8   8  16  16   4
#     4  10  22  44  79 102 136 200 264 290 370 461
#     4  12  29  46  72 117 154 195 244 316 391 448
#     4  10  24  46  75 102 141 200 247 303 365 461
#     4  11  23  43  78 101 146 200 246 308 373 452
#     4  12  24  40  72 114 152 192 248 320 392 432
#
# _framework density 22.497271000000001
#
# number of rings (size 3 to 8) (size 9 to 14) (size 15 to 20)
#    0.000    1.231    0.000    5.077   10.769    0.615 
#    0.000    0.000  152.308    0.000    0.000    0.000 
#    0.000    0.000    0.000    0.000    0.000    0.000 
#
# Total GULP energy -72631.061464 kJ/mol
# GULP energy per Si atom -5587.004728 kJ/mol
# Density = 2.244607 g / cm^3
# Si number density = 22.497271 Si / 1000 Ang^3
#
#
#
# Elastic Constant Matrix: (Units=GPa)
#
#
# Indices 1 2 3 4 5 6 
#
# 1 124.3099 91.0402 62.5932 0.0000 -0.0011 0.0002
# 2 91.0402 129.9553 72.9888 0.0001 0.0003 -0.0001
# 3 62.5932 72.9888 127.0172 -0.0005 -0.0021 -0.0001
# 4 0.0000 0.0001 -0.0005 20.0032 0.0001 -0.0001
# 5 -0.0011 0.0003 -0.0021 0.0001 37.1098 -0.0002
# 6 0.0002 -0.0001 -0.0001 -0.0001 -0.0002 20.4299
#
#
#
# Elastic Compliance Matrix: (Units=1/GPa)
#
#
# Indices 1 2 3 4 5 6 
#
# 1 0.016948 -0.010605 -0.002258 0.000000 0.000000 0.000000
# 2 -0.010605 0.017997 -0.005116 0.000000 -0.000001 0.000000
# 3 -0.002258 -0.005116 0.011926 0.000000 0.000001 0.000000
# 4 0.000000 0.000000 0.000000 0.049992 0.000000 0.000000
# 5 0.000000 -0.000001 0.000001 0.000000 0.026947 0.000000
# 6 0.000000 0.000000 0.000000 0.000000 0.000000 0.048948
#
#
# Mechanical properties :
#
#
# Convention : Reuss Voigt Hill
#
# Bulk Modulus (GPa) = 91.63015 92.72521 92.17768
# Shear Modulus (GPa) = 23.54570 25.81926 24.68248
#
# Velocity S-wave (km/s) = 3.23863 3.39139 3.31589
# Velocity P-wave (km/s) = 7.40290 7.52603 7.46471
#
# Compressibility (1/GPa) = 0.01091344
#
# Stress axis : x y z
#
# Youngs Moduli (GPa) = 59.00474 55.56335 83.85344
#
# Poissons Ratio (x) = 0.58923 0.18934
# Poissons Ratio (y) = 0.62572 0.42901
# Poissons Ratio (z) = 0.13323 0.28427
#
# Static dielectric constant tensor:
#      x y z
#    x 1.752850 0.000000 0.000000 
#    y 0.000000 1.775790 0.000000 
#    z 0.000000 0.000000 1.625950 
# 
# From -- ./inp_files/1931.got.cif
#   From: 2010.05.17/outbox.cif.g08.bks.cpg/sg22_1_cif.got.tgz:1931.got - 2010.06.03 23:40:54.
