data_PCOD9328593
_publ_section_title
;
Structure prediction by ZEFSAII (Michael W. Deem and Ramdas Pophale) SiO2 
 PCOD9328593
Probable space group: F 2 2 2
;
_chemical_formula_sum "Si O2"
_cell_formula_units_Z 88
_cell_length_a 12.538635
_cell_length_b 11.708333
_cell_length_c 30.007253
_cell_angle_alpha 90.000000
_cell_angle_beta 90.000000
_cell_angle_gamma 90.000000
_cell_volume 4405.260206
_symmetry_space_group_name_H-M "F 2 2 2"
_symmetry_group_IT_number 22
_symmetry_cell_setting 'orthorhombic'
loop_
_space_group_symop_operation_xyz
x,y,z
-x,-y,z
x,-y,-z
-x,y,-z
x,1/2+y,1/2+z
-x,1/2-y,1/2+z
x,1/2-y,1/2-z
-x,1/2+y,1/2-z
1/2+x,y,1/2+z
1/2-x,-y,1/2+z
1/2+x,-y,1/2-z
1/2-x,y,1/2-z
1/2+x,1/2+y,z
1/2-x,1/2-y,z
1/2+x,1/2-y,-z
1/2-x,1/2+y,-z
loop_
_atom_site_type_symbol
_atom_site_label
_atom_site_fract_x
_atom_site_fract_y
_atom_site_fract_z
Si Si1 0.338111 0.376576 0.506785
Si Si2 0.464660 0.377690 0.124010
Si Si3 0.639638 0.806339 0.891003
Si Si4 0.624134 0.717228 0.299066
Si Si5 0.000000 0.000000 0.661621
Si Si6 0.397203 0.150348 0.471158
O O1 0.383757 0.500000 0.500000
O O2 0.343941 0.342811 0.558106
O O3 0.393853 0.288143 0.473261
O O4 0.213220 0.379127 0.494520
O O5 0.500000 0.500000 0.141260
O O6 0.562457 0.302154 0.107309
O O7 0.415081 0.302061 0.162493
O O8 0.396259 0.394579 0.079073
O O9 0.750000 0.750000 0.872466
O O10 0.579696 0.912103 0.865518
O O11 0.581532 0.750000 0.250000
O O12 0.750000 0.750000 0.297791
O O13 0.578763 0.590059 0.311940
O O14 0.500000 0.116939 0.500000
#
# Coordination Sequence:
#
# PCOD9328593 Si02
#       6
#    16  16  16  16   8  16
#     4  11  25  36  59  83 128 181 224 282 324 398
#     4  11  26  41  69  96 132 180 230 288 349 424
#     4  11  23  46  62 101 136 182 232 282 344 406
#     4  10  25  49  75 106 137 177 230 292 366 431
#     4  10  26  44  77 104 144 178 231 296 346 428
#     4  11  23  40  54  91 125 170 228 264 333 392
#
# _framework density 19.976119000000001
#
# number of rings (size 3 to 8) (size 9 to 14) (size 15 to 20)
#    0.000    1.273    3.636    0.000   16.545    0.364 
#    0.000    0.000    0.000    4.909    0.000    0.000 
#    0.000    0.000    0.000    0.000    0.000    0.000 
#
# Total GULP energy -122649.551981 kJ/mol
# GULP energy per Si atom -5574.979635 kJ/mol
# Density = 1.993065 g / cm^3
# Si number density = 19.976119 Si / 1000 Ang^3
#
#
#
# Elastic Constant Matrix: (Units=GPa)
#
#
# Indices 1 2 3 4 5 6 
#
# 1 111.6419 26.3741 38.7224 0.0000 0.0000 0.0000
# 2 26.3741 148.0414 24.5982 0.0000 0.0000 0.0000
# 3 38.7224 24.5982 102.0449 0.0000 0.0000 0.0000
# 4 0.0000 0.0000 0.0000 3.4444 0.0000 0.0000
# 5 0.0000 0.0000 0.0000 0.0000 21.9378 0.0000
# 6 0.0000 0.0000 0.0000 0.0000 0.0000 -2.2435
#
#
#
# Elastic Compliance Matrix: (Units=1/GPa)
#
#
# Indices 1 2 3 4 5 6 
#
# 1 0.010537 -0.001263 -0.003694 0.000000 0.000000 0.000000
# 2 -0.001263 0.007188 -0.001253 0.000000 0.000000 0.000000
# 3 -0.003694 -0.001253 0.011503 0.000000 0.000000 0.000000
# 4 0.000000 0.000000 0.000000 0.290323 0.000000 0.000000
# 5 0.000000 0.000000 0.000000 0.000000 0.045583 0.000000
# 6 0.000000 0.000000 0.000000 0.000000 0.000000 -0.445730
#
#
# Mechanical properties :
#
#
# Convention : Reuss Voigt Hill
#
# Bulk Modulus (GPa) = 59.49776 60.12419 59.81098
# Shear Modulus (GPa) = -79.90825 22.76332 -28.57247
#
# Velocity S-wave (km/s) = -6.33157 3.37935 -3.78607
# Velocity P-wave (km/s) = 4.85824 6.73721 3.30057
#
# Compressibility (1/GPa) = 0.01680735
#
# Stress axis : x y z
#
# Youngs Moduli (GPa) = 94.90497 139.11695 86.93090
#
# Poissons Ratio (x) = 0.17576 0.32111
# Poissons Ratio (y) = 0.11991 0.10895
# Poissons Ratio (z) = 0.35056 0.17436
#
# Static dielectric constant tensor:
#      x y z
#    x 1.874950 0.000000 0.000000 
#    y 0.000000 1.770850 0.000000 
#    z 0.000000 0.000000 1.725420 
# 
# From -- ./inp_files/25211.got.cif
#   From: 2010.05.17/outbox.cif.g08.bks.cpg/sg22_13_cif.got.tgz:25211.got - 2010.06.03 23:40:54.
