data_PCOD9328209
_publ_section_title
;
Structure prediction by ZEFSAII (Michael W. Deem and Ramdas Pophale) SiO2 
 PCOD9328209
Probable space group: F 2 2 2
;
_chemical_formula_sum "Si O2"
_cell_formula_units_Z 104
_cell_length_a 10.518338
_cell_length_b 19.288220
_cell_length_c 25.701551
_cell_angle_alpha 90.000000
_cell_angle_beta 90.000000
_cell_angle_gamma 90.000000
_cell_volume 5214.331114
_symmetry_space_group_name_H-M "F 2 2 2"
_symmetry_group_IT_number 22
_symmetry_cell_setting 'orthorhombic'
loop_
_space_group_symop_operation_xyz
x,y,z
-x,-y,z
x,-y,-z
-x,y,-z
x,1/2+y,1/2+z
-x,1/2-y,1/2+z
x,1/2-y,1/2-z
-x,1/2+y,1/2-z
1/2+x,y,1/2+z
1/2-x,-y,1/2+z
1/2+x,-y,1/2-z
1/2-x,y,1/2-z
1/2+x,1/2+y,z
1/2-x,1/2-y,z
1/2+x,1/2-y,-z
1/2-x,1/2+y,-z
loop_
_atom_site_type_symbol
_atom_site_label
_atom_site_fract_x
_atom_site_fract_y
_atom_site_fract_z
Si Si1 0.235794 0.987139 0.188495
Si Si2 0.000000 0.726806 0.000000
Si Si3 0.500000 0.000000 0.869648
Si Si4 0.040061 0.247483 0.188025
Si Si5 0.908691 0.141505 0.599193
Si Si6 0.356866 0.848946 0.366348
Si Si7 0.750000 0.750000 0.556884
Si Si8 0.133502 0.880799 0.867351
O O1 0.250000 0.988874 0.250000
O O2 0.374876 0.999058 0.165133
O O3 0.189300 0.913120 0.167554
O O4 0.148029 0.049308 0.166326
O O5 0.949634 0.685415 0.049936
O O6 0.125879 0.762051 0.022350
O O7 0.513126 0.070428 0.901451
O O8 0.045865 0.250000 0.250000
O O9 0.063725 0.315758 0.152913
O O10 0.136899 0.187266 0.169371
O O11 0.905545 0.214407 0.169754
O O12 0.757963 0.124770 0.597235
O O13 0.253940 0.817663 0.405764
O O14 0.492447 0.873799 0.391908
#
# Coordination Sequence:
#
# PCOD9328209 Si02
#       8
#    16   8   8  16  16  16   8  16
#     4  11  24  38  66  94 139 185 229 272 344 418
#     4  12  26  43  78  96 143 174 242 292 358 423
#     4  10  26  41  66  90 138 172 228 285 340 428
#     4  10  23  37  65  94 142 176 229 274 342 410
#     4  11  23  45  65 104 130 183 231 289 348 412
#     4  10  24  42  63  97 139 170 229 280 343 416
#     4  12  26  44  71 108 133 184 232 300 364 414
#     4   9  23  39  65  94 138 178 228 274 339 412
#
# _framework density 19.945032999999999
#
# number of rings (size 3 to 8) (size 9 to 14) (size 15 to 20)
#    0.923    0.615    1.538    1.846   12.923    0.923 
#    0.000    0.000    0.000    0.000    0.000    0.000 
#    0.000    0.000    0.000    0.000    0.000    0.000 
#
# Total GULP energy -144907.495821 kJ/mol
# GULP energy per Si atom -5573.365224 kJ/mol
# Density = 1.989964 g / cm^3
# Si number density = 19.945033 Si / 1000 Ang^3
#
#
#
# Elastic Constant Matrix: (Units=GPa)
#
#
# Indices 1 2 3 4 5 6 
#
# 1 68.9389 13.7713 10.5690 0.0000 0.0000 0.0000
# 2 13.7713 86.6004 8.7282 0.0000 0.0000 0.0000
# 3 10.5690 8.7282 62.5193 0.0000 0.0000 0.0000
# 4 0.0000 0.0000 0.0000 5.7595 0.0000 0.0000
# 5 0.0000 0.0000 0.0000 0.0000 17.0767 0.0000
# 6 0.0000 0.0000 0.0000 0.0000 0.0000 34.3172
#
#
#
# Elastic Compliance Matrix: (Units=1/GPa)
#
#
# Indices 1 2 3 4 5 6 
#
# 1 0.015295 -0.002203 -0.002278 0.000000 0.000000 0.000000
# 2 -0.002203 0.012029 -0.001307 0.000000 0.000000 0.000000
# 3 -0.002278 -0.001307 0.016563 0.000000 0.000000 0.000000
# 4 0.000000 0.000000 0.000000 0.173626 0.000000 0.000000
# 5 0.000000 0.000000 0.000000 0.000000 0.058559 0.000000
# 6 0.000000 0.000000 0.000000 0.000000 0.000000 0.029140
#
#
# Mechanical properties :
#
#
# Convention : Reuss Voigt Hill
#
# Bulk Modulus (GPa) = 30.94893 31.57728 31.26310
# Shear Modulus (GPa) = 15.26449 23.76335 19.51392
#
# Velocity S-wave (km/s) = 2.76946 3.45547 3.13131
# Velocity P-wave (km/s) = 5.07714 5.63799 5.36490
#
# Compressibility (1/GPa) = 0.03231129
#
# Stress axis : x y z
#
# Youngs Moduli (GPa) = 65.38150 83.13045 60.37677
#
# Poissons Ratio (x) = 0.18310 0.13755
# Poissons Ratio (y) = 0.14401 0.07891
# Poissons Ratio (z) = 0.14895 0.10865
#
# Static dielectric constant tensor:
#      x y z
#    x 1.766860 0.000000 0.000000 
#    y 0.000000 1.725760 0.000000 
#    z 0.000000 0.000000 1.738710 
# 
# From -- ./inp_files/52712.got.cif
#   From: 2010.05.17/outbox.cif.g08.bks.cpg/sg22_27_cif.got.tgz:52712.got - 2010.06.03 23:40:54.
