data_PCOD9328024
_publ_section_title
;
Structure prediction by ZEFSAII (Michael W. Deem and Ramdas Pophale) SiO2 
 PCOD9328024
Probable space group: F 2 2 2
;
_chemical_formula_sum "Si O2"
_cell_formula_units_Z 104
_cell_length_a 9.252973
_cell_length_b 23.984459
_cell_length_c 23.753283
_cell_angle_alpha 90.000000
_cell_angle_beta 90.000000
_cell_angle_gamma 90.000000
_cell_volume 5271.507937
_symmetry_space_group_name_H-M "F 2 2 2"
_symmetry_group_IT_number 22
_symmetry_cell_setting 'orthorhombic'
loop_
_space_group_symop_operation_xyz
x,y,z
-x,-y,z
x,-y,-z
-x,y,-z
x,1/2+y,1/2+z
-x,1/2-y,1/2+z
x,1/2-y,1/2-z
-x,1/2+y,1/2-z
1/2+x,y,1/2+z
1/2-x,-y,1/2+z
1/2+x,-y,1/2-z
1/2-x,y,1/2-z
1/2+x,1/2+y,z
1/2-x,1/2-y,z
1/2+x,1/2-y,-z
1/2-x,1/2+y,-z
loop_
_atom_site_type_symbol
_atom_site_label
_atom_site_fract_x
_atom_site_fract_y
_atom_site_fract_z
Si Si1 0.625619 0.675265 0.405960
Si Si2 0.082878 0.686516 0.266138
Si Si3 0.633512 0.892567 0.201839
Si Si4 0.500000 0.500000 0.355629
Si Si5 0.096234 0.725036 0.383226
Si Si6 0.662647 0.346647 0.008597
Si Si7 0.592330 0.578794 0.552841
O O1 0.687421 0.646218 0.349882
O O2 0.534962 0.731318 0.392401
O O3 0.747740 0.677282 0.454780
O O4 0.501554 0.631798 0.425818
O O5 0.038285 0.750000 0.250000
O O6 0.250000 0.680134 0.250000
O O7 0.057449 0.682391 0.333238
O O8 0.996045 0.642315 0.229731
O O9 0.750000 0.899969 0.250000
O O10 0.580467 0.952318 0.179273
O O11 0.604179 0.465951 0.397922
O O12 0.250000 0.750000 0.361922
O O13 0.139769 0.699030 0.442798
O O14 0.758176 0.396890 0.031852
O O15 0.500000 0.366566 0.000000
O O16 0.500000 0.557920 0.500000
#
# Coordination Sequence:
#
# PCOD9328024 Si02
#       7
#    16  16  16   8  16  16  16
#     4  10  22  42  62  91 137 179 220 265 325 405
#     4  11  22  42  68  98 133 177 223 266 326 405
#     4  11  25  46  66  97 130 167 227 285 339 394
#     4  10  23  44  72  94 118 171 224 284 342 400
#     4  12  22  37  63  99 138 183 223 263 323 400
#     4  11  26  38  60 100 139 178 218 273 331 394
#     4   9  19  40  71  93 122 171 221 269 329 403
#
# _framework density 19.728701000000001
#
# number of rings (size 3 to 8) (size 9 to 14) (size 15 to 20)
#    0.000    1.385    4.615    0.231    6.462    0.923 
#    0.000    0.000    0.000   17.538    0.000    0.000 
#    0.000    0.000    0.000    0.000    0.000    0.000 
#
# Total GULP energy -145159.621669 kJ/mol
# GULP energy per Si atom -5583.062372 kJ/mol
# Density = 1.968380 g / cm^3
# Si number density = 19.728701 Si / 1000 Ang^3
#
#
#
# Elastic Constant Matrix: (Units=GPa)
#
#
# Indices 1 2 3 4 5 6 
#
# 1 121.4680 56.9329 65.0978 0.0000 0.0000 0.0000
# 2 56.9329 110.2258 69.7731 0.0000 0.0000 0.0000
# 3 65.0978 69.7731 170.4338 0.0000 0.0000 0.0000
# 4 0.0000 0.0000 0.0000 45.8912 0.0000 0.0000
# 5 0.0000 0.0000 0.0000 0.0000 66.7598 0.0000
# 6 0.0000 0.0000 0.0000 0.0000 0.0000 12.6069
#
#
#
# Elastic Compliance Matrix: (Units=1/GPa)
#
#
# Indices 1 2 3 4 5 6 
#
# 1 0.011713 -0.004344 -0.002696 0.000000 0.000000 0.000000
# 2 -0.004344 0.013856 -0.004014 0.000000 0.000000 0.000000
# 3 -0.002696 -0.004014 0.008540 0.000000 0.000000 0.000000
# 4 0.000000 0.000000 0.000000 0.021791 0.000000 0.000000
# 5 0.000000 0.000000 0.000000 0.000000 0.014979 0.000000
# 6 0.000000 0.000000 0.000000 0.000000 0.000000 0.079322
#
#
# Mechanical properties :
#
#
# Convention : Reuss Voigt Hill
#
# Bulk Modulus (GPa) = 83.30567 87.30389 85.30478
# Shear Modulus (GPa) = 28.35944 39.07316 33.71630
#
# Velocity S-wave (km/s) = 3.79551 4.45514 4.13849
# Velocity P-wave (km/s) = 7.84380 8.41502 8.13443
#
# Compressibility (1/GPa) = 0.01200398
#
# Stress axis : x y z
#
# Youngs Moduli (GPa) = 85.37377 72.16886 117.09481
#
# Poissons Ratio (x) = 0.31347 0.31565
# Poissons Ratio (y) = 0.37083 0.46996
# Poissons Ratio (z) = 0.23014 0.28965
#
# Static dielectric constant tensor:
#      x y z
#    x 1.710510 0.000000 0.000000 
#    y 0.000000 1.677730 0.000000 
#    z 0.000000 0.000000 1.745170 
# 
# From -- ./inp_files/47509.got.cif
#   From: 2010.05.17/outbox.cif.g08.bks.cpg/sg22_24_cif.got.tgz:47509.got - 2010.06.03 23:40:54.
