data_PCOD9328315
_publ_section_title
;
Structure prediction by ZEFSAII (Michael W. Deem and Ramdas Pophale) SiO2 
 PCOD9328315
Probable space group: F 2 2 2
;
_chemical_formula_sum "Si O2"
_cell_formula_units_Z 88
_cell_length_a 20.526760
_cell_length_b 11.867622
_cell_length_c 15.670643
_cell_angle_alpha 90.000000
_cell_angle_beta 90.000000
_cell_angle_gamma 90.000000
_cell_volume 3817.428631
_symmetry_space_group_name_H-M "F 2 2 2"
_symmetry_group_IT_number 22
_symmetry_cell_setting 'orthorhombic'
loop_
_space_group_symop_operation_xyz
x,y,z
-x,-y,z
x,-y,-z
-x,y,-z
x,1/2+y,1/2+z
-x,1/2-y,1/2+z
x,1/2-y,1/2-z
-x,1/2+y,1/2-z
1/2+x,y,1/2+z
1/2-x,-y,1/2+z
1/2+x,-y,1/2-z
1/2-x,y,1/2-z
1/2+x,1/2+y,z
1/2-x,1/2-y,z
1/2+x,1/2-y,-z
1/2-x,1/2+y,-z
loop_
_atom_site_type_symbol
_atom_site_label
_atom_site_fract_x
_atom_site_fract_y
_atom_site_fract_z
Si Si1 0.821493 0.966421 0.846418
Si Si2 0.550568 0.078126 0.842023
Si Si3 0.146125 0.281287 0.336044
Si Si4 0.674187 0.575021 0.655224
Si Si5 0.500000 0.302533 0.500000
Si Si6 0.144195 0.775672 0.026729
O O1 0.743839 0.986092 0.854307
O O2 0.831171 0.899485 0.756833
O O3 0.841148 0.893087 0.927456
O O4 0.860458 0.083118 0.836566
O O5 0.583638 0.199204 0.823394
O O6 0.500000 0.000000 0.787514
O O7 0.613929 0.005528 0.864980
O O8 0.505958 0.116613 0.919677
O O9 0.184207 0.250000 0.250000
O O10 0.172055 0.258283 0.431501
O O11 0.669812 0.680695 0.592113
O O12 0.433595 0.234134 0.512584
#
# Coordination Sequence:
#
# PCOD9328315 Si02
#       6
#    16  16  16  16   8  16
#     4  11  25  51  70 113 152 192 249 310 390 449
#     4  11  22  45  73 105 140 191 252 300 363 435
#     4  11  25  49  70 107 148 194 245 310 376 446
#     4  11  24  46  80 104 147 199 248 313 363 464
#     4  10  23  42  75 104 144 187 251 304 358 448
#     4  11  24  47  74 108 148 193 250 307 376 452
#
# _framework density 23.052166
#
# number of rings (size 3 to 8) (size 9 to 14) (size 15 to 20)
#    0.000    1.091    3.636    1.909    2.545    2.182 
#   26.182    7.273    0.000    0.000    0.000    0.000 
#    0.000    0.000    0.000    0.000    0.000    0.000 
#
# Total GULP energy -122663.903005 kJ/mol
# GULP energy per Si atom -5575.631955 kJ/mol
# Density = 2.299970 g / cm^3
# Si number density = 23.052166 Si / 1000 Ang^3
#
#
#
# Elastic Constant Matrix: (Units=GPa)
#
#
# Indices 1 2 3 4 5 6 
#
# 1 128.0926 42.6987 32.3502 0.0000 0.0000 0.0000
# 2 42.6987 150.3331 69.4383 0.0000 0.0000 0.0000
# 3 32.3502 69.4383 164.6680 0.0000 0.0000 0.0000
# 4 0.0000 0.0000 0.0000 62.0876 0.0000 0.0000
# 5 0.0000 0.0000 0.0000 0.0000 -5.0285 0.0000
# 6 0.0000 0.0000 0.0000 0.0000 0.0000 -3.3396
#
#
#
# Elastic Compliance Matrix: (Units=1/GPa)
#
#
# Indices 1 2 3 4 5 6 
#
# 1 0.008714 -0.002092 -0.000830 0.000000 0.000000 0.000000
# 2 -0.002092 0.008763 -0.003284 0.000000 0.000000 0.000000
# 3 -0.000830 -0.003284 0.007621 0.000000 0.000000 0.000000
# 4 0.000000 0.000000 0.000000 0.016106 0.000000 0.000000
# 5 0.000000 0.000000 0.000000 0.000000 -0.198866 0.000000
# 6 0.000000 0.000000 0.000000 0.000000 0.000000 -0.299433
#
#
# Mechanical properties :
#
#
# Convention : Reuss Voigt Hill
#
# Bulk Modulus (GPa) = 78.82781 81.34090 80.08435
# Shear Modulus (GPa) = -11.35191 30.65099 9.64954
#
# Velocity S-wave (km/s) = -2.22152 3.65037 2.04818
# Velocity P-wave (km/s) = 5.26208 7.28897 6.35683
#
# Compressibility (1/GPa) = 0.01268588
#
# Stress axis : x y z
#
# Youngs Moduli (GPa) = 114.76237 114.11635 131.21958
#
# Poissons Ratio (x) = 0.23869 0.10889
# Poissons Ratio (y) = 0.24004 0.43097
# Poissons Ratio (z) = 0.09524 0.37479
#
# Static dielectric constant tensor:
#      x y z
#    x 1.839290 0.000000 0.000000 
#    y 0.000000 1.899910 0.000000 
#    z 0.000000 0.000000 1.951920 
# 
# From -- ./inp_files/38803.got.cif
#   From: 2010.05.17/outbox.cif.g08.bks.cpg/sg22_20_cif.got.tgz:38803.got - 2010.06.03 23:40:54.
