data_PCOD9328689
_publ_section_title
;
Structure prediction by ZEFSAII (Michael W. Deem and Ramdas Pophale) SiO2 
 PCOD9328689
Probable space group: F 2 2 2
;
_chemical_formula_sum "Si O2"
_cell_formula_units_Z 80
_cell_length_a 20.569801
_cell_length_b 11.344261
_cell_length_c 15.145238
_cell_angle_alpha 90.000000
_cell_angle_beta 90.000000
_cell_angle_gamma 90.000000
_cell_volume 3534.129039
_symmetry_space_group_name_H-M "F 2 2 2"
_symmetry_group_IT_number 22
_symmetry_cell_setting 'orthorhombic'
loop_
_space_group_symop_operation_xyz
x,y,z
-x,-y,z
x,-y,-z
-x,y,-z
x,1/2+y,1/2+z
-x,1/2-y,1/2+z
x,1/2-y,1/2-z
-x,1/2+y,1/2-z
1/2+x,y,1/2+z
1/2-x,-y,1/2+z
1/2+x,-y,1/2-z
1/2-x,y,1/2-z
1/2+x,1/2+y,z
1/2-x,1/2-y,z
1/2+x,1/2-y,-z
1/2-x,1/2+y,-z
loop_
_atom_site_type_symbol
_atom_site_label
_atom_site_fract_x
_atom_site_fract_y
_atom_site_fract_z
Si Si1 0.906320 0.622351 0.462264
Si Si2 0.631008 0.055245 0.857995
Si Si3 0.073528 0.849467 0.462707
Si Si4 0.028864 0.131642 0.216238
Si Si5 0.758054 0.890605 0.068555
O O1 0.927902 0.500000 0.500000
O O2 0.910115 0.712789 0.543372
O O3 0.952150 0.661024 0.383363
O O4 0.835418 0.604451 0.419589
O O5 0.616603 0.117229 0.951931
O O6 0.591569 0.116228 0.780132
O O7 0.708451 0.074330 0.852700
O O8 0.598132 0.927763 0.880879
O O9 0.000000 0.870097 0.500000
O O10 0.992707 0.250000 0.250000
O O11 0.000000 0.000000 0.218458
O O12 0.750000 0.750000 0.043722
O O13 0.745302 0.000000 0.000000
#
# Coordination Sequence:
#
# PCOD9328689 Si02
#       5
#    16  16  16  16  16
#     4  11  26  40  63  97 133 173 210 269 336 375
#     4  11  21  39  66  94 120 168 220 264 312 376
#     4  11  21  38  65  94 126 168 221 259 314 389
#     4  12  26  44  63  95 132 167 215 270 326 384
#     4  11  19  39  64  92 129 163 217 267 314 386
#
# _framework density 22.636413000000001
#
# number of rings (size 3 to 8) (size 9 to 14) (size 15 to 20)
#    0.000    0.800    6.000    2.400    2.800    0.800 
#    0.000    2.000    0.000    0.000    0.000    5.600 
#    0.000    0.000    0.000    0.000    0.000    0.000 
#
# Total GULP energy -111430.495799 kJ/mol
# GULP energy per Si atom -5571.524790 kJ/mol
# Density = 2.258489 g / cm^3
# Si number density = 22.636413 Si / 1000 Ang^3
#
#
#
# Elastic Constant Matrix: (Units=GPa)
#
#
# Indices 1 2 3 4 5 6 
#
# 1 120.7855 16.0884 2.1162 0.0000 0.0000 0.0000
# 2 16.0884 200.8001 22.0726 0.0000 0.0000 0.0000
# 3 2.1162 22.0726 49.2929 0.0000 0.0000 0.0000
# 4 0.0000 0.0000 0.0000 31.9076 0.0000 0.0000
# 5 0.0000 0.0000 0.0000 0.0000 17.7173 0.0000
# 6 0.0000 0.0000 0.0000 0.0000 0.0000 26.6043
#
#
#
# Elastic Compliance Matrix: (Units=1/GPa)
#
#
# Indices 1 2 3 4 5 6 
#
# 1 0.008369 -0.000664 -0.000062 0.000000 0.000000 0.000000
# 2 -0.000664 0.005291 -0.002341 0.000000 0.000000 0.000000
# 3 -0.000062 -0.002341 0.021338 0.000000 0.000000 0.000000
# 4 0.000000 0.000000 0.000000 0.031341 0.000000 0.000000
# 5 0.000000 0.000000 0.000000 0.000000 0.056442 0.000000
# 6 0.000000 0.000000 0.000000 0.000000 0.000000 0.037588
#
#
# Mechanical properties :
#
#
# Convention : Reuss Voigt Hill
#
# Bulk Modulus (GPa) = 34.64500 50.15920 42.40210
# Shear Modulus (GPa) = 28.38956 37.28593 32.83774
#
# Velocity S-wave (km/s) = 3.54525 4.06293 3.81289
# Velocity P-wave (km/s) = 5.66538 6.64956 6.17710
#
# Compressibility (1/GPa) = 0.02886419
#
# Stress axis : x y z
#
# Youngs Moduli (GPa) = 119.49388 189.01695 46.86560
#
# Poissons Ratio (x) = 0.12545 0.00291
# Poissons Ratio (y) = 0.07931 0.10969
# Poissons Ratio (z) = 0.00742 0.44240
#
# Static dielectric constant tensor:
#      x y z
#    x 1.966580 0.000000 0.000000 
#    y 0.000000 1.954460 0.000000 
#    z 0.000000 0.000000 1.898730 
# 
# From -- ./inp_files/32252.got.cif
#   From: 2010.05.17/outbox.cif.g08.bks.cpg/sg22_17_cif.got.tgz:32252.got - 2010.06.03 23:40:54.
