data_PCOD9328066
_publ_section_title
;
Structure prediction by ZEFSAII (Michael W. Deem and Ramdas Pophale) SiO2 
 PCOD9328066
Probable space group: F 2 2 2
;
_chemical_formula_sum "Si O2"
_cell_formula_units_Z 112
_cell_length_a 27.798054
_cell_length_b 10.953072
_cell_length_c 15.983791
_cell_angle_alpha 90.000000
_cell_angle_beta 90.000000
_cell_angle_gamma 90.000000
_cell_volume 4866.650170
_symmetry_space_group_name_H-M "F 2 2 2"
_symmetry_group_IT_number 22
_symmetry_cell_setting 'orthorhombic'
loop_
_space_group_symop_operation_xyz
x,y,z
-x,-y,z
x,-y,-z
-x,y,-z
x,1/2+y,1/2+z
-x,1/2-y,1/2+z
x,1/2-y,1/2-z
-x,1/2+y,1/2-z
1/2+x,y,1/2+z
1/2-x,-y,1/2+z
1/2+x,-y,1/2-z
1/2-x,y,1/2-z
1/2+x,1/2+y,z
1/2-x,1/2-y,z
1/2+x,1/2-y,-z
1/2-x,1/2+y,-z
loop_
_atom_site_type_symbol
_atom_site_label
_atom_site_fract_x
_atom_site_fract_y
_atom_site_fract_z
Si Si1 0.567588 0.854680 0.306548
Si Si2 0.701675 0.056112 0.698110
Si Si3 0.200417 0.174982 0.914553
Si Si4 0.114959 0.026132 0.329027
Si Si5 0.983211 0.641881 0.588662
Si Si6 0.606613 0.239371 0.154813
Si Si7 0.852518 0.725742 0.410146
O O1 0.591879 0.750000 0.250000
O O2 0.570429 0.959131 0.237522
O O3 0.516864 0.807482 0.338077
O O4 0.602365 0.863869 0.386859
O O5 0.750000 0.057948 0.750000
O O6 0.659477 0.017305 0.763183
O O7 0.686918 0.185369 0.658190
O O8 0.707324 0.962635 0.619411
O O9 0.250000 0.250000 0.916345
O O10 0.162273 0.227031 0.848838
O O11 0.171813 0.197021 0.001490
O O12 0.128091 0.137099 0.392278
O O13 0.104609 0.900144 0.375394
O O14 0.927954 0.671263 0.603078
O O15 0.000000 0.500000 0.591051
O O16 0.000000 0.692567 0.500000
O O17 0.590325 0.250000 0.250000
#
# Coordination Sequence:
#
# PCOD9328066 Si02
#       7
#    16  16  16  16  16  16  16
#     4   9  19  41  66  97 134 177 233 296 358 434
#     4  11  23  42  71 100 141 191 255 306 366 448
#     4  12  27  43  66 102 149 194 249 313 384 447
#     4  10  22  42  71  99 140 187 244 303 365 448
#     4  11  24  40  67 103 139 180 238 302 370 451
#     4  12  24  44  71 101 141 192 245 302 381 461
#     4  10  24  44  68 100 140 190 239 314 378 439
#
# _framework density 23.013777999999999
#
# number of rings (size 3 to 8) (size 9 to 14) (size 15 to 20)
#    0.000    1.286    1.429    4.714    4.000    1.143 
#    2.571    2.143    0.000    3.429    0.000    0.000 
#    0.000    0.000    0.000    0.000    0.000    0.000 
#
# Total GULP energy -156187.262735 kJ/mol
# GULP energy per Si atom -5578.116526 kJ/mol
# Density = 2.296140 g / cm^3
# Si number density = 23.013778 Si / 1000 Ang^3
#
#
#
# Elastic Constant Matrix: (Units=GPa)
#
#
# Indices 1 2 3 4 5 6 
#
# 1 107.5250 15.6380 33.7777 0.0000 0.0000 0.0000
# 2 15.6380 111.7148 22.4124 0.0000 0.0000 0.0000
# 3 33.7777 22.4124 99.9281 0.0000 0.0000 0.0000
# 4 0.0000 0.0000 0.0000 20.4676 0.0000 0.0000
# 5 0.0000 0.0000 0.0000 0.0000 40.0591 0.0000
# 6 0.0000 0.0000 0.0000 0.0000 0.0000 24.8517
#
#
#
# Elastic Compliance Matrix: (Units=1/GPa)
#
#
# Indices 1 2 3 4 5 6 
#
# 1 0.010471 -0.000791 -0.003362 0.000000 0.000000 0.000000
# 2 -0.000791 0.009433 -0.001848 0.000000 0.000000 0.000000
# 3 -0.003362 -0.001848 0.011558 0.000000 0.000000 0.000000
# 4 0.000000 0.000000 0.000000 0.048858 0.000000 0.000000
# 5 0.000000 0.000000 0.000000 0.000000 0.024963 0.000000
# 6 0.000000 0.000000 0.000000 0.000000 0.000000 0.040239
#
#
# Mechanical properties :
#
#
# Convention : Reuss Voigt Hill
#
# Bulk Modulus (GPa) = 51.38913 51.42491 51.40702
# Shear Modulus (GPa) = 30.48565 33.56500 32.02532
#
# Velocity S-wave (km/s) = 3.64355 3.82314 3.73442
# Velocity P-wave (km/s) = 6.33078 6.47165 6.40161
#
# Compressibility (1/GPa) = 0.01945937
#
# Stress axis : x y z
#
# Youngs Moduli (GPa) = 95.49826 106.01173 86.51895
#
# Poissons Ratio (x) = 0.08389 0.29088
# Poissons Ratio (y) = 0.07557 0.15990
# Poissons Ratio (z) = 0.32107 0.19593
#
# Static dielectric constant tensor:
#      x y z
#    x 1.870710 0.000000 0.000000 
#    y 0.000000 2.026360 0.000000 
#    z 0.000000 0.000000 1.922450 
# 
# From -- ./inp_files/33509.got.cif
#   From: 2010.05.17/outbox.cif.g08.bks.cpg/sg22_17_cif.got.tgz:33509.got - 2010.06.03 23:40:54.
