data_PCOD9328101
_publ_section_title
;
Structure prediction by ZEFSAII (Michael W. Deem and Ramdas Pophale) SiO2 
 PCOD9328101
Probable space group: F 2 2 2
;
_chemical_formula_sum "Si O2"
_cell_formula_units_Z 88
_cell_length_a 27.203115
_cell_length_b 5.081521
_cell_length_c 28.242091
_cell_angle_alpha 90.000000
_cell_angle_beta 90.000000
_cell_angle_gamma 90.000000
_cell_volume 3903.994618
_symmetry_space_group_name_H-M "F 2 2 2"
_symmetry_group_IT_number 22
_symmetry_cell_setting 'orthorhombic'
loop_
_space_group_symop_operation_xyz
x,y,z
-x,-y,z
x,-y,-z
-x,y,-z
x,1/2+y,1/2+z
-x,1/2-y,1/2+z
x,1/2-y,1/2-z
-x,1/2+y,1/2-z
1/2+x,y,1/2+z
1/2-x,-y,1/2+z
1/2+x,-y,1/2-z
1/2-x,y,1/2-z
1/2+x,1/2+y,z
1/2-x,1/2-y,z
1/2+x,1/2-y,-z
1/2-x,1/2+y,-z
loop_
_atom_site_type_symbol
_atom_site_label
_atom_site_fract_x
_atom_site_fract_y
_atom_site_fract_z
Si Si1 0.173039 0.568433 0.095040
Si Si2 0.391470 0.576375 0.890917
Si Si3 0.500000 0.500000 0.115204
Si Si4 0.679751 0.750000 0.750000
Si Si5 0.750000 0.250000 0.171640
Si Si6 0.000000 0.000000 0.683026
Si Si7 0.277862 0.500000 0.500000
Si Si8 0.394883 0.598085 0.705566
O O1 0.146005 0.288758 0.087342
O O2 0.215888 0.580814 0.135324
O O3 0.194116 0.633932 0.043578
O O4 0.132898 0.790601 0.108006
O O5 0.447602 0.553688 0.910217
O O6 0.395961 0.711407 0.839195
O O7 0.491896 0.751087 0.148899
O O8 0.715590 0.602493 0.788909
O O9 0.642410 0.639271 0.709941
O O10 0.049016 0.981393 0.713251
O O11 0.250000 0.250000 0.477619
O O12 0.375141 0.750000 0.750000
#
# Coordination Sequence:
#
# PCOD9328101 Si02
#       8
#    16  16   8   8   8   8   8  16
#     4  12  25  46  75 102 142 184 237 296 367 432
#     4  11  24  44  71 101 140 185 234 293 360 431
#     4  10  22  43  68 101 134 181 238 285 358 437
#     4  11  24  44  62  98 142 192 248 287 354 442
#     4  11  24  44  68  96 144 196 238 291 360 426
#     4  10  24  37  64  90 132 186 242 302 354 400
#     4  12  26  48  76 111 142 185 242 308 366 436
#     4  11  24  37  61  91 138 183 244 295 353 420
#
# _framework density 22.541015000000002
#
# number of rings (size 3 to 8) (size 9 to 14) (size 15 to 20)
#    0.000    0.909    2.727    4.364    6.364    0.727 
#    3.273    0.909    0.000    3.273    0.000    0.000 
#    0.000    0.000    0.000    0.000    0.000    0.000 
#
# Total GULP energy -122468.871334 kJ/mol
# GULP energy per Si atom -5566.766879 kJ/mol
# Density = 2.248971 g / cm^3
# Si number density = 22.541015 Si / 1000 Ang^3
#
#
#
# Elastic Constant Matrix: (Units=GPa)
#
#
# Indices 1 2 3 4 5 6 
#
# 1 140.0326 20.6145 35.9881 -0.0037 0.0009 0.0239
# 2 20.6145 77.1512 -6.8573 0.0108 -0.0024 0.0677
# 3 35.9881 -6.8573 78.8224 0.0046 -0.0009 0.0004
# 4 -0.0037 0.0108 0.0046 24.8783 0.0105 0.0156
# 5 0.0009 -0.0024 -0.0009 0.0105 19.3533 -0.0072
# 6 0.0239 0.0677 0.0004 0.0156 -0.0072 32.0125
#
#
#
# Elastic Compliance Matrix: (Units=1/GPa)
#
#
# Indices 1 2 3 4 5 6 
#
# 1 0.008603 -0.002668 -0.004160 0.000003 -0.000001 -0.000001
# 2 -0.002668 0.013890 0.002427 -0.000007 0.000002 -0.000027
# 3 -0.004160 0.002427 0.014797 -0.000004 0.000001 -0.000002
# 4 0.000003 -0.000007 -0.000004 0.040196 -0.000022 -0.000020
# 5 -0.000001 0.000002 0.000001 -0.000022 0.051671 0.000012
# 6 -0.000001 -0.000027 -0.000002 -0.000020 0.000012 0.031238
#
#
# Mechanical properties :
#
#
# Convention : Reuss Voigt Hill
#
# Bulk Modulus (GPa) = 35.10369 43.94411 39.52390
# Shear Modulus (GPa) = 27.98073 31.66621 29.82347
#
# Velocity S-wave (km/s) = 3.52707 3.75217 3.64136
# Velocity P-wave (km/s) = 5.67398 6.18944 5.93730
#
# Compressibility (1/GPa) = 0.02848703
#
# Stress axis : x y z
#
# Youngs Moduli (GPa) = 116.23618 71.99276 67.58004
#
# Poissons Ratio (x) = 0.19211 0.28114
# Poissons Ratio (y) = 0.31018 -0.16400
# Poissons Ratio (z) = 0.48356 -0.17471
#
# Static dielectric constant tensor:
#      x y z
#    x 1.917710 -0.000040 0.000020 
#    y -0.000040 2.089740 -0.000150 
#    z 0.000020 -0.000150 1.822880 
# 
# From -- ./inp_files/57262.got.cif
#   From: 2010.05.17/outbox.cif.g08.bks.cpg/sg22_29_cif.got.tgz:57262.got - 2010.06.03 23:40:54.
