data_PCOD9328920
_publ_section_title
;
Structure prediction by ZEFSAII (Michael W. Deem and Ramdas Pophale) SiO2 
 PCOD9328920
Probable space group: F 2 2 2
;
_chemical_formula_sum "Si O2"
_cell_formula_units_Z 120
_cell_length_a 28.288166
_cell_length_b 8.725692
_cell_length_c 27.041284
_cell_angle_alpha 90.000000
_cell_angle_beta 90.000000
_cell_angle_gamma 90.000000
_cell_volume 6674.703529
_symmetry_space_group_name_H-M "F 2 2 2"
_symmetry_group_IT_number 22
_symmetry_cell_setting 'orthorhombic'
loop_
_space_group_symop_operation_xyz
x,y,z
-x,-y,z
x,-y,-z
-x,y,-z
x,1/2+y,1/2+z
-x,1/2-y,1/2+z
x,1/2-y,1/2-z
-x,1/2+y,1/2-z
1/2+x,y,1/2+z
1/2-x,-y,1/2+z
1/2+x,-y,1/2-z
1/2-x,y,1/2-z
1/2+x,1/2+y,z
1/2-x,1/2-y,z
1/2+x,1/2-y,-z
1/2-x,1/2+y,-z
loop_
_atom_site_type_symbol
_atom_site_label
_atom_site_fract_x
_atom_site_fract_y
_atom_site_fract_z
Si Si1 0.128334 0.000000 0.500000
Si Si2 0.299542 0.433527 0.575264
Si Si3 0.646534 0.565967 0.144693
Si Si4 0.945833 0.762260 0.997926
Si Si5 0.701222 0.143810 0.830116
Si Si6 0.808012 0.421056 0.449691
Si Si7 0.806740 0.076734 0.241654
Si Si8 0.945927 0.485641 0.588596
O O1 0.162875 0.965799 0.545618
O O2 0.093734 0.138449 0.509872
O O3 0.292838 0.506688 0.629608
O O4 0.248363 0.438097 0.550671
O O5 0.316334 0.257196 0.565910
O O6 0.659695 0.741787 0.154050
O O7 0.672102 0.519927 0.094476
O O8 0.672154 0.474978 0.189238
O O9 0.592151 0.525052 0.132439
O O10 0.939228 0.842881 0.051182
O O11 0.940869 0.877003 0.951408
O O12 0.000000 0.705200 0.000000
O O13 0.750000 0.250000 0.825576
O O14 0.683929 0.059156 0.780589
O O15 0.826619 0.500000 0.500000
O O16 0.824661 0.250000 0.250000
O O17 0.750000 0.086549 0.250000
O O18 0.000000 0.500000 0.606616
#
# Coordination Sequence:
#
# PCOD9328920 Si02
#       8
#     8  16  16  16  16  16  16  16
#     4  12  21  32  52  86 122 156 211 252 310 364
#     4  11  24  36  51  79 123 167 204 245 298 365
#     4  12  23  36  66  88 117 165 206 263 313 370
#     4   9  19  36  57  81 118 160 209 262 310 364
#     4  12  23  39  61  88 124 160 209 261 308 373
#     4  11  24  38  53  79 126 171 210 235 302 369
#     4  11  23  41  62  87 123 162 210 258 310 368
#     4   9  20  39  60  86 115 158 210 258 310 376
#
# _framework density 17.978327
#
# number of rings (size 3 to 8) (size 9 to 14) (size 15 to 20)
#    0.000    1.200    3.333    3.800    5.600    2.133 
#    0.000    0.000    0.000    1.600    0.000    1.867 
#    0.000    0.000    0.000    0.000    0.000    0.000 
#
# Total GULP energy -167158.666540 kJ/mol
# GULP energy per Si atom -5571.955551 kJ/mol
# Density = 1.793741 g / cm^3
# Si number density = 17.978327 Si / 1000 Ang^3
#
#
#
# Elastic Constant Matrix: (Units=GPa)
#
#
# Indices 1 2 3 4 5 6 
#
# 1 101.4319 27.8007 34.8576 0.0000 0.0000 -0.0001
# 2 27.8007 78.9169 48.9290 0.0000 0.0000 0.0000
# 3 34.8576 48.9290 130.0716 0.0000 0.0000 0.0000
# 4 0.0000 0.0000 0.0000 19.7952 0.0000 0.0000
# 5 0.0000 0.0000 0.0000 0.0000 26.7375 0.0000
# 6 -0.0001 0.0000 0.0000 0.0000 0.0000 11.3458
#
#
#
# Elastic Compliance Matrix: (Units=1/GPa)
#
#
# Indices 1 2 3 4 5 6 
#
# 1 0.011296 -0.002742 -0.001996 0.000000 0.000000 0.000000
# 2 -0.002742 0.017191 -0.005732 0.000000 0.000000 0.000000
# 3 -0.001996 -0.005732 0.010379 0.000000 0.000000 0.000000
# 4 0.000000 0.000000 0.000000 0.050517 0.000000 0.000000
# 5 0.000000 0.000000 0.000000 0.000000 0.037401 0.000000
# 6 0.000000 0.000000 0.000000 0.000000 0.000000 0.088138
#
#
# Mechanical properties :
#
#
# Convention : Reuss Voigt Hill
#
# Bulk Modulus (GPa) = 55.78158 59.28835 57.53497
# Shear Modulus (GPa) = 20.67497 24.83126 22.75312
#
# Velocity S-wave (km/s) = 3.39484 3.72045 3.56137
# Velocity P-wave (km/s) = 6.81623 7.17669 6.99878
#
# Compressibility (1/GPa) = 0.01792706
#
# Stress axis : x y z
#
# Youngs Moduli (GPa) = 88.52508 58.16853 96.34702
#
# Poissons Ratio (x) = 0.15950 0.19229
# Poissons Ratio (y) = 0.24274 0.55227
# Poissons Ratio (z) = 0.17668 0.33343
#
# Static dielectric constant tensor:
#      x y z
#    x 1.660400 0.000000 0.000000 
#    y 0.000000 1.450870 0.000000 
#    z 0.000000 0.000000 1.632430 
# 
# From -- ./inp_files/54390.got.cif
#   From: 2010.05.17/outbox.cif.g08.bks.cpg/sg22_28_cif.got.tgz:54390.got - 2010.06.03 23:40:54.
