data_PCOD9328293
_publ_section_title
;
Structure prediction by ZEFSAII (Michael W. Deem and Ramdas Pophale) SiO2 
 PCOD9328293
Probable space group: F 2 2 2
;
_chemical_formula_sum "Si O2"
_cell_formula_units_Z 88
_cell_length_a 31.868053
_cell_length_b 5.067209
_cell_length_c 24.977516
_cell_angle_alpha 90.000000
_cell_angle_beta 90.000000
_cell_angle_gamma 90.000000
_cell_volume 4033.421361
_symmetry_space_group_name_H-M "F 2 2 2"
_symmetry_group_IT_number 22
_symmetry_cell_setting 'orthorhombic'
loop_
_space_group_symop_operation_xyz
x,y,z
-x,-y,z
x,-y,-z
-x,y,-z
x,1/2+y,1/2+z
-x,1/2-y,1/2+z
x,1/2-y,1/2-z
-x,1/2+y,1/2-z
1/2+x,y,1/2+z
1/2-x,-y,1/2+z
1/2+x,-y,1/2-z
1/2-x,y,1/2-z
1/2+x,1/2+y,z
1/2-x,1/2-y,z
1/2+x,1/2-y,-z
1/2-x,1/2+y,-z
loop_
_atom_site_type_symbol
_atom_site_label
_atom_site_fract_x
_atom_site_fract_y
_atom_site_fract_z
Si Si1 0.701255 0.186774 0.659563
Si Si2 0.145537 0.250000 0.250000
Si Si3 0.125868 0.000000 0.500000
Si Si4 0.500000 0.500000 0.915224
Si Si5 0.090765 0.382505 0.807052
Si Si6 0.000000 0.500000 0.155187
Si Si7 0.159404 0.795089 0.388972
Si Si8 0.069802 0.500000 0.500000
O O1 0.750000 0.250000 0.666039
O O2 0.679016 0.085517 0.714449
O O3 0.682170 0.467675 0.642114
O O4 0.687574 0.966055 0.616598
O O5 0.113333 0.340328 0.203900
O O6 0.151256 0.890329 0.449237
O O7 0.097315 0.750470 0.517092
O O8 0.487009 0.749633 0.880230
O O9 0.538809 0.583954 0.952310
O O10 0.100637 0.250000 0.750000
O O11 0.114658 0.257833 0.857859
O O12 0.041287 0.409431 0.813451
#
# Coordination Sequence:
#
# PCOD9328293 Si02
#       8
#    16   8   8   8  16   8  16   8
#     4  11  23  43  70 102 135 176 224 286 355 429
#     4  10  23  42  66  98 136 182 230 292 341 426
#     4  12  24  43  70 101 130 187 228 285 360 424
#     4  11  24  43  58  99 128 179 240 308 352 388
#     4  11  24  42  64  95 139 186 235 282 350 411
#     4  12  28  38  66  93 142 187 235 287 352 428
#     4  11  24  43  68 100 139 176 229 286 348 426
#     4  11  22  40  70  89 132 175 246 301 344 409
#
# _framework density 21.817706999999999
#
# number of rings (size 3 to 8) (size 9 to 14) (size 15 to 20)
#    0.000    0.909    1.818    5.182    3.818    2.909 
#    0.000    3.636    0.000    0.000    0.000    0.000 
#    0.000    0.000    0.000    0.000    0.000    0.000 
#
# Total GULP energy -122775.704354 kJ/mol
# GULP energy per Si atom -5580.713834 kJ/mol
# Density = 2.176805 g / cm^3
# Si number density = 21.817707 Si / 1000 Ang^3
#
#
#
# Elastic Constant Matrix: (Units=GPa)
#
#
# Indices 1 2 3 4 5 6 
#
# 1 132.7107 12.1316 35.9720 0.0056 -0.0131 -0.0153
# 2 12.1316 74.4064 -9.5217 0.0325 0.0057 -0.0165
# 3 35.9720 -9.5217 83.0373 0.0080 0.0056 -0.0008
# 4 0.0056 0.0325 0.0080 42.0564 -0.0026 -0.0004
# 5 -0.0131 0.0057 0.0056 -0.0026 9.2344 0.0027
# 6 -0.0153 -0.0165 -0.0008 -0.0004 0.0027 34.3646
#
#
#
# Elastic Compliance Matrix: (Units=1/GPa)
#
#
# Indices 1 2 3 4 5 6 
#
# 1 0.008809 -0.001953 -0.004040 0.000001 0.000016 0.000003
# 2 -0.001953 0.014073 0.002460 -0.000011 -0.000013 0.000006
# 3 -0.004040 0.002460 0.014075 -0.000004 -0.000016 0.000000
# 4 0.000001 -0.000011 -0.000004 0.023778 0.000007 0.000000
# 5 0.000016 -0.000013 -0.000016 0.000007 0.108291 -0.000008
# 6 0.000003 0.000006 0.000000 0.000000 -0.000008 0.029100
#
#
# Mechanical properties :
#
#
# Convention : Reuss Voigt Hill
#
# Bulk Modulus (GPa) = 33.45592 40.81313 37.13453
# Shear Modulus (GPa) = 23.23905 33.90257 28.57081
#
# Velocity S-wave (km/s) = 3.26720 3.94623 3.62266
# Velocity P-wave (km/s) = 5.44062 6.28575 5.87840
#
# Compressibility (1/GPa) = 0.02989007
#
# Stress axis : x y z
#
# Youngs Moduli (GPa) = 113.52282 71.05825 71.04804
#
# Poissons Ratio (x) = 0.13879 0.28703
# Poissons Ratio (y) = 0.22174 -0.17477
# Poissons Ratio (z) = 0.45863 -0.17479
#
# Static dielectric constant tensor:
#      x y z
#    x 1.778690 0.000020 0.000010 
#    y 0.000020 2.006750 -0.000020 
#    z 0.000010 -0.000020 1.850050 
# 
# From -- ./inp_files/4934.got.cif
#   From: 2010.05.17/outbox.cif.g08.bks.cpg/sg22_3_cif.got.tgz:4934.got - 2010.06.03 23:40:54.
