data_PCOD9328853
_publ_section_title
;
Structure prediction by ZEFSAII (Michael W. Deem and Ramdas Pophale) SiO2 
 PCOD9328853
Probable space group: F 2 2 2
;
_chemical_formula_sum "Si O2"
_cell_formula_units_Z 104
_cell_length_a 15.163492
_cell_length_b 16.157156
_cell_length_c 18.766370
_cell_angle_alpha 90.000000
_cell_angle_beta 90.000000
_cell_angle_gamma 90.000000
_cell_volume 4597.740115
_symmetry_space_group_name_H-M "F 2 2 2"
_symmetry_group_IT_number 22
_symmetry_cell_setting 'orthorhombic'
loop_
_space_group_symop_operation_xyz
x,y,z
-x,-y,z
x,-y,-z
-x,y,-z
x,1/2+y,1/2+z
-x,1/2-y,1/2+z
x,1/2-y,1/2-z
-x,1/2+y,1/2-z
1/2+x,y,1/2+z
1/2-x,-y,1/2+z
1/2+x,-y,1/2-z
1/2-x,y,1/2-z
1/2+x,1/2+y,z
1/2-x,1/2-y,z
1/2+x,1/2-y,-z
1/2-x,1/2+y,-z
loop_
_atom_site_type_symbol
_atom_site_label
_atom_site_fract_x
_atom_site_fract_y
_atom_site_fract_z
Si Si1 0.565290 0.925420 0.226086
Si Si2 0.427088 0.381974 0.439288
Si Si3 0.481860 0.250000 0.750000
Si Si4 0.766176 0.942262 0.060565
Si Si5 0.693041 0.539621 0.808818
Si Si6 0.651074 0.288814 0.131065
Si Si7 0.350162 0.717724 0.962209
O O1 0.563243 0.918861 0.139679
O O2 0.538530 0.834361 0.253424
O O3 0.500000 0.000000 0.245053
O O4 0.650064 0.963335 0.265642
O O5 0.500000 0.400780 0.500000
O O6 0.329101 0.409026 0.465347
O O7 0.417658 0.282849 0.429922
O O8 0.417274 0.241349 0.818388
O O9 0.751290 0.997463 0.129222
O O10 0.839265 0.871871 0.072365
O O11 0.803729 0.000000 0.000000
O O12 0.750000 0.586213 0.750000
O O13 0.641683 0.614877 0.845672
O O14 0.750000 0.250000 0.140080
O O15 0.632685 0.284962 0.046731
O O16 0.250000 0.750000 0.952461
#
# Coordination Sequence:
#
# PCOD9328853 Si02
#       7
#    16  16   8  16  16  16  16
#     4  12  28  45  67 103 148 194 240 299 371 439
#     4  11  25  43  69 103 141 182 237 307 367 431
#     4  12  25  44  65 100 142 182 240 300 365 430
#     4  11  23  42  72 100 138 188 241 294 363 439
#     4  12  24  45  68 102 147 191 243 299 365 450
#     4  11  22  41  72 102 136 180 241 310 361 431
#     4   9  21  42  65  97 132 179 235 287 355 434
#
# _framework density 22.619807999999999
#
# number of rings (size 3 to 8) (size 9 to 14) (size 15 to 20)
#    0.000    0.923    4.615    2.077    4.308    0.000 
#    0.000    0.385    0.000    0.000    0.000    0.000 
#    0.000    0.000    0.000    0.000    0.000    0.000 
#
# Total GULP energy -145047.377560 kJ/mol
# GULP energy per Si atom -5578.745291 kJ/mol
# Density = 2.256832 g / cm^3
# Si number density = 22.619808 Si / 1000 Ang^3
#
#
#
# Elastic Constant Matrix: (Units=GPa)
#
#
# Indices 1 2 3 4 5 6 
#
# 1 55.6403 21.9829 11.5956 0.0000 0.0000 0.0000
# 2 21.9829 117.9993 7.8047 0.0000 0.0000 0.0000
# 3 11.5956 7.8047 71.2433 0.0000 0.0000 0.0000
# 4 0.0000 0.0000 0.0000 101.6217 0.0000 0.0000
# 5 0.0000 0.0000 0.0000 0.0000 12.9005 0.0000
# 6 0.0000 0.0000 0.0000 0.0000 0.0000 27.6058
#
#
#
# Elastic Compliance Matrix: (Units=1/GPa)
#
#
# Indices 1 2 3 4 5 6 
#
# 1 0.019964 -0.003530 -0.002863 0.000000 0.000000 0.000000
# 2 -0.003530 0.009161 -0.000429 0.000000 0.000000 0.000000
# 3 -0.002863 -0.000429 0.014549 0.000000 0.000000 0.000000
# 4 0.000000 0.000000 0.000000 0.009840 0.000000 0.000000
# 5 0.000000 0.000000 0.000000 0.000000 0.077517 0.000000
# 6 0.000000 0.000000 0.000000 0.000000 0.000000 0.036224
#
#
# Mechanical properties :
#
#
# Convention : Reuss Voigt Hill
#
# Bulk Modulus (GPa) = 33.29924 36.40547 34.85236
# Shear Modulus (GPa) = 26.19060 41.99224 34.09142
#
# Velocity S-wave (km/s) = 3.40643 4.31331 3.88641
# Velocity P-wave (km/s) = 5.49772 6.39810 5.96492
#
# Compressibility (1/GPa) = 0.03003071
#
# Stress axis : x y z
#
# Youngs Moduli (GPa) = 50.09074 109.16313 68.73167
#
# Poissons Ratio (x) = 0.38533 0.19675
# Poissons Ratio (y) = 0.17681 0.02949
# Poissons Ratio (z) = 0.14339 0.04683
#
# Static dielectric constant tensor:
#      x y z
#    x 0.740470 0.000000 0.000000 
#    y 0.000000 1.914920 0.000000 
#    z 0.000000 0.000000 1.803160 
# 
# From -- ./inp_files/44272.got.cif
#   From: 2010.05.17/outbox.cif.g08.bks.cpg/sg22_23_cif.got.tgz:44272.got - 2010.06.03 23:40:54.
