data_PCOD9328542
_publ_section_title
;
Structure prediction by ZEFSAII (Michael W. Deem and Ramdas Pophale) SiO2 
 PCOD9328542
Probable space group: F 2 2 2
;
_chemical_formula_sum "Si O2"
_cell_formula_units_Z 56
_cell_length_a 14.249220
_cell_length_b 31.417174
_cell_length_c 5.304631
_cell_angle_alpha 90.000000
_cell_angle_beta 90.000000
_cell_angle_gamma 90.000000
_cell_volume 2374.725349
_symmetry_space_group_name_H-M "F 2 2 2"
_symmetry_group_IT_number 22
_symmetry_cell_setting 'orthorhombic'
loop_
_space_group_symop_operation_xyz
x,y,z
-x,-y,z
x,-y,-z
-x,y,-z
x,1/2+y,1/2+z
-x,1/2-y,1/2+z
x,1/2-y,1/2-z
-x,1/2+y,1/2-z
1/2+x,y,1/2+z
1/2-x,-y,1/2+z
1/2+x,-y,1/2-z
1/2-x,y,1/2-z
1/2+x,1/2+y,z
1/2-x,1/2-y,z
1/2+x,1/2-y,-z
1/2-x,1/2+y,-z
loop_
_atom_site_type_symbol
_atom_site_label
_atom_site_fract_x
_atom_site_fract_y
_atom_site_fract_z
Si Si1 0.250000 0.250000 0.750000
Si Si2 0.854050 0.039734 0.159798
Si Si3 0.613443 0.184194 0.995860
Si Si4 0.000000 0.000000 0.500000
Si Si5 0.388148 0.868631 0.495592
O O1 0.320361 0.223528 0.931388
O O2 0.750000 0.031186 0.250000
O O3 0.851396 0.083477 0.006191
O O4 0.928055 0.035112 0.382374
O O5 0.887271 0.000000 0.000000
O O6 0.634385 0.151968 0.225816
O O7 0.500000 0.194094 0.000000
O O8 0.636864 0.161586 0.730545
O O9 0.500000 0.872313 0.500000
#
# Coordination Sequence:
#
# PCOD9328542 Si02
#       5
#     4  16  16   4  16
#     4  12  28  54  84 120 152 210 256 330 420 484
#     4  12  27  47  75 114 159 212 268 327 383 466
#     4  10  26  49  78 116 153 202 254 329 392 481
#     4  12  26  48  76 112 156 228 258 332 390 446
#     4  10  24  48  77 110 159 204 259 322 392 458
#
# _framework density 23.581675000000001
#
# number of rings (size 3 to 8) (size 9 to 14) (size 15 to 20)
#    0.000    1.143    1.429    2.143   12.000    6.857 
#    0.000    0.000    0.000    0.000    0.000    0.000 
#    0.000    0.000    0.000    0.000    0.000    0.000 
#
# Total GULP energy -78271.057310 kJ/mol
# GULP energy per Si atom -5590.789808 kJ/mol
# Density = 2.352800 g / cm^3
# Si number density = 23.581675 Si / 1000 Ang^3
#
#
#
# Elastic Constant Matrix: (Units=GPa)
#
#
# Indices 1 2 3 4 5 6 
#
# 1 136.1265 14.0305 8.9903 -0.0002 -0.0002 0.0001
# 2 14.0305 88.2348 1.5181 -0.0003 0.0002 0.0000
# 3 8.9903 1.5181 74.4134 -0.0007 -0.0005 0.0000
# 4 -0.0002 -0.0003 -0.0007 94.0311 -0.0003 -0.0003
# 5 -0.0002 0.0002 -0.0005 -0.0003 6.7258 0.0000
# 6 0.0001 0.0000 0.0000 -0.0003 0.0000 43.9223
#
#
#
# Elastic Compliance Matrix: (Units=1/GPa)
#
#
# Indices 1 2 3 4 5 6 
#
# 1 0.007526 -0.001182 -0.000885 0.000000 0.000000 0.000000
# 2 -0.001182 0.011523 -0.000092 0.000000 0.000000 0.000000
# 3 -0.000885 -0.000092 0.013547 0.000000 0.000001 0.000000
# 4 0.000000 0.000000 0.000000 0.010635 0.000000 0.000000
# 5 0.000000 0.000000 0.000001 0.000000 0.148682 0.000000
# 6 0.000000 0.000000 0.000000 0.000000 0.000000 0.022767
#
#
# Mechanical properties :
#
#
# Convention : Reuss Voigt Hill
#
# Bulk Modulus (GPa) = 35.36277 38.65027 37.00652
# Shear Modulus (GPa) = 21.88904 47.21822 34.55363
#
# Velocity S-wave (km/s) = 3.04998 4.47959 3.83204
# Velocity P-wave (km/s) = 5.23752 6.57124 5.94192
#
# Compressibility (1/GPa) = 0.02827832
#
# Stress axis : x y z
#
# Youngs Moduli (GPa) = 132.86647 86.78399 73.81566
#
# Poissons Ratio (x) = 0.10254 0.06534
# Poissons Ratio (y) = 0.15699 0.00681
# Poissons Ratio (z) = 0.11761 0.00801
#
# Static dielectric constant tensor:
#      x y z
#    x 1.824980 0.000000 0.000000 
#    y 0.000000 6.185200 0.000000 
#    z 0.000000 0.000000 1.902490 
# 
# From -- ./inp_files/1934.got.cif
#   From: 2010.05.17/outbox.cif.g08.bks.cpg/sg22_1_cif.got.tgz:1934.got - 2010.06.03 23:40:54.
