data_PCOD9328935
_publ_section_title
;
Structure prediction by ZEFSAII (Michael W. Deem and Ramdas Pophale) SiO2 
 PCOD9328935
Probable space group: F 2 2 2
;
_chemical_formula_sum "Si O2"
_cell_formula_units_Z 40
_cell_length_a 13.425649
_cell_length_b 4.948003
_cell_length_c 26.064868
_cell_angle_alpha 90.000000
_cell_angle_beta 90.000000
_cell_angle_gamma 90.000000
_cell_volume 1731.493131
_symmetry_space_group_name_H-M "F 2 2 2"
_symmetry_group_IT_number 22
_symmetry_cell_setting 'orthorhombic'
loop_
_space_group_symop_operation_xyz
x,y,z
-x,-y,z
x,-y,-z
-x,y,-z
x,1/2+y,1/2+z
-x,1/2-y,1/2+z
x,1/2-y,1/2-z
-x,1/2+y,1/2-z
1/2+x,y,1/2+z
1/2-x,-y,1/2+z
1/2+x,-y,1/2-z
1/2-x,y,1/2-z
1/2+x,1/2+y,z
1/2-x,1/2-y,z
1/2+x,1/2-y,-z
1/2-x,1/2+y,-z
loop_
_atom_site_type_symbol
_atom_site_label
_atom_site_fract_x
_atom_site_fract_y
_atom_site_fract_z
Si Si1 0.380373 0.494246 0.715670
Si Si2 0.250000 0.250000 0.535725
Si Si3 0.427768 0.258677 0.611093
O O1 0.500000 0.500000 0.714852
O O2 0.348791 0.250000 0.750000
O O3 0.363810 0.406210 0.656864
O O4 0.351127 0.750000 0.750000
O O5 0.278280 0.500000 0.500000
O O6 0.345836 0.171083 0.570021
O O7 0.500000 0.500000 0.592179
O O8 0.500000 0.000000 0.626625
#
# Coordination Sequence:
#
# PCOD9328935 Si02
#       3
#    16   8  16
#     4   9  16  30  57  90 124 163 203 249 311 382
#     4  12  28  46  67  98 133 172 230 292 336 388
#     4  11  23  42  69  97 132 177 221 272 336 401
#
# _framework density 23.10145
#
# number of rings (size 3 to 8) (size 9 to 14) (size 15 to 20)
#    0.000    1.600    0.000    8.400    0.000    4.800 
#    0.000    1.000    0.000   19.200    0.000    0.000 
#    0.000    0.000    0.000    0.000    0.000    0.000 
#
# Total GULP energy -55706.483903 kJ/mol
# GULP energy per Si atom -5570.648390 kJ/mol
# Density = 2.304887 g / cm^3
# Si number density = 23.101450 Si / 1000 Ang^3
#
#
#
# Elastic Constant Matrix: (Units=GPa)
#
#
# Indices 1 2 3 4 5 6 
#
# 1 85.5726 -2.6666 29.6566 0.0000 0.0000 0.0000
# 2 -2.6666 161.0934 28.8645 0.0000 0.0000 0.0000
# 3 29.6566 28.8645 110.8088 0.0000 0.0000 0.0000
# 4 0.0000 0.0000 0.0000 36.5379 0.0000 0.0000
# 5 0.0000 0.0000 0.0000 0.0000 -199.8604 0.0000
# 6 0.0000 0.0000 0.0000 0.0000 0.0000 20.0543
#
#
#
# Elastic Compliance Matrix: (Units=1/GPa)
#
#
# Indices 1 2 3 4 5 6 
#
# 1 0.012998 0.000880 -0.003708 0.000000 0.000000 0.000000
# 2 0.000880 0.006571 -0.001947 0.000000 0.000000 0.000000
# 3 -0.003708 -0.001947 0.010524 0.000000 0.000000 0.000000
# 4 0.000000 0.000000 0.000000 0.027369 0.000000 0.000000
# 5 0.000000 0.000000 0.000000 0.000000 -0.005003 0.000000
# 6 0.000000 0.000000 0.000000 0.000000 0.000000 0.049865
#
#
# Mechanical properties :
#
#
# Convention : Reuss Voigt Hill
#
# Bulk Modulus (GPa) = 48.67935 52.13152 50.40544
# Shear Modulus (GPa) = 42.11520 -8.54560 16.78480
#
# Velocity S-wave (km/s) = 4.27436 -1.92541 2.69842
# Velocity P-wave (km/s) = 6.74373 4.20386 5.61918
#
# Compressibility (1/GPa) = 0.02054259
#
# Stress axis : x y z
#
# Youngs Moduli (GPa) = 76.93223 152.18352 95.01958
#
# Poissons Ratio (x) = -0.13385 0.35233
# Poissons Ratio (y) = -0.06767 0.18501
# Poissons Ratio (z) = 0.28526 0.29631
#
# Static dielectric constant tensor:
#      x y z
#    x 1.808900 0.000000 0.000000 
#    y 0.000000 2.021890 0.000000 
#    z 0.000000 0.000000 1.924060 
# 
# From -- ./inp_files/1460.got.cif
#   From: 2010.05.17/outbox.cif.g08.bks.cpg/sg22_1_cif.got.tgz:1460.got - 2010.06.03 23:40:54.
