data_PCOD9328635
_publ_section_title
;
Structure prediction by ZEFSAII (Michael W. Deem and Ramdas Pophale) SiO2 
 PCOD9328635
Probable space group: F 2 2 2
;
_chemical_formula_sum "Si O2"
_cell_formula_units_Z 28
_cell_length_a 4.815905
_cell_length_b 8.830634
_cell_length_c 26.850404
_cell_angle_alpha 90.000000
_cell_angle_beta 90.000000
_cell_angle_gamma 90.000000
_cell_volume 1141.880407
_symmetry_space_group_name_H-M "F 2 2 2"
_symmetry_group_IT_number 22
_symmetry_cell_setting 'orthorhombic'
loop_
_space_group_symop_operation_xyz
x,y,z
-x,-y,z
x,-y,-z
-x,y,-z
x,1/2+y,1/2+z
-x,1/2-y,1/2+z
x,1/2-y,1/2-z
-x,1/2+y,1/2-z
1/2+x,y,1/2+z
1/2-x,-y,1/2+z
1/2+x,-y,1/2-z
1/2-x,y,1/2-z
1/2+x,1/2+y,z
1/2-x,1/2-y,z
1/2+x,1/2-y,-z
1/2-x,1/2+y,-z
loop_
_atom_site_type_symbol
_atom_site_label
_atom_site_fract_x
_atom_site_fract_y
_atom_site_fract_z
Si Si1 0.500000 0.500000 0.393260
Si Si2 0.750000 0.250000 0.463118
Si Si3 0.750000 0.750000 0.177704
Si Si4 0.750000 0.750000 0.750000
O O1 0.682218 0.392690 0.428470
O O2 0.663344 0.612469 0.357200
O O3 0.500000 0.215292 0.500000
O O4 0.485930 0.693298 0.210659
#
# Coordination Sequence:
#
# PCOD9328635 Si02
#       4
#     8   8   8   4
#     4  12  29  52  80 114 156 204 256 316 383 456
#     4  12  30  52  79 115 156 203 257 318 382 454
#     4  11  27  50  79 115 156 203 255 316 383 455
#     4  10  26  50  80 114 156 200 256 316 382 454
#
# _framework density 24.520956000000002
#
# number of rings (size 3 to 8) (size 9 to 14) (size 15 to 20)
#    0.000    0.571    0.000    4.286    0.000   32.000 
#    0.000    0.000    0.000    0.000    0.000    0.000 
#    0.000    0.000    0.000    0.000    0.000    0.000 
#
# Total GULP energy -39167.905827 kJ/mol
# GULP energy per Si atom -5595.415118 kJ/mol
# Density = 2.446515 g / cm^3
# Si number density = 24.520956 Si / 1000 Ang^3
#
#
#
# Elastic Constant Matrix: (Units=GPa)
#
#
# Indices 1 2 3 4 5 6 
#
# 1 206.8309 84.6606 125.1155 0.0000 0.0000 0.0000
# 2 84.6606 208.8996 124.6770 0.0000 0.0000 0.0000
# 3 125.1155 124.6770 228.0994 0.0000 0.0000 0.0000
# 4 0.0000 0.0000 0.0000 4.8216 0.0000 0.0000
# 5 0.0000 0.0000 0.0000 0.0000 32.5147 0.0000
# 6 0.0000 0.0000 0.0000 0.0000 0.0000 43.0614
#
#
#
# Elastic Compliance Matrix: (Units=1/GPa)
#
#
# Indices 1 2 3 4 5 6 
#
# 1 0.007336 -0.000848 -0.003560 0.000000 0.000000 0.000000
# 2 -0.000848 0.007203 -0.003472 0.000000 0.000000 0.000000
# 3 -0.003560 -0.003472 0.008234 0.000000 0.000000 0.000000
# 4 0.000000 0.000000 0.000000 0.207402 0.000000 0.000000
# 5 0.000000 0.000000 0.000000 0.000000 0.030755 0.000000
# 6 0.000000 0.000000 0.000000 0.000000 0.000000 0.023223
#
#
# Mechanical properties :
#
#
# Convention : Reuss Voigt Hill
#
# Bulk Modulus (GPa) = 142.59555 145.85957 144.22756
# Shear Modulus (GPa) = 16.54259 36.70465 26.62362
#
# Velocity S-wave (km/s) = 2.60018 3.87314 3.29865
# Velocity P-wave (km/s) = 8.20325 8.92269 8.57052
#
# Compressibility (1/GPa) = 0.00701284
#
# Stress axis : x y z
#
# Youngs Moduli (GPa) = 136.32186 138.83603 121.44131
#
# Poissons Ratio (x) = 0.11775 0.43234
# Poissons Ratio (y) = 0.11562 0.42161
# Poissons Ratio (z) = 0.48532 0.48200
#
# Static dielectric constant tensor:
#      x y z
#    x 1.924600 0.000000 0.000000 
#    y 0.000000 1.868010 0.000000 
#    z 0.000000 0.000000 1.912260 
# 
# From -- ./inp_files/210.got.cif
#   From: 2010.05.17/outbox.cif.g08.bks.cpg/sg22_1_cif.got.tgz:210.got - 2010.06.03 23:40:54.
