data_PCOD9328532
_publ_section_title
;
Structure prediction by ZEFSAII (Michael W. Deem and Ramdas Pophale) SiO2 
 PCOD9328532
Probable space group: F 2 2 2
;
_chemical_formula_sum "Si O2"
_cell_formula_units_Z 112
_cell_length_a 14.320839
_cell_length_b 14.675683
_cell_length_c 26.502720
_cell_angle_alpha 90.000000
_cell_angle_beta 90.000000
_cell_angle_gamma 90.000000
_cell_volume 5570.026134
_symmetry_space_group_name_H-M "F 2 2 2"
_symmetry_group_IT_number 22
_symmetry_cell_setting 'orthorhombic'
loop_
_space_group_symop_operation_xyz
x,y,z
-x,-y,z
x,-y,-z
-x,y,-z
x,1/2+y,1/2+z
-x,1/2-y,1/2+z
x,1/2-y,1/2-z
-x,1/2+y,1/2-z
1/2+x,y,1/2+z
1/2-x,-y,1/2+z
1/2+x,-y,1/2-z
1/2-x,y,1/2-z
1/2+x,1/2+y,z
1/2-x,1/2-y,z
1/2+x,1/2-y,-z
1/2-x,1/2+y,-z
loop_
_atom_site_type_symbol
_atom_site_label
_atom_site_fract_x
_atom_site_fract_y
_atom_site_fract_z
Si Si1 0.086864 0.433772 0.613998
Si Si2 0.519465 0.242932 0.626382
Si Si3 0.121836 0.824980 0.293834
Si Si4 0.276631 0.146706 0.897796
Si Si5 0.153798 0.807514 0.793538
Si Si6 0.352745 0.979390 0.271659
Si Si7 0.021759 0.398728 0.940967
O O1 0.045374 0.334292 0.603224
O O2 0.192536 0.425039 0.592446
O O3 0.109077 0.449182 0.673576
O O4 0.000000 0.500000 0.599926
O O5 0.459830 0.284288 0.672089
O O6 0.606547 0.195193 0.652273
O O7 0.538940 0.323394 0.587993
O O8 0.145159 0.750000 0.250000
O O9 0.199410 0.846775 0.337385
O O10 0.088440 0.918728 0.267515
O O11 0.250000 0.250000 0.912132
O O12 0.370945 0.120757 0.926679
O O13 0.102444 0.750000 0.750000
O O14 0.250000 0.750000 0.799157
O O15 0.153367 0.911388 0.774761
O O16 0.250000 0.951806 0.250000
O O17 0.000000 0.500000 0.922497
O O18 0.000000 0.393997 0.000000
#
# Coordination Sequence:
#
# PCOD9328532 Si02
#       7
#    16  16  16  16  16  16  16
#     4  12  23  37  64  98 139 183 224 283 328 398
#     4  11  23  40  63  94 131 173 224 285 339 398
#     4  11  21  33  58  96 131 176 244 276 315 381
#     4  11  21  40  71  98 135 187 224 282 337 399
#     4  11  24  40  53  80 134 185 225 272 333 398
#     4  12  22  35  56  85 129 189 237 270 319 376
#     4  10  24  47  76 103 131 159 223 289 353 426
#
# _framework density 20.107626
#
# number of rings (size 3 to 8) (size 9 to 14) (size 15 to 20)
#    0.000    0.857    8.571    0.429    0.000    3.429 
#    0.000    1.429    3.143    0.429    0.000    0.000 
#    0.000    0.000    0.000    0.000    0.000    0.000 
#
# Total GULP energy -155932.102734 kJ/mol
# GULP energy per Si atom -5569.003669 kJ/mol
# Density = 2.006186 g / cm^3
# Si number density = 20.107626 Si / 1000 Ang^3
#
#
#
# Elastic Constant Matrix: (Units=GPa)
#
#
# Indices 1 2 3 4 5 6 
#
# 1 82.4614 26.7884 21.0292 0.0000 0.0000 0.0000
# 2 26.7884 131.2354 33.8354 0.0000 0.0000 0.0000
# 3 21.0292 33.8354 44.8554 0.0000 0.0000 0.0000
# 4 0.0000 0.0000 0.0000 24.4414 0.0000 0.0000
# 5 0.0000 0.0000 0.0000 0.0000 11.6689 0.0000
# 6 0.0000 0.0000 0.0000 0.0000 0.0000 37.7693
#
#
#
# Elastic Compliance Matrix: (Units=1/GPa)
#
#
# Indices 1 2 3 4 5 6 
#
# 1 0.013991 -0.001446 -0.005469 0.000000 0.000000 0.000000
# 2 -0.001446 0.009609 -0.006570 0.000000 0.000000 0.000000
# 3 -0.005469 -0.006570 0.029814 0.000000 0.000000 0.000000
# 4 0.000000 0.000000 0.000000 0.040914 0.000000 0.000000
# 5 0.000000 0.000000 0.000000 0.000000 0.085698 0.000000
# 6 0.000000 0.000000 0.000000 0.000000 0.000000 0.026476
#
#
# Mechanical properties :
#
#
# Convention : Reuss Voigt Hill
#
# Bulk Modulus (GPa) = 37.81568 46.87313 42.34441
# Shear Modulus (GPa) = 20.63664 26.56921 23.60292
#
# Velocity S-wave (km/s) = 3.20708 3.63898 3.42984
# Velocity P-wave (km/s) = 5.70625 6.40453 6.06545
#
# Compressibility (1/GPa) = 0.02644406
#
# Stress axis : x y z
#
# Youngs Moduli (GPa) = 71.47326 104.06849 33.54149
#
# Poissons Ratio (x) = 0.15049 0.18343
# Poissons Ratio (y) = 0.10335 0.22038
# Poissons Ratio (z) = 0.39086 0.68377
#
# Static dielectric constant tensor:
#      x y z
#    x 1.828080 0.000000 0.000000 
#    y 0.000000 1.739610 0.000000 
#    z 0.000000 0.000000 1.707230 
# 
# From -- ./inp_files/53221.got.cif
#   From: 2010.05.17/outbox.cif.g08.bks.cpg/sg22_27_cif.got.tgz:53221.got - 2010.06.03 23:40:54.
