data_PCOD9328471
_publ_section_title
;
Structure prediction by ZEFSAII (Michael W. Deem and Ramdas Pophale) SiO2 
 PCOD9328471
Probable space group: F 2 2 2
;
_chemical_formula_sum "Si O2"
_cell_formula_units_Z 96
_cell_length_a 22.784905
_cell_length_b 17.351341
_cell_length_c 11.309001
_cell_angle_alpha 90.000000
_cell_angle_beta 90.000000
_cell_angle_gamma 90.000000
_cell_volume 4470.998350
_symmetry_space_group_name_H-M "F 2 2 2"
_symmetry_group_IT_number 22
_symmetry_cell_setting 'orthorhombic'
loop_
_space_group_symop_operation_xyz
x,y,z
-x,-y,z
x,-y,-z
-x,y,-z
x,1/2+y,1/2+z
-x,1/2-y,1/2+z
x,1/2-y,1/2-z
-x,1/2+y,1/2-z
1/2+x,y,1/2+z
1/2-x,-y,1/2+z
1/2+x,-y,1/2-z
1/2-x,y,1/2-z
1/2+x,1/2+y,z
1/2-x,1/2-y,z
1/2+x,1/2-y,-z
1/2-x,1/2+y,-z
loop_
_atom_site_type_symbol
_atom_site_label
_atom_site_fract_x
_atom_site_fract_y
_atom_site_fract_z
Si Si1 0.404668 0.925704 0.938947
Si Si2 0.506144 0.211145 0.871768
Si Si3 0.194966 0.406931 0.667792
Si Si4 0.319431 0.073608 0.282686
Si Si5 0.870329 0.821909 0.629470
Si Si6 0.693978 0.799359 0.458519
O O1 0.452209 0.861345 0.901983
O O2 0.361152 0.935707 0.829948
O O3 0.364466 0.895544 0.045960
O O4 0.433010 0.000000 0.000000
O O5 0.527923 0.250000 0.750000
O O6 0.439107 0.188100 0.846129
O O7 0.500000 0.254911 0.000000
O O8 0.250000 0.421008 0.750000
O O9 0.169853 0.492528 0.648731
O O10 0.158645 0.344403 0.746085
O O11 0.214301 0.366201 0.548195
O O12 0.250000 0.081981 0.250000
O O13 0.335217 0.152019 0.353540
O O14 0.845810 0.755443 0.541875
O O15 0.750000 0.750000 0.418092
#
# Coordination Sequence:
#
# PCOD9328471 Si02
#       6
#    16  16  16  16  16  16
#     4  11  24  46  69  97 134 184 232 288 349 433
#     4  10  24  43  71 103 138 181 239 302 361 415
#     4  11  22  41  64  94 138 187 226 281 343 421
#     4  11  26  41  65  96 142 179 224 286 356 415
#     4  11  23  41  69  98 136 178 235 287 350 412
#     4  12  24  39  65 101 138 180 232 281 352 417
#
# _framework density 21.471715
#
# number of rings (size 3 to 8) (size 9 to 14) (size 15 to 20)
#    0.000    1.000    3.333    3.000    4.667    4.667 
#    0.000    0.000    0.000    0.000    0.000    7.000 
#    0.000    0.000    0.000    0.000    0.000    0.000 
#
# Total GULP energy -133766.041373 kJ/mol
# GULP energy per Si atom -5573.585057 kJ/mol
# Density = 2.142284 g / cm^3
# Si number density = 21.471715 Si / 1000 Ang^3
#
#
#
# Elastic Constant Matrix: (Units=GPa)
#
#
# Indices 1 2 3 4 5 6 
#
# 1 78.0826 22.0942 18.2226 0.0000 0.0000 0.0000
# 2 22.0942 112.2697 59.1634 0.0000 0.0000 0.0000
# 3 18.2226 59.1634 123.0272 0.0000 0.0000 0.0000
# 4 0.0000 0.0000 0.0000 39.9500 0.0000 0.0000
# 5 0.0000 0.0000 0.0000 0.0000 15.0618 0.0000
# 6 0.0000 0.0000 0.0000 0.0000 0.0000 -16.3554
#
#
#
# Elastic Compliance Matrix: (Units=1/GPa)
#
#
# Indices 1 2 3 4 5 6 
#
# 1 0.013649 -0.002171 -0.000978 0.000000 0.000000 0.000000
# 2 -0.002171 0.012276 -0.005582 0.000000 0.000000 0.000000
# 3 -0.000978 -0.005582 0.010957 0.000000 0.000000 0.000000
# 4 0.000000 0.000000 0.000000 0.025031 0.000000 0.000000
# 5 0.000000 0.000000 0.000000 0.000000 0.066393 0.000000
# 6 0.000000 0.000000 0.000000 0.000000 0.000000 -0.061142
#
#
# Mechanical properties :
#
#
# Convention : Reuss Voigt Hill
#
# Bulk Modulus (GPa) = 51.48895 56.92665 54.20780
# Shear Modulus (GPa) = 54.88489 21.99125 38.43807
#
# Velocity S-wave (km/s) = 5.06132 3.20378 4.23563
# Velocity P-wave (km/s) = 7.62810 6.34473 7.01582
#
# Compressibility (1/GPa) = 0.01942164
#
# Stress axis : x y z
#
# Youngs Moduli (GPa) = 73.26322 81.46078 91.26246
#
# Poissons Ratio (x) = 0.17684 0.08923
# Poissons Ratio (y) = 0.15905 0.50941
# Poissons Ratio (z) = 0.07163 0.45470
#
# Static dielectric constant tensor:
#      x y z
#    x 1.778510 0.000000 0.000000 
#    y 0.000000 1.933090 0.000000 
#    z 0.000000 0.000000 1.905900 
# 
# From -- ./inp_files/23773.got.cif
#   From: 2010.05.17/outbox.cif.g08.bks.cpg/sg22_12_cif.got.tgz:23773.got - 2010.06.03 23:40:54.
