data_PCOD9328803
_publ_section_title
;
Structure prediction by ZEFSAII (Michael W. Deem and Ramdas Pophale) SiO2 
 PCOD9328803
Probable space group: F 2 2 2
;
_chemical_formula_sum "Si O2"
_cell_formula_units_Z 112
_cell_length_a 14.419436
_cell_length_b 23.915641
_cell_length_c 14.795796
_cell_angle_alpha 90.000000
_cell_angle_beta 90.000000
_cell_angle_gamma 90.000000
_cell_volume 5102.331061
_symmetry_space_group_name_H-M "F 2 2 2"
_symmetry_group_IT_number 22
_symmetry_cell_setting 'orthorhombic'
loop_
_space_group_symop_operation_xyz
x,y,z
-x,-y,z
x,-y,-z
-x,y,-z
x,1/2+y,1/2+z
-x,1/2-y,1/2+z
x,1/2-y,1/2-z
-x,1/2+y,1/2-z
1/2+x,y,1/2+z
1/2-x,-y,1/2+z
1/2+x,-y,1/2-z
1/2-x,y,1/2-z
1/2+x,1/2+y,z
1/2-x,1/2-y,z
1/2+x,1/2-y,-z
1/2-x,1/2+y,-z
loop_
_atom_site_type_symbol
_atom_site_label
_atom_site_fract_x
_atom_site_fract_y
_atom_site_fract_z
Si Si1 0.439316 0.055858 0.927994
Si Si2 0.348875 0.719201 0.504935
Si Si3 0.997697 0.390623 0.756438
Si Si4 0.995665 0.221756 0.651703
Si Si5 0.169031 0.462293 0.323794
Si Si6 0.672301 0.904323 0.671565
Si Si7 0.765482 0.399854 0.988517
O O1 0.436093 0.078153 0.828317
O O2 0.339688 0.055908 0.971752
O O3 0.500000 0.000000 0.917224
O O4 0.500000 0.090864 0.000000
O O5 0.250000 0.750000 0.492751
O O6 0.414089 0.744374 0.585369
O O7 0.412899 0.717473 0.413393
O O8 0.320617 0.656318 0.535390
O O9 0.920691 0.431163 0.716502
O O10 0.961499 0.339149 0.813798
O O11 0.074615 0.373241 0.685053
O O12 0.012133 0.250000 0.750000
O O13 0.250000 0.458242 0.250000
O O14 0.154082 0.528529 0.338751
O O15 0.205593 0.429113 0.411406
O O16 0.750000 0.895396 0.750000
O O17 0.708331 0.883372 0.576239
#
# Coordination Sequence:
#
# PCOD9328803 Si02
#       7
#    16  16  16  16  16  16  16
#     4  11  22  35  69  97 132 179 234 285 344 408
#     4  11  26  49  75 104 143 180 238 306 362 426
#     4  12  24  45  68  97 143 189 231 289 351 419
#     4  11  26  48  76 105 135 182 243 296 362 437
#     4  11  25  40  67 103 146 182 231 288 351 418
#     4  11  23  41  67 102 145 184 235 286 345 424
#     4  12  25  44  67 104 143 189 235 291 354 423
#
# _framework density 21.950751
#
# number of rings (size 3 to 8) (size 9 to 14) (size 15 to 20)
#    0.000    0.714    2.857    4.286   10.000    1.143 
#    0.000    1.429    0.000    0.000    0.000    0.000 
#    0.000    0.000    0.000    0.000    0.000    0.000 
#
# Total GULP energy -156187.129693 kJ/mol
# GULP energy per Si atom -5578.111775 kJ/mol
# Density = 2.190079 g / cm^3
# Si number density = 21.950751 Si / 1000 Ang^3
#
#
#
# Elastic Constant Matrix: (Units=GPa)
#
#
# Indices 1 2 3 4 5 6 
#
# 1 124.7977 11.2351 44.6075 0.0000 0.0000 0.0000
# 2 11.2351 52.8834 12.0201 0.0000 0.0000 0.0000
# 3 44.6075 12.0201 120.5076 0.0000 0.0000 0.0000
# 4 0.0000 0.0000 0.0000 24.2546 0.0000 0.0000
# 5 0.0000 0.0000 0.0000 0.0000 74.5368 0.0000
# 6 0.0000 0.0000 0.0000 0.0000 0.0000 32.4279
#
#
#
# Elastic Compliance Matrix: (Units=1/GPa)
#
#
# Indices 1 2 3 4 5 6 
#
# 1 0.009311 -0.001223 -0.003325 0.000000 0.000000 0.000000
# 2 -0.001223 0.019509 -0.001493 0.000000 0.000000 0.000000
# 3 -0.003325 -0.001493 0.009678 0.000000 0.000000 0.000000
# 4 0.000000 0.000000 0.000000 0.041229 0.000000 0.000000
# 5 0.000000 0.000000 0.000000 0.000000 0.013416 0.000000
# 6 0.000000 0.000000 0.000000 0.000000 0.000000 0.030838
#
#
# Mechanical properties :
#
#
# Convention : Reuss Voigt Hill
#
# Bulk Modulus (GPa) = 37.85491 48.21266 43.03379
# Shear Modulus (GPa) = 34.51415 41.59893 38.05654
#
# Velocity S-wave (km/s) = 3.96958 4.35800 4.16832
# Velocity P-wave (km/s) = 6.18813 6.88001 6.54322
#
# Compressibility (1/GPa) = 0.02641665
#
# Stress axis : x y z
#
# Youngs Moduli (GPa) = 107.39475 51.25920 103.32804
#
# Poissons Ratio (x) = 0.06266 0.34355
# Poissons Ratio (y) = 0.13129 0.15431
# Poissons Ratio (z) = 0.35707 0.07655
#
# Static dielectric constant tensor:
#      x y z
#    x 1.964110 0.000000 0.000000 
#    y 0.000000 1.141690 0.000000 
#    z 0.000000 0.000000 1.896560 
# 
# From -- ./inp_files/29602.got.cif
#   From: 2010.05.17/outbox.cif.g08.bks.cpg/sg22_15_cif.got.tgz:29602.got - 2010.06.03 23:40:54.
