data_PCOD9328456
_publ_section_title
;
Structure prediction by ZEFSAII (Michael W. Deem and Ramdas Pophale) SiO2 
 PCOD9328456
Probable space group: F 2 2 2
;
_chemical_formula_sum "Si O2"
_cell_formula_units_Z 104
_cell_length_a 25.246765
_cell_length_b 8.127719
_cell_length_c 20.565694
_cell_angle_alpha 90.000000
_cell_angle_beta 90.000000
_cell_angle_gamma 90.000000
_cell_volume 4220.051855
_symmetry_space_group_name_H-M "F 2 2 2"
_symmetry_group_IT_number 22
_symmetry_cell_setting 'orthorhombic'
loop_
_space_group_symop_operation_xyz
x,y,z
-x,-y,z
x,-y,-z
-x,y,-z
x,1/2+y,1/2+z
-x,1/2-y,1/2+z
x,1/2-y,1/2-z
-x,1/2+y,1/2-z
1/2+x,y,1/2+z
1/2-x,-y,1/2+z
1/2+x,-y,1/2-z
1/2-x,y,1/2-z
1/2+x,1/2+y,z
1/2-x,1/2-y,z
1/2+x,1/2-y,-z
1/2-x,1/2+y,-z
loop_
_atom_site_type_symbol
_atom_site_label
_atom_site_fract_x
_atom_site_fract_y
_atom_site_fract_z
Si Si1 0.973111 0.809672 0.343990
Si Si2 0.659038 0.763807 0.677928
Si Si3 0.203445 0.841275 0.541932
Si Si4 0.500000 0.000000 0.737166
Si Si5 0.569036 0.773514 0.573806
Si Si6 0.599291 0.659787 0.064188
Si Si7 0.750057 0.990605 0.175800
O O1 0.957883 0.950223 0.292258
O O2 0.002110 0.658490 0.306480
O O3 0.918394 0.749891 0.371500
O O4 0.016941 0.819755 0.400496
O O5 0.633345 0.750000 0.750000
O O6 0.617823 0.727255 0.620629
O O7 0.706646 0.634984 0.680828
O O8 0.690544 0.935667 0.665762
O O9 0.250000 0.750000 0.502642
O O10 0.160267 0.698373 0.552233
O O11 0.185396 0.000000 0.500000
O O12 0.227710 0.898618 0.611560
O O13 0.574118 0.746750 0.497421
O O14 0.575062 0.976251 0.572564
O O15 0.750000 0.920225 0.250000
#
# Coordination Sequence:
#
# PCOD9328456 Si02
#       7
#    16  16  16   8  16  16  16
#     4  11  23  46  68 102 142 180 231 287 344 423
#     4   9  19  35  66  99 132 172 227 283 338 423
#     4  12  28  44  69 100 140 185 237 300 358 417
#     4  10  24  42  70 102 138 182 228 286 348 398
#     4  11  22  40  70  98 134 184 231 277 350 417
#     4  11  25  43  66  99 137 183 231 286 353 416
#     4   9  20  42  63  95 135 176 227 286 352 411
#
# _framework density 24.644245999999999
#
# number of rings (size 3 to 8) (size 9 to 14) (size 15 to 20)
#    0.000    1.538    1.538    3.231    8.615    4.000 
#    2.769    2.308    0.000    0.000    0.000    0.000 
#    0.000    0.000    0.000    0.000    0.000    0.000 
#
# Total GULP energy -144787.003107 kJ/mol
# GULP energy per Si atom -5568.730889 kJ/mol
# Density = 2.458815 g / cm^3
# Si number density = 24.644246 Si / 1000 Ang^3
#
#
#
# Elastic Constant Matrix: (Units=GPa)
#
#
# Indices 1 2 3 4 5 6 
#
# 1 86.3412 9.9661 2.5682 0.0000 -0.0001 0.0000
# 2 9.9661 51.6724 30.5410 0.0000 -0.0002 0.0000
# 3 2.5682 30.5410 103.6239 0.0000 0.0000 0.0000
# 4 0.0000 0.0000 0.0000 30.8710 -0.0001 0.0000
# 5 -0.0001 -0.0002 0.0000 -0.0001 -190.1802 0.0001
# 6 0.0000 0.0000 0.0000 0.0000 0.0001 -1.0702
#
#
#
# Elastic Compliance Matrix: (Units=1/GPa)
#
#
# Indices 1 2 3 4 5 6 
#
# 1 0.011864 -0.002560 0.000461 0.000000 0.000000 0.000000
# 2 -0.002560 0.023988 -0.007006 0.000000 0.000000 0.000001
# 3 0.000461 -0.007006 0.011704 0.000000 0.000000 0.000000
# 4 0.000000 0.000000 0.000000 0.032393 0.000000 0.000001
# 5 0.000000 0.000000 0.000000 0.000000 -0.005258 0.000000
# 6 0.000000 0.000001 0.000000 0.000001 0.000000 -0.934445
#
#
# Mechanical properties :
#
#
# Convention : Reuss Voigt Hill
#
# Bulk Modulus (GPa) = 34.07983 36.42090 35.25037
# Shear Modulus (GPa) = -6.01134 -18.83839 -12.42486
#
# Velocity S-wave (km/s) = -1.56350 -2.76780 -2.24781
# Velocity P-wave (km/s) = 3.25566 2.14393 2.75643
#
# Compressibility (1/GPa) = 0.02934287
#
# Stress axis : x y z
#
# Youngs Moduli (GPa) = 84.29000 41.68806 85.44191
#
# Poissons Ratio (x) = 0.10674 -0.03935
# Poissons Ratio (y) = 0.21582 0.59864
# Poissons Ratio (z) = -0.03882 0.29208
#
# Static dielectric constant tensor:
#      x y z
#    x 1.983220 0.000000 0.000000 
#    y 0.000000 3.929650 0.000000 
#    z 0.000000 0.000000 2.013220 
# 
# From -- ./inp_files/45801.got.cif
#   From: 2010.05.17/outbox.cif.g08.bks.cpg/sg22_23_cif.got.tgz:45801.got - 2010.06.03 23:40:54.
