data_PCOD9328012
_publ_section_title
;
Structure prediction by ZEFSAII (Michael W. Deem and Ramdas Pophale) SiO2 
 PCOD9328012
Probable space group: F 2 2 2
;
_chemical_formula_sum "Si O2"
_cell_formula_units_Z 68
_cell_length_a 18.761980
_cell_length_b 28.398205
_cell_length_c 5.739908
_cell_angle_alpha 90.000000
_cell_angle_beta 90.000000
_cell_angle_gamma 90.000000
_cell_volume 3058.260603
_symmetry_space_group_name_H-M "F 2 2 2"
_symmetry_group_IT_number 22
_symmetry_cell_setting 'orthorhombic'
loop_
_space_group_symop_operation_xyz
x,y,z
-x,-y,z
x,-y,-z
-x,y,-z
x,1/2+y,1/2+z
-x,1/2-y,1/2+z
x,1/2-y,1/2-z
-x,1/2+y,1/2-z
1/2+x,y,1/2+z
1/2-x,-y,1/2+z
1/2+x,-y,1/2-z
1/2-x,y,1/2-z
1/2+x,1/2+y,z
1/2-x,1/2-y,z
1/2+x,1/2-y,-z
1/2-x,1/2+y,-z
loop_
_atom_site_type_symbol
_atom_site_label
_atom_site_fract_x
_atom_site_fract_y
_atom_site_fract_z
Si Si1 0.500000 0.779797 0.500000
Si Si2 0.172608 0.583180 0.146780
Si Si3 0.524533 0.946248 0.747649
Si Si4 0.349674 0.328768 0.929089
Si Si5 0.750000 0.750000 0.750000
Si Si6 0.750000 0.106246 0.750000
O O1 0.499130 0.750000 0.250000
O O2 0.428394 0.811916 0.498250
O O3 0.250000 0.574219 0.250000
O O4 0.109487 0.553850 0.249398
O O5 0.150555 0.637841 0.198143
O O6 0.190260 0.575718 0.878972
O O7 0.500000 0.924317 0.500000
O O8 0.500000 0.000000 0.748599
O O9 0.500000 0.925017 0.000000
O O10 0.302491 0.282721 0.894527
O O11 0.301187 0.360591 0.097340
#
# Coordination Sequence:
#
# PCOD9328012 Si02
#       6
#     8  16  16  16   4   8
#     4  12  30  44  60  96 139 180 241 298 352 412
#     4  10  23  43  68 105 136 185 239 293 350 428
#     4  10  24  46  72 106 143 184 228 284 364 430
#     4  11  25  42  64  96 135 190 237 297 349 416
#     4  12  20  46  60  92 140 186 246 286 358 404
#     4  10  22  41  70  96 133 186 252 289 358 406
#
# _framework density 22.234862
#
# number of rings (size 3 to 8) (size 9 to 14) (size 15 to 20)
#    0.000    1.412    4.706    0.000   14.824    0.000 
#    0.000    4.706    0.000    0.000    0.000    0.000 
#    0.000    0.000    0.000    0.000    0.000    0.000 
#
# Total GULP energy -94687.914627 kJ/mol
# GULP energy per Si atom -5569.877331 kJ/mol
# Density = 2.218425 g / cm^3
# Si number density = 22.234862 Si / 1000 Ang^3
#
#
#
# Elastic Constant Matrix: (Units=GPa)
#
#
# Indices 1 2 3 4 5 6 
#
# 1 213.1991 42.9867 44.0753 0.0017 0.0025 -0.0066
# 2 42.9867 40.9086 4.1301 0.0010 -0.0010 -0.0007
# 3 44.0753 4.1301 120.8858 0.0018 0.0020 -0.0126
# 4 0.0017 0.0010 0.0018 1.4335 -0.0011 -0.0024
# 5 0.0025 -0.0010 0.0020 -0.0011 39.8132 0.0038
# 6 -0.0066 -0.0007 -0.0126 -0.0024 0.0038 -0.1308
#
#
#
# Elastic Compliance Matrix: (Units=1/GPa)
#
#
# Indices 1 2 3 4 5 6 
#
# 1 0.006455 -0.006568 -0.002129 0.000000 0.000000 -0.000087
# 2 -0.006568 0.031212 0.001328 -0.000016 0.000001 0.000042
# 3 -0.002129 0.001328 0.009003 -0.000011 0.000000 -0.000764
# 4 0.000000 -0.000016 -0.000011 0.697586 0.000021 -0.012920
# 5 0.000000 0.000001 0.000000 0.000021 0.025117 0.000729
# 6 -0.000087 0.000042 -0.000764 -0.012920 0.000729 -7.644667
#
#
# Mechanical properties :
#
#
# Convention : Reuss Voigt Hill
#
# Bulk Modulus (GPa) = 31.31575 61.93087 46.62331
# Shear Modulus (GPa) = -0.72994 27.14327 13.20667
#
# Velocity S-wave (km/s) = -0.57358 3.49772 2.43978
# Velocity P-wave (km/s) = 3.69811 6.65023 5.38059
#
# Compressibility (1/GPa) = 0.03193281
#
# Stress axis : x y z
#
# Youngs Moduli (GPa) = 154.92239 32.03885 111.07318
#
# Poissons Ratio (x) = 0.21042 0.23648
# Poissons Ratio (y) = 1.01750 -0.14753
# Poissons Ratio (z) = 0.32984 -0.04256
#
# Static dielectric constant tensor:
#      x y z
#    x 1.770460 0.000000 0.000020 
#    y 0.000000 1.800000 -0.000020 
#    z 0.000020 -0.000020 2.361020 
# 
# From -- ./inp_files/3800.got.cif
#   From: 2010.05.17/outbox.cif.g08.bks.cpg/sg22_2_cif.got.tgz:3800.got - 2010.06.03 23:40:54.
