data_PCOD9328194
_publ_section_title
;
Structure prediction by ZEFSAII (Michael W. Deem and Ramdas Pophale) SiO2 
 PCOD9328194
Probable space group: F 2 2 2
;
_chemical_formula_sum "Si O2"
_cell_formula_units_Z 48
_cell_length_a 12.747965
_cell_length_b 16.811373
_cell_length_c 8.909826
_cell_angle_alpha 90.000000
_cell_angle_beta 90.000000
_cell_angle_gamma 90.000000
_cell_volume 1909.471890
_symmetry_space_group_name_H-M "F 2 2 2"
_symmetry_group_IT_number 22
_symmetry_cell_setting 'orthorhombic'
loop_
_space_group_symop_operation_xyz
x,y,z
-x,-y,z
x,-y,-z
-x,y,-z
x,1/2+y,1/2+z
-x,1/2-y,1/2+z
x,1/2-y,1/2-z
-x,1/2+y,1/2-z
1/2+x,y,1/2+z
1/2-x,-y,1/2+z
1/2+x,-y,1/2-z
1/2-x,y,1/2-z
1/2+x,1/2+y,z
1/2-x,1/2-y,z
1/2+x,1/2-y,-z
1/2-x,1/2+y,-z
loop_
_atom_site_type_symbol
_atom_site_label
_atom_site_fract_x
_atom_site_fract_y
_atom_site_fract_z
Si Si1 0.501734 0.663231 0.179560
Si Si2 0.193658 0.067087 0.890728
Si Si3 0.889361 0.591290 0.061731
O O1 0.506334 0.750000 0.250000
O O2 0.391003 0.619098 0.195988
O O3 0.591347 0.611161 0.263322
O O4 0.500000 0.669021 0.000000
O O5 0.250000 0.025006 0.750000
O O6 0.278242 0.117089 0.990044
O O7 0.147451 0.000000 0.000000
O O8 0.891052 0.500000 0.000000
O O9 0.000000 0.626473 0.000000
#
# Coordination Sequence:
#
# PCOD9328194 Si02
#       3
#    16  16  16
#     4  12  29  50  75 115 162 211 262 320 403 474
#     4  11  26  46  81 115 152 202 267 328 396 460
#     4  10  22  46  76 110 153 198 258 335 380 459
#
# _framework density 25.137843
#
# number of rings (size 3 to 8) (size 9 to 14) (size 15 to 20)
#    0.000    1.000    3.333    1.000    9.333    1.333 
#    0.000    1.667    0.000    0.000    0.000    0.000 
#    0.000    0.000    0.000    0.000    0.000    0.000 
#
# Total GULP energy -66928.179836 kJ/mol
# GULP energy per Si atom -5577.348320 kJ/mol
# Density = 2.508063 g / cm^3
# Si number density = 25.137843 Si / 1000 Ang^3
#
#
#
# Elastic Constant Matrix: (Units=GPa)
#
#
# Indices 1 2 3 4 5 6 
#
# 1 113.7150 41.4014 43.7878 0.0000 0.0000 0.0000
# 2 41.4014 117.1213 70.1957 0.0000 0.0000 0.0000
# 3 43.7878 70.1957 200.6838 0.0000 0.0000 0.0000
# 4 0.0000 0.0000 0.0000 43.2910 0.0000 0.0000
# 5 0.0000 0.0000 0.0000 0.0000 79.8321 0.0000
# 6 0.0000 0.0000 0.0000 0.0000 0.0000 -128.3185
#
#
#
# Elastic Compliance Matrix: (Units=1/GPa)
#
#
# Indices 1 2 3 4 5 6 
#
# 1 0.010329 -0.002911 -0.001236 0.000000 0.000000 0.000000
# 2 -0.002911 0.011623 -0.003430 0.000000 0.000000 0.000000
# 3 -0.001236 -0.003430 0.006452 0.000000 0.000000 0.000000
# 4 0.000000 0.000000 0.000000 0.023099 0.000000 0.000000
# 5 0.000000 0.000000 0.000000 0.000000 0.012526 0.000000
# 6 0.000000 0.000000 0.000000 0.000000 0.000000 -0.007793
#
#
# Mechanical properties :
#
#
# Convention : Reuss Voigt Hill
#
# Bulk Modulus (GPa) = 75.46456 82.47666 78.97061
# Shear Modulus (GPa) = 65.95548 17.36994 41.66271
#
# Velocity S-wave (km/s) = 5.12781 2.63152 4.07550
# Velocity P-wave (km/s) = 8.07123 6.48954 7.32321
#
# Compressibility (1/GPa) = 0.01325125
#
# Stress axis : x y z
#
# Youngs Moduli (GPa) = 96.81011 86.03543 154.97890
#
# Poissons Ratio (x) = 0.25043 0.19150
# Poissons Ratio (y) = 0.28180 0.53165
# Poissons Ratio (z) = 0.11963 0.29514
#
# Static dielectric constant tensor:
#      x y z
#    x 2.298640 0.000000 0.000000 
#    y 0.000000 1.971840 0.000000 
#    z 0.000000 0.000000 2.190730 
# 
# From -- ./inp_files/9089.got.cif
#   From: 2010.05.17/outbox.cif.g08.bks.cpg/sg22_5_cif.got.tgz:9089.got - 2010.06.03 23:40:54.
