data_PCOD9328670
_publ_section_title
;
Structure prediction by ZEFSAII (Michael W. Deem and Ramdas Pophale) SiO2 
 PCOD9328670
Probable space group: F 2 2 2
;
_chemical_formula_sum "Si O2"
_cell_formula_units_Z 52
_cell_length_a 11.610747
_cell_length_b 11.203306
_cell_length_c 15.609161
_cell_angle_alpha 90.000000
_cell_angle_beta 90.000000
_cell_angle_gamma 90.000000
_cell_volume 2030.420175
_symmetry_space_group_name_H-M "F 2 2 2"
_symmetry_group_IT_number 22
_symmetry_cell_setting 'orthorhombic'
loop_
_space_group_symop_operation_xyz
x,y,z
-x,-y,z
x,-y,-z
-x,y,-z
x,1/2+y,1/2+z
-x,1/2-y,1/2+z
x,1/2-y,1/2-z
-x,1/2+y,1/2-z
1/2+x,y,1/2+z
1/2-x,-y,1/2+z
1/2+x,-y,1/2-z
1/2-x,y,1/2-z
1/2+x,1/2+y,z
1/2-x,1/2-y,z
1/2+x,1/2-y,-z
1/2-x,1/2+y,-z
loop_
_atom_site_type_symbol
_atom_site_label
_atom_site_fract_x
_atom_site_fract_y
_atom_site_fract_z
Si Si1 0.289838 0.127187 0.348837
Si Si2 0.933289 0.656768 0.643013
Si Si3 0.382609 0.926631 0.166871
Si Si4 0.500000 0.500000 0.000000
O O1 0.250000 0.133359 0.250000
O O2 0.250000 0.250000 0.393300
O O3 0.428284 0.139006 0.345490
O O4 0.284854 0.010764 0.125975
O O5 0.895514 0.792763 0.631433
O O6 0.877425 0.603225 0.729853
O O7 0.919064 0.583236 0.556735
O O8 0.500000 0.000000 0.155323
#
# Coordination Sequence:
#
# PCOD9328670 Si02
#       4
#    16  16  16   4
#     4  11  18  33  67 103 137 180 234 292 352 411
#     4  11  23  40  67 101 146 187 232 299 354 427
#     4  11  19  39  70 105 133 182 248 294 341 414
#     4  12  24  48  62  88 150 206 208 298 388 412
#
# _framework density 25.610464
#
# number of rings (size 3 to 8) (size 9 to 14) (size 15 to 20)
#    0.000    0.923    7.692    1.846    0.000    0.000 
#    0.000   14.615    0.000    3.692    0.000    0.000 
#    0.000    0.000    0.000    0.000    0.000    0.000 
#
# Total GULP energy -72629.727619 kJ/mol
# GULP energy per Si atom -5586.902125 kJ/mol
# Density = 2.555217 g / cm^3
# Si number density = 25.610464 Si / 1000 Ang^3
#
#
#
# Elastic Constant Matrix: (Units=GPa)
#
#
# Indices 1 2 3 4 5 6 
#
# 1 191.2112 92.5592 27.4144 0.0000 0.0000 0.0000
# 2 92.5592 301.2876 67.4911 0.0000 0.0000 0.0000
# 3 27.4144 67.4911 70.0616 0.0000 0.0000 0.0000
# 4 0.0000 0.0000 0.0000 46.1646 0.0000 0.0000
# 5 0.0000 0.0000 0.0000 0.0000 18.1842 0.0000
# 6 0.0000 0.0000 0.0000 0.0000 0.0000 0.2115
#
#
#
# Elastic Compliance Matrix: (Units=1/GPa)
#
#
# Indices 1 2 3 4 5 6 
#
# 1 0.006174 -0.001729 -0.000751 0.000000 0.000000 0.000000
# 2 -0.001729 0.004716 -0.003867 0.000000 0.000000 0.000000
# 3 -0.000751 -0.003867 0.018292 0.000000 0.000000 0.000000
# 4 0.000000 0.000000 0.000000 0.021662 0.000000 0.000000
# 5 0.000000 0.000000 0.000000 0.000000 0.054993 0.000000
# 6 0.000000 0.000000 0.000000 0.000000 0.000000 4.727188
#
#
# Mechanical properties :
#
#
# Convention : Reuss Voigt Hill
#
# Bulk Modulus (GPa) = 60.64280 104.16556 82.40418
# Shear Modulus (GPa) = 1.03067 37.91845 19.47456
#
# Velocity S-wave (km/s) = 0.63507 3.85201 2.76055
# Velocity P-wave (km/s) = 4.92626 7.78109 6.51204
#
# Compressibility (1/GPa) = 0.01649000
#
# Stress axis : x y z
#
# Youngs Moduli (GPa) = 161.96363 212.02728 54.66885
#
# Poissons Ratio (x) = 0.36652 0.04104
# Poissons Ratio (y) = 0.27998 0.21140
# Poissons Ratio (z) = 0.12159 0.81990
#
# Static dielectric constant tensor:
#      x y z
#    x 2.072900 0.000000 0.000000 
#    y 0.000000 2.187990 0.000000 
#    z 0.000000 0.000000 2.137040 
# 
# From -- ./inp_files/36743.got.cif
#   From: 2010.05.17/outbox.cif.g08.bks.cpg/sg22_19_cif.got.tgz:36743.got - 2010.06.03 23:40:54.
