data_PCOD9328374
_publ_section_title
;
Structure prediction by ZEFSAII (Michael W. Deem and Ramdas Pophale) SiO2 
 PCOD9328374
Probable space group: F 2 2 2
;
_chemical_formula_sum "Si O2"
_cell_formula_units_Z 60
_cell_length_a 30.389160
_cell_length_b 18.002192
_cell_length_c 4.929726
_cell_angle_alpha 90.000000
_cell_angle_beta 90.000000
_cell_angle_gamma 90.000000
_cell_volume 2696.912563
_symmetry_space_group_name_H-M "F 2 2 2"
_symmetry_group_IT_number 22
_symmetry_cell_setting 'orthorhombic'
loop_
_space_group_symop_operation_xyz
x,y,z
-x,-y,z
x,-y,-z
-x,y,-z
x,1/2+y,1/2+z
-x,1/2-y,1/2+z
x,1/2-y,1/2-z
-x,1/2+y,1/2-z
1/2+x,y,1/2+z
1/2-x,-y,1/2+z
1/2+x,-y,1/2-z
1/2-x,y,1/2-z
1/2+x,1/2+y,z
1/2-x,1/2-y,z
1/2+x,1/2-y,-z
1/2-x,1/2+y,-z
loop_
_atom_site_type_symbol
_atom_site_label
_atom_site_fract_x
_atom_site_fract_y
_atom_site_fract_z
Si Si1 0.800682 0.054915 0.749327
Si Si2 0.000000 0.000000 0.000000
Si Si3 0.500000 0.749975 0.000000
Si Si4 0.381867 0.338188 0.223195
Si Si5 0.560568 0.379805 0.277933
O O1 0.750000 0.081226 0.750000
O O2 0.835409 0.120705 0.743478
O O3 0.807226 0.000000 0.500000
O O4 0.807941 0.000000 0.000000
O O5 0.968015 0.950025 0.813480
O O6 0.462262 0.750000 0.750000
O O7 0.524247 0.686888 0.742051
O O8 0.374647 0.250000 0.250000
O O9 0.415984 0.377461 0.434620
O O10 0.401856 0.359278 0.932542
#
# Coordination Sequence:
#
# PCOD9328374 Si02
#       5
#    16   4   8  16  16
#     4  10  23  45  72 105 140 179 224 275 342 416
#     4  12  30  46  64 102 134 194 242 290 356 404
#     4  12  23  43  66  87 127 182 228 284 346 397
#     4  12  26  44  71 105 139 180 230 287 349 410
#     4  12  27  43  65  95 136 175 239 282 339 407
#
# _framework density 22.24766
#
# number of rings (size 3 to 8) (size 9 to 14) (size 15 to 20)
#    0.000    0.533    0.000    8.800    5.600    4.267 
#    0.000    0.000    0.000    8.000    0.000    0.000 
#    0.000    0.000    0.000    0.000    0.000    0.000 
#
# Total GULP energy -83754.118711 kJ/mol
# GULP energy per Si atom -5583.607914 kJ/mol
# Density = 2.219702 g / cm^3
# Si number density = 22.247660 Si / 1000 Ang^3
#
#
#
# Elastic Constant Matrix: (Units=GPa)
#
#
# Indices 1 2 3 4 5 6 
#
# 1 156.1357 95.5439 12.0219 -0.0002 -0.0002 0.0009
# 2 95.5439 153.5764 11.6112 0.0000 0.0000 0.0002
# 3 12.0219 11.6112 156.6840 0.0012 -0.0008 -0.0016
# 4 -0.0002 0.0000 0.0012 27.0183 -0.0002 -0.0013
# 5 -0.0002 0.0000 -0.0008 -0.0002 35.5574 -0.0003
# 6 0.0009 0.0002 -0.0016 -0.0013 -0.0003 65.5900
#
#
#
# Elastic Compliance Matrix: (Units=1/GPa)
#
#
# Indices 1 2 3 4 5 6 
#
# 1 0.010358 -0.006420 -0.000319 0.000000 0.000000 0.000000
# 2 -0.006420 0.010527 -0.000288 0.000000 0.000000 0.000000
# 3 -0.000319 -0.000288 0.006428 0.000000 0.000000 0.000000
# 4 0.000000 0.000000 0.000000 0.037012 0.000000 0.000001
# 5 0.000000 0.000000 0.000000 0.000000 0.028124 0.000000
# 6 0.000000 0.000000 0.000000 0.000001 0.000000 0.015246
#
#
# Mechanical properties :
#
#
# Convention : Reuss Voigt Hill
#
# Bulk Modulus (GPa) = 75.41289 78.30556 76.85922
# Shear Modulus (GPa) = 39.63009 48.78107 44.20558
#
# Velocity S-wave (km/s) = 4.22514 4.68764 4.46239
# Velocity P-wave (km/s) = 7.60086 8.03569 7.82129
#
# Compressibility (1/GPa) = 0.01326033
#
# Stress axis : x y z
#
# Youngs Moduli (GPa) = 96.54756 94.99413 155.56805
#
# Poissons Ratio (x) = 0.60983 0.04962
# Poissons Ratio (y) = 0.61980 0.04473
# Poissons Ratio (z) = 0.03080 0.02732
#
# Static dielectric constant tensor:
#      x y z
#    x 1.786140 0.000000 0.000000 
#    y 0.000000 1.874360 0.000000 
#    z 0.000000 0.000000 1.857530 
# 
# From -- ./inp_files/5251.got.cif
#   From: 2010.05.17/outbox.cif.g08.bks.cpg/sg22_3_cif.got.tgz:5251.got - 2010.06.03 23:40:54.
