data_PCOD9328436
_publ_section_title
;
Structure prediction by ZEFSAII (Michael W. Deem and Ramdas Pophale) SiO2 
 PCOD9328436
Probable space group: F 2 2 2
;
_chemical_formula_sum "Si O2"
_cell_formula_units_Z 80
_cell_length_a 26.218287
_cell_length_b 6.256423
_cell_length_c 23.589220
_cell_angle_alpha 90.000000
_cell_angle_beta 90.000000
_cell_angle_gamma 90.000000
_cell_volume 3869.403301
_symmetry_space_group_name_H-M "F 2 2 2"
_symmetry_group_IT_number 22
_symmetry_cell_setting 'orthorhombic'
loop_
_space_group_symop_operation_xyz
x,y,z
-x,-y,z
x,-y,-z
-x,y,-z
x,1/2+y,1/2+z
-x,1/2-y,1/2+z
x,1/2-y,1/2-z
-x,1/2+y,1/2-z
1/2+x,y,1/2+z
1/2-x,-y,1/2+z
1/2+x,-y,1/2-z
1/2-x,y,1/2-z
1/2+x,1/2+y,z
1/2-x,1/2-y,z
1/2+x,1/2-y,-z
1/2-x,1/2+y,-z
loop_
_atom_site_type_symbol
_atom_site_label
_atom_site_fract_x
_atom_site_fract_y
_atom_site_fract_z
Si Si1 0.084816 0.500000 0.000000
Si Si2 0.058536 0.424556 0.199935
Si Si3 0.451246 0.113689 0.561060
Si Si4 0.641510 0.250000 0.250000
Si Si5 0.618036 0.712926 0.099790
Si Si6 0.694346 0.860795 0.305566
O O1 0.051210 0.358496 0.956508
O O2 0.117068 0.657799 0.959284
O O3 0.058421 0.250000 0.250000
O O4 0.100925 0.604994 0.214858
O O5 0.077164 0.320584 0.141630
O O6 0.000000 0.500000 0.194609
O O7 0.500000 0.000000 0.589506
O O8 0.449580 0.000000 0.500000
O O9 0.401041 0.030264 0.591532
O O10 0.679252 0.393507 0.209954
O O11 0.669024 0.704804 0.135675
O O12 0.670139 0.750000 0.250000
O O13 0.750000 0.750000 0.307326
#
# Coordination Sequence:
#
# PCOD9328436 Si02
#       6
#     8  16  16   8  16  16
#     4  10  24  41  64  92 136 184 228 282 345 404
#     4  12  25  40  64 105 146 186 229 269 347 429
#     4   9  21  37  58  90 129 174 227 273 327 405
#     4  12  22  45  68  96 146 178 221 290 344 418
#     4  11  23  41  64  95 138 176 230 285 335 417
#     4  11  25  45  69 102 131 171 235 293 354 418
#
# _framework density 20.675024000000001
#
# number of rings (size 3 to 8) (size 9 to 14) (size 15 to 20)
#    0.000    1.200    5.000    0.000    5.600    8.000 
#    0.000    0.000    6.600    0.000    0.000    0.000 
#    0.000    0.000    0.000    0.000    0.000    0.000 
#
# Total GULP energy -111350.788544 kJ/mol
# GULP energy per Si atom -5567.539427 kJ/mol
# Density = 2.062797 g / cm^3
# Si number density = 20.675024 Si / 1000 Ang^3
#
#
#
# Elastic Constant Matrix: (Units=GPa)
#
#
# Indices 1 2 3 4 5 6 
#
# 1 145.7048 52.8987 36.3423 0.0000 -0.0001 0.0006
# 2 52.8987 111.1522 32.6344 -0.0012 0.0033 0.0006
# 3 36.3423 32.6344 86.4540 0.0000 0.0006 0.0000
# 4 0.0000 -0.0012 0.0000 41.8266 0.0005 0.0005
# 5 -0.0001 0.0033 0.0006 0.0005 -35.6488 0.0007
# 6 0.0006 0.0006 0.0000 0.0005 0.0007 17.2036
#
#
#
# Elastic Compliance Matrix: (Units=1/GPa)
#
#
# Indices 1 2 3 4 5 6 
#
# 1 0.008704 -0.003450 -0.002356 0.000000 0.000000 0.000000
# 2 -0.003450 0.011486 -0.002885 0.000000 0.000001 0.000000
# 3 -0.002356 -0.002885 0.013646 0.000000 0.000000 0.000000
# 4 0.000000 0.000000 0.000000 0.023908 0.000000 -0.000001
# 5 0.000000 0.000001 0.000000 0.000000 -0.028051 0.000001
# 6 0.000000 0.000000 0.000000 -0.000001 0.000001 0.058127
#
#
# Mechanical properties :
#
#
# Convention : Reuss Voigt Hill
#
# Bulk Modulus (GPa) = 60.78216 65.22907 63.00562
# Shear Modulus (GPa) = 45.17210 19.43864 32.30537
#
# Velocity S-wave (km/s) = 4.67932 3.06959 3.95717
# Velocity P-wave (km/s) = 7.65881 6.64691 7.17073
#
# Compressibility (1/GPa) = 0.01645220
#
# Stress axis : x y z
#
# Youngs Moduli (GPa) = 114.89555 87.06371 73.27915
#
# Poissons Ratio (x) = 0.30040 0.17266
# Poissons Ratio (y) = 0.39643 0.21143
# Poissons Ratio (z) = 0.27072 0.25120
#
# Static dielectric constant tensor:
#      x y z
#    x 1.823320 0.000000 0.000000 
#    y 0.000000 1.895930 0.000000 
#    z 0.000000 0.000000 1.756100 
# 
# From -- ./inp_files/54320.got.cif
#   From: 2010.05.17/outbox.cif.g08.bks.cpg/sg22_28_cif.got.tgz:54320.got - 2010.06.03 23:40:54.
