data_PCOD9328891
_publ_section_title
;
Structure prediction by ZEFSAII (Michael W. Deem and Ramdas Pophale) SiO2 
 PCOD9328891
Probable space group: F 2 2 2
;
_chemical_formula_sum "Si O2"
_cell_formula_units_Z 64
_cell_length_a 14.596735
_cell_length_b 17.361542
_cell_length_c 11.628676
_cell_angle_alpha 90.000000
_cell_angle_beta 90.000000
_cell_angle_gamma 90.000000
_cell_volume 2946.960326
_symmetry_space_group_name_H-M "F 2 2 2"
_symmetry_group_IT_number 22
_symmetry_cell_setting 'orthorhombic'
loop_
_space_group_symop_operation_xyz
x,y,z
-x,-y,z
x,-y,-z
-x,y,-z
x,1/2+y,1/2+z
-x,1/2-y,1/2+z
x,1/2-y,1/2-z
-x,1/2+y,1/2-z
1/2+x,y,1/2+z
1/2-x,-y,1/2+z
1/2+x,-y,1/2-z
1/2-x,y,1/2-z
1/2+x,1/2+y,z
1/2-x,1/2-y,z
1/2+x,1/2-y,-z
1/2-x,1/2+y,-z
loop_
_atom_site_type_symbol
_atom_site_label
_atom_site_fract_x
_atom_site_fract_y
_atom_site_fract_z
Si Si1 0.339695 0.466257 0.622822
Si Si2 0.950574 0.162526 0.248049
Si Si3 0.152167 0.378076 0.276415
Si Si4 0.862041 0.917666 0.962750
O O1 0.370242 0.500000 0.500000
O O2 0.400267 0.395077 0.664613
O O3 0.346007 0.536605 0.714847
O O4 0.235985 0.435414 0.599267
O O5 0.916948 0.250000 0.250000
O O6 0.926514 0.127275 0.123634
O O7 0.059277 0.159838 0.267620
O O8 0.250000 0.341907 0.250000
O O9 0.150819 0.378678 0.414444
O O10 0.900212 0.000000 0.000000
#
# Coordination Sequence:
#
# PCOD9328891 Si02
#       4
#    16  16  16  16
#     4  11  23  44  75 107 137 181 242 302 349 418
#     4  12  28  46  70 108 147 190 234 292 369 432
#     4  12  23  46  71 102 144 190 247 294 352 423
#     4  11  22  45  76 107 135 186 244 298 355 427
#
# _framework density 21.717292
#
# number of rings (size 3 to 8) (size 9 to 14) (size 15 to 20)
#    0.000    0.500    7.500    2.250    0.000    5.500 
#    9.000    2.500    0.000    0.000    0.000    0.000 
#    0.000    0.000    0.000    0.000    0.000    0.000 
#
# Total GULP energy -89442.317877 kJ/mol
# GULP energy per Si atom -5590.144867 kJ/mol
# Density = 2.166786 g / cm^3
# Si number density = 21.717292 Si / 1000 Ang^3
#
#
#
# Elastic Constant Matrix: (Units=GPa)
#
#
# Indices 1 2 3 4 5 6 
#
# 1 134.3705 45.9486 41.0964 0.0000 0.0000 0.0000
# 2 45.9486 127.5230 37.4601 0.0000 0.0000 0.0000
# 3 41.0964 37.4601 107.4427 0.0000 0.0000 0.0000
# 4 0.0000 0.0000 0.0000 17.0479 0.0000 0.0000
# 5 0.0000 0.0000 0.0000 0.0000 -35.7951 0.0000
# 6 0.0000 0.0000 0.0000 0.0000 0.0000 19.4323
#
#
#
# Elastic Compliance Matrix: (Units=1/GPa)
#
#
# Indices 1 2 3 4 5 6 
#
# 1 0.009098 -0.002513 -0.002604 0.000000 0.000000 0.000000
# 2 -0.002513 0.009431 -0.002327 0.000000 0.000000 0.000000
# 3 -0.002604 -0.002327 0.011114 0.000000 0.000000 0.000000
# 4 0.000000 0.000000 0.000000 0.058658 0.000000 0.000000
# 5 0.000000 0.000000 0.000000 0.000000 -0.027937 0.000000
# 6 0.000000 0.000000 0.000000 0.000000 0.000000 0.051461
#
#
# Mechanical properties :
#
#
# Convention : Reuss Voigt Hill
#
# Bulk Modulus (GPa) = 67.77036 68.70515 68.23776
# Shear Modulus (GPa) = 37.98498 16.45910 27.22204
#
# Velocity S-wave (km/s) = 4.18672 2.75595 3.54428
# Velocity P-wave (km/s) = 7.39222 6.46775 6.94539
#
# Compressibility (1/GPa) = 0.01475571
#
# Stress axis : x y z
#
# Youngs Moduli (GPa) = 109.91623 106.03575 89.97351
#
# Poissons Ratio (x) = 0.26650 0.23426
# Poissons Ratio (y) = 0.27625 0.20934
# Poissons Ratio (z) = 0.28618 0.24672
#
# Static dielectric constant tensor:
#      x y z
#    x 1.825170 0.000000 0.000000 
#    y 0.000000 1.865480 0.000000 
#    z 0.000000 0.000000 1.840230 
# 
# From -- ./inp_files/19374.got.cif
#   From: 2010.05.17/outbox.cif.g08.bks.cpg/sg22_10_cif.got.tgz:19374.got - 2010.06.03 23:40:54.
