data_PCOD9328654
_publ_section_title
;
Structure prediction by ZEFSAII (Michael W. Deem and Ramdas Pophale) SiO2 
 PCOD9328654
Probable space group: F 2 2 2
;
_chemical_formula_sum "Si O2"
_cell_formula_units_Z 80
_cell_length_a 21.899520
_cell_length_b 8.754222
_cell_length_c 18.512752
_cell_angle_alpha 90.000000
_cell_angle_beta 90.000000
_cell_angle_gamma 90.000000
_cell_volume 3549.140033
_symmetry_space_group_name_H-M "F 2 2 2"
_symmetry_group_IT_number 22
_symmetry_cell_setting 'orthorhombic'
loop_
_space_group_symop_operation_xyz
x,y,z
-x,-y,z
x,-y,-z
-x,y,-z
x,1/2+y,1/2+z
-x,1/2-y,1/2+z
x,1/2-y,1/2-z
-x,1/2+y,1/2-z
1/2+x,y,1/2+z
1/2-x,-y,1/2+z
1/2+x,-y,1/2-z
1/2-x,y,1/2-z
1/2+x,1/2+y,z
1/2-x,1/2-y,z
1/2+x,1/2-y,-z
1/2-x,1/2+y,-z
loop_
_atom_site_type_symbol
_atom_site_label
_atom_site_fract_x
_atom_site_fract_y
_atom_site_fract_z
Si Si1 0.918410 0.200572 0.369168
Si Si2 0.684477 0.215276 0.909524
Si Si3 0.398936 0.961248 0.661216
Si Si4 0.096422 0.000000 0.500000
Si Si5 0.688534 0.957143 0.792277
Si Si6 0.509108 0.750000 0.250000
O O1 0.921965 0.383869 0.376700
O O2 0.848654 0.157832 0.345158
O O3 0.963761 0.160003 0.303499
O O4 0.936145 0.101655 0.438900
O O5 0.750000 0.250000 0.943806
O O6 0.646411 0.364182 0.888448
O O7 0.640222 0.117208 0.958819
O O8 0.698419 0.111152 0.838763
O O9 0.449935 0.851668 0.696493
O O10 0.358947 0.010931 0.729256
O O11 0.750000 0.913179 0.750000
#
# Coordination Sequence:
#
# PCOD9328654 Si02
#       6
#    16  16  16   8  16   8
#     4  11  26  45  70 106 146 191 239 298 370 431
#     4  11  23  43  70  99 144 192 238 293 370 440
#     4  12  23  40  75 108 138 181 237 306 365 423
#     4  10  28  50  63 100 148 198 245 290 368 446
#     4  11  21  42  68 111 142 172 230 304 368 421
#     4  12  24  44  76 112 142 180 252 314 362 426
#
# _framework density 22.540671
#
# number of rings (size 3 to 8) (size 9 to 14) (size 15 to 20)
#    0.000    0.800    6.000    0.600    0.000    4.000 
#    0.000    2.000    0.000    2.400    0.000    0.000 
#    0.000    0.000    0.000    0.000    0.000    0.000 
#
# Total GULP energy -111819.995338 kJ/mol
# GULP energy per Si atom -5590.999767 kJ/mol
# Density = 2.248937 g / cm^3
# Si number density = 22.540671 Si / 1000 Ang^3
#
#
#
# Elastic Constant Matrix: (Units=GPa)
#
#
# Indices 1 2 3 4 5 6 
#
# 1 112.5682 36.5747 19.8327 0.0000 0.0000 0.0000
# 2 36.5747 97.2747 15.8923 0.0000 0.0000 0.0000
# 3 19.8327 15.8923 85.8961 0.0000 0.0000 0.0000
# 4 0.0000 0.0000 0.0000 8.7449 0.0000 0.0000
# 5 0.0000 0.0000 0.0000 0.0000 0.9752 0.0000
# 6 0.0000 0.0000 0.0000 0.0000 0.0000 11.7153
#
#
#
# Elastic Compliance Matrix: (Units=1/GPa)
#
#
# Indices 1 2 3 4 5 6 
#
# 1 0.010361 -0.003614 -0.001724 0.000000 0.000000 0.000000
# 2 -0.003614 0.011861 -0.001360 0.000000 0.000000 0.000000
# 3 -0.001724 -0.001360 0.012292 0.000000 0.000000 0.000000
# 4 0.000000 0.000000 0.000000 0.114352 0.000000 0.000000
# 5 0.000000 0.000000 0.000000 0.000000 1.025461 0.000000
# 6 0.000000 0.000000 0.000000 0.000000 0.000000 0.085358
#
#
# Mechanical properties :
#
#
# Convention : Reuss Voigt Hill
#
# Bulk Modulus (GPa) = 47.35204 48.92650 48.13927
# Shear Modulus (GPa) = 3.90588 19.18305 11.54447
#
# Velocity S-wave (km/s) = 1.31779 2.92043 2.26555
# Velocity P-wave (km/s) = 4.83409 5.75542 5.31476
#
# Compressibility (1/GPa) = 0.02111841
#
# Stress axis : x y z
#
# Youngs Moduli (GPa) = 96.51114 84.30781 81.35647
#
# Poissons Ratio (x) = 0.30471 0.14023
# Poissons Ratio (y) = 0.34882 0.11065
# Poissons Ratio (z) = 0.16635 0.11466
#
# Static dielectric constant tensor:
#      x y z
#    x 1.920310 0.000000 0.000000 
#    y 0.000000 1.863650 0.000000 
#    z 0.000000 0.000000 1.906390 
# 
# From -- ./inp_files/45157.got.cif
#   From: 2010.05.17/outbox.cif.g08.bks.cpg/sg22_23_cif.got.tgz:45157.got - 2010.06.03 23:40:54.
