data_PCOD9328559
_publ_section_title
;
Structure prediction by ZEFSAII (Michael W. Deem and Ramdas Pophale) SiO2 
 PCOD9328559
Probable space group: F 2 2 2
;
_chemical_formula_sum "Si O2"
_cell_formula_units_Z 120
_cell_length_a 23.018053
_cell_length_b 11.703092
_cell_length_c 20.276270
_cell_angle_alpha 90.000000
_cell_angle_beta 90.000000
_cell_angle_gamma 90.000000
_cell_volume 5462.070112
_symmetry_space_group_name_H-M "F 2 2 2"
_symmetry_group_IT_number 22
_symmetry_cell_setting 'orthorhombic'
loop_
_space_group_symop_operation_xyz
x,y,z
-x,-y,z
x,-y,-z
-x,y,-z
x,1/2+y,1/2+z
-x,1/2-y,1/2+z
x,1/2-y,1/2-z
-x,1/2+y,1/2-z
1/2+x,y,1/2+z
1/2-x,-y,1/2+z
1/2+x,-y,1/2-z
1/2-x,y,1/2-z
1/2+x,1/2+y,z
1/2-x,1/2-y,z
1/2+x,1/2-y,-z
1/2-x,1/2+y,-z
loop_
_atom_site_type_symbol
_atom_site_label
_atom_site_fract_x
_atom_site_fract_y
_atom_site_fract_z
Si Si1 0.405611 0.751569 0.827370
Si Si2 0.389430 0.500000 0.500000
Si Si3 0.334647 0.468422 0.359202
Si Si4 0.274844 0.128483 0.655774
Si Si5 0.849710 0.386616 0.465754
Si Si6 0.116081 0.115411 0.751374
Si Si7 0.935019 0.498467 0.362548
Si Si8 0.558319 0.270646 0.531468
O O1 0.423453 0.750000 0.750000
O O2 0.403044 0.617667 0.846357
O O3 0.446058 0.791445 0.889506
O O4 0.350656 0.839362 0.834765
O O5 0.350583 0.478971 0.435685
O O6 0.429303 0.611138 0.494314
O O7 0.271669 0.526105 0.348511
O O8 0.376632 0.552235 0.317375
O O9 0.250000 0.250000 0.679372
O O10 0.301433 0.159249 0.583967
O O11 0.325949 0.090899 0.705196
O O12 0.825614 0.500000 0.500000
O O13 0.898922 0.430499 0.416024
O O14 0.883689 0.303703 0.515487
O O15 0.111311 0.250000 0.750000
O O16 0.063393 0.067422 0.793497
O O17 0.000000 0.500000 0.388094
O O18 0.500000 0.219544 0.500000
#
# Coordination Sequence:
#
# PCOD9328559 Si02
#       8
#    16   8  16  16  16  16  16  16
#     4  11  23  45  68 100 143 182 233 288 349 439
#     4  10  25  42  64  98 134 178 235 276 340 428
#     4  11  23  43  69  94 139 183 223 294 356 409
#     4  11  23  41  70  98 133 177 232 291 352 411
#     4  11  24  41  66 100 133 171 239 284 338 425
#     4  11  23  42  67 103 131 174 234 288 343 422
#     4  11  24  44  68 100 138 181 227 287 349 412
#     4  11  23  44  71  96 137 186 226 286 355 417
#
# _framework density 21.969692999999999
#
# number of rings (size 3 to 8) (size 9 to 14) (size 15 to 20)
#    0.000    1.067    4.000    2.200    2.800    0.533 
#    2.400    2.667    0.000    0.000    0.000    0.000 
#    0.000    0.000    0.000    0.000    0.000    0.000 
#
# Total GULP energy -167339.479615 kJ/mol
# GULP energy per Si atom -5577.982654 kJ/mol
# Density = 2.191969 g / cm^3
# Si number density = 21.969693 Si / 1000 Ang^3
#
#
#
# Elastic Constant Matrix: (Units=GPa)
#
#
# Indices 1 2 3 4 5 6 
#
# 1 56.7326 26.6143 16.6987 0.0000 0.0000 0.0000
# 2 26.6143 117.3940 19.4615 0.0000 0.0000 0.0000
# 3 16.6987 19.4615 125.2941 0.0000 0.0000 0.0000
# 4 0.0000 0.0000 0.0000 31.8775 0.0000 0.0000
# 5 0.0000 0.0000 0.0000 0.0000 8.0003 0.0000
# 6 0.0000 0.0000 0.0000 0.0000 0.0000 19.2749
#
#
#
# Elastic Compliance Matrix: (Units=1/GPa)
#
#
# Indices 1 2 3 4 5 6 
#
# 1 0.020217 -0.004246 -0.002035 0.000000 0.000000 0.000000
# 2 -0.004246 0.009635 -0.000931 0.000000 0.000000 0.000000
# 3 -0.002035 -0.000931 0.008397 0.000000 0.000000 0.000000
# 4 0.000000 0.000000 0.000000 0.031370 0.000000 0.000000
# 5 0.000000 0.000000 0.000000 0.000000 0.124995 0.000000
# 6 0.000000 0.000000 0.000000 0.000000 0.000000 0.051881
#
#
# Mechanical properties :
#
#
# Convention : Reuss Voigt Hill
#
# Bulk Modulus (GPa) = 41.97077 47.21886 44.59481
# Shear Modulus (GPa) = 18.59697 27.60696 23.10197
#
# Velocity S-wave (km/s) = 2.91259 3.54869 3.24626
# Velocity P-wave (km/s) = 5.51873 6.19115 5.86458
#
# Compressibility (1/GPa) = 0.02382611
#
# Stress axis : x y z
#
# Youngs Moduli (GPa) = 49.46225 103.78559 119.09024
#
# Poissons Ratio (x) = 0.44069 0.24234
# Poissons Ratio (y) = 0.21002 0.11084
# Poissons Ratio (z) = 0.10065 0.09659
#
# Static dielectric constant tensor:
#      x y z
#    x 1.838910 0.000000 0.000000 
#    y 0.000000 1.830410 0.000000 
#    z 0.000000 0.000000 1.871120 
# 
# From -- ./inp_files/45418.got.cif
#   From: 2010.05.17/outbox.cif.g08.bks.cpg/sg22_23_cif.got.tgz:45418.got - 2010.06.03 23:40:54.
