data_PCOD9328886
_publ_section_title
;
Structure prediction by ZEFSAII (Michael W. Deem and Ramdas Pophale) SiO2 
 PCOD9328886
Probable space group: F 2 2 2
;
_chemical_formula_sum "Si O2"
_cell_formula_units_Z 112
_cell_length_a 11.874483
_cell_length_b 15.628560
_cell_length_c 29.513061
_cell_angle_alpha 90.000000
_cell_angle_beta 90.000000
_cell_angle_gamma 90.000000
_cell_volume 5477.065440
_symmetry_space_group_name_H-M "F 2 2 2"
_symmetry_group_IT_number 22
_symmetry_cell_setting 'orthorhombic'
loop_
_space_group_symop_operation_xyz
x,y,z
-x,-y,z
x,-y,-z
-x,y,-z
x,1/2+y,1/2+z
-x,1/2-y,1/2+z
x,1/2-y,1/2-z
-x,1/2+y,1/2-z
1/2+x,y,1/2+z
1/2-x,-y,1/2+z
1/2+x,-y,1/2-z
1/2-x,y,1/2-z
1/2+x,1/2+y,z
1/2-x,1/2-y,z
1/2+x,1/2-y,-z
1/2-x,1/2+y,-z
loop_
_atom_site_type_symbol
_atom_site_label
_atom_site_fract_x
_atom_site_fract_y
_atom_site_fract_z
Si Si1 0.949615 0.655592 0.240687
Si Si2 0.733506 0.154414 0.912017
Si Si3 0.372265 0.494997 0.945665
Si Si4 0.272451 0.850227 0.104608
Si Si5 0.997318 0.602524 0.947719
Si Si6 0.320004 0.417864 0.705085
Si Si7 0.734766 0.112703 0.689734
O O1 0.997645 0.750000 0.250000
O O2 0.838062 0.667986 0.210000
O O3 0.885657 0.616967 0.284814
O O4 0.048838 0.599660 0.218117
O O5 0.750000 0.250000 0.929458
O O6 0.603393 0.133449 0.919113
O O7 0.774723 0.144832 0.860802
O O8 0.801640 0.079587 0.935571
O O9 0.500000 0.500000 0.928786
O O10 0.315590 0.413501 0.920824
O O11 0.374542 0.500000 0.000000
O O12 0.250000 0.750000 0.099787
O O13 0.387348 0.869345 0.078418
O O14 0.286838 0.871791 0.158068
O O15 0.000000 0.500000 0.949191
O O16 0.000000 0.633278 0.000000
O O17 0.250000 0.391114 0.750000
O O18 0.285221 0.516769 0.695590
#
# Coordination Sequence:
#
# PCOD9328886 Si02
#       7
#    16  16  16  16  16  16  16
#     4  11  24  41  68 100 134 176 231 295 345 410
#     4  12  25  44  72 107 140 182 238 295 356 432
#     4  11  26  49  73 102 145 190 234 294 366 440
#     4  12  28  48  73 106 149 189 243 300 365 434
#     4  11  23  45  76 106 141 188 238 298 365 436
#     4  12  26  45  69  99 141 191 238 286 354 424
#     4  11  22  45  70  96 133 182 237 284 352 414
#
# _framework density 20.448906999999998
#
# number of rings (size 3 to 8) (size 9 to 14) (size 15 to 20)
#    0.000    0.571    4.286    3.857    4.000    3.429 
#    0.000    0.000    0.000    0.000    0.000    0.000 
#    0.000    0.000    0.000    0.000    0.000    0.000 
#
# Total GULP energy -156332.301683 kJ/mol
# GULP energy per Si atom -5583.296489 kJ/mol
# Density = 2.040236 g / cm^3
# Si number density = 20.448907 Si / 1000 Ang^3
#
#
#
# Elastic Constant Matrix: (Units=GPa)
#
#
# Indices 1 2 3 4 5 6 
#
# 1 148.1395 60.0091 29.9917 0.0000 0.0000 0.0000
# 2 60.0091 152.7727 25.9860 0.0000 0.0000 0.0000
# 3 29.9917 25.9860 89.6632 0.0000 0.0000 0.0000
# 4 0.0000 0.0000 0.0000 -39.8994 0.0000 0.0000
# 5 0.0000 0.0000 0.0000 0.0000 31.8429 0.0000
# 6 0.0000 0.0000 0.0000 0.0000 0.0000 -14.0630
#
#
#
# Elastic Compliance Matrix: (Units=1/GPa)
#
#
# Indices 1 2 3 4 5 6 
#
# 1 0.008335 -0.002945 -0.001934 0.000000 0.000000 0.000000
# 2 -0.002945 0.007926 -0.001312 0.000000 0.000000 0.000000
# 3 -0.001934 -0.001312 0.012180 0.000000 0.000000 0.000000
# 4 0.000000 0.000000 0.000000 -0.025063 0.000000 0.000000
# 5 0.000000 0.000000 0.000000 0.000000 0.031404 0.000000
# 6 0.000000 0.000000 0.000000 0.000000 0.000000 -0.071109
#
#
# Mechanical properties :
#
#
# Convention : Reuss Voigt Hill
#
# Bulk Modulus (GPa) = 62.27418 69.17210 65.72314
# Shear Modulus (GPa) = -268.94292 13.88201 -127.53046
#
# Velocity S-wave (km/s) = -11.48063 2.60833 -7.90575
# Velocity P-wave (km/s) = 12.05074 6.55526 7.15014
#
# Compressibility (1/GPa) = 0.01605802
#
# Stress axis : x y z
#
# Youngs Moduli (GPa) = 119.97610 126.17353 82.10089
#
# Poissons Ratio (x) = 0.37157 0.15882
# Poissons Ratio (y) = 0.35332 0.10771
# Poissons Ratio (z) = 0.23209 0.16553
#
# Static dielectric constant tensor:
#      x y z
#    x 1.686730 0.000000 0.000000 
#    y 0.000000 1.731050 0.000000 
#    z 0.000000 0.000000 1.857630 
# 
# From -- ./inp_files/20299.got.cif
#   From: 2010.05.17/outbox.cif.g08.bks.cpg/sg22_11_cif.got.tgz:20299.got - 2010.06.03 23:40:54.
