data_PCOD9328203
_publ_section_title
;
Structure prediction by ZEFSAII (Michael W. Deem and Ramdas Pophale) SiO2 
 PCOD9328203
Probable space group: F 2 2 2
;
_chemical_formula_sum "Si O2"
_cell_formula_units_Z 56
_cell_length_a 13.070085
_cell_length_b 8.696483
_cell_length_c 18.807527
_cell_angle_alpha 90.000000
_cell_angle_beta 90.000000
_cell_angle_gamma 90.000000
_cell_volume 2137.734461
_symmetry_space_group_name_H-M "F 2 2 2"
_symmetry_group_IT_number 22
_symmetry_cell_setting 'orthorhombic'
loop_
_space_group_symop_operation_xyz
x,y,z
-x,-y,z
x,-y,-z
-x,y,-z
x,1/2+y,1/2+z
-x,1/2-y,1/2+z
x,1/2-y,1/2-z
-x,1/2+y,1/2-z
1/2+x,y,1/2+z
1/2-x,-y,1/2+z
1/2+x,-y,1/2-z
1/2-x,y,1/2-z
1/2+x,1/2+y,z
1/2-x,1/2-y,z
1/2+x,1/2-y,-z
1/2-x,1/2+y,-z
loop_
_atom_site_type_symbol
_atom_site_label
_atom_site_fract_x
_atom_site_fract_y
_atom_site_fract_z
Si Si1 0.859743 0.958455 0.782989
Si Si2 0.706151 0.500000 0.000000
Si Si3 0.629043 0.718502 0.113820
Si Si4 0.500000 0.500000 0.656865
Si Si5 0.250000 0.750000 0.394162
O O1 0.750000 0.002933 0.750000
O O2 0.905597 0.106144 0.822996
O O3 0.923669 0.921462 0.713405
O O4 0.832136 0.832106 0.842635
O O5 0.634212 0.617259 0.042827
O O6 0.773103 0.393552 0.053013
O O7 0.750000 0.750000 0.126198
O O8 0.561442 0.870609 0.114035
#
# Coordination Sequence:
#
# PCOD9328203 Si02
#       5
#    16   8  16   8   8
#     4  11  24  44  75 118 171 212 276 349 429 506
#     4  10  22  48  80 116 160 222 300 344 419 503
#     4  11  23  47  83 123 171 227 281 357 418 516
#     4  12  26  44  82 130 174 226 274 358 448 496
#     4  10  23  42  78 114 161 236 278 352 422 504
#
# _framework density 26.195955999999999
#
# number of rings (size 3 to 8) (size 9 to 14) (size 15 to 20)
#    0.000    1.143    4.286    1.286    0.000    4.571 
#    0.000    0.000    0.000   50.571    0.000    0.000 
#    0.000    0.000    0.000    0.000    0.000    0.000 
#
# Total GULP energy -78330.617886 kJ/mol
# GULP energy per Si atom -5595.044135 kJ/mol
# Density = 2.613633 g / cm^3
# Si number density = 26.195956 Si / 1000 Ang^3
#
#
#
# Elastic Constant Matrix: (Units=GPa)
#
#
# Indices 1 2 3 4 5 6 
#
# 1 82.7520 76.1615 19.8484 0.0000 0.0000 0.0000
# 2 76.1615 241.4247 110.7017 0.0000 0.0000 0.0000
# 3 19.8484 110.7017 116.7539 0.0000 0.0000 0.0000
# 4 0.0000 0.0000 0.0000 89.3301 0.0000 0.0000
# 5 0.0000 0.0000 0.0000 0.0000 24.7017 0.0000
# 6 0.0000 0.0000 0.0000 0.0000 0.0000 70.9614
#
#
#
# Elastic Compliance Matrix: (Units=1/GPa)
#
#
# Indices 1 2 3 4 5 6 
#
# 1 0.018089 -0.007601 0.004132 0.000000 0.000000 0.000000
# 2 -0.007601 0.010522 -0.008684 0.000000 0.000000 0.000000
# 3 0.004132 -0.008684 0.016097 0.000000 0.000000 0.000000
# 4 0.000000 0.000000 0.000000 0.011194 0.000000 0.000000
# 5 0.000000 0.000000 0.000000 0.000000 0.040483 0.000000
# 6 0.000000 0.000000 0.000000 0.000000 0.000000 0.014092
#
#
# Mechanical properties :
#
#
# Convention : Reuss Voigt Hill
#
# Bulk Modulus (GPa) = 49.01801 94.92822 71.97311
# Shear Modulus (GPa) = 35.31444 52.61325 43.96384
#
# Velocity S-wave (km/s) = 3.67561 4.48643 4.10111
# Velocity P-wave (km/s) = 6.06351 7.94694 7.06824
#
# Compressibility (1/GPa) = 0.02040067
#
# Stress axis : x y z
#
# Youngs Moduli (GPa) = 55.28229 95.03796 62.12381
#
# Poissons Ratio (x) = 0.72239 -0.25669
# Poissons Ratio (y) = 0.42021 0.53951
# Poissons Ratio (z) = -0.22842 0.82535
#
# Static dielectric constant tensor:
#      x y z
#    x 1.905730 0.000000 0.000000 
#    y 0.000000 2.398780 0.000000 
#    z 0.000000 0.000000 2.045520 
# 
# From -- ./inp_files/43213.got.cif
#   From: 2010.05.17/outbox.cif.g08.bks.cpg/sg22_22_cif.got.tgz:43213.got - 2010.06.03 23:40:54.
