data_PCOD9328616
_publ_section_title
;
Structure prediction by ZEFSAII (Michael W. Deem and Ramdas Pophale) SiO2 
 PCOD9328616
Probable space group: F 2 2 2
;
_chemical_formula_sum "Si O2"
_cell_formula_units_Z 80
_cell_length_a 20.094903
_cell_length_b 5.995431
_cell_length_c 29.619987
_cell_angle_alpha 90.000000
_cell_angle_beta 90.000000
_cell_angle_gamma 90.000000
_cell_volume 3568.545076
_symmetry_space_group_name_H-M "F 2 2 2"
_symmetry_group_IT_number 22
_symmetry_cell_setting 'orthorhombic'
loop_
_space_group_symop_operation_xyz
x,y,z
-x,-y,z
x,-y,-z
-x,y,-z
x,1/2+y,1/2+z
-x,1/2-y,1/2+z
x,1/2-y,1/2-z
-x,1/2+y,1/2-z
1/2+x,y,1/2+z
1/2-x,-y,1/2+z
1/2+x,-y,1/2-z
1/2-x,y,1/2-z
1/2+x,1/2+y,z
1/2-x,1/2-y,z
1/2+x,1/2-y,-z
1/2-x,1/2+y,-z
loop_
_atom_site_type_symbol
_atom_site_label
_atom_site_fract_x
_atom_site_fract_y
_atom_site_fract_z
Si Si1 0.500000 0.500000 0.610311
Si Si2 0.000000 0.000000 0.228182
Si Si3 0.000000 0.500000 0.500000
Si Si4 0.103393 0.292102 0.570235
Si Si5 0.250000 0.250000 0.591425
Si Si6 0.750000 0.250000 0.250000
Si Si7 0.297160 0.052588 0.173464
Si Si8 0.917960 0.862282 0.151467
O O1 0.567669 0.559926 0.583944
O O2 0.483374 0.722892 0.637378
O O3 0.999532 0.750000 0.250000
O O4 0.934463 0.993665 0.196675
O O5 0.948062 0.628842 0.532028
O O6 0.182476 0.272127 0.562150
O O7 0.101851 0.473104 0.611096
O O8 0.266741 0.446808 0.627528
O O9 0.703400 0.382339 0.285222
O O10 0.250000 0.250000 0.189039
O O11 0.365749 0.169476 0.162083
#
# Coordination Sequence:
#
# PCOD9328616 Si02
#       8
#     8   8   4  16   8   4  16  16
#     4  12  21  45  76 102 138 206 252 300 386 482
#     4  12  28  46  68 110 154 203 265 338 397 453
#     4  12  26  50  76 118 150 178 250 330 390 478
#     4  12  25  47  78 110 145 191 250 314 389 479
#     4  11  24  43  76 106 144 202 248 300 387 480
#     4  10  26  44  60 110 148 196 266 332 380 444
#     4  11  23  44  70  99 142 199 259 315 381 451
#     4  12  24  46  72  99 147 198 258 314 385 467
#
# _framework density 22.418099000000002
#
# number of rings (size 3 to 8) (size 9 to 14) (size 15 to 20)
#    0.000    0.400    8.000    0.900    0.000    2.000 
#    7.200    4.000    0.000    0.000    0.000    0.000 
#    0.000    0.000    0.000    0.000    0.000    0.000 
#
# Total GULP energy -111564.296555 kJ/mol
# GULP energy per Si atom -5578.214828 kJ/mol
# Density = 2.236707 g / cm^3
# Si number density = 22.418099 Si / 1000 Ang^3
#
#
#
# Elastic Constant Matrix: (Units=GPa)
#
#
# Indices 1 2 3 4 5 6 
#
# 1 184.0779 36.4118 47.7988 0.0007 0.0001 -0.0016
# 2 36.4118 87.1490 33.9114 0.0034 0.0017 0.0003
# 3 47.7988 33.9114 88.3590 -0.0001 0.0000 -0.0001
# 4 0.0007 0.0034 -0.0001 99.9938 0.0006 0.0003
# 5 0.0001 0.0017 0.0000 0.0006 11.3764 0.0001
# 6 -0.0016 0.0003 -0.0001 0.0003 0.0001 49.3843
#
#
#
# Elastic Compliance Matrix: (Units=1/GPa)
#
#
# Indices 1 2 3 4 5 6 
#
# 1 0.006501 -0.001584 -0.002909 0.000000 0.000000 0.000000
# 2 -0.001584 0.013875 -0.004468 0.000000 -0.000002 0.000000
# 3 -0.002909 -0.004468 0.014606 0.000000 0.000001 0.000000
# 4 0.000000 0.000000 0.000000 0.010001 -0.000001 0.000000
# 5 0.000000 -0.000002 0.000001 -0.000001 0.087901 0.000000
# 6 0.000000 0.000000 0.000000 0.000000 0.000000 0.020249
#
#
# Mechanical properties :
#
#
# Convention : Reuss Voigt Hill
#
# Bulk Modulus (GPa) = 58.61791 66.20334 62.41062
# Shear Modulus (GPa) = 28.28969 48.24850 38.26910
#
# Velocity S-wave (km/s) = 3.55620 4.64423 4.13614
# Velocity P-wave (km/s) = 6.56250 7.63896 7.12110
#
# Compressibility (1/GPa) = 0.01705963
#
# Stress axis : x y z
#
# Youngs Moduli (GPa) = 153.81755 72.07104 68.46576
#
# Poissons Ratio (x) = 0.11419 0.19915
# Poissons Ratio (y) = 0.24371 0.30591
# Poissons Ratio (z) = 0.44743 0.32202
#
# Static dielectric constant tensor:
#      x y z
#    x 1.784250 0.000000 0.000000 
#    y 0.000000 1.888770 0.000000 
#    z 0.000000 0.000000 1.923620 
# 
# From -- ./inp_files/57085.got.cif
#   From: 2010.05.17/outbox.cif.g08.bks.cpg/sg22_29_cif.got.tgz:57085.got - 2010.06.03 23:40:54.
