data_PCOD9328308
_publ_section_title
;
Structure prediction by ZEFSAII (Michael W. Deem and Ramdas Pophale) SiO2 
 PCOD9328308
Probable space group: F 2 2 2
;
_chemical_formula_sum "Si O2"
_cell_formula_units_Z 56
_cell_length_a 9.184329
_cell_length_b 10.857095
_cell_length_c 23.409299
_cell_angle_alpha 90.000000
_cell_angle_beta 90.000000
_cell_angle_gamma 90.000000
_cell_volume 2334.261351
_symmetry_space_group_name_H-M "F 2 2 2"
_symmetry_group_IT_number 22
_symmetry_cell_setting 'orthorhombic'
loop_
_space_group_symop_operation_xyz
x,y,z
-x,-y,z
x,-y,-z
-x,y,-z
x,1/2+y,1/2+z
-x,1/2-y,1/2+z
x,1/2-y,1/2-z
-x,1/2+y,1/2-z
1/2+x,y,1/2+z
1/2-x,-y,1/2+z
1/2+x,-y,1/2-z
1/2-x,y,1/2-z
1/2+x,1/2+y,z
1/2-x,1/2-y,z
1/2+x,1/2-y,-z
1/2-x,1/2+y,-z
loop_
_atom_site_type_symbol
_atom_site_label
_atom_site_fract_x
_atom_site_fract_y
_atom_site_fract_z
Si Si1 0.154608 0.875715 0.892647
Si Si2 0.881918 0.087891 0.413729
Si Si3 0.000000 0.278047 0.500000
Si Si4 0.427398 0.743755 0.183737
O O1 0.250000 0.750000 0.882723
O O2 0.023738 0.862022 0.846578
O O3 0.245069 0.003115 0.896456
O O4 0.089045 0.857909 0.955333
O O5 0.890500 0.198780 0.459399
O O6 0.956656 0.138883 0.355924
O O7 0.000000 0.000000 0.440274
O O8 0.466324 0.750000 0.250000
O O9 0.250000 0.750000 0.179844
#
# Coordination Sequence:
#
# PCOD9328308 Si02
#       4
#    16  16   8  16
#     4  11  23  43  73 109 138 196 248 295 366 443
#     4  11  22  46  71 105 144 196 237 299 377 424
#     4  10  23  42  72 107 162 187 238 305 364 438
#     4  10  24  49  69 101 149 184 239 317 363 428
#
# _framework density 23.990458
#
# number of rings (size 3 to 8) (size 9 to 14) (size 15 to 20)
#    0.000    1.429    5.714    0.429    0.000    6.286 
#   10.286    2.857    0.000    0.000    0.000    0.000 
#    0.000    0.000    0.000    0.000    0.000    0.000 
#
# Total GULP energy -78039.038679 kJ/mol
# GULP energy per Si atom -5574.217049 kJ/mol
# Density = 2.393585 g / cm^3
# Si number density = 23.990458 Si / 1000 Ang^3
#
#
#
# Elastic Constant Matrix: (Units=GPa)
#
#
# Indices 1 2 3 4 5 6 
#
# 1 132.6161 58.0512 57.7543 0.0000 0.0000 0.0000
# 2 58.0512 120.3246 60.0876 0.0000 0.0000 0.0000
# 3 57.7543 60.0876 187.8466 0.0000 0.0000 0.0000
# 4 0.0000 0.0000 0.0000 4.8987 0.0000 0.0000
# 5 0.0000 0.0000 0.0000 0.0000 36.2404 0.0000
# 6 0.0000 0.0000 0.0000 0.0000 0.0000 63.8714
#
#
#
# Elastic Compliance Matrix: (Units=1/GPa)
#
#
# Indices 1 2 3 4 5 6 
#
# 1 0.010064 -0.003939 -0.001834 0.000000 0.000000 0.000000
# 2 -0.003939 0.011433 -0.002446 0.000000 0.000000 0.000000
# 3 -0.001834 -0.002446 0.006670 0.000000 0.000000 0.000000
# 4 0.000000 0.000000 0.000000 0.204137 0.000000 0.000000
# 5 0.000000 0.000000 0.000000 0.000000 0.027593 0.000000
# 6 0.000000 0.000000 0.000000 0.000000 0.000000 0.015656
#
#
# Mechanical properties :
#
#
# Convention : Reuss Voigt Hill
#
# Bulk Modulus (GPa) = 85.26843 88.06371 86.66607
# Shear Modulus (GPa) = 16.89753 38.66171 27.77962
#
# Velocity S-wave (km/s) = 2.65683 4.01876 3.40655
# Velocity P-wave (km/s) = 6.71055 7.63685 7.18863
#
# Compressibility (1/GPa) = 0.01172767
#
# Stress axis : x y z
#
# Youngs Moduli (GPa) = 99.36694 87.46703 149.93057
#
# Poissons Ratio (x) = 0.34457 0.27497
# Poissons Ratio (y) = 0.39145 0.36672
# Poissons Ratio (z) = 0.18224 0.21394
#
# Static dielectric constant tensor:
#      x y z
#    x 2.017800 0.000000 0.000000 
#    y 0.000000 1.759270 0.000000 
#    z 0.000000 0.000000 1.855480 
# 
# From -- ./inp_files/8355.got.cif
#   From: 2010.05.17/outbox.cif.g08.bks.cpg/sg22_5_cif.got.tgz:8355.got - 2010.06.03 23:40:54.
