data_PCOD9328919
_publ_section_title
;
Structure prediction by ZEFSAII (Michael W. Deem and Ramdas Pophale) SiO2 
 PCOD9328919
Probable space group: F 2 2 2
;
_chemical_formula_sum "Si O2"
_cell_formula_units_Z 64
_cell_length_a 21.728334
_cell_length_b 7.538075
_cell_length_c 17.905041
_cell_angle_alpha 90.000000
_cell_angle_beta 90.000000
_cell_angle_gamma 90.000000
_cell_volume 2932.663287
_symmetry_space_group_name_H-M "F 2 2 2"
_symmetry_group_IT_number 22
_symmetry_cell_setting 'orthorhombic'
loop_
_space_group_symop_operation_xyz
x,y,z
-x,-y,z
x,-y,-z
-x,y,-z
x,1/2+y,1/2+z
-x,1/2-y,1/2+z
x,1/2-y,1/2-z
-x,1/2+y,1/2-z
1/2+x,y,1/2+z
1/2-x,-y,1/2+z
1/2+x,-y,1/2-z
1/2-x,y,1/2-z
1/2+x,1/2+y,z
1/2-x,1/2-y,z
1/2+x,1/2-y,-z
1/2-x,1/2+y,-z
loop_
_atom_site_type_symbol
_atom_site_label
_atom_site_fract_x
_atom_site_fract_y
_atom_site_fract_z
Si Si1 0.104664 0.405779 0.602807
Si Si2 0.317636 0.040412 0.269630
Si Si3 0.565469 0.239280 0.959448
Si Si4 0.067087 0.947289 0.332074
O O1 0.163963 0.477607 0.647185
O O2 0.113508 0.299141 0.524435
O O3 0.065573 0.582557 0.589257
O O4 0.068054 0.259572 0.649352
O O5 0.316442 0.250000 0.250000
O O6 0.250000 0.970917 0.250000
O O7 0.374447 0.975586 0.219844
O O8 0.576655 0.071278 0.906336
O O9 0.500000 0.216949 0.000000
O O10 0.000000 0.000000 0.302031
#
# Coordination Sequence:
#
# PCOD9328919 Si02
#       4
#    16  16  16  16
#     4  11  23  41  70 102 137 194 227 289 359 429
#     4  11  26  50  74  98 145 194 250 303 359 431
#     4  11  23  40  68 104 154 179 224 295 365 426
#     4  12  25  40  73 110 142 182 238 293 364 434
#
# _framework density 21.823167000000002
#
# number of rings (size 3 to 8) (size 9 to 14) (size 15 to 20)
#    0.000    0.750    5.000    3.000    0.000    6.000 
#    0.000    0.000   22.000    0.000    0.000    0.000 
#    0.000    0.000    0.000    0.000    0.000    0.000 
#
# Total GULP energy -89317.461971 kJ/mol
# GULP energy per Si atom -5582.341373 kJ/mol
# Density = 2.177350 g / cm^3
# Si number density = 21.823167 Si / 1000 Ang^3
#
#
#
# Elastic Constant Matrix: (Units=GPa)
#
#
# Indices 1 2 3 4 5 6 
#
# 1 144.0493 39.6952 73.1434 0.0000 0.0000 0.0000
# 2 39.6952 155.6522 37.5478 0.0000 0.0000 0.0000
# 3 73.1434 37.5478 102.6242 0.0000 0.0000 0.0000
# 4 0.0000 0.0000 0.0000 46.4421 0.0000 0.0000
# 5 0.0000 0.0000 0.0000 0.0000 20.4771 0.0000
# 6 0.0000 0.0000 0.0000 0.0000 0.0000 21.6658
#
#
#
# Elastic Compliance Matrix: (Units=1/GPa)
#
#
# Indices 1 2 3 4 5 6 
#
# 1 0.011021 -0.001004 -0.007487 0.000000 0.000000 0.000000
# 2 -0.001004 0.007138 -0.001896 0.000000 0.000000 0.000000
# 3 -0.007487 -0.001896 0.015774 0.000000 0.000000 0.000000
# 4 0.000000 0.000000 0.000000 0.021532 0.000000 0.000000
# 5 0.000000 0.000000 0.000000 0.000000 0.048835 0.000000
# 6 0.000000 0.000000 0.000000 0.000000 0.000000 0.046156
#
#
# Mechanical properties :
#
#
# Convention : Reuss Voigt Hill
#
# Bulk Modulus (GPa) = 75.99868 78.12203 77.06036
# Shear Modulus (GPa) = 28.47111 34.51297 31.49204
#
# Velocity S-wave (km/s) = 3.61588 3.98110 3.80288
# Velocity P-wave (km/s) = 7.23417 7.55034 7.39395
#
# Compressibility (1/GPa) = 0.01315812
#
# Stress axis : x y z
#
# Youngs Moduli (GPa) = 90.73906 140.09451 63.39430
#
# Poissons Ratio (x) = 0.14071 0.47465
# Poissons Ratio (y) = 0.09114 0.12018
# Poissons Ratio (z) = 0.67938 0.26559
#
# Static dielectric constant tensor:
#      x y z
#    x 1.764840 0.000000 0.000000 
#    y 0.000000 1.825930 0.000000 
#    z 0.000000 0.000000 1.976810 
# 
# From -- ./inp_files/34816.got.cif
#   From: 2010.05.17/outbox.cif.g08.bks.cpg/sg22_18_cif.got.tgz:34816.got - 2010.06.03 23:40:54.
