data_PCOD9328323
_publ_section_title
;
Structure prediction by ZEFSAII (Michael W. Deem and Ramdas Pophale) SiO2 
 PCOD9328323
Probable space group: F 2 2 2
;
_chemical_formula_sum "Si O2"
_cell_formula_units_Z 72
_cell_length_a 5.229409
_cell_length_b 23.694562
_cell_length_c 24.611442
_cell_angle_alpha 90.000000
_cell_angle_beta 90.000000
_cell_angle_gamma 90.000000
_cell_volume 3049.568234
_symmetry_space_group_name_H-M "F 2 2 2"
_symmetry_group_IT_number 22
_symmetry_cell_setting 'orthorhombic'
loop_
_space_group_symop_operation_xyz
x,y,z
-x,-y,z
x,-y,-z
-x,y,-z
x,1/2+y,1/2+z
-x,1/2-y,1/2+z
x,1/2-y,1/2-z
-x,1/2+y,1/2-z
1/2+x,y,1/2+z
1/2-x,-y,1/2+z
1/2+x,-y,1/2-z
1/2-x,y,1/2-z
1/2+x,1/2+y,z
1/2-x,1/2-y,z
1/2+x,1/2-y,-z
1/2-x,1/2+y,-z
loop_
_atom_site_type_symbol
_atom_site_label
_atom_site_fract_x
_atom_site_fract_y
_atom_site_fract_z
Si Si1 0.000000 0.000000 0.587933
Si Si2 0.750000 0.651089 0.750000
Si Si3 0.750026 0.815065 0.870324
Si Si4 0.500000 0.598704 0.500000
Si Si5 0.241045 0.818827 0.933089
Si Si6 0.750000 0.081013 0.750000
Si Si7 0.000000 0.500000 0.339637
O O1 0.254424 0.013060 0.623102
O O2 0.023697 0.945039 0.549761
O O3 0.805982 0.682449 0.693870
O O4 0.496543 0.616824 0.733182
O O5 0.750000 0.750000 0.885711
O O6 0.477805 0.834456 0.892913
O O7 0.990489 0.839630 0.901805
O O8 0.720032 0.644937 0.487391
O O9 0.250000 0.750000 0.942317
O O10 0.873270 0.045136 0.798658
#
# Coordination Sequence:
#
# PCOD9328323 Si02
#       7
#     8   8  16   8  16   8   8
#     4  11  29  48  81 104 147 200 243 317 384 422
#     4  12  24  40  74 111 138 193 240 292 376 442
#     4  10  23  43  67 106 149 190 233 296 367 445
#     4  11  28  50  74 112 142 195 262 312 372 445
#     4  10  24  44  72 103 146 194 243 303 371 430
#     4  12  27  44  75 107 140 189 241 296 371 442
#     4  12  27  53  69 106 149 183 243 304 370 464
#
# _framework density 23.6099
#
# number of rings (size 3 to 8) (size 9 to 14) (size 15 to 20)
#    0.000    1.111    0.000    4.333    9.333    7.111 
#    0.000    4.444    0.000    0.000    0.000    0.000 
#    0.000    0.000    0.000    0.000    0.000    0.000 
#
# Total GULP energy -100444.401184 kJ/mol
# GULP energy per Si atom -5580.244510 kJ/mol
# Density = 2.355616 g / cm^3
# Si number density = 23.609900 Si / 1000 Ang^3
#
#
#
# Elastic Constant Matrix: (Units=GPa)
#
#
# Indices 1 2 3 4 5 6 
#
# 1 200.7710 27.8145 63.9569 0.0000 0.0000 0.0000
# 2 27.8145 83.4127 24.5406 0.0000 0.0000 0.0000
# 3 63.9569 24.5406 106.8962 0.0000 0.0000 0.0000
# 4 0.0000 0.0000 0.0000 224.5296 0.0000 0.0000
# 5 0.0000 0.0000 0.0000 0.0000 25.3330 0.0000
# 6 0.0000 0.0000 0.0000 0.0000 0.0000 28.9050
#
#
#
# Elastic Compliance Matrix: (Units=1/GPa)
#
#
# Indices 1 2 3 4 5 6 
#
# 1 0.006239 -0.001053 -0.003491 0.000000 0.000000 0.000000
# 2 -0.001053 0.013035 -0.002362 0.000000 0.000000 0.000000
# 3 -0.003491 -0.002362 0.011986 0.000000 0.000000 0.000000
# 4 0.000000 0.000000 0.000000 0.004454 0.000000 0.000000
# 5 0.000000 0.000000 0.000000 0.000000 0.039474 0.000000
# 6 0.000000 0.000000 0.000000 0.000000 0.000000 0.034596
#
#
# Mechanical properties :
#
#
# Convention : Reuss Voigt Hill
#
# Bulk Modulus (GPa) = 57.31817 69.30043 63.30930
# Shear Modulus (GPa) = 38.63634 74.07137 56.35386
#
# Velocity S-wave (km/s) = 4.04969 5.60724 4.89086
# Velocity P-wave (km/s) = 6.79680 8.44615 7.66596
#
# Compressibility (1/GPa) = 0.01744648
#
# Stress axis : x y z
#
# Youngs Moduli (GPa) = 160.28803 76.71762 83.43194
#
# Poissons Ratio (x) = 0.08081 0.29125
# Poissons Ratio (y) = 0.16883 0.19709
# Poissons Ratio (z) = 0.55955 0.18123
#
# Static dielectric constant tensor:
#      x y z
#    x 1.847580 0.000000 0.000000 
#    y 0.000000 1.926660 0.000000 
#    z 0.000000 0.000000 1.945830 
# 
# From -- ./inp_files/46574.got.cif
#   From: 2010.05.17/outbox.cif.g08.bks.cpg/sg22_24_cif.got.tgz:46574.got - 2010.06.03 23:40:54.
