data_PCOD9328712
_publ_section_title
;
Structure prediction by ZEFSAII (Michael W. Deem and Ramdas Pophale) SiO2 
 PCOD9328712
Probable space group: F 2 2 2
;
_chemical_formula_sum "Si O2"
_cell_formula_units_Z 128
_cell_length_a 9.938543
_cell_length_b 22.873339
_cell_length_c 25.294444
_cell_angle_alpha 90.000000
_cell_angle_beta 90.000000
_cell_angle_gamma 90.000000
_cell_volume 5750.126847
_symmetry_space_group_name_H-M "F 2 2 2"
_symmetry_group_IT_number 22
_symmetry_cell_setting 'orthorhombic'
loop_
_space_group_symop_operation_xyz
x,y,z
-x,-y,z
x,-y,-z
-x,y,-z
x,1/2+y,1/2+z
-x,1/2-y,1/2+z
x,1/2-y,1/2-z
-x,1/2+y,1/2-z
1/2+x,y,1/2+z
1/2-x,-y,1/2+z
1/2+x,-y,1/2-z
1/2-x,y,1/2-z
1/2+x,1/2+y,z
1/2-x,1/2-y,z
1/2+x,1/2-y,-z
1/2-x,1/2+y,-z
loop_
_atom_site_type_symbol
_atom_site_label
_atom_site_fract_x
_atom_site_fract_y
_atom_site_fract_z
Si Si1 0.282002 0.063000 0.879530
Si Si2 0.857485 0.359190 0.297858
Si Si3 0.859897 0.893757 0.976854
Si Si4 0.270019 0.684043 0.929070
Si Si5 0.110604 0.843678 0.729241
Si Si6 0.489493 0.329699 0.625331
Si Si7 0.435628 0.706981 0.105834
Si Si8 0.645677 0.524624 0.295939
O O1 0.174709 0.086827 0.836433
O O2 0.221138 0.063248 0.938159
O O3 0.400682 0.111946 0.876952
O O4 0.326517 0.002685 0.853398
O O5 0.750000 0.356410 0.250000
O O6 0.006462 0.360300 0.274747
O O7 0.858487 0.306806 0.339998
O O8 0.888099 0.837427 0.939214
O O9 0.788389 0.864892 0.026717
O O10 0.000000 0.917851 0.000000
O O11 0.250000 0.750000 0.951569
O O12 0.137444 0.665865 0.898351
O O13 0.403593 0.691903 0.892774
O O14 0.250000 0.817421 0.750000
O O15 0.021871 0.810219 0.685720
O O16 0.147473 0.905647 0.702503
O O17 0.421071 0.275583 0.594959
O O18 0.500000 0.500000 0.280122
O O19 0.750000 0.506764 0.250000
#
# Coordination Sequence:
#
# PCOD9328712 Si02
#       8
#    16  16  16  16  16  16  16  16
#     4  11  22  36  60  88 124 153 203 260 307 358
#     4  11  20  39  56  85 124 165 199 246 295 362
#     4   9  20  38  59  86 117 163 198 251 301 364
#     4   9  19  36  57  81 119 157 204 248 295 357
#     4  11  23  38  60  87 122 161 207 249 299 361
#     4  11  21  36  54  90 123 160 206 251 298 363
#     4   9  21  36  56  83 125 166 205 244 297 362
#     4  11  21  39  63  91 123 158 204 257 308 362
#
# _framework density 22.260379
#
# number of rings (size 3 to 8) (size 9 to 14) (size 15 to 20)
#    0.000    1.750    2.500    1.875    1.750    2.500 
#    2.250    0.625    0.000    0.750    0.000    6.125 
#    0.000    0.000    0.000    0.000    0.000    0.000 
#
# Total GULP energy -178659.290607 kJ/mol
# GULP energy per Si atom -5583.102831 kJ/mol
# Density = 2.220971 g / cm^3
# Si number density = 22.260379 Si / 1000 Ang^3
#
#
#
# Elastic Constant Matrix: (Units=GPa)
#
#
# Indices 1 2 3 4 5 6 
#
# 1 69.6853 -1.4776 21.6906 0.0000 0.0000 0.0000
# 2 -1.4776 53.3451 10.2983 0.0000 0.0000 0.0000
# 3 21.6906 10.2983 84.6399 0.0000 0.0000 0.0000
# 4 0.0000 0.0000 0.0000 6.4937 0.0000 0.0000
# 5 0.0000 0.0000 0.0000 0.0000 43.0471 0.0000
# 6 0.0000 0.0000 0.0000 0.0000 0.0000 16.3819
#
#
#
# Elastic Compliance Matrix: (Units=1/GPa)
#
#
# Indices 1 2 3 4 5 6 
#
# 1 0.015674 0.001239 -0.004167 0.000000 0.000000 0.000000
# 2 0.001239 0.019295 -0.002665 0.000000 0.000000 0.000000
# 3 -0.004167 -0.002665 0.013207 0.000000 0.000000 0.000000
# 4 0.000000 0.000000 0.000000 0.153995 0.000000 0.000000
# 5 0.000000 0.000000 0.000000 0.000000 0.023230 0.000000
# 6 0.000000 0.000000 0.000000 0.000000 0.000000 0.061043
#
#
# Mechanical properties :
#
#
# Convention : Reuss Voigt Hill
#
# Bulk Modulus (GPa) = 27.03595 29.85475 28.44535
# Shear Modulus (GPa) = 16.13110 24.99514 20.56312
#
# Velocity S-wave (km/s) = 2.69486 3.35454 3.04263
# Velocity P-wave (km/s) = 4.67491 5.33335 5.01494
#
# Compressibility (1/GPa) = 0.03698778
#
# Stress axis : x y z
#
# Youngs Moduli (GPa) = 63.80132 51.82781 75.71742
#
# Poissons Ratio (x) = -0.06420 0.31554
# Poissons Ratio (y) = -0.07903 0.20179
# Poissons Ratio (z) = 0.26589 0.13812
#
# Static dielectric constant tensor:
#      x y z
#    x 1.869700 0.000000 0.000000 
#    y 0.000000 1.839650 0.000000 
#    z 0.000000 0.000000 1.838080 
# 
# From -- ./inp_files/48410.got.cif
#   From: 2010.05.17/outbox.cif.g08.bks.cpg/sg22_25_cif.got.tgz:48410.got - 2010.06.03 23:40:54.
