data_PCOD9328133
_publ_section_title
;
Structure prediction by ZEFSAII (Michael W. Deem and Ramdas Pophale) SiO2 
 PCOD9328133
Probable space group: F 2 2 2
;
_chemical_formula_sum "Si O2"
_cell_formula_units_Z 48
_cell_length_a 7.916514
_cell_length_b 20.381384
_cell_length_c 12.394344
_cell_angle_alpha 90.000000
_cell_angle_beta 90.000000
_cell_angle_gamma 90.000000
_cell_volume 1999.821353
_symmetry_space_group_name_H-M "F 2 2 2"
_symmetry_group_IT_number 22
_symmetry_cell_setting 'orthorhombic'
loop_
_space_group_symop_operation_xyz
x,y,z
-x,-y,z
x,-y,-z
-x,y,-z
x,1/2+y,1/2+z
-x,1/2-y,1/2+z
x,1/2-y,1/2-z
-x,1/2+y,1/2-z
1/2+x,y,1/2+z
1/2-x,-y,1/2+z
1/2+x,-y,1/2-z
1/2-x,y,1/2-z
1/2+x,1/2+y,z
1/2-x,1/2-y,z
1/2+x,1/2-y,-z
1/2-x,1/2+y,-z
loop_
_atom_site_type_symbol
_atom_site_label
_atom_site_fract_x
_atom_site_fract_y
_atom_site_fract_z
Si Si1 0.884917 0.353454 0.331770
Si Si2 0.230351 0.173877 0.063440
Si Si3 0.579807 0.937391 0.183269
O O1 0.750000 0.321726 0.250000
O O2 0.809979 0.361522 0.450523
O O3 0.068533 0.322164 0.356402
O O4 0.939373 0.419088 0.271478
O O5 0.250000 0.250000 0.033886
O O6 0.375579 0.129271 0.117002
O O7 0.750000 0.951355 0.250000
O O8 0.500000 0.000000 0.124069
#
# Coordination Sequence:
#
# PCOD9328133 Si02
#       3
#    16  16  16
#     4  10  23  43  68  96 130 177 227 280 341 406
#     4  10  24  44  67 100 136 174 228 287 340 404
#     4  10  22  44  69  98 137 178 225 281 343 409
#
# _framework density 24.002144999999999
#
# number of rings (size 3 to 8) (size 9 to 14) (size 15 to 20)
#    0.000    2.000    0.000    1.000    0.000   16.000 
#    0.000   35.000    0.000    0.000    0.000    0.000 
#    0.000    0.000    0.000    0.000    0.000    0.000 
#
# Total GULP energy -66896.150252 kJ/mol
# GULP energy per Si atom -5574.679188 kJ/mol
# Density = 2.394751 g / cm^3
# Si number density = 24.002145 Si / 1000 Ang^3
#
#
#
# Elastic Constant Matrix: (Units=GPa)
#
#
# Indices 1 2 3 4 5 6 
#
# 1 116.3950 43.9507 47.9126 0.0000 0.0000 0.0000
# 2 43.9507 125.2036 46.6352 0.0000 0.0000 0.0000
# 3 47.9126 46.6352 134.9565 0.0000 0.0000 0.0000
# 4 0.0000 0.0000 0.0000 -1.9319 0.0000 0.0000
# 5 0.0000 0.0000 0.0000 0.0000 38.6715 0.0000
# 6 0.0000 0.0000 0.0000 0.0000 0.0000 -2.6236
#
#
#
# Elastic Compliance Matrix: (Units=1/GPa)
#
#
# Indices 1 2 3 4 5 6 
#
# 1 0.010810 -0.002715 -0.002900 0.000000 0.000000 0.000000
# 2 -0.002715 0.009849 -0.002439 0.000000 0.000000 0.000000
# 3 -0.002900 -0.002439 0.009282 0.000000 0.000000 0.000000
# 4 0.000000 0.000000 0.000000 -0.517637 0.000000 0.000000
# 5 0.000000 0.000000 0.000000 0.000000 0.025859 0.000000
# 6 0.000000 0.000000 0.000000 0.000000 0.000000 -0.381159
#
#
# Mechanical properties :
#
#
# Convention : Reuss Voigt Hill
#
# Bulk Modulus (GPa) = 72.29001 72.61689 72.45345
# Shear Modulus (GPa) = -6.08068 22.69366 8.30649
#
# Velocity S-wave (km/s) = -1.59339 3.07821 1.86232
# Velocity P-wave (km/s) = 5.17671 6.55392 5.90560
#
# Compressibility (1/GPa) = 0.01383317
#
# Stress axis : x y z
#
# Youngs Moduli (GPa) = 92.50581 101.53767 107.73233
#
# Poissons Ratio (x) = 0.27564 0.31240
# Poissons Ratio (y) = 0.25112 0.26281
# Poissons Ratio (z) = 0.26825 0.24770
#
# Static dielectric constant tensor:
#      x y z
#    x 2.015710 0.000000 0.000000 
#    y 0.000000 1.936560 0.000000 
#    z 0.000000 0.000000 1.880060 
# 
# From -- ./inp_files/12010.got.cif
#   From: 2010.05.17/outbox.cif.g08.bks.cpg/sg22_7_cif.got.tgz:12010.got - 2010.06.03 23:40:54.
