data_PCOD9328505
_publ_section_title
;
Structure prediction by ZEFSAII (Michael W. Deem and Ramdas Pophale) SiO2 
 PCOD9328505
Probable space group: F 2 2 2
;
_chemical_formula_sum "Si O2"
_cell_formula_units_Z 68
_cell_length_a 20.286224
_cell_length_b 9.167893
_cell_length_c 17.752425
_cell_angle_alpha 90.000000
_cell_angle_beta 90.000000
_cell_angle_gamma 90.000000
_cell_volume 3301.630282
_symmetry_space_group_name_H-M "F 2 2 2"
_symmetry_group_IT_number 22
_symmetry_cell_setting 'orthorhombic'
loop_
_space_group_symop_operation_xyz
x,y,z
-x,-y,z
x,-y,-z
-x,y,-z
x,1/2+y,1/2+z
-x,1/2-y,1/2+z
x,1/2-y,1/2-z
-x,1/2+y,1/2-z
1/2+x,y,1/2+z
1/2-x,-y,1/2+z
1/2+x,-y,1/2-z
1/2-x,y,1/2-z
1/2+x,1/2+y,z
1/2-x,1/2-y,z
1/2+x,1/2-y,-z
1/2-x,1/2+y,-z
loop_
_atom_site_type_symbol
_atom_site_label
_atom_site_fract_x
_atom_site_fract_y
_atom_site_fract_z
Si Si1 0.425620 0.663256 0.972533
Si Si2 0.815860 0.976917 0.710069
Si Si3 0.813128 0.145299 0.453059
Si Si4 0.250000 0.250000 0.250000
Si Si5 0.435789 0.101879 0.298211
O O1 0.422659 0.655129 0.882726
O O2 0.409819 0.500000 0.000000
O O3 0.500000 0.696825 0.000000
O O4 0.374212 0.774618 0.007818
O O5 0.750000 0.914474 0.750000
O O6 0.830831 0.897896 0.632776
O O7 0.792670 0.145019 0.697491
O O8 0.876648 0.000651 0.766118
O O9 0.750000 0.250000 0.452007
O O10 0.797317 0.000000 0.500000
O O11 0.443478 0.250000 0.250000
O O12 0.500000 0.000000 0.297316
#
# Coordination Sequence:
#
# PCOD9328505 Si02
#       5
#    16  16  16   4  16
#     4  11  26  51  72 103 146 195 236 299 362 429
#     4  10  24  45  74 102 140 186 236 295 347 428
#     4  12  29  45  75 110 147 188 243 298 364 426
#     4   8  20  44  74  92 152 172 234 284 368 396
#     4  12  25  45  75 102 141 191 240 288 362 427
#
# _framework density 20.595886
#
# number of rings (size 3 to 8) (size 9 to 14) (size 15 to 20)
#    0.706    0.235    3.529    2.118   11.529    0.941 
#    0.000    0.000    0.000    0.000    0.000    0.000 
#    0.000    0.000    0.000    0.000    0.000    0.000 
#
# Total GULP energy -95009.694184 kJ/mol
# GULP energy per Si atom -5588.805540 kJ/mol
# Density = 2.054901 g / cm^3
# Si number density = 20.595886 Si / 1000 Ang^3
#
#
#
# Elastic Constant Matrix: (Units=GPa)
#
#
# Indices 1 2 3 4 5 6 
#
# 1 150.6592 71.7748 91.8227 0.0000 0.0000 0.0000
# 2 71.7748 117.7696 78.1330 0.0000 0.0000 0.0000
# 3 91.8227 78.1330 220.4517 0.0000 0.0000 0.0000
# 4 0.0000 0.0000 0.0000 55.5403 0.0000 0.0000
# 5 0.0000 0.0000 0.0000 0.0000 47.3784 0.0000
# 6 0.0000 0.0000 0.0000 0.0000 0.0000 -22.5901
#
#
#
# Elastic Compliance Matrix: (Units=1/GPa)
#
#
# Indices 1 2 3 4 5 6 
#
# 1 0.010490 -0.004569 -0.002750 0.000000 0.000000 0.000000
# 2 -0.004569 0.013091 -0.002737 0.000000 0.000000 0.000000
# 3 -0.002750 -0.002737 0.006652 0.000000 0.000000 0.000000
# 4 0.000000 0.000000 0.000000 0.018005 0.000000 0.000000
# 5 0.000000 0.000000 0.000000 0.000000 0.021107 0.000000
# 6 0.000000 0.000000 0.000000 0.000000 0.000000 -0.044267
#
#
# Mechanical properties :
#
#
# Convention : Reuss Voigt Hill
#
# Bulk Modulus (GPa) = 98.79775 108.03793 103.41784
# Shear Modulus (GPa) = 102.95907 32.54238 67.75073
#
# Velocity S-wave (km/s) = 7.07804 3.97929 5.74166
# Velocity P-wave (km/s) = 10.71783 8.58388 9.70966
#
# Compressibility (1/GPa) = 0.01012169
#
# Stress axis : x y z
#
# Youngs Moduli (GPa) = 95.32733 76.38649 150.33882
#
# Poissons Ratio (x) = 0.34899 0.41345
# Poissons Ratio (y) = 0.43552 0.41146
# Poissons Ratio (z) = 0.26216 0.20906
#
# Static dielectric constant tensor:
#      x y z
#    x 1.743670 0.000000 0.000000 
#    y 0.000000 1.746520 0.000000 
#    z 0.000000 0.000000 1.829980 
# 
# From -- ./inp_files/34875.got.cif
#   From: 2010.05.17/outbox.cif.g08.bks.cpg/sg22_18_cif.got.tgz:34875.got - 2010.06.03 23:40:54.
