data_PCOD9328104
_publ_section_title
;
Structure prediction by ZEFSAII (Michael W. Deem and Ramdas Pophale) SiO2 
 PCOD9328104
Probable space group: F 2 2 2
;
_chemical_formula_sum "Si O2"
_cell_formula_units_Z 88
_cell_length_a 21.315689
_cell_length_b 17.311898
_cell_length_c 11.701239
_cell_angle_alpha 90.000000
_cell_angle_beta 90.000000
_cell_angle_gamma 90.000000
_cell_volume 4317.933105
_symmetry_space_group_name_H-M "F 2 2 2"
_symmetry_group_IT_number 22
_symmetry_cell_setting 'orthorhombic'
loop_
_space_group_symop_operation_xyz
x,y,z
-x,-y,z
x,-y,-z
-x,y,-z
x,1/2+y,1/2+z
-x,1/2-y,1/2+z
x,1/2-y,1/2-z
-x,1/2+y,1/2-z
1/2+x,y,1/2+z
1/2-x,-y,1/2+z
1/2+x,-y,1/2-z
1/2-x,y,1/2-z
1/2+x,1/2+y,z
1/2-x,1/2-y,z
1/2+x,1/2-y,-z
1/2-x,1/2+y,-z
loop_
_atom_site_type_symbol
_atom_site_label
_atom_site_fract_x
_atom_site_fract_y
_atom_site_fract_z
Si Si1 0.473860 0.576416 0.184789
Si Si2 0.635956 0.092291 0.474639
Si Si3 0.419139 0.808882 0.663170
Si Si4 0.261640 0.553145 0.382446
Si Si5 0.404055 0.928667 0.087873
Si Si6 0.000000 0.800472 0.500000
O O1 0.500000 0.500000 0.126077
O O2 0.423877 0.615486 0.101445
O O3 0.531779 0.630487 0.217618
O O4 0.435631 0.547360 0.293576
O O5 0.629061 0.141433 0.589152
O O6 0.700765 0.105188 0.407917
O O7 0.631581 0.000000 0.500000
O O8 0.387298 0.750000 0.750000
O O9 0.464778 0.754872 0.588533
O O10 0.262060 0.500000 0.500000
O O11 0.250000 0.522101 0.250000
O O12 0.331044 0.588965 0.387721
O O13 0.445141 0.856314 0.047044
O O14 0.408595 0.000000 0.000000
#
# Coordination Sequence:
#
# PCOD9328104 Si02
#       6
#    16  16  16  16  16   8
#     4  12  21  36  66 101 135 179 227 283 350 417
#     4  11  22  40  68  99 136 180 231 282 346 421
#     4  12  25  39  62  99 143 176 220 293 359 409
#     4  10  22  43  69 100 137 183 233 293 346 411
#     4  11  24  41  63  96 137 176 229 285 349 416
#     4  12  23  40  61  92 130 176 222 282 351 414
#
# _framework density 20.380120999999999
#
# number of rings (size 3 to 8) (size 9 to 14) (size 15 to 20)
#    0.000    0.727    7.273    1.364    0.000    0.000 
#    3.273    0.909    0.000    2.182    0.000    0.000 
#    0.000    0.000    0.000    0.000    0.000    0.000 
#
# Total GULP energy -122636.671594 kJ/mol
# GULP energy per Si atom -5574.394163 kJ/mol
# Density = 2.033374 g / cm^3
# Si number density = 20.380121 Si / 1000 Ang^3
#
#
#
# Elastic Constant Matrix: (Units=GPa)
#
#
# Indices 1 2 3 4 5 6 
#
# 1 125.2563 28.5040 36.5331 0.0000 0.0000 0.0000
# 2 28.5040 85.2150 36.0479 0.0000 0.0000 0.0000
# 3 36.5331 36.0479 114.6215 0.0000 0.0000 0.0000
# 4 0.0000 0.0000 0.0000 38.6812 0.0000 0.0000
# 5 0.0000 0.0000 0.0000 0.0000 25.3599 0.0000
# 6 0.0000 0.0000 0.0000 0.0000 0.0000 2.2054
#
#
#
# Elastic Compliance Matrix: (Units=1/GPa)
#
#
# Indices 1 2 3 4 5 6 
#
# 1 0.009116 -0.002100 -0.002245 0.000000 0.000000 0.000000
# 2 -0.002100 0.014019 -0.003740 0.000000 0.000000 0.000000
# 3 -0.002245 -0.003740 0.010616 0.000000 0.000000 0.000000
# 4 0.000000 0.000000 0.000000 0.025852 0.000000 0.000000
# 5 0.000000 0.000000 0.000000 0.000000 0.039432 0.000000
# 6 0.000000 0.000000 0.000000 0.000000 0.000000 0.453435
#
#
# Mechanical properties :
#
#
# Convention : Reuss Voigt Hill
#
# Bulk Modulus (GPa) = 56.87497 58.58476 57.72987
# Shear Modulus (GPa) = 8.70319 28.18313 18.44316
#
# Velocity S-wave (km/s) = 2.06874 3.72274 3.01152
# Velocity P-wave (km/s) = 5.80292 6.87654 6.36242
#
# Compressibility (1/GPa) = 0.01758243
#
# Stress axis : x y z
#
# Youngs Moduli (GPa) = 109.69365 71.33001 94.19582
#
# Poissons Ratio (x) = 0.14976 0.21150
# Poissons Ratio (y) = 0.23030 0.35228
# Poissons Ratio (z) = 0.24630 0.26676
#
# Static dielectric constant tensor:
#      x y z
#    x 1.725860 0.000000 0.000000 
#    y 0.000000 1.742580 0.000000 
#    z 0.000000 0.000000 1.828820 
# 
# From -- ./inp_files/21389.got.cif
#   From: 2010.05.17/outbox.cif.g08.bks.cpg/sg22_11_cif.got.tgz:21389.got - 2010.06.03 23:40:54.
