data_PCOD9328589
_publ_section_title
;
Structure prediction by ZEFSAII (Michael W. Deem and Ramdas Pophale) SiO2 
 PCOD9328589
Probable space group: F 2 2 2
;
_chemical_formula_sum "Si O2"
_cell_formula_units_Z 48
_cell_length_a 10.972265
_cell_length_b 23.980234
_cell_length_c 7.703044
_cell_angle_alpha 90.000000
_cell_angle_beta 90.000000
_cell_angle_gamma 90.000000
_cell_volume 2026.805543
_symmetry_space_group_name_H-M "F 2 2 2"
_symmetry_group_IT_number 22
_symmetry_cell_setting 'orthorhombic'
loop_
_space_group_symop_operation_xyz
x,y,z
-x,-y,z
x,-y,-z
-x,y,-z
x,1/2+y,1/2+z
-x,1/2-y,1/2+z
x,1/2-y,1/2-z
-x,1/2+y,1/2-z
1/2+x,y,1/2+z
1/2-x,-y,1/2+z
1/2+x,-y,1/2-z
1/2-x,y,1/2-z
1/2+x,1/2+y,z
1/2-x,1/2-y,z
1/2+x,1/2-y,-z
1/2-x,1/2+y,-z
loop_
_atom_site_type_symbol
_atom_site_label
_atom_site_fract_x
_atom_site_fract_y
_atom_site_fract_z
Si Si1 0.033525 0.250000 0.750000
Si Si2 0.140125 0.345698 0.116908
Si Si3 0.611604 0.969450 0.184754
Si Si4 0.750000 0.675339 0.750000
O O1 0.136488 0.290118 0.663092
O O2 0.945430 0.292587 0.849117
O O3 0.250000 0.338112 0.250000
O O4 0.079670 0.404323 0.167714
O O5 0.189283 0.351957 0.919449
O O6 0.750000 0.972988 0.250000
O O7 0.500000 0.000000 0.282077
O O8 0.618166 0.000000 0.000000
#
# Coordination Sequence:
#
# PCOD9328589 Si02
#       4
#     8  16  16   8
#     4  11  27  44  70 108 149 193 250 296 370 455
#     4  11  27  48  73 109 152 195 253 310 372 451
#     4  10  25  47  76 107 146 197 249 319 375 444
#     4  11  28  44  76 108 146 208 234 309 382 439
#
# _framework density 23.682587999999999
#
# number of rings (size 3 to 8) (size 9 to 14) (size 15 to 20)
#    0.000    1.333    0.000    1.500   25.667    0.667 
#    3.000    6.667    0.000    0.000    0.000    0.000 
#    0.000    0.000    0.000    0.000    0.000    0.000 
#
# Total GULP energy -66884.856696 kJ/mol
# GULP energy per Si atom -5573.738058 kJ/mol
# Density = 2.362869 g / cm^3
# Si number density = 23.682588 Si / 1000 Ang^3
#
#
#
# Elastic Constant Matrix: (Units=GPa)
#
#
# Indices 1 2 3 4 5 6 
#
# 1 175.6118 79.1867 61.4519 0.0000 0.0000 0.0000
# 2 79.1867 163.2844 51.7498 0.0000 0.0000 0.0000
# 3 61.4519 51.7498 94.0085 0.0000 0.0000 0.0000
# 4 0.0000 0.0000 0.0000 18.3575 0.0000 0.0000
# 5 0.0000 0.0000 0.0000 0.0000 40.1433 0.0000
# 6 0.0000 0.0000 0.0000 0.0000 0.0000 49.9026
#
#
#
# Elastic Compliance Matrix: (Units=1/GPa)
#
#
# Indices 1 2 3 4 5 6 
#
# 1 0.008321 -0.002800 -0.003898 0.000000 0.000000 0.000000
# 2 -0.002800 0.008361 -0.002772 0.000000 0.000000 0.000000
# 3 -0.003898 -0.002772 0.014711 0.000000 0.000000 0.000000
# 4 0.000000 0.000000 0.000000 0.054474 0.000000 0.000000
# 5 0.000000 0.000000 0.000000 0.000000 0.024911 0.000000
# 6 0.000000 0.000000 0.000000 0.000000 0.000000 0.020039
#
#
# Mechanical properties :
#
#
# Convention : Reuss Voigt Hill
#
# Bulk Modulus (GPa) = 80.30215 90.85351 85.57783
# Shear Modulus (GPa) = 32.48706 37.71511 35.10109
#
# Velocity S-wave (km/s) = 3.70776 3.99497 3.85404
# Velocity P-wave (km/s) = 7.23265 7.72826 7.48456
#
# Compressibility (1/GPa) = 0.01245297
#
# Stress axis : x y z
#
# Youngs Moduli (GPa) = 120.17861 119.60684 67.97468
#
# Poissons Ratio (x) = 0.33489 0.26496
# Poissons Ratio (y) = 0.33650 0.18843
# Poissons Ratio (z) = 0.46845 0.33156
#
# Static dielectric constant tensor:
#      x y z
#    x 2.109720 0.000000 0.000000 
#    y 0.000000 1.933990 0.000000 
#    z 0.000000 0.000000 1.940630 
# 
# From -- ./inp_files/8196.got.cif
#   From: 2010.05.17/outbox.cif.g08.bks.cpg/sg22_5_cif.got.tgz:8196.got - 2010.06.03 23:40:54.
