data_PCOD9328961
_publ_section_title
;
Structure prediction by ZEFSAII (Michael W. Deem and Ramdas Pophale) SiO2 
 PCOD9328961
Probable space group: F 2 2 2
;
_chemical_formula_sum "Si O2"
_cell_formula_units_Z 88
_cell_length_a 21.818527
_cell_length_b 21.039007
_cell_length_c 9.353731
_cell_angle_alpha 90.000000
_cell_angle_beta 90.000000
_cell_angle_gamma 90.000000
_cell_volume 4293.738009
_symmetry_space_group_name_H-M "F 2 2 2"
_symmetry_group_IT_number 22
_symmetry_cell_setting 'orthorhombic'
loop_
_space_group_symop_operation_xyz
x,y,z
-x,-y,z
x,-y,-z
-x,y,-z
x,1/2+y,1/2+z
-x,1/2-y,1/2+z
x,1/2-y,1/2-z
-x,1/2+y,1/2-z
1/2+x,y,1/2+z
1/2-x,-y,1/2+z
1/2+x,-y,1/2-z
1/2-x,y,1/2-z
1/2+x,1/2+y,z
1/2-x,1/2-y,z
1/2+x,1/2-y,-z
1/2-x,1/2+y,-z
loop_
_atom_site_type_symbol
_atom_site_label
_atom_site_fract_x
_atom_site_fract_y
_atom_site_fract_z
Si Si1 0.312532 0.493180 0.672212
Si Si2 0.750000 0.750000 0.750000
Si Si3 0.909379 0.585428 0.316988
Si Si4 0.147668 0.850408 0.306762
Si Si5 0.000000 0.500000 0.500000
Si Si6 0.425868 0.818688 0.474405
Si Si7 0.432482 0.322771 0.437214
O O1 0.308167 0.500000 0.500000
O O2 0.250000 0.512102 0.750000
O O3 0.364397 0.539920 0.732498
O O4 0.327586 0.421019 0.722483
O O5 0.797413 0.799284 0.676037
O O6 0.959776 0.542305 0.393726
O O7 0.885249 0.627539 0.448310
O O8 0.933281 0.640109 0.210638
O O9 0.098567 0.823727 0.188708
O O10 0.112639 0.857728 0.455338
O O11 0.500000 0.829174 0.500000
O O12 0.413762 0.751081 0.549595
O O13 0.500000 0.325051 0.500000
#
# Coordination Sequence:
#
# PCOD9328961 Si02
#       7
#    16   4  16  16   4  16  16
#     4  12  29  48  72 102 145 197 249 305 365 439
#     4  12  24  44  80  98 140 192 242 288 360 452
#     4  12  26  45  68 104 146 187 242 297 364 448
#     4  12  24  47  73 107 141 189 242 297 370 438
#     4  12  28  44  70 104 148 204 234 296 392 440
#     4  11  23  44  72 107 146 188 237 298 372 436
#     4  11  24  43  72 105 144 183 238 306 364 436
#
# _framework density 20.494962000000001
#
# number of rings (size 3 to 8) (size 9 to 14) (size 15 to 20)
#    0.000    0.364    5.455    2.727    6.364    2.909 
#    0.000    0.000    0.000    2.182    0.000    0.000 
#    0.000    0.000    0.000    0.000    0.000    0.000 
#
# Total GULP energy -122725.673105 kJ/mol
# GULP energy per Si atom -5578.439687 kJ/mol
# Density = 2.044832 g / cm^3
# Si number density = 20.494962 Si / 1000 Ang^3
#
#
#
# Elastic Constant Matrix: (Units=GPa)
#
#
# Indices 1 2 3 4 5 6 
#
# 1 84.3960 26.9784 48.2058 0.0000 0.0000 0.0000
# 2 26.9784 109.5788 43.0725 0.0000 0.0000 0.0000
# 3 48.2058 43.0725 134.2398 0.0000 0.0000 0.0000
# 4 0.0000 0.0000 0.0000 29.1819 0.0000 0.0000
# 5 0.0000 0.0000 0.0000 0.0000 32.4367 0.0000
# 6 0.0000 0.0000 0.0000 0.0000 0.0000 69.9986
#
#
#
# Elastic Compliance Matrix: (Units=1/GPa)
#
#
# Indices 1 2 3 4 5 6 
#
# 1 0.015220 -0.001830 -0.004879 0.000000 0.000000 0.000000
# 2 -0.001830 0.010663 -0.002764 0.000000 0.000000 0.000000
# 3 -0.004879 -0.002764 0.010088 0.000000 0.000000 0.000000
# 4 0.000000 0.000000 0.000000 0.034268 0.000000 0.000000
# 5 0.000000 0.000000 0.000000 0.000000 0.030829 0.000000
# 6 0.000000 0.000000 0.000000 0.000000 0.000000 0.014286
#
#
# Mechanical properties :
#
#
# Convention : Reuss Voigt Hill
#
# Bulk Modulus (GPa) = 58.73222 62.74754 60.73988
# Shear Modulus (GPa) = 35.72067 40.32065 38.02066
#
# Velocity S-wave (km/s) = 4.17933 4.44029 4.31179
# Velocity P-wave (km/s) = 7.21167 7.54790 7.38170
#
# Compressibility (1/GPa) = 0.01702643
#
# Stress axis : x y z
#
# Youngs Moduli (GPa) = 65.70149 93.78335 99.12533
#
# Poissons Ratio (x) = 0.17159 0.48359
# Poissons Ratio (y) = 0.12021 0.27401
# Poissons Ratio (z) = 0.32053 0.25925
#
# Static dielectric constant tensor:
#      x y z
#    x 1.741030 0.000000 0.000000 
#    y 0.000000 1.806790 0.000000 
#    z 0.000000 0.000000 1.720270 
# 
# From -- ./inp_files/13777.got.cif
#   From: 2010.05.17/outbox.cif.g08.bks.cpg/sg22_7_cif.got.tgz:13777.got - 2010.06.03 23:40:54.
