data_PCOD9328828
_publ_section_title
;
Structure prediction by ZEFSAII (Michael W. Deem and Ramdas Pophale) SiO2 
 PCOD9328828
Probable space group: F 2 2 2
;
_chemical_formula_sum "Si O2"
_cell_formula_units_Z 84
_cell_length_a 22.616780
_cell_length_b 19.669311
_cell_length_c 8.054182
_cell_angle_alpha 90.000000
_cell_angle_beta 90.000000
_cell_angle_gamma 90.000000
_cell_volume 3582.955051
_symmetry_space_group_name_H-M "F 2 2 2"
_symmetry_group_IT_number 22
_symmetry_cell_setting 'orthorhombic'
loop_
_space_group_symop_operation_xyz
x,y,z
-x,-y,z
x,-y,-z
-x,y,-z
x,1/2+y,1/2+z
-x,1/2-y,1/2+z
x,1/2-y,1/2-z
-x,1/2+y,1/2-z
1/2+x,y,1/2+z
1/2-x,-y,1/2+z
1/2+x,-y,1/2-z
1/2-x,y,1/2-z
1/2+x,1/2+y,z
1/2-x,1/2-y,z
1/2+x,1/2-y,-z
1/2-x,1/2+y,-z
loop_
_atom_site_type_symbol
_atom_site_label
_atom_site_fract_x
_atom_site_fract_y
_atom_site_fract_z
Si Si1 0.137514 0.270876 0.518906
Si Si2 0.364977 0.856156 0.815483
Si Si3 0.067550 0.010576 0.201354
Si Si4 0.750000 0.250000 0.250000
Si Si5 0.736680 0.919157 0.995607
Si Si6 0.348898 0.390064 0.798862
O O1 0.117428 0.195077 0.467775
O O2 0.138585 0.309300 0.345312
O O3 0.200988 0.270712 0.609994
O O4 0.109942 0.326331 0.646735
O O5 0.408110 0.918216 0.770742
O O6 0.300202 0.886737 0.854579
O O7 0.110309 0.950971 0.262319
O O8 0.000000 0.000000 0.251418
O O9 0.070191 0.000000 0.000000
O O10 0.700401 0.883918 0.844254
O O11 0.806336 0.911286 0.955133
O O12 0.726678 0.000000 0.000000
#
# Coordination Sequence:
#
# PCOD9328828 Si02
#       6
#    16  16  16   4  16  16
#     4  11  24  41  68  96 150 185 242 290 363 454
#     4  11  24  43  66 107 135 192 239 301 365 434
#     4  11  23  45  73 101 143 188 249 311 363 434
#     4  12  24  46  60 108 144 210 220 286 380 448
#     4  11  23  37  66 100 154 177 239 300 353 445
#     4  11  22  40  63 105 139 198 226 290 376 428
#
# _framework density 23.444334000000001
#
# number of rings (size 3 to 8) (size 9 to 14) (size 15 to 20)
#    0.000    0.952    3.810    4.000    0.000    5.333 
#    0.000    1.905    0.000   13.714    0.000    0.000 
#    0.000    0.000    0.000    0.000    0.000    0.000 
#
# Total GULP energy -116968.804732 kJ/mol
# GULP energy per Si atom -5569.943082 kJ/mol
# Density = 2.339097 g / cm^3
# Si number density = 23.444334 Si / 1000 Ang^3
#
#
#
# Elastic Constant Matrix: (Units=GPa)
#
#
# Indices 1 2 3 4 5 6 
#
# 1 121.2927 55.5139 32.1097 0.0000 -0.0002 0.0000
# 2 55.5139 205.3207 49.2797 0.0000 -0.0007 0.0000
# 3 32.1097 49.2797 84.1042 -0.0001 -0.0012 0.0000
# 4 0.0000 0.0000 -0.0001 40.5985 -0.0008 0.0000
# 5 -0.0002 -0.0007 -0.0012 -0.0008 -4.0283 0.0002
# 6 0.0000 0.0000 0.0000 0.0000 0.0002 2.9426
#
#
#
# Elastic Compliance Matrix: (Units=1/GPa)
#
#
# Indices 1 2 3 4 5 6 
#
# 1 0.009862 -0.002051 -0.002563 0.000000 0.000001 0.000000
# 2 -0.002051 0.006094 -0.002788 0.000000 0.000000 0.000000
# 3 -0.002563 -0.002788 0.014502 0.000000 -0.000004 0.000000
# 4 0.000000 0.000000 0.000000 0.024631 -0.000005 0.000000
# 5 0.000001 0.000000 -0.000004 -0.000005 -0.248245 0.000019
# 6 0.000000 0.000000 0.000000 0.000000 0.000019 0.339838
#
#
# Mechanical properties :
#
#
# Convention : Reuss Voigt Hill
#
# Bulk Modulus (GPa) = 63.88219 76.05823 69.97021
# Shear Modulus (GPa) = 29.99317 26.15685 28.07501
#
# Velocity S-wave (km/s) = 3.58066 3.34383 3.46427
# Velocity P-wave (km/s) = 6.66352 6.88627 6.77581
#
# Compressibility (1/GPa) = 0.01565382
#
# Stress axis : x y z
#
# Youngs Moduli (GPa) = 101.40047 164.09323 68.95608
#
# Poissons Ratio (x) = 0.33659 0.17675
# Poissons Ratio (y) = 0.20799 0.19222
# Poissons Ratio (z) = 0.25991 0.45743
#
# Static dielectric constant tensor:
#      x y z
#    x 1.810920 0.000000 0.000000 
#    y 0.000000 2.287170 0.000000 
#    z 0.000000 0.000000 1.993620 
# 
# From -- ./inp_files/13657.got.cif
#   From: 2010.05.17/outbox.cif.g08.bks.cpg/sg22_7_cif.got.tgz:13657.got - 2010.06.03 23:40:54.
