data_PCOD9328240
_publ_section_title
;
Structure prediction by ZEFSAII (Michael W. Deem and Ramdas Pophale) SiO2 
 PCOD9328240
Probable space group: F 2 2 2
;
_chemical_formula_sum "Si O2"
_cell_formula_units_Z 112
_cell_length_a 14.383730
_cell_length_b 36.210504
_cell_length_c 10.075538
_cell_angle_alpha 90.000000
_cell_angle_beta 90.000000
_cell_angle_gamma 90.000000
_cell_volume 5247.764499
_symmetry_space_group_name_H-M "F 2 2 2"
_symmetry_group_IT_number 22
_symmetry_cell_setting 'orthorhombic'
loop_
_space_group_symop_operation_xyz
x,y,z
-x,-y,z
x,-y,-z
-x,y,-z
x,1/2+y,1/2+z
-x,1/2-y,1/2+z
x,1/2-y,1/2-z
-x,1/2+y,1/2-z
1/2+x,y,1/2+z
1/2-x,-y,1/2+z
1/2+x,-y,1/2-z
1/2-x,y,1/2-z
1/2+x,1/2+y,z
1/2-x,1/2-y,z
1/2+x,1/2-y,-z
1/2-x,1/2+y,-z
loop_
_atom_site_type_symbol
_atom_site_label
_atom_site_fract_x
_atom_site_fract_y
_atom_site_fract_z
Si Si1 0.018735 0.362022 0.738443
Si Si2 0.390016 0.239280 0.513430
Si Si3 0.340519 0.001485 0.657187
Si Si4 0.998376 0.559823 0.342098
Si Si5 0.812210 0.665132 0.619072
Si Si6 0.130865 0.818744 0.467940
Si Si7 0.642848 0.308887 0.767308
O O1 0.989485 0.404239 0.750256
O O2 0.105196 0.363101 0.636537
O O3 0.064724 0.342477 0.870693
O O4 0.932576 0.338481 0.679829
O O5 0.500000 0.242868 0.500000
O O6 0.362734 0.204018 0.599942
O O7 0.352036 0.276638 0.580398
O O8 0.356183 0.225926 0.367152
O O9 0.250000 0.000936 0.750000
O O10 0.406215 0.037207 0.682651
O O11 0.315799 0.000000 0.500000
O O12 0.410822 0.967205 0.680216
O O13 0.000000 0.569074 0.500000
O O14 0.750000 0.665410 0.750000
O O15 0.729157 0.660320 0.515800
O O16 0.103296 0.806622 0.617121
O O17 0.750000 0.319354 0.750000
#
# Coordination Sequence:
#
# PCOD9328240 Si02
#       7
#    16  16  16  16  16  16  16
#     4  11  24  43  63  91 127 175 219 267 332 396
#     4  12  23  41  63  84 113 163 221 276 347 407
#     4   9  19  42  71 113 142 179 221 264 318 391
#     4   9  21  40  71  98 141 181 221 263 315 400
#     4  10  23  40  60  84 117 158 218 273 332 391
#     4  11  25  42  58  88 122 157 215 289 340 396
#     4  12  25  40  60  87 121 162 216 282 349 411
#
# _framework density 21.342421999999999
#
# number of rings (size 3 to 8) (size 9 to 14) (size 15 to 20)
#    0.000    1.429    2.857    3.000    2.000    6.857 
#    0.000    7.143    0.000    0.000    0.000    0.000 
#    0.000    0.000    0.000    0.000    0.000    0.000 
#
# Total GULP energy -155944.209046 kJ/mol
# GULP energy per Si atom -5569.436037 kJ/mol
# Density = 2.129385 g / cm^3
# Si number density = 21.342422 Si / 1000 Ang^3
#
#
#
# Elastic Constant Matrix: (Units=GPa)
#
#
# Indices 1 2 3 4 5 6 
#
# 1 172.0147 39.3300 31.0543 0.0000 0.0000 0.0000
# 2 39.3300 103.7202 32.6826 0.0000 0.0000 0.0000
# 3 31.0543 32.6826 93.6481 0.0000 0.0000 0.0000
# 4 0.0000 0.0000 0.0000 15.4596 0.0000 0.0000
# 5 0.0000 0.0000 0.0000 0.0000 28.6486 0.0000
# 6 0.0000 0.0000 0.0000 0.0000 0.0000 12.1251
#
#
#
# Elastic Compliance Matrix: (Units=1/GPa)
#
#
# Indices 1 2 3 4 5 6 
#
# 1 0.006539 -0.002018 -0.001464 0.000000 0.000000 0.000000
# 2 -0.002018 0.011456 -0.003329 0.000000 0.000000 0.000000
# 3 -0.001464 -0.003329 0.012325 0.000000 0.000000 0.000000
# 4 0.000000 0.000000 0.000000 0.064685 0.000000 0.000000
# 5 0.000000 0.000000 0.000000 0.000000 0.034906 0.000000
# 6 0.000000 0.000000 0.000000 0.000000 0.000000 0.082473
#
#
# Mechanical properties :
#
#
# Convention : Reuss Voigt Hill
#
# Bulk Modulus (GPa) = 59.88672 63.94630 61.91651
# Shear Modulus (GPa) = 21.59156 29.00108 25.29632
#
# Velocity S-wave (km/s) = 3.18413 3.69025 3.44650
# Velocity P-wave (km/s) = 6.45284 6.94150 6.70162
#
# Compressibility (1/GPa) = 0.01669819
#
# Stress axis : x y z
#
# Youngs Moduli (GPa) = 152.92290 87.29426 81.13306
#
# Poissons Ratio (x) = 0.17619 0.11879
# Poissons Ratio (y) = 0.30864 0.27006
# Poissons Ratio (z) = 0.22389 0.29057
#
# Static dielectric constant tensor:
#      x y z
#    x 1.822040 0.000000 0.000000 
#    y 0.000000 1.828240 0.000000 
#    z 0.000000 0.000000 1.969060 
# 
# From -- ./inp_files/20306.got.cif
#   From: 2010.05.17/outbox.cif.g08.bks.cpg/sg22_11_cif.got.tgz:20306.got - 2010.06.03 23:40:54.
