data_PCOD9328253
_publ_section_title
;
Structure prediction by ZEFSAII (Michael W. Deem and Ramdas Pophale) SiO2 
 PCOD9328253
Probable space group: F 2 2 2
;
_chemical_formula_sum "Si O2"
_cell_formula_units_Z 84
_cell_length_a 10.929940
_cell_length_b 14.808399
_cell_length_c 22.836318
_cell_angle_alpha 90.000000
_cell_angle_beta 90.000000
_cell_angle_gamma 90.000000
_cell_volume 3696.170253
_symmetry_space_group_name_H-M "F 2 2 2"
_symmetry_group_IT_number 22
_symmetry_cell_setting 'orthorhombic'
loop_
_space_group_symop_operation_xyz
x,y,z
-x,-y,z
x,-y,-z
-x,y,-z
x,1/2+y,1/2+z
-x,1/2-y,1/2+z
x,1/2-y,1/2-z
-x,1/2+y,1/2-z
1/2+x,y,1/2+z
1/2-x,-y,1/2+z
1/2+x,-y,1/2-z
1/2-x,y,1/2-z
1/2+x,1/2+y,z
1/2-x,1/2-y,z
1/2+x,1/2-y,-z
1/2-x,1/2+y,-z
loop_
_atom_site_type_symbol
_atom_site_label
_atom_site_fract_x
_atom_site_fract_y
_atom_site_fract_z
Si Si1 0.147288 0.893210 0.502363
Si Si2 0.854878 0.691467 0.881452
Si Si3 0.954387 0.879281 0.893864
Si Si4 0.763779 0.353070 0.626379
Si Si5 0.730830 0.536986 0.681368
Si Si6 0.000000 0.500000 0.500000
O O1 0.192736 0.845444 0.443526
O O2 0.206376 0.855539 0.561235
O O3 0.000000 0.882115 0.500000
O O4 0.171939 0.000000 0.500000
O O5 0.750000 0.750000 0.849867
O O6 0.947859 0.770278 0.896278
O O7 0.875976 0.603745 0.842633
O O8 0.854462 0.923128 0.850164
O O9 0.096104 0.887714 0.876414
O O10 0.935255 0.931190 0.955249
O O11 0.750000 0.250000 0.648624
O O12 0.702832 0.434359 0.662771
O O13 0.750000 0.543233 0.750000
#
# Coordination Sequence:
#
# PCOD9328253 Si02
#       6
#    16  16  16  16  16   4
#     4  11  23  39  63 101 145 185 227 290 370 449
#     4  10  23  40  66 103 136 184 246 286 362 438
#     4  11  26  43  73 111 143 195 244 301 381 452
#     4  12  25  44  71 108 149 188 245 315 383 443
#     4  11  25  50  72  97 145 201 257 306 361 451
#     4  12  24  40  76 108 160 180 232 318 376 464
#
# _framework density 22.726226
#
# number of rings (size 3 to 8) (size 9 to 14) (size 15 to 20)
#    0.000    0.952    3.810    1.714   10.667    3.810 
#    0.000    9.524    0.000    0.000    0.000    0.000 
#    0.000    0.000    0.000    0.000    0.000    0.000 
#
# Total GULP energy -117192.425321 kJ/mol
# GULP energy per Si atom -5580.591682 kJ/mol
# Density = 2.267450 g / cm^3
# Si number density = 22.726226 Si / 1000 Ang^3
#
#
#
# Elastic Constant Matrix: (Units=GPa)
#
#
# Indices 1 2 3 4 5 6 
#
# 1 57.1440 21.8634 2.3457 0.0000 0.0000 0.0000
# 2 21.8634 232.1462 69.5624 0.0000 0.0000 0.0000
# 3 2.3457 69.5624 155.3012 0.0000 0.0000 0.0000
# 4 0.0000 0.0000 0.0000 -2.6933 0.0000 0.0000
# 5 0.0000 0.0000 0.0000 0.0000 5.4906 0.0000
# 6 0.0000 0.0000 0.0000 0.0000 0.0000 36.0235
#
#
#
# Elastic Compliance Matrix: (Units=1/GPa)
#
#
# Indices 1 2 3 4 5 6 
#
# 1 0.018197 -0.001884 0.000569 0.000000 0.000000 0.000000
# 2 -0.001884 0.005171 -0.002288 0.000000 0.000000 0.000000
# 3 0.000569 -0.002288 0.007455 0.000000 0.000000 0.000000
# 4 0.000000 0.000000 0.000000 -0.371296 0.000000 0.000000
# 5 0.000000 0.000000 0.000000 0.000000 0.182131 0.000000
# 6 0.000000 0.000000 0.000000 0.000000 0.000000 0.027760
#
#
# Mechanical properties :
#
#
# Convention : Reuss Voigt Hill
#
# Bulk Modulus (GPa) = 42.34143 70.23714 56.28928
# Shear Modulus (GPa) = -43.28840 31.15215 -6.06812
#
# Velocity S-wave (km/s) = -4.36911 3.70639 -1.63582
# Velocity P-wave (km/s) = 2.60396 7.02063 4.61024
#
# Compressibility (1/GPa) = 0.02361753
#
# Stress axis : x y z
#
# Youngs Moduli (GPa) = 54.95335 193.40290 134.13585
#
# Poissons Ratio (x) = 0.36444 -0.07635
# Poissons Ratio (y) = 0.10355 0.30684
# Poissons Ratio (z) = -0.03128 0.44241
#
# Static dielectric constant tensor:
#      x y z
#    x 2.035330 0.000000 0.000000 
#    y 0.000000 1.913200 0.000000 
#    z 0.000000 0.000000 1.792890 
# 
# From -- ./inp_files/48031.got.cif
#   From: 2010.05.17/outbox.cif.g08.bks.cpg/sg22_25_cif.got.tgz:48031.got - 2010.06.03 23:40:54.
