data_PCOD9328999
_publ_section_title
;
Structure prediction by ZEFSAII (Michael W. Deem and Ramdas Pophale) SiO2 
 PCOD9328999
Probable space group: F 2 2 2
;
_chemical_formula_sum "Si O2"
_cell_formula_units_Z 64
_cell_length_a 9.303148
_cell_length_b 20.284209
_cell_length_c 18.462043
_cell_angle_alpha 90.000000
_cell_angle_beta 90.000000
_cell_angle_gamma 90.000000
_cell_volume 3483.916719
_symmetry_space_group_name_H-M "F 2 2 2"
_symmetry_group_IT_number 22
_symmetry_cell_setting 'orthorhombic'
loop_
_space_group_symop_operation_xyz
x,y,z
-x,-y,z
x,-y,-z
-x,y,-z
x,1/2+y,1/2+z
-x,1/2-y,1/2+z
x,1/2-y,1/2-z
-x,1/2+y,1/2-z
1/2+x,y,1/2+z
1/2-x,-y,1/2+z
1/2+x,-y,1/2-z
1/2-x,y,1/2-z
1/2+x,1/2+y,z
1/2-x,1/2-y,z
1/2+x,1/2-y,-z
1/2-x,1/2+y,-z
loop_
_atom_site_type_symbol
_atom_site_label
_atom_site_fract_x
_atom_site_fract_y
_atom_site_fract_z
Si Si1 0.508019 0.754862 0.330413
Si Si2 0.830066 0.424056 0.983893
Si Si3 0.765440 0.361050 0.831838
Si Si4 0.846065 0.305403 0.464502
O O1 0.446473 0.750000 0.250000
O O2 0.626889 0.813133 0.335870
O O3 0.596909 0.687242 0.338802
O O4 0.391211 0.771435 0.389754
O O5 0.782564 0.408024 0.901080
O O6 0.797160 0.500000 0.000000
O O7 0.743561 0.372309 0.033716
O O8 0.000000 0.413847 0.000000
O O9 0.750000 0.390213 0.750000
O O10 0.750000 0.250000 0.505319
O O11 0.000000 0.317822 0.500000
#
# Coordination Sequence:
#
# PCOD9328999 Si02
#       4
#    16  16  16  16
#     4   9  18  33  58  93 122 150 198 254 309 368
#     4  11  24  41  63  89 124 166 215 263 312 373
#     4   9  17  36  63  88 120 163 200 248 319 381
#     4  12  22  35  61  90 121 156 202 254 310 367
#
# _framework density 18.370128999999999
#
# number of rings (size 3 to 8) (size 9 to 14) (size 15 to 20)
#    0.000    1.750    2.500    5.250    0.000    1.000 
#    0.000    0.000   27.500    0.000    0.000    0.000 
#    0.000    0.000    0.000    0.000    0.000    0.000 
#
# Total GULP energy -89185.741294 kJ/mol
# GULP energy per Si atom -5574.108831 kJ/mol
# Density = 1.832832 g / cm^3
# Si number density = 18.370129 Si / 1000 Ang^3
#
#
#
# Elastic Constant Matrix: (Units=GPa)
#
#
# Indices 1 2 3 4 5 6 
#
# 1 91.9514 49.3140 26.3199 0.0000 0.0000 0.0000
# 2 49.3140 93.2241 34.8152 0.0000 0.0000 0.0000
# 3 26.3199 34.8152 137.5668 0.0000 0.0000 0.0000
# 4 0.0000 0.0000 0.0000 31.2850 0.0000 0.0000
# 5 0.0000 0.0000 0.0000 0.0000 26.7052 0.0000
# 6 0.0000 0.0000 0.0000 0.0000 0.0000 3.6895
#
#
#
# Elastic Compliance Matrix: (Units=1/GPa)
#
#
# Indices 1 2 3 4 5 6 
#
# 1 0.015299 -0.007730 -0.000971 0.000000 0.000000 0.000000
# 2 -0.007730 0.015753 -0.002508 0.000000 0.000000 0.000000
# 3 -0.000971 -0.002508 0.008090 0.000000 0.000000 0.000000
# 4 0.000000 0.000000 0.000000 0.031964 0.000000 0.000000
# 5 0.000000 0.000000 0.000000 0.000000 0.037446 0.000000
# 6 0.000000 0.000000 0.000000 0.000000 0.000000 0.271038
#
#
# Mechanical properties :
#
#
# Convention : Reuss Voigt Hill
#
# Bulk Modulus (GPa) = 59.79536 60.40452 60.09994
# Shear Modulus (GPa) = 12.26750 26.48883 19.37816
#
# Velocity S-wave (km/s) = 2.58698 3.80142 3.25141
# Velocity P-wave (km/s) = 6.44548 7.22641 6.84709
#
# Compressibility (1/GPa) = 0.01672370
#
# Stress axis : x y z
#
# Youngs Moduli (GPa) = 65.36369 63.48161 123.61645
#
# Poissons Ratio (x) = 0.49074 0.11999
# Poissons Ratio (y) = 0.50529 0.30998
# Poissons Ratio (z) = 0.06345 0.15919
#
# Static dielectric constant tensor:
#      x y z
#    x 1.634780 0.000000 0.000000 
#    y 0.000000 1.601420 0.000000 
#    z 0.000000 0.000000 1.887940 
# 
# From -- ./inp_files/11118.got.cif
#   From: 2010.05.17/outbox.cif.g08.bks.cpg/sg22_6_cif.got.tgz:11118.got - 2010.06.03 23:40:54.
