data_PCOD9328326
_publ_section_title
;
Structure prediction by ZEFSAII (Michael W. Deem and Ramdas Pophale) SiO2 
 PCOD9328326
Probable space group: F 2 2 2
;
_chemical_formula_sum "Si O2"
_cell_formula_units_Z 88
_cell_length_a 11.660109
_cell_length_b 24.914912
_cell_length_c 13.363523
_cell_angle_alpha 90.000000
_cell_angle_beta 90.000000
_cell_angle_gamma 90.000000
_cell_volume 3882.244946
_symmetry_space_group_name_H-M "F 2 2 2"
_symmetry_group_IT_number 22
_symmetry_cell_setting 'orthorhombic'
loop_
_space_group_symop_operation_xyz
x,y,z
-x,-y,z
x,-y,-z
-x,y,-z
x,1/2+y,1/2+z
-x,1/2-y,1/2+z
x,1/2-y,1/2-z
-x,1/2+y,1/2-z
1/2+x,y,1/2+z
1/2-x,-y,1/2+z
1/2+x,-y,1/2-z
1/2-x,y,1/2-z
1/2+x,1/2+y,z
1/2-x,1/2-y,z
1/2+x,1/2-y,-z
1/2-x,1/2+y,-z
loop_
_atom_site_type_symbol
_atom_site_label
_atom_site_fract_x
_atom_site_fract_y
_atom_site_fract_z
Si Si1 0.644681 0.000000 0.000000
Si Si2 0.130781 0.060870 0.296990
Si Si3 0.826624 0.826659 0.401786
Si Si4 0.210274 0.110155 0.594192
Si Si5 0.934055 0.785000 0.105789
Si Si6 0.939766 0.620956 0.706319
O O1 0.595275 0.029280 0.898294
O O2 0.705139 0.948966 0.951991
O O3 0.250000 0.038977 0.250000
O O4 0.155123 0.121338 0.334539
O O5 0.031931 0.072208 0.214904
O O6 0.837828 0.847256 0.515096
O O7 0.910882 0.777920 0.376826
O O8 0.695021 0.808134 0.394602
O O9 0.130142 0.116047 0.690597
O O10 0.342308 0.117555 0.622269
O O11 0.001908 0.821939 0.183769
O O12 0.000000 0.790285 0.000000
#
# Coordination Sequence:
#
# PCOD9328326 Si02
#       6
#     8  16  16  16  16  16
#     4  10  26  49  77 106 142 190 251 293 386 430
#     4  11  24  45  71 106 144 184 241 307 357 437
#     4  10  23  43  67  98 143 188 238 291 357 420
#     4  10  24  48  70 105 143 192 236 310 357 440
#     4  11  22  42  69 100 139 192 236 288 357 431
#     4  11  24  43  72 102 145 183 242 297 363 429
#
# _framework density 22.667297000000001
#
# number of rings (size 3 to 8) (size 9 to 14) (size 15 to 20)
#    0.000    1.455    3.636    0.000    5.091    4.364 
#    0.000    0.909    0.000    0.000    0.000    0.000 
#    0.000    0.000    0.000    0.000    0.000    0.000 
#
# Total GULP energy -122829.048755 kJ/mol
# GULP energy per Si atom -5583.138580 kJ/mol
# Density = 2.261570 g / cm^3
# Si number density = 22.667297 Si / 1000 Ang^3
#
#
#
# Elastic Constant Matrix: (Units=GPa)
#
#
# Indices 1 2 3 4 5 6 
#
# 1 116.2799 62.6971 40.5574 0.0000 0.0000 0.0000
# 2 62.6971 150.1825 61.3650 0.0000 0.0000 0.0000
# 3 40.5574 61.3650 89.7593 0.0000 0.0000 0.0000
# 4 0.0000 0.0000 0.0000 7.6604 0.0000 0.0000
# 5 0.0000 0.0000 0.0000 0.0000 9.0690 0.0000
# 6 0.0000 0.0000 0.0000 0.0000 0.0000 -2.4201
#
#
#
# Elastic Compliance Matrix: (Units=1/GPa)
#
#
# Indices 1 2 3 4 5 6 
#
# 1 0.011540 -0.003729 -0.002665 0.000000 0.000000 0.000000
# 2 -0.003729 0.010444 -0.005456 0.000000 0.000000 0.000000
# 3 -0.002665 -0.005456 0.016075 0.000000 0.000000 0.000000
# 4 0.000000 0.000000 0.000000 0.130541 0.000000 0.000000
# 5 0.000000 0.000000 0.000000 0.000000 0.110265 0.000000
# 6 0.000000 0.000000 0.000000 0.000000 0.000000 -0.413209
#
#
# Mechanical properties :
#
#
# Convention : Reuss Voigt Hill
#
# Bulk Modulus (GPa) = 69.63588 76.16232 72.89910
# Shear Modulus (GPa) = -47.23340 15.63535 -15.79903
#
# Velocity S-wave (km/s) = -4.56978 2.62921 -2.64293
# Velocity P-wave (km/s) = 1.71571 6.54905 4.78715
#
# Compressibility (1/GPa) = 0.01436041
#
# Stress axis : x y z
#
# Youngs Moduli (GPa) = 86.65534 95.74539 62.20847
#
# Poissons Ratio (x) = 0.35700 0.16580
# Poissons Ratio (y) = 0.32311 0.33939
# Poissons Ratio (z) = 0.23095 0.52235
#
# Static dielectric constant tensor:
#      x y z
#    x 1.921760 0.000000 0.000000 
#    y 0.000000 1.810640 0.000000 
#    z 0.000000 0.000000 1.867120 
# 
# From -- ./inp_files/28217.got.cif
#   From: 2010.05.17/outbox.cif.g08.bks.cpg/sg22_15_cif.got.tgz:28217.got - 2010.06.03 23:40:54.
