data_PCOD9328536
_publ_section_title
;
Structure prediction by ZEFSAII (Michael W. Deem and Ramdas Pophale) SiO2 
 PCOD9328536
Probable space group: F 2 2 2
;
_chemical_formula_sum "Si O2"
_cell_formula_units_Z 52
_cell_length_a 18.017020
_cell_length_b 7.669484
_cell_length_c 14.180705
_cell_angle_alpha 90.000000
_cell_angle_beta 90.000000
_cell_angle_gamma 90.000000
_cell_volume 1959.507495
_symmetry_space_group_name_H-M "F 2 2 2"
_symmetry_group_IT_number 22
_symmetry_cell_setting 'orthorhombic'
loop_
_space_group_symop_operation_xyz
x,y,z
-x,-y,z
x,-y,-z
-x,y,-z
x,1/2+y,1/2+z
-x,1/2-y,1/2+z
x,1/2-y,1/2-z
-x,1/2+y,1/2-z
1/2+x,y,1/2+z
1/2-x,-y,1/2+z
1/2+x,-y,1/2-z
1/2-x,y,1/2-z
1/2+x,1/2+y,z
1/2-x,1/2-y,z
1/2+x,1/2-y,-z
1/2-x,1/2+y,-z
loop_
_atom_site_type_symbol
_atom_site_label
_atom_site_fract_x
_atom_site_fract_y
_atom_site_fract_z
Si Si1 0.588571 0.336369 0.432223
Si Si2 0.250000 0.750000 0.396898
Si Si3 0.881018 0.250000 0.750000
Si Si4 0.000000 0.000000 0.258794
Si Si5 0.250000 0.527817 0.750000
Si Si6 0.000000 0.000000 0.000000
O O1 0.570958 0.500000 0.500000
O O2 0.676730 0.315779 0.445464
O O3 0.554126 0.392721 0.330501
O O4 0.554314 0.146849 0.453800
O O5 0.218667 0.596462 0.329806
O O6 0.818011 0.368138 0.798868
O O7 0.940443 0.380623 0.703528
#
# Coordination Sequence:
#
# PCOD9328536 Si02
#       6
#    16   8   8   8   8   4
#     4  12  27  50  70 108 145 188 250 302 361 443
#     4  11  26  46  72  96 146 183 240 296 364 433
#     4  11  26  42  72 101 142 186 232 293 368 418
#     4  12  25  47  70 104 146 180 246 304 356 432
#     4  10  24  48  66 106 136 190 234 302 354 440
#     4  12  26  46  76  98 142 198 238 312 366 398
#
# _framework density 26.537282000000001
#
# number of rings (size 3 to 8) (size 9 to 14) (size 15 to 20)
#    0.000    0.615    6.154    0.000   10.769    0.000 
#    0.000    0.000    0.000    0.000    0.000    0.000 
#    0.000    0.000    0.000    0.000    0.000    0.000 
#
# Total GULP energy -72389.894850 kJ/mol
# GULP energy per Si atom -5568.453450 kJ/mol
# Density = 2.647688 g / cm^3
# Si number density = 26.537282 Si / 1000 Ang^3
#
#
#
# Elastic Constant Matrix: (Units=GPa)
#
#
# Indices 1 2 3 4 5 6 
#
# 1 259.0629 77.3107 30.5690 0.0000 0.0000 0.0000
# 2 77.3107 187.8719 44.4730 0.0000 0.0000 0.0000
# 3 30.5690 44.4730 49.0930 0.0000 0.0000 0.0000
# 4 0.0000 0.0000 0.0000 22.8395 0.0000 0.0000
# 5 0.0000 0.0000 0.0000 0.0000 21.8800 0.0000
# 6 0.0000 0.0000 0.0000 0.0000 0.0000 76.2411
#
#
#
# Elastic Compliance Matrix: (Units=1/GPa)
#
#
# Indices 1 2 3 4 5 6 
#
# 1 0.004477 -0.001505 -0.001424 0.000000 0.000000 0.000000
# 2 -0.001505 0.007282 -0.005659 0.000000 0.000000 0.000000
# 3 -0.001424 -0.005659 0.026383 0.000000 0.000000 0.000000
# 4 0.000000 0.000000 0.000000 0.043784 0.000000 0.000000
# 5 0.000000 0.000000 0.000000 0.000000 0.045704 0.000000
# 6 0.000000 0.000000 0.000000 0.000000 0.000000 0.013116
#
#
# Mechanical properties :
#
#
# Convention : Reuss Voigt Hill
#
# Bulk Modulus (GPa) = 47.69958 88.97036 68.33497
# Shear Modulus (GPa) = 30.31915 47.10380 38.71147
#
# Velocity S-wave (km/s) = 3.38377 4.21765 3.82351
# Velocity P-wave (km/s) = 5.76889 7.57083 6.73044
#
# Compressibility (1/GPa) = 0.02096455
#
# Stress axis : x y z
#
# Youngs Moduli (GPa) = 223.34637 137.32704 37.90306
#
# Poissons Ratio (x) = 0.20672 0.05398
# Poissons Ratio (y) = 0.33620 0.21450
# Poissons Ratio (z) = 0.31811 0.77717
#
# Static dielectric constant tensor:
#      x y z
#    x 1.994430 0.000000 0.000000 
#    y 0.000000 2.231240 0.000000 
#    z 0.000000 0.000000 2.131700 
# 
# From -- ./inp_files/10901.got.cif
#   From: 2010.05.17/outbox.cif.g08.bks.cpg/sg22_6_cif.got.tgz:10901.got - 2010.06.03 23:40:54.
