data_PCOD9328580
_publ_section_title
;
Structure prediction by ZEFSAII (Michael W. Deem and Ramdas Pophale) SiO2 
 PCOD9328580
Probable space group: F 2 2 2
;
_chemical_formula_sum "Si O2"
_cell_formula_units_Z 116
_cell_length_a 22.168087
_cell_length_b 24.911566
_cell_length_c 9.246737
_cell_angle_alpha 90.000000
_cell_angle_beta 90.000000
_cell_angle_gamma 90.000000
_cell_volume 5106.434337
_symmetry_space_group_name_H-M "F 2 2 2"
_symmetry_group_IT_number 22
_symmetry_cell_setting 'orthorhombic'
loop_
_space_group_symop_operation_xyz
x,y,z
-x,-y,z
x,-y,-z
-x,y,-z
x,1/2+y,1/2+z
-x,1/2-y,1/2+z
x,1/2-y,1/2-z
-x,1/2+y,1/2-z
1/2+x,y,1/2+z
1/2-x,-y,1/2+z
1/2+x,-y,1/2-z
1/2-x,y,1/2-z
1/2+x,1/2+y,z
1/2-x,1/2-y,z
1/2+x,1/2-y,-z
1/2-x,1/2+y,-z
loop_
_atom_site_type_symbol
_atom_site_label
_atom_site_fract_x
_atom_site_fract_y
_atom_site_fract_z
Si Si1 0.750770 0.332113 0.904914
Si Si2 0.165828 0.565243 0.875626
Si Si3 0.453091 0.088827 0.275072
Si Si4 0.815245 0.545296 0.787931
Si Si5 0.849775 0.719196 0.904790
Si Si6 0.887733 0.824109 0.036462
Si Si7 0.582902 0.374697 0.257774
Si Si8 0.500000 0.500000 0.000000
O O1 0.750000 0.303491 0.750000
O O2 0.792509 0.382988 0.865556
O O3 0.682379 0.343329 0.954770
O O4 0.786782 0.300610 0.028958
O O5 0.095714 0.572789 0.843296
O O6 0.183901 0.518346 0.763057
O O7 0.174772 0.550567 0.041914
O O8 0.424986 0.143440 0.343984
O O9 0.518321 0.101006 0.209660
O O10 0.462731 0.041380 0.395561
O O11 0.750000 0.568219 0.750000
O O12 0.869658 0.578227 0.721450
O O13 0.842738 0.750000 0.750000
O O14 0.889231 0.666045 0.874436
O O15 0.880206 0.759820 0.020442
O O16 0.920519 0.841005 0.889107
#
# Coordination Sequence:
#
# PCOD9328580 Si02
#       8
#    16  16  16  16  16  16  16   4
#     4  12  23  45  71 106 147 191 244 314 389 446
#     4  11  25  45  70 110 146 188 245 306 374 450
#     4  12  25  47  72 109 148 197 255 303 373 463
#     4  11  24  45  73 106 148 189 243 307 380 443
#     4  10  25  46  73 106 141 195 253 316 375 444
#     4  11  24  43  73 101 146 192 250 307 367 452
#     4  11  23  46  73 104 141 200 247 303 369 442
#     4  12  24  48  80 102 148 208 252 306 380 460
#
# _framework density 22.716438
#
# number of rings (size 3 to 8) (size 9 to 14) (size 15 to 20)
#    0.000    0.828    4.138    2.483    0.000    4.966 
#    0.000    8.276    0.000    0.000    0.000    0.000 
#    0.000    0.000    0.000    0.000    0.000    0.000 
#
# Total GULP energy -161974.655965 kJ/mol
# GULP energy per Si atom -5585.332964 kJ/mol
# Density = 2.266473 g / cm^3
# Si number density = 22.716438 Si / 1000 Ang^3
#
#
#
# Elastic Constant Matrix: (Units=GPa)
#
#
# Indices 1 2 3 4 5 6 
#
# 1 182.8845 52.2477 29.8506 0.0000 0.0002 0.0000
# 2 52.2477 124.6031 7.9945 0.0000 0.0000 0.0001
# 3 29.8506 7.9945 57.8201 -0.0005 0.0015 0.0004
# 4 0.0000 0.0000 -0.0005 -7.3584 0.0002 0.0000
# 5 0.0002 0.0000 0.0015 0.0002 0.1478 0.0003
# 6 0.0000 0.0001 0.0004 0.0000 0.0003 21.8338
#
#
#
# Elastic Compliance Matrix: (Units=1/GPa)
#
#
# Indices 1 2 3 4 5 6 
#
# 1 0.006724 -0.002620 -0.003109 0.000000 0.000022 0.000000
# 2 -0.002620 0.009118 0.000092 0.000000 0.000002 0.000000
# 3 -0.003109 0.000092 0.018887 -0.000001 -0.000186 0.000000
# 4 0.000000 0.000000 -0.000001 -0.135900 0.000148 0.000000
# 5 0.000022 0.000002 -0.000186 0.000148 6.765015 -0.000084
# 6 0.000000 0.000000 0.000000 0.000000 -0.000084 0.045801
#
#
# Mechanical properties :
#
#
# Convention : Reuss Voigt Hill
#
# Bulk Modulus (GPa) = 42.63448 60.61037 51.62242
# Shear Modulus (GPa) = 0.74308 21.27231 11.00770
#
# Velocity S-wave (km/s) = 0.57256 3.06343 2.20368
# Velocity P-wave (km/s) = 4.38702 6.26514 5.40823
#
# Compressibility (1/GPa) = 0.02345519
#
# Stress axis : x y z
#
# Youngs Moduli (GPa) = 148.72375 109.67128 52.94523
#
# Poissons Ratio (x) = 0.28733 0.16461
# Poissons Ratio (y) = 0.38965 -0.00486
# Poissons Ratio (z) = 0.46239 -0.01007
#
# Static dielectric constant tensor:
#      x y z
#    x 1.836250 0.000000 0.000000 
#    y 0.000000 2.004540 0.000000 
#    z 0.000000 0.000000 1.848470 
# 
# From -- ./inp_files/14125.got.cif
#   From: 2010.05.17/outbox.cif.g08.bks.cpg/sg22_8_cif.got.tgz:14125.got - 2010.06.03 23:40:54.
