data_PCOD9328896
_publ_section_title
;
Structure prediction by ZEFSAII (Michael W. Deem and Ramdas Pophale) SiO2 
 PCOD9328896
Probable space group: F 2 2 2
;
_chemical_formula_sum "Si O2"
_cell_formula_units_Z 48
_cell_length_a 12.437179
_cell_length_b 19.958823
_cell_length_c 9.188055
_cell_angle_alpha 90.000000
_cell_angle_beta 90.000000
_cell_angle_gamma 90.000000
_cell_volume 2280.764255
_symmetry_space_group_name_H-M "F 2 2 2"
_symmetry_group_IT_number 22
_symmetry_cell_setting 'orthorhombic'
loop_
_space_group_symop_operation_xyz
x,y,z
-x,-y,z
x,-y,-z
-x,y,-z
x,1/2+y,1/2+z
-x,1/2-y,1/2+z
x,1/2-y,1/2-z
-x,1/2+y,1/2-z
1/2+x,y,1/2+z
1/2-x,-y,1/2+z
1/2+x,-y,1/2-z
1/2-x,y,1/2-z
1/2+x,1/2+y,z
1/2-x,1/2-y,z
1/2+x,1/2-y,-z
1/2-x,1/2+y,-z
loop_
_atom_site_type_symbol
_atom_site_label
_atom_site_fract_x
_atom_site_fract_y
_atom_site_fract_z
Si Si1 0.200939 0.446677 0.403344
Si Si2 0.000000 0.888196 0.500000
Si Si3 0.000000 0.500000 0.246486
Si Si4 0.769573 0.827568 0.576994
O O1 0.269863 0.500000 0.500000
O O2 0.250000 0.425954 0.250000
O O3 0.101729 0.491680 0.350630
O O4 0.190449 0.379498 0.495740
O O5 0.889847 0.846905 0.523151
O O6 0.002773 0.935637 0.641952
O O7 0.750000 0.836706 0.750000
O O8 0.750000 0.750000 0.542781
#
# Coordination Sequence:
#
# PCOD9328896 Si02
#       4
#    16   8   8  16
#     4  12  23  42  69 104 142 182 243 305 363 433
#     4  11  22  48  74 102 147 190 242 318 375 428
#     4  11  23  40  74 106 134 190 244 300 376 434
#     4  11  26  50  73 105 151 199 249 309 371 448
#
# _framework density 21.045577000000002
#
# number of rings (size 3 to 8) (size 9 to 14) (size 15 to 20)
#    0.000    0.667    3.333    5.500    0.000    0.667 
#   18.000    0.000    0.000    0.000    0.000    0.000 
#    0.000    0.000    0.000    0.000    0.000    0.000 
#
# Total GULP energy -67001.508177 kJ/mol
# GULP energy per Si atom -5583.459015 kJ/mol
# Density = 2.099768 g / cm^3
# Si number density = 21.045577 Si / 1000 Ang^3
#
#
#
# Elastic Constant Matrix: (Units=GPa)
#
#
# Indices 1 2 3 4 5 6 
#
# 1 114.8098 49.0301 27.6294 0.0000 0.0000 0.0000
# 2 49.0301 176.9771 93.3426 0.0000 0.0000 0.0000
# 3 27.6294 93.3426 137.7831 0.0000 0.0000 0.0000
# 4 0.0000 0.0000 0.0000 37.3390 0.0000 0.0000
# 5 0.0000 0.0000 0.0000 0.0000 24.4977 0.0000
# 6 0.0000 0.0000 0.0000 0.0000 0.0000 40.0394
#
#
#
# Elastic Compliance Matrix: (Units=1/GPa)
#
#
# Indices 1 2 3 4 5 6 
#
# 1 0.009882 -0.002634 -0.000197 0.000000 0.000000 0.000000
# 2 -0.002634 0.009494 -0.005904 0.000000 0.000000 0.000000
# 3 -0.000197 -0.005904 0.011297 0.000000 0.000000 0.000000
# 4 0.000000 0.000000 0.000000 0.026782 0.000000 0.000000
# 5 0.000000 0.000000 0.000000 0.000000 0.040820 0.000000
# 6 0.000000 0.000000 0.000000 0.000000 0.000000 0.024975
#
#
# Mechanical properties :
#
#
# Convention : Reuss Voigt Hill
#
# Bulk Modulus (GPa) = 75.73735 85.50825 80.62280
# Shear Modulus (GPa) = 34.45410 37.67974 36.06692
#
# Velocity S-wave (km/s) = 4.05052 4.23589 4.14424
# Velocity P-wave (km/s) = 7.61190 8.04002 7.82889
#
# Compressibility (1/GPa) = 0.01320352
#
# Stress axis : x y z
#
# Youngs Moduli (GPa) = 101.19102 105.33229 88.52076
#
# Poissons Ratio (x) = 0.27741 0.01748
# Poissons Ratio (y) = 0.26650 0.52258
# Poissons Ratio (z) = 0.01998 0.62183
#
# Static dielectric constant tensor:
#      x y z
#    x 1.884090 0.000000 0.000000 
#    y 0.000000 1.716550 0.000000 
#    z 0.000000 0.000000 1.778650 
# 
# From -- ./inp_files/9213.got.cif
#   From: 2010.05.17/outbox.cif.g08.bks.cpg/sg22_5_cif.got.tgz:9213.got - 2010.06.03 23:40:54.
