data_PCOD9328582
_publ_section_title
;
Structure prediction by ZEFSAII (Michael W. Deem and Ramdas Pophale) SiO2 
 PCOD9328582
Probable space group: F 2 2 2
;
_chemical_formula_sum "Si O2"
_cell_formula_units_Z 120
_cell_length_a 18.503247
_cell_length_b 22.160771
_cell_length_c 13.245234
_cell_angle_alpha 90.000000
_cell_angle_beta 90.000000
_cell_angle_gamma 90.000000
_cell_volume 5431.158128
_symmetry_space_group_name_H-M "F 2 2 2"
_symmetry_group_IT_number 22
_symmetry_cell_setting 'orthorhombic'
loop_
_space_group_symop_operation_xyz
x,y,z
-x,-y,z
x,-y,-z
-x,y,-z
x,1/2+y,1/2+z
-x,1/2-y,1/2+z
x,1/2-y,1/2-z
-x,1/2+y,1/2-z
1/2+x,y,1/2+z
1/2-x,-y,1/2+z
1/2+x,-y,1/2-z
1/2-x,y,1/2-z
1/2+x,1/2+y,z
1/2-x,1/2-y,z
1/2+x,1/2-y,-z
1/2-x,1/2+y,-z
loop_
_atom_site_type_symbol
_atom_site_label
_atom_site_fract_x
_atom_site_fract_y
_atom_site_fract_z
Si Si1 0.199138 0.628647 0.044177
Si Si2 0.066747 0.280307 0.921389
Si Si3 0.687320 0.089705 0.816453
Si Si4 0.138695 0.147720 0.923902
Si Si5 0.980558 0.750000 0.250000
Si Si6 0.398191 0.347389 0.153875
Si Si7 0.898345 0.521471 0.889496
Si Si8 0.469959 0.935348 0.305072
O O1 0.134167 0.676860 0.053971
O O2 0.274854 0.649228 0.093181
O O3 0.168805 0.566582 0.091342
O O4 0.209428 0.614911 0.925075
O O5 0.097683 0.211920 0.909502
O O6 0.031531 0.294844 0.812562
O O7 0.000000 0.285827 0.000000
O O8 0.750000 0.060116 0.750000
O O9 0.657896 0.141657 0.743416
O O10 0.627714 0.038954 0.834672
O O11 0.099068 0.094478 0.861749
O O12 0.129831 0.137692 0.043756
O O13 0.929950 0.719133 0.332889
O O14 0.465590 0.390034 0.174487
O O15 0.951628 0.555111 0.813197
O O16 0.923457 0.500000 0.000000
O O17 0.500000 0.000000 0.343426
#
# Coordination Sequence:
#
# PCOD9328582 Si02
#       8
#    16  16  16  16   8  16  16  16
#     4  11  26  45  73 108 143 200 237 302 383 437
#     4  12  24  48  73 104 148 190 249 311 366 445
#     4  11  23  45  69 102 141 184 240 296 364 446
#     4  12  26  47  70 107 154 186 251 305 369 455
#     4  12  24  44  74 100 138 192 242 302 368 422
#     4  12  24  46  70 104 143 183 243 301 363 442
#     4  10  25  47  69 102 143 183 242 302 359 439
#     4  12  25  46  73 107 141 193 243 303 369 439
#
# _framework density 22.094735
#
# number of rings (size 3 to 8) (size 9 to 14) (size 15 to 20)
#    0.000    0.533    5.333    2.400    1.867    1.333 
#    2.400    1.000    0.000    0.000    0.000    0.000 
#    0.000    0.000    0.000    0.000    0.000    0.000 
#
# Total GULP energy -167632.854095 kJ/mol
# GULP energy per Si atom -5587.761803 kJ/mol
# Density = 2.204445 g / cm^3
# Si number density = 22.094735 Si / 1000 Ang^3
#
#
#
# Elastic Constant Matrix: (Units=GPa)
#
#
# Indices 1 2 3 4 5 6 
#
# 1 132.5058 32.0903 31.3602 0.0000 0.0000 0.0000
# 2 32.0903 79.7785 21.5533 0.0000 0.0000 0.0000
# 3 31.3602 21.5533 89.8320 0.0000 0.0000 0.0000
# 4 0.0000 0.0000 0.0000 27.1685 0.0000 0.0000
# 5 0.0000 0.0000 0.0000 0.0000 30.6343 0.0000
# 6 0.0000 0.0000 0.0000 0.0000 0.0000 15.9705
#
#
#
# Elastic Compliance Matrix: (Units=1/GPa)
#
#
# Indices 1 2 3 4 5 6 
#
# 1 0.008813 -0.002902 -0.002380 0.000000 0.000000 0.000000
# 2 -0.002902 0.014359 -0.002432 0.000000 0.000000 0.000000
# 3 -0.002380 -0.002432 0.012546 0.000000 0.000000 0.000000
# 4 0.000000 0.000000 0.000000 0.036807 0.000000 0.000000
# 5 0.000000 0.000000 0.000000 0.000000 0.032643 0.000000
# 6 0.000000 0.000000 0.000000 0.000000 0.000000 0.062615
#
#
# Mechanical properties :
#
#
# Convention : Reuss Voigt Hill
#
# Bulk Modulus (GPa) = 49.28596 52.45819 50.87207
# Shear Modulus (GPa) = 26.31907 29.22882 27.77395
#
# Velocity S-wave (km/s) = 3.45511 3.64110 3.54932
# Velocity P-wave (km/s) = 6.18645 6.43978 6.31438
#
# Compressibility (1/GPa) = 0.02028975
#
# Stress axis : x y z
#
# Youngs Moduli (GPa) = 113.46915 69.64260 79.70415
#
# Poissons Ratio (x) = 0.20209 0.18972
# Poissons Ratio (y) = 0.32927 0.19385
# Poissons Ratio (z) = 0.27010 0.16938
#
# Static dielectric constant tensor:
#      x y z
#    x 1.868660 0.000000 0.000000 
#    y 0.000000 1.807620 0.000000 
#    z 0.000000 0.000000 1.811280 
# 
# From -- ./inp_files/23110.got.cif
#   From: 2010.05.17/outbox.cif.g08.bks.cpg/sg22_12_cif.got.tgz:23110.got - 2010.06.03 23:40:54.
