data_PCOD9328365
_publ_section_title
;
Structure prediction by ZEFSAII (Michael W. Deem and Ramdas Pophale) SiO2 
 PCOD9328365
Probable space group: F 2 2 2
;
_chemical_formula_sum "Si O2"
_cell_formula_units_Z 116
_cell_length_a 24.556905
_cell_length_b 7.923450
_cell_length_c 28.486144
_cell_angle_alpha 90.000000
_cell_angle_beta 90.000000
_cell_angle_gamma 90.000000
_cell_volume 5542.703117
_symmetry_space_group_name_H-M "F 2 2 2"
_symmetry_group_IT_number 22
_symmetry_cell_setting 'orthorhombic'
loop_
_space_group_symop_operation_xyz
x,y,z
-x,-y,z
x,-y,-z
-x,y,-z
x,1/2+y,1/2+z
-x,1/2-y,1/2+z
x,1/2-y,1/2-z
-x,1/2+y,1/2-z
1/2+x,y,1/2+z
1/2-x,-y,1/2+z
1/2+x,-y,1/2-z
1/2-x,y,1/2-z
1/2+x,1/2+y,z
1/2-x,1/2-y,z
1/2+x,1/2-y,-z
1/2-x,1/2+y,-z
loop_
_atom_site_type_symbol
_atom_site_label
_atom_site_fract_x
_atom_site_fract_y
_atom_site_fract_z
Si Si1 0.254988 0.952465 0.448754
Si Si2 0.434126 0.853704 0.579785
Si Si3 0.000000 0.500000 0.500000
Si Si4 0.128922 0.479949 0.055060
Si Si5 0.998832 0.302764 0.841009
Si Si6 0.659456 0.998375 0.630277
Si Si7 0.881237 0.160879 0.347792
Si Si8 0.379537 0.795797 0.802903
O O1 0.250000 0.750000 0.446404
O O2 0.278630 0.000000 0.500000
O O3 0.194367 0.026517 0.445890
O O4 0.291136 0.015339 0.405726
O O5 0.461078 0.888992 0.531098
O O6 0.396374 0.690980 0.574583
O O7 0.482334 0.811090 0.615402
O O8 0.395641 0.000118 0.598870
O O9 0.113803 0.613870 0.096301
O O10 0.111923 0.500000 0.000000
O O11 0.945941 0.280787 0.807945
O O12 0.000000 0.500000 0.855063
O O13 0.060995 0.273613 0.826535
O O14 0.649500 0.155604 0.664636
O O15 0.660408 0.816340 0.655372
O O16 0.866757 0.985484 0.321371
O O17 0.364813 0.750000 0.750000
#
# Coordination Sequence:
#
# PCOD9328365 Si02
#       8
#    16  16   4  16  16  16  16  16
#     4  11  26  41  67 102 135 183 233 279 340 412
#     4  11  24  39  57  94 132 182 226 277 328 409
#     4  12  28  32  58  92 136 184 238 276 324 412
#     4  11  24  40  63  97 135 183 228 275 333 407
#     4   9  18  39  61  88 127 168 215 268 330 399
#     4  11  24  42  69  95 132 176 223 289 341 404
#     4  11  21  43  66  95 139 176 221 279 341 401
#     4  10  23  45  68 101 135 170 230 284 351 419
#
# _framework density 20.928418000000001
#
# number of rings (size 3 to 8) (size 9 to 14) (size 15 to 20)
#    0.000    1.379    5.517    0.828    8.690    2.207 
#    7.448    0.000    0.000    1.655    0.000    0.000 
#    0.000    0.000    0.000    0.000    0.000    0.000 
#
# Total GULP energy -161843.411862 kJ/mol
# GULP energy per Si atom -5580.807306 kJ/mol
# Density = 2.088078 g / cm^3
# Si number density = 20.928418 Si / 1000 Ang^3
#
#
#
# Elastic Constant Matrix: (Units=GPa)
#
#
# Indices 1 2 3 4 5 6 
#
# 1 56.9067 33.6552 26.0749 0.0000 0.0728 0.0003
# 2 33.6552 123.8910 53.3436 0.0002 0.2274 0.0003
# 3 26.0749 53.3436 107.1055 0.0000 0.0195 0.0000
# 4 0.0000 0.0002 0.0000 11.6633 0.0322 -0.0001
# 5 0.0728 0.2274 0.0195 0.0322 2156.4285 -0.1025
# 6 0.0003 0.0003 0.0000 -0.0001 -0.1025 30.7889
#
#
#
# Elastic Compliance Matrix: (Units=1/GPa)
#
#
# Indices 1 2 3 4 5 6 
#
# 1 0.021659 -0.004600 -0.002982 0.000000 0.000000 0.000000
# 2 -0.004600 0.011252 -0.004484 0.000000 -0.000001 0.000000
# 3 -0.002982 -0.004484 0.012296 0.000000 0.000000 0.000000
# 4 0.000000 0.000000 0.000000 0.085739 -0.000001 0.000000
# 5 0.000000 -0.000001 0.000000 -0.000001 0.000464 0.000002
# 6 0.000000 0.000000 0.000000 0.000000 0.000002 0.032479
#
#
# Mechanical properties :
#
#
# Convention : Reuss Voigt Hill
#
# Bulk Modulus (GPa) = 47.44930 57.11673 52.28302
# Shear Modulus (GPa) = 25.63488 451.43142 238.53315
#
# Velocity S-wave (km/s) = 3.50363 14.70275 10.68752
# Velocity P-wave (km/s) = 6.25209 17.76453 13.31667
#
# Compressibility (1/GPa) = 0.02107513
#
# Stress axis : x y z
#
# Youngs Moduli (GPa) = 46.16927 88.87378 81.32799
#
# Poissons Ratio (x) = 0.40881 0.24252
# Poissons Ratio (y) = 0.21237 0.36469
# Poissons Ratio (z) = 0.13768 0.39852
#
# Static dielectric constant tensor:
#      x y z
#    x 1.749420 -0.000010 0.000000 
#    y -0.000010 -57.378350 0.000440 
#    z 0.000000 0.000440 1.675770 
# 
# From -- ./inp_files/54206.got.cif
#   From: 2010.05.17/outbox.cif.g08.bks.cpg/sg22_28_cif.got.tgz:54206.got - 2010.06.03 23:40:54.
