data_PCOD9328499
_publ_section_title
;
Structure prediction by ZEFSAII (Michael W. Deem and Ramdas Pophale) SiO2 
 PCOD9328499
Probable space group: F 2 2 2
;
_chemical_formula_sum "Si O2"
_cell_formula_units_Z 60
_cell_length_a 10.817493
_cell_length_b 8.219450
_cell_length_c 32.515931
_cell_angle_alpha 90.000000
_cell_angle_beta 90.000000
_cell_angle_gamma 90.000000
_cell_volume 2891.116379
_symmetry_space_group_name_H-M "F 2 2 2"
_symmetry_group_IT_number 22
_symmetry_cell_setting 'orthorhombic'
loop_
_space_group_symop_operation_xyz
x,y,z
-x,-y,z
x,-y,-z
-x,y,-z
x,1/2+y,1/2+z
-x,1/2-y,1/2+z
x,1/2-y,1/2-z
-x,1/2+y,1/2-z
1/2+x,y,1/2+z
1/2-x,-y,1/2+z
1/2+x,-y,1/2-z
1/2-x,y,1/2-z
1/2+x,1/2+y,z
1/2-x,1/2-y,z
1/2+x,1/2-y,-z
1/2-x,1/2+y,-z
loop_
_atom_site_type_symbol
_atom_site_label
_atom_site_fract_x
_atom_site_fract_y
_atom_site_fract_z
Si Si1 0.000000 0.500000 0.000000
Si Si2 0.271824 0.572002 0.635748
Si Si3 0.366225 0.924150 0.771885
Si Si4 0.000000 0.500000 0.614917
Si Si5 0.612808 0.184736 0.074989
O O1 0.926030 0.611500 0.968316
O O2 0.250000 0.750000 0.616525
O O3 0.332179 0.591259 0.680299
O O4 0.360991 0.457214 0.608774
O O5 0.129997 0.507787 0.639437
O O6 0.373772 0.750000 0.750000
O O7 0.250000 0.012748 0.750000
O O8 0.500000 0.000000 0.767165
O O9 0.976776 0.667487 0.589248
O O10 0.750000 0.250000 0.069764
#
# Coordination Sequence:
#
# PCOD9328499 Si02
#       5
#     4  16  16   8  16
#     4  12  24  42  72  96 144 182 234 288 358 422
#     4  11  23  43  71  98 140 180 242 291 363 428
#     4  11  26  46  66 102 138 184 232 296 361 429
#     4  10  24  45  70 101 136 186 235 296 360 433
#     4  10  25  43  66 105 136 187 235 297 358 431
#
# _framework density 20.753229000000001
#
# number of rings (size 3 to 8) (size 9 to 14) (size 15 to 20)
#    0.000    1.333    2.667    1.600    7.467    6.400 
#    9.600    0.000    0.000    0.000    0.000    0.000 
#    0.000    0.000    0.000    0.000    0.000    0.000 
#
# Total GULP energy -83677.704234 kJ/mol
# GULP energy per Si atom -5578.513616 kJ/mol
# Density = 2.070599 g / cm^3
# Si number density = 20.753229 Si / 1000 Ang^3
#
#
#
# Elastic Constant Matrix: (Units=GPa)
#
#
# Indices 1 2 3 4 5 6 
#
# 1 184.7986 61.2144 67.4416 0.0000 0.0000 0.0000
# 2 61.2144 130.2773 79.9740 0.0000 0.0000 0.0000
# 3 67.4416 79.9740 159.7359 0.0000 0.0000 0.0000
# 4 0.0000 0.0000 0.0000 -333.3751 0.0000 0.0000
# 5 0.0000 0.0000 0.0000 0.0000 20.2180 0.0000
# 6 0.0000 0.0000 0.0000 0.0000 0.0000 37.4477
#
#
#
# Elastic Compliance Matrix: (Units=1/GPa)
#
#
# Indices 1 2 3 4 5 6 
#
# 1 0.006758 -0.002056 -0.001824 0.000000 0.000000 0.000000
# 2 -0.002056 0.011707 -0.004993 0.000000 0.000000 0.000000
# 3 -0.001824 -0.004993 0.009531 0.000000 0.000000 0.000000
# 4 0.000000 0.000000 0.000000 -0.003000 0.000000 0.000000
# 5 0.000000 0.000000 0.000000 0.000000 0.049461 0.000000
# 6 0.000000 0.000000 0.000000 0.000000 0.000000 0.026704
#
#
# Mechanical properties :
#
#
# Convention : Reuss Voigt Hill
#
# Bulk Modulus (GPa) = 97.56769 99.11908 98.34339
# Shear Modulus (GPa) = 40.87519 -37.39644 1.73938
#
# Velocity S-wave (km/s) = 4.44281 -4.24955 0.91648
# Velocity P-wave (km/s) = 8.56933 4.87711 6.97207
#
# Compressibility (1/GPa) = 0.01024929
#
# Stress axis : x y z
#
# Youngs Moduli (GPa) = 147.97484 85.41747 104.92621
#
# Poissons Ratio (x) = 0.17559 0.19139
# Poissons Ratio (y) = 0.30419 0.52395
# Poissons Ratio (z) = 0.26991 0.42653
#
# Static dielectric constant tensor:
#      x y z
#    x 1.986020 0.000000 0.000000 
#    y 0.000000 1.862810 0.000000 
#    z 0.000000 0.000000 1.702860 
# 
# From -- ./inp_files/8386.got.cif
#   From: 2010.05.17/outbox.cif.g08.bks.cpg/sg22_5_cif.got.tgz:8386.got - 2010.06.03 23:40:54.
