data_PCOD9328314
_publ_section_title
;
Structure prediction by ZEFSAII (Michael W. Deem and Ramdas Pophale) SiO2 
 PCOD9328314
Probable space group: F 2 2 2
;
_chemical_formula_sum "Si O2"
_cell_formula_units_Z 104
_cell_length_a 19.117156
_cell_length_b 8.399069
_cell_length_c 29.190576
_cell_angle_alpha 90.000000
_cell_angle_beta 90.000000
_cell_angle_gamma 90.000000
_cell_volume 4687.023143
_symmetry_space_group_name_H-M "F 2 2 2"
_symmetry_group_IT_number 22
_symmetry_cell_setting 'orthorhombic'
loop_
_space_group_symop_operation_xyz
x,y,z
-x,-y,z
x,-y,-z
-x,y,-z
x,1/2+y,1/2+z
-x,1/2-y,1/2+z
x,1/2-y,1/2-z
-x,1/2+y,1/2-z
1/2+x,y,1/2+z
1/2-x,-y,1/2+z
1/2+x,-y,1/2-z
1/2-x,y,1/2-z
1/2+x,1/2+y,z
1/2-x,1/2-y,z
1/2+x,1/2-y,-z
1/2-x,1/2+y,-z
loop_
_atom_site_type_symbol
_atom_site_label
_atom_site_fract_x
_atom_site_fract_y
_atom_site_fract_z
Si Si1 0.350066 0.484846 0.349567
Si Si2 0.174131 0.503509 0.553713
Si Si3 0.059043 0.367631 0.293084
Si Si4 0.250000 0.250000 0.609023
Si Si5 0.542841 0.163400 0.601126
Si Si6 0.750000 0.250000 0.896518
Si Si7 0.000000 0.500000 0.100925
Si Si8 0.666876 0.063704 0.250869
O O1 0.293333 0.624566 0.360411
O O2 0.311233 0.321975 0.364592
O O3 0.424563 0.518178 0.373504
O O4 0.361531 0.487383 0.295620
O O5 0.162738 0.500000 0.500000
O O6 0.191479 0.335707 0.577397
O O7 0.114344 0.607096 0.577929
O O8 0.241313 0.604549 0.568278
O O9 0.054513 0.250000 0.250000
O O10 0.046947 0.300768 0.344140
O O11 0.131894 0.465774 0.291745
O O12 0.000000 0.500000 0.285654
O O13 0.511800 0.324330 0.578511
O O14 0.500000 0.000000 0.597062
O O15 0.648095 0.250000 0.250000
O O16 0.750000 0.049443 0.250000
#
# Coordination Sequence:
#
# PCOD9328314 Si02
#       8
#    16  16  16   8  16   8   8  16
#     4  11  24  42  72  99 149 186 249 298 379 435
#     4  11  23  44  72 103 136 181 246 310 374 451
#     4  11  26  42  64  96 136 185 239 286 348 425
#     4  10  23  42  75 100 138 194 235 308 375 446
#     4  11  26  44  71 102 147 193 240 297 378 443
#     4  10  23  44  69 104 132 188 236 311 367 456
#     4  12  24  44  72 109 142 196 236 306 361 454
#     4  11  26  40  62  95 139 187 242 299 354 429
#
# _framework density 22.188925000000001
#
# number of rings (size 3 to 8) (size 9 to 14) (size 15 to 20)
#    0.000    1.077    1.538    3.692   15.077    0.615 
#    0.000    0.000    0.000    0.923    0.000    0.000 
#    0.000    0.000    0.000    0.000    0.000    0.000 
#
# Total GULP energy -145073.138477 kJ/mol
# GULP energy per Si atom -5579.736095 kJ/mol
# Density = 2.213842 g / cm^3
# Si number density = 22.188925 Si / 1000 Ang^3
#
#
#
# Elastic Constant Matrix: (Units=GPa)
#
#
# Indices 1 2 3 4 5 6 
#
# 1 76.0921 31.0147 3.2725 0.0000 0.0000 0.0000
# 2 31.0147 123.0846 31.5431 0.0000 0.0000 -0.0001
# 3 3.2725 31.5431 61.6834 0.0000 0.0000 0.0000
# 4 0.0000 0.0000 0.0000 15.4694 0.0000 0.0000
# 5 0.0000 0.0000 0.0000 0.0000 4.6776 0.0000
# 6 0.0000 -0.0001 0.0000 0.0000 0.0000 48.4695
#
#
#
# Elastic Compliance Matrix: (Units=1/GPa)
#
#
# Indices 1 2 3 4 5 6 
#
# 1 0.014734 -0.004042 0.001285 0.000000 0.000000 0.000000
# 2 -0.004042 0.010459 -0.005134 0.000000 0.000000 0.000000
# 3 0.001285 -0.005134 0.018769 0.000000 0.000000 0.000000
# 4 0.000000 0.000000 0.000000 0.064644 0.000000 0.000000
# 5 0.000000 0.000000 0.000000 0.000000 0.213787 0.000000
# 6 0.000000 0.000000 0.000000 0.000000 0.000000 0.020632
#
#
# Mechanical properties :
#
#
# Convention : Reuss Voigt Hill
#
# Bulk Modulus (GPa) = 35.48538 43.61340 39.54939
# Shear Modulus (GPa) = 13.57962 26.72528 20.15245
#
# Velocity S-wave (km/s) = 2.47655 3.47427 3.01694
# Velocity P-wave (km/s) = 4.91984 5.98266 5.47709
#
# Compressibility (1/GPa) = 0.02818062
#
# Stress axis : x y z
#
# Youngs Moduli (GPa) = 67.86917 95.61455 53.27962
#
# Poissons Ratio (x) = 0.38648 -0.06848
# Poissons Ratio (y) = 0.27433 0.27353
# Poissons Ratio (z) = -0.08723 0.49087
#
# Static dielectric constant tensor:
#      x y z
#    x 2.061150 0.000000 0.000000 
#    y 0.000000 2.010690 0.000000 
#    z 0.000000 0.000000 1.953560 
# 
# From -- ./inp_files/53956.got.cif
#   From: 2010.05.17/outbox.cif.g08.bks.cpg/sg22_27_cif.got.tgz:53956.got - 2010.06.03 23:40:54.
