data_PCOD9328983
_publ_section_title
;
Structure prediction by ZEFSAII (Michael W. Deem and Ramdas Pophale) SiO2 
 PCOD9328983
Probable space group: F 2 2 2
;
_chemical_formula_sum "Si O2"
_cell_formula_units_Z 80
_cell_length_a 16.332583
_cell_length_b 14.365805
_cell_length_c 14.826195
_cell_angle_alpha 90.000000
_cell_angle_beta 90.000000
_cell_angle_gamma 90.000000
_cell_volume 3478.680549
_symmetry_space_group_name_H-M "F 2 2 2"
_symmetry_group_IT_number 22
_symmetry_cell_setting 'orthorhombic'
loop_
_space_group_symop_operation_xyz
x,y,z
-x,-y,z
x,-y,-z
-x,y,-z
x,1/2+y,1/2+z
-x,1/2-y,1/2+z
x,1/2-y,1/2-z
-x,1/2+y,1/2-z
1/2+x,y,1/2+z
1/2-x,-y,1/2+z
1/2+x,-y,1/2-z
1/2-x,y,1/2-z
1/2+x,1/2+y,z
1/2-x,1/2-y,z
1/2+x,1/2-y,-z
1/2-x,1/2+y,-z
loop_
_atom_site_type_symbol
_atom_site_label
_atom_site_fract_x
_atom_site_fract_y
_atom_site_fract_z
Si Si1 0.250000 0.750000 0.980846
Si Si2 0.049411 0.823744 0.172487
Si Si3 0.143612 0.517933 0.893347
Si Si4 0.393612 0.732067 0.643347
Si Si5 0.000000 0.000000 0.269154
Si Si6 0.700589 0.926255 0.577513
O O1 0.241641 0.658238 0.041274
O O2 0.174713 0.779673 0.917659
O O3 0.076458 0.750000 0.250000
O O4 0.991642 0.908238 0.208726
O O5 0.125000 0.875000 0.125000
O O6 0.984836 0.762700 0.115573
O O7 0.125000 0.625000 0.875000
O O8 0.234837 0.487300 0.865573
O O9 0.133693 0.500000 0.000000
O O10 0.383692 0.750000 0.750000
O O11 0.424713 0.470327 0.667659
O O12 0.673543 0.000000 0.500000
#
# Coordination Sequence:
#
# PCOD9328983 Si02
#       6
#     8  16  16  16   8  16
#     4  12  25  46  77 110 156 202 264 316 397 458
#     4  11  27  49  75 113 156 202 257 320 394 465
#     4  11  23  48  76 110 152 203 260 319 382 467
#     4  11  23  48  76 110 152 203 260 319 382 467
#     4  12  25  46  77 110 156 202 264 316 397 458
#     4  11  27  49  75 113 156 202 257 320 394 465
#
# _framework density 22.997226000000001
#
# number of rings (size 3 to 8) (size 9 to 14) (size 15 to 20)
#    0.000    0.800    8.000    0.600    5.600    1.600 
#    7.200    0.000    0.000    0.000    0.000    0.000 
#    0.000    0.000    0.000    0.000    0.000    0.000 
#
# Total GULP energy -111617.185945 kJ/mol
# GULP energy per Si atom -5580.859297 kJ/mol
# Density = 2.294488 g / cm^3
# Si number density = 22.997226 Si / 1000 Ang^3
#
#
#
# Elastic Constant Matrix: (Units=GPa)
#
#
# Indices 1 2 3 4 5 6 
#
# 1 174.7263 44.7269 43.5258 0.0000 0.0000 0.0000
# 2 44.7269 161.0556 43.2660 0.0000 0.0000 0.0000
# 3 43.5258 43.2660 66.5531 0.0000 0.0000 0.0000
# 4 0.0000 0.0000 0.0000 31.7426 0.0000 0.0000
# 5 0.0000 0.0000 0.0000 0.0000 29.3189 0.0000
# 6 0.0000 0.0000 0.0000 0.0000 0.0000 56.6404
#
#
#
# Elastic Compliance Matrix: (Units=1/GPa)
#
#
# Indices 1 2 3 4 5 6 
#
# 1 0.006933 -0.000857 -0.003977 0.000000 0.000000 0.000000
# 2 -0.000857 0.007629 -0.004399 0.000000 0.000000 0.000000
# 3 -0.003977 -0.004399 0.020487 0.000000 0.000000 0.000000
# 4 0.000000 0.000000 0.000000 0.031503 0.000000 0.000000
# 5 0.000000 0.000000 0.000000 0.000000 0.034108 0.000000
# 6 0.000000 0.000000 0.000000 0.000000 0.000000 0.017655
#
#
# Mechanical properties :
#
#
# Convention : Reuss Voigt Hill
#
# Bulk Modulus (GPa) = 60.30589 73.93027 67.11808
# Shear Modulus (GPa) = 35.13481 41.59479 38.36480
#
# Velocity S-wave (km/s) = 3.91293 4.25748 4.08884
# Velocity P-wave (km/s) = 6.83335 7.50902 7.17914
#
# Compressibility (1/GPa) = 0.01658213
#
# Stress axis : x y z
#
# Youngs Moduli (GPa) = 144.22940 131.08265 48.81261
#
# Poissons Ratio (x) = 0.11234 0.19414
# Poissons Ratio (y) = 0.12361 0.21472
# Poissons Ratio (z) = 0.57364 0.57663
#
# Static dielectric constant tensor:
#      x y z
#    x 2.008460 0.000000 0.000000 
#    y 0.000000 2.007670 0.000000 
#    z 0.000000 0.000000 1.967200 
# 
# From -- ./inp_files/42601.got.cif
#   From: 2010.05.17/outbox.cif.g08.bks.cpg/sg22_22_cif.got.tgz:42601.got - 2010.06.03 23:40:54.
