data_PCOD9328354
_publ_section_title
;
Structure prediction by ZEFSAII (Michael W. Deem and Ramdas Pophale) SiO2 
 PCOD9328354
Probable space group: F 2 2 2
;
_chemical_formula_sum "Si O2"
_cell_formula_units_Z 64
_cell_length_a 24.837799
_cell_length_b 11.715226
_cell_length_c 10.970257
_cell_angle_alpha 90.000000
_cell_angle_beta 90.000000
_cell_angle_gamma 90.000000
_cell_volume 3192.130084
_symmetry_space_group_name_H-M "F 2 2 2"
_symmetry_group_IT_number 22
_symmetry_cell_setting 'orthorhombic'
loop_
_space_group_symop_operation_xyz
x,y,z
-x,-y,z
x,-y,-z
-x,y,-z
x,1/2+y,1/2+z
-x,1/2-y,1/2+z
x,1/2-y,1/2-z
-x,1/2+y,1/2-z
1/2+x,y,1/2+z
1/2-x,-y,1/2+z
1/2+x,-y,1/2-z
1/2-x,y,1/2-z
1/2+x,1/2+y,z
1/2-x,1/2-y,z
1/2+x,1/2-y,-z
1/2-x,1/2+y,-z
loop_
_atom_site_type_symbol
_atom_site_label
_atom_site_fract_x
_atom_site_fract_y
_atom_site_fract_z
Si Si1 0.808388 0.382401 0.777768
Si Si2 0.927918 0.638113 0.813937
Si Si3 0.000000 0.226865 0.000000
Si Si4 0.353764 0.500000 0.500000
Si Si5 0.585264 0.552852 0.125016
O O1 0.803422 0.250000 0.750000
O O2 0.750000 0.437337 0.750000
O O3 0.862049 0.413430 0.701406
O O4 0.820348 0.414095 0.916792
O O5 0.902406 0.750000 0.750000
O O6 0.975202 0.691913 0.895606
O O7 0.941843 0.545975 0.709011
O O8 0.889750 0.574540 0.908854
O O9 0.956070 0.149127 0.926589
O O10 0.606196 0.500000 0.000000
#
# Coordination Sequence:
#
# PCOD9328354 Si02
#       5
#    16  16   8   8  16
#     4  10  23  44  71  97 128 175 222 282 345 390
#     4  11  25  41  65  93 131 177 217 263 334 392
#     4  12  25  43  64  96 138 177 218 275 324 412
#     4  10  24  45  62 100 132 167 226 280 324 412
#     4  11  24  44  64  99 134 171 224 274 329 407
#
# _framework density 20.049308
#
# number of rings (size 3 to 8) (size 9 to 14) (size 15 to 20)
#    0.000    1.250    2.500    1.875    1.750    7.500 
#    0.000    0.000    0.000    6.750    0.000    0.000 
#    0.000    0.000    0.000    0.000    0.000    0.000 
#
# Total GULP energy -89190.841633 kJ/mol
# GULP energy per Si atom -5574.427602 kJ/mol
# Density = 2.000368 g / cm^3
# Si number density = 20.049308 Si / 1000 Ang^3
#
#
#
# Elastic Constant Matrix: (Units=GPa)
#
#
# Indices 1 2 3 4 5 6 
#
# 1 102.8757 44.0940 51.3629 0.0000 0.0000 0.0000
# 2 44.0940 100.1467 60.8258 0.0000 0.0000 0.0000
# 3 51.3629 60.8258 161.5499 0.0000 0.0000 0.0000
# 4 0.0000 0.0000 0.0000 50.7942 0.0000 0.0000
# 5 0.0000 0.0000 0.0000 0.0000 7.7555 0.0000
# 6 0.0000 0.0000 0.0000 0.0000 0.0000 -17.7584
#
#
#
# Elastic Compliance Matrix: (Units=1/GPa)
#
#
# Indices 1 2 3 4 5 6 
#
# 1 0.012721 -0.004077 -0.002509 0.000000 0.000000 0.000000
# 2 -0.004077 0.014252 -0.004070 0.000000 0.000000 0.000000
# 3 -0.002509 -0.004070 0.008520 0.000000 0.000000 0.000000
# 4 0.000000 0.000000 0.000000 0.019687 0.000000 0.000000
# 5 0.000000 0.000000 0.000000 0.000000 0.128941 0.000000
# 6 0.000000 0.000000 0.000000 0.000000 0.000000 -0.056311
#
#
# Mechanical properties :
#
#
# Convention : Reuss Voigt Hill
#
# Bulk Modulus (GPa) = 70.51730 75.23752 72.87741
# Shear Modulus (GPa) = 32.49917 22.04421 27.27169
#
# Velocity S-wave (km/s) = 4.03049 3.31947 3.69213
# Velocity P-wave (km/s) = 7.54374 7.23184 7.38944
#
# Compressibility (1/GPa) = 0.01418092
#
# Stress axis : x y z
#
# Youngs Moduli (GPa) = 78.61200 70.16399 117.36630
#
# Poissons Ratio (x) = 0.28604 0.29453
# Poissons Ratio (y) = 0.32048 0.47769
# Poissons Ratio (z) = 0.19727 0.28557
#
# Static dielectric constant tensor:
#      x y z
#    x 1.795420 0.000000 0.000000 
#    y 0.000000 1.794110 0.000000 
#    z 0.000000 0.000000 1.774860 
# 
# From -- ./inp_files/23406.got.cif
#   From: 2010.05.17/outbox.cif.g08.bks.cpg/sg22_12_cif.got.tgz:23406.got - 2010.06.03 23:40:54.
