data_PCOD9328703
_publ_section_title
;
Structure prediction by ZEFSAII (Michael W. Deem and Ramdas Pophale) SiO2 
 PCOD9328703
Probable space group: F 2 2 2
;
_chemical_formula_sum "Si O2"
_cell_formula_units_Z 112
_cell_length_a 14.780036
_cell_length_b 14.646845
_cell_length_c 23.160455
_cell_angle_alpha 90.000000
_cell_angle_beta 90.000000
_cell_angle_gamma 90.000000
_cell_volume 5013.796059
_symmetry_space_group_name_H-M "F 2 2 2"
_symmetry_group_IT_number 22
_symmetry_cell_setting 'orthorhombic'
loop_
_space_group_symop_operation_xyz
x,y,z
-x,-y,z
x,-y,-z
-x,y,-z
x,1/2+y,1/2+z
-x,1/2-y,1/2+z
x,1/2-y,1/2-z
-x,1/2+y,1/2-z
1/2+x,y,1/2+z
1/2-x,-y,1/2+z
1/2+x,-y,1/2-z
1/2-x,y,1/2-z
1/2+x,1/2+y,z
1/2-x,1/2-y,z
1/2+x,1/2-y,-z
1/2-x,1/2+y,-z
loop_
_atom_site_type_symbol
_atom_site_label
_atom_site_fract_x
_atom_site_fract_y
_atom_site_fract_z
Si Si1 0.061863 0.846687 0.557782
Si Si2 0.304313 0.005811 0.308087
Si Si3 0.823744 0.501031 0.099103
Si Si4 0.250000 0.750000 0.544955
Si Si5 0.000000 0.000000 0.764932
Si Si6 0.664507 0.310913 0.141341
Si Si7 0.940759 0.357828 0.169911
Si Si8 0.835148 0.910193 0.969610
O O1 0.101155 0.948797 0.562005
O O2 0.155797 0.792261 0.567695
O O3 0.000000 0.829734 0.500000
O O4 0.006038 0.836203 0.616367
O O5 0.250000 0.024866 0.250000
O O6 0.410642 0.024587 0.301291
O O7 0.304807 0.896779 0.320882
O O8 0.248458 0.053817 0.359606
O O9 0.874040 0.433376 0.142654
O O10 0.756791 0.447688 0.058251
O O11 0.202634 0.665510 0.512039
O O12 0.981472 0.911810 0.724081
O O13 0.750000 0.250000 0.120161
O O14 0.607708 0.239001 0.178550
O O15 0.617963 0.357078 0.084418
O O16 0.878793 0.000000 0.000000
#
# Coordination Sequence:
#
# PCOD9328703 Si02
#       8
#    16  16  16   8   8  16  16  16
#     4  12  25  40  67 103 141 183 237 297 358 440
#     4  11  22  42  66  99 135 179 234 310 378 441
#     4  11  21  40  68  98 138 178 227 309 375 421
#     4  12  24  40  62  98 146 190 230 280 372 430
#     4  12  24  42  69 102 135 186 246 306 384 450
#     4  11  21  38  66  96 133 179 236 301 366 437
#     4  12  22  41  66 102 136 174 246 308 358 443
#     4  11  20  36  64  97 136 185 225 281 356 450
#
# _framework density 22.338363000000001
#
# number of rings (size 3 to 8) (size 9 to 14) (size 15 to 20)
#    0.000    0.571    7.857    1.714    0.000    3.714 
#    2.571    0.000    0.000    3.000    0.000    0.000 
#    0.000    0.000    0.000    0.000    0.000    0.000 
#
# Total GULP energy -156003.210886 kJ/mol
# GULP energy per Si atom -5571.543246 kJ/mol
# Density = 2.228752 g / cm^3
# Si number density = 22.338363 Si / 1000 Ang^3
#
#
#
# Elastic Constant Matrix: (Units=GPa)
#
#
# Indices 1 2 3 4 5 6 
#
# 1 118.2202 14.6927 36.1506 0.0000 0.0000 0.0000
# 2 14.6927 62.8958 22.1379 0.0000 0.0000 0.0000
# 3 36.1506 22.1379 57.9204 0.0000 0.0000 0.0000
# 4 0.0000 0.0000 0.0000 10.0727 0.0000 0.0000
# 5 0.0000 0.0000 0.0000 0.0000 59.4365 0.0000
# 6 0.0000 0.0000 0.0000 0.0000 0.0000 34.7142
#
#
#
# Elastic Compliance Matrix: (Units=1/GPa)
#
#
# Indices 1 2 3 4 5 6 
#
# 1 0.010456 -0.000168 -0.006461 0.000000 0.000000 0.000000
# 2 -0.000168 0.018373 -0.006918 0.000000 0.000000 0.000000
# 3 -0.006461 -0.006918 0.023942 0.000000 0.000000 0.000000
# 4 0.000000 0.000000 0.000000 0.099278 0.000000 0.000000
# 5 0.000000 0.000000 0.000000 0.000000 0.016825 0.000000
# 6 0.000000 0.000000 0.000000 0.000000 0.000000 0.028807
#
#
# Mechanical properties :
#
#
# Convention : Reuss Voigt Hill
#
# Bulk Modulus (GPa) = 38.94618 42.77764 40.86191
# Shear Modulus (GPa) = 21.42856 31.91506 26.67181
#
# Velocity S-wave (km/s) = 3.10057 3.78393 3.45917
# Velocity P-wave (km/s) = 5.50369 6.18727 5.85546
#
# Compressibility (1/GPa) = 0.02567646
#
# Stress axis : x y z
#
# Youngs Moduli (GPa) = 95.64305 54.42648 41.76774
#
# Poissons Ratio (x) = 0.00915 0.26988
# Poissons Ratio (y) = 0.01608 0.28893
# Poissons Ratio (z) = 0.61800 0.37650
#
# Static dielectric constant tensor:
#      x y z
#    x 1.942710 0.000000 0.000000 
#    y 0.000000 1.873750 0.000000 
#    z 0.000000 0.000000 1.984750 
# 
# From -- ./inp_files/53223.got.cif
#   From: 2010.05.17/outbox.cif.g08.bks.cpg/sg22_27_cif.got.tgz:53223.got - 2010.06.03 23:40:54.
