data_PCOD9328748
_publ_section_title
;
Structure prediction by ZEFSAII (Michael W. Deem and Ramdas Pophale) SiO2 
 PCOD9328748
Probable space group: F 2 2 2
;
_chemical_formula_sum "Si O2"
_cell_formula_units_Z 96
_cell_length_a 28.910950
_cell_length_b 10.200266
_cell_length_c 15.875615
_cell_angle_alpha 90.000000
_cell_angle_beta 90.000000
_cell_angle_gamma 90.000000
_cell_volume 4681.709026
_symmetry_space_group_name_H-M "F 2 2 2"
_symmetry_group_IT_number 22
_symmetry_cell_setting 'orthorhombic'
loop_
_space_group_symop_operation_xyz
x,y,z
-x,-y,z
x,-y,-z
-x,y,-z
x,1/2+y,1/2+z
-x,1/2-y,1/2+z
x,1/2-y,1/2-z
-x,1/2+y,1/2-z
1/2+x,y,1/2+z
1/2-x,-y,1/2+z
1/2+x,-y,1/2-z
1/2-x,y,1/2-z
1/2+x,1/2+y,z
1/2-x,1/2-y,z
1/2+x,1/2-y,-z
1/2-x,1/2+y,-z
loop_
_atom_site_type_symbol
_atom_site_label
_atom_site_fract_x
_atom_site_fract_y
_atom_site_fract_z
Si Si1 0.655619 0.489663 0.133248
Si Si2 0.405617 0.247451 0.117677
Si Si3 0.996650 0.651522 0.602760
Si Si4 0.747045 0.598491 0.352835
Si Si5 0.898619 0.259287 0.078112
Si Si6 0.351597 0.000987 0.828873
O O1 0.623702 0.618382 0.123122
O O2 0.708460 0.523893 0.111788
O O3 0.634194 0.368090 0.084016
O O4 0.655479 0.457076 0.232527
O O5 0.458947 0.274514 0.139191
O O6 0.381399 0.132578 0.169450
O O7 0.405501 0.207032 0.019579
O O8 0.947281 0.716431 0.619839
O O9 0.000000 0.500000 0.629467
O O10 0.000000 0.650998 0.500000
O O11 0.750000 0.599189 0.250000
O O12 0.750000 0.750000 0.379647
O O13 0.697660 0.534306 0.370921
O O14 0.876828 0.382851 0.123585
#
# Coordination Sequence:
#
# PCOD9328748 Si02
#       6
#    16  16  16  16  16  16
#     4  11  21  39  64  86 113 159 202 235 289 356
#     4  11  21  39  64  86 113 159 202 235 289 356
#     4   9  18  36  61  84 113 160 203 229 281 371
#     4   9  18  36  61  84 113 160 203 229 281 371
#     4  11  23  39  59  90 122 150 192 251 297 339
#     4  11  23  39  59  90 122 150 192 251 297 339
#
# _framework density 20.505333
#
# number of rings (size 3 to 8) (size 9 to 14) (size 15 to 20)
#    0.000    1.667    3.333    2.000    0.000    1.333 
#    0.000   15.000    0.000    0.000    0.000    0.000 
#    0.000    0.000    0.000    0.000    0.000    0.000 
#
# Total GULP energy -134164.268901 kJ/mol
# GULP energy per Si atom -5590.177871 kJ/mol
# Density = 2.045866 g / cm^3
# Si number density = 20.505333 Si / 1000 Ang^3
#
#
#
# Elastic Constant Matrix: (Units=GPa)
#
#
# Indices 1 2 3 4 5 6 
#
# 1 149.9866 33.3819 -1.4063 0.0000 0.0000 0.0000
# 2 33.3819 85.9845 -1.3874 0.0000 0.0000 0.0000
# 3 -1.4063 -1.3874 36.5915 0.0000 0.0000 0.0000
# 4 0.0000 0.0000 0.0000 34.8599 0.0000 0.0000
# 5 0.0000 0.0000 0.0000 0.0000 21.0951 0.0000
# 6 0.0000 0.0000 0.0000 0.0000 0.0000 42.4700
#
#
#
# Elastic Compliance Matrix: (Units=1/GPa)
#
#
# Indices 1 2 3 4 5 6 
#
# 1 0.007299 -0.002831 0.000173 0.000000 0.000000 0.000000
# 2 -0.002831 0.012735 0.000374 0.000000 0.000000 0.000000
# 3 0.000173 0.000374 0.027350 0.000000 0.000000 0.000000
# 4 0.000000 0.000000 0.000000 0.028686 0.000000 0.000000
# 5 0.000000 0.000000 0.000000 0.000000 0.047404 0.000000
# 6 0.000000 0.000000 0.000000 0.000000 0.000000 0.023546
#
#
# Mechanical properties :
#
#
# Convention : Reuss Voigt Hill
#
# Bulk Modulus (GPa) = 23.35558 37.08210 30.21884
# Shear Modulus (GPa) = 30.14599 35.81665 32.98132
#
# Velocity S-wave (km/s) = 3.83842 4.18389 4.01487
# Velocity P-wave (km/s) = 5.57309 6.43920 6.02174
#
# Compressibility (1/GPa) = 0.04281632
#
# Stress axis : x y z
#
# Youngs Moduli (GPa) = 137.00615 78.52331 36.56364
#
# Poissons Ratio (x) = 0.22229 -0.00633
# Poissons Ratio (y) = 0.38785 -0.01368
# Poissons Ratio (z) = -0.02373 -0.02937
#
# Static dielectric constant tensor:
#      x y z
#    x 1.727750 0.000000 0.000000 
#    y 0.000000 1.672570 0.000000 
#    z 0.000000 0.000000 1.763590 
# 
# From -- ./inp_files/45720.got.cif
#   From: 2010.05.17/outbox.cif.g08.bks.cpg/sg22_23_cif.got.tgz:45720.got - 2010.06.03 23:40:54.
