data_PCOD9328416
_publ_section_title
;
Structure prediction by ZEFSAII (Michael W. Deem and Ramdas Pophale) SiO2 
 PCOD9328416
Probable space group: F 2 2 2
;
_chemical_formula_sum "Si O2"
_cell_formula_units_Z 64
_cell_length_a 15.178991
_cell_length_b 9.026859
_cell_length_c 20.082517
_cell_angle_alpha 90.000000
_cell_angle_beta 90.000000
_cell_angle_gamma 90.000000
_cell_volume 2751.678595
_symmetry_space_group_name_H-M "F 2 2 2"
_symmetry_group_IT_number 22
_symmetry_cell_setting 'orthorhombic'
loop_
_space_group_symop_operation_xyz
x,y,z
-x,-y,z
x,-y,-z
-x,y,-z
x,1/2+y,1/2+z
-x,1/2-y,1/2+z
x,1/2-y,1/2-z
-x,1/2+y,1/2-z
1/2+x,y,1/2+z
1/2-x,-y,1/2+z
1/2+x,-y,1/2-z
1/2-x,y,1/2-z
1/2+x,1/2+y,z
1/2-x,1/2-y,z
1/2+x,1/2-y,-z
1/2-x,1/2+y,-z
loop_
_atom_site_type_symbol
_atom_site_label
_atom_site_fract_x
_atom_site_fract_y
_atom_site_fract_z
Si Si1 0.500000 0.500000 0.778532
Si Si2 0.250000 0.250000 0.750000
Si Si3 0.000000 0.500000 0.500000
Si Si4 0.171855 0.359638 0.049908
Si Si5 0.013954 0.228635 0.897801
Si Si6 0.365651 0.533921 0.333563
O O1 0.509095 0.639918 0.828004
O O2 0.421591 0.534355 0.726769
O O3 0.307747 0.347201 0.702361
O O4 0.947441 0.392567 0.449564
O O5 0.250000 0.250000 0.027949
O O6 0.078796 0.278812 0.068795
O O7 0.193608 0.426824 0.122586
O O8 0.163394 0.500000 0.000000
O O9 0.070102 0.374478 0.883194
#
# Coordination Sequence:
#
# PCOD9328416 Si02
#       6
#     8   4   4  16  16  16
#     4  11  22  45  75 114 149 188 258 310 377 478
#     4  12  28  44  74 116 154 196 242 334 388 444
#     4  10  24  36  78 104 138 184 270 304 370 432
#     4  12  30  49  75 108 158 201 262 319 383 444
#     4  11  23  46  74 109 146 205 249 315 375 474
#     4  12  25  47  76 108 155 200 253 311 393 461
#
# _framework density 23.258531000000001
#
# number of rings (size 3 to 8) (size 9 to 14) (size 15 to 20)
#    0.000    0.500    5.000    1.500    7.000    1.000 
#    0.000    0.000    0.000    0.000    0.000    0.000 
#    0.000    0.000    0.000    0.000    0.000    0.000 
#
# Total GULP energy -89367.885824 kJ/mol
# GULP energy per Si atom -5585.492864 kJ/mol
# Density = 2.320559 g / cm^3
# Si number density = 23.258531 Si / 1000 Ang^3
#
#
#
# Elastic Constant Matrix: (Units=GPa)
#
#
# Indices 1 2 3 4 5 6 
#
# 1 69.1954 22.6280 25.4156 0.0000 0.0000 0.0000
# 2 22.6280 95.8837 49.7383 0.0000 0.0000 0.0000
# 3 25.4156 49.7383 153.7240 0.0000 0.0000 0.0000
# 4 0.0000 0.0000 0.0000 69.6471 0.0000 0.0000
# 5 0.0000 0.0000 0.0000 0.0000 -0.9305 0.0000
# 6 0.0000 0.0000 0.0000 0.0000 0.0000 41.1258
#
#
#
# Elastic Compliance Matrix: (Units=1/GPa)
#
#
# Indices 1 2 3 4 5 6 
#
# 1 0.016027 -0.002893 -0.001714 0.000000 0.000000 0.000000
# 2 -0.002893 0.013055 -0.003746 0.000000 0.000000 0.000000
# 3 -0.001714 -0.003746 0.008000 0.000000 0.000000 0.000000
# 4 0.000000 0.000000 0.000000 0.014358 0.000000 0.000000
# 5 0.000000 0.000000 0.000000 0.000000 -1.074709 0.000000
# 6 0.000000 0.000000 0.000000 0.000000 0.000000 0.024316
#
#
# Mechanical properties :
#
#
# Convention : Reuss Voigt Hill
#
# Bulk Modulus (GPa) = 49.07389 57.15187 53.11288
# Shear Modulus (GPa) = -5.12582 36.70322 15.78870
#
# Velocity S-wave (km/s) = -1.48615 3.97678 2.60827
# Velocity P-wave (km/s) = 4.26618 6.76108 5.65298
#
# Compressibility (1/GPa) = 0.02037744
#
# Stress axis : x y z
#
# Youngs Moduli (GPa) = 62.39291 76.59811 124.99327
#
# Poissons Ratio (x) = 0.22163 0.21420
# Poissons Ratio (y) = 0.18053 0.46819
# Poissons Ratio (z) = 0.10692 0.28691
#
# Static dielectric constant tensor:
#      x y z
#    x 1.877520 0.000000 0.000000 
#    y 0.000000 2.062760 0.000000 
#    z 0.000000 0.000000 1.828140 
# 
# From -- ./inp_files/41546.got.cif
#   From: 2010.05.17/outbox.cif.g08.bks.cpg/sg22_21_cif.got.tgz:41546.got - 2010.06.03 23:40:54.
