data_PCOD9328254
_publ_section_title
;
Structure prediction by ZEFSAII (Michael W. Deem and Ramdas Pophale) SiO2 
 PCOD9328254
Probable space group: F 2 2 2
;
_chemical_formula_sum "Si O2"
_cell_formula_units_Z 68
_cell_length_a 9.757158
_cell_length_b 12.177841
_cell_length_c 24.992906
_cell_angle_alpha 90.000000
_cell_angle_beta 90.000000
_cell_angle_gamma 90.000000
_cell_volume 2969.685051
_symmetry_space_group_name_H-M "F 2 2 2"
_symmetry_group_IT_number 22
_symmetry_cell_setting 'orthorhombic'
loop_
_space_group_symop_operation_xyz
x,y,z
-x,-y,z
x,-y,-z
-x,y,-z
x,1/2+y,1/2+z
-x,1/2-y,1/2+z
x,1/2-y,1/2-z
-x,1/2+y,1/2-z
1/2+x,y,1/2+z
1/2-x,-y,1/2+z
1/2+x,-y,1/2-z
1/2-x,y,1/2-z
1/2+x,1/2+y,z
1/2-x,1/2-y,z
1/2+x,1/2-y,-z
1/2-x,1/2+y,-z
loop_
_atom_site_type_symbol
_atom_site_label
_atom_site_fract_x
_atom_site_fract_y
_atom_site_fract_z
Si Si1 0.041099 0.178723 0.803048
Si Si2 0.738979 0.488623 0.443386
Si Si3 0.250000 0.250000 0.889125
Si Si4 0.500000 0.000000 0.500000
Si Si5 0.752490 0.620960 0.342749
Si Si6 0.750000 0.013184 0.250000
O O1 0.005806 0.250000 0.750000
O O2 0.117310 0.248180 0.849814
O O3 0.154037 0.093266 0.783114
O O4 0.913816 0.112873 0.827874
O O5 0.662533 0.500000 0.500000
O O6 0.754591 0.362004 0.424515
O O7 0.692910 0.558632 0.393434
O O8 0.886567 0.546199 0.459084
O O9 0.750000 0.750000 0.349215
O O10 0.677617 0.567718 0.291934
#
# Coordination Sequence:
#
# PCOD9328254 Si02
#       6
#    16  16   8   4  16   8
#     4  12  22  41  68  98 138 177 220 277 336 408
#     4  10  23  40  68  95 129 171 227 277 334 394
#     4  12  21  42  66 102 124 179 222 282 328 414
#     4   8  20  40  68  96 116 180 212 292 314 392
#     4  12  26  43  64 101 139 177 222 279 337 405
#     4  12  22  40  62 100 130 175 219 272 332 398
#
# _framework density 22.898050000000001
#
# number of rings (size 3 to 8) (size 9 to 14) (size 15 to 20)
#    0.706    0.000    4.706    3.882    1.647    0.000 
#    0.000    1.176    0.000    1.412    0.000    0.000 
#    0.000    0.000    0.000    0.000    0.000    0.000 
#
# Total GULP energy -94685.877506 kJ/mol
# GULP energy per Si atom -5569.757500 kJ/mol
# Density = 2.284593 g / cm^3
# Si number density = 22.898050 Si / 1000 Ang^3
#
#
#
# Elastic Constant Matrix: (Units=GPa)
#
#
# Indices 1 2 3 4 5 6 
#
# 1 51.1283 2.2172 -6.8431 0.0000 0.0000 0.0000
# 2 2.2172 149.5862 66.8855 0.0000 0.0000 0.0000
# 3 -6.8431 66.8855 181.2898 0.0000 0.0000 0.0000
# 4 0.0000 0.0000 0.0000 24.8756 0.0000 0.0000
# 5 0.0000 0.0000 0.0000 0.0000 -106.3844 0.0000
# 6 0.0000 0.0000 0.0000 0.0000 0.0000 17.0738
#
#
#
# Elastic Compliance Matrix: (Units=1/GPa)
#
#
# Indices 1 2 3 4 5 6 
#
# 1 0.019728 -0.000749 0.001021 0.000000 0.000000 0.000000
# 2 -0.000749 0.008034 -0.002992 0.000000 0.000000 0.000000
# 3 0.001021 -0.002992 0.006659 0.000000 0.000000 0.000000
# 4 0.000000 0.000000 0.000000 0.040200 0.000000 0.000000
# 5 0.000000 0.000000 0.000000 0.000000 -0.009400 0.000000
# 6 0.000000 0.000000 0.000000 0.000000 0.000000 0.058569
#
#
# Mechanical properties :
#
#
# Convention : Reuss Voigt Hill
#
# Bulk Modulus (GPa) = 34.50674 56.28036 45.39355
# Shear Modulus (GPa) = 35.99949 8.42931 22.21440
#
# Velocity S-wave (km/s) = 3.96935 1.92074 3.11809
# Velocity P-wave (km/s) = 6.00917 5.43608 5.72980
#
# Compressibility (1/GPa) = 0.02897985
#
# Stress axis : x y z
#
# Youngs Moduli (GPa) = 50.68994 124.46729 150.18158
#
# Poissons Ratio (x) = 0.09322 -0.15333
# Poissons Ratio (y) = 0.03796 0.44941
# Poissons Ratio (z) = -0.05175 0.37246
#
# Static dielectric constant tensor:
#      x y z
#    x 1.973080 0.000000 0.000000 
#    y 0.000000 1.956700 0.000000 
#    z 0.000000 0.000000 1.923270 
# 
# From -- ./inp_files/52483.got.cif
#   From: 2010.05.17/outbox.cif.g08.bks.cpg/sg22_27_cif.got.tgz:52483.got - 2010.06.03 23:40:54.
