data_PCOD9328444
_publ_section_title
;
Structure prediction by ZEFSAII (Michael W. Deem and Ramdas Pophale) SiO2 
 PCOD9328444
Probable space group: F 2 2 2
;
_chemical_formula_sum "Si O2"
_cell_formula_units_Z 88
_cell_length_a 15.961011
_cell_length_b 22.701016
_cell_length_c 10.217888
_cell_angle_alpha 90.000000
_cell_angle_beta 90.000000
_cell_angle_gamma 90.000000
_cell_volume 3702.259274
_symmetry_space_group_name_H-M "F 2 2 2"
_symmetry_group_IT_number 22
_symmetry_cell_setting 'orthorhombic'
loop_
_space_group_symop_operation_xyz
x,y,z
-x,-y,z
x,-y,-z
-x,y,-z
x,1/2+y,1/2+z
-x,1/2-y,1/2+z
x,1/2-y,1/2-z
-x,1/2+y,1/2-z
1/2+x,y,1/2+z
1/2-x,-y,1/2+z
1/2+x,-y,1/2-z
1/2-x,y,1/2-z
1/2+x,1/2+y,z
1/2-x,1/2-y,z
1/2+x,1/2-y,-z
1/2-x,1/2+y,-z
loop_
_atom_site_type_symbol
_atom_site_label
_atom_site_fract_x
_atom_site_fract_y
_atom_site_fract_z
Si Si1 0.750000 0.544239 0.250000
Si Si2 0.755528 0.071458 0.399529
Si Si3 0.407560 0.634761 0.039486
Si Si4 0.031302 0.311501 0.805311
Si Si5 0.864317 0.370341 0.876576
Si Si6 0.659614 0.756180 0.011771
O O1 0.759466 0.497910 0.132256
O O2 0.828642 0.587463 0.235949
O O3 0.750000 0.097081 0.250000
O O4 0.667155 0.088785 0.463245
O O5 0.829261 0.099105 0.488896
O O6 0.418762 0.659194 0.186868
O O7 0.378686 0.692549 0.958542
O O8 0.500000 0.614140 0.000000
O O9 0.993083 0.250000 0.750000
O O10 0.092776 0.288510 0.918128
O O11 0.961971 0.357273 0.855365
O O12 0.825484 0.304656 0.876578
O O13 0.750000 0.750000 0.944420
#
# Coordination Sequence:
#
# PCOD9328444 Si02
#       6
#     8  16  16  16  16  16
#     4  10  28  46  77  99 148 212 264 318 372 464
#     4  10  24  47  77 101 141 208 263 308 378 459
#     4  11  23  42  70 107 151 187 244 310 386 462
#     4  10  24  41  72 112 158 191 242 319 394 464
#     4  12  23  46  75 105 153 195 258 322 378 459
#     4  11  22  40  74 111 147 197 233 306 390 474
#
# _framework density 23.769269000000001
#
# number of rings (size 3 to 8) (size 9 to 14) (size 15 to 20)
#    0.545    0.727    1.818    4.364    2.545    4.000 
#    0.000    0.909    4.000    0.000    0.000    0.000 
#    0.000    0.000    0.000    0.000    0.000    0.000 
#
# Total GULP energy -122866.334423 kJ/mol
# GULP energy per Si atom -5584.833383 kJ/mol
# Density = 2.371517 g / cm^3
# Si number density = 23.769269 Si / 1000 Ang^3
#
#
#
# Elastic Constant Matrix: (Units=GPa)
#
#
# Indices 1 2 3 4 5 6 
#
# 1 161.3103 74.2596 23.7282 0.0000 0.0000 0.0000
# 2 74.2596 142.9604 22.6007 0.0000 0.0000 0.0000
# 3 23.7282 22.6007 86.8474 0.0000 0.0000 0.0000
# 4 0.0000 0.0000 0.0000 33.1121 0.0000 0.0000
# 5 0.0000 0.0000 0.0000 0.0000 34.6093 0.0000
# 6 0.0000 0.0000 0.0000 0.0000 0.0000 25.1852
#
#
#
# Elastic Compliance Matrix: (Units=1/GPa)
#
#
# Indices 1 2 3 4 5 6 
#
# 1 0.008264 -0.004104 -0.001190 0.000000 0.000000 0.000000
# 2 -0.004104 0.009334 -0.001308 0.000000 0.000000 0.000000
# 3 -0.001190 -0.001308 0.012180 0.000000 0.000000 0.000000
# 4 0.000000 0.000000 0.000000 0.030200 0.000000 0.000000
# 5 0.000000 0.000000 0.000000 0.000000 0.028894 0.000000
# 6 0.000000 0.000000 0.000000 0.000000 0.000000 0.039706
#
#
# Mechanical properties :
#
#
# Convention : Reuss Voigt Hill
#
# Bulk Modulus (GPa) = 60.33606 70.25500 65.29553
# Shear Modulus (GPa) = 33.94311 36.61663 35.27987
#
# Velocity S-wave (km/s) = 3.78302 3.92918 3.85679
# Velocity P-wave (km/s) = 6.67239 7.08561 6.88210
#
# Compressibility (1/GPa) = 0.01657384
#
# Stress axis : x y z
#
# Youngs Moduli (GPa) = 121.01087 107.13893 82.10346
#
# Poissons Ratio (x) = 0.43975 0.09768
# Poissons Ratio (y) = 0.49668 0.10735
# Poissons Ratio (z) = 0.14396 0.14009
#
# Static dielectric constant tensor:
#      x y z
#    x 1.879690 0.000000 0.000000 
#    y 0.000000 1.890210 0.000000 
#    z 0.000000 0.000000 2.077170 
# 
# From -- ./inp_files/19953.got.cif
#   From: 2010.05.17/outbox.cif.g08.bks.cpg/sg22_10_cif.got.tgz:19953.got - 2010.06.03 23:40:54.
