data_PCOD9328787
_publ_section_title
;
Structure prediction by ZEFSAII (Michael W. Deem and Ramdas Pophale) SiO2 
 PCOD9328787
Probable space group: F 2 2 2
;
_chemical_formula_sum "Si O2"
_cell_formula_units_Z 108
_cell_length_a 29.428574
_cell_length_b 6.460545
_cell_length_c 27.936676
_cell_angle_alpha 90.000000
_cell_angle_beta 90.000000
_cell_angle_gamma 90.000000
_cell_volume 5311.450093
_symmetry_space_group_name_H-M "F 2 2 2"
_symmetry_group_IT_number 22
_symmetry_cell_setting 'orthorhombic'
loop_
_space_group_symop_operation_xyz
x,y,z
-x,-y,z
x,-y,-z
-x,y,-z
x,1/2+y,1/2+z
-x,1/2-y,1/2+z
x,1/2-y,1/2-z
-x,1/2+y,1/2-z
1/2+x,y,1/2+z
1/2-x,-y,1/2+z
1/2+x,-y,1/2-z
1/2-x,y,1/2-z
1/2+x,1/2+y,z
1/2-x,1/2-y,z
1/2+x,1/2-y,-z
1/2-x,1/2+y,-z
loop_
_atom_site_type_symbol
_atom_site_label
_atom_site_fract_x
_atom_site_fract_y
_atom_site_fract_z
Si Si1 0.100687 0.750000 0.250000
Si Si2 0.698037 0.715765 0.632691
Si Si3 0.134974 0.118282 0.128160
Si Si4 0.168644 0.913524 0.712119
Si Si5 0.041143 0.849236 0.436551
Si Si6 0.358469 0.462512 0.445841
Si Si7 0.500000 0.000000 0.500000
Si Si8 0.953383 0.115153 0.157757
O O1 0.132205 0.551322 0.240578
O O2 0.070058 0.791809 0.204201
O O3 0.750000 0.750000 0.619358
O O4 0.697690 0.580525 0.681830
O O5 0.671958 0.591437 0.591285
O O6 0.669750 0.928744 0.636894
O O7 0.144348 0.281976 0.170345
O O8 0.141465 0.231984 0.077033
O O9 0.083928 0.035589 0.133641
O O10 0.189705 0.750000 0.750000
O O11 0.089974 0.951306 0.444699
O O12 0.037726 0.790403 0.381137
O O13 0.031879 0.643675 0.467284
O O14 0.000000 0.000000 0.448307
O O15 0.342175 0.500000 0.500000
O O16 0.000000 0.000000 0.168932
#
# Coordination Sequence:
#
# PCOD9328787 Si02
#       8
#     8  16  16  16  16  16   4  16
#     4  12  24  44  65 104 138 186 236 291 348 438
#     4  11  25  48  72 103 143 187 237 298 371 441
#     4  11  23  46  68  95 141 182 230 294 352 421
#     4  11  21  43  74  95 137 180 233 295 351 419
#     4  12  25  44  66 102 143 187 245 294 358 432
#     4  11  25  42  71 105 140 188 238 300 366 428
#     4  12  26  44  72  98 144 188 246 300 360 428
#     4  12  24  41  68  98 138 191 231 287 357 419
#
# _framework density 20.33343
#
# number of rings (size 3 to 8) (size 9 to 14) (size 15 to 20)
#    0.000    0.593    5.185    2.889    2.074    4.741 
#    2.667    5.556    0.000    0.000    0.000    0.000 
#    0.000    0.000    0.000    0.000    0.000    0.000 
#
# Total GULP energy -150965.411611 kJ/mol
# GULP energy per Si atom -5591.311541 kJ/mol
# Density = 2.028715 g / cm^3
# Si number density = 20.333430 Si / 1000 Ang^3
#
#
#
# Elastic Constant Matrix: (Units=GPa)
#
#
# Indices 1 2 3 4 5 6 
#
# 1 122.3652 44.4868 20.5476 -0.0026 0.0003 0.0013
# 2 44.4868 114.9158 50.9208 -0.0089 0.0042 0.0016
# 3 20.5476 50.9208 145.2941 -0.0016 0.0009 0.0009
# 4 -0.0026 -0.0089 -0.0016 18.5836 0.0049 -0.0010
# 5 0.0003 0.0042 0.0009 0.0049 40.0382 0.0037
# 6 0.0013 0.0016 0.0009 -0.0010 0.0037 3.3611
#
#
#
# Elastic Compliance Matrix: (Units=1/GPa)
#
#
# Indices 1 2 3 4 5 6 
#
# 1 0.009511 -0.003653 -0.000065 0.000000 0.000000 -0.000002
# 2 -0.003653 0.011705 -0.003586 0.000005 -0.000001 -0.000003
# 3 -0.000065 -0.003586 0.008148 -0.000001 0.000000 0.000000
# 4 0.000000 0.000005 -0.000001 0.053811 -0.000007 0.000016
# 5 0.000000 -0.000001 0.000000 -0.000007 0.024976 -0.000028
# 6 -0.000002 -0.000003 0.000000 0.000016 -0.000028 0.297518
#
#
# Mechanical properties :
#
#
# Convention : Reuss Voigt Hill
#
# Bulk Modulus (GPa) = 67.76233 68.27616 68.01925
# Shear Modulus (GPa) = 11.75927 30.17124 20.96526
#
# Velocity S-wave (km/s) = 2.40744 3.85622 3.21452
# Velocity P-wave (km/s) = 6.41293 7.31290 6.87765
#
# Compressibility (1/GPa) = 0.01475746
#
# Stress axis : x y z
#
# Youngs Moduli (GPa) = 105.13756 85.43219 122.72375
#
# Poissons Ratio (x) = 0.31212 0.00794
# Poissons Ratio (y) = 0.38411 0.44004
# Poissons Ratio (z) = 0.00680 0.30633
#
# Static dielectric constant tensor:
#      x y z
#    x 1.674290 0.000000 0.000000 
#    y 0.000000 1.758580 0.000000 
#    z 0.000000 0.000000 1.728530 
# 
# From -- ./inp_files/57371.got.cif
#   From: 2010.05.17/outbox.cif.g08.bks.cpg/sg22_29_cif.got.tgz:57371.got - 2010.06.03 23:40:54.
