data_PCOD9328200
_publ_section_title
;
Structure prediction by ZEFSAII (Michael W. Deem and Ramdas Pophale) SiO2 
 PCOD9328200
Probable space group: F 2 2 2
;
_chemical_formula_sum "Si O2"
_cell_formula_units_Z 112
_cell_length_a 14.366299
_cell_length_b 23.591551
_cell_length_c 14.950819
_cell_angle_alpha 90.000000
_cell_angle_beta 90.000000
_cell_angle_gamma 90.000000
_cell_volume 5067.180547
_symmetry_space_group_name_H-M "F 2 2 2"
_symmetry_group_IT_number 22
_symmetry_cell_setting 'orthorhombic'
loop_
_space_group_symop_operation_xyz
x,y,z
-x,-y,z
x,-y,-z
-x,y,-z
x,1/2+y,1/2+z
-x,1/2-y,1/2+z
x,1/2-y,1/2-z
-x,1/2+y,1/2-z
1/2+x,y,1/2+z
1/2-x,-y,1/2+z
1/2+x,-y,1/2-z
1/2-x,y,1/2-z
1/2+x,1/2+y,z
1/2-x,1/2-y,z
1/2+x,1/2-y,-z
1/2-x,1/2+y,-z
loop_
_atom_site_type_symbol
_atom_site_label
_atom_site_fract_x
_atom_site_fract_y
_atom_site_fract_z
Si Si1 0.377343 0.803351 0.906758
Si Si2 0.663037 0.318141 0.932247
Si Si3 0.074834 0.863366 0.083533
Si Si4 0.169370 0.925688 0.810720
Si Si5 0.211300 0.465606 0.583801
Si Si6 0.407909 0.596715 0.450430
Si Si7 0.494127 0.874321 0.771150
O O1 0.400029 0.736635 0.911093
O O2 0.266831 0.806152 0.901393
O O3 0.427214 0.830492 0.822018
O O4 0.397014 0.844796 0.992107
O O5 0.648838 0.380553 0.889425
O O6 0.651882 0.322954 0.039026
O O7 0.133247 0.919738 0.104354
O O8 0.033904 0.848494 0.179829
O O9 0.000000 0.867328 0.000000
O O10 0.250000 0.899585 0.750000
O O11 0.072579 0.926917 0.757051
O O12 0.211107 0.985269 0.842332
O O13 0.173796 0.500000 0.500000
O O14 0.310886 0.438410 0.553918
O O15 0.500000 0.570047 0.500000
O O16 0.433206 0.608333 0.347292
#
# Coordination Sequence:
#
# PCOD9328200 Si02
#       7
#    16  16  16  16  16  16  16
#     4  10  22  47  78 101 142 191 240 312 365 439
#     4  11  22  46  75 101 142 190 243 300 377 432
#     4  12  25  45  68 106 144 187 245 295 368 448
#     4  12  25  45  67 103 145 187 248 299 359 437
#     4  12  25  46  72  97 150 199 235 310 370 433
#     4  10  24  48  72 108 143 191 252 305 369 444
#     4  11  25  45  69 105 147 184 246 304 363 443
#
# _framework density 22.103021999999999
#
# number of rings (size 3 to 8) (size 9 to 14) (size 15 to 20)
#    0.000    0.857    5.714    0.000    4.000    4.571 
#    2.571    0.000    0.000    1.714    0.000    0.000 
#    0.000    0.000    0.000    0.000    0.000    0.000 
#
# Total GULP energy -155983.473640 kJ/mol
# GULP energy per Si atom -5570.838344 kJ/mol
# Density = 2.205271 g / cm^3
# Si number density = 22.103022 Si / 1000 Ang^3
#
#
#
# Elastic Constant Matrix: (Units=GPa)
#
#
# Indices 1 2 3 4 5 6 
#
# 1 46.9588 34.3115 32.5231 0.0000 0.0000 0.0000
# 2 34.3115 112.7621 42.6216 0.0000 0.0000 0.0000
# 3 32.5231 42.6216 148.3622 0.0000 0.0000 0.0000
# 4 0.0000 0.0000 0.0000 -17.6167 0.0000 0.0000
# 5 0.0000 0.0000 0.0000 0.0000 13.7606 0.0000
# 6 0.0000 0.0000 0.0000 0.0000 0.0000 18.0450
#
#
#
# Elastic Compliance Matrix: (Units=1/GPa)
#
#
# Indices 1 2 3 4 5 6 
#
# 1 0.029738 -0.007387 -0.004397 0.000000 0.000000 0.000000
# 2 -0.007387 0.011783 -0.001766 0.000000 0.000000 0.000000
# 3 -0.004397 -0.001766 0.008211 0.000000 0.000000 0.000000
# 4 0.000000 0.000000 0.000000 -0.056764 0.000000 0.000000
# 5 0.000000 0.000000 0.000000 0.000000 0.072671 0.000000
# 6 0.000000 0.000000 0.000000 0.000000 0.000000 0.055417
#
#
# Mechanical properties :
#
#
# Convention : Reuss Voigt Hill
#
# Bulk Modulus (GPa) = 44.18210 58.55504 51.36857
# Shear Modulus (GPa) = 32.11310 16.07959 24.09635
#
# Velocity S-wave (km/s) = 3.81581 2.70012 3.30537
# Velocity P-wave (km/s) = 6.28064 6.02248 6.15291
#
# Compressibility (1/GPa) = 0.02263360
#
# Stress axis : x y z
#
# Youngs Moduli (GPa) = 33.62721 84.86557 121.78178
#
# Poissons Ratio (x) = 0.62688 0.53546
# Poissons Ratio (y) = 0.24840 0.21505
# Poissons Ratio (z) = 0.14785 0.14986
#
# Static dielectric constant tensor:
#      x y z
#    x 2.003050 0.000000 0.000000 
#    y 0.000000 1.881650 0.000000 
#    z 0.000000 0.000000 1.908150 
# 
# From -- ./inp_files/29625.got.cif
#   From: 2010.05.17/outbox.cif.g08.bks.cpg/sg22_15_cif.got.tgz:29625.got - 2010.06.03 23:40:54.
