data_PCOD9328005
_publ_section_title
;
Structure prediction by ZEFSAII (Michael W. Deem and Ramdas Pophale) SiO2 
 PCOD9328005
Probable space group: F 2 2 2
;
_chemical_formula_sum "Si O2"
_cell_formula_units_Z 88
_cell_length_a 8.008915
_cell_length_b 17.548829
_cell_length_c 28.448356
_cell_angle_alpha 90.000000
_cell_angle_beta 90.000000
_cell_angle_gamma 90.000000
_cell_volume 3998.333361
_symmetry_space_group_name_H-M "F 2 2 2"
_symmetry_group_IT_number 22
_symmetry_cell_setting 'orthorhombic'
loop_
_space_group_symop_operation_xyz
x,y,z
-x,-y,z
x,-y,-z
-x,y,-z
x,1/2+y,1/2+z
-x,1/2-y,1/2+z
x,1/2-y,1/2-z
-x,1/2+y,1/2-z
1/2+x,y,1/2+z
1/2-x,-y,1/2+z
1/2+x,-y,1/2-z
1/2-x,y,1/2-z
1/2+x,1/2+y,z
1/2-x,1/2-y,z
1/2+x,1/2-y,-z
1/2-x,1/2+y,-z
loop_
_atom_site_type_symbol
_atom_site_label
_atom_site_fract_x
_atom_site_fract_y
_atom_site_fract_z
Si Si1 0.959486 0.353514 0.390225
Si Si2 0.750000 0.750000 0.680665
Si Si3 0.192370 0.972931 0.051735
Si Si4 0.022569 0.360970 0.187188
Si Si5 0.750000 0.250000 0.875431
Si Si6 0.000000 0.000000 0.174285
Si Si7 0.500000 0.000000 0.882164
Si Si8 0.250000 0.460782 0.250000
O O1 0.858227 0.301793 0.354261
O O2 0.839908 0.385392 0.431699
O O3 0.014462 0.425833 0.358288
O O4 0.119846 0.302655 0.404252
O O5 0.625252 0.692190 0.705775
O O6 0.332409 0.006445 0.086569
O O7 0.000000 0.000000 0.054798
O O8 0.246214 0.000000 0.000000
O O9 0.149760 0.306894 0.158891
O O10 0.109815 0.406196 0.228739
O O11 0.972366 0.426012 0.149997
O O12 0.161808 0.994223 0.207902
#
# Coordination Sequence:
#
# PCOD9328005 Si02
#       8
#    16   8  16  16   8   8   8   8
#     4  11  21  45  66 102 132 187 234 286 361 439
#     4  10  24  40  69  97 136 182 230 280 371 435
#     4  11  23  40  72 111 142 178 243 302 352 429
#     4  11  23  43  67  98 137 187 236 295 359 430
#     4  10  22  41  68  99 134 194 224 288 373 435
#     4  12  25  42  67  93 132 185 237 296 341 424
#     4  12  22  44  76 109 138 191 246 294 364 446
#     4  12  26  41  66 101 142 178 256 304 346 413
#
# _framework density 22.009170000000001
#
# number of rings (size 3 to 8) (size 9 to 14) (size 15 to 20)
#    0.000    0.909    4.545    3.000    2.545    0.364 
#    0.000    0.909    0.000   14.182    0.000    0.000 
#    0.000    0.000    0.000    0.000    0.000    0.000 
#
# Total GULP energy -122901.344880 kJ/mol
# GULP energy per Si atom -5586.424767 kJ/mol
# Density = 2.195908 g / cm^3
# Si number density = 22.009170 Si / 1000 Ang^3
#
#
#
# Elastic Constant Matrix: (Units=GPa)
#
#
# Indices 1 2 3 4 5 6 
#
# 1 111.4059 42.8701 39.0791 0.0000 0.0000 0.0000
# 2 42.8701 108.8046 42.0450 0.0000 0.0000 0.0000
# 3 39.0791 42.0450 104.2622 0.0000 0.0000 0.0000
# 4 0.0000 0.0000 0.0000 22.2469 0.0000 0.0000
# 5 0.0000 0.0000 0.0000 0.0000 69.6361 0.0000
# 6 0.0000 0.0000 0.0000 0.0000 0.0000 43.7136
#
#
#
# Elastic Compliance Matrix: (Units=1/GPa)
#
#
# Indices 1 2 3 4 5 6 
#
# 1 0.011267 -0.003326 -0.002882 0.000000 0.000000 0.000000
# 2 -0.003326 0.011869 -0.003540 0.000000 0.000000 0.000000
# 3 -0.002882 -0.003540 0.012099 0.000000 0.000000 0.000000
# 4 0.000000 0.000000 0.000000 0.044950 0.000000 0.000000
# 5 0.000000 0.000000 0.000000 0.000000 0.014360 0.000000
# 6 0.000000 0.000000 0.000000 0.000000 0.000000 0.022876
#
#
# Mechanical properties :
#
#
# Convention : Reuss Voigt Hill
#
# Bulk Modulus (GPa) = 63.53227 63.60679 63.56953
# Shear Modulus (GPa) = 35.17100 40.48456 37.82778
#
# Velocity S-wave (km/s) = 4.00186 4.29352 4.15025
# Velocity P-wave (km/s) = 7.09099 7.31724 7.20500
#
# Compressibility (1/GPa) = 0.01574003
#
# Stress axis : x y z
#
# Youngs Moduli (GPa) = 88.75619 84.25315 82.65240
#
# Poissons Ratio (x) = 0.28019 0.23820
# Poissons Ratio (y) = 0.29517 0.29258
# Poissons Ratio (z) = 0.25579 0.29824
#
# Static dielectric constant tensor:
#      x y z
#    x 1.867620 0.000000 0.000000 
#    y 0.000000 1.826780 0.000000 
#    z 0.000000 0.000000 1.811440 
# 
# From -- ./inp_files/35309.got.cif
#   From: 2010.05.17/outbox.cif.g08.bks.cpg/sg22_18_cif.got.tgz:35309.got - 2010.06.03 23:40:54.
