data_PCOD9328680
_publ_section_title
;
Structure prediction by ZEFSAII (Michael W. Deem and Ramdas Pophale) SiO2 
 PCOD9328680
Probable space group: F 2 2 2
;
_chemical_formula_sum "Si O2"
_cell_formula_units_Z 88
_cell_length_a 17.710813
_cell_length_b 11.328379
_cell_length_c 22.519038
_cell_angle_alpha 90.000000
_cell_angle_beta 90.000000
_cell_angle_gamma 90.000000
_cell_volume 4518.102732
_symmetry_space_group_name_H-M "F 2 2 2"
_symmetry_group_IT_number 22
_symmetry_cell_setting 'orthorhombic'
loop_
_space_group_symop_operation_xyz
x,y,z
-x,-y,z
x,-y,-z
-x,y,-z
x,1/2+y,1/2+z
-x,1/2-y,1/2+z
x,1/2-y,1/2-z
-x,1/2+y,1/2-z
1/2+x,y,1/2+z
1/2-x,-y,1/2+z
1/2+x,-y,1/2-z
1/2-x,y,1/2-z
1/2+x,1/2+y,z
1/2-x,1/2-y,z
1/2+x,1/2-y,-z
1/2-x,1/2+y,-z
loop_
_atom_site_type_symbol
_atom_site_label
_atom_site_fract_x
_atom_site_fract_y
_atom_site_fract_z
Si Si1 0.000000 0.000000 0.090116
Si Si2 0.250000 0.250000 0.890683
Si Si3 0.780411 0.873300 0.382767
Si Si4 0.339377 0.382122 0.264295
Si Si5 0.500000 0.798157 0.500000
Si Si6 0.644464 0.136136 0.009591
Si Si7 0.848460 0.546851 0.656571
O O1 0.071174 0.952515 0.125571
O O2 0.973994 0.888716 0.050958
O O3 0.299941 0.167207 0.935390
O O4 0.194398 0.171414 0.849980
O O5 0.750000 0.750000 0.358378
O O6 0.843359 0.911386 0.334377
O O7 0.811623 0.845480 0.447536
O O8 0.709602 0.960782 0.378963
O O9 0.370055 0.250000 0.250000
O O10 0.250000 0.380960 0.250000
O O11 0.364262 0.486578 0.220432
O O12 0.571415 0.718037 0.516017
O O13 0.621606 0.000000 0.000000
#
# Coordination Sequence:
#
# PCOD9328680 Si02
#       7
#     8   8  16  16   8  16  16
#     4  11  24  40  64  94 134 174 211 276 346 416
#     4  12  24  40  63 104 135 172 218 278 336 410
#     4  11  19  35  65  98 120 162 220 281 316 384
#     4   9  17  34  62  92 118 154 215 272 315 369
#     4  11  25  40  58  94 135 177 210 270 356 411
#     4  12  24  39  64  90 134 171 221 270 335 407
#     4  11  22  40  65  94 135 169 224 274 337 398
#
# _framework density 19.477201999999998
#
# number of rings (size 3 to 8) (size 9 to 14) (size 15 to 20)
#    0.000    1.091    8.182    1.364    0.000    0.000 
#    0.000    4.091    4.000    6.545    0.000    0.000 
#    0.000    0.000    0.000    0.000    0.000    0.000 
#
# Total GULP energy -122553.968860 kJ/mol
# GULP energy per Si atom -5570.634948 kJ/mol
# Density = 1.943287 g / cm^3
# Si number density = 19.477202 Si / 1000 Ang^3
#
#
#
# Elastic Constant Matrix: (Units=GPa)
#
#
# Indices 1 2 3 4 5 6 
#
# 1 59.4117 27.7625 5.7592 0.0000 0.0000 0.0000
# 2 27.7625 107.3637 17.5768 0.0000 0.0000 0.0000
# 3 5.7592 17.5768 71.6520 0.0000 0.0000 0.0000
# 4 0.0000 0.0000 0.0000 18.9086 0.0000 0.0000
# 5 0.0000 0.0000 0.0000 0.0000 1.4406 0.0000
# 6 0.0000 0.0000 0.0000 0.0000 0.0000 26.7919
#
#
#
# Elastic Compliance Matrix: (Units=1/GPa)
#
#
# Indices 1 2 3 4 5 6 
#
# 1 0.019153 -0.004897 -0.000338 0.000000 0.000000 0.000000
# 2 -0.004897 0.010956 -0.002294 0.000000 0.000000 0.000000
# 3 -0.000338 -0.002294 0.014546 0.000000 0.000000 0.000000
# 4 0.000000 0.000000 0.000000 0.052886 0.000000 0.000000
# 5 0.000000 0.000000 0.000000 0.000000 0.694169 0.000000
# 6 0.000000 0.000000 0.000000 0.000000 0.000000 0.037325
#
#
# Mechanical properties :
#
#
# Convention : Reuss Voigt Hill
#
# Bulk Modulus (GPa) = 33.78779 37.84714 35.81747
# Shear Modulus (GPa) = 5.85508 21.91680 13.88594
#
# Velocity S-wave (km/s) = 1.73570 3.35812 2.67298
# Velocity P-wave (km/s) = 4.62622 5.87449 5.28732
#
# Compressibility (1/GPa) = 0.02959649
#
# Stress axis : x y z
#
# Youngs Moduli (GPa) = 52.21132 91.27379 68.74620
#
# Poissons Ratio (x) = 0.44699 0.02324
# Poissons Ratio (y) = 0.25569 0.15770
# Poissons Ratio (z) = 0.01765 0.20938
#
# Static dielectric constant tensor:
#      x y z
#    x 1.648220 0.000000 0.000000 
#    y 0.000000 1.744070 0.000000 
#    z 0.000000 0.000000 1.795950 
# 
# From -- ./inp_files/48828.got.cif
#   From: 2010.05.17/outbox.cif.g08.bks.cpg/sg22_25_cif.got.tgz:48828.got - 2010.06.03 23:40:54.
