data_PCOD9328345
_publ_section_title
;
Structure prediction by ZEFSAII (Michael W. Deem and Ramdas Pophale) SiO2 
 PCOD9328345
Probable space group: F 2 2 2
;
_chemical_formula_sum "Si O2"
_cell_formula_units_Z 60
_cell_length_a 19.564853
_cell_length_b 11.947253
_cell_length_c 11.681021
_cell_angle_alpha 90.000000
_cell_angle_beta 90.000000
_cell_angle_gamma 90.000000
_cell_volume 2730.394840
_symmetry_space_group_name_H-M "F 2 2 2"
_symmetry_group_IT_number 22
_symmetry_cell_setting 'orthorhombic'
loop_
_space_group_symop_operation_xyz
x,y,z
-x,-y,z
x,-y,-z
-x,y,-z
x,1/2+y,1/2+z
-x,1/2-y,1/2+z
x,1/2-y,1/2-z
-x,1/2+y,1/2-z
1/2+x,y,1/2+z
1/2-x,-y,1/2+z
1/2+x,-y,1/2-z
1/2-x,y,1/2-z
1/2+x,1/2+y,z
1/2-x,1/2-y,z
1/2+x,1/2-y,-z
1/2-x,1/2+y,-z
loop_
_atom_site_type_symbol
_atom_site_label
_atom_site_fract_x
_atom_site_fract_y
_atom_site_fract_z
Si Si1 0.000000 0.000000 0.500000
Si Si2 0.184544 0.325819 0.571715
Si Si3 0.813394 0.929742 0.170811
Si Si4 0.574357 0.750000 0.750000
Si Si5 0.942709 0.871766 0.294547
O O1 0.046628 0.081890 0.422167
O O2 0.250000 0.250000 0.587784
O O3 0.201957 0.446891 0.623449
O O4 0.173542 0.348508 0.437163
O O5 0.121534 0.269887 0.639522
O O6 0.750000 0.893019 0.250000
O O7 0.883991 0.944841 0.238504
O O8 0.521974 0.855722 0.756296
O O9 0.916991 0.750000 0.250000
#
# Coordination Sequence:
#
# PCOD9328345 Si02
#       5
#     4  16  16   8  16
#     4  12  24  48  76 108 152 208 248 306 398 446
#     4  11  25  44  75 102 145 193 239 311 366 447
#     4  11  26  46  68 107 143 190 249 302 376 442
#     4  10  23  44  69 106 146 186 246 300 377 440
#     4  10  27  43  73 109 146 195 249 314 367 462
#
# _framework density 21.974844999999998
#
# number of rings (size 3 to 8) (size 9 to 14) (size 15 to 20)
#    0.800    0.533    0.000    3.600    7.467    3.200 
#    0.000    2.667    0.000    0.000    0.000    0.000 
#    0.000    0.000    0.000    0.000    0.000    0.000 
#
# Total GULP energy -83572.422123 kJ/mol
# GULP energy per Si atom -5571.494808 kJ/mol
# Density = 2.192483 g / cm^3
# Si number density = 21.974845 Si / 1000 Ang^3
#
#
#
# Elastic Constant Matrix: (Units=GPa)
#
#
# Indices 1 2 3 4 5 6 
#
# 1 170.7705 46.1877 102.9179 0.0000 0.0000 0.0000
# 2 46.1877 75.3887 49.6926 0.0000 0.0000 0.0000
# 3 102.9179 49.6926 173.9862 0.0000 0.0000 0.0000
# 4 0.0000 0.0000 0.0000 43.6892 0.0000 0.0000
# 5 0.0000 0.0000 0.0000 0.0000 28.9585 0.0000
# 6 0.0000 0.0000 0.0000 0.0000 0.0000 47.9989
#
#
#
# Elastic Compliance Matrix: (Units=1/GPa)
#
#
# Indices 1 2 3 4 5 6 
#
# 1 0.009498 -0.002606 -0.004874 0.000000 0.000000 0.000000
# 2 -0.002606 0.017056 -0.003330 0.000000 0.000000 0.000000
# 3 -0.004874 -0.003330 0.009582 0.000000 0.000000 0.000000
# 4 0.000000 0.000000 0.000000 0.022889 0.000000 0.000000
# 5 0.000000 0.000000 0.000000 0.000000 0.034532 0.000000
# 6 0.000000 0.000000 0.000000 0.000000 0.000000 0.020834
#
#
# Mechanical properties :
#
#
# Convention : Reuss Voigt Hill
#
# Bulk Modulus (GPa) = 68.89036 90.86020 79.87528
# Shear Modulus (GPa) = 35.49879 38.88581 37.19230
#
# Velocity S-wave (km/s) = 4.02360 4.21118 4.11846
# Velocity P-wave (km/s) = 7.28035 8.06737 7.68394
#
# Compressibility (1/GPa) = 0.01451582
#
# Stress axis : x y z
#
# Youngs Moduli (GPa) = 105.28329 58.62965 104.36562
#
# Poissons Ratio (x) = 0.15282 0.50868
# Poissons Ratio (y) = 0.27442 0.34750
# Poissons Ratio (z) = 0.51315 0.19522
#
# Static dielectric constant tensor:
#      x y z
#    x 1.754010 0.000000 0.000000 
#    y 0.000000 1.888440 0.000000 
#    z 0.000000 0.000000 1.821800 
# 
# From -- ./inp_files/22229.got.cif
#   From: 2010.05.17/outbox.cif.g08.bks.cpg/sg22_12_cif.got.tgz:22229.got - 2010.06.03 23:40:54.
