data_PCOD9328876
_publ_section_title
;
Structure prediction by ZEFSAII (Michael W. Deem and Ramdas Pophale) SiO2 
 PCOD9328876
Probable space group: F 2 2 2
;
_chemical_formula_sum "Si O2"
_cell_formula_units_Z 104
_cell_length_a 25.979200
_cell_length_b 8.009692
_cell_length_c 21.297763
_cell_angle_alpha 90.000000
_cell_angle_beta 90.000000
_cell_angle_gamma 90.000000
_cell_volume 4431.753329
_symmetry_space_group_name_H-M "F 2 2 2"
_symmetry_group_IT_number 22
_symmetry_cell_setting 'orthorhombic'
loop_
_space_group_symop_operation_xyz
x,y,z
-x,-y,z
x,-y,-z
-x,y,-z
x,1/2+y,1/2+z
-x,1/2-y,1/2+z
x,1/2-y,1/2-z
-x,1/2+y,1/2-z
1/2+x,y,1/2+z
1/2-x,-y,1/2+z
1/2+x,-y,1/2-z
1/2-x,y,1/2-z
1/2+x,1/2+y,z
1/2-x,1/2-y,z
1/2+x,1/2-y,-z
1/2-x,1/2+y,-z
loop_
_atom_site_type_symbol
_atom_site_label
_atom_site_fract_x
_atom_site_fract_y
_atom_site_fract_z
Si Si1 0.250000 0.750000 0.947817
Si Si2 0.136122 0.184131 0.475568
Si Si3 0.471210 0.274054 0.677316
Si Si4 0.000000 0.000000 0.098426
Si Si5 0.077804 0.000000 0.000000
Si Si6 0.586225 0.603221 0.342631
Si Si7 0.164299 0.554192 0.246494
Si Si8 0.242582 0.442786 0.646243
O O1 0.196688 0.717996 0.982454
O O2 0.255737 0.582938 0.906089
O O3 0.111373 0.337589 0.514307
O O4 0.118722 0.174825 0.401367
O O5 0.122737 0.000000 0.500000
O O6 0.461118 0.250000 0.750000
O O7 0.532988 0.300329 0.670423
O O8 0.437936 0.418362 0.645528
O O9 0.462494 0.105512 0.641053
O O10 0.960242 0.917229 0.051000
O O11 0.620604 0.567339 0.280614
O O12 0.148865 0.750000 0.250000
O O13 0.190537 0.524843 0.313723
O O14 0.210192 0.537377 0.195385
O O15 0.250000 0.250000 0.625285
#
# Coordination Sequence:
#
# PCOD9328876 Si02
#       8
#     8  16  16   8   8  16  16  16
#     4  12  26  45  70 102 138 182 239 296 362 426
#     4  12  28  50  71 102 137 188 247 307 370 419
#     4  11  24  41  69 109 152 183 222 290 375 449
#     4  11  22  48  74 108 136 183 252 302 354 449
#     4  11  26  50  80 104 136 188 260 311 352 428
#     4  11  22  44  66 100 141 188 229 284 365 433
#     4   9  18  37  64  98 136 180 227 273 341 424
#     4   9  20  40  65  97 136 178 229 282 337 420
#
# _framework density 23.467010999999999
#
# number of rings (size 3 to 8) (size 9 to 14) (size 15 to 20)
#    0.000    1.385    3.077    3.231    1.077    3.692 
#    8.308    0.000    0.000    0.000    0.000    0.000 
#    0.000    0.000    0.000    0.000    0.000    0.000 
#
# Total GULP energy -145089.815393 kJ/mol
# GULP energy per Si atom -5580.377515 kJ/mol
# Density = 2.341360 g / cm^3
# Si number density = 23.467011 Si / 1000 Ang^3
#
#
#
# Elastic Constant Matrix: (Units=GPa)
#
#
# Indices 1 2 3 4 5 6 
#
# 1 98.1084 4.1712 19.6461 0.0000 0.0000 0.0000
# 2 4.1712 88.3644 12.1621 0.0000 0.0002 -0.0001
# 3 19.6461 12.1621 53.8831 0.0000 0.0000 0.0000
# 4 0.0000 0.0000 0.0000 21.1742 0.0001 0.0000
# 5 0.0000 0.0002 0.0000 0.0001 -163.9811 -0.0001
# 6 0.0000 -0.0001 0.0000 0.0000 -0.0001 20.0785
#
#
#
# Elastic Compliance Matrix: (Units=1/GPa)
#
#
# Indices 1 2 3 4 5 6 
#
# 1 0.010996 0.000034 -0.004017 0.000000 0.000000 0.000000
# 2 0.000034 0.011680 -0.002649 0.000000 0.000000 0.000000
# 3 -0.004017 -0.002649 0.020621 0.000000 0.000000 0.000000
# 4 0.000000 0.000000 0.000000 0.047227 0.000000 0.000000
# 5 0.000000 0.000000 0.000000 0.000000 -0.006098 0.000000
# 6 0.000000 0.000000 0.000000 0.000000 0.000000 0.049805
#
#
# Mechanical properties :
#
#
# Convention : Reuss Voigt Hill
#
# Bulk Modulus (GPa) = 33.29622 34.70162 33.99892
# Shear Modulus (GPa) = 31.74519 -10.92059 10.41230
#
# Velocity S-wave (km/s) = 3.68198 -2.15956 2.10870
# Velocity P-wave (km/s) = 5.68289 2.93279 4.52197
#
# Compressibility (1/GPa) = 0.03003344
#
# Stress axis : x y z
#
# Youngs Moduli (GPa) = 90.94449 85.61849 48.49421
#
# Poissons Ratio (x) = -0.00289 0.19479
# Poissons Ratio (y) = -0.00307 0.12844
# Poissons Ratio (z) = 0.36530 0.22677
#
# Static dielectric constant tensor:
#      x y z
#    x 1.918900 0.000000 0.000000 
#    y 0.000000 2.005920 0.000000 
#    z 0.000000 0.000000 1.892500 
# 
# From -- ./inp_files/45817.got.cif
#   From: 2010.05.17/outbox.cif.g08.bks.cpg/sg22_23_cif.got.tgz:45817.got - 2010.06.03 23:40:54.
