data_PCOD9328218
_publ_section_title
;
Structure prediction by ZEFSAII (Michael W. Deem and Ramdas Pophale) SiO2 
 PCOD9328218
Probable space group: F 2 2 2
;
_chemical_formula_sum "Si O2"
_cell_formula_units_Z 72
_cell_length_a 17.205984
_cell_length_b 27.098385
_cell_length_c 8.001574
_cell_angle_alpha 90.000000
_cell_angle_beta 90.000000
_cell_angle_gamma 90.000000
_cell_volume 3730.768914
_symmetry_space_group_name_H-M "F 2 2 2"
_symmetry_group_IT_number 22
_symmetry_cell_setting 'orthorhombic'
loop_
_space_group_symop_operation_xyz
x,y,z
-x,-y,z
x,-y,-z
-x,y,-z
x,1/2+y,1/2+z
-x,1/2-y,1/2+z
x,1/2-y,1/2-z
-x,1/2+y,1/2-z
1/2+x,y,1/2+z
1/2-x,-y,1/2+z
1/2+x,-y,1/2-z
1/2-x,y,1/2-z
1/2+x,1/2+y,z
1/2-x,1/2-y,z
1/2+x,1/2-y,-z
1/2-x,1/2+y,-z
loop_
_atom_site_type_symbol
_atom_site_label
_atom_site_fract_x
_atom_site_fract_y
_atom_site_fract_z
Si Si1 0.500000 0.125096 0.500000
Si Si2 0.654026 0.158789 0.355675
Si Si3 0.750000 0.250000 0.250000
Si Si4 0.000000 0.500000 0.000000
Si Si5 0.208750 0.398903 0.973415
Si Si6 0.893964 0.562087 0.251843
Si Si7 0.785357 0.000000 0.000000
O O1 0.565133 0.156932 0.406445
O O2 0.452576 0.090554 0.373126
O O3 0.692746 0.212471 0.345212
O O4 0.708417 0.128492 0.483979
O O5 0.666284 0.129227 0.179652
O O6 0.054489 0.467549 0.118752
O O7 0.159139 0.401388 0.141049
O O8 0.230852 0.455654 0.936213
O O9 0.839892 0.525036 0.359473
#
# Coordination Sequence:
#
# PCOD9328218 Si02
#       7
#     8  16   4   4  16  16   8
#     4  12  24  41  60  97 134 162 205 279 324 376
#     4  10  23  44  69  94 125 160 215 269 332 384
#     4   8  20  48  76  90 116 162 204 266 332 402
#     4  12  26  34  52  84 132 188 222 264 314 350
#     4  10  23  38  62  87 124 176 221 255 299 381
#     4  12  25  37  57  88 136 177 222 262 309 365
#     4  12  23  35  60  90 128 182 230 256 289 373
#
# _framework density 19.298971000000002
#
# number of rings (size 3 to 8) (size 9 to 14) (size 15 to 20)
#    0.000    1.333    2.222    4.000   12.444    0.000 
#    0.000    4.444    0.000    5.333    0.000    0.000 
#    0.000    0.000    0.000    0.000    0.000    0.000 
#
# Total GULP energy -100550.773634 kJ/mol
# GULP energy per Si atom -5586.154091 kJ/mol
# Density = 1.925505 g / cm^3
# Si number density = 19.298971 Si / 1000 Ang^3
#
#
#
# Elastic Constant Matrix: (Units=GPa)
#
#
# Indices 1 2 3 4 5 6 
#
# 1 149.1694 52.2703 66.3050 0.0000 0.0000 0.0000
# 2 52.2703 125.2226 41.0661 0.0000 0.0000 0.0000
# 3 66.3050 41.0661 123.1186 0.0000 0.0000 0.0000
# 4 0.0000 0.0000 0.0000 16.8493 0.0000 0.0000
# 5 0.0000 0.0000 0.0000 0.0000 55.0151 0.0000
# 6 0.0000 0.0000 0.0000 0.0000 0.0000 19.4787
#
#
#
# Elastic Compliance Matrix: (Units=1/GPa)
#
#
# Indices 1 2 3 4 5 6 
#
# 1 0.009496 -0.002568 -0.004258 0.000000 0.000000 0.000000
# 2 -0.002568 0.009661 -0.001840 0.000000 0.000000 0.000000
# 3 -0.004258 -0.001840 0.011029 0.000000 0.000000 0.000000
# 4 0.000000 0.000000 0.000000 0.059350 0.000000 0.000000
# 5 0.000000 0.000000 0.000000 0.000000 0.018177 0.000000
# 6 0.000000 0.000000 0.000000 0.000000 0.000000 0.051338
#
#
# Mechanical properties :
#
#
# Convention : Reuss Voigt Hill
#
# Bulk Modulus (GPa) = 77.78462 79.64373 78.71417
# Shear Modulus (GPa) = 27.67552 34.12657 30.90105
#
# Velocity S-wave (km/s) = 3.79098 4.20969 4.00581
# Velocity P-wave (km/s) = 7.71716 8.06143 7.89117
#
# Compressibility (1/GPa) = 0.01285601
#
# Stress axis : x y z
#
# Youngs Moduli (GPa) = 105.30790 103.51096 90.67196
#
# Poissons Ratio (x) = 0.26577 0.38605
# Poissons Ratio (y) = 0.27038 0.16680
# Poissons Ratio (z) = 0.44836 0.19042
#
# Static dielectric constant tensor:
#      x y z
#    x 1.696720 0.000000 0.000000 
#    y 0.000000 1.666070 0.000000 
#    z 0.000000 0.000000 1.727740 
# 
# From -- ./inp_files/11571.got.cif
#   From: 2010.05.17/outbox.cif.g08.bks.cpg/sg22_6_cif.got.tgz:11571.got - 2010.06.03 23:40:54.
