data_PCOD9328866
_publ_section_title
;
Structure prediction by ZEFSAII (Michael W. Deem and Ramdas Pophale) SiO2 
 PCOD9328866
Probable space group: F 2 2 2
;
_chemical_formula_sum "Si O2"
_cell_formula_units_Z 80
_cell_length_a 19.463707
_cell_length_b 13.814186
_cell_length_c 13.938093
_cell_angle_alpha 90.000000
_cell_angle_beta 90.000000
_cell_angle_gamma 90.000000
_cell_volume 3747.608501
_symmetry_space_group_name_H-M "F 2 2 2"
_symmetry_group_IT_number 22
_symmetry_cell_setting 'orthorhombic'
loop_
_space_group_symop_operation_xyz
x,y,z
-x,-y,z
x,-y,-z
-x,y,-z
x,1/2+y,1/2+z
-x,1/2-y,1/2+z
x,1/2-y,1/2-z
-x,1/2+y,1/2-z
1/2+x,y,1/2+z
1/2-x,-y,1/2+z
1/2+x,-y,1/2-z
1/2-x,y,1/2-z
1/2+x,1/2+y,z
1/2-x,1/2-y,z
1/2+x,1/2-y,-z
1/2-x,1/2+y,-z
loop_
_atom_site_type_symbol
_atom_site_label
_atom_site_fract_x
_atom_site_fract_y
_atom_site_fract_z
Si Si1 0.922778 0.028833 0.264607
Si Si2 0.079673 0.109648 0.529574
Si Si3 0.686806 0.348155 0.188613
Si Si4 0.828918 0.139585 0.777668
Si Si5 0.678677 0.212441 0.526339
O O1 0.920037 0.099514 0.355907
O O2 0.880519 0.087067 0.186402
O O3 0.879097 0.931464 0.279385
O O4 0.000000 0.000000 0.243062
O O5 0.126619 0.197955 0.492548
O O6 0.000000 0.122373 0.500000
O O7 0.101565 0.000000 0.500000
O O8 0.675168 0.250000 0.250000
O O9 0.750000 0.393909 0.250000
O O10 0.700747 0.328537 0.077399
O O11 0.843991 0.250000 0.750000
O O12 0.750000 0.118010 0.750000
O O13 0.844632 0.136465 0.892403
O O14 0.750000 0.250000 0.570970
#
# Coordination Sequence:
#
# PCOD9328866 Si02
#       5
#    16  16  16  16  16
#     4  12  25  43  66  97 136 175 219 271 329 395
#     4  11  23  40  66  98 126 172 228 268 314 393
#     4  11  22  43  69  99 131 171 224 275 329 392
#     4  11  25  43  67  98 135 171 219 276 337 388
#     4  12  23  43  68 100 132 172 220 275 333 394
#
# _framework density 21.346947
#
# number of rings (size 3 to 8) (size 9 to 14) (size 15 to 20)
#    0.000    0.600    8.000    1.800    0.000    3.200 
#    0.000    1.000    0.000    0.000    0.000    0.000 
#    0.000    0.000    0.000    0.000    0.000    0.000 
#
# Total GULP energy -111600.381284 kJ/mol
# GULP energy per Si atom -5580.019064 kJ/mol
# Density = 2.129836 g / cm^3
# Si number density = 21.346947 Si / 1000 Ang^3
#
#
#
# Elastic Constant Matrix: (Units=GPa)
#
#
# Indices 1 2 3 4 5 6 
#
# 1 137.9020 49.9738 21.9635 0.0000 0.0000 0.0000
# 2 49.9738 64.7115 14.9098 0.0000 0.0000 0.0000
# 3 21.9635 14.9098 125.0624 0.0000 0.0000 0.0000
# 4 0.0000 0.0000 0.0000 21.3820 0.0000 0.0000
# 5 0.0000 0.0000 0.0000 0.0000 24.7374 0.0000
# 6 0.0000 0.0000 0.0000 0.0000 0.0000 34.6078
#
#
#
# Elastic Compliance Matrix: (Units=1/GPa)
#
#
# Indices 1 2 3 4 5 6 
#
# 1 0.010161 -0.007646 -0.000873 0.000000 0.000000 0.000000
# 2 -0.007646 0.021643 -0.001237 0.000000 0.000000 0.000000
# 3 -0.000873 -0.001237 0.008297 0.000000 0.000000 0.000000
# 4 0.000000 0.000000 0.000000 0.046768 0.000000 0.000000
# 5 0.000000 0.000000 0.000000 0.000000 0.040425 0.000000
# 6 0.000000 0.000000 0.000000 0.000000 0.000000 0.028895
#
#
# Mechanical properties :
#
#
# Convention : Reuss Voigt Hill
#
# Bulk Modulus (GPa) = 48.57134 55.70778 52.13956
# Shear Modulus (GPa) = 27.38748 32.20068 29.79408
#
# Velocity S-wave (km/s) = 3.58574 3.88808 3.73997
# Velocity P-wave (km/s) = 6.32029 6.80509 6.56717
#
# Compressibility (1/GPa) = 0.02058827
#
# Stress axis : x y z
#
# Youngs Moduli (GPa) = 98.41177 46.20431 120.52763
#
# Poissons Ratio (x) = 0.35328 0.10522
# Poissons Ratio (y) = 0.75246 0.14915
# Poissons Ratio (z) = 0.08591 0.05718
#
# Static dielectric constant tensor:
#      x y z
#    x 1.763450 0.000000 0.000000 
#    y 0.000000 1.802050 0.000000 
#    z 0.000000 0.000000 1.724100 
# 
# From -- ./inp_files/31379.got.cif
#   From: 2010.05.17/outbox.cif.g08.bks.cpg/sg22_16_cif.got.tgz:31379.got - 2010.06.03 23:40:54.
