data_PCOD9328079
_publ_section_title
;
Structure prediction by ZEFSAII (Michael W. Deem and Ramdas Pophale) SiO2 
 PCOD9328079
Probable space group: F 2 2 2
;
_chemical_formula_sum "Si O2"
_cell_formula_units_Z 112
_cell_length_a 11.913886
_cell_length_b 15.886514
_cell_length_c 29.625727
_cell_angle_alpha 90.000000
_cell_angle_beta 90.000000
_cell_angle_gamma 90.000000
_cell_volume 5607.264808
_symmetry_space_group_name_H-M "F 2 2 2"
_symmetry_group_IT_number 22
_symmetry_cell_setting 'orthorhombic'
loop_
_space_group_symop_operation_xyz
x,y,z
-x,-y,z
x,-y,-z
-x,y,-z
x,1/2+y,1/2+z
-x,1/2-y,1/2+z
x,1/2-y,1/2-z
-x,1/2+y,1/2-z
1/2+x,y,1/2+z
1/2-x,-y,1/2+z
1/2+x,-y,1/2-z
1/2-x,y,1/2-z
1/2+x,1/2+y,z
1/2-x,1/2-y,z
1/2+x,1/2-y,-z
1/2-x,1/2+y,-z
loop_
_atom_site_type_symbol
_atom_site_label
_atom_site_fract_x
_atom_site_fract_y
_atom_site_fract_z
Si Si1 0.126901 0.980984 0.358364
Si Si2 0.935991 0.080276 0.951708
Si Si3 0.828095 0.946937 0.455740
Si Si4 0.868896 0.208240 0.369460
Si Si5 0.538814 0.226362 0.948609
Si Si6 0.752394 0.616069 0.196541
Si Si7 0.558982 0.241568 0.696583
O O1 0.150613 0.884284 0.350681
O O2 0.134039 0.004263 0.411028
O O3 0.217699 0.036274 0.332574
O O4 0.000000 0.000000 0.342521
O O5 0.806633 0.056085 0.957162
O O6 0.933682 0.177036 0.933534
O O7 0.000000 0.000000 0.928535
O O8 0.000000 0.086859 0.000000
O O9 0.871821 0.850461 0.449803
O O10 0.866001 0.000000 0.500000
O O11 0.750000 0.250000 0.377824
O O12 0.939065 0.199520 0.415489
O O13 0.949611 0.254515 0.333889
O O14 0.500000 0.231975 0.000000
O O15 0.750000 0.599317 0.250000
O O16 0.634111 0.659840 0.186596
O O17 0.853855 0.681964 0.186721
O O18 0.534203 0.250000 0.750000
#
# Coordination Sequence:
#
# PCOD9328079 Si02
#       7
#    16  16  16  16  16  16  16
#     4  12  24  43  66 100 135 178 224 284 339 398
#     4  10  22  43  62  94 130 177 221 285 346 393
#     4  12  24  40  69  98 134 180 232 284 342 411
#     4  12  27  45  64  98 145 181 223 291 347 406
#     4  11  25  41  67  94 131 183 239 273 339 407
#     4   9  19  41  73 101 129 172 226 283 331 413
#     4   9  19  41  72 101 131 174 225 271 340 418
#
# _framework density 19.974087000000001
#
# number of rings (size 3 to 8) (size 9 to 14) (size 15 to 20)
#    0.000    1.286    4.286    2.143    4.000    2.571 
#    2.571    0.714    0.000    0.000    0.000    0.000 
#    0.000    0.000    0.000    0.000    0.000    0.000 
#
# Total GULP energy -156267.888098 kJ/mol
# GULP energy per Si atom -5580.996004 kJ/mol
# Density = 1.992863 g / cm^3
# Si number density = 19.974087 Si / 1000 Ang^3
#
#
#
# Elastic Constant Matrix: (Units=GPa)
#
#
# Indices 1 2 3 4 5 6 
#
# 1 130.2494 57.5300 46.7299 0.0000 0.0000 0.0000
# 2 57.5300 136.3440 29.3542 0.0000 0.0000 0.0000
# 3 46.7299 29.3542 48.1394 0.0000 0.0000 0.0000
# 4 0.0000 0.0000 0.0000 14.0116 0.0000 0.0000
# 5 0.0000 0.0000 0.0000 0.0000 25.7539 0.0000
# 6 0.0000 0.0000 0.0000 0.0000 0.0000 42.7770
#
#
#
# Elastic Compliance Matrix: (Units=1/GPa)
#
#
# Indices 1 2 3 4 5 6 
#
# 1 0.012858 -0.003152 -0.010560 0.000000 0.000000 0.000000
# 2 -0.003152 0.009215 -0.002560 0.000000 0.000000 0.000000
# 3 -0.010560 -0.002560 0.032584 0.000000 0.000000 0.000000
# 4 0.000000 0.000000 0.000000 0.071370 0.000000 0.000000
# 5 0.000000 0.000000 0.000000 0.000000 0.038829 0.000000
# 6 0.000000 0.000000 0.000000 0.000000 0.000000 0.023377
#
#
# Mechanical properties :
#
#
# Convention : Reuss Voigt Hill
#
# Bulk Modulus (GPa) = 45.21757 64.66232 54.93995
# Shear Modulus (GPa) = 21.91553 28.58309 25.24931
#
# Velocity S-wave (km/s) = 3.31599 3.78697 3.55928
# Velocity P-wave (km/s) = 6.11133 7.18087 6.66758
#
# Compressibility (1/GPa) = 0.02211529
#
# Stress axis : x y z
#
# Youngs Moduli (GPa) = 77.77013 108.51318 30.68949
#
# Poissons Ratio (x) = 0.34204 0.32408
# Poissons Ratio (y) = 0.24514 0.07855
# Poissons Ratio (z) = 0.82124 0.27775
#
# Static dielectric constant tensor:
#      x y z
#    x 1.698030 0.000000 0.000000 
#    y 0.000000 1.757230 0.000000 
#    z 0.000000 0.000000 1.685620 
# 
# From -- ./inp_files/56091.got.cif
#   From: 2010.05.17/outbox.cif.g08.bks.cpg/sg22_29_cif.got.tgz:56091.got - 2010.06.03 23:40:54.
