data_PCOD9328119
_publ_section_title
;
Structure prediction by ZEFSAII (Michael W. Deem and Ramdas Pophale) SiO2 
 PCOD9328119
Probable space group: F 2 2 2
;
_chemical_formula_sum "Si O2"
_cell_formula_units_Z 56
_cell_length_a 13.876427
_cell_length_b 5.663807
_cell_length_c 29.589185
_cell_angle_alpha 90.000000
_cell_angle_beta 90.000000
_cell_angle_gamma 90.000000
_cell_volume 2325.514782
_symmetry_space_group_name_H-M "F 2 2 2"
_symmetry_group_IT_number 22
_symmetry_cell_setting 'orthorhombic'
loop_
_space_group_symop_operation_xyz
x,y,z
-x,-y,z
x,-y,-z
-x,y,-z
x,1/2+y,1/2+z
-x,1/2-y,1/2+z
x,1/2-y,1/2-z
-x,1/2+y,1/2-z
1/2+x,y,1/2+z
1/2-x,-y,1/2+z
1/2+x,-y,1/2-z
1/2-x,y,1/2-z
1/2+x,1/2+y,z
1/2-x,1/2-y,z
1/2+x,1/2-y,-z
1/2-x,1/2+y,-z
loop_
_atom_site_type_symbol
_atom_site_label
_atom_site_fract_x
_atom_site_fract_y
_atom_site_fract_z
Si Si1 0.750000 0.250000 0.162514
Si Si2 0.142349 0.138730 0.204661
Si Si3 0.896561 0.389685 0.883586
Si Si4 0.139121 0.252038 0.482210
O O1 0.669989 0.368126 0.195610
O O2 0.811952 0.426705 0.130910
O O3 0.097825 0.250000 0.250000
O O4 0.250000 0.250000 0.203272
O O5 0.089374 0.226611 0.160208
O O6 0.865697 0.251200 0.928108
O O7 0.000000 0.500000 0.893671
O O8 0.099181 0.500000 0.500000
O O9 0.250000 0.250000 0.497902
O O10 0.100363 0.000000 0.500000
#
# Coordination Sequence:
#
# PCOD9328119 Si02
#       4
#     8  16  16  16
#     4  10  22  43  76  96 146 194 238 304 359 444
#     4   9  20  40  67 102 136 184 238 288 362 426
#     4  11  25  43  67 107 140 186 239 301 368 444
#     4  10  23  43  74 101 136 185 238 299 364 434
#
# _framework density 24.080689
#
# number of rings (size 3 to 8) (size 9 to 14) (size 15 to 20)
#    0.000    2.000    0.000    2.571   10.000   10.857 
#    5.143    1.429    0.000    0.000    0.000    0.000 
#    0.000    0.000    0.000    0.000    0.000    0.000 
#
# Total GULP energy -78148.289887 kJ/mol
# GULP energy per Si atom -5582.020706 kJ/mol
# Density = 2.402588 g / cm^3
# Si number density = 24.080689 Si / 1000 Ang^3
#
#
#
# Elastic Constant Matrix: (Units=GPa)
#
#
# Indices 1 2 3 4 5 6 
#
# 1 92.9532 26.9423 0.5327 0.0000 0.0000 0.0000
# 2 26.9423 159.8733 92.7337 0.0000 0.0000 0.0000
# 3 0.5327 92.7337 167.8124 0.0000 0.0000 0.0000
# 4 0.0000 0.0000 0.0000 27.3428 0.0000 0.0000
# 5 0.0000 0.0000 0.0000 0.0000 4.8238 0.0000
# 6 0.0000 0.0000 0.0000 0.0000 0.0000 -6.9658
#
#
#
# Elastic Compliance Matrix: (Units=1/GPa)
#
#
# Indices 1 2 3 4 5 6 
#
# 1 0.011572 -0.002839 0.001532 0.000000 0.000000 0.000000
# 2 -0.002839 0.009902 -0.005463 0.000000 0.000000 0.000000
# 3 0.001532 -0.005463 0.008973 0.000000 0.000000 0.000000
# 4 0.000000 0.000000 0.000000 0.036573 0.000000 0.000000
# 5 0.000000 0.000000 0.000000 0.000000 0.207306 0.000000
# 6 0.000000 0.000000 0.000000 0.000000 0.000000 -0.143558
#
#
# Mechanical properties :
#
#
# Convention : Reuss Voigt Hill
#
# Bulk Modulus (GPa) = 59.14433 73.45071 66.29752
# Shear Modulus (GPa) = 33.34586 25.06882 29.20734
#
# Velocity S-wave (km/s) = 3.72527 3.23001 3.48644
# Velocity P-wave (km/s) = 6.56641 6.66924 6.61802
#
# Compressibility (1/GPa) = 0.01690779
#
# Stress axis : x y z
#
# Youngs Moduli (GPa) = 86.41442 100.98873 111.44545
#
# Poissons Ratio (x) = 0.28669 -0.17073
# Poissons Ratio (y) = 0.24531 0.60882
# Poissons Ratio (z) = -0.13239 0.55169
#
# Static dielectric constant tensor:
#      x y z
#    x 1.916230 0.000000 0.000000 
#    y 0.000000 2.062960 0.000000 
#    z 0.000000 0.000000 1.915040 
# 
# From -- ./inp_files/1856.got.cif
#   From: 2010.05.17/outbox.cif.g08.bks.cpg/sg22_1_cif.got.tgz:1856.got - 2010.06.03 23:40:54.
