data_PCOD9328364
_publ_section_title
;
Structure prediction by ZEFSAII (Michael W. Deem and Ramdas Pophale) SiO2 
 PCOD9328364
Probable space group: F 2 2 2
;
_chemical_formula_sum "Si O2"
_cell_formula_units_Z 100
_cell_length_a 22.920148
_cell_length_b 7.549526
_cell_length_c 22.875188
_cell_angle_alpha 90.000000
_cell_angle_beta 90.000000
_cell_angle_gamma 90.000000
_cell_volume 3958.236824
_symmetry_space_group_name_H-M "F 2 2 2"
_symmetry_group_IT_number 22
_symmetry_cell_setting 'orthorhombic'
loop_
_space_group_symop_operation_xyz
x,y,z
-x,-y,z
x,-y,-z
-x,y,-z
x,1/2+y,1/2+z
-x,1/2-y,1/2+z
x,1/2-y,1/2-z
-x,1/2+y,1/2-z
1/2+x,y,1/2+z
1/2-x,-y,1/2+z
1/2+x,-y,1/2-z
1/2-x,y,1/2-z
1/2+x,1/2+y,z
1/2-x,1/2-y,z
1/2+x,1/2-y,-z
1/2-x,1/2+y,-z
loop_
_atom_site_type_symbol
_atom_site_label
_atom_site_fract_x
_atom_site_fract_y
_atom_site_fract_z
Si Si1 0.470228 0.694116 0.598888
Si Si2 0.562503 0.037330 0.782529
Si Si3 0.156250 0.676445 0.576373
Si Si4 0.750000 0.750000 0.750000
Si Si5 0.161509 0.967930 0.807741
Si Si6 0.412442 0.738013 0.123700
Si Si7 0.685635 0.731592 0.954994
O O1 0.500000 0.500000 0.583879
O O2 0.452503 0.681735 0.667723
O O3 0.411028 0.760263 0.570431
O O4 0.527907 0.809402 0.591641
O O5 0.500000 0.000000 0.751114
O O6 0.621623 0.073693 0.748100
O O7 0.575776 0.867320 0.822336
O O8 0.179008 0.681966 0.644064
O O9 0.186678 0.782128 0.523224
O O10 0.168027 0.473540 0.556246
O O11 0.789849 0.887414 0.788141
O O12 0.113990 0.068702 0.846517
O O13 0.364989 0.828168 0.081360
O O14 0.750000 0.750000 0.929861
#
# Coordination Sequence:
#
# PCOD9328364 Si02
#       7
#    16  16  16   4  16  16  16
#     4   9  21  43  64 102 143 178 229 299 383 448
#     4   9  19  36  61  99 138 179 224 288 372 450
#     4  10  24  43  65 100 134 187 247 306 368 439
#     4  12  24  40  64  98 136 192 248 310 370 410
#     4  11  22  37  65  97 136 183 246 295 363 439
#     4   9  19  37  66  96 131 179 237 299 367 434
#     4  10  23  45  67  98 137 191 250 305 359 437
#
# _framework density 25.263774000000002
#
# number of rings (size 3 to 8) (size 9 to 14) (size 15 to 20)
#    0.000    2.560    1.600    0.000    6.720    3.200 
#   17.280    6.400    0.000    0.000    0.000    0.000 
#    0.000    0.000    0.000    0.000    0.000    0.000 
#
# Total GULP energy -139249.676450 kJ/mol
# GULP energy per Si atom -5569.987058 kJ/mol
# Density = 2.520627 g / cm^3
# Si number density = 25.263774 Si / 1000 Ang^3
#
#
#
# Elastic Constant Matrix: (Units=GPa)
#
#
# Indices 1 2 3 4 5 6 
#
# 1 178.4497 36.5602 28.0807 0.0000 0.0000 0.0000
# 2 36.5602 60.3303 6.4757 0.0000 -0.0001 -0.0002
# 3 28.0807 6.4757 70.8493 0.0000 0.0000 0.0000
# 4 0.0000 0.0000 0.0000 10.5850 0.0000 0.0000
# 5 0.0000 -0.0001 0.0000 0.0000 9.4503 0.0001
# 6 0.0000 -0.0002 0.0000 0.0000 0.0001 17.4765
#
#
#
# Elastic Compliance Matrix: (Units=1/GPa)
#
#
# Indices 1 2 3 4 5 6 
#
# 1 0.006758 -0.003845 -0.002327 0.000000 0.000000 0.000000
# 2 -0.003845 0.018928 -0.000206 0.000000 0.000000 0.000000
# 3 -0.002327 -0.000206 0.015056 0.000000 0.000000 0.000000
# 4 0.000000 0.000000 0.000000 0.094473 0.000000 0.000000
# 5 0.000000 0.000000 0.000000 0.000000 0.105817 0.000000
# 6 0.000000 0.000000 0.000000 0.000000 0.000000 0.057220
#
#
# Mechanical properties :
#
#
# Convention : Reuss Voigt Hill
#
# Bulk Modulus (GPa) = 35.73389 50.20695 42.97042
# Shear Modulus (GPa) = 15.60861 23.40320 19.50591
#
# Velocity S-wave (km/s) = 2.48831 3.04691 2.78167
# Velocity P-wave (km/s) = 4.73609 5.68282 5.23092
#
# Compressibility (1/GPa) = 0.02798464
#
# Stress axis : x y z
#
# Youngs Moduli (GPa) = 147.97635 52.83204 66.42069
#
# Poissons Ratio (x) = 0.20317 0.15456
# Poissons Ratio (y) = 0.56904 0.01368
# Poissons Ratio (z) = 0.34433 0.01088
#
# Static dielectric constant tensor:
#      x y z
#    x 2.056100 0.000000 0.000000 
#    y 0.000000 2.152310 0.000000 
#    z 0.000000 0.000000 2.244230 
# 
# From -- ./inp_files/53923.got.cif
#   From: 2010.05.17/outbox.cif.g08.bks.cpg/sg22_27_cif.got.tgz:53923.got - 2010.06.03 23:40:54.
