data_PCOD9328742
_publ_section_title
;
Structure prediction by ZEFSAII (Michael W. Deem and Ramdas Pophale) SiO2 
 PCOD9328742
Probable space group: F 2 2 2
;
_chemical_formula_sum "Si O2"
_cell_formula_units_Z 88
_cell_length_a 5.057940
_cell_length_b 31.167262
_cell_length_c 23.947109
_cell_angle_alpha 90.000000
_cell_angle_beta 90.000000
_cell_angle_gamma 90.000000
_cell_volume 3775.073537
_symmetry_space_group_name_H-M "F 2 2 2"
_symmetry_group_IT_number 22
_symmetry_cell_setting 'orthorhombic'
loop_
_space_group_symop_operation_xyz
x,y,z
-x,-y,z
x,-y,-z
-x,y,-z
x,1/2+y,1/2+z
-x,1/2-y,1/2+z
x,1/2-y,1/2-z
-x,1/2+y,1/2-z
1/2+x,y,1/2+z
1/2-x,-y,1/2+z
1/2+x,-y,1/2-z
1/2-x,y,1/2-z
1/2+x,1/2+y,z
1/2-x,1/2-y,z
1/2+x,1/2-y,-z
1/2-x,1/2+y,-z
loop_
_atom_site_type_symbol
_atom_site_label
_atom_site_fract_x
_atom_site_fract_y
_atom_site_fract_z
Si Si1 0.673116 0.850476 0.810422
Si Si2 0.817133 0.201869 0.837614
Si Si3 0.179668 0.934622 0.379511
Si Si4 0.327101 0.570306 0.946539
Si Si5 0.500000 0.000000 0.787019
Si Si6 0.760220 0.172835 0.962659
O O1 0.750000 0.869300 0.750000
O O2 0.385635 0.830040 0.807755
O O3 0.672392 0.885307 0.859693
O O4 0.886947 0.813801 0.825178
O O5 0.750000 0.250000 0.820711
O O6 0.755748 0.196068 0.903448
O O7 0.480174 0.943447 0.396464
O O8 0.971437 0.942679 0.430233
O O9 0.089817 0.961993 0.327317
O O10 0.311021 0.622085 0.951121
O O11 0.500000 0.555739 0.000000
O O12 0.250000 0.986957 0.750000
O O13 0.500000 0.176490 0.000000
O O14 0.000000 0.189551 0.000000
#
# Coordination Sequence:
#
# PCOD9328742 Si02
#       6
#    16  16  16  16   8  16
#     4  12  25  44  68  93 127 181 235 280 344 413
#     4  12  26  43  63  97 136 174 230 290 341 406
#     4  12  23  46  71 101 137 177 225 281 342 415
#     4  11  22  40  71 103 135 178 225 273 337 415
#     4  12  28  48  73 108 143 180 230 296 354 396
#     4  11  21  38  66  95 131 174 222 278 336 405
#
# _framework density 23.310801999999999
#
# number of rings (size 3 to 8) (size 9 to 14) (size 15 to 20)
#    0.000    0.364    3.636    6.545    0.000    4.364 
#    0.000    2.727    0.000    0.000    0.000    0.000 
#    0.000    0.000    0.000    0.000    0.000    0.000 
#
# Total GULP energy -123212.772884 kJ/mol
# GULP energy per Si atom -5600.580586 kJ/mol
# Density = 2.325775 g / cm^3
# Si number density = 23.310802 Si / 1000 Ang^3
#
#
#
# Elastic Constant Matrix: (Units=GPa)
#
#
# Indices 1 2 3 4 5 6 
#
# 1 126.9892 -4.9063 30.4209 0.0000 0.0000 0.0000
# 2 -4.9063 39.8425 -9.8742 0.0000 0.0000 0.0000
# 3 30.4209 -9.8742 100.4026 0.0000 0.0000 0.0000
# 4 0.0000 0.0000 0.0000 -6.7022 0.0000 0.0000
# 5 0.0000 0.0000 0.0000 0.0000 51.9711 0.0000
# 6 0.0000 0.0000 0.0000 0.0000 0.0000 26.6294
#
#
#
# Elastic Compliance Matrix: (Units=1/GPa)
#
#
# Indices 1 2 3 4 5 6 
#
# 1 0.008498 0.000419 -0.002534 0.000000 0.000000 0.000000
# 2 0.000419 0.025746 0.002405 0.000000 0.000000 0.000000
# 3 -0.002534 0.002405 0.010964 0.000000 0.000000 0.000000
# 4 0.000000 0.000000 0.000000 -0.149206 0.000000 0.000000
# 5 0.000000 0.000000 0.000000 0.000000 0.019241 0.000000
# 6 0.000000 0.000000 0.000000 0.000000 0.000000 0.037552
#
#
# Mechanical properties :
#
#
# Convention : Reuss Voigt Hill
#
# Bulk Modulus (GPa) = 21.83942 33.16836 27.50389
# Shear Modulus (GPa) = -153.74670 31.15260 -61.29705
#
# Velocity S-wave (km/s) = -8.13009 3.65965 -5.13348
# Velocity P-wave (km/s) = 8.87367 5.66719 4.82830
#
# Compressibility (1/GPa) = 0.04578876
#
# Stress axis : x y z
#
# Youngs Moduli (GPa) = 117.67775 38.84027 91.20686
#
# Poissons Ratio (x) = -0.01626 0.23108
# Poissons Ratio (y) = -0.04925 -0.21937
# Poissons Ratio (z) = 0.29815 -0.09342
#
# Static dielectric constant tensor:
#      x y z
#    x 1.810460 0.000000 0.000000 
#    y 0.000000 1.861780 0.000000 
#    z 0.000000 0.000000 1.848340 
# 
# From -- ./inp_files/46671.got.cif
#   From: 2010.05.17/outbox.cif.g08.bks.cpg/sg22_24_cif.got.tgz:46671.got - 2010.06.03 23:40:54.
