data_PCOD9328784
_publ_section_title
;
Structure prediction by ZEFSAII (Michael W. Deem and Ramdas Pophale) SiO2 
 PCOD9328784
Probable space group: F 2 2 2
;
_chemical_formula_sum "Si O2"
_cell_formula_units_Z 64
_cell_length_a 26.376524
_cell_length_b 10.053182
_cell_length_c 11.139365
_cell_angle_alpha 90.000000
_cell_angle_beta 90.000000
_cell_angle_gamma 90.000000
_cell_volume 2953.803097
_symmetry_space_group_name_H-M "F 2 2 2"
_symmetry_group_IT_number 22
_symmetry_cell_setting 'orthorhombic'
loop_
_space_group_symop_operation_xyz
x,y,z
-x,-y,z
x,-y,-z
-x,y,-z
x,1/2+y,1/2+z
-x,1/2-y,1/2+z
x,1/2-y,1/2-z
-x,1/2+y,1/2-z
1/2+x,y,1/2+z
1/2-x,-y,1/2+z
1/2+x,-y,1/2-z
1/2-x,y,1/2-z
1/2+x,1/2+y,z
1/2-x,1/2-y,z
1/2+x,1/2-y,-z
1/2-x,1/2+y,-z
loop_
_atom_site_type_symbol
_atom_site_label
_atom_site_fract_x
_atom_site_fract_y
_atom_site_fract_z
Si Si1 0.192131 0.567139 0.211232
Si Si2 0.636657 0.179847 0.407331
Si Si3 0.194453 0.714570 0.889236
Si Si4 0.017424 0.845290 0.136328
O O1 0.250000 0.589458 0.250000
O O2 0.164373 0.688540 0.145597
O O3 0.163853 0.558839 0.339298
O O4 0.188123 0.442860 0.123336
O O5 0.650319 0.205339 0.544787
O O6 0.578212 0.167162 0.375210
O O7 0.196321 0.750000 0.750000
O O8 0.250000 0.750000 0.943292
O O9 0.001859 0.750000 0.250000
O O10 0.000000 0.000000 0.155940
O O11 0.000000 0.807042 0.000000
#
# Coordination Sequence:
#
# PCOD9328784 Si02
#       4
#    16  16  16  16
#     4  11  21  42  71 103 147 186 239 286 355 459
#     4  11  24  43  72 100 138 197 242 300 374 437
#     4  11  23  41  62 107 150 189 237 287 364 448
#     4  11  27  54  79 111 148 195 265 334 397 453
#
# _framework density 21.666982000000001
#
# number of rings (size 3 to 8) (size 9 to 14) (size 15 to 20)
#    0.000    1.000    5.000    3.750    0.000    8.500 
#    4.500    0.000    0.000    0.000    0.000    0.000 
#    0.000    0.000    0.000    0.000    0.000    0.000 
#
# Total GULP energy -89196.209739 kJ/mol
# GULP energy per Si atom -5574.763109 kJ/mol
# Density = 2.161767 g / cm^3
# Si number density = 21.666982 Si / 1000 Ang^3
#
#
#
# Elastic Constant Matrix: (Units=GPa)
#
#
# Indices 1 2 3 4 5 6 
#
# 1 125.5731 49.0252 48.0354 0.0000 0.0000 0.0000
# 2 49.0252 157.6301 69.0144 0.0000 0.0000 0.0000
# 3 48.0354 69.0144 142.0563 0.0000 0.0000 0.0000
# 4 0.0000 0.0000 0.0000 22.2916 0.0000 0.0000
# 5 0.0000 0.0000 0.0000 0.0000 35.8963 0.0000
# 6 0.0000 0.0000 0.0000 0.0000 0.0000 -15.3356
#
#
#
# Elastic Compliance Matrix: (Units=1/GPa)
#
#
# Indices 1 2 3 4 5 6 
#
# 1 0.009614 -0.001990 -0.002284 0.000000 0.000000 0.000000
# 2 -0.001990 0.008470 -0.003442 0.000000 0.000000 0.000000
# 3 -0.002284 -0.003442 0.009484 0.000000 0.000000 0.000000
# 4 0.000000 0.000000 0.000000 0.044860 0.000000 0.000000
# 5 0.000000 0.000000 0.000000 0.000000 0.027858 0.000000
# 6 0.000000 0.000000 0.000000 0.000000 0.000000 -0.065208
#
#
# Mechanical properties :
#
#
# Convention : Reuss Voigt Hill
#
# Bulk Modulus (GPa) = 82.40128 84.15663 83.27895
# Shear Modulus (GPa) = 91.64913 25.84942 58.74928
#
# Velocity S-wave (km/s) = 6.51082 3.45778 5.21282
# Velocity P-wave (km/s) = 9.72802 7.40722 8.64585
#
# Compressibility (1/GPa) = 0.01213573
#
# Stress axis : x y z
#
# Youngs Moduli (GPa) = 104.01287 118.06539 105.44067
#
# Poissons Ratio (x) = 0.23496 0.24084
# Poissons Ratio (y) = 0.20700 0.36292
# Poissons Ratio (z) = 0.23758 0.40637
#
# Static dielectric constant tensor:
#      x y z
#    x 1.768140 0.000000 0.000000 
#    y 0.000000 1.966150 0.000000 
#    z 0.000000 0.000000 2.114470 
# 
# From -- ./inp_files/23395.got.cif
#   From: 2010.05.17/outbox.cif.g08.bks.cpg/sg22_12_cif.got.tgz:23395.got - 2010.06.03 23:40:54.
