data_PCOD9328211
_publ_section_title
;
Structure prediction by ZEFSAII (Michael W. Deem and Ramdas Pophale) SiO2 
 PCOD9328211
Probable space group: F 2 2 2
;
_chemical_formula_sum "Si O2"
_cell_formula_units_Z 120
_cell_length_a 22.048233
_cell_length_b 10.705201
_cell_length_c 24.369546
_cell_angle_alpha 90.000000
_cell_angle_beta 90.000000
_cell_angle_gamma 90.000000
_cell_volume 5751.962608
_symmetry_space_group_name_H-M "F 2 2 2"
_symmetry_group_IT_number 22
_symmetry_cell_setting 'orthorhombic'
loop_
_space_group_symop_operation_xyz
x,y,z
-x,-y,z
x,-y,-z
-x,y,-z
x,1/2+y,1/2+z
-x,1/2-y,1/2+z
x,1/2-y,1/2-z
-x,1/2+y,1/2-z
1/2+x,y,1/2+z
1/2-x,-y,1/2+z
1/2+x,-y,1/2-z
1/2-x,y,1/2-z
1/2+x,1/2+y,z
1/2-x,1/2-y,z
1/2+x,1/2-y,-z
1/2-x,1/2+y,-z
loop_
_atom_site_type_symbol
_atom_site_label
_atom_site_fract_x
_atom_site_fract_y
_atom_site_fract_z
Si Si1 0.580755 0.250259 0.872151
Si Si2 0.147840 0.509776 0.389221
Si Si3 0.349074 0.189111 0.807035
Si Si4 0.125664 0.750000 0.750000
Si Si5 0.681408 0.496123 0.234473
Si Si6 0.226942 0.621746 0.083889
Si Si7 0.941811 0.228882 0.113735
Si Si8 0.599287 0.510350 0.561774
O O1 0.623600 0.367654 0.890489
O O2 0.588386 0.230424 0.806410
O O3 0.512466 0.296285 0.883921
O O4 0.591570 0.118891 0.904255
O O5 0.161663 0.546402 0.325558
O O6 0.214147 0.533952 0.414130
O O7 0.098635 0.613203 0.409629
O O8 0.325825 0.250000 0.750000
O O9 0.302369 0.171662 0.857473
O O10 0.411398 0.247688 0.826983
O O11 0.360710 0.051622 0.783713
O O12 0.170932 0.640796 0.734296
O O13 0.750000 0.466487 0.250000
O O14 0.250000 0.750000 0.056214
O O15 0.170351 0.547856 0.059956
O O16 0.931443 0.364513 0.086283
O O17 0.576385 0.500000 0.500000
#
# Coordination Sequence:
#
# PCOD9328211 Si02
#       8
#    16  16  16   8  16  16  16  16
#     4  11  26  43  63  98 136 182 222 273 338 398
#     4  11  22  39  62  95 137 168 211 279 338 406
#     4  11  20  31  61  95 123 174 236 264 320 386
#     4  10  23  38  54  90 142 175 208 264 348 412
#     4  11  20  31  53  87 129 176 216 261 327 400
#     4  11  20  40  67  97 134 164 216 283 337 406
#     4  11  23  42  66  92 132 177 230 280 322 391
#     4  11  26  49  74  97 127 175 235 284 334 395
#
# _framework density 20.862445000000001
#
# number of rings (size 3 to 8) (size 9 to 14) (size 15 to 20)
#    0.000    1.067    5.333    2.600    0.933    1.600 
#    2.400    2.000    0.000    1.600    0.000    0.000 
#    0.000    0.000    0.000    0.000    0.000    0.000 
#
# Total GULP energy -167057.214642 kJ/mol
# GULP energy per Si atom -5568.573821 kJ/mol
# Density = 2.081496 g / cm^3
# Si number density = 20.862445 Si / 1000 Ang^3
#
#
#
# Elastic Constant Matrix: (Units=GPa)
#
#
# Indices 1 2 3 4 5 6 
#
# 1 113.7938 32.2839 10.0444 0.0000 0.0000 0.0000
# 2 32.2839 85.8179 32.1268 0.0000 0.0000 0.0000
# 3 10.0444 32.1268 60.7113 0.0000 0.0000 0.0000
# 4 0.0000 0.0000 0.0000 13.9393 0.0000 0.0000
# 5 0.0000 0.0000 0.0000 0.0000 2.9756 0.0000
# 6 0.0000 0.0000 0.0000 0.0000 0.0000 29.4462
#
#
#
# Elastic Compliance Matrix: (Units=1/GPa)
#
#
# Indices 1 2 3 4 5 6 
#
# 1 0.009846 -0.003859 0.000413 0.000000 0.000000 0.000000
# 2 -0.003859 0.016043 -0.007851 0.000000 0.000000 0.000000
# 3 0.000413 -0.007851 0.020558 0.000000 0.000000 0.000000
# 4 0.000000 0.000000 0.000000 0.071739 0.000000 0.000000
# 5 0.000000 0.000000 0.000000 0.000000 0.336072 0.000000
# 6 0.000000 0.000000 0.000000 0.000000 0.000000 0.033960
#
#
# Mechanical properties :
#
#
# Convention : Reuss Voigt Hill
#
# Bulk Modulus (GPa) = 41.92315 45.47037 43.69676
# Shear Modulus (GPa) = 9.63830 21.66339 15.65085
#
# Velocity S-wave (km/s) = 2.15173 3.22590 2.74194
# Velocity P-wave (km/s) = 5.12952 5.97645 5.56910
#
# Compressibility (1/GPa) = 0.02385317
#
# Stress axis : x y z
#
# Youngs Moduli (GPa) = 101.56334 62.33103 48.64324
#
# Poissons Ratio (x) = 0.24051 -0.02008
# Poissons Ratio (y) = 0.39189 0.38192
# Poissons Ratio (z) = -0.04193 0.48938
#
# Static dielectric constant tensor:
#      x y z
#    x 1.739480 0.000000 0.000000 
#    y 0.000000 1.904560 0.000000 
#    z 0.000000 0.000000 1.796840 
# 
# From -- ./inp_files/50008.got.cif
#   From: 2010.05.17/outbox.cif.g08.bks.cpg/sg22_26_cif.got.tgz:50008.got - 2010.06.03 23:40:54.
