data_PCOD9328108
_publ_section_title
;
Structure prediction by ZEFSAII (Michael W. Deem and Ramdas Pophale) SiO2 
 PCOD9328108
Probable space group: F 2 2 2
;
_chemical_formula_sum "Si O2"
_cell_formula_units_Z 92
_cell_length_a 24.535791
_cell_length_b 9.137050
_cell_length_c 17.520256
_cell_angle_alpha 90.000000
_cell_angle_beta 90.000000
_cell_angle_gamma 90.000000
_cell_volume 3927.774197
_symmetry_space_group_name_H-M "F 2 2 2"
_symmetry_group_IT_number 22
_symmetry_cell_setting 'orthorhombic'
loop_
_space_group_symop_operation_xyz
x,y,z
-x,-y,z
x,-y,-z
-x,y,-z
x,1/2+y,1/2+z
-x,1/2-y,1/2+z
x,1/2-y,1/2-z
-x,1/2+y,1/2-z
1/2+x,y,1/2+z
1/2-x,-y,1/2+z
1/2+x,-y,1/2-z
1/2-x,y,1/2-z
1/2+x,1/2+y,z
1/2-x,1/2-y,z
1/2+x,1/2-y,-z
1/2-x,1/2+y,-z
loop_
_atom_site_type_symbol
_atom_site_label
_atom_site_fract_x
_atom_site_fract_y
_atom_site_fract_z
Si Si1 0.500000 0.500000 0.403294
Si Si2 0.412869 0.697735 0.629192
Si Si3 0.197098 0.333040 0.589054
Si Si4 0.560403 0.528328 0.227343
Si Si5 0.926588 0.786524 0.891368
Si Si6 0.800264 0.839065 0.091287
Si Si7 0.000000 0.000000 0.000000
O O1 0.450640 0.389695 0.430010
O O2 0.459910 0.638029 0.381498
O O3 0.405785 0.593436 0.703104
O O4 0.442213 0.842367 0.664093
O O5 0.355676 0.750739 0.600364
O O6 0.250000 0.250000 0.621698
O O7 0.137261 0.260404 0.590983
O O8 0.192944 0.497070 0.622618
O O9 0.208859 0.351515 0.499114
O O10 0.500000 0.500000 0.260143
O O11 0.576329 0.381310 0.186141
O O12 0.959053 0.894583 0.950815
O O13 0.750000 0.750000 0.125634
#
# Coordination Sequence:
#
# PCOD9328108 Si02
#       7
#     8  16  16  16  16  16   4
#     4  12  26  38  64 108 139 175 230 292 348 426
#     4  11  23  40  67 101 132 179 232 283 348 421
#     4  10  23  43  68  96 137 192 226 285 361 422
#     4  11  21  42  66  93 136 181 225 274 358 427
#     4  12  25  42  67  99 145 181 233 288 359 431
#     4  10  22  43  70  98 134 179 241 290 347 423
#     4  12  24  44  68 100 142 190 228 302 378 406
#
# _framework density 23.422936
#
# number of rings (size 3 to 8) (size 9 to 14) (size 15 to 20)
#    0.000    1.043    5.217    1.043    4.870    1.043 
#    0.000    1.739    0.000    0.000    0.000    0.000 
#    0.000    0.000    0.000    0.000    0.000    0.000 
#
# Total GULP energy -128243.351699 kJ/mol
# GULP energy per Si atom -5575.797900 kJ/mol
# Density = 2.336962 g / cm^3
# Si number density = 23.422936 Si / 1000 Ang^3
#
#
#
# Elastic Constant Matrix: (Units=GPa)
#
#
# Indices 1 2 3 4 5 6 
#
# 1 192.0138 78.0094 8.5602 0.0000 0.0000 0.0000
# 2 78.0094 131.1643 35.3533 0.0000 0.0000 0.0000
# 3 8.5602 35.3533 45.6635 0.0000 0.0000 0.0000
# 4 0.0000 0.0000 0.0000 30.0857 0.0000 0.0000
# 5 0.0000 0.0000 0.0000 0.0000 -11.7439 0.0000
# 6 0.0000 0.0000 0.0000 0.0000 0.0000 58.7023
#
#
#
# Elastic Compliance Matrix: (Units=1/GPa)
#
#
# Indices 1 2 3 4 5 6 
#
# 1 0.007076 -0.004867 0.002441 0.000000 0.000000 0.000000
# 2 -0.004867 0.012981 -0.009138 0.000000 0.000000 0.000000
# 3 0.002441 -0.009138 0.028517 0.000000 0.000000 0.000000
# 4 0.000000 0.000000 0.000000 0.033238 0.000000 0.000000
# 5 0.000000 0.000000 0.000000 0.000000 -0.085151 0.000000
# 6 0.000000 0.000000 0.000000 0.000000 0.000000 0.017035
#
#
# Mechanical properties :
#
#
# Convention : Reuss Voigt Hill
#
# Bulk Modulus (GPa) = 39.29680 68.07638 53.68659
# Shear Modulus (GPa) = 110.36016 31.87009 71.11512
#
# Velocity S-wave (km/s) = 6.87158 3.69268 5.51609
# Velocity P-wave (km/s) = 8.93149 6.87810 7.97119
#
# Compressibility (1/GPa) = 0.02544737
#
# Stress axis : x y z
#
# Youngs Moduli (GPa) = 141.31740 77.03305 35.06734
#
# Poissons Ratio (x) = 0.37489 -0.08561
# Poissons Ratio (y) = 0.68773 0.32045
# Poissons Ratio (z) = -0.34499 0.70394
#
# Static dielectric constant tensor:
#      x y z
#    x 1.848930 0.000000 0.000000 
#    y 0.000000 1.891170 0.000000 
#    z 0.000000 0.000000 0.275550 
# 
# From -- ./inp_files/49837.got.cif
#   From: 2010.05.17/outbox.cif.g08.bks.cpg/sg22_25_cif.got.tgz:49837.got - 2010.06.03 23:40:54.
