data_PCOD9328478
_publ_section_title
;
Structure prediction by ZEFSAII (Michael W. Deem and Ramdas Pophale) SiO2 
 PCOD9328478
Probable space group: F 2 2 2
;
_chemical_formula_sum "Si O2"
_cell_formula_units_Z 96
_cell_length_a 15.801114
_cell_length_b 20.450722
_cell_length_c 13.045105
_cell_angle_alpha 90.000000
_cell_angle_beta 90.000000
_cell_angle_gamma 90.000000
_cell_volume 4215.449885
_symmetry_space_group_name_H-M "F 2 2 2"
_symmetry_group_IT_number 22
_symmetry_cell_setting 'orthorhombic'
loop_
_space_group_symop_operation_xyz
x,y,z
-x,-y,z
x,-y,-z
-x,y,-z
x,1/2+y,1/2+z
-x,1/2-y,1/2+z
x,1/2-y,1/2-z
-x,1/2+y,1/2-z
1/2+x,y,1/2+z
1/2-x,-y,1/2+z
1/2+x,-y,1/2-z
1/2-x,y,1/2-z
1/2+x,1/2+y,z
1/2-x,1/2-y,z
1/2+x,1/2-y,-z
1/2-x,1/2+y,-z
loop_
_atom_site_type_symbol
_atom_site_label
_atom_site_fract_x
_atom_site_fract_y
_atom_site_fract_z
Si Si1 0.845159 0.608478 0.217559
Si Si2 0.581009 0.657678 0.077302
Si Si3 0.813186 0.561349 0.553244
Si Si4 0.184277 0.148578 0.671270
Si Si5 0.597079 0.807170 0.027481
Si Si6 0.091520 0.471227 0.743089
O O1 0.750000 0.628302 0.250000
O O2 0.912905 0.632747 0.304978
O O3 0.867695 0.641184 0.109296
O O4 0.849028 0.529593 0.215238
O O5 0.599536 0.734761 0.075117
O O6 0.500000 0.649044 0.000000
O O7 0.653533 0.615293 0.023898
O O8 0.772196 0.500000 0.500000
O O9 0.746280 0.594671 0.624821
O O10 0.889998 0.533542 0.621762
O O11 0.250000 0.181474 0.750000
O O12 0.147936 0.191773 0.579742
O O13 0.110441 0.102400 0.718172
O O14 0.500000 0.822825 0.000000
O O15 0.000000 0.500000 0.766102
#
# Coordination Sequence:
#
# PCOD9328478 Si02
#       6
#    16  16  16  16  16  16
#     4  12  24  42  72 102 136 174 231 290 342 401
#     4  11  25  44  68 102 136 179 229 283 341 406
#     4  11  22  39  66  97 130 165 222 277 336 394
#     4  10  24  44  65  98 138 178 226 274 337 418
#     4  11  26  46  69  99 139 185 228 277 342 412
#     4  11  23  40  66 100 132 175 226 279 346 402
#
# _framework density 22.77337
#
# number of rings (size 3 to 8) (size 9 to 14) (size 15 to 20)
#    0.000    1.000    1.667    5.000    2.333    4.667 
#    0.000   10.833    0.000    0.000    0.000    0.000 
#    0.000    0.000    0.000    0.000    0.000    0.000 
#
# Total GULP energy -134098.621354 kJ/mol
# GULP energy per Si atom -5587.442556 kJ/mol
# Density = 2.272154 g / cm^3
# Si number density = 22.773370 Si / 1000 Ang^3
#
#
#
# Elastic Constant Matrix: (Units=GPa)
#
#
# Indices 1 2 3 4 5 6 
#
# 1 89.8191 10.8414 24.7339 0.0000 0.0000 0.0000
# 2 10.8414 81.7562 16.3771 0.0000 0.0000 0.0000
# 3 24.7339 16.3771 98.0835 0.0000 0.0000 0.0000
# 4 0.0000 0.0000 0.0000 23.4577 0.0000 0.0000
# 5 0.0000 0.0000 0.0000 0.0000 35.1007 0.0000
# 6 0.0000 0.0000 0.0000 0.0000 0.0000 -49.8877
#
#
#
# Elastic Compliance Matrix: (Units=1/GPa)
#
#
# Indices 1 2 3 4 5 6 
#
# 1 0.012046 -0.001023 -0.002867 0.000000 0.000000 0.000000
# 2 -0.001023 0.012742 -0.001869 0.000000 0.000000 0.000000
# 3 -0.002867 -0.001869 0.011231 0.000000 0.000000 0.000000
# 4 0.000000 0.000000 0.000000 0.042630 0.000000 0.000000
# 5 0.000000 0.000000 0.000000 0.000000 0.028489 0.000000
# 6 0.000000 0.000000 0.000000 0.000000 0.000000 -0.020045
#
#
# Mechanical properties :
#
#
# Convention : Reuss Voigt Hill
#
# Bulk Modulus (GPa) = 40.81719 41.50708 41.16213
# Shear Modulus (GPa) = 46.82584 16.24789 31.53686
#
# Velocity S-wave (km/s) = 4.53942 2.67397 3.72535
# Velocity P-wave (km/s) = 6.74071 5.27249 6.05130
#
# Compressibility (1/GPa) = 0.02449948
#
# Stress axis : x y z
#
# Youngs Moduli (GPa) = 83.01184 78.48278 89.04315
#
# Poissons Ratio (x) = 0.08030 0.25528
# Poissons Ratio (y) = 0.08493 0.16646
# Poissons Ratio (z) = 0.23799 0.14672
#
# Static dielectric constant tensor:
#      x y z
#    x 1.916190 0.000000 0.000000 
#    y 0.000000 1.815980 0.000000 
#    z 0.000000 0.000000 2.033610 
# 
# From -- ./inp_files/29392.got.cif
#   From: 2010.05.17/outbox.cif.g08.bks.cpg/sg22_15_cif.got.tgz:29392.got - 2010.06.03 23:40:54.
