data_PCOD9328232
_publ_section_title
;
Structure prediction by ZEFSAII (Michael W. Deem and Ramdas Pophale) SiO2 
 PCOD9328232
Probable space group: F 2 2 2
;
_chemical_formula_sum "Si O2"
_cell_formula_units_Z 88
_cell_length_a 19.441959
_cell_length_b 16.135919
_cell_length_c 13.180735
_cell_angle_alpha 90.000000
_cell_angle_beta 90.000000
_cell_angle_gamma 90.000000
_cell_volume 4134.979460
_symmetry_space_group_name_H-M "F 2 2 2"
_symmetry_group_IT_number 22
_symmetry_cell_setting 'orthorhombic'
loop_
_space_group_symop_operation_xyz
x,y,z
-x,-y,z
x,-y,-z
-x,y,-z
x,1/2+y,1/2+z
-x,1/2-y,1/2+z
x,1/2-y,1/2-z
-x,1/2+y,1/2-z
1/2+x,y,1/2+z
1/2-x,-y,1/2+z
1/2+x,-y,1/2-z
1/2-x,y,1/2-z
1/2+x,1/2+y,z
1/2-x,1/2-y,z
1/2+x,1/2-y,-z
1/2-x,1/2+y,-z
loop_
_atom_site_type_symbol
_atom_site_label
_atom_site_fract_x
_atom_site_fract_y
_atom_site_fract_z
Si Si1 0.879925 0.527599 0.882484
Si Si2 0.939965 0.112862 0.071698
Si Si3 0.000000 0.000000 0.248780
Si Si4 0.750000 0.025247 0.750000
Si Si5 0.250000 0.750000 0.057706
Si Si6 0.601645 0.780211 0.860951
Si Si7 0.295749 0.414569 0.042425
O O1 0.937665 0.473162 0.823188
O O2 0.809568 0.522868 0.813994
O O3 0.905548 0.623092 0.881496
O O4 0.875545 0.500000 0.000000
O O5 0.960632 0.067124 0.176658
O O6 0.937964 0.212578 0.073333
O O7 0.868003 0.089807 0.018106
O O8 0.000000 0.086160 0.000000
O O9 0.708363 0.076412 0.663799
O O10 0.318014 0.758619 0.123595
O O11 0.255420 0.667299 0.990480
O O12 0.582031 0.750000 0.750000
O O13 0.265524 0.500000 0.000000
#
# Coordination Sequence:
#
# PCOD9328232 Si02
#       7
#    16  16   8   8   8  16  16
#     4  12  27  45  68 102 143 183 230 289 354 419
#     4  11  23  42  70  96 132 174 234 285 336 406
#     4  12  24  44  68  96 132 186 224 288 346 416
#     4  12  24  41  73 100 138 180 226 279 350 419
#     4  10  23  39  68  96 140 168 218 296 328 406
#     4  11  23  41  64 101 130 177 230 277 348 413
#     4  11  23  42  65 102 132 176 229 278 343 407
#
# _framework density 21.281848
#
# number of rings (size 3 to 8) (size 9 to 14) (size 15 to 20)
#    0.000    0.727    1.818    6.818    5.091    1.818 
#    0.000    0.000    0.000    0.000    0.000    0.000 
#    0.000    0.000    0.000    0.000    0.000    0.000 
#
# Total GULP energy -122611.913711 kJ/mol
# GULP energy per Si atom -5573.268805 kJ/mol
# Density = 2.123341 g / cm^3
# Si number density = 21.281848 Si / 1000 Ang^3
#
#
#
# Elastic Constant Matrix: (Units=GPa)
#
#
# Indices 1 2 3 4 5 6 
#
# 1 111.1342 23.9031 49.0270 0.0000 0.0000 0.0000
# 2 23.9031 143.3999 40.7834 0.0000 0.0000 0.0000
# 3 49.0270 40.7834 134.4553 0.0000 0.0000 0.0000
# 4 0.0000 0.0000 0.0000 35.2783 0.0000 0.0000
# 5 0.0000 0.0000 0.0000 0.0000 27.1838 0.0000
# 6 0.0000 0.0000 0.0000 0.0000 0.0000 -74.9603
#
#
#
# Elastic Compliance Matrix: (Units=1/GPa)
#
#
# Indices 1 2 3 4 5 6 
#
# 1 0.010795 -0.000744 -0.003711 0.000000 0.000000 0.000000
# 2 -0.000744 0.007683 -0.002059 0.000000 0.000000 0.000000
# 3 -0.003711 -0.002059 0.009415 0.000000 0.000000 0.000000
# 4 0.000000 0.000000 0.000000 0.028346 0.000000 0.000000
# 5 0.000000 0.000000 0.000000 0.000000 0.036787 0.000000
# 6 0.000000 0.000000 0.000000 0.000000 0.000000 -0.013340
#
#
# Mechanical properties :
#
#
# Convention : Reuss Voigt Hill
#
# Bulk Modulus (GPa) = 67.26934 68.49070 67.88002
# Shear Modulus (GPa) = 51.19367 15.85210 33.52288
#
# Velocity S-wave (km/s) = 4.90992 2.73218 3.97317
# Velocity P-wave (km/s) = 7.98877 6.49659 7.28101
#
# Compressibility (1/GPa) = 0.01486561
#
# Stress axis : x y z
#
# Youngs Moduli (GPa) = 92.63471 130.15459 106.21358
#
# Poissons Ratio (x) = 0.09685 0.39411
# Poissons Ratio (y) = 0.06893 0.21871
# Poissons Ratio (z) = 0.34373 0.26801
#
# Static dielectric constant tensor:
#      x y z
#    x 1.687480 0.000000 0.000000 
#    y 0.000000 1.811150 0.000000 
#    z 0.000000 0.000000 2.075840 
# 
# From -- ./inp_files/22659.got.cif
#   From: 2010.05.17/outbox.cif.g08.bks.cpg/sg22_12_cif.got.tgz:22659.got - 2010.06.03 23:40:54.
