data_PCOD9328724
_publ_section_title
;
Structure prediction by ZEFSAII (Michael W. Deem and Ramdas Pophale) SiO2 
 PCOD9328724
Probable space group: F 2 2 2
;
_chemical_formula_sum "Si O2"
_cell_formula_units_Z 52
_cell_length_a 11.789211
_cell_length_b 8.453974
_cell_length_c 19.670767
_cell_angle_alpha 90.000000
_cell_angle_beta 90.000000
_cell_angle_gamma 90.000000
_cell_volume 1960.500434
_symmetry_space_group_name_H-M "F 2 2 2"
_symmetry_group_IT_number 22
_symmetry_cell_setting 'orthorhombic'
loop_
_space_group_symop_operation_xyz
x,y,z
-x,-y,z
x,-y,-z
-x,y,-z
x,1/2+y,1/2+z
-x,1/2-y,1/2+z
x,1/2-y,1/2-z
-x,1/2+y,1/2-z
1/2+x,y,1/2+z
1/2-x,-y,1/2+z
1/2+x,-y,1/2-z
1/2-x,y,1/2-z
1/2+x,1/2+y,z
1/2-x,1/2-y,z
1/2+x,1/2-y,-z
1/2-x,1/2+y,-z
loop_
_atom_site_type_symbol
_atom_site_label
_atom_site_fract_x
_atom_site_fract_y
_atom_site_fract_z
Si Si1 0.359097 0.511939 0.786435
Si Si2 0.500000 0.000000 0.500000
Si Si3 0.945673 0.756179 0.106518
Si Si4 0.654938 0.427801 0.357839
O O1 0.250000 0.592700 0.750000
O O2 0.435330 0.637372 0.825238
O O3 0.398028 0.420100 0.719053
O O4 0.288918 0.408596 0.842243
O O5 0.427589 0.882564 0.547255
O O6 0.862936 0.606441 0.113556
O O7 0.070484 0.679397 0.098677
#
# Coordination Sequence:
#
# PCOD9328724 Si02
#       4
#    16   4  16  16
#     4   8  19  39  72 113 130 165 223 302 374 424
#     4  12  32  38  60  92 148 204 256 262 332 430
#     4  11  20  43  61  98 138 188 231 284 340 426
#     4   8  20  36  74 100 132 173 227 300 367 411
#
# _framework density 26.523841999999998
#
# number of rings (size 3 to 8) (size 9 to 14) (size 15 to 20)
#    1.846    0.615    0.000    1.846    4.308    7.385 
#    0.000    7.692    6.769    0.000    0.000    0.000 
#    0.000    0.000    0.000    0.000    0.000    0.000 
#
# Total GULP energy -72420.744816 kJ/mol
# GULP energy per Si atom -5570.826524 kJ/mol
# Density = 2.646347 g / cm^3
# Si number density = 26.523842 Si / 1000 Ang^3
#
#
#
# Elastic Constant Matrix: (Units=GPa)
#
#
# Indices 1 2 3 4 5 6 
#
# 1 61.2072 21.5537 -1.2951 0.0000 0.0000 0.0000
# 2 21.5537 132.2858 44.3966 0.0000 0.0000 0.0000
# 3 -1.2951 44.3966 100.2507 0.0000 0.0000 0.0000
# 4 0.0000 0.0000 0.0000 56.1993 0.0000 0.0000
# 5 0.0000 0.0000 0.0000 0.0000 22.0862 0.0000
# 6 0.0000 0.0000 0.0000 0.0000 0.0000 40.7196
#
#
#
# Elastic Compliance Matrix: (Units=1/GPa)
#
#
# Indices 1 2 3 4 5 6 
#
# 1 0.017592 -0.003456 0.001758 0.000000 0.000000 0.000000
# 2 -0.003456 0.009558 -0.004278 0.000000 0.000000 0.000000
# 3 0.001758 -0.004278 0.011892 0.000000 0.000000 0.000000
# 4 0.000000 0.000000 0.000000 0.017794 0.000000 0.000000
# 5 0.000000 0.000000 0.000000 0.000000 0.045277 0.000000
# 6 0.000000 0.000000 0.000000 0.000000 0.000000 0.024558
#
#
# Mechanical properties :
#
#
# Convention : Reuss Voigt Hill
#
# Bulk Modulus (GPa) = 36.91323 47.00602 41.95963
# Shear Modulus (GPa) = 33.86302 39.07358 36.46830
#
# Velocity S-wave (km/s) = 3.57697 3.84233 3.71202
# Velocity P-wave (km/s) = 5.56838 6.11925 5.85030
#
# Compressibility (1/GPa) = 0.02709055
#
# Stress axis : x y z
#
# Youngs Moduli (GPa) = 56.84312 104.62304 84.09000
#
# Poissons Ratio (x) = 0.36161 -0.14782
# Poissons Ratio (y) = 0.19647 0.35970
# Poissons Ratio (z) = -0.09993 0.44753
#
# Static dielectric constant tensor:
#      x y z
#    x 2.231090 0.000000 0.000000 
#    y 0.000000 2.166860 0.000000 
#    z 0.000000 0.000000 2.177460 
# 
# From -- ./inp_files/43161.got.cif
#   From: 2010.05.17/outbox.cif.g08.bks.cpg/sg22_22_cif.got.tgz:43161.got - 2010.06.03 23:40:54.
