data_PCOD9328538
_publ_section_title
;
Structure prediction by ZEFSAII (Michael W. Deem and Ramdas Pophale) SiO2 
 PCOD9328538
Probable space group: F 2 2 2
;
_chemical_formula_sum "Si O2"
_cell_formula_units_Z 64
_cell_length_a 12.418037
_cell_length_b 8.636509
_cell_length_c 25.769093
_cell_angle_alpha 90.000000
_cell_angle_beta 90.000000
_cell_angle_gamma 90.000000
_cell_volume 2763.696269
_symmetry_space_group_name_H-M "F 2 2 2"
_symmetry_group_IT_number 22
_symmetry_cell_setting 'orthorhombic'
loop_
_space_group_symop_operation_xyz
x,y,z
-x,-y,z
x,-y,-z
-x,y,-z
x,1/2+y,1/2+z
-x,1/2-y,1/2+z
x,1/2-y,1/2-z
-x,1/2+y,1/2-z
1/2+x,y,1/2+z
1/2-x,-y,1/2+z
1/2+x,-y,1/2-z
1/2-x,y,1/2-z
1/2+x,1/2+y,z
1/2-x,1/2-y,z
1/2+x,1/2-y,-z
1/2-x,1/2+y,-z
loop_
_atom_site_type_symbol
_atom_site_label
_atom_site_fract_x
_atom_site_fract_y
_atom_site_fract_z
Si Si1 0.557770 0.250000 0.250000
Si Si2 0.000000 0.000000 0.412952
Si Si3 0.121314 0.843061 0.665577
Si Si4 0.750000 0.750000 0.421829
Si Si5 0.313447 0.000000 0.500000
Si Si6 0.750000 0.009508 0.250000
Si Si7 0.000000 0.243749 0.000000
O O1 0.477220 0.211390 0.202095
O O2 0.642354 0.110662 0.260844
O O3 0.095542 0.008589 0.371074
O O4 0.006383 0.145357 0.450533
O O5 0.154320 0.724423 0.620003
O O6 0.215200 0.902446 0.702693
O O7 0.744210 0.595078 0.457490
O O8 0.397379 0.862921 0.486942
#
# Coordination Sequence:
#
# PCOD9328538 Si02
#       7
#     8   8  16   8   8   8   8
#     4  11  24  45  72 108 154 189 248 311 370 454
#     4  11  22  44  78 102 148 206 234 309 384 432
#     4  12  24  46  72 105 149 197 248 306 377 445
#     4  12  28  45  72 106 146 201 248 310 382 450
#     4  11  26  46  68 105 146 190 256 315 369 454
#     4  11  24  45  72 110 144 194 246 306 374 456
#     4  10  24  48  72 104 148 194 258 314 370 452
#
# _framework density 23.157394
#
# number of rings (size 3 to 8) (size 9 to 14) (size 15 to 20)
#    0.000    0.750    5.000    1.500    3.500    2.000 
#    0.000    0.000    0.000    0.000    0.000    0.000 
#    0.000    0.000    0.000    0.000    0.000    0.000 
#
# Total GULP energy -89094.530711 kJ/mol
# GULP energy per Si atom -5568.408169 kJ/mol
# Density = 2.310469 g / cm^3
# Si number density = 23.157394 Si / 1000 Ang^3
#
#
#
# Elastic Constant Matrix: (Units=GPa)
#
#
# Indices 1 2 3 4 5 6 
#
# 1 133.8194 62.8420 93.4930 0.0000 0.0000 0.0000
# 2 62.8420 140.4473 98.8362 0.0000 0.0000 0.0000
# 3 93.4930 98.8362 207.0715 0.0000 0.0000 0.0000
# 4 0.0000 0.0000 0.0000 16.3561 0.0000 0.0000
# 5 0.0000 0.0000 0.0000 0.0000 35.9862 0.0000
# 6 0.0000 0.0000 0.0000 0.0000 0.0000 19.0552
#
#
#
# Elastic Compliance Matrix: (Units=1/GPa)
#
#
# Indices 1 2 3 4 5 6 
#
# 1 0.011357 -0.002218 -0.004069 0.000000 0.000000 0.000000
# 2 -0.002218 0.011155 -0.004323 0.000000 0.000000 0.000000
# 3 -0.004069 -0.004323 0.008730 0.000000 0.000000 0.000000
# 4 0.000000 0.000000 0.000000 0.061139 0.000000 0.000000
# 5 0.000000 0.000000 0.000000 0.000000 0.027788 0.000000
# 6 0.000000 0.000000 0.000000 0.000000 0.000000 0.052479
#
#
# Mechanical properties :
#
#
# Convention : Reuss Voigt Hill
#
# Bulk Modulus (GPa) = 99.78332 110.18675 104.98503
# Shear Modulus (GPa) = 25.35387 29.35730 27.35558
#
# Velocity S-wave (km/s) = 3.31244 3.56438 3.44072
# Velocity P-wave (km/s) = 7.60345 8.03895 7.82423
#
# Compressibility (1/GPa) = 0.01002171
#
# Stress axis : x y z
#
# Youngs Moduli (GPa) = 88.04916 89.64955 114.55257
#
# Poissons Ratio (x) = 0.19886 0.46612
# Poissons Ratio (y) = 0.19531 0.49516
# Poissons Ratio (z) = 0.35828 0.38752
#
# Static dielectric constant tensor:
#      x y z
#    x 2.124410 0.000000 0.000000 
#    y 0.000000 1.955740 0.000000 
#    z 0.000000 0.000000 1.852770 
# 
# From -- ./inp_files/48659.got.cif
#   From: 2010.05.17/outbox.cif.g08.bks.cpg/sg22_25_cif.got.tgz:48659.got - 2010.06.03 23:40:54.
