data_PCOD9328782
_publ_section_title
;
Structure prediction by ZEFSAII (Michael W. Deem and Ramdas Pophale) SiO2 
 PCOD9328782
Probable space group: F 2 2 2
;
_chemical_formula_sum "Si O2"
_cell_formula_units_Z 88
_cell_length_a 20.389546
_cell_length_b 15.841456
_cell_length_c 11.606442
_cell_angle_alpha 90.000000
_cell_angle_beta 90.000000
_cell_angle_gamma 90.000000
_cell_volume 3748.881878
_symmetry_space_group_name_H-M "F 2 2 2"
_symmetry_group_IT_number 22
_symmetry_cell_setting 'orthorhombic'
loop_
_space_group_symop_operation_xyz
x,y,z
-x,-y,z
x,-y,-z
-x,y,-z
x,1/2+y,1/2+z
-x,1/2-y,1/2+z
x,1/2-y,1/2-z
-x,1/2+y,1/2-z
1/2+x,y,1/2+z
1/2-x,-y,1/2+z
1/2+x,-y,1/2-z
1/2-x,y,1/2-z
1/2+x,1/2+y,z
1/2-x,1/2-y,z
1/2+x,1/2-y,-z
1/2-x,1/2+y,-z
loop_
_atom_site_type_symbol
_atom_site_label
_atom_site_fract_x
_atom_site_fract_y
_atom_site_fract_z
Si Si1 0.859766 0.617209 0.261174
Si Si2 0.434020 0.450563 0.823665
Si Si3 0.183662 0.898103 0.510548
Si Si4 0.324667 0.101404 0.512185
Si Si5 0.549896 0.844851 0.906180
Si Si6 0.973634 0.250000 0.750000
O O1 0.883837 0.521903 0.279188
O O2 0.815250 0.620986 0.147821
O O3 0.833352 0.642424 0.386598
O O4 0.924029 0.672528 0.241578
O O5 0.500000 0.500000 0.865444
O O6 0.391135 0.395466 0.913552
O O7 0.450669 0.397790 0.710952
O O8 0.251744 0.872972 0.448519
O O9 0.122260 0.848520 0.457416
O O10 0.172095 0.000000 0.500000
O O11 0.316570 0.000000 0.500000
O O12 0.518921 0.756663 0.862962
O O13 0.500000 0.881500 0.000000
#
# Coordination Sequence:
#
# PCOD9328782 Si02
#       6
#    16  16  16  16  16   8
#     4  11  22  42  66  97 133 177 223 279 343 408
#     4  11  21  42  68 101 134 171 225 288 340 406
#     4  11  21  42  73 100 132 167 230 290 338 415
#     4   9  23  39  66 104 135 173 216 281 355 407
#     4  12  25  42  70  99 130 175 230 282 346 401
#     4  12  26  40  63  95 134 176 222 284 332 416
#
# _framework density 23.473666999999999
#
# number of rings (size 3 to 8) (size 9 to 14) (size 15 to 20)
#    0.000    1.091    5.455    0.545    0.000    5.455 
#    0.000    1.818    0.000    1.091    0.000    0.000 
#    0.000    0.000    0.000    0.000    0.000    0.000 
#
# Total GULP energy -122790.137002 kJ/mol
# GULP energy per Si atom -5581.369864 kJ/mol
# Density = 2.342024 g / cm^3
# Si number density = 23.473667 Si / 1000 Ang^3
#
#
#
# Elastic Constant Matrix: (Units=GPa)
#
#
# Indices 1 2 3 4 5 6 
#
# 1 189.8681 11.8875 82.6619 0.0000 0.0000 0.0000
# 2 11.8875 26.1986 20.7121 0.0000 0.0000 0.0000
# 3 82.6619 20.7121 146.2053 0.0000 0.0000 0.0000
# 4 0.0000 0.0000 0.0000 25.4093 0.0000 0.0000
# 5 0.0000 0.0000 0.0000 0.0000 34.0786 0.0000
# 6 0.0000 0.0000 0.0000 0.0000 0.0000 8.4079
#
#
#
# Elastic Compliance Matrix: (Units=1/GPa)
#
#
# Indices 1 2 3 4 5 6 
#
# 1 0.006987 -0.000053 -0.003943 0.000000 0.000000 0.000000
# 2 -0.000053 0.042984 -0.006059 0.000000 0.000000 0.000000
# 3 -0.003943 -0.006059 0.009927 0.000000 0.000000 0.000000
# 4 0.000000 0.000000 0.000000 0.039356 0.000000 0.000000
# 5 0.000000 0.000000 0.000000 0.000000 0.029344 0.000000
# 6 0.000000 0.000000 0.000000 0.000000 0.000000 0.118936
#
#
# Mechanical properties :
#
#
# Convention : Reuss Voigt Hill
#
# Bulk Modulus (GPa) = 25.13316 65.86610 45.49963
# Shear Modulus (GPa) = 17.79952 30.04654 23.92303
#
# Velocity S-wave (km/s) = 2.75667 3.58160 3.19587
# Velocity P-wave (km/s) = 4.56755 6.72490 5.74834
#
# Compressibility (1/GPa) = 0.03978807
#
# Stress axis : x y z
#
# Youngs Moduli (GPa) = 143.13115 23.26423 100.73405
#
# Poissons Ratio (x) = 0.00124 0.39715
# Poissons Ratio (y) = 0.00762 0.61037
# Poissons Ratio (z) = 0.56430 0.14096
#
# Static dielectric constant tensor:
#      x y z
#    x 1.951140 0.000000 0.000000 
#    y 0.000000 1.946810 0.000000 
#    z 0.000000 0.000000 1.905060 
# 
# From -- ./inp_files/22598.got.cif
#   From: 2010.05.17/outbox.cif.g08.bks.cpg/sg22_12_cif.got.tgz:22598.got - 2010.06.03 23:40:54.
