data_PCOD9328728
_publ_section_title
;
Structure prediction by ZEFSAII (Michael W. Deem and Ramdas Pophale) SiO2 
 PCOD9328728
Probable space group: F 2 2 2
;
_chemical_formula_sum "Si O2"
_cell_formula_units_Z 104
_cell_length_a 19.297609
_cell_length_b 14.146117
_cell_length_c 17.721925
_cell_angle_alpha 90.000000
_cell_angle_beta 90.000000
_cell_angle_gamma 90.000000
_cell_volume 4837.841578
_symmetry_space_group_name_H-M "F 2 2 2"
_symmetry_group_IT_number 22
_symmetry_cell_setting 'orthorhombic'
loop_
_space_group_symop_operation_xyz
x,y,z
-x,-y,z
x,-y,-z
-x,y,-z
x,1/2+y,1/2+z
-x,1/2-y,1/2+z
x,1/2-y,1/2-z
-x,1/2+y,1/2-z
1/2+x,y,1/2+z
1/2-x,-y,1/2+z
1/2+x,-y,1/2-z
1/2-x,y,1/2-z
1/2+x,1/2+y,z
1/2-x,1/2-y,z
1/2+x,1/2-y,-z
1/2-x,1/2+y,-z
loop_
_atom_site_type_symbol
_atom_site_label
_atom_site_fract_x
_atom_site_fract_y
_atom_site_fract_z
Si Si1 0.053688 0.410788 0.639373
Si Si2 0.584970 0.189769 0.895824
Si Si3 0.211978 0.027788 0.828381
Si Si4 0.651121 0.507799 0.589045
Si Si5 0.000000 0.716180 0.500000
Si Si6 0.688013 0.192517 0.672680
Si Si7 0.462453 0.601944 0.308957
O O1 0.136677 0.436133 0.642964
O O2 0.029274 0.347997 0.568370
O O3 0.047471 0.366297 0.723223
O O4 0.000000 0.500000 0.637686
O O5 0.633742 0.099389 0.883200
O O6 0.618747 0.287565 0.871328
O O7 0.515651 0.169147 0.850558
O O8 0.561780 0.211376 0.979774
O O9 0.250000 0.063816 0.750000
O O10 0.269998 0.034434 0.893191
O O11 0.200462 0.916097 0.814307
O O12 0.635826 0.500000 0.500000
O O13 0.603882 0.578252 0.639019
O O14 0.679135 0.250000 0.750000
O O15 0.750000 0.250000 0.632441
O O16 0.500000 0.500000 0.304634
#
# Coordination Sequence:
#
# PCOD9328728 Si02
#       7
#    16  16  16  16   8  16  16
#     4  11  25  43  66  94 136 182 230 272 337 426
#     4  11  23  41  63  95 133 169 216 286 339 403
#     4  12  22  42  66  98 136 173 222 283 344 414
#     4  11  22  39  67 100 128 172 227 287 350 406
#     4  12  27  42  63  96 138 186 230 272 333 414
#     4  11  21  34  62  96 126 152 205 275 343 392
#     4   9  21  39  66  96 129 174 218 277 348 413
#
# _framework density 21.49719
#
# number of rings (size 3 to 8) (size 9 to 14) (size 15 to 20)
#    0.000    1.077    4.615    2.077    6.462    4.615 
#    0.000    0.000    0.000    0.000    0.000    0.000 
#    0.000    0.000    0.000    0.000    0.000    0.000 
#
# Total GULP energy -144911.780834 kJ/mol
# GULP energy per Si atom -5573.530032 kJ/mol
# Density = 2.144826 g / cm^3
# Si number density = 21.497190 Si / 1000 Ang^3
#
#
#
# Elastic Constant Matrix: (Units=GPa)
#
#
# Indices 1 2 3 4 5 6 
#
# 1 142.2691 31.7733 43.8237 0.0000 0.0000 0.0000
# 2 31.7733 39.7375 21.8343 0.0000 0.0000 0.0000
# 3 43.8237 21.8343 109.1069 0.0000 0.0000 0.0000
# 4 0.0000 0.0000 0.0000 30.4989 0.0000 0.0000
# 5 0.0000 0.0000 0.0000 0.0000 40.6694 0.0000
# 6 0.0000 0.0000 0.0000 0.0000 0.0000 44.3249
#
#
#
# Elastic Compliance Matrix: (Units=1/GPa)
#
#
# Indices 1 2 3 4 5 6 
#
# 1 0.009115 -0.005929 -0.002475 0.000000 0.000000 0.000000
# 2 -0.005929 0.032130 -0.004049 0.000000 0.000000 0.000000
# 3 -0.002475 -0.004049 0.010970 0.000000 0.000000 0.000000
# 4 0.000000 0.000000 0.000000 0.032788 0.000000 0.000000
# 5 0.000000 0.000000 0.000000 0.000000 0.024589 0.000000
# 6 0.000000 0.000000 0.000000 0.000000 0.000000 0.022561
#
#
# Mechanical properties :
#
#
# Convention : Reuss Voigt Hill
#
# Bulk Modulus (GPa) = 36.61531 53.99735 45.30633
# Shear Modulus (GPa) = 30.09151 36.01078 33.05114
#
# Velocity S-wave (km/s) = 3.74543 4.09729 3.92530
# Velocity P-wave (km/s) = 5.98113 6.89612 6.45486
#
# Compressibility (1/GPa) = 0.02731098
#
# Stress axis : x y z
#
# Youngs Moduli (GPa) = 109.70561 31.12349 91.16144
#
# Poissons Ratio (x) = 0.18452 0.22561
# Poissons Ratio (y) = 0.65040 0.36907
# Poissons Ratio (z) = 0.27150 0.12601
#
# Static dielectric constant tensor:
#      x y z
#    x 1.889160 0.000000 0.000000 
#    y 0.000000 1.760340 0.000000 
#    z 0.000000 0.000000 1.763820 
# 
# From -- ./inp_files/38118.got.cif
#   From: 2010.05.17/outbox.cif.g08.bks.cpg/sg22_20_cif.got.tgz:38118.got - 2010.06.03 23:40:54.
