data_PCOD9328299
_publ_section_title
;
Structure prediction by ZEFSAII (Michael W. Deem and Ramdas Pophale) SiO2 
 PCOD9328299
Probable space group: F 2 2 2
;
_chemical_formula_sum "Si O2"
_cell_formula_units_Z 108
_cell_length_a 15.495488
_cell_length_b 23.491682
_cell_length_c 13.510377
_cell_angle_alpha 90.000000
_cell_angle_beta 90.000000
_cell_angle_gamma 90.000000
_cell_volume 4917.980918
_symmetry_space_group_name_H-M "F 2 2 2"
_symmetry_group_IT_number 22
_symmetry_cell_setting 'orthorhombic'
loop_
_space_group_symop_operation_xyz
x,y,z
-x,-y,z
x,-y,-z
-x,y,-z
x,1/2+y,1/2+z
-x,1/2-y,1/2+z
x,1/2-y,1/2-z
-x,1/2+y,1/2-z
1/2+x,y,1/2+z
1/2-x,-y,1/2+z
1/2+x,-y,1/2-z
1/2-x,y,1/2-z
1/2+x,1/2+y,z
1/2-x,1/2-y,z
1/2+x,1/2-y,-z
1/2-x,1/2+y,-z
loop_
_atom_site_type_symbol
_atom_site_label
_atom_site_fract_x
_atom_site_fract_y
_atom_site_fract_z
Si Si1 0.652148 0.767735 0.963299
Si Si2 0.907076 0.342984 0.541390
Si Si3 0.823084 0.427053 0.825757
Si Si4 0.025513 0.130938 0.247149
Si Si5 0.115488 0.050059 0.672833
Si Si6 0.070839 0.750000 0.250000
Si Si7 0.500000 0.000000 0.000000
Si Si8 0.726624 0.611681 0.531204
O O1 0.750000 0.750000 0.980761
O O2 0.625235 0.751865 0.851386
O O3 0.599028 0.726220 0.035986
O O4 0.658863 0.835393 0.975641
O O5 0.914149 0.368720 0.650137
O O6 0.824828 0.365834 0.480194
O O7 0.000000 0.358892 0.500000
O O8 0.750000 0.406857 0.750000
O O9 0.905858 0.386192 0.829842
O O10 0.857629 0.488129 0.789119
O O11 0.786460 0.429002 0.936615
O O12 0.945591 0.086934 0.255646
O O13 0.985926 0.193302 0.252799
O O14 0.058995 0.037133 0.573632
O O15 0.200632 0.082069 0.633534
#
# Coordination Sequence:
#
# PCOD9328299 Si02
#       8
#    16  16  16  16  16   8   4  16
#     4  10  23  42  68 101 140 185 236 295 359 429
#     4  11  24  44  66  97 148 187 232 288 364 443
#     4  12  25  44  68 100 142 183 245 294 354 433
#     4  12  25  43  69 104 141 185 231 295 361 434
#     4  12  23  44  74 102 137 181 244 302 362 421
#     4  12  23  42  71 106 138 180 238 292 365 423
#     4  12  20  40  72 104 124 168 228 316 358 404
#     4  11  23  44  72 101 138 190 235 301 364 430
#
# _framework density 21.960231
#
# number of rings (size 3 to 8) (size 9 to 14) (size 15 to 20)
#    0.000    0.593    7.407    0.222    2.074    1.185 
#    1.333    0.370    0.000    0.000    0.000    0.000 
#    0.000    0.000    0.000    0.000    0.000    0.000 
#
# Total GULP energy -150714.749725 kJ/mol
# GULP energy per Si atom -5582.027768 kJ/mol
# Density = 2.191025 g / cm^3
# Si number density = 21.960231 Si / 1000 Ang^3
#
#
#
# Elastic Constant Matrix: (Units=GPa)
#
#
# Indices 1 2 3 4 5 6 
#
# 1 48.0509 -8.0256 8.0659 0.0000 0.0000 0.0000
# 2 -8.0256 70.3743 2.3954 0.0000 0.0000 0.0000
# 3 8.0659 2.3954 54.3122 0.0000 0.0000 0.0000
# 4 0.0000 0.0000 0.0000 31.9229 0.0000 0.0000
# 5 0.0000 0.0000 0.0000 0.0000 41.1848 0.0000
# 6 0.0000 0.0000 0.0000 0.0000 0.0000 -104.4048
#
#
#
# Elastic Compliance Matrix: (Units=1/GPa)
#
#
# Indices 1 2 3 4 5 6 
#
# 1 0.021809 0.002601 -0.003354 0.000000 0.000000 0.000000
# 2 0.002601 0.014541 -0.001028 0.000000 0.000000 0.000000
# 3 -0.003354 -0.001028 0.018955 0.000000 0.000000 0.000000
# 4 0.000000 0.000000 0.000000 0.031326 0.000000 0.000000
# 5 0.000000 0.000000 0.000000 0.000000 0.024281 0.000000
# 6 0.000000 0.000000 0.000000 0.000000 0.000000 -0.009578
#
#
# Mechanical properties :
#
#
# Convention : Reuss Voigt Hill
#
# Bulk Modulus (GPa) = 19.32531 19.73431 19.52981
# Shear Modulus (GPa) = 40.93597 5.09403 23.01500
#
# Velocity S-wave (km/s) = 4.32220 1.52470 3.24084
# Velocity P-wave (km/s) = 5.80756 3.47929 4.78713
#
# Compressibility (1/GPa) = 0.05174560
#
# Stress axis : x y z
#
# Youngs Moduli (GPa) = 45.85335 68.76940 52.75536
#
# Poissons Ratio (x) = -0.17889 0.17692
# Poissons Ratio (y) = -0.11928 0.05421
# Poissons Ratio (z) = 0.15377 0.07067
#
# Static dielectric constant tensor:
#      x y z
#    x 1.838540 0.000000 0.000000 
#    y 0.000000 1.848290 0.000000 
#    z 0.000000 0.000000 1.970390 
# 
# From -- ./inp_files/29683.got.cif
#   From: 2010.05.17/outbox.cif.g08.bks.cpg/sg22_15_cif.got.tgz:29683.got - 2010.06.03 23:40:54.
