data_PCOD9328094
_publ_section_title
;
Structure prediction by ZEFSAII (Michael W. Deem and Ramdas Pophale) SiO2 
 PCOD9328094
Probable space group: F 2 2 2
;
_chemical_formula_sum "Si O2"
_cell_formula_units_Z 88
_cell_length_a 18.235504
_cell_length_b 16.670705
_cell_length_c 12.376796
_cell_angle_alpha 90.000000
_cell_angle_beta 90.000000
_cell_angle_gamma 90.000000
_cell_volume 3762.529990
_symmetry_space_group_name_H-M "F 2 2 2"
_symmetry_group_IT_number 22
_symmetry_cell_setting 'orthorhombic'
loop_
_space_group_symop_operation_xyz
x,y,z
-x,-y,z
x,-y,-z
-x,y,-z
x,1/2+y,1/2+z
-x,1/2-y,1/2+z
x,1/2-y,1/2-z
-x,1/2+y,1/2-z
1/2+x,y,1/2+z
1/2-x,-y,1/2+z
1/2+x,-y,1/2-z
1/2-x,y,1/2-z
1/2+x,1/2+y,z
1/2-x,1/2-y,z
1/2+x,1/2-y,-z
1/2-x,1/2+y,-z
loop_
_atom_site_type_symbol
_atom_site_label
_atom_site_fract_x
_atom_site_fract_y
_atom_site_fract_z
Si Si1 0.111458 0.655929 0.068825
Si Si2 0.432203 0.339626 0.787237
Si Si3 0.914439 0.999038 0.870332
Si Si4 0.250000 0.750000 0.024541
Si Si5 0.289726 0.388127 0.142114
Si Si6 0.805772 0.500000 0.000000
Si Si7 0.500000 0.226360 0.500000
O O1 0.053739 0.634008 0.164032
O O2 0.142377 0.573472 0.027305
O O3 0.186897 0.705622 0.091737
O O4 0.069243 0.715127 0.988234
O O5 0.408424 0.250000 0.750000
O O6 0.383001 0.413241 0.830009
O O7 0.484454 0.323665 0.890762
O O8 0.869465 0.075928 0.831983
O O9 0.000000 0.000000 0.836679
O O10 0.912046 0.000000 0.000000
O O11 0.285647 0.681319 0.947605
O O12 0.250000 0.359613 0.250000
O O13 0.246257 0.465304 0.094139
#
# Coordination Sequence:
#
# PCOD9328094 Si02
#       7
#    16  16  16   8  16   8   8
#     4  10  23  45  72 103 142 192 244 305 381 446
#     4  10  23  43  68 104 141 189 243 305 383 442
#     4  11  24  42  72 106 148 196 251 322 378 447
#     4  10  25  44  75 104 146 204 248 326 370 466
#     4  11  23  44  70 104 151 196 256 306 388 464
#     4  10  22  43  67 102 144 190 246 306 378 461
#     4  10  22  43  67  96 150 176 238 310 366 454
#
# _framework density 23.388518000000001
#
# number of rings (size 3 to 8) (size 9 to 14) (size 15 to 20)
#    0.000    1.636    0.909    2.455    7.636    0.364 
#   19.636    9.545    0.000    0.000    0.000    0.000 
#    0.000    0.000    0.000    0.000    0.000    0.000 
#
# Total GULP energy -122501.729586 kJ/mol
# GULP energy per Si atom -5568.260436 kJ/mol
# Density = 2.333528 g / cm^3
# Si number density = 23.388518 Si / 1000 Ang^3
#
#
#
# Elastic Constant Matrix: (Units=GPa)
#
#
# Indices 1 2 3 4 5 6 
#
# 1 98.8551 42.0197 32.5669 0.0000 0.0000 0.0000
# 2 42.0197 107.3229 11.6031 0.0000 0.0000 0.0000
# 3 32.5669 11.6031 97.4003 0.0000 0.0000 0.0000
# 4 0.0000 0.0000 0.0000 32.3154 0.0000 0.0000
# 5 0.0000 0.0000 0.0000 0.0000 4.4854 0.0000
# 6 0.0000 0.0000 0.0000 0.0000 0.0000 33.0485
#
#
#
# Elastic Compliance Matrix: (Units=1/GPa)
#
#
# Indices 1 2 3 4 5 6 
#
# 1 0.013471 -0.004850 -0.003926 0.000000 0.000000 0.000000
# 2 -0.004850 0.011185 0.000289 0.000000 0.000000 0.000000
# 3 -0.003926 0.000289 0.011545 0.000000 0.000000 0.000000
# 4 0.000000 0.000000 0.000000 0.030945 0.000000 0.000000
# 5 0.000000 0.000000 0.000000 0.000000 0.222948 0.000000
# 6 0.000000 0.000000 0.000000 0.000000 0.000000 0.030259
#
#
# Mechanical properties :
#
#
# Convention : Reuss Voigt Hill
#
# Bulk Modulus (GPa) = 52.00931 52.88419 52.44675
# Shear Modulus (GPa) = 14.54606 28.46241 21.50423
#
# Velocity S-wave (km/s) = 2.49656 3.49225 3.03551
# Velocity P-wave (km/s) = 5.53135 6.23870 5.89564
#
# Compressibility (1/GPa) = 0.01922733
#
# Stress axis : x y z
#
# Youngs Moduli (GPa) = 74.23502 89.40390 86.61543
#
# Poissons Ratio (x) = 0.43358 0.34008
# Poissons Ratio (y) = 0.36001 -0.02504
# Poissons Ratio (z) = 0.29147 -0.02584
#
# Static dielectric constant tensor:
#      x y z
#    x 1.980400 0.000000 0.000000 
#    y 0.000000 1.967160 0.000000 
#    z 0.000000 0.000000 1.983370 
# 
# From -- ./inp_files/30659.got.cif
#   From: 2010.05.17/outbox.cif.g08.bks.cpg/sg22_16_cif.got.tgz:30659.got - 2010.06.03 23:40:54.
