data_PCOD9328910
_publ_section_title
;
Structure prediction by ZEFSAII (Michael W. Deem and Ramdas Pophale) SiO2 
 PCOD9328910
Probable space group: F 2 2 2
;
_chemical_formula_sum "Si O2"
_cell_formula_units_Z 52
_cell_length_a 16.754804
_cell_length_b 13.534455
_cell_length_c 9.994453
_cell_angle_alpha 90.000000
_cell_angle_beta 90.000000
_cell_angle_gamma 90.000000
_cell_volume 2266.413530
_symmetry_space_group_name_H-M "F 2 2 2"
_symmetry_group_IT_number 22
_symmetry_cell_setting 'orthorhombic'
loop_
_space_group_symop_operation_xyz
x,y,z
-x,-y,z
x,-y,-z
-x,y,-z
x,1/2+y,1/2+z
-x,1/2-y,1/2+z
x,1/2-y,1/2-z
-x,1/2+y,1/2-z
1/2+x,y,1/2+z
1/2-x,-y,1/2+z
1/2+x,-y,1/2-z
1/2-x,y,1/2-z
1/2+x,1/2+y,z
1/2-x,1/2-y,z
1/2+x,1/2-y,-z
1/2-x,1/2+y,-z
loop_
_atom_site_type_symbol
_atom_site_label
_atom_site_fract_x
_atom_site_fract_y
_atom_site_fract_z
Si Si1 0.584471 0.824771 0.648518
Si Si2 0.250000 0.598667 0.250000
Si Si3 0.657743 0.715425 0.402906
Si Si4 0.814586 0.000000 0.500000
Si Si5 0.500000 0.500000 0.000000
O O1 0.539408 0.750000 0.750000
O O2 0.666629 0.846958 0.728267
O O3 0.603586 0.772015 0.508766
O O4 0.546887 0.927585 0.601508
O O5 0.240378 0.535183 0.119146
O O6 0.645151 0.750000 0.250000
O O7 0.750000 0.750000 0.433170
O O8 0.644978 0.598965 0.437963
#
# Coordination Sequence:
#
# PCOD9328910 Si02
#       5
#    16   8  16   8   4
#     4  12  25  52  74 106 153 207 257 321 389 469
#     4  12  23  44  77 110 148 196 265 320 385 448
#     4  11  23  39  69 116 149 188 252 322 379 453
#     4  12  23  36  70 118 147 194 244 340 377 440
#     4  12  34  48  76 112 166 206 252 322 410 470
#
# _framework density 22.943739000000001
#
# number of rings (size 3 to 8) (size 9 to 14) (size 15 to 20)
#    0.000    0.308    6.154    3.231    4.308    1.231 
#    0.000    0.000    0.000    1.846    0.000    0.000 
#    0.000    0.000    0.000    0.000    0.000    0.000 
#
# Total GULP energy -72596.851586 kJ/mol
# GULP energy per Si atom -5584.373199 kJ/mol
# Density = 2.289152 g / cm^3
# Si number density = 22.943739 Si / 1000 Ang^3
#
#
#
# Elastic Constant Matrix: (Units=GPa)
#
#
# Indices 1 2 3 4 5 6 
#
# 1 71.9865 55.3408 20.5373 0.0000 0.0000 0.0000
# 2 55.3408 212.5682 81.8768 0.0000 0.0000 0.0000
# 3 20.5373 81.8768 190.5530 0.0000 0.0000 0.0000
# 4 0.0000 0.0000 0.0000 -21.2050 0.0000 0.0000
# 5 0.0000 0.0000 0.0000 0.0000 14.5559 0.0000
# 6 0.0000 0.0000 0.0000 0.0000 0.0000 -74.7840
#
#
#
# Elastic Compliance Matrix: (Units=1/GPa)
#
#
# Indices 1 2 3 4 5 6 
#
# 1 0.017369 -0.004555 0.000085 0.000000 0.000000 0.000000
# 2 -0.004555 0.006832 -0.002445 0.000000 0.000000 0.000000
# 3 0.000085 -0.002445 0.006289 0.000000 0.000000 0.000000
# 4 0.000000 0.000000 0.000000 -0.047159 0.000000 0.000000
# 5 0.000000 0.000000 0.000000 0.000000 0.068701 0.000000
# 6 0.000000 0.000000 0.000000 0.000000 0.000000 -0.013372
#
#
# Mechanical properties :
#
#
# Convention : Reuss Voigt Hill
#
# Bulk Modulus (GPa) = 60.01940 87.84638 73.93289
# Shear Modulus (GPa) = 86.14525 4.87023 45.50774
#
# Velocity S-wave (km/s) = 6.13415 1.45852 4.45842
# Velocity P-wave (km/s) = 8.73994 6.41929 7.66791
#
# Compressibility (1/GPa) = 0.01666128
#
# Stress axis : x y z
#
# Youngs Moduli (GPa) = 57.57508 146.37593 159.00525
#
# Poissons Ratio (x) = 0.66668 -0.01353
# Poissons Ratio (y) = 0.26223 0.38870
# Poissons Ratio (z) = -0.00490 0.35783
#
# Static dielectric constant tensor:
#      x y z
#    x 1.902440 0.000000 0.000000 
#    y 0.000000 1.950430 0.000000 
#    z 0.000000 0.000000 1.765870 
# 
# From -- ./inp_files/12074.got.cif
#   From: 2010.05.17/outbox.cif.g08.bks.cpg/sg22_7_cif.got.tgz:12074.got - 2010.06.03 23:40:54.
