data_PCOD9328331
_publ_section_title
;
Structure prediction by ZEFSAII (Michael W. Deem and Ramdas Pophale) SiO2 
 PCOD9328331
Probable space group: F 2 2 2
;
_chemical_formula_sum "Si O2"
_cell_formula_units_Z 104
_cell_length_a 26.948337
_cell_length_b 19.628568
_cell_length_c 9.186883
_cell_angle_alpha 90.000000
_cell_angle_beta 90.000000
_cell_angle_gamma 90.000000
_cell_volume 4859.468508
_symmetry_space_group_name_H-M "F 2 2 2"
_symmetry_group_IT_number 22
_symmetry_cell_setting 'orthorhombic'
loop_
_space_group_symop_operation_xyz
x,y,z
-x,-y,z
x,-y,-z
-x,y,-z
x,1/2+y,1/2+z
-x,1/2-y,1/2+z
x,1/2-y,1/2-z
-x,1/2+y,1/2-z
1/2+x,y,1/2+z
1/2-x,-y,1/2+z
1/2+x,-y,1/2-z
1/2-x,y,1/2-z
1/2+x,1/2+y,z
1/2-x,1/2-y,z
1/2+x,1/2-y,-z
1/2-x,1/2+y,-z
loop_
_atom_site_type_symbol
_atom_site_label
_atom_site_fract_x
_atom_site_fract_y
_atom_site_fract_z
Si Si1 0.403463 0.551457 0.636071
Si Si2 0.528042 0.333349 0.763095
Si Si3 0.374349 0.250000 0.750000
Si Si4 0.784640 0.435987 0.893133
Si Si5 0.703000 0.637668 0.664176
Si Si6 0.931688 0.345743 0.414949
Si Si7 0.857024 0.538609 0.640841
O O1 0.414487 0.500000 0.500000
O O2 0.439583 0.616956 0.657245
O O3 0.344482 0.569666 0.629913
O O4 0.400077 0.505888 0.781942
O O5 0.530412 0.250000 0.750000
O O6 0.470651 0.356877 0.782520
O O7 0.546838 0.347946 0.925619
O O8 0.341099 0.310045 0.686251
O O9 0.409281 0.272504 0.881158
O O10 0.750000 0.435305 0.750000
O O11 0.774835 0.500000 0.000000
O O12 0.777287 0.373022 0.001979
O O13 0.750000 0.662987 0.750000
O O14 0.682801 0.567315 0.742062
O O15 0.885725 0.395935 0.413855
O O16 0.836056 0.500000 0.500000
#
# Coordination Sequence:
#
# PCOD9328331 Si02
#       7
#    16  16   8  16  16  16  16
#     4  11  24  44  67 104 141 179 225 296 354 408
#     4  11  24  43  70 100 137 182 237 285 353 427
#     4  10  23  44  68  94 138 180 229 290 348 422
#     4  11  24  40  67 100 136 175 231 285 348 425
#     4  11  24  40  67 100 133 181 230 282 345 419
#     4  10  23  43  69  97 126 184 235 281 345 428
#     4  11  22  42  68  95 136 176 227 281 345 404
#
# _framework density 21.401517999999999
#
# number of rings (size 3 to 8) (size 9 to 14) (size 15 to 20)
#    0.000    1.231    5.385    0.692    4.308    0.615 
#    0.000    0.769    0.000    0.000    0.000    0.000 
#    0.000    0.000    0.000    0.000    0.000    0.000 
#
# Total GULP energy -144806.060476 kJ/mol
# GULP energy per Si atom -5569.463864 kJ/mol
# Density = 2.135281 g / cm^3
# Si number density = 21.401518 Si / 1000 Ang^3
#
#
#
# Elastic Constant Matrix: (Units=GPa)
#
#
# Indices 1 2 3 4 5 6 
#
# 1 101.2901 28.9625 34.5544 0.0000 0.0000 0.0000
# 2 28.9625 62.9735 38.0087 0.0000 0.0000 0.0000
# 3 34.5544 38.0087 116.1951 -0.0002 -0.0001 0.0000
# 4 0.0000 0.0000 -0.0002 23.4397 -0.0001 0.0000
# 5 0.0000 0.0000 -0.0001 -0.0001 10.2129 0.0000
# 6 0.0000 0.0000 0.0000 0.0000 0.0000 27.2767
#
#
#
# Elastic Compliance Matrix: (Units=1/GPa)
#
#
# Indices 1 2 3 4 5 6 
#
# 1 0.011786 -0.004118 -0.002158 0.000000 0.000000 0.000000
# 2 -0.004118 0.021225 -0.005718 0.000000 0.000000 0.000000
# 3 -0.002158 -0.005718 0.011118 0.000000 0.000000 0.000000
# 4 0.000000 0.000000 0.000000 0.042663 0.000000 0.000000
# 5 0.000000 0.000000 0.000000 0.000000 0.097915 0.000000
# 6 0.000000 0.000000 0.000000 0.000000 0.000000 0.036661
#
#
# Mechanical properties :
#
#
# Convention : Reuss Voigt Hill
#
# Bulk Modulus (GPa) = 49.65000 53.72331 51.68666
# Shear Modulus (GPa) = 19.83563 24.11473 21.97518
#
# Velocity S-wave (km/s) = 3.04770 3.36039 3.20786
# Velocity P-wave (km/s) = 5.96944 6.34140 6.15823
#
# Compressibility (1/GPa) = 0.02014099
#
# Stress axis : x y z
#
# Youngs Moduli (GPa) = 84.84379 47.11393 89.94055
#
# Poissons Ratio (x) = 0.19403 0.19408
# Poissons Ratio (y) = 0.34941 0.51430
# Poissons Ratio (z) = 0.18309 0.26941
#
# Static dielectric constant tensor:
#      x y z
#    x 1.817030 0.000000 0.000000 
#    y 0.000000 2.043900 0.000000 
#    z 0.000000 0.000000 1.822290 
# 
# From -- ./inp_files/14814.got.cif
#   From: 2010.05.17/outbox.cif.g08.bks.cpg/sg22_8_cif.got.tgz:14814.got - 2010.06.03 23:40:54.
