data_PCOD9328740
_publ_section_title
;
Structure prediction by ZEFSAII (Michael W. Deem and Ramdas Pophale) SiO2 
 PCOD9328740
Probable space group: F 2 2 2
;
_chemical_formula_sum "Si O2"
_cell_formula_units_Z 104
_cell_length_a 14.342166
_cell_length_b 15.131168
_cell_length_c 24.312754
_cell_angle_alpha 90.000000
_cell_angle_beta 90.000000
_cell_angle_gamma 90.000000
_cell_volume 5276.201268
_symmetry_space_group_name_H-M "F 2 2 2"
_symmetry_group_IT_number 22
_symmetry_cell_setting 'orthorhombic'
loop_
_space_group_symop_operation_xyz
x,y,z
-x,-y,z
x,-y,-z
-x,y,-z
x,1/2+y,1/2+z
-x,1/2-y,1/2+z
x,1/2-y,1/2-z
-x,1/2+y,1/2-z
1/2+x,y,1/2+z
1/2-x,-y,1/2+z
1/2+x,-y,1/2-z
1/2-x,y,1/2-z
1/2+x,1/2+y,z
1/2-x,1/2-y,z
1/2+x,1/2-y,-z
1/2-x,1/2+y,-z
loop_
_atom_site_type_symbol
_atom_site_label
_atom_site_fract_x
_atom_site_fract_y
_atom_site_fract_z
Si Si1 0.000000 0.500000 0.000000
Si Si2 0.354122 0.628342 0.564224
Si Si3 0.992112 0.766530 0.614701
Si Si4 0.401454 0.880981 0.207236
Si Si5 0.682754 0.174591 0.053809
Si Si6 0.750000 0.750000 0.750000
Si Si7 0.433079 0.419470 0.832680
Si Si8 0.225927 0.983109 0.364759
O O1 0.066434 0.560405 0.960812
O O2 0.406143 0.710743 0.592318
O O3 0.300185 0.657331 0.509843
O O4 0.289122 0.577649 0.607543
O O5 0.971142 0.835286 0.664545
O O6 0.921026 0.792399 0.565973
O O7 0.964535 0.668964 0.635224
O O8 0.316652 0.810994 0.213811
O O9 0.440133 0.897621 0.267705
O O10 0.352290 0.967137 0.181972
O O11 0.750000 0.250000 0.075996
O O12 0.699849 0.086480 0.087689
O O13 0.500000 0.500000 0.847259
O O14 0.327679 0.453290 0.844117
#
# Coordination Sequence:
#
# PCOD9328740 Si02
#       8
#     4  16  16  16  16   4  16  16
#     4  12  16  36  56 104 112 152 184 288 316 380
#     4  12  23  38  65  95 132 155 218 270 335 385
#     4  11  22  40  63  95 125 170 214 268 325 379
#     4  11  21  37  66  93 124 159 214 269 320 372
#     4  11  21  37  67  88 126 164 214 267 321 376
#     4  12  16  36  68  96 112 156 212 260 300 388
#     4  12  25  40  61  92 135 169 218 264 325 402
#     4  11  22  40  63  95 125 170 214 268 325 379
#
# _framework density 19.711151000000001
#
# number of rings (size 3 to 8) (size 9 to 14) (size 15 to 20)
#    0.000    0.615    7.692    0.923    4.308    1.231 
#    0.000    0.000    0.000    0.000    0.000    0.000 
#    0.000    0.000    0.000    0.000    0.000    0.000 
#
# Total GULP energy -145246.217871 kJ/mol
# GULP energy per Si atom -5586.392995 kJ/mol
# Density = 1.966629 g / cm^3
# Si number density = 19.711151 Si / 1000 Ang^3
#
#
#
# Elastic Constant Matrix: (Units=GPa)
#
#
# Indices 1 2 3 4 5 6 
#
# 1 20.8265 11.2487 -12.2263 0.0000 0.0000 0.0000
# 2 11.2487 60.2696 4.8021 0.0000 0.0000 0.0000
# 3 -12.2263 4.8021 58.7923 0.0000 0.0000 0.0000
# 4 0.0000 0.0000 0.0000 28.2657 0.0000 0.0000
# 5 0.0000 0.0000 0.0000 0.0000 11.6711 0.0000
# 6 0.0000 0.0000 0.0000 0.0000 0.0000 40.7242
#
#
#
# Elastic Compliance Matrix: (Units=1/GPa)
#
#
# Indices 1 2 3 4 5 6 
#
# 1 0.063376 -0.012963 0.014238 0.000000 0.000000 0.000000
# 2 -0.012963 0.019352 -0.004276 0.000000 0.000000 0.000000
# 3 0.014238 -0.004276 0.020319 0.000000 0.000000 0.000000
# 4 0.000000 0.000000 0.000000 0.035379 0.000000 0.000000
# 5 0.000000 0.000000 0.000000 0.000000 0.085682 0.000000
# 6 0.000000 0.000000 0.000000 0.000000 0.000000 0.024555
#
#
# Mechanical properties :
#
#
# Convention : Reuss Voigt Hill
#
# Bulk Modulus (GPa) = 10.30443 16.39303 13.34873
# Shear Modulus (GPa) = 17.42075 25.20312 21.31194
#
# Velocity S-wave (km/s) = 2.97611 3.57966 3.29175
# Velocity P-wave (km/s) = 4.12900 5.04182 4.60807
#
# Compressibility (1/GPa) = 0.09704563
#
# Stress axis : x y z
#
# Youngs Moduli (GPa) = 15.77884 51.67368 49.21428
#
# Poissons Ratio (x) = 0.66984 -0.70073
# Poissons Ratio (y) = 0.20454 0.21046
# Poissons Ratio (z) = -0.22466 0.22098
#
# Static dielectric constant tensor:
#      x y z
#    x 1.722390 0.000000 0.000000 
#    y 0.000000 1.699140 0.000000 
#    z 0.000000 0.000000 1.700020 
# 
# From -- ./inp_files/49055.got.cif
#   From: 2010.05.17/outbox.cif.g08.bks.cpg/sg22_25_cif.got.tgz:49055.got - 2010.06.03 23:40:54.
