data_PCOD9328512
_publ_section_title
;
Structure prediction by ZEFSAII (Michael W. Deem and Ramdas Pophale) SiO2 
 PCOD9328512
Probable space group: F 2 2 2
;
_chemical_formula_sum "Si O2"
_cell_formula_units_Z 108
_cell_length_a 31.095816
_cell_length_b 10.879405
_cell_length_c 15.432278
_cell_angle_alpha 90.000000
_cell_angle_beta 90.000000
_cell_angle_gamma 90.000000
_cell_volume 5220.801007
_symmetry_space_group_name_H-M "F 2 2 2"
_symmetry_group_IT_number 22
_symmetry_cell_setting 'orthorhombic'
loop_
_space_group_symop_operation_xyz
x,y,z
-x,-y,z
x,-y,-z
-x,y,-z
x,1/2+y,1/2+z
-x,1/2-y,1/2+z
x,1/2-y,1/2-z
-x,1/2+y,1/2-z
1/2+x,y,1/2+z
1/2-x,-y,1/2+z
1/2+x,-y,1/2-z
1/2-x,y,1/2-z
1/2+x,1/2+y,z
1/2-x,1/2-y,z
1/2+x,1/2-y,-z
1/2-x,1/2+y,-z
loop_
_atom_site_type_symbol
_atom_site_label
_atom_site_fract_x
_atom_site_fract_y
_atom_site_fract_z
Si Si1 0.081388 0.897614 0.929878
Si Si2 0.682096 0.421298 0.651997
Si Si3 0.411242 0.895627 0.762582
Si Si4 0.250000 0.750000 0.750000
Si Si5 0.299207 0.290758 0.657183
Si Si6 0.857351 0.295991 0.009727
Si Si7 0.000000 0.755380 0.000000
Si Si8 0.439340 0.925200 0.087678
O O1 0.082499 0.948505 0.833313
O O2 0.036086 0.836596 0.954073
O O3 0.116811 0.792581 0.945260
O O4 0.090624 0.000000 0.000000
O O5 0.638495 0.404523 0.708232
O O6 0.719174 0.335138 0.691171
O O7 0.696764 0.562274 0.652472
O O8 0.668912 0.382728 0.554913
O O9 0.422847 0.750000 0.750000
O O10 0.436709 0.979234 0.832926
O O11 0.317318 0.250000 0.750000
O O12 0.250000 0.250000 0.652999
O O13 0.325128 0.234059 0.577022
O O14 0.892981 0.361961 0.070679
O O15 0.976384 0.676666 0.923836
O O16 0.446133 0.000000 0.000000
#
# Coordination Sequence:
#
# PCOD9328512 Si02
#       8
#    16  16  16   4  16  16   8  16
#     4  11  25  45  70 104 143 179 224 298 352 416
#     4  12  23  44  68  99 141 180 237 299 344 430
#     4  12  22  43  73 100 137 183 237 285 350 418
#     4  12  24  36  66 100 138 184 232 290 372 400
#     4  11  25  43  65 100 144 184 235 299 352 413
#     4  11  22  44  71  98 132 186 236 281 362 425
#     4  10  24  46  68 100 144 182 230 280 352 424
#     4  11  20  41  73  98 128 178 231 284 335 417
#
# _framework density 20.686481000000001
#
# number of rings (size 3 to 8) (size 9 to 14) (size 15 to 20)
#    0.000    0.741    5.185    2.667    3.111    0.000 
#    2.667    9.630    0.000    0.000    0.000    0.000 
#    0.000    0.000    0.000    0.000    0.000    0.000 
#
# Total GULP energy -150879.370923 kJ/mol
# GULP energy per Si atom -5588.124849 kJ/mol
# Density = 2.063940 g / cm^3
# Si number density = 20.686481 Si / 1000 Ang^3
#
#
#
# Elastic Constant Matrix: (Units=GPa)
#
#
# Indices 1 2 3 4 5 6 
#
# 1 81.7060 21.3296 41.0392 0.0000 0.0000 0.0000
# 2 21.3296 73.4914 36.7461 0.0000 0.0000 0.0000
# 3 41.0392 36.7461 169.3227 0.0000 0.0000 0.0000
# 4 0.0000 0.0000 0.0000 28.9328 0.0000 0.0000
# 5 0.0000 0.0000 0.0000 0.0000 133.8807 0.0000
# 6 0.0000 0.0000 0.0000 0.0000 0.0000 41.9024
#
#
#
# Elastic Compliance Matrix: (Units=1/GPa)
#
#
# Indices 1 2 3 4 5 6 
#
# 1 0.014409 -0.002732 -0.002899 0.000000 0.000000 0.000000
# 2 -0.002732 0.015781 -0.002763 0.000000 0.000000 0.000000
# 3 -0.002899 -0.002763 0.007208 0.000000 0.000000 0.000000
# 4 0.000000 0.000000 0.000000 0.034563 0.000000 0.000000
# 5 0.000000 0.000000 0.000000 0.000000 0.007469 0.000000
# 6 0.000000 0.000000 0.000000 0.000000 0.000000 0.023865
#
#
# Mechanical properties :
#
#
# Convention : Reuss Voigt Hill
#
# Bulk Modulus (GPa) = 48.52063 58.08331 53.30197
# Shear Modulus (GPa) = 39.38458 55.97020 47.67739
#
# Velocity S-wave (km/s) = 4.36808 5.20722 4.80600
# Velocity P-wave (km/s) = 6.99617 8.01825 7.52458
#
# Compressibility (1/GPa) = 0.02060979
#
# Stress axis : x y z
#
# Youngs Moduli (GPa) = 69.40347 63.36600 138.73208
#
# Poissons Ratio (x) = 0.17313 0.40223
# Poissons Ratio (y) = 0.18962 0.38327
# Poissons Ratio (z) = 0.20122 0.17506
#
# Static dielectric constant tensor:
#      x y z
#    x 1.940940 0.000000 0.000000 
#    y 0.000000 0.697970 0.000000 
#    z 0.000000 0.000000 1.706110 
# 
# From -- ./inp_files/33547.got.cif
#   From: 2010.05.17/outbox.cif.g08.bks.cpg/sg22_17_cif.got.tgz:33547.got - 2010.06.03 23:40:54.
