data_PCOD9328341
_publ_section_title
;
Structure prediction by ZEFSAII (Michael W. Deem and Ramdas Pophale) SiO2 
 PCOD9328341
Probable space group: F 2 2 2
;
_chemical_formula_sum "Si O2"
_cell_formula_units_Z 88
_cell_length_a 20.318863
_cell_length_b 7.941389
_cell_length_c 24.501979
_cell_angle_alpha 90.000000
_cell_angle_beta 90.000000
_cell_angle_gamma 90.000000
_cell_volume 3953.639212
_symmetry_space_group_name_H-M "F 2 2 2"
_symmetry_group_IT_number 22
_symmetry_cell_setting 'orthorhombic'
loop_
_space_group_symop_operation_xyz
x,y,z
-x,-y,z
x,-y,-z
-x,y,-z
x,1/2+y,1/2+z
-x,1/2-y,1/2+z
x,1/2-y,1/2-z
-x,1/2+y,1/2-z
1/2+x,y,1/2+z
1/2-x,-y,1/2+z
1/2+x,-y,1/2-z
1/2-x,y,1/2-z
1/2+x,1/2+y,z
1/2-x,1/2-y,z
1/2+x,1/2-y,-z
1/2-x,1/2+y,-z
loop_
_atom_site_type_symbol
_atom_site_label
_atom_site_fract_x
_atom_site_fract_y
_atom_site_fract_z
Si Si1 0.009725 0.690147 0.841436
Si Si2 0.449450 0.189513 0.550974
Si Si3 0.206246 0.925340 0.206686
Si Si4 0.913477 0.250000 0.250000
Si Si5 0.125023 0.607703 0.617748
Si Si6 0.676601 0.799614 0.491237
O O1 0.080271 0.777879 0.843076
O O2 0.000000 0.500000 0.822355
O O3 0.984005 0.701331 0.903162
O O4 0.959633 0.781463 0.801422
O O5 0.500000 0.169739 0.500000
O O6 0.382533 0.271263 0.527677
O O7 0.423735 0.021337 0.584025
O O8 0.250000 0.026560 0.250000
O O9 0.250000 0.750000 0.195619
O O10 0.139911 0.896742 0.242264
O O11 0.180313 0.005492 0.150957
O O12 0.159071 0.724230 0.572077
O O13 0.750000 0.750000 0.505673
O O14 0.672791 0.000000 0.500000
#
# Coordination Sequence:
#
# PCOD9328341 Si02
#       6
#    16  16  16   8  16  16
#     4  12  27  40  66 106 141 174 228 298 364 419
#     4  11  23  44  72  99 136 185 237 285 354 429
#     4   9  21  44  70  98 134 180 241 285 350 425
#     4  10  23  44  66  98 133 170 232 288 356 430
#     4  11  23  43  74  97 137 186 228 296 345 433
#     4  10  24  42  64  95 133 178 225 272 344 420
#
# _framework density 22.257974000000001
#
# number of rings (size 3 to 8) (size 9 to 14) (size 15 to 20)
#    0.000    1.636    3.636    0.545    7.636    4.727 
#    6.545    0.000    0.000    0.000    0.000    0.000 
#    0.000    0.000    0.000    0.000    0.000    0.000 
#
# Total GULP energy -122523.380857 kJ/mol
# GULP energy per Si atom -5569.244584 kJ/mol
# Density = 2.220731 g / cm^3
# Si number density = 22.257974 Si / 1000 Ang^3
#
#
#
# Elastic Constant Matrix: (Units=GPa)
#
#
# Indices 1 2 3 4 5 6 
#
# 1 132.8838 21.3377 42.5449 0.0000 0.0000 -0.0001
# 2 21.3377 32.1027 -2.5198 0.0000 0.0000 -0.0001
# 3 42.5449 -2.5198 96.5222 0.0000 0.0000 0.0000
# 4 0.0000 0.0000 0.0000 13.6552 0.0000 0.0000
# 5 0.0000 0.0000 0.0000 0.0000 49.8210 0.0000
# 6 -0.0001 -0.0001 0.0000 0.0000 0.0000 22.1157
#
#
#
# Elastic Compliance Matrix: (Units=1/GPa)
#
#
# Indices 1 2 3 4 5 6 
#
# 1 0.010162 -0.007121 -0.004665 0.000000 0.000000 0.000000
# 2 -0.007121 0.036204 0.004084 0.000000 0.000000 0.000000
# 3 -0.004665 0.004084 0.012523 0.000000 0.000000 0.000000
# 4 0.000000 0.000000 0.000000 0.073232 0.000000 0.000000
# 5 0.000000 0.000000 0.000000 0.000000 0.020072 0.000000
# 6 0.000000 0.000000 0.000000 0.000000 0.000000 0.045217
#
#
# Mechanical properties :
#
#
# Convention : Reuss Voigt Hill
#
# Bulk Modulus (GPa) = 22.99658 42.69270 32.84464
# Shear Modulus (GPa) = 21.99643 30.46144 26.22893
#
# Velocity S-wave (km/s) = 3.14705 3.70342 3.43652
# Velocity P-wave (km/s) = 4.85382 6.12451 5.52581
#
# Compressibility (1/GPa) = 0.04348472
#
# Stress axis : x y z
#
# Youngs Moduli (GPa) = 98.40137 27.62158 79.85128
#
# Poissons Ratio (x) = 0.19669 0.37253
# Poissons Ratio (y) = 0.70070 -0.32610
# Poissons Ratio (z) = 0.45907 -0.11280
#
# Static dielectric constant tensor:
#      x y z
#    x 1.946350 0.000000 0.000000 
#    y 0.000000 1.911650 0.000000 
#    z 0.000000 0.000000 1.872800 
# 
# From -- ./inp_files/49809.got.cif
#   From: 2010.05.17/outbox.cif.g08.bks.cpg/sg22_25_cif.got.tgz:49809.got - 2010.06.03 23:40:54.
