data_PCOD9328090
_publ_section_title
;
Structure prediction by ZEFSAII (Michael W. Deem and Ramdas Pophale) SiO2 
 PCOD9328090
Probable space group: F 2 2 2
;
_chemical_formula_sum "Si O2"
_cell_formula_units_Z 104
_cell_length_a 23.694261
_cell_length_b 10.087005
_cell_length_c 20.799132
_cell_angle_alpha 90.000000
_cell_angle_beta 90.000000
_cell_angle_gamma 90.000000
_cell_volume 4971.078431
_symmetry_space_group_name_H-M "F 2 2 2"
_symmetry_group_IT_number 22
_symmetry_cell_setting 'orthorhombic'
loop_
_space_group_symop_operation_xyz
x,y,z
-x,-y,z
x,-y,-z
-x,y,-z
x,1/2+y,1/2+z
-x,1/2-y,1/2+z
x,1/2-y,1/2-z
-x,1/2+y,1/2-z
1/2+x,y,1/2+z
1/2-x,-y,1/2+z
1/2+x,-y,1/2-z
1/2-x,y,1/2-z
1/2+x,1/2+y,z
1/2-x,1/2-y,z
1/2+x,1/2-y,-z
1/2-x,1/2+y,-z
loop_
_atom_site_type_symbol
_atom_site_label
_atom_site_fract_x
_atom_site_fract_y
_atom_site_fract_z
Si Si1 0.278366 0.867546 0.984846
Si Si2 0.869921 0.240536 0.435110
Si Si3 0.050723 0.722266 0.548933
Si Si4 0.619508 0.546746 0.395612
Si Si5 0.817376 0.092996 0.739188
Si Si6 0.500000 0.000000 0.357219
Si Si7 0.107993 0.371472 0.698309
O O1 0.250000 0.750000 0.945764
O O2 0.332051 0.917507 0.946290
O O3 0.306102 0.796112 0.046161
O O4 0.243642 0.000000 0.000000
O O5 0.898968 0.304801 0.497654
O O6 0.873167 0.325128 0.371871
O O7 0.899461 0.100960 0.414846
O O8 0.070889 0.845355 0.592850
O O9 0.000000 0.754892 0.500000
O O10 0.032342 0.602498 0.595226
O O11 0.653237 0.556660 0.328968
O O12 0.826505 0.250000 0.750000
O O13 0.750000 0.069252 0.750000
O O14 0.852282 0.995052 0.784634
O O15 0.544199 0.077695 0.312365
O O16 0.111893 0.250000 0.750000
#
# Coordination Sequence:
#
# PCOD9328090 Si02
#       7
#    16  16  16  16  16   8  16
#     4   9  20  38  62  95 130 170 221 291 349 405
#     4  10  22  43  66  98 135 175 234 285 352 426
#     4  11  22  42  71  99 138 186 222 299 365 419
#     4  10  22  43  65  98 143 176 238 287 348 434
#     4  11  26  47  72 103 141 196 240 289 355 428
#     4  12  27  46  70 104 148 181 242 302 354 433
#     4  12  26  48  70 102 143 190 240 292 348 427
#
# _framework density 20.921015000000001
#
# number of rings (size 3 to 8) (size 9 to 14) (size 15 to 20)
#    0.000    1.385    3.077    2.538    2.154    5.846 
#    5.538    0.000    0.000    0.000    0.000    0.000 
#    0.000    0.000    0.000    0.000    0.000    0.000 
#
# Total GULP energy -144981.361593 kJ/mol
# GULP energy per Si atom -5576.206215 kJ/mol
# Density = 2.087340 g / cm^3
# Si number density = 20.921015 Si / 1000 Ang^3
#
#
#
# Elastic Constant Matrix: (Units=GPa)
#
#
# Indices 1 2 3 4 5 6 
#
# 1 74.6807 55.4037 30.7828 0.0000 0.0000 0.0000
# 2 55.4037 132.8507 29.9023 0.0000 0.0000 0.0000
# 3 30.7828 29.9023 49.7584 0.0000 0.0000 0.0000
# 4 0.0000 0.0000 0.0000 33.5849 0.0000 0.0000
# 5 0.0000 0.0000 0.0000 0.0000 -45.5731 0.0000
# 6 0.0000 0.0000 0.0000 0.0000 0.0000 32.7675
#
#
#
# Elastic Compliance Matrix: (Units=1/GPa)
#
#
# Indices 1 2 3 4 5 6 
#
# 1 0.022841 -0.007337 -0.009721 0.000000 0.000000 0.000000
# 2 -0.007337 0.011062 -0.002108 0.000000 0.000000 0.000000
# 3 -0.009721 -0.002108 0.027378 0.000000 0.000000 0.000000
# 4 0.000000 0.000000 0.000000 0.029775 0.000000 0.000000
# 5 0.000000 0.000000 0.000000 0.000000 -0.021943 0.000000
# 6 0.000000 0.000000 0.000000 0.000000 0.000000 0.030518
#
#
# Mechanical properties :
#
#
# Convention : Reuss Voigt Hill
#
# Bulk Modulus (GPa) = 43.57842 54.38527 48.98185
# Shear Modulus (GPa) = 34.33755 13.56924 23.95340
#
# Velocity S-wave (km/s) = 4.05568 2.54951 3.38737
# Velocity P-wave (km/s) = 6.54268 5.89225 6.22597
#
# Compressibility (1/GPa) = 0.02294714
#
# Stress axis : x y z
#
# Youngs Moduli (GPa) = 43.78154 90.40150 36.52582
#
# Poissons Ratio (x) = 0.66331 0.35506
# Poissons Ratio (y) = 0.32124 0.07701
# Poissons Ratio (z) = 0.42560 0.19059
#
# Static dielectric constant tensor:
#      x y z
#    x 1.807290 0.000000 0.000000 
#    y 0.000000 1.940710 0.000000 
#    z 0.000000 0.000000 1.797360 
# 
# From -- ./inp_files/45769.got.cif
#   From: 2010.05.17/outbox.cif.g08.bks.cpg/sg22_23_cif.got.tgz:45769.got - 2010.06.03 23:40:54.
