data_PCOD9328934
_publ_section_title
;
Structure prediction by ZEFSAII (Michael W. Deem and Ramdas Pophale) SiO2 
 PCOD9328934
Probable space group: F 2 2 2
;
_chemical_formula_sum "Si O2"
_cell_formula_units_Z 56
_cell_length_a 12.432811
_cell_length_b 9.616576
_cell_length_c 21.402451
_cell_angle_alpha 90.000000
_cell_angle_beta 90.000000
_cell_angle_gamma 90.000000
_cell_volume 2558.899982
_symmetry_space_group_name_H-M "F 2 2 2"
_symmetry_group_IT_number 22
_symmetry_cell_setting 'orthorhombic'
loop_
_space_group_symop_operation_xyz
x,y,z
-x,-y,z
x,-y,-z
-x,y,-z
x,1/2+y,1/2+z
-x,1/2-y,1/2+z
x,1/2-y,1/2-z
-x,1/2+y,1/2-z
1/2+x,y,1/2+z
1/2-x,-y,1/2+z
1/2+x,-y,1/2-z
1/2-x,y,1/2-z
1/2+x,1/2+y,z
1/2-x,1/2-y,z
1/2+x,1/2-y,-z
1/2-x,1/2+y,-z
loop_
_atom_site_type_symbol
_atom_site_label
_atom_site_fract_x
_atom_site_fract_y
_atom_site_fract_z
Si Si1 0.571389 0.291981 0.935219
Si Si2 0.750000 0.250000 0.148921
Si Si3 0.968288 0.152484 0.196600
Si Si4 0.788353 0.972256 0.430567
O O1 0.502117 0.331486 0.875439
O O2 0.669246 0.403885 0.938067
O O3 0.629244 0.149281 0.912313
O O4 0.500000 0.286503 0.000000
O O5 0.843265 0.185659 0.190662
O O6 0.787869 0.382932 0.107007
O O7 0.017289 0.250000 0.250000
O O8 0.000000 0.000000 0.216589
O O9 0.826611 0.000000 0.500000
#
# Coordination Sequence:
#
# PCOD9328934 Si02
#       4
#    16   8  16  16
#     4  11  25  46  75 106 149 191 244 307 374 438
#     4  12  25  46  74 106 148 190 253 306 365 444
#     4  12  28  50  74 107 145 196 246 306 372 446
#     4  11  23  42  69 112 148 189 244 306 370 446
#
# _framework density 21.884404
#
# number of rings (size 3 to 8) (size 9 to 14) (size 15 to 20)
#    0.000    0.571    2.857    5.571    4.000    2.857 
#    0.000    4.286    0.000    0.000    0.000    0.000 
#    0.000    0.000    0.000    0.000    0.000    0.000 
#
# Total GULP energy -78116.840012 kJ/mol
# GULP energy per Si atom -5579.774287 kJ/mol
# Density = 2.183459 g / cm^3
# Si number density = 21.884404 Si / 1000 Ang^3
#
#
#
# Elastic Constant Matrix: (Units=GPa)
#
#
# Indices 1 2 3 4 5 6 
#
# 1 77.7109 55.3554 0.8702 0.0000 0.0000 0.0000
# 2 55.3554 208.8166 59.4575 0.0000 0.0000 0.0000
# 3 0.8702 59.4575 101.0158 0.0000 0.0000 0.0000
# 4 0.0000 0.0000 0.0000 -772.7886 0.0000 0.0000
# 5 0.0000 0.0000 0.0000 0.0000 392.9610 0.0000
# 6 0.0000 0.0000 0.0000 0.0000 0.0000 26.0701
#
#
#
# Elastic Compliance Matrix: (Units=1/GPa)
#
#
# Indices 1 2 3 4 5 6 
#
# 1 0.016556 -0.005224 0.002932 0.000000 0.000000 0.000000
# 2 -0.005224 0.007401 -0.004311 0.000000 0.000000 0.000000
# 3 0.002932 -0.004311 0.012412 0.000000 0.000000 0.000000
# 4 0.000000 0.000000 0.000000 -0.001294 0.000000 0.000000
# 5 0.000000 0.000000 0.000000 0.000000 0.002545 0.000000
# 6 0.000000 0.000000 0.000000 0.000000 0.000000 0.038358
#
#
# Mechanical properties :
#
#
# Convention : Reuss Voigt Hill
#
# Bulk Modulus (GPa) = 43.17166 68.76774 55.96970
# Shear Modulus (GPa) = 51.59657 -52.62748 -0.51546
#
# Velocity S-wave (km/s) = 4.86087 -4.90919 -0.48585
# Velocity P-wave (km/s) = 7.16059 0.80134 5.03150
#
# Compressibility (1/GPa) = 0.02316335
#
# Stress axis : x y z
#
# Youngs Moduli (GPa) = 60.39952 135.11183 80.56829
#
# Poissons Ratio (x) = 0.70580 -0.23623
# Poissons Ratio (y) = 0.31552 0.34736
# Poissons Ratio (z) = -0.17710 0.58252
#
# Static dielectric constant tensor:
#      x y z
#    x 3.879860 0.000000 0.000000 
#    y 0.000000 1.984570 0.000000 
#    z 0.000000 0.000000 1.804930 
# 
# From -- ./inp_files/14328.got.cif
#   From: 2010.05.17/outbox.cif.g08.bks.cpg/sg22_8_cif.got.tgz:14328.got - 2010.06.03 23:40:54.
