data_PCOD9328767
_publ_section_title
;
Structure prediction by ZEFSAII (Michael W. Deem and Ramdas Pophale) SiO2 
 PCOD9328767
Probable space group: F 2 2 2
;
_chemical_formula_sum "Si O2"
_cell_formula_units_Z 112
_cell_length_a 16.014440
_cell_length_b 14.430416
_cell_length_c 21.079764
_cell_angle_alpha 90.000000
_cell_angle_beta 90.000000
_cell_angle_gamma 90.000000
_cell_volume 4871.428719
_symmetry_space_group_name_H-M "F 2 2 2"
_symmetry_group_IT_number 22
_symmetry_cell_setting 'orthorhombic'
loop_
_space_group_symop_operation_xyz
x,y,z
-x,-y,z
x,-y,-z
-x,y,-z
x,1/2+y,1/2+z
-x,1/2-y,1/2+z
x,1/2-y,1/2-z
-x,1/2+y,1/2-z
1/2+x,y,1/2+z
1/2-x,-y,1/2+z
1/2+x,-y,1/2-z
1/2-x,y,1/2-z
1/2+x,1/2+y,z
1/2-x,1/2-y,z
1/2+x,1/2-y,-z
1/2-x,1/2+y,-z
loop_
_atom_site_type_symbol
_atom_site_label
_atom_site_fract_x
_atom_site_fract_y
_atom_site_fract_z
Si Si1 0.083402 0.253486 0.515793
Si Si2 0.644556 0.915594 0.432172
Si Si3 0.120795 0.105454 0.885911
Si Si4 0.400026 0.003580 0.867143
Si Si5 0.649854 0.360673 0.253211
Si Si6 0.737447 0.139680 0.824075
Si Si7 0.784748 0.397431 0.038294
O O1 0.092973 0.332308 0.462014
O O2 0.078173 0.305766 0.582938
O O3 0.164754 0.192323 0.517517
O O4 0.000000 0.198347 0.500000
O O5 0.686314 0.902258 0.363992
O O6 0.724821 0.918435 0.478775
O O7 0.597920 0.012954 0.424762
O O8 0.110641 0.098688 0.811417
O O9 0.218894 0.118529 0.904360
O O10 0.381932 0.083028 0.814063
O O11 0.354444 0.035678 0.931764
O O12 0.500000 0.000000 0.873865
O O13 0.349210 0.909939 0.845993
O O14 0.632927 0.250000 0.250000
O O15 0.750000 0.372037 0.250000
O O16 0.750000 0.120562 0.750000
O O17 0.750000 0.250000 0.834375
#
# Coordination Sequence:
#
# PCOD9328767 Si02
#       7
#    16  16  16  16  16  16  16
#     4  11  25  41  60 103 143 173 228 295 360 423
#     4  11  22  42  72  95 133 181 243 285 343 440
#     4  11  21  40  72  94 128 181 240 282 347 429
#     4  12  26  45  69 106 152 178 239 308 374 426
#     4  11  22  42  76 100 132 186 243 297 351 434
#     4  11  24  46  72 100 135 194 246 286 353 454
#     4  11  22  41  66  96 134 182 230 278 341 433
#
# _framework density 22.991199999999999
#
# number of rings (size 3 to 8) (size 9 to 14) (size 15 to 20)
#    0.000    0.857    2.857    6.429    2.000    3.429 
#    7.714    0.714    0.000    0.000    0.000    0.000 
#    0.000    0.000    0.000    0.000    0.000    0.000 
#
# Total GULP energy -156467.328001 kJ/mol
# GULP energy per Si atom -5588.118857 kJ/mol
# Density = 2.293887 g / cm^3
# Si number density = 22.991200 Si / 1000 Ang^3
#
#
#
# Elastic Constant Matrix: (Units=GPa)
#
#
# Indices 1 2 3 4 5 6 
#
# 1 114.1087 24.5552 14.4040 0.0000 0.0000 0.0000
# 2 24.5552 92.6454 20.7362 0.0000 0.0000 0.0000
# 3 14.4040 20.7362 97.2945 0.0000 0.0000 0.0000
# 4 0.0000 0.0000 0.0000 25.5323 0.0000 0.0000
# 5 0.0000 0.0000 0.0000 0.0000 15.0618 0.0000
# 6 0.0000 0.0000 0.0000 0.0000 0.0000 11.5337
#
#
#
# Elastic Compliance Matrix: (Units=1/GPa)
#
#
# Indices 1 2 3 4 5 6 
#
# 1 0.009368 -0.002281 -0.000901 0.000000 0.000000 0.000000
# 2 -0.002281 0.011890 -0.002196 0.000000 0.000000 0.000000
# 3 -0.000901 -0.002196 0.010880 0.000000 0.000000 0.000000
# 4 0.000000 0.000000 0.000000 0.039166 0.000000 0.000000
# 5 0.000000 0.000000 0.000000 0.000000 0.066393 0.000000
# 6 0.000000 0.000000 0.000000 0.000000 0.000000 0.086703
#
#
# Mechanical properties :
#
#
# Convention : Reuss Voigt Hill
#
# Bulk Modulus (GPa) = 46.77066 47.04883 46.90975
# Shear Modulus (GPa) = 20.63698 26.71578 23.67638
#
# Velocity S-wave (km/s) = 2.99925 3.41251 3.21253
# Velocity P-wave (km/s) = 5.69043 6.00294 5.84877
#
# Compressibility (1/GPa) = 0.02138093
#
# Stress axis : x y z
#
# Youngs Moduli (GPa) = 106.74402 84.10348 91.91577
#
# Poissons Ratio (x) = 0.19187 0.08279
# Poissons Ratio (y) = 0.24353 0.20188
# Poissons Ratio (z) = 0.09614 0.18472
#
# Static dielectric constant tensor:
#      x y z
#    x 1.867320 0.000000 0.000000 
#    y 0.000000 2.031460 0.000000 
#    z 0.000000 0.000000 1.834770 
# 
# From -- ./inp_files/48971.got.cif
#   From: 2010.05.17/outbox.cif.g08.bks.cpg/sg22_25_cif.got.tgz:48971.got - 2010.06.03 23:40:54.
