data_PCOD9328424
_publ_section_title
;
Structure prediction by ZEFSAII (Michael W. Deem and Ramdas Pophale) SiO2 
 PCOD9328424
Probable space group: F 2 2 2
;
_chemical_formula_sum "Si O2"
_cell_formula_units_Z 104
_cell_length_a 8.422389
_cell_length_b 21.667870
_cell_length_c 26.636739
_cell_angle_alpha 90.000000
_cell_angle_beta 90.000000
_cell_angle_gamma 90.000000
_cell_volume 4861.077809
_symmetry_space_group_name_H-M "F 2 2 2"
_symmetry_group_IT_number 22
_symmetry_cell_setting 'orthorhombic'
loop_
_space_group_symop_operation_xyz
x,y,z
-x,-y,z
x,-y,-z
-x,y,-z
x,1/2+y,1/2+z
-x,1/2-y,1/2+z
x,1/2-y,1/2-z
-x,1/2+y,1/2-z
1/2+x,y,1/2+z
1/2-x,-y,1/2+z
1/2+x,-y,1/2-z
1/2-x,y,1/2-z
1/2+x,1/2+y,z
1/2-x,1/2-y,z
1/2+x,1/2-y,-z
1/2-x,1/2+y,-z
loop_
_atom_site_type_symbol
_atom_site_label
_atom_site_fract_x
_atom_site_fract_y
_atom_site_fract_z
Si Si1 0.000000 0.500000 0.686089
Si Si2 0.980082 0.139478 0.057167
Si Si3 0.500000 0.853608 0.000000
Si Si4 0.063978 0.234509 0.596006
Si Si5 0.944778 0.371774 0.840755
Si Si6 0.750000 0.419146 0.750000
Si Si7 0.746006 0.436985 0.385277
Si Si8 0.776461 0.565521 0.067574
O O1 0.124651 0.538844 0.719214
O O2 0.110869 0.458058 0.650621
O O3 0.024253 0.200144 0.088679
O O4 0.812889 0.116026 0.078428
O O5 0.092714 0.080098 0.059979
O O6 0.000000 0.160504 0.000000
O O7 0.458002 0.808001 0.046258
O O8 0.630461 0.900232 0.023164
O O9 0.250000 0.250000 0.601714
O O10 0.996390 0.196228 0.642586
O O11 0.101950 0.413494 0.850763
O O12 0.859064 0.380178 0.788061
O O13 0.824747 0.398471 0.882134
O O14 0.694590 0.494171 0.420445
#
# Coordination Sequence:
#
# PCOD9328424 Si02
#       8
#     8  16   8  16  16   8  16  16
#     4  12  24  44  73 100 142 173 220 292 366 450
#     4  12  24  42  69  99 147 197 245 274 335 432
#     4  10  24  38  67  94 145 202 244 286 330 424
#     4  11  22  43  67 100 141 190 245 285 347 410
#     4  11  25  43  71 104 136 178 235 304 356 430
#     4  12  24  46  74 111 128 179 240 290 388 446
#     4  12  23  45  67 106 147 183 227 295 363 422
#     4  11  24  43  62 102 141 188 231 291 356 407
#
# _framework density 21.394431000000001
#
# number of rings (size 3 to 8) (size 9 to 14) (size 15 to 20)
#    0.000    0.615    5.385    2.308    2.154    3.077 
#    2.769    0.000    0.000    7.385    0.000    0.000 
#    0.000    0.000    0.000    0.000    0.000    0.000 
#
# Total GULP energy -145330.239816 kJ/mol
# GULP energy per Si atom -5589.624608 kJ/mol
# Density = 2.134574 g / cm^3
# Si number density = 21.394431 Si / 1000 Ang^3
#
#
#
# Elastic Constant Matrix: (Units=GPa)
#
#
# Indices 1 2 3 4 5 6 
#
# 1 89.4431 37.6897 49.4171 0.0000 0.0000 0.0000
# 2 37.6897 140.2151 56.6159 0.0000 0.0000 0.0000
# 3 49.4171 56.6159 114.9536 0.0000 0.0000 0.0000
# 4 0.0000 0.0000 0.0000 31.0600 0.0000 0.0000
# 5 0.0000 0.0000 0.0000 0.0000 45.9475 0.0000
# 6 0.0000 0.0000 0.0000 0.0000 0.0000 35.4000
#
#
#
# Elastic Compliance Matrix: (Units=1/GPa)
#
#
# Indices 1 2 3 4 5 6 
#
# 1 0.015012 -0.001784 -0.005575 0.000000 0.000000 0.000000
# 2 -0.001784 0.009114 -0.003722 0.000000 0.000000 0.000000
# 3 -0.005575 -0.003722 0.012929 0.000000 0.000000 0.000000
# 4 0.000000 0.000000 0.000000 0.032196 0.000000 0.000000
# 5 0.000000 0.000000 0.000000 0.000000 0.021764 0.000000
# 6 0.000000 0.000000 0.000000 0.000000 0.000000 0.028249
#
#
# Mechanical properties :
#
#
# Convention : Reuss Voigt Hill
#
# Bulk Modulus (GPa) = 67.14373 70.22858 68.68615
# Shear Modulus (GPa) = 34.15537 35.87411 35.01474
#
# Velocity S-wave (km/s) = 3.99991 4.09931 4.04992
# Velocity P-wave (km/s) = 7.26528 7.43658 7.35143
#
# Compressibility (1/GPa) = 0.01489342
#
# Stress axis : x y z
#
# Youngs Moduli (GPa) = 66.61249 109.71735 77.34709
#
# Poissons Ratio (x) = 0.19577 0.43119
# Poissons Ratio (y) = 0.11886 0.28788
# Poissons Ratio (z) = 0.37135 0.40835
#
# Static dielectric constant tensor:
#      x y z
#    x 1.863040 0.000000 0.000000 
#    y 0.000000 1.789320 0.000000 
#    z 0.000000 0.000000 1.763130 
# 
# From -- ./inp_files/52002.got.cif
#   From: 2010.05.17/outbox.cif.g08.bks.cpg/sg22_27_cif.got.tgz:52002.got - 2010.06.03 23:40:54.
