data_PCOD9328774
_publ_section_title
;
Structure prediction by ZEFSAII (Michael W. Deem and Ramdas Pophale) SiO2 
 PCOD9328774
Probable space group: F 2 2 2
;
_chemical_formula_sum "Si O2"
_cell_formula_units_Z 96
_cell_length_a 20.963174
_cell_length_b 15.381329
_cell_length_c 12.572452
_cell_angle_alpha 90.000000
_cell_angle_beta 90.000000
_cell_angle_gamma 90.000000
_cell_volume 4053.879982
_symmetry_space_group_name_H-M "F 2 2 2"
_symmetry_group_IT_number 22
_symmetry_cell_setting 'orthorhombic'
loop_
_space_group_symop_operation_xyz
x,y,z
-x,-y,z
x,-y,-z
-x,y,-z
x,1/2+y,1/2+z
-x,1/2-y,1/2+z
x,1/2-y,1/2-z
-x,1/2+y,1/2-z
1/2+x,y,1/2+z
1/2-x,-y,1/2+z
1/2+x,-y,1/2-z
1/2-x,y,1/2-z
1/2+x,1/2+y,z
1/2-x,1/2-y,z
1/2+x,1/2-y,-z
1/2-x,1/2+y,-z
loop_
_atom_site_type_symbol
_atom_site_label
_atom_site_fract_x
_atom_site_fract_y
_atom_site_fract_z
Si Si1 0.143810 0.850203 0.764919
Si Si2 0.892968 0.439609 0.401437
Si Si3 0.185174 0.804977 0.992481
Si Si4 0.319084 0.014274 0.797017
Si Si5 0.383634 0.189046 0.856082
Si Si6 0.002454 0.603513 0.249611
O O1 0.160811 0.750000 0.750000
O O2 0.174325 0.912501 0.672861
O O3 0.067240 0.857855 0.761759
O O4 0.173385 0.855848 0.883468
O O5 0.908948 0.500000 0.500000
O O6 0.830403 0.382169 0.424695
O O7 0.870411 0.491828 0.298720
O O8 0.955764 0.390615 0.358888
O O9 0.250000 0.750000 0.998967
O O10 0.130286 0.738844 0.034727
O O11 0.250000 0.027319 0.750000
O O12 0.341391 0.100195 0.857707
O O13 0.367318 0.250000 0.750000
O O14 0.455112 0.155980 0.835179
O O15 0.000000 0.500000 0.223126
#
# Coordination Sequence:
#
# PCOD9328774 Si02
#       6
#    16  16  16  16  16  16
#     4  12  28  45  68  98 138 194 233 286 345 417
#     4  11  21  41  69 105 128 173 227 297 343 401
#     4  12  26  43  68 106 141 174 230 286 351 419
#     4  11  23  41  68  97 138 177 227 281 349 415
#     4  11  22  42  71 106 136 177 222 296 353 408
#     4  11  21  45  69 100 139 173 237 289 352 415
#
# _framework density 23.681016
#
# number of rings (size 3 to 8) (size 9 to 14) (size 15 to 20)
#    0.000    0.667    8.333    1.500    2.333    2.333 
#    0.000    0.833    0.000    1.000    0.000    0.000 
#    0.000    0.000    0.000    0.000    0.000    0.000 
#
# Total GULP energy -133697.551080 kJ/mol
# GULP energy per Si atom -5570.731295 kJ/mol
# Density = 2.362712 g / cm^3
# Si number density = 23.681016 Si / 1000 Ang^3
#
#
#
# Elastic Constant Matrix: (Units=GPa)
#
#
# Indices 1 2 3 4 5 6 
#
# 1 110.3508 13.9946 -5.4691 0.0000 0.0000 0.0000
# 2 13.9946 109.3395 -1.6993 0.0000 0.0000 0.0000
# 3 -5.4691 -1.6993 12.9745 0.0000 0.0000 0.0000
# 4 0.0000 0.0000 0.0000 37.5509 0.0000 0.0000
# 5 0.0000 0.0000 0.0000 0.0000 6.4384 0.0000
# 6 0.0000 0.0000 0.0000 0.0000 0.0000 203.5235
#
#
#
# Elastic Compliance Matrix: (Units=1/GPa)
#
#
# Indices 1 2 3 4 5 6 
#
# 1 0.009396 -0.001143 0.003811 0.000000 0.000000 0.000000
# 2 -0.001143 0.009304 0.000737 0.000000 0.000000 0.000000
# 3 0.003811 0.000737 0.078777 0.000000 0.000000 0.000000
# 4 0.000000 0.000000 0.000000 0.026630 0.000000 0.000000
# 5 0.000000 0.000000 0.000000 0.000000 0.155317 0.000000
# 6 0.000000 0.000000 0.000000 0.000000 0.000000 0.004913
#
#
# Mechanical properties :
#
#
# Convention : Reuss Voigt Hill
#
# Bulk Modulus (GPa) = 9.58911 27.36859 18.47885
# Shear Modulus (GPa) = 16.01067 64.55847 40.28457
#
# Velocity S-wave (km/s) = 2.60301 5.22694 4.12895
# Velocity P-wave (km/s) = 3.61832 6.92893 5.52731
#
# Compressibility (1/GPa) = 0.10428492
#
# Stress axis : x y z
#
# Youngs Moduli (GPa) = 106.42962 107.48508 12.69400
#
# Poissons Ratio (x) = 0.12290 -0.04838
# Poissons Ratio (y) = 0.12169 -0.00935
# Poissons Ratio (z) = -0.40559 -0.07917
#
# Static dielectric constant tensor:
#      x y z
#    x 1.874280 0.000000 0.000000 
#    y 0.000000 2.928180 0.000000 
#    z 0.000000 0.000000 0.284900 
# 
# From -- ./inp_files/31522.got.cif
#   From: 2010.05.17/outbox.cif.g08.bks.cpg/sg22_16_cif.got.tgz:31522.got - 2010.06.03 23:40:54.
