data_PCOD9328352
_publ_section_title
;
Structure prediction by ZEFSAII (Michael W. Deem and Ramdas Pophale) SiO2 
 PCOD9328352
Probable space group: F 2 2 2
;
_chemical_formula_sum "Si O2"
_cell_formula_units_Z 80
_cell_length_a 31.334345
_cell_length_b 11.669657
_cell_length_c 11.384599
_cell_angle_alpha 90.000000
_cell_angle_beta 90.000000
_cell_angle_gamma 90.000000
_cell_volume 4162.904521
_symmetry_space_group_name_H-M "F 2 2 2"
_symmetry_group_IT_number 22
_symmetry_cell_setting 'orthorhombic'
loop_
_space_group_symop_operation_xyz
x,y,z
-x,-y,z
x,-y,-z
-x,y,-z
x,1/2+y,1/2+z
-x,1/2-y,1/2+z
x,1/2-y,1/2-z
-x,1/2+y,1/2-z
1/2+x,y,1/2+z
1/2-x,-y,1/2+z
1/2+x,-y,1/2-z
1/2-x,y,1/2-z
1/2+x,1/2+y,z
1/2-x,1/2-y,z
1/2+x,1/2-y,-z
1/2-x,1/2+y,-z
loop_
_atom_site_type_symbol
_atom_site_label
_atom_site_fract_x
_atom_site_fract_y
_atom_site_fract_z
Si Si1 0.600274 0.362797 0.187740
Si Si2 0.344631 0.000000 0.500000
Si Si3 0.503119 0.635430 0.875518
Si Si4 0.799021 0.612520 0.271333
Si Si5 0.377901 0.552869 0.628492
Si Si6 0.573738 0.750000 0.250000
O O1 0.619884 0.250000 0.250000
O O2 0.550781 0.337650 0.164191
O O3 0.600956 0.464968 0.281056
O O4 0.625536 0.410256 0.073124
O O5 0.317362 0.067328 0.398138
O O6 0.500000 0.500000 0.885224
O O7 0.460190 0.665975 0.808630
O O8 0.500000 0.696680 0.000000
O O9 0.801845 0.750000 0.250000
O O10 0.750000 0.579316 0.250000
O O11 0.829090 0.559128 0.171111
O O12 0.382886 0.500000 0.500000
O O13 0.398137 0.677737 0.657460
#
# Coordination Sequence:
#
# PCOD9328352 Si02
#       6
#    16   8  16  16  16   8
#     4  11  24  41  64  95 125 179 224 265 330 392
#     4  10  24  44  67  96 140 166 222 277 328 404
#     4  11  23  38  61  85 124 171 222 272 316 380
#     4  10  23  44  71 100 129 173 217 275 344 404
#     4  11  26  41  67  95 135 173 217 276 339 397
#     4  12  24  42  61  96 132 176 225 270 332 386
#
# _framework density 19.217351000000001
#
# number of rings (size 3 to 8) (size 9 to 14) (size 15 to 20)
#    0.000    1.200    4.000    1.200    9.800    0.000 
#    0.000    1.000    0.000    5.400    0.000    0.000 
#    0.000    0.000    0.000    0.000    0.000    0.000 
#
# Total GULP energy -111400.429444 kJ/mol
# GULP energy per Si atom -5570.021472 kJ/mol
# Density = 1.917361 g / cm^3
# Si number density = 19.217351 Si / 1000 Ang^3
#
#
#
# Elastic Constant Matrix: (Units=GPa)
#
#
# Indices 1 2 3 4 5 6 
#
# 1 159.3847 42.8626 78.0296 0.0000 0.0000 0.0000
# 2 42.8626 93.0743 52.4733 0.0000 0.0000 0.0000
# 3 78.0296 52.4733 132.5695 0.0000 0.0000 0.0000
# 4 0.0000 0.0000 0.0000 31.1674 0.0000 0.0000
# 5 0.0000 0.0000 0.0000 0.0000 17.1824 0.0000
# 6 0.0000 0.0000 0.0000 0.0000 0.0000 19.5401
#
#
#
# Elastic Compliance Matrix: (Units=1/GPa)
#
#
# Indices 1 2 3 4 5 6 
#
# 1 0.008971 -0.001486 -0.004692 0.000000 0.000000 0.000000
# 2 -0.001486 0.014077 -0.004697 0.000000 0.000000 0.000000
# 3 -0.004692 -0.004697 0.012164 0.000000 0.000000 0.000000
# 4 0.000000 0.000000 0.000000 0.032085 0.000000 0.000000
# 5 0.000000 0.000000 0.000000 0.000000 0.058199 0.000000
# 6 0.000000 0.000000 0.000000 0.000000 0.000000 0.051177
#
#
# Mechanical properties :
#
#
# Convention : Reuss Voigt Hill
#
# Bulk Modulus (GPa) = 74.28710 81.30663 77.79686
# Shear Modulus (GPa) = 24.64158 27.68887 26.16522
#
# Velocity S-wave (km/s) = 3.58475 3.79994 3.69391
# Velocity P-wave (km/s) = 7.47490 7.85198 7.66575
#
# Compressibility (1/GPa) = 0.01346129
#
# Stress axis : x y z
#
# Youngs Moduli (GPa) = 111.47294 71.04015 82.20937
#
# Poissons Ratio (x) = 0.10557 0.38572
# Poissons Ratio (y) = 0.16565 0.38614
# Poissons Ratio (z) = 0.52303 0.33368
#
# Static dielectric constant tensor:
#      x y z
#    x 1.701640 0.000000 0.000000 
#    y 0.000000 1.721680 0.000000 
#    z 0.000000 0.000000 1.809730 
# 
# From -- ./inp_files/25147.got.cif
#   From: 2010.05.17/outbox.cif.g08.bks.cpg/sg22_13_cif.got.tgz:25147.got - 2010.06.03 23:40:54.
