data_PCOD9328799
_publ_section_title
;
Structure prediction by ZEFSAII (Michael W. Deem and Ramdas Pophale) SiO2 
 PCOD9328799
Probable space group: F 2 2 2
;
_chemical_formula_sum "Si O2"
_cell_formula_units_Z 100
_cell_length_a 20.108969
_cell_length_b 28.005556
_cell_length_c 7.821172
_cell_angle_alpha 90.000000
_cell_angle_beta 90.000000
_cell_angle_gamma 90.000000
_cell_volume 4404.593572
_symmetry_space_group_name_H-M "F 2 2 2"
_symmetry_group_IT_number 22
_symmetry_cell_setting 'orthorhombic'
loop_
_space_group_symop_operation_xyz
x,y,z
-x,-y,z
x,-y,-z
-x,y,-z
x,1/2+y,1/2+z
-x,1/2-y,1/2+z
x,1/2-y,1/2-z
-x,1/2+y,1/2-z
1/2+x,y,1/2+z
1/2-x,-y,1/2+z
1/2+x,-y,1/2-z
1/2-x,y,1/2-z
1/2+x,1/2+y,z
1/2-x,1/2-y,z
1/2+x,1/2-y,-z
1/2-x,1/2+y,-z
loop_
_atom_site_type_symbol
_atom_site_label
_atom_site_fract_x
_atom_site_fract_y
_atom_site_fract_z
Si Si1 0.114868 0.601555 0.400063
Si Si2 0.250000 0.750000 0.750000
Si Si3 0.401145 0.946932 0.041633
Si Si4 0.337270 0.324087 0.424926
Si Si5 0.433090 0.192357 0.767413
Si Si6 0.560868 0.875616 0.257832
Si Si7 0.742494 0.415190 0.544793
O O1 0.088395 0.574125 0.231561
O O2 0.112884 0.658748 0.355582
O O3 0.068037 0.596569 0.565174
O O4 0.187196 0.580855 0.450176
O O5 0.297481 0.721264 0.626540
O O6 0.433811 0.911330 0.902591
O O7 0.320824 0.945860 0.014372
O O8 0.423978 0.000000 0.000000
O O9 0.397836 0.314665 0.550905
O O10 0.369602 0.346927 0.256436
O O11 0.285475 0.362369 0.495266
O O12 0.439969 0.250000 0.750000
O O13 0.502475 0.163465 0.751095
O O14 0.750000 0.421075 0.750000
#
# Coordination Sequence:
#
# PCOD9328799 Si02
#       7
#    16   4  16  16  16  16  16
#     4  12  24  47  75 109 154 199 247 321 380 455
#     4  12  24  40  70 108 148 204 254 306 408 458
#     4  11  26  48  80 118 147 199 254 318 393 460
#     4  11  24  43  70 100 153 201 251 322 375 453
#     4  12  29  46  75 111 149 210 263 312 377 471
#     4  11  25  51  71 105 158 194 256 317 382 451
#     4  11  21  46  72 104 155 195 241 317 387 446
#
# _framework density 22.703569999999999
#
# number of rings (size 3 to 8) (size 9 to 14) (size 15 to 20)
#    0.000    0.640    7.200    1.440    5.600    3.200 
#    0.000    1.600    0.000    1.920    0.000    0.000 
#    0.000    0.000    0.000    0.000    0.000    0.000 
#
# Total GULP energy -139643.875467 kJ/mol
# GULP energy per Si atom -5585.755019 kJ/mol
# Density = 2.265190 g / cm^3
# Si number density = 22.703570 Si / 1000 Ang^3
#
#
#
# Elastic Constant Matrix: (Units=GPa)
#
#
# Indices 1 2 3 4 5 6 
#
# 1 105.8659 18.7109 50.0741 -0.0003 -0.0004 -0.0001
# 2 18.7109 135.6775 63.9219 0.0000 0.0002 0.0001
# 3 50.0741 63.9219 172.9947 -0.0009 -0.0010 0.0000
# 4 -0.0003 0.0000 -0.0009 -0.1265 0.0003 0.0001
# 5 -0.0004 0.0002 -0.0010 0.0003 22.9155 0.0002
# 6 -0.0001 0.0001 0.0000 0.0001 0.0002 9.9200
#
#
#
# Elastic Compliance Matrix: (Units=1/GPa)
#
#
# Indices 1 2 3 4 5 6 
#
# 1 0.010944 -0.000020 -0.003160 -0.000002 0.000000 0.000000
# 2 -0.000020 0.008924 -0.003292 0.000022 0.000000 0.000000
# 3 -0.003160 -0.003292 0.007912 -0.000047 0.000000 0.000000
# 4 -0.000002 0.000022 -0.000047 -7.908193 0.000117 0.000085
# 5 0.000000 0.000000 0.000000 0.000117 0.043639 -0.000001
# 6 0.000000 0.000000 0.000000 0.000085 -0.000001 0.100806
#
#
# Mechanical properties :
#
#
# Convention : Reuss Voigt Hill
#
# Bulk Modulus (GPa) = 67.40662 75.55020 71.47841
# Shear Modulus (GPa) = -0.64783 25.33057 12.34137
#
# Velocity S-wave (km/s) = -0.53475 3.34385 2.33402
# Velocity P-wave (km/s) = 5.41969 6.94676 6.23019
#
# Compressibility (1/GPa) = 0.01483534
#
# Stress axis : x y z
#
# Youngs Moduli (GPa) = 91.37135 112.05771 126.39769
#
# Poissons Ratio (x) = 0.00228 0.39946
# Poissons Ratio (y) = 0.00186 0.41604
# Poissons Ratio (z) = 0.28877 0.36884
#
# Static dielectric constant tensor:
#      x y z
#    x 1.867440 0.000000 0.000000 
#    y 0.000000 1.926960 0.000000 
#    z 0.000000 0.000000 1.885560 
# 
# From -- ./inp_files/12964.got.cif
#   From: 2010.05.17/outbox.cif.g08.bks.cpg/sg22_7_cif.got.tgz:12964.got - 2010.06.03 23:40:54.
