data_PCOD9328109
_publ_section_title
;
Structure prediction by ZEFSAII (Michael W. Deem and Ramdas Pophale) SiO2 
 PCOD9328109
Probable space group: F 2 2 2
;
_chemical_formula_sum "Si O2"
_cell_formula_units_Z 120
_cell_length_a 13.709132
_cell_length_b 13.928485
_cell_length_c 33.411396
_cell_angle_alpha 90.000000
_cell_angle_beta 90.000000
_cell_angle_gamma 90.000000
_cell_volume 6379.820514
_symmetry_space_group_name_H-M "F 2 2 2"
_symmetry_group_IT_number 22
_symmetry_cell_setting 'orthorhombic'
loop_
_space_group_symop_operation_xyz
x,y,z
-x,-y,z
x,-y,-z
-x,y,-z
x,1/2+y,1/2+z
-x,1/2-y,1/2+z
x,1/2-y,1/2-z
-x,1/2+y,1/2-z
1/2+x,y,1/2+z
1/2-x,-y,1/2+z
1/2+x,-y,1/2-z
1/2-x,y,1/2-z
1/2+x,1/2+y,z
1/2-x,1/2-y,z
1/2+x,1/2-y,-z
1/2-x,1/2+y,-z
loop_
_atom_site_type_symbol
_atom_site_label
_atom_site_fract_x
_atom_site_fract_y
_atom_site_fract_z
Si Si1 0.082514 0.417585 0.356152
Si Si2 0.221475 0.139047 0.482045
Si Si3 0.725197 0.037681 0.899188
Si Si4 0.500000 0.816452 0.000000
Si Si5 0.715956 0.641312 0.933578
Si Si6 0.979545 0.276559 0.412410
Si Si7 0.866118 0.245584 0.797670
Si Si8 0.963579 0.890999 0.356788
O O1 0.188235 0.457687 0.367398
O O2 0.090988 0.352381 0.316536
O O3 0.000000 0.500000 0.353828
O O4 0.062184 0.341131 0.391964
O O5 0.250000 0.250000 0.475382
O O6 0.247774 0.084377 0.441970
O O7 0.105525 0.130671 0.494080
O O8 0.283182 0.107513 0.520614
O O9 0.631225 0.091516 0.883886
O O10 0.712298 0.926080 0.909174
O O11 0.492352 0.757243 0.041658
O O12 0.750000 0.750000 0.935282
O O13 0.611618 0.650750 0.913342
O O14 0.971747 0.183156 0.383442
O O15 0.874736 0.250000 0.750000
O O16 0.750000 0.250000 0.808038
O O17 0.925537 0.332733 0.818230
O O18 0.000000 0.000000 0.348601
#
# Coordination Sequence:
#
# PCOD9328109 Si02
#       8
#    16  16  16   8  16  16  16  16
#     4  11  23  40  64  94 121 165 201 251 309 372
#     4  11  23  36  57  80 119 164 217 268 321 350
#     4  12  23  38  58  90 122 160 209 264 300 367
#     4  12  20  38  56  78 116 170 210 270 306 354
#     4  11  22  39  53  76 118 168 208 262 309 349
#     4  11  22  39  57  81 121 163 216 253 309 358
#     4  10  22  43  71 100 128 156 192 243 311 383
#     4  11  24  40  66  95 121 161 206 255 304 367
#
# _framework density 18.809305999999999
#
# number of rings (size 3 to 8) (size 9 to 14) (size 15 to 20)
#    0.000    0.933    6.667    2.000    1.867    0.533 
#    0.000    1.333    0.000    0.000    0.000    0.933 
#    0.000    0.000    0.000    0.000    0.000    0.000 
#
# Total GULP energy -167227.423251 kJ/mol
# GULP energy per Si atom -5574.247442 kJ/mol
# Density = 1.876650 g / cm^3
# Si number density = 18.809306 Si / 1000 Ang^3
#
#
#
# Elastic Constant Matrix: (Units=GPa)
#
#
# Indices 1 2 3 4 5 6 
#
# 1 60.3430 18.3416 21.6221 0.0000 0.0000 0.0000
# 2 18.3416 102.8217 46.0152 0.0000 0.0000 0.0000
# 3 21.6221 46.0152 101.9158 0.0000 0.0000 0.0000
# 4 0.0000 0.0000 0.0000 5.8645 0.0000 0.0000
# 5 0.0000 0.0000 0.0000 0.0000 23.0339 0.0000
# 6 0.0000 0.0000 0.0000 0.0000 0.0000 21.4808
#
#
#
# Elastic Compliance Matrix: (Units=1/GPa)
#
#
# Indices 1 2 3 4 5 6 
#
# 1 0.018229 -0.001906 -0.003007 0.000000 0.000000 0.000000
# 2 -0.001906 0.012388 -0.005189 0.000000 0.000000 0.000000
# 3 -0.003007 -0.005189 0.012793 0.000000 0.000000 0.000000
# 4 0.000000 0.000000 0.000000 0.170516 0.000000 0.000000
# 5 0.000000 0.000000 0.000000 0.000000 0.043414 0.000000
# 6 0.000000 0.000000 0.000000 0.000000 0.000000 0.046553
#
#
# Mechanical properties :
#
#
# Convention : Reuss Voigt Hill
#
# Bulk Modulus (GPa) = 43.09236 48.55979 45.82608
# Shear Modulus (GPa) = 15.06791 22.01596 18.54194
#
# Velocity S-wave (km/s) = 2.83342 3.42494 3.14313
# Velocity P-wave (km/s) = 5.80209 6.44308 6.13097
#
# Compressibility (1/GPa) = 0.02320597
#
# Stress axis : x y z
#
# Youngs Moduli (GPa) = 54.85866 80.72566 78.17018
#
# Poissons Ratio (x) = 0.15387 0.23504
# Poissons Ratio (y) = 0.10457 0.40560
# Poissons Ratio (z) = 0.16494 0.41886
#
# Static dielectric constant tensor:
#      x y z
#    x 2.078700 0.000000 0.000000 
#    y 0.000000 1.700340 0.000000 
#    z 0.000000 0.000000 1.624770 
# 
# From -- ./inp_files/29872.got.cif
#   From: 2010.05.17/outbox.cif.g08.bks.cpg/sg22_15_cif.got.tgz:29872.got - 2010.06.03 23:40:54.
