data_PCOD9328798
_publ_section_title
;
Structure prediction by ZEFSAII (Michael W. Deem and Ramdas Pophale) SiO2 
 PCOD9328798
Probable space group: F 2 2 2
;
_chemical_formula_sum "Si O2"
_cell_formula_units_Z 88
_cell_length_a 24.848632
_cell_length_b 11.368697
_cell_length_c 13.031311
_cell_angle_alpha 90.000000
_cell_angle_beta 90.000000
_cell_angle_gamma 90.000000
_cell_volume 3681.300635
_symmetry_space_group_name_H-M "F 2 2 2"
_symmetry_group_IT_number 22
_symmetry_cell_setting 'orthorhombic'
loop_
_space_group_symop_operation_xyz
x,y,z
-x,-y,z
x,-y,-z
-x,y,-z
x,1/2+y,1/2+z
-x,1/2-y,1/2+z
x,1/2-y,1/2-z
-x,1/2+y,1/2-z
1/2+x,y,1/2+z
1/2-x,-y,1/2+z
1/2+x,-y,1/2-z
1/2-x,y,1/2-z
1/2+x,1/2+y,z
1/2-x,1/2-y,z
1/2+x,1/2-y,-z
1/2-x,1/2+y,-z
loop_
_atom_site_type_symbol
_atom_site_label
_atom_site_fract_x
_atom_site_fract_y
_atom_site_fract_z
Si Si1 0.537236 0.386084 0.212827
Si Si2 0.000000 0.167001 0.000000
Si Si3 0.373975 0.551766 0.355363
Si Si4 0.401175 0.192538 0.057175
Si Si5 0.252391 0.576393 0.137690
Si Si6 0.794733 0.337724 0.580361
O O1 0.500000 0.500000 0.249464
O O2 0.523992 0.250000 0.250000
O O3 0.533720 0.394712 0.089488
O O4 0.598638 0.405450 0.250960
O O5 0.042426 0.244174 0.062783
O O6 0.396495 0.639213 0.442599
O O7 0.394837 0.420249 0.371814
O O8 0.310514 0.548824 0.378859
O O9 0.352980 0.281471 0.080586
O O10 0.250000 0.631395 0.250000
O O11 0.287720 0.458105 0.141508
O O12 0.276874 0.639518 0.038422
O O13 0.750000 0.250000 0.622897
#
# Coordination Sequence:
#
# PCOD9328798 Si02
#       6
#    16   8  16  16  16  16
#     4  12  27  50  75 111 157 201 270 329 398 480
#     4  12  27  47  74 112 151 206 257 336 405 462
#     4  11  23  43  75 110 145 201 267 317 388 488
#     4  11  23  45  77 104 153 207 258 328 394 472
#     4  11  25  41  70 111 149 196 253 314 398 467
#     4  11  21  46  69 103 153 195 247 320 388 465
#
# _framework density 23.904595
#
# number of rings (size 3 to 8) (size 9 to 14) (size 15 to 20)
#    0.000    0.727    5.455    2.455    2.545    2.909 
#    3.273    1.818    0.000    0.000    0.000    0.000 
#    0.000    0.000    0.000    0.000    0.000    0.000 
#
# Total GULP energy -122919.514954 kJ/mol
# GULP energy per Si atom -5587.250680 kJ/mol
# Density = 2.385019 g / cm^3
# Si number density = 23.904595 Si / 1000 Ang^3
#
#
#
# Elastic Constant Matrix: (Units=GPa)
#
#
# Indices 1 2 3 4 5 6 
#
# 1 122.3735 23.9216 13.7490 0.0000 0.0000 0.0000
# 2 23.9216 118.2709 15.9719 0.0000 0.0000 0.0000
# 3 13.7490 15.9719 115.5554 0.0000 0.0000 0.0000
# 4 0.0000 0.0000 0.0000 -25.9648 0.0000 0.0000
# 5 0.0000 0.0000 0.0000 0.0000 30.8755 0.0000
# 6 0.0000 0.0000 0.0000 0.0000 0.0000 10.5486
#
#
#
# Elastic Compliance Matrix: (Units=1/GPa)
#
#
# Indices 1 2 3 4 5 6 
#
# 1 0.008579 -0.001628 -0.000796 0.000000 0.000000 0.000000
# 2 -0.001628 0.008925 -0.001040 0.000000 0.000000 0.000000
# 3 -0.000796 -0.001040 0.008892 0.000000 0.000000 0.000000
# 4 0.000000 0.000000 0.000000 -0.038514 0.000000 0.000000
# 5 0.000000 0.000000 0.000000 0.000000 0.032388 0.000000
# 6 0.000000 0.000000 0.000000 0.000000 0.000000 0.094799
#
#
# Mechanical properties :
#
#
# Convention : Reuss Voigt Hill
#
# Bulk Modulus (GPa) = 51.36249 51.49830 51.43040
# Shear Modulus (GPa) = 38.91441 23.26235 31.08838
#
# Velocity S-wave (km/s) = 4.03911 3.12289 3.61018
# Velocity P-wave (km/s) = 6.57918 5.88161 6.24015
#
# Compressibility (1/GPa) = 0.01946946
#
# Stress axis : x y z
#
# Youngs Moduli (GPa) = 116.55941 112.04684 112.45715
#
# Poissons Ratio (x) = 0.18239 0.08949
# Poissons Ratio (y) = 0.18973 0.11694
# Poissons Ratio (z) = 0.09276 0.11652
#
# Static dielectric constant tensor:
#      x y z
#    x 1.838760 0.000000 0.000000 
#    y 0.000000 1.987940 0.000000 
#    z 0.000000 0.000000 1.917940 
# 
# From -- ./inp_files/32329.got.cif
#   From: 2010.05.17/outbox.cif.g08.bks.cpg/sg22_17_cif.got.tgz:32329.got - 2010.06.03 23:40:54.
