data_PCOD9328933
_publ_section_title
;
Structure prediction by ZEFSAII (Michael W. Deem and Ramdas Pophale) SiO2 
 PCOD9328933
Probable space group: F 2 2 2
;
_chemical_formula_sum "Si O2"
_cell_formula_units_Z 96
_cell_length_a 23.287147
_cell_length_b 17.338751
_cell_length_c 11.487240
_cell_angle_alpha 90.000000
_cell_angle_beta 90.000000
_cell_angle_gamma 90.000000
_cell_volume 4638.203393
_symmetry_space_group_name_H-M "F 2 2 2"
_symmetry_group_IT_number 22
_symmetry_cell_setting 'orthorhombic'
loop_
_space_group_symop_operation_xyz
x,y,z
-x,-y,z
x,-y,-z
-x,y,-z
x,1/2+y,1/2+z
-x,1/2-y,1/2+z
x,1/2-y,1/2-z
-x,1/2+y,1/2-z
1/2+x,y,1/2+z
1/2-x,-y,1/2+z
1/2+x,-y,1/2-z
1/2-x,y,1/2-z
1/2+x,1/2+y,z
1/2-x,1/2-y,z
1/2+x,1/2-y,-z
1/2-x,1/2+y,-z
loop_
_atom_site_type_symbol
_atom_site_label
_atom_site_fract_x
_atom_site_fract_y
_atom_site_fract_z
Si Si1 0.695999 0.634672 0.987515
Si Si2 0.373112 0.611002 0.249301
Si Si3 0.321816 0.314084 0.538001
Si Si4 0.814619 0.954108 0.220571
Si Si5 0.388587 0.671134 0.677925
Si Si6 0.996038 0.407719 0.138733
O O1 0.652732 0.621470 0.879923
O O2 0.689889 0.726985 0.005369
O O3 0.765296 0.631816 0.972736
O O4 0.680546 0.572790 0.086566
O O5 0.339493 0.672142 0.329369
O O6 0.354703 0.521844 0.269278
O O7 0.439192 0.617545 0.289442
O O8 0.377351 0.331640 0.460045
O O9 0.750000 0.976906 0.250000
O O10 0.832643 0.875349 0.281802
O O11 0.389623 0.750000 0.750000
O O12 0.448146 0.628367 0.699872
O O13 0.000000 0.500000 0.144182
O O14 0.000000 0.387322 0.000000
#
# Coordination Sequence:
#
# PCOD9328933 Si02
#       6
#    16  16  16  16  16  16
#     4  11  24  42  67 103 144 183 226 289 370 434
#     4  12  25  43  68 100 143 182 237 296 358 432
#     4  11  23  42  69 101 142 183 229 290 361 440
#     4  12  24  41  70 104 142 182 231 295 368 438
#     4  12  24  43  71 102 133 179 246 291 344 432
#     4  11  24  46  71  94 132 188 240 296 356 423
#
# _framework density 20.697669000000001
#
# number of rings (size 3 to 8) (size 9 to 14) (size 15 to 20)
#    0.000    0.500    6.667    2.500    0.000    3.667 
#    0.000    0.833    0.000    0.000    0.000    0.000 
#    0.000    0.000    0.000    0.000    0.000    0.000 
#
# Total GULP energy -133626.975070 kJ/mol
# GULP energy per Si atom -5567.790628 kJ/mol
# Density = 2.065056 g / cm^3
# Si number density = 20.697669 Si / 1000 Ang^3
#
#
#
# Elastic Constant Matrix: (Units=GPa)
#
#
# Indices 1 2 3 4 5 6 
#
# 1 121.1663 3.2559 21.1288 0.0000 0.0000 0.0000
# 2 3.2559 45.5304 1.0331 0.0000 0.0000 0.0000
# 3 21.1288 1.0331 98.9748 0.0000 0.0000 0.0000
# 4 0.0000 0.0000 0.0000 29.7547 0.0000 0.0000
# 5 0.0000 0.0000 0.0000 0.0000 27.5376 0.0000
# 6 0.0000 0.0000 0.0000 0.0000 0.0000 34.1024
#
#
#
# Elastic Compliance Matrix: (Units=1/GPa)
#
#
# Indices 1 2 3 4 5 6 
#
# 1 0.008587 -0.000573 -0.001827 0.000000 0.000000 0.000000
# 2 -0.000573 0.022007 -0.000107 0.000000 0.000000 0.000000
# 3 -0.001827 -0.000107 0.010495 0.000000 0.000000 0.000000
# 4 0.000000 0.000000 0.000000 0.033608 0.000000 0.000000
# 5 0.000000 0.000000 0.000000 0.000000 0.036314 0.000000
# 6 0.000000 0.000000 0.000000 0.000000 0.000000 0.029323
#
#
# Mechanical properties :
#
#
# Convention : Reuss Voigt Hill
#
# Bulk Modulus (GPa) = 27.72069 35.16745 31.44407
# Shear Modulus (GPa) = 31.77156 34.29585 33.03371
#
# Velocity S-wave (km/s) = 3.92220 4.07503 3.99934
# Velocity P-wave (km/s) = 5.82527 6.25852 6.04578
#
# Compressibility (1/GPa) = 0.03607414
#
# Stress axis : x y z
#
# Youngs Moduli (GPa) = 116.45341 45.44064 95.28565
#
# Poissons Ratio (x) = 0.02602 0.17410
# Poissons Ratio (y) = 0.06668 0.01024
# Poissons Ratio (z) = 0.21278 0.00488
#
# Static dielectric constant tensor:
#      x y z
#    x 1.712290 0.000000 0.000000 
#    y 0.000000 1.825760 0.000000 
#    z 0.000000 0.000000 1.517270 
# 
# From -- ./inp_files/21607.got.cif
#   From: 2010.05.17/outbox.cif.g08.bks.cpg/sg22_11_cif.got.tgz:21607.got - 2010.06.03 23:40:54.
