data_PCOD9328303
_publ_section_title
;
Structure prediction by ZEFSAII (Michael W. Deem and Ramdas Pophale) SiO2 
 PCOD9328303
Probable space group: F 2 2 2
;
_chemical_formula_sum "Si O2"
_cell_formula_units_Z 108
_cell_length_a 25.142397
_cell_length_b 14.121119
_cell_length_c 13.542231
_cell_angle_alpha 90.000000
_cell_angle_beta 90.000000
_cell_angle_gamma 90.000000
_cell_volume 4808.017172
_symmetry_space_group_name_H-M "F 2 2 2"
_symmetry_group_IT_number 22
_symmetry_cell_setting 'orthorhombic'
loop_
_space_group_symop_operation_xyz
x,y,z
-x,-y,z
x,-y,-z
-x,y,-z
x,1/2+y,1/2+z
-x,1/2-y,1/2+z
x,1/2-y,1/2-z
-x,1/2+y,1/2-z
1/2+x,y,1/2+z
1/2-x,-y,1/2+z
1/2+x,-y,1/2-z
1/2-x,y,1/2-z
1/2+x,1/2+y,z
1/2-x,1/2-y,z
1/2+x,1/2-y,-z
1/2-x,1/2+y,-z
loop_
_atom_site_type_symbol
_atom_site_label
_atom_site_fract_x
_atom_site_fract_y
_atom_site_fract_z
Si Si1 0.626887 0.946276 0.199748
Si Si2 0.160901 0.109555 0.826328
Si Si3 0.558503 0.673938 0.161511
Si Si4 0.395519 0.172620 0.022595
Si Si5 0.250000 0.250000 0.750000
Si Si6 0.555845 0.778981 0.636952
Si Si7 0.214012 0.340031 0.090893
Si Si8 0.787643 0.000000 0.000000
O O1 0.588813 0.913295 0.289020
O O2 0.597395 0.917803 0.096356
O O3 0.679476 0.880093 0.183820
O O4 0.645907 0.051486 0.226148
O O5 0.209465 0.181443 0.808412
O O6 0.109084 0.160612 0.868356
O O7 0.178362 0.036480 0.909106
O O8 0.554996 0.750000 0.250000
O O9 0.592877 0.730565 0.082487
O O10 0.499026 0.664952 0.118973
O O11 0.332128 0.176139 0.008208
O O12 0.434373 0.186088 0.930540
O O13 0.553940 0.750000 0.750000
O O14 0.250000 0.250000 0.113111
O O15 0.250956 0.419444 0.045921
#
# Coordination Sequence:
#
# PCOD9328303 Si02
#       8
#    16  16  16  16   4  16  16   8
#     4   9  23  43  68 103 139 182 249 303 364 447
#     4  12  27  46  67 103 145 193 243 318 367 453
#     4   9  19  41  70 104 140 180 237 307 355 449
#     4   9  21  41  66 102 134 186 237 290 359 448
#     4  12  28  48  68  92 150 202 244 300 386 444
#     4  11  23  41  71 103 139 193 238 290 383 448
#     4  10  23  42  70 100 140 193 240 298 369 439
#     4  12  28  42  66 107 153 184 260 306 374 450
#
# _framework density 22.462481
#
# number of rings (size 3 to 8) (size 9 to 14) (size 15 to 20)
#    0.889    0.889    0.741    2.222    7.259    1.778 
#    2.667    0.000    0.000    1.778    0.000    0.000 
#    0.000    0.000    0.000    0.000    0.000    0.000 
#
# Total GULP energy -150576.927502 kJ/mol
# GULP energy per Si atom -5576.923241 kJ/mol
# Density = 2.241136 g / cm^3
# Si number density = 22.462481 Si / 1000 Ang^3
#
#
#
# Elastic Constant Matrix: (Units=GPa)
#
#
# Indices 1 2 3 4 5 6 
#
# 1 103.5556 49.8051 12.4666 0.0000 0.0000 0.0000
# 2 49.8051 77.6669 32.6781 0.0000 0.0000 0.0000
# 3 12.4666 32.6781 94.1006 0.0000 0.0000 0.0000
# 4 0.0000 0.0000 0.0000 24.9862 0.0000 0.0000
# 5 0.0000 0.0000 0.0000 0.0000 17.1129 0.0000
# 6 0.0000 0.0000 0.0000 0.0000 0.0000 -18.9815
#
#
#
# Elastic Compliance Matrix: (Units=1/GPa)
#
#
# Indices 1 2 3 4 5 6 
#
# 1 0.014140 -0.009696 0.001494 0.000000 0.000000 0.000000
# 2 -0.009696 0.021727 -0.006261 0.000000 0.000000 0.000000
# 3 0.001494 -0.006261 0.012603 0.000000 0.000000 0.000000
# 4 0.000000 0.000000 0.000000 0.040022 0.000000 0.000000
# 5 0.000000 0.000000 0.000000 0.000000 0.058436 0.000000
# 6 0.000000 0.000000 0.000000 0.000000 0.000000 -0.052683
#
#
# Mechanical properties :
#
#
# Convention : Reuss Voigt Hill
#
# Bulk Modulus (GPa) = 51.16442 51.69140 51.42791
# Shear Modulus (GPa) = 38.55455 16.64841 27.60148
#
# Velocity S-wave (km/s) = 4.14744 2.72539 3.50920
# Velocity P-wave (km/s) = 6.76477 5.74160 6.27408
#
# Compressibility (1/GPa) = 0.01954483
#
# Stress axis : x y z
#
# Youngs Moduli (GPa) = 70.72052 46.02474 79.34523
#
# Poissons Ratio (x) = 0.44626 -0.11853
# Poissons Ratio (y) = 0.68571 0.49676
# Poissons Ratio (z) = -0.10564 0.28815
#
# Static dielectric constant tensor:
#      x y z
#    x 1.911920 0.000000 0.000000 
#    y 0.000000 1.735890 0.000000 
#    z 0.000000 0.000000 1.987460 
# 
# From -- ./inp_files/32540.got.cif
#   From: 2010.05.17/outbox.cif.g08.bks.cpg/sg22_17_cif.got.tgz:32540.got - 2010.06.03 23:40:54.
