data_PCOD9328040
_publ_section_title
;
Structure prediction by ZEFSAII (Michael W. Deem and Ramdas Pophale) SiO2 
 PCOD9328040
Probable space group: F 2 2 2
;
_chemical_formula_sum "Si O2"
_cell_formula_units_Z 80
_cell_length_a 16.764185
_cell_length_b 8.228019
_cell_length_c 27.820988
_cell_angle_alpha 90.000000
_cell_angle_beta 90.000000
_cell_angle_gamma 90.000000
_cell_volume 3837.516711
_symmetry_space_group_name_H-M "F 2 2 2"
_symmetry_group_IT_number 22
_symmetry_cell_setting 'orthorhombic'
loop_
_space_group_symop_operation_xyz
x,y,z
-x,-y,z
x,-y,-z
-x,y,-z
x,1/2+y,1/2+z
-x,1/2-y,1/2+z
x,1/2-y,1/2-z
-x,1/2+y,1/2-z
1/2+x,y,1/2+z
1/2-x,-y,1/2+z
1/2+x,-y,1/2-z
1/2-x,y,1/2-z
1/2+x,1/2+y,z
1/2-x,1/2-y,z
1/2+x,1/2-y,-z
1/2-x,1/2+y,-z
loop_
_atom_site_type_symbol
_atom_site_label
_atom_site_fract_x
_atom_site_fract_y
_atom_site_fract_z
Si Si1 0.987394 0.308910 0.056504
Si Si2 0.254542 0.443024 0.859070
Si Si3 0.169189 0.326893 0.197136
Si Si4 0.072436 0.389400 0.363136
Si Si5 0.684469 0.384546 0.454725
O O1 0.893046 0.287230 0.063622
O O2 0.000000 0.500000 0.068500
O O3 0.042637 0.187179 0.086576
O O4 0.000000 0.285960 0.000000
O O5 0.250000 0.250000 0.860948
O O6 0.196750 0.491756 0.814076
O O7 0.345789 0.506695 0.859827
O O8 0.215029 0.493348 0.910124
O O9 0.165275 0.250000 0.250000
O O10 0.250000 0.250000 0.173925
O O11 0.092096 0.266899 0.169619
O O12 0.000000 0.500000 0.345095
O O13 0.664989 0.500000 0.500000
O O14 0.750000 0.250000 0.468564
#
# Coordination Sequence:
#
# PCOD9328040 Si02
#       5
#    16  16  16  16  16
#     4  11  23  41  59  87 124 170 218 269 330 385
#     4  10  22  42  66  95 129 175 220 276 329 396
#     4   9  20  41  69  95 125 168 220 271 336 394
#     4  11  23  40  62  90 132 165 216 270 334 385
#     4  11  23  37  58  88 127 169 227 263 318 388
#
# _framework density 20.846814999999999
#
# number of rings (size 3 to 8) (size 9 to 14) (size 15 to 20)
#    0.000    1.600    2.000    3.600    2.800    1.200 
#    0.000   13.000    0.000    0.000    0.000    0.000 
#    0.000    0.000    0.000    0.000    0.000    0.000 
#
# Total GULP energy -111353.829517 kJ/mol
# GULP energy per Si atom -5567.691476 kJ/mol
# Density = 2.079937 g / cm^3
# Si number density = 20.846815 Si / 1000 Ang^3
#
#
#
# Elastic Constant Matrix: (Units=GPa)
#
#
# Indices 1 2 3 4 5 6 
#
# 1 139.3714 45.5162 49.1918 0.0000 0.0000 0.0000
# 2 45.5162 69.5664 34.9735 0.0000 0.0000 0.0000
# 3 49.1918 34.9735 91.0797 0.0000 0.0000 0.0000
# 4 0.0000 0.0000 0.0000 21.1183 0.0000 0.0000
# 5 0.0000 0.0000 0.0000 0.0000 17.0649 0.0000
# 6 0.0000 0.0000 0.0000 0.0000 0.0000 32.0853
#
#
#
# Elastic Compliance Matrix: (Units=1/GPa)
#
#
# Indices 1 2 3 4 5 6 
#
# 1 0.009983 -0.004735 -0.003573 0.000000 0.000000 0.000000
# 2 -0.004735 0.020060 -0.005145 0.000000 0.000000 0.000000
# 3 -0.003573 -0.005145 0.014885 0.000000 0.000000 0.000000
# 4 0.000000 0.000000 0.000000 0.047352 0.000000 0.000000
# 5 0.000000 0.000000 0.000000 0.000000 0.058600 0.000000
# 6 0.000000 0.000000 0.000000 0.000000 0.000000 0.031167
#
#
# Mechanical properties :
#
#
# Convention : Reuss Voigt Hill
#
# Bulk Modulus (GPa) = 55.49414 62.15339 58.82376
# Shear Modulus (GPa) = 23.26009 25.40942 24.33475
#
# Velocity S-wave (km/s) = 3.34393 3.49501 3.42030
# Velocity P-wave (km/s) = 6.44879 6.79455 6.62392
#
# Compressibility (1/GPa) = 0.01801992
#
# Stress axis : x y z
#
# Youngs Moduli (GPa) = 100.17321 49.85164 67.18125
#
# Poissons Ratio (x) = 0.23605 0.24007
# Poissons Ratio (y) = 0.47432 0.34566
# Poissons Ratio (z) = 0.35796 0.25650
#
# Static dielectric constant tensor:
#      x y z
#    x 1.778140 0.000000 0.000000 
#    y 0.000000 1.992110 0.000000 
#    z 0.000000 0.000000 1.850800 
# 
# From -- ./inp_files/14632.got.cif
#   From: 2010.05.17/outbox.cif.g08.bks.cpg/sg22_8_cif.got.tgz:14632.got - 2010.06.03 23:40:54.
