data_PCOD9328255
_publ_section_title
;
Structure prediction by ZEFSAII (Michael W. Deem and Ramdas Pophale) SiO2 
 PCOD9328255
Probable space group: F 2 2 2
;
_chemical_formula_sum "Si O2"
_cell_formula_units_Z 88
_cell_length_a 12.680684
_cell_length_b 17.886923
_cell_length_c 19.299589
_cell_angle_alpha 90.000000
_cell_angle_beta 90.000000
_cell_angle_gamma 90.000000
_cell_volume 4377.502251
_symmetry_space_group_name_H-M "F 2 2 2"
_symmetry_group_IT_number 22
_symmetry_cell_setting 'orthorhombic'
loop_
_space_group_symop_operation_xyz
x,y,z
-x,-y,z
x,-y,-z
-x,y,-z
x,1/2+y,1/2+z
-x,1/2-y,1/2+z
x,1/2-y,1/2-z
-x,1/2+y,1/2-z
1/2+x,y,1/2+z
1/2-x,-y,1/2+z
1/2+x,-y,1/2-z
1/2-x,y,1/2-z
1/2+x,1/2+y,z
1/2-x,1/2-y,z
1/2+x,1/2-y,-z
1/2-x,1/2+y,-z
loop_
_atom_site_type_symbol
_atom_site_label
_atom_site_fract_x
_atom_site_fract_y
_atom_site_fract_z
Si Si1 0.500000 0.905186 0.500000
Si Si2 0.724853 0.908677 0.174052
Si Si3 0.651560 0.704668 0.083312
Si Si4 0.529696 0.694376 0.317185
Si Si5 0.797767 0.462039 0.428173
Si Si6 0.213693 0.164053 0.672326
O O1 0.411868 0.854433 0.537741
O O2 0.422066 0.947307 0.445067
O O3 0.750000 0.934248 0.250000
O O4 0.792817 0.837966 0.147388
O O5 0.607271 0.876475 0.180403
O O6 0.760897 0.974560 0.124704
O O7 0.750000 0.750000 0.049387
O O8 0.565141 0.758886 0.115756
O O9 0.539632 0.750000 0.250000
O O10 0.411786 0.666417 0.324023
O O11 0.757069 0.500000 0.500000
O O12 0.754782 0.386834 0.391233
O O13 0.250000 0.139405 0.750000
O O14 0.250000 0.250000 0.663277
#
# Coordination Sequence:
#
# PCOD9328255 Si02
#       6
#     8  16  16  16  16  16
#     4  12  25  46  72  96 148 201 240 302 363 436
#     4  11  23  42  69 100 143 188 239 303 366 445
#     4  10  23  40  69 106 138 185 239 295 364 443
#     4  11  21  42  70 105 140 185 238 309 378 436
#     4  12  27  47  66 104 150 191 247 302 368 452
#     4  11  24  46  76 107 143 190 253 319 374 452
#
# _framework density 20.102789000000001
#
# number of rings (size 3 to 8) (size 9 to 14) (size 15 to 20)
#    0.000    0.909    5.455    1.909    0.000    2.909 
#    0.000    0.909    0.000    0.000    0.000    0.000 
#    0.000    0.000    0.000    0.000    0.000    0.000 
#
# Total GULP energy -122569.328385 kJ/mol
# GULP energy per Si atom -5571.333108 kJ/mol
# Density = 2.005703 g / cm^3
# Si number density = 20.102789 Si / 1000 Ang^3
#
#
#
# Elastic Constant Matrix: (Units=GPa)
#
#
# Indices 1 2 3 4 5 6 
#
# 1 194.5684 65.7815 78.6101 0.0000 0.0000 0.0000
# 2 65.7815 110.0230 70.2709 0.0000 0.0000 0.0000
# 3 78.6101 70.2709 124.4517 0.0000 0.0000 0.0000
# 4 0.0000 0.0000 0.0000 81.9621 0.0000 0.0000
# 5 0.0000 0.0000 0.0000 0.0000 18.7525 0.0000
# 6 0.0000 0.0000 0.0000 0.0000 0.0000 36.8148
#
#
#
# Elastic Compliance Matrix: (Units=1/GPa)
#
#
# Indices 1 2 3 4 5 6 
#
# 1 0.007225 -0.002197 -0.003323 0.000000 0.000000 0.000000
# 2 -0.002197 0.014884 -0.007016 0.000000 0.000000 0.000000
# 3 -0.003323 -0.007016 0.014096 0.000000 0.000000 0.000000
# 4 0.000000 0.000000 0.000000 0.012201 0.000000 0.000000
# 5 0.000000 0.000000 0.000000 0.000000 0.053326 0.000000
# 6 0.000000 0.000000 0.000000 0.000000 0.000000 0.027163
#
#
# Mechanical properties :
#
#
# Convention : Reuss Voigt Hill
#
# Bulk Modulus (GPa) = 89.83267 95.37424 92.60345
# Shear Modulus (GPa) = 31.71007 41.79791 36.75399
#
# Velocity S-wave (km/s) = 3.97595 4.56478 4.28050
# Velocity P-wave (km/s) = 8.11550 8.67924 8.40210
#
# Compressibility (1/GPa) = 0.01113181
#
# Stress axis : x y z
#
# Youngs Moduli (GPa) = 138.40725 67.18624 70.94301
#
# Poissons Ratio (x) = 0.14764 0.23574
# Poissons Ratio (y) = 0.30414 0.49775
# Poissons Ratio (z) = 0.45992 0.47139
#
# Static dielectric constant tensor:
#      x y z
#    x 1.671120 0.000000 0.000000 
#    y 0.000000 1.814940 0.000000 
#    z 0.000000 0.000000 1.716550 
# 
# From -- ./inp_files/42646.got.cif
#   From: 2010.05.17/outbox.cif.g08.bks.cpg/sg22_22_cif.got.tgz:42646.got - 2010.06.03 23:40:54.
