data_PCOD9328811
_publ_section_title
;
Structure prediction by ZEFSAII (Michael W. Deem and Ramdas Pophale) SiO2 
 PCOD9328811
Probable space group: F 2 2 2
;
_chemical_formula_sum "Si O2"
_cell_formula_units_Z 52
_cell_length_a 6.816717
_cell_length_b 17.722464
_cell_length_c 23.910208
_cell_angle_alpha 90.000000
_cell_angle_beta 90.000000
_cell_angle_gamma 90.000000
_cell_volume 2888.568835
_symmetry_space_group_name_H-M "F 2 2 2"
_symmetry_group_IT_number 22
_symmetry_cell_setting 'orthorhombic'
loop_
_space_group_symop_operation_xyz
x,y,z
-x,-y,z
x,-y,-z
-x,y,-z
x,1/2+y,1/2+z
-x,1/2-y,1/2+z
x,1/2-y,1/2-z
-x,1/2+y,1/2-z
1/2+x,y,1/2+z
1/2-x,-y,1/2+z
1/2+x,-y,1/2-z
1/2-x,y,1/2-z
1/2+x,1/2+y,z
1/2-x,1/2-y,z
1/2+x,1/2-y,-z
1/2-x,1/2+y,-z
loop_
_atom_site_type_symbol
_atom_site_label
_atom_site_fract_x
_atom_site_fract_y
_atom_site_fract_z
Si Si1 0.874942 0.074438 0.445867
Si Si2 0.973332 0.090222 0.761920
Si Si3 0.500000 0.500000 0.000000
Si Si4 0.233483 0.160441 0.663070
O O1 0.849151 0.132427 0.395885
O O2 0.000000 0.101780 0.500000
O O3 0.655760 0.049112 0.464317
O O4 0.000000 0.000000 0.427402
O O5 0.750000 0.107999 0.750000
O O6 0.093148 0.127702 0.711319
O O7 0.058045 0.123427 0.819704
O O8 0.000000 0.000000 0.761676
O O9 0.250000 0.250000 0.666019
#
# Coordination Sequence:
#
# PCOD9328811 Si02
#       4
#    16  16   4  16
#     4   9  20  38  62  85 117 158 210 251 288 354
#     4  11  22  38  63  91 115 159 204 245 302 368
#     4   8  18  36  60  90 104 156 212 248 282 346
#     4  11  24  39  58  92 129 156 195 257 306 362
#
# _framework density 18.001995999999998
#
# number of rings (size 3 to 8) (size 9 to 14) (size 15 to 20)
#    0.000    2.154    3.077    2.769    2.154    4.923 
#    2.769    0.000    0.000    0.000    0.000    0.000 
#    0.000    0.000    0.000    0.000    0.000    0.000 
#
# Total GULP energy -72468.610055 kJ/mol
# GULP energy per Si atom -5574.508466 kJ/mol
# Density = 1.796102 g / cm^3
# Si number density = 18.001996 Si / 1000 Ang^3
#
#
#
# Elastic Constant Matrix: (Units=GPa)
#
#
# Indices 1 2 3 4 5 6 
#
# 1 141.8999 40.7577 37.7825 0.0000 0.0000 0.0000
# 2 40.7577 153.2996 76.1103 0.0000 0.0000 0.0000
# 3 37.7825 76.1103 111.6958 0.0000 0.0000 0.0000
# 4 0.0000 0.0000 0.0000 44.6158 0.0000 0.0000
# 5 0.0000 0.0000 0.0000 0.0000 19.6579 0.0000
# 6 0.0000 0.0000 0.0000 0.0000 0.0000 19.3239
#
#
#
# Elastic Compliance Matrix: (Units=1/GPa)
#
#
# Indices 1 2 3 4 5 6 
#
# 1 0.007880 -0.001166 -0.001871 0.000000 0.000000 0.000000
# 2 -0.001166 0.010031 -0.006441 0.000000 0.000000 0.000000
# 3 -0.001871 -0.006441 0.013974 0.000000 0.000000 0.000000
# 4 0.000000 0.000000 0.000000 0.022414 0.000000 0.000000
# 5 0.000000 0.000000 0.000000 0.000000 0.050870 0.000000
# 6 0.000000 0.000000 0.000000 0.000000 0.000000 0.051749
#
#
# Mechanical properties :
#
#
# Convention : Reuss Voigt Hill
#
# Bulk Modulus (GPa) = 77.33914 79.57737 78.45826
# Shear Modulus (GPa) = 27.74935 33.53585 30.64260
#
# Velocity S-wave (km/s) = 3.93040 4.32081 4.13022
# Velocity P-wave (km/s) = 7.97823 8.31825 8.15001
#
# Compressibility (1/GPa) = 0.01293006
#
# Stress axis : x y z
#
# Youngs Moduli (GPa) = 126.89773 99.69207 71.55927
#
# Poissons Ratio (x) = 0.11627 0.13388
# Poissons Ratio (y) = 0.14800 0.46089
# Poissons Ratio (z) = 0.23742 0.64208
#
# Static dielectric constant tensor:
#      x y z
#    x 1.617380 0.000000 0.000000 
#    y 0.000000 1.593080 0.000000 
#    z 0.000000 0.000000 1.630360 
# 
# From -- ./inp_files/34054.got.cif
#   From: 2010.05.17/outbox.cif.g08.bks.cpg/sg22_18_cif.got.tgz:34054.got - 2010.06.03 23:40:54.
