data_PCOD9328312
_publ_section_title
;
Structure prediction by ZEFSAII (Michael W. Deem and Ramdas Pophale) SiO2 
 PCOD9328312
Probable space group: F 2 2 2
;
_chemical_formula_sum "Si O2"
_cell_formula_units_Z 60
_cell_length_a 11.313172
_cell_length_b 29.311348
_cell_length_c 7.577842
_cell_angle_alpha 90.000000
_cell_angle_beta 90.000000
_cell_angle_gamma 90.000000
_cell_volume 2512.845155
_symmetry_space_group_name_H-M "F 2 2 2"
_symmetry_group_IT_number 22
_symmetry_cell_setting 'orthorhombic'
loop_
_space_group_symop_operation_xyz
x,y,z
-x,-y,z
x,-y,-z
-x,y,-z
x,1/2+y,1/2+z
-x,1/2-y,1/2+z
x,1/2-y,1/2-z
-x,1/2+y,1/2-z
1/2+x,y,1/2+z
1/2-x,-y,1/2+z
1/2+x,-y,1/2-z
1/2-x,y,1/2-z
1/2+x,1/2+y,z
1/2-x,1/2-y,z
1/2+x,1/2-y,-z
1/2-x,1/2+y,-z
loop_
_atom_site_type_symbol
_atom_site_label
_atom_site_fract_x
_atom_site_fract_y
_atom_site_fract_z
Si Si1 0.412063 0.854152 0.158986
Si Si2 0.250000 0.095277 0.250000
Si Si3 0.338573 0.173109 0.491673
Si Si4 0.486854 0.946677 0.716243
Si Si5 0.250000 0.750000 0.750000
O O1 0.430038 0.829173 0.346895
O O2 0.423753 0.908095 0.206373
O O3 0.500000 0.844291 0.000000
O O4 0.288951 0.835742 0.084913
O O5 0.330671 0.129196 0.366468
O O6 0.358746 0.064042 0.193769
O O7 0.328165 0.218071 0.375978
O O8 0.500000 0.942918 0.500000
O O9 0.500000 0.000000 0.754293
#
# Coordination Sequence:
#
# PCOD9328312 Si02
#       5
#    16   8  16  16   4
#     4  11  22  41  68 103 144 186 236 306 381 457
#     4  11  20  43  70  92 140 198 234 307 380 431
#     4  10  23  42  74  97 135 191 241 310 391 438
#     4  11  24  42  66 103 145 193 260 308 362 452
#     4  10  24  50  72 104 140 188 264 322 364 474
#
# _framework density 23.877317999999999
#
# number of rings (size 3 to 8) (size 9 to 14) (size 15 to 20)
#    0.000    1.333    5.333    0.000    0.000    4.800 
#    0.000    2.667    0.000    0.000    0.000    0.000 
#    0.000    0.000    0.000    0.000    0.000    0.000 
#
# Total GULP energy -83606.238873 kJ/mol
# GULP energy per Si atom -5573.749258 kJ/mol
# Density = 2.382297 g / cm^3
# Si number density = 23.877318 Si / 1000 Ang^3
#
#
#
# Elastic Constant Matrix: (Units=GPa)
#
#
# Indices 1 2 3 4 5 6 
#
# 1 61.9582 47.1961 40.0545 0.0000 0.0000 0.0000
# 2 47.1961 165.6145 79.6482 0.0000 0.0000 0.0000
# 3 40.0545 79.6482 154.2024 0.0000 0.0000 0.0000
# 4 0.0000 0.0000 0.0000 50.4872 0.0000 0.0000
# 5 0.0000 0.0000 0.0000 0.0000 39.8295 0.0000
# 6 0.0000 0.0000 0.0000 0.0000 0.0000 24.8697
#
#
#
# Elastic Compliance Matrix: (Units=1/GPa)
#
#
# Indices 1 2 3 4 5 6 
#
# 1 0.021782 -0.004639 -0.003262 0.000000 0.000000 0.000000
# 2 -0.004639 0.009022 -0.003455 0.000000 0.000000 0.000000
# 3 -0.003262 -0.003455 0.009117 0.000000 0.000000 0.000000
# 4 0.000000 0.000000 0.000000 0.019807 0.000000 0.000000
# 5 0.000000 0.000000 0.000000 0.000000 0.025107 0.000000
# 6 0.000000 0.000000 0.000000 0.000000 0.000000 0.040210
#
#
# Mechanical properties :
#
#
# Convention : Reuss Voigt Hill
#
# Bulk Modulus (GPa) = 58.10766 79.50809 68.80788
# Shear Modulus (GPa) = 32.57504 37.36236 34.96870
#
# Velocity S-wave (km/s) = 3.69761 3.96000 3.83105
# Velocity P-wave (km/s) = 6.52828 7.36747 6.96054
#
# Compressibility (1/GPa) = 0.01720943
#
# Stress axis : x y z
#
# Youngs Moduli (GPa) = 45.90916 110.84569 109.68717
#
# Poissons Ratio (x) = 0.51416 0.35781
# Poissons Ratio (y) = 0.21295 0.37896
# Poissons Ratio (z) = 0.14976 0.38296
#
# Static dielectric constant tensor:
#      x y z
#    x 2.009220 0.000000 0.000000 
#    y 0.000000 1.873970 0.000000 
#    z 0.000000 0.000000 2.042270 
# 
# From -- ./inp_files/8391.got.cif
#   From: 2010.05.17/outbox.cif.g08.bks.cpg/sg22_5_cif.got.tgz:8391.got - 2010.06.03 23:40:54.
