data_PCOD9328422
_publ_section_title
;
Structure prediction by ZEFSAII (Michael W. Deem and Ramdas Pophale) SiO2 
 PCOD9328422
Probable space group: F 2 2 2
;
_chemical_formula_sum "Si O2"
_cell_formula_units_Z 88
_cell_length_a 8.728697
_cell_length_b 24.822442
_cell_length_c 20.224378
_cell_angle_alpha 90.000000
_cell_angle_beta 90.000000
_cell_angle_gamma 90.000000
_cell_volume 4381.966938
_symmetry_space_group_name_H-M "F 2 2 2"
_symmetry_group_IT_number 22
_symmetry_cell_setting 'orthorhombic'
loop_
_space_group_symop_operation_xyz
x,y,z
-x,-y,z
x,-y,-z
-x,y,-z
x,1/2+y,1/2+z
-x,1/2-y,1/2+z
x,1/2-y,1/2-z
-x,1/2+y,1/2-z
1/2+x,y,1/2+z
1/2-x,-y,1/2+z
1/2+x,-y,1/2-z
1/2-x,y,1/2-z
1/2+x,1/2+y,z
1/2-x,1/2-y,z
1/2+x,1/2-y,-z
1/2-x,1/2+y,-z
loop_
_atom_site_type_symbol
_atom_site_label
_atom_site_fract_x
_atom_site_fract_y
_atom_site_fract_z
Si Si1 0.954708 0.639591 0.177813
Si Si2 0.750000 0.250000 0.494759
Si Si3 0.588290 0.145006 0.670089
Si Si4 0.570641 0.940460 0.931202
Si Si5 0.063253 0.059407 0.927488
Si Si6 0.014456 0.744908 0.899413
O O1 0.770584 0.635103 0.170056
O O2 0.978661 0.638544 0.256279
O O3 0.021358 0.695077 0.147599
O O4 0.025176 0.593118 0.133029
O O5 0.860960 0.221186 0.547922
O O6 0.622619 0.229554 0.443309
O O7 0.500497 0.103738 0.622631
O O8 0.573780 0.206060 0.644265
O O9 0.753776 0.942510 0.933558
O O10 0.500000 0.000000 0.925866
O O11 0.500000 0.917229 0.000000
O O12 0.000000 0.000000 0.909390
O O13 0.000000 0.072668 0.000000
#
# Coordination Sequence:
#
# PCOD9328422 Si02
#       6
#    16   8  16  16  16  16
#     4  11  24  42  65  92 131 174 212 258 314 379
#     4  10  24  38  64  94 126 168 218 262 312 366
#     4  11  24  42  65  92 131 174 212 258 314 379
#     4  11  24  43  68  96 126 163 212 267 318 374
#     4  11  24  43  68  96 126 163 212 267 318 374
#     4  11  23  41  62  97 129 170 209 264 313 374
#
# _framework density 20.082305000000002
#
# number of rings (size 3 to 8) (size 9 to 14) (size 15 to 20)
#    0.000    1.091    1.818    4.909    7.636    2.909 
#    0.000    0.909    0.000    0.000    0.000    0.000 
#    0.000    0.000    0.000    0.000    0.000    0.000 
#
# Total GULP energy -122728.257791 kJ/mol
# GULP energy per Si atom -5578.557172 kJ/mol
# Density = 2.003660 g / cm^3
# Si number density = 20.082305 Si / 1000 Ang^3
#
#
#
# Elastic Constant Matrix: (Units=GPa)
#
#
# Indices 1 2 3 4 5 6 
#
# 1 91.8286 40.4597 51.3576 0.0000 0.0000 0.0000
# 2 40.4597 97.7101 85.4969 0.0000 0.0000 0.0000
# 3 51.3576 85.4969 138.2066 0.0000 0.0000 0.0000
# 4 0.0000 0.0000 0.0000 17.7081 0.0000 0.0000
# 5 0.0000 0.0000 0.0000 0.0000 27.2108 0.0000
# 6 0.0000 0.0000 0.0000 0.0000 0.0000 22.3519
#
#
#
# Elastic Compliance Matrix: (Units=1/GPa)
#
#
# Indices 1 2 3 4 5 6 
#
# 1 0.014073 -0.002728 -0.003542 0.000000 0.000000 0.000000
# 2 -0.002728 0.022840 -0.013116 0.000000 0.000000 0.000000
# 3 -0.003542 -0.013116 0.016665 0.000000 0.000000 0.000000
# 4 0.000000 0.000000 0.000000 0.056471 0.000000 0.000000
# 5 0.000000 0.000000 0.000000 0.000000 0.036750 0.000000
# 6 0.000000 0.000000 0.000000 0.000000 0.000000 0.044739
#
#
# Mechanical properties :
#
#
# Convention : Reuss Voigt Hill
#
# Bulk Modulus (GPa) = 67.53491 75.81931 71.67711
# Shear Modulus (GPa) = 21.25443 23.48290 22.36867
#
# Velocity S-wave (km/s) = 3.25678 3.42326 3.34106
# Velocity P-wave (km/s) = 6.91695 7.31172 7.11707
#
# Compressibility (1/GPa) = 0.01480716
#
# Stress axis : x y z
#
# Youngs Moduli (GPa) = 71.05966 43.78242 60.00545
#
# Poissons Ratio (x) = 0.11945 0.21252
# Poissons Ratio (y) = 0.19386 0.78700
# Poissons Ratio (z) = 0.25167 0.57423
#
# Static dielectric constant tensor:
#      x y z
#    x 1.742980 0.000000 0.000000 
#    y 0.000000 1.686970 0.000000 
#    z 0.000000 0.000000 1.693210 
# 
# From -- ./inp_files/47281.got.cif
#   From: 2010.05.17/outbox.cif.g08.bks.cpg/sg22_24_cif.got.tgz:47281.got - 2010.06.03 23:40:54.
