data_PCOD9328379
_publ_section_title
;
Structure prediction by ZEFSAII (Michael W. Deem and Ramdas Pophale) SiO2 
 PCOD9328379
Probable space group: F 2 2 2
;
_chemical_formula_sum "Si O2"
_cell_formula_units_Z 48
_cell_length_a 16.583994
_cell_length_b 10.631296
_cell_length_c 10.404315
_cell_angle_alpha 90.000000
_cell_angle_beta 90.000000
_cell_angle_gamma 90.000000
_cell_volume 1834.378005
_symmetry_space_group_name_H-M "F 2 2 2"
_symmetry_group_IT_number 22
_symmetry_cell_setting 'orthorhombic'
loop_
_space_group_symop_operation_xyz
x,y,z
-x,-y,z
x,-y,-z
-x,y,-z
x,1/2+y,1/2+z
-x,1/2-y,1/2+z
x,1/2-y,1/2-z
-x,1/2+y,1/2-z
1/2+x,y,1/2+z
1/2-x,-y,1/2+z
1/2+x,-y,1/2-z
1/2-x,y,1/2-z
1/2+x,1/2+y,z
1/2-x,1/2-y,z
1/2+x,1/2-y,-z
1/2-x,1/2+y,-z
loop_
_atom_site_type_symbol
_atom_site_label
_atom_site_fract_x
_atom_site_fract_y
_atom_site_fract_z
Si Si1 0.000000 0.500000 0.000000
Si Si2 0.500000 0.500000 0.000000
Si Si3 0.117478 0.869886 0.588508
Si Si4 0.750000 0.515457 0.250000
Si Si5 0.635593 0.166893 0.379083
O O1 0.022846 0.615142 0.889570
O O2 0.558211 0.416469 0.088711
O O3 0.144997 0.756306 0.502322
O O4 0.112066 0.000000 0.500000
O O5 0.177197 0.900124 0.700711
O O6 0.712170 0.425093 0.141760
O O7 0.631727 0.250000 0.250000
#
# Coordination Sequence:
#
# PCOD9328379 Si02
#       5
#     4   4  16   8  16
#     4   8  18  40  68 102 142 200 250 292 374 460
#     4  12  34  48  78 122 144 200 282 302 394 466
#     4  10  23  45  81 109 149 203 261 299 393 454
#     4  12  27  46  81 116 154 207 249 320 394 454
#     4  12  27  50  78 110 162 202 250 330 380 460
#
# _framework density 26.166906000000001
#
# number of rings (size 3 to 8) (size 9 to 14) (size 15 to 20)
#    1.000    0.000    3.333    1.500    2.333    8.000 
#    0.000    5.000    0.000    0.000    0.000    0.000 
#    0.000    0.000    0.000    0.000    0.000    0.000 
#
# Total GULP energy -67052.197179 kJ/mol
# GULP energy per Si atom -5587.683098 kJ/mol
# Density = 2.610735 g / cm^3
# Si number density = 26.166906 Si / 1000 Ang^3
#
#
#
# Elastic Constant Matrix: (Units=GPa)
#
#
# Indices 1 2 3 4 5 6 
#
# 1 140.7362 46.6993 43.4875 0.0000 0.0000 0.0000
# 2 46.6993 124.5139 57.9424 0.0000 0.0000 0.0000
# 3 43.4875 57.9424 83.3701 0.0000 0.0000 0.0000
# 4 0.0000 0.0000 0.0000 37.5713 0.0000 0.0000
# 5 0.0000 0.0000 0.0000 0.0000 59.7135 0.0000
# 6 0.0000 0.0000 0.0000 0.0000 0.0000 -6.3188
#
#
#
# Elastic Compliance Matrix: (Units=1/GPa)
#
#
# Indices 1 2 3 4 5 6 
#
# 1 0.008709 -0.001703 -0.003359 0.000000 0.000000 0.000000
# 2 -0.001703 0.012203 -0.007593 0.000000 0.000000 0.000000
# 3 -0.003359 -0.007593 0.019024 0.000000 0.000000 0.000000
# 4 0.000000 0.000000 0.000000 0.026616 0.000000 0.000000
# 5 0.000000 0.000000 0.000000 0.000000 0.016747 0.000000
# 6 0.000000 0.000000 0.000000 0.000000 0.000000 -0.158259
#
#
# Mechanical properties :
#
#
# Convention : Reuss Voigt Hill
#
# Bulk Modulus (GPa) = 68.37211 71.65318 70.01265
# Shear Modulus (GPa) = -111.66937 31.55927 -40.05505
#
# Velocity S-wave (km/s) = -6.53976 3.47663 -3.91673
# Velocity P-wave (km/s) = 5.55326 6.59989 2.52189
#
# Compressibility (1/GPa) = 0.01462585
#
# Stress axis : x y z
#
# Youngs Moduli (GPa) = 114.83017 81.94453 52.56544
#
# Poissons Ratio (x) = 0.13956 0.17656
# Poissons Ratio (y) = 0.19557 0.39913
# Poissons Ratio (z) = 0.38570 0.62220
#
# Static dielectric constant tensor:
#      x y z
#    x 2.025390 0.000000 0.000000 
#    y 0.000000 2.091110 0.000000 
#    z 0.000000 0.000000 2.133960 
# 
# From -- ./inp_files/20670.got.cif
#   From: 2010.05.17/outbox.cif.g08.bks.cpg/sg22_11_cif.got.tgz:20670.got - 2010.06.03 23:40:54.
