data_PCOD9328052
_publ_section_title
;
Structure prediction by ZEFSAII (Michael W. Deem and Ramdas Pophale) SiO2 
 PCOD9328052
Probable space group: F 2 2 2
;
_chemical_formula_sum "Si O2"
_cell_formula_units_Z 76
_cell_length_a 7.796488
_cell_length_b 17.028155
_cell_length_c 28.154849
_cell_angle_alpha 90.000000
_cell_angle_beta 90.000000
_cell_angle_gamma 90.000000
_cell_volume 3737.832295
_symmetry_space_group_name_H-M "F 2 2 2"
_symmetry_group_IT_number 22
_symmetry_cell_setting 'orthorhombic'
loop_
_space_group_symop_operation_xyz
x,y,z
-x,-y,z
x,-y,-z
-x,y,-z
x,1/2+y,1/2+z
-x,1/2-y,1/2+z
x,1/2-y,1/2-z
-x,1/2+y,1/2-z
1/2+x,y,1/2+z
1/2-x,-y,1/2+z
1/2+x,-y,1/2-z
1/2-x,y,1/2-z
1/2+x,1/2+y,z
1/2-x,1/2-y,z
1/2+x,1/2-y,-z
1/2-x,1/2+y,-z
loop_
_atom_site_type_symbol
_atom_site_label
_atom_site_fract_x
_atom_site_fract_y
_atom_site_fract_z
Si Si1 0.920763 0.109919 0.398140
Si Si2 0.250000 0.250000 0.946595
Si Si3 0.250000 0.023550 0.750000
Si Si4 0.250000 0.750000 0.750000
Si Si5 0.000000 0.366830 0.500000
Si Si6 0.760554 0.969369 0.447555
Si Si7 0.445513 0.393213 0.292521
O O1 0.868469 0.196111 0.413973
O O2 0.092688 0.086540 0.426657
O O3 0.960821 0.105686 0.342689
O O4 0.777250 0.045759 0.413778
O O5 0.144108 0.189447 0.978581
O O6 0.416771 0.079099 0.752404
O O7 0.296706 0.960162 0.791246
O O8 0.365701 0.690778 0.719158
O O9 0.912077 0.420986 0.540669
O O10 0.807863 0.000000 0.500000
#
# Coordination Sequence:
#
# PCOD9328052 Si02
#       7
#    16   8   8   4   8  16  16
#     4  11  24  41  64  95 132 167 219 273 318 375
#     4  12  26  38  61  95 130 172 216 270 318 386
#     4   9  18  40  68  91 118 168 216 255 314 386
#     4  10  24  42  70  94 140 172 196 264 356 394
#     4  12  25  42  62  93 124 184 224 255 324 382
#     4  11  22  41  66  88 126 179 217 266 316 373
#     4  10  22  42  67  99 128 169 213 268 325 396
#
# _framework density 20.332642
#
# number of rings (size 3 to 8) (size 9 to 14) (size 15 to 20)
#    0.000    1.263    2.105    5.368    0.000    3.789 
#    0.000    8.421    4.632    0.000    0.000    0.000 
#    0.000    0.000    0.000    0.000    0.000    0.000 
#
# Total GULP energy -105946.814110 kJ/mol
# GULP energy per Si atom -5576.148111 kJ/mol
# Density = 2.028636 g / cm^3
# Si number density = 20.332642 Si / 1000 Ang^3
#
#
#
# Elastic Constant Matrix: (Units=GPa)
#
#
# Indices 1 2 3 4 5 6 
#
# 1 107.9696 63.1045 43.0944 0.0000 0.0000 0.0000
# 2 63.1045 163.4130 50.6356 0.0000 0.0000 0.0000
# 3 43.0944 50.6356 95.0396 0.0000 0.0000 0.0000
# 4 0.0000 0.0000 0.0000 9.1018 0.0000 0.0000
# 5 0.0000 0.0000 0.0000 0.0000 22.5056 0.0000
# 6 0.0000 0.0000 0.0000 0.0000 0.0000 61.7330
#
#
#
# Elastic Compliance Matrix: (Units=1/GPa)
#
#
# Indices 1 2 3 4 5 6 
#
# 1 0.013052 -0.003840 -0.003872 0.000000 0.000000 0.000000
# 2 -0.003840 0.008459 -0.002766 0.000000 0.000000 0.000000
# 3 -0.003872 -0.002766 0.013751 0.000000 0.000000 0.000000
# 4 0.000000 0.000000 0.000000 0.109868 0.000000 0.000000
# 5 0.000000 0.000000 0.000000 0.000000 0.044433 0.000000
# 6 0.000000 0.000000 0.000000 0.000000 0.000000 0.016199
#
#
# Mechanical properties :
#
#
# Convention : Reuss Voigt Hill
#
# Bulk Modulus (GPa) = 69.89976 75.56569 72.73272
# Shear Modulus (GPa) = 21.59935 32.64059 27.11997
#
# Velocity S-wave (km/s) = 3.26283 4.01100 3.65610
# Velocity P-wave (km/s) = 6.97477 7.66135 7.32611
#
# Compressibility (1/GPa) = 0.01430620
#
# Stress axis : x y z
#
# Youngs Moduli (GPa) = 76.61696 118.21055 72.72082
#
# Poissons Ratio (x) = 0.45397 0.28158
# Poissons Ratio (y) = 0.29424 0.20113
# Poissons Ratio (z) = 0.29667 0.32694
#
# Static dielectric constant tensor:
#      x y z
#    x 1.788650 0.000000 0.000000 
#    y 0.000000 1.734260 0.000000 
#    z 0.000000 0.000000 1.703810 
# 
# From -- ./inp_files/51821.got.cif
#   From: 2010.05.17/outbox.cif.g08.bks.cpg/sg22_26_cif.got.tgz:51821.got - 2010.06.03 23:40:54.
