data_PCOD9328132
_publ_section_title
;
Structure prediction by ZEFSAII (Michael W. Deem and Ramdas Pophale) SiO2 
 PCOD9328132
Probable space group: F 2 2 2
;
_chemical_formula_sum "Si O2"
_cell_formula_units_Z 88
_cell_length_a 19.858334
_cell_length_b 9.608601
_cell_length_c 24.475692
_cell_angle_alpha 90.000000
_cell_angle_beta 90.000000
_cell_angle_gamma 90.000000
_cell_volume 4670.226565
_symmetry_space_group_name_H-M "F 2 2 2"
_symmetry_group_IT_number 22
_symmetry_cell_setting 'orthorhombic'
loop_
_space_group_symop_operation_xyz
x,y,z
-x,-y,z
x,-y,-z
-x,y,-z
x,1/2+y,1/2+z
-x,1/2-y,1/2+z
x,1/2-y,1/2-z
-x,1/2+y,1/2-z
1/2+x,y,1/2+z
1/2-x,-y,1/2+z
1/2+x,-y,1/2-z
1/2-x,y,1/2-z
1/2+x,1/2+y,z
1/2-x,1/2-y,z
1/2+x,1/2-y,-z
1/2-x,1/2+y,-z
loop_
_atom_site_type_symbol
_atom_site_label
_atom_site_fract_x
_atom_site_fract_y
_atom_site_fract_z
Si Si1 0.038902 0.644996 0.920367
Si Si2 0.660282 0.961262 0.911042
Si Si3 0.330947 0.242263 0.813751
Si Si4 0.049863 0.622869 0.376302
Si Si5 0.391931 0.296707 0.983624
Si Si6 0.726322 0.500000 0.000000
O O1 0.112884 0.593609 0.904613
O O2 0.000000 0.500000 0.933739
O O3 0.994078 0.734164 0.878526
O O4 0.058112 0.748460 0.969406
O O5 0.660537 0.894051 0.851261
O O6 0.626924 0.843501 0.950266
O O7 0.728075 0.992988 0.945149
O O8 0.348755 0.250000 0.750000
O O9 0.250000 0.250000 0.816754
O O10 0.381405 0.353268 0.842446
O O11 0.074608 0.602226 0.438802
O O12 0.000000 0.500000 0.358874
O O13 0.322960 0.367329 0.002513
#
# Coordination Sequence:
#
# PCOD9328132 Si02
#       6
#    16  16  16  16  16   8
#     4  12  22  37  59  86 127 172 210 249 316 390
#     4  11  22  36  61  87 124 167 214 258 312 401
#     4  10  22  44  69  89 120 172 224 275 326 389
#     4  11  24  41  61  94 131 165 217 273 324 382
#     4  11  22  33  56  87 130 175 200 244 321 393
#     4  12  22  36  52  94 132 166 210 260 316 396
#
# _framework density 18.842769000000001
#
# number of rings (size 3 to 8) (size 9 to 14) (size 15 to 20)
#    0.000    0.909    5.455    4.364    2.545    0.727 
#    3.273    0.000    0.000    0.000    0.000    2.545 
#    0.000    0.000    0.000    0.000    0.000    0.000 
#
# Total GULP energy -122536.395345 kJ/mol
# GULP energy per Si atom -5569.836152 kJ/mol
# Density = 1.879988 g / cm^3
# Si number density = 18.842769 Si / 1000 Ang^3
#
#
#
# Elastic Constant Matrix: (Units=GPa)
#
#
# Indices 1 2 3 4 5 6 
#
# 1 101.6116 43.6535 30.9676 0.0000 0.0000 0.0000
# 2 43.6535 70.7147 25.3203 0.0000 0.0000 0.0000
# 3 30.9676 25.3203 88.6548 0.0000 0.0000 0.0000
# 4 0.0000 0.0000 0.0000 10.8219 0.0000 0.0000
# 5 0.0000 0.0000 0.0000 0.0000 24.9115 0.0000
# 6 0.0000 0.0000 0.0000 0.0000 0.0000 53.5307
#
#
#
# Elastic Compliance Matrix: (Units=1/GPa)
#
#
# Indices 1 2 3 4 5 6 
#
# 1 0.013945 -0.007647 -0.002687 0.000000 0.000000 0.000000
# 2 -0.007647 0.019945 -0.003025 0.000000 0.000000 0.000000
# 3 -0.002687 -0.003025 0.013082 0.000000 0.000000 0.000000
# 4 0.000000 0.000000 0.000000 0.092406 0.000000 0.000000
# 5 0.000000 0.000000 0.000000 0.000000 0.040142 0.000000
# 6 0.000000 0.000000 0.000000 0.000000 0.000000 0.018681
#
#
# Mechanical properties :
#
#
# Convention : Reuss Voigt Hill
#
# Bulk Modulus (GPa) = 49.37219 51.20712 50.28965
# Shear Modulus (GPa) = 21.58230 28.58880 25.08555
#
# Velocity S-wave (km/s) = 3.38803 3.89939 3.65267
# Velocity P-wave (km/s) = 6.44702 6.89265 6.67356
#
# Compressibility (1/GPa) = 0.02025432
#
# Stress axis : x y z
#
# Youngs Moduli (GPa) = 71.70804 50.13798 76.43817
#
# Poissons Ratio (x) = 0.38338 0.20541
# Poissons Ratio (y) = 0.54832 0.23126
# Poissons Ratio (z) = 0.19270 0.15169
#
# Static dielectric constant tensor:
#      x y z
#    x 1.733660 0.000000 0.000000 
#    y 0.000000 1.698190 0.000000 
#    z 0.000000 0.000000 1.668120 
# 
# From -- ./inp_files/49804.got.cif
#   From: 2010.05.17/outbox.cif.g08.bks.cpg/sg22_25_cif.got.tgz:49804.got - 2010.06.03 23:40:54.
