data_PCOD9328558
_publ_section_title
;
Structure prediction by ZEFSAII (Michael W. Deem and Ramdas Pophale) SiO2 
 PCOD9328558
Probable space group: F 2 2 2
;
_chemical_formula_sum "Si O2"
_cell_formula_units_Z 56
_cell_length_a 5.096850
_cell_length_b 23.555919
_cell_length_c 19.738934
_cell_angle_alpha 90.000000
_cell_angle_beta 90.000000
_cell_angle_gamma 90.000000
_cell_volume 2369.875874
_symmetry_space_group_name_H-M "F 2 2 2"
_symmetry_group_IT_number 22
_symmetry_cell_setting 'orthorhombic'
loop_
_space_group_symop_operation_xyz
x,y,z
-x,-y,z
x,-y,-z
-x,y,-z
x,1/2+y,1/2+z
-x,1/2-y,1/2+z
x,1/2-y,1/2-z
-x,1/2+y,1/2-z
1/2+x,y,1/2+z
1/2-x,-y,1/2+z
1/2+x,-y,1/2-z
1/2-x,y,1/2-z
1/2+x,1/2+y,z
1/2-x,1/2-y,z
1/2+x,1/2-y,-z
1/2-x,1/2+y,-z
loop_
_atom_site_type_symbol
_atom_site_label
_atom_site_fract_x
_atom_site_fract_y
_atom_site_fract_z
Si Si1 0.739737 0.537232 0.368996
Si Si2 0.188602 0.310412 0.910894
Si Si3 0.686017 0.164091 0.674376
Si Si4 0.500000 0.593317 0.500000
O O1 0.500000 0.500000 0.339922
O O2 0.787462 0.595846 0.330133
O O3 0.648026 0.556684 0.443991
O O4 0.000000 0.500000 0.371649
O O5 0.250000 0.250000 0.944229
O O6 0.400296 0.319156 0.851744
O O7 0.196298 0.363866 0.961021
O O8 0.901930 0.311703 0.877441
O O9 0.750000 0.182712 0.750000
#
# Coordination Sequence:
#
# PCOD9328558 Si02
#       4
#    16  16  16   8
#     4  11  24  41  64  92 126 168 210 261 323 381
#     4  11  25  43  67  96 129 171 213 265 329 384
#     4  11  25  44  65  95 130 167 219 269 315 385
#     4  10  25  42  64  98 132 164 215 268 320 394
#
# _framework density 23.629930000000002
#
# number of rings (size 3 to 8) (size 9 to 14) (size 15 to 20)
#    0.000    1.143    0.000    5.571    0.000   22.857 
#    0.000    0.000    0.000    0.000    0.000    0.000 
#    0.000    0.000    0.000    0.000    0.000    0.000 
#
# Total GULP energy -78494.816828 kJ/mol
# GULP energy per Si atom -5606.772631 kJ/mol
# Density = 2.357615 g / cm^3
# Si number density = 23.629930 Si / 1000 Ang^3
#
#
#
# Elastic Constant Matrix: (Units=GPa)
#
#
# Indices 1 2 3 4 5 6 
#
# 1 115.4213 39.0212 1.7583 0.0000 0.0000 0.0000
# 2 39.0212 144.0601 -5.2554 0.0000 0.0000 0.0000
# 3 1.7583 -5.2554 62.6044 0.0000 0.0000 0.0000
# 4 0.0000 0.0000 0.0000 9.2984 0.0000 0.0000
# 5 0.0000 0.0000 0.0000 0.0000 34.1338 0.0000
# 6 0.0000 0.0000 0.0000 0.0000 0.0000 47.8351
#
#
#
# Elastic Compliance Matrix: (Units=1/GPa)
#
#
# Indices 1 2 3 4 5 6 
#
# 1 0.009552 -0.002605 -0.000487 0.000000 0.000000 0.000000
# 2 -0.002605 0.007673 0.000717 0.000000 0.000000 0.000000
# 3 -0.000487 0.000717 0.016047 0.000000 0.000000 0.000000
# 4 0.000000 0.000000 0.000000 0.107545 0.000000 0.000000
# 5 0.000000 0.000000 0.000000 0.000000 0.029296 0.000000
# 6 0.000000 0.000000 0.000000 0.000000 0.000000 0.020905
#
#
# Mechanical properties :
#
#
# Convention : Reuss Voigt Hill
#
# Bulk Modulus (GPa) = 35.05931 43.68157 39.37044
# Shear Modulus (GPa) = 24.35742 37.35760 30.85751
#
# Velocity S-wave (km/s) = 3.21407 3.98042 3.61760
# Velocity P-wave (km/s) = 5.35189 6.29689 5.84352
#
# Compressibility (1/GPa) = 0.02852310
#
# Stress axis : x y z
#
# Youngs Moduli (GPa) = 104.68952 130.32114 62.31614
#
# Poissons Ratio (x) = 0.33950 0.03035
# Poissons Ratio (y) = 0.27273 -0.04470
# Poissons Ratio (z) = 0.05098 -0.09348
#
# Static dielectric constant tensor:
#      x y z
#    x 1.834490 0.000000 0.000000 
#    y 0.000000 1.927310 0.000000 
#    z 0.000000 0.000000 1.863570 
# 
# From -- ./inp_files/4330.got.cif
#   From: 2010.05.17/outbox.cif.g08.bks.cpg/sg22_3_cif.got.tgz:4330.got - 2010.06.03 23:40:54.
