data_PCOD9328696
_publ_section_title
;
Structure prediction by ZEFSAII (Michael W. Deem and Ramdas Pophale) SiO2 
 PCOD9328696
Probable space group: F 2 2 2
;
_chemical_formula_sum "Si O2"
_cell_formula_units_Z 104
_cell_length_a 20.518894
_cell_length_b 18.670125
_cell_length_c 14.856930
_cell_angle_alpha 90.000000
_cell_angle_beta 90.000000
_cell_angle_gamma 90.000000
_cell_volume 5691.546006
_symmetry_space_group_name_H-M "F 2 2 2"
_symmetry_group_IT_number 22
_symmetry_cell_setting 'orthorhombic'
loop_
_space_group_symop_operation_xyz
x,y,z
-x,-y,z
x,-y,-z
-x,y,-z
x,1/2+y,1/2+z
-x,1/2-y,1/2+z
x,1/2-y,1/2-z
-x,1/2+y,1/2-z
1/2+x,y,1/2+z
1/2-x,-y,1/2+z
1/2+x,-y,1/2-z
1/2-x,y,1/2-z
1/2+x,1/2+y,z
1/2-x,1/2-y,z
1/2+x,1/2-y,-z
1/2-x,1/2+y,-z
loop_
_atom_site_type_symbol
_atom_site_label
_atom_site_fract_x
_atom_site_fract_y
_atom_site_fract_z
Si Si1 0.250000 0.882736 0.250000
Si Si2 0.824869 0.128786 0.748346
Si Si3 0.568852 0.027754 0.837333
Si Si4 0.176535 0.243516 0.101406
Si Si5 0.113307 0.800100 0.438382
Si Si6 0.186122 0.557717 0.080170
Si Si7 0.347542 0.750000 0.250000
Si Si8 0.000000 0.390494 0.000000
O O1 0.238000 0.930354 0.339294
O O2 0.308118 0.824886 0.260119
O O3 0.750000 0.099043 0.750000
O O4 0.884424 0.076225 0.724994
O O5 0.831845 0.171516 0.841356
O O6 0.827991 0.189990 0.670939
O O7 0.500000 0.000000 0.797062
O O8 0.619290 0.968041 0.871873
O O9 0.544589 0.066371 0.929511
O O10 0.250000 0.250000 0.064123
O O11 0.124773 0.249213 0.022706
O O12 0.168682 0.862159 0.452463
O O13 0.117598 0.760840 0.344177
O O14 0.045797 0.840314 0.442400
O O15 0.200709 0.500000 0.000000
#
# Coordination Sequence:
#
# PCOD9328696 Si02
#       8
#     8  16  16  16  16  16   8   8
#     4   9  22  38  56  84 114 151 198 234 288 351
#     4   9  19  36  55  88 123 155 195 246 301 355
#     4  12  21  36  56  86 125 154 194 244 301 355
#     4   9  18  33  58  84 117 152 194 247 299 347
#     4  11  21  37  58  84 114 154 190 240 295 351
#     4  11  20  35  58  84 116 152 188 240 290 346
#     4   9  22  42  56  80 118 152 191 244 289 352
#     4  12  21  36  56  86 116 150 197 236 298 354
#
# _framework density 18.272715000000002
#
# number of rings (size 3 to 8) (size 9 to 14) (size 15 to 20)
#    0.000    1.692    4.615    1.154    5.385    0.000 
#    2.769    0.000    0.000    0.000    0.000    0.000 
#    9.231    0.000    0.000    0.000    0.000    0.000 
#
# Total GULP energy -144820.432743 kJ/mol
# GULP energy per Si atom -5570.016644 kJ/mol
# Density = 1.823113 g / cm^3
# Si number density = 18.272715 Si / 1000 Ang^3
#
#
#
# Elastic Constant Matrix: (Units=GPa)
#
#
# Indices 1 2 3 4 5 6 
#
# 1 75.5362 35.1086 32.1518 0.0000 0.0000 0.0000
# 2 35.1086 70.0425 41.7353 0.0000 0.0000 0.0000
# 3 32.1518 41.7353 85.4023 0.0000 0.0000 0.0000
# 4 0.0000 0.0000 0.0000 42.3959 0.0000 0.0000
# 5 0.0000 0.0000 0.0000 0.0000 24.2030 0.0000
# 6 0.0000 0.0000 0.0000 0.0000 0.0000 -60.5888
#
#
#
# Elastic Compliance Matrix: (Units=1/GPa)
#
#
# Indices 1 2 3 4 5 6 
#
# 1 0.017904 -0.006995 -0.003322 0.000000 0.000000 0.000000
# 2 -0.006995 0.022875 -0.008545 0.000000 0.000000 0.000000
# 3 -0.003322 -0.008545 0.017136 0.000000 0.000000 0.000000
# 4 0.000000 0.000000 0.000000 0.023587 0.000000 0.000000
# 5 0.000000 0.000000 0.000000 0.000000 0.041317 0.000000
# 6 0.000000 0.000000 0.000000 0.000000 0.000000 -0.016505
#
#
# Mechanical properties :
#
#
# Convention : Reuss Voigt Hill
#
# Bulk Modulus (GPa) = 49.52867 49.88581 49.70724
# Shear Modulus (GPa) = 33.16324 9.33437 21.24881
#
# Velocity S-wave (km/s) = 4.26479 2.26262 3.41379
# Velocity P-wave (km/s) = 7.17045 5.84687 6.54222
#
# Compressibility (1/GPa) = 0.02019033
#
# Stress axis : x y z
#
# Youngs Moduli (GPa) = 55.85396 43.71578 58.35654
#
# Poissons Ratio (x) = 0.30578 0.19386
# Poissons Ratio (y) = 0.39069 0.49868
# Poissons Ratio (z) = 0.18555 0.37357
#
# Static dielectric constant tensor:
#      x y z
#    x 1.628680 0.000000 0.000000 
#    y 0.000000 1.679630 0.000000 
#    z 0.000000 0.000000 1.658860 
# 
# From -- ./inp_files/31740.got.cif
#   From: 2010.05.17/outbox.cif.g08.bks.cpg/sg22_16_cif.got.tgz:31740.got - 2010.06.03 23:40:54.
