data_PCOD9328004
_publ_section_title
;
Structure prediction by ZEFSAII (Michael W. Deem and Ramdas Pophale) SiO2 
 PCOD9328004
Probable space group: F 2 2 2
;
_chemical_formula_sum "Si O2"
_cell_formula_units_Z 84
_cell_length_a 9.873142
_cell_length_b 18.038100
_cell_length_c 22.336440
_cell_angle_alpha 90.000000
_cell_angle_beta 90.000000
_cell_angle_gamma 90.000000
_cell_volume 3977.957415
_symmetry_space_group_name_H-M "F 2 2 2"
_symmetry_group_IT_number 22
_symmetry_cell_setting 'orthorhombic'
loop_
_space_group_symop_operation_xyz
x,y,z
-x,-y,z
x,-y,-z
-x,y,-z
x,1/2+y,1/2+z
-x,1/2-y,1/2+z
x,1/2-y,1/2-z
-x,1/2+y,1/2-z
1/2+x,y,1/2+z
1/2-x,-y,1/2+z
1/2+x,-y,1/2-z
1/2-x,y,1/2-z
1/2+x,1/2+y,z
1/2-x,1/2-y,z
1/2+x,1/2-y,-z
1/2-x,1/2+y,-z
loop_
_atom_site_type_symbol
_atom_site_label
_atom_site_fract_x
_atom_site_fract_y
_atom_site_fract_z
Si Si1 0.204948 0.836605 0.816738
Si Si2 0.500000 0.000000 0.000000
Si Si3 0.440885 0.082402 0.709079
Si Si4 0.407419 0.611457 0.586506
Si Si5 0.750000 0.250000 0.421670
Si Si6 0.000000 0.240544 0.500000
Si Si7 0.836985 0.885969 0.661036
O O1 0.250000 0.860525 0.750000
O O2 0.250000 0.750000 0.821565
O O3 0.287905 0.878844 0.867224
O O4 0.048601 0.861099 0.820501
O O5 0.603119 0.052506 0.965063
O O6 0.304506 0.072479 0.670482
O O7 0.397686 0.120289 0.772017
O O8 0.500000 0.000000 0.719802
O O9 0.435106 0.688463 0.551742
O O10 0.540084 0.583674 0.622226
O O11 0.626854 0.222849 0.465086
O O12 0.800583 0.187170 0.376312
#
# Coordination Sequence:
#
# PCOD9328004 Si02
#       7
#    16   4  16  16   8   8  16
#     4  11  25  41  69 103 139 182 227 291 355 420
#     4  10  24  40  76  94 132 190 242 276 346 416
#     4  11  26  41  64 102 137 183 221 282 365 426
#     4  10  22  42  66  98 135 179 233 286 337 421
#     4  10  22  41  68  98 129 176 234 284 342 412
#     4   9  22  39  60  98 129 179 222 286 341 398
#     4  10  24  41  69  93 137 174 225 282 348 426
#
# _framework density 21.116364999999998
#
# number of rings (size 3 to 8) (size 9 to 14) (size 15 to 20)
#    0.000    1.714    1.905    0.000   13.333    1.524 
#    0.000    0.000    0.000    1.143    0.000    0.000 
#    0.000    0.000    0.000    0.000    0.000    0.000 
#
# Total GULP energy -117093.595413 kJ/mol
# GULP energy per Si atom -5575.885496 kJ/mol
# Density = 2.106830 g / cm^3
# Si number density = 21.116365 Si / 1000 Ang^3
#
#
#
# Elastic Constant Matrix: (Units=GPa)
#
#
# Indices 1 2 3 4 5 6 
#
# 1 137.1828 43.9648 49.2937 0.0000 0.0000 0.0000
# 2 43.9648 66.8836 34.6728 0.0000 0.0000 0.0000
# 3 49.2937 34.6728 95.5135 0.0000 0.0000 0.0000
# 4 0.0000 0.0000 0.0000 25.5440 0.0000 0.0000
# 5 0.0000 0.0000 0.0000 0.0000 39.6008 0.0000
# 6 0.0000 0.0000 0.0000 0.0000 0.0000 -2.9141
#
#
#
# Elastic Compliance Matrix: (Units=1/GPa)
#
#
# Indices 1 2 3 4 5 6 
#
# 1 0.010078 -0.004839 -0.003445 0.000000 0.000000 0.000000
# 2 -0.004839 0.020741 -0.005032 0.000000 0.000000 0.000000
# 3 -0.003445 -0.005032 0.014074 0.000000 0.000000 0.000000
# 4 0.000000 0.000000 0.000000 0.039148 0.000000 0.000000
# 5 0.000000 0.000000 0.000000 0.000000 0.025252 0.000000
# 6 0.000000 0.000000 0.000000 0.000000 0.000000 -0.343154
#
#
# Mechanical properties :
#
#
# Convention : Reuss Voigt Hill
#
# Bulk Modulus (GPa) = 54.75827 61.71582 58.23705
# Shear Modulus (GPa) = -24.85794 23.88938 -0.48428
#
# Velocity S-wave (km/s) = -3.43474 3.36716 -0.47941
# Velocity P-wave (km/s) = 3.20282 6.66386 5.22805
#
# Compressibility (1/GPa) = 0.01826208
#
# Stress axis : x y z
#
# Youngs Moduli (GPa) = 99.22508 48.21443 71.05261
#
# Poissons Ratio (x) = 0.23331 0.24475
# Poissons Ratio (y) = 0.48015 0.35752
# Poissons Ratio (z) = 0.34179 0.24261
#
# Static dielectric constant tensor:
#      x y z
#    x 1.819980 0.000000 0.000000 
#    y 0.000000 1.775670 0.000000 
#    z 0.000000 0.000000 1.923800 
# 
# From -- ./inp_files/41818.got.cif
#   From: 2010.05.17/outbox.cif.g08.bks.cpg/sg22_21_cif.got.tgz:41818.got - 2010.06.03 23:40:54.
