data_PCOD9328602
_publ_section_title
;
Structure prediction by ZEFSAII (Michael W. Deem and Ramdas Pophale) SiO2 
 PCOD9328602
Probable space group: F 2 2 2
;
_chemical_formula_sum "Si O2"
_cell_formula_units_Z 44
_cell_length_a 13.108058
_cell_length_b 5.532375
_cell_length_c 23.372762
_cell_angle_alpha 90.000000
_cell_angle_beta 90.000000
_cell_angle_gamma 90.000000
_cell_volume 1694.962137
_symmetry_space_group_name_H-M "F 2 2 2"
_symmetry_group_IT_number 22
_symmetry_cell_setting 'orthorhombic'
loop_
_space_group_symop_operation_xyz
x,y,z
-x,-y,z
x,-y,-z
-x,y,-z
x,1/2+y,1/2+z
-x,1/2-y,1/2+z
x,1/2-y,1/2-z
-x,1/2+y,1/2-z
1/2+x,y,1/2+z
1/2-x,-y,1/2+z
1/2+x,-y,1/2-z
1/2-x,y,1/2-z
1/2+x,1/2+y,z
1/2-x,1/2-y,z
1/2+x,1/2-y,-z
1/2-x,1/2+y,-z
loop_
_atom_site_type_symbol
_atom_site_label
_atom_site_fract_x
_atom_site_fract_y
_atom_site_fract_z
Si Si1 0.390499 0.881442 0.307658
Si Si2 0.136419 0.147594 0.577308
Si Si3 0.750000 0.750000 0.377964
Si Si4 0.000000 0.000000 0.000000
O O1 0.358431 0.750000 0.250000
O O2 0.402479 0.690740 0.358560
O O3 0.500000 0.000000 0.296921
O O4 0.308921 0.066551 0.335528
O O5 0.250000 0.250000 0.569082
O O6 0.065530 0.309922 0.537835
O O7 0.163471 0.863209 0.579863
#
# Coordination Sequence:
#
# PCOD9328602 Si02
#       4
#    16  16   8   4
#     4  11  26  49  80 120 164 217 278 346 418 503
#     4  10  25  53  84 122 165 218 285 342 429 496
#     4  10  26  53  78 122 172 216 282 349 422 502
#     4  12  24  60  90 122 170 230 276 362 414 514
#
# _framework density 25.95928
#
# number of rings (size 3 to 8) (size 9 to 14) (size 15 to 20)
#    0.000    1.455    1.818    0.000    5.091    8.000 
#   13.091   10.909    0.000    0.000    0.000    0.000 
#    0.000    0.000    0.000    0.000    0.000    0.000 
#
# Total GULP energy -61524.197679 kJ/mol
# GULP energy per Si atom -5593.108880 kJ/mol
# Density = 2.590020 g / cm^3
# Si number density = 25.959280 Si / 1000 Ang^3
#
#
#
# Elastic Constant Matrix: (Units=GPa)
#
#
# Indices 1 2 3 4 5 6 
#
# 1 190.0885 75.1453 86.4354 0.0000 0.0000 0.0000
# 2 75.1453 139.4798 82.8073 0.0000 0.0000 0.0000
# 3 86.4354 82.8073 192.3765 0.0000 0.0000 0.0000
# 4 0.0000 0.0000 0.0000 43.8142 0.0000 0.0000
# 5 0.0000 0.0000 0.0000 0.0000 39.9058 0.0000
# 6 0.0000 0.0000 0.0000 0.0000 0.0000 46.9779
#
#
#
# Elastic Compliance Matrix: (Units=1/GPa)
#
#
# Indices 1 2 3 4 5 6 
#
# 1 0.007279 -0.002659 -0.002126 0.000000 0.000000 0.000000
# 2 -0.002659 0.010602 -0.003369 0.000000 0.000000 0.000000
# 3 -0.002126 -0.003369 0.007603 0.000000 0.000000 0.000000
# 4 0.000000 0.000000 0.000000 0.022824 0.000000 0.000000
# 5 0.000000 0.000000 0.000000 0.000000 0.025059 0.000000
# 6 0.000000 0.000000 0.000000 0.000000 0.000000 0.021287
#
#
# Mechanical properties :
#
#
# Convention : Reuss Voigt Hill
#
# Bulk Modulus (GPa) = 108.97383 112.30233 110.63808
# Shear Modulus (GPa) = 43.85206 44.64336 44.24771
#
# Velocity S-wave (km/s) = 4.11452 4.15148 4.13304
# Velocity P-wave (km/s) = 8.04004 8.14461 8.09249
#
# Compressibility (1/GPa) = 0.00917652
#
# Stress axis : x y z
#
# Youngs Moduli (GPa) = 137.39038 94.31924 131.52317
#
# Poissons Ratio (x) = 0.25084 0.27956
# Poissons Ratio (y) = 0.36538 0.44308
# Poissons Ratio (z) = 0.29203 0.31774
#
# Static dielectric constant tensor:
#      x y z
#    x 2.059890 0.000000 0.000000 
#    y 0.000000 2.249680 0.000000 
#    z 0.000000 0.000000 2.009800 
# 
# From -- ./inp_files/52884.got.cif
#   From: 2010.05.17/outbox.cif.g08.bks.cpg/sg22_27_cif.got.tgz:52884.got - 2010.06.03 23:40:54.
