data_PCOD9328037
_publ_section_title
;
Structure prediction by ZEFSAII (Michael W. Deem and Ramdas Pophale) SiO2 
 PCOD9328037
Probable space group: F 2 2 2
;
_chemical_formula_sum "Si O2"
_cell_formula_units_Z 88
_cell_length_a 12.944521
_cell_length_b 21.759055
_cell_length_c 14.193016
_cell_angle_alpha 90.000000
_cell_angle_beta 90.000000
_cell_angle_gamma 90.000000
_cell_volume 3997.612613
_symmetry_space_group_name_H-M "F 2 2 2"
_symmetry_group_IT_number 22
_symmetry_cell_setting 'orthorhombic'
loop_
_space_group_symop_operation_xyz
x,y,z
-x,-y,z
x,-y,-z
-x,y,-z
x,1/2+y,1/2+z
-x,1/2-y,1/2+z
x,1/2-y,1/2-z
-x,1/2+y,1/2-z
1/2+x,y,1/2+z
1/2-x,-y,1/2+z
1/2+x,-y,1/2-z
1/2-x,y,1/2-z
1/2+x,1/2+y,z
1/2-x,1/2-y,z
1/2+x,1/2-y,-z
1/2-x,1/2+y,-z
loop_
_atom_site_type_symbol
_atom_site_label
_atom_site_fract_x
_atom_site_fract_y
_atom_site_fract_z
Si Si1 0.576421 0.593593 0.410295
Si Si2 0.534073 0.353870 0.897917
Si Si3 0.699443 0.065978 0.531318
Si Si4 0.000000 0.500000 0.244227
Si Si5 0.635046 0.766980 0.139204
Si Si6 0.657477 0.409627 0.176340
O O1 0.500000 0.592683 0.500000
O O2 0.683891 0.560053 0.434137
O O3 0.528483 0.555973 0.324430
O O4 0.604008 0.663559 0.381962
O O5 0.560429 0.283088 0.905765
O O6 0.441472 0.364168 0.825499
O O7 0.500000 0.378360 0.000000
O O8 0.637209 0.395131 0.889649
O O9 0.703597 0.098349 0.428564
O O10 0.655085 0.000000 0.500000
O O11 0.098128 0.525556 0.303139
O O12 0.632728 0.750000 0.250000
O O13 0.750000 0.750000 0.104957
O O14 0.750000 0.401139 0.250000
#
# Coordination Sequence:
#
# PCOD9328037 Si02
#       6
#    16  16  16   8  16  16
#     4  12  24  42  69  95 140 180 231 296 356 434
#     4  10  22  42  66  92 131 177 226 284 345 422
#     4  11  22  39  63  94 131 176 227 274 340 420
#     4  12  25  42  65 100 138 180 220 286 359 412
#     4  11  23  42  66  97 129 174 237 288 356 422
#     4  11  23  40  64  97 135 171 227 279 344 419
#
# _framework density 22.013138000000001
#
# number of rings (size 3 to 8) (size 9 to 14) (size 15 to 20)
#    0.000    0.909    1.818    6.273    0.000    2.545 
#    3.273    0.000    0.000    3.273    0.000    0.000 
#    0.000    0.000    0.000    0.000    0.000    0.000 
#
# Total GULP energy -122799.261113 kJ/mol
# GULP energy per Si atom -5581.784596 kJ/mol
# Density = 2.196303 g / cm^3
# Si number density = 22.013138 Si / 1000 Ang^3
#
#
#
# Elastic Constant Matrix: (Units=GPa)
#
#
# Indices 1 2 3 4 5 6 
#
# 1 103.9749 17.1890 40.9004 0.0000 0.0000 0.0000
# 2 17.1890 127.3938 5.5977 0.0000 0.0000 0.0000
# 3 40.9004 5.5977 68.4596 0.0000 0.0000 0.0000
# 4 0.0000 0.0000 0.0000 31.6681 0.0000 0.0000
# 5 0.0000 0.0000 0.0000 0.0000 21.1684 0.0000
# 6 0.0000 0.0000 0.0000 0.0000 0.0000 34.8965
#
#
#
# Elastic Compliance Matrix: (Units=1/GPa)
#
#
# Indices 1 2 3 4 5 6 
#
# 1 0.012816 -0.001398 -0.007542 0.000000 0.000000 0.000000
# 2 -0.001398 0.008030 0.000178 0.000000 0.000000 0.000000
# 3 -0.007542 0.000178 0.019099 0.000000 0.000000 0.000000
# 4 0.000000 0.000000 0.000000 0.031578 0.000000 0.000000
# 5 0.000000 0.000000 0.000000 0.000000 0.047240 0.000000
# 6 0.000000 0.000000 0.000000 0.000000 0.000000 0.028656
#
#
# Mechanical properties :
#
#
# Convention : Reuss Voigt Hill
#
# Bulk Modulus (GPa) = 44.59998 47.46692 46.03345
# Shear Modulus (GPa) = 28.99969 33.28935 31.14452
#
# Velocity S-wave (km/s) = 3.63351 3.89298 3.76548
# Velocity P-wave (km/s) = 6.15693 6.46660 6.31366
#
# Compressibility (1/GPa) = 0.02242153
#
# Stress axis : x y z
#
# Youngs Moduli (GPa) = 78.02942 124.52627 52.35986
#
# Poissons Ratio (x) = 0.17406 0.39491
# Poissons Ratio (y) = 0.10907 -0.00934
# Poissons Ratio (z) = 0.58852 -0.02222
#
# Static dielectric constant tensor:
#      x y z
#    x 1.874540 0.000000 0.000000 
#    y 0.000000 1.781950 0.000000 
#    z 0.000000 0.000000 1.850990 
# 
# From -- ./inp_files/29271.got.cif
#   From: 2010.05.17/outbox.cif.g08.bks.cpg/sg22_15_cif.got.tgz:29271.got - 2010.06.03 23:40:54.
