data_PCOD9328641
_publ_section_title
;
Structure prediction by ZEFSAII (Michael W. Deem and Ramdas Pophale) SiO2 
 PCOD9328641
Probable space group: F 2 2 2
;
_chemical_formula_sum "Si O2"
_cell_formula_units_Z 68
_cell_length_a 24.976417
_cell_length_b 9.231655
_cell_length_c 10.815543
_cell_angle_alpha 90.000000
_cell_angle_beta 90.000000
_cell_angle_gamma 90.000000
_cell_volume 2493.779387
_symmetry_space_group_name_H-M "F 2 2 2"
_symmetry_group_IT_number 22
_symmetry_cell_setting 'orthorhombic'
loop_
_space_group_symop_operation_xyz
x,y,z
-x,-y,z
x,-y,-z
-x,y,-z
x,1/2+y,1/2+z
-x,1/2-y,1/2+z
x,1/2-y,1/2-z
-x,1/2+y,1/2-z
1/2+x,y,1/2+z
1/2-x,-y,1/2+z
1/2+x,-y,1/2-z
1/2-x,y,1/2-z
1/2+x,1/2+y,z
1/2-x,1/2-y,z
1/2+x,1/2-y,-z
1/2-x,1/2+y,-z
loop_
_atom_site_type_symbol
_atom_site_label
_atom_site_fract_x
_atom_site_fract_y
_atom_site_fract_z
Si Si1 0.750000 0.250000 0.250000
Si Si2 0.186262 0.230316 0.041230
Si Si3 0.689864 0.036667 0.767596
Si Si4 0.090463 0.386004 0.605602
Si Si5 0.944004 0.074020 0.369796
O O1 0.707405 0.373413 0.296834
O O2 0.250000 0.250000 0.008407
O O3 0.171844 0.096551 0.134300
O O4 0.169142 0.372988 0.116050
O O5 0.145986 0.189773 0.932854
O O6 0.750000 0.102064 0.750000
O O7 0.593392 0.943951 0.747899
O O8 0.074043 0.500000 0.500000
O O9 0.051125 0.246621 0.609927
O O10 0.929142 0.000000 0.500000
O O11 0.000000 0.000000 0.334219
#
# Coordination Sequence:
#
# PCOD9328641 Si02
#       5
#     4  16  16  16  16
#     4   8  12  26  56 108 160 220 332 364 392 492
#     4   9  17  38  68 109 179 243 294 352 420 491
#     4   7  14  28  61 108 162 236 306 354 409 486
#     4  11  26  48  87 134 168 221 295 352 431 531
#     4  10  26  54  85 124 171 214 273 365 462 536
#
# _framework density 27.267849999999999
#
# number of rings (size 3 to 8) (size 9 to 14) (size 15 to 20)
#    0.706    2.118    0.000    1.412    0.000   12.706 
#    0.000    8.235    2.588    5.647    0.000    1.647 
#    0.000    0.000    0.000    0.000    0.000    0.000 
#
# Total GULP energy -94813.452912 kJ/mol
# GULP energy per Si atom -5577.261936 kJ/mol
# Density = 2.720579 g / cm^3
# Si number density = 27.267850 Si / 1000 Ang^3
#
#
#
# Elastic Constant Matrix: (Units=GPa)
#
#
# Indices 1 2 3 4 5 6 
#
# 1 97.9298 41.4025 76.1395 0.0000 0.0000 0.0000
# 2 41.4025 243.7941 87.1108 0.0000 0.0000 0.0000
# 3 76.1395 87.1108 223.1361 0.0000 0.0000 0.0000
# 4 0.0000 0.0000 0.0000 60.0388 0.0000 0.0000
# 5 0.0000 0.0000 0.0000 0.0000 23.1599 0.0000
# 6 0.0000 0.0000 0.0000 0.0000 0.0000 52.7148
#
#
#
# Elastic Compliance Matrix: (Units=1/GPa)
#
#
# Indices 1 2 3 4 5 6 
#
# 1 0.014025 -0.000781 -0.004481 0.000000 0.000000 0.000000
# 2 -0.000781 0.004810 -0.001611 0.000000 0.000000 0.000000
# 3 -0.004481 -0.001611 0.006640 0.000000 0.000000 0.000000
# 4 0.000000 0.000000 0.000000 0.016656 0.000000 0.000000
# 5 0.000000 0.000000 0.000000 0.000000 0.043178 0.000000
# 6 0.000000 0.000000 0.000000 0.000000 0.000000 0.018970
#
#
# Mechanical properties :
#
#
# Convention : Reuss Voigt Hill
#
# Bulk Modulus (GPa) = 85.25961 108.24063 96.75012
# Shear Modulus (GPa) = 41.00530 51.19651 46.10091
#
# Velocity S-wave (km/s) = 3.88209 4.33776 4.11624
# Velocity P-wave (km/s) = 7.17143 8.05417 7.62559
#
# Compressibility (1/GPa) = 0.01172888
#
# Stress axis : x y z
#
# Youngs Moduli (GPa) = 71.29901 207.89116 150.60896
#
# Poissons Ratio (x) = 0.16231 0.67488
# Poissons Ratio (y) = 0.05567 0.24270
# Poissons Ratio (z) = 0.31949 0.33501
#
# Static dielectric constant tensor:
#      x y z
#    x 2.659970 0.000000 0.000000 
#    y 0.000000 2.103240 0.000000 
#    z 0.000000 0.000000 2.644030 
# 
# From -- ./inp_files/38561.got.cif
#   From: 2010.05.17/outbox.cif.g08.bks.cpg/sg22_20_cif.got.tgz:38561.got - 2010.06.03 23:40:54.
