data_PCOD9328320
_publ_section_title
;
Structure prediction by ZEFSAII (Michael W. Deem and Ramdas Pophale) SiO2 
 PCOD9328320
Probable space group: F 2 2 2
;
_chemical_formula_sum "Si O2"
_cell_formula_units_Z 88
_cell_length_a 11.862245
_cell_length_b 26.518241
_cell_length_c 11.931748
_cell_angle_alpha 90.000000
_cell_angle_beta 90.000000
_cell_angle_gamma 90.000000
_cell_volume 3753.320711
_symmetry_space_group_name_H-M "F 2 2 2"
_symmetry_group_IT_number 22
_symmetry_cell_setting 'orthorhombic'
loop_
_space_group_symop_operation_xyz
x,y,z
-x,-y,z
x,-y,-z
-x,y,-z
x,1/2+y,1/2+z
-x,1/2-y,1/2+z
x,1/2-y,1/2-z
-x,1/2+y,1/2-z
1/2+x,y,1/2+z
1/2-x,-y,1/2+z
1/2+x,-y,1/2-z
1/2-x,y,1/2-z
1/2+x,1/2+y,z
1/2-x,1/2-y,z
1/2+x,1/2-y,-z
1/2-x,1/2+y,-z
loop_
_atom_site_type_symbol
_atom_site_label
_atom_site_fract_x
_atom_site_fract_y
_atom_site_fract_z
Si Si1 0.143761 0.801921 0.314061
Si Si2 0.429063 0.865592 0.816719
Si Si3 0.183215 0.144205 0.083228
Si Si4 0.250000 0.750000 0.519107
Si Si5 0.416372 0.955158 0.169502
Si Si6 0.333159 0.450819 0.924325
O O1 0.139739 0.750000 0.250000
O O2 0.250000 0.830741 0.250000
O O3 0.179372 0.787040 0.438548
O O4 0.016997 0.820482 0.312295
O O5 0.314679 0.862375 0.885674
O O6 0.388245 0.874359 0.689651
O O7 0.511733 0.907303 0.863527
O O8 0.172873 0.206103 0.076019
O O9 0.153262 0.104213 0.984507
O O10 0.393407 0.952498 0.303641
O O11 0.298742 0.957259 0.105935
O O12 0.500000 0.000000 0.145522
O O13 0.364735 0.500000 0.000000
#
# Coordination Sequence:
#
# PCOD9328320 Si02
#       6
#    16  16  16   8  16  16
#     4   9  22  42  64  92 130 173 226 272 328 390
#     4  11  25  43  69  93 142 174 229 276 341 395
#     4  11  26  44  65 104 133 182 225 281 336 404
#     4  10  23  43  64  96 136 172 238 264 340 396
#     4  11  25  43  69 100 133 178 218 283 338 397
#     4  11  25  45  70  99 137 170 231 277 335 408
#
# _framework density 23.445903999999999
#
# number of rings (size 3 to 8) (size 9 to 14) (size 15 to 20)
#    0.000    1.636    0.000    3.273   10.182   10.909 
#    3.273    0.000    0.000    0.000    0.000    0.000 
#    0.000    0.000    0.000    0.000    0.000    0.000 
#
# Total GULP energy -122772.034720 kJ/mol
# GULP energy per Si atom -5580.547033 kJ/mol
# Density = 2.339254 g / cm^3
# Si number density = 23.445904 Si / 1000 Ang^3
#
#
#
# Elastic Constant Matrix: (Units=GPa)
#
#
# Indices 1 2 3 4 5 6 
#
# 1 103.5915 -6.4060 -6.3641 0.0000 0.0000 0.0000
# 2 -6.4060 78.3224 11.1411 0.0000 0.0000 0.0000
# 3 -6.3641 11.1411 72.7605 0.0000 0.0000 0.0000
# 4 0.0000 0.0000 0.0000 27.7216 0.0000 0.0000
# 5 0.0000 0.0000 0.0000 0.0000 53.6411 0.0000
# 6 0.0000 0.0000 0.0000 0.0000 0.0000 -19.8668
#
#
#
# Elastic Compliance Matrix: (Units=1/GPa)
#
#
# Indices 1 2 3 4 5 6 
#
# 1 0.009742 0.000691 0.000746 0.000000 0.000000 0.000000
# 2 0.000691 0.013101 -0.001946 0.000000 0.000000 0.000000
# 3 0.000746 -0.001946 0.014107 0.000000 0.000000 0.000000
# 4 0.000000 0.000000 0.000000 0.036073 0.000000 0.000000
# 5 0.000000 0.000000 0.000000 0.000000 0.018642 0.000000
# 6 0.000000 0.000000 0.000000 0.000000 0.000000 -0.050335
#
#
# Mechanical properties :
#
#
# Convention : Reuss Voigt Hill
#
# Bulk Modulus (GPa) = 27.83002 27.93517 27.88260
# Shear Modulus (GPa) = 92.03909 29.38606 60.71258
#
# Velocity S-wave (km/s) = 6.27225 3.54412 5.09421
# Velocity P-wave (km/s) = 8.02188 5.35615 6.82051
#
# Compressibility (1/GPa) = 0.03593242
#
# Stress axis : x y z
#
# Youngs Moduli (GPa) = 102.64984 76.33011 70.88720
#
# Poissons Ratio (x) = -0.05272 -0.05291
# Poissons Ratio (y) = -0.07089 0.13792
# Poissons Ratio (z) = -0.07661 0.14851
#
# Static dielectric constant tensor:
#      x y z
#    x 1.691760 0.000000 0.000000 
#    y 0.000000 1.574020 0.000000 
#    z 0.000000 0.000000 2.023580 
# 
# From -- ./inp_files/18397.got.cif
#   From: 2010.05.17/outbox.cif.g08.bks.cpg/sg22_10_cif.got.tgz:18397.got - 2010.06.03 23:40:54.
