data_PCOD9328980
_publ_section_title
;
Structure prediction by ZEFSAII (Michael W. Deem and Ramdas Pophale) SiO2 
 PCOD9328980
Probable space group: F 2 2 2
;
_chemical_formula_sum "Si O2"
_cell_formula_units_Z 68
_cell_length_a 9.811999
_cell_length_b 17.628961
_cell_length_c 16.464692
_cell_angle_alpha 90.000000
_cell_angle_beta 90.000000
_cell_angle_gamma 90.000000
_cell_volume 2847.985824
_symmetry_space_group_name_H-M "F 2 2 2"
_symmetry_group_IT_number 22
_symmetry_cell_setting 'orthorhombic'
loop_
_space_group_symop_operation_xyz
x,y,z
-x,-y,z
x,-y,-z
-x,y,-z
x,1/2+y,1/2+z
-x,1/2-y,1/2+z
x,1/2-y,1/2-z
-x,1/2+y,1/2-z
1/2+x,y,1/2+z
1/2-x,-y,1/2+z
1/2+x,-y,1/2-z
1/2-x,y,1/2-z
1/2+x,1/2+y,z
1/2-x,1/2-y,z
1/2+x,1/2-y,-z
1/2-x,1/2+y,-z
loop_
_atom_site_type_symbol
_atom_site_label
_atom_site_fract_x
_atom_site_fract_y
_atom_site_fract_z
Si Si1 0.596942 0.747502 0.429484
Si Si2 0.055889 0.894929 0.671605
Si Si3 0.061511 0.629188 0.343075
Si Si4 0.796152 0.975185 0.593330
Si Si5 0.250000 0.750000 0.250000
O O1 0.500000 0.717313 0.500000
O O2 0.750000 0.750000 0.460576
O O3 0.909770 0.809374 0.353388
O O4 0.541669 0.829172 0.403210
O O5 0.016054 0.902511 0.764861
O O6 0.923470 0.921829 0.619723
O O7 0.178116 0.949713 0.646360
O O8 0.157699 0.567818 0.385244
O O9 0.159070 0.695426 0.306171
O O10 0.803832 0.000000 0.500000
#
# Coordination Sequence:
#
# PCOD9328980 Si02
#       5
#    16  16  16  16   4
#     4  12  29  49  80 115 157 208 273 342 410 488
#     4  11  23  47  77 111 157 215 261 325 407 491
#     4  12  24  48  78 114 157 212 276 339 398 485
#     4  11  24  45  79 111 161 214 263 325 405 484
#     4  12  20  44  82 112 148 208 286 332 396 472
#
# _framework density 23.876525000000001
#
# number of rings (size 3 to 8) (size 9 to 14) (size 15 to 20)
#    0.000    0.471    4.706    2.824    8.235    1.882 
#   16.941    0.000    0.000    0.000    0.000    0.000 
#    0.000    0.000    0.000    0.000    0.000    0.000 
#
# Total GULP energy -95371.933987 kJ/mol
# GULP energy per Si atom -5610.113764 kJ/mol
# Density = 2.382218 g / cm^3
# Si number density = 23.876525 Si / 1000 Ang^3
#
#
#
# Elastic Constant Matrix: (Units=GPa)
#
#
# Indices 1 2 3 4 5 6 
#
# 1 129.6158 46.1256 25.9378 0.0000 0.0000 0.0000
# 2 46.1256 97.5567 27.5952 0.0000 0.0000 0.0000
# 3 25.9378 27.5952 81.8876 0.0000 0.0000 0.0000
# 4 0.0000 0.0000 0.0000 46.0138 0.0000 0.0000
# 5 0.0000 0.0000 0.0000 0.0000 24.0227 0.0000
# 6 0.0000 0.0000 0.0000 0.0000 0.0000 56.1827
#
#
#
# Elastic Compliance Matrix: (Units=1/GPa)
#
#
# Indices 1 2 3 4 5 6 
#
# 1 0.009473 -0.004013 -0.001648 0.000000 0.000000 0.000000
# 2 -0.004013 0.013030 -0.003120 0.000000 0.000000 0.000000
# 3 -0.001648 -0.003120 0.013785 0.000000 0.000000 0.000000
# 4 0.000000 0.000000 0.000000 0.021733 0.000000 0.000000
# 5 0.000000 0.000000 0.000000 0.000000 0.041627 0.000000
# 6 0.000000 0.000000 0.000000 0.000000 0.000000 0.017799
#
#
# Mechanical properties :
#
#
# Convention : Reuss Voigt Hill
#
# Bulk Modulus (GPa) = 53.40018 56.48635 54.94327
# Shear Modulus (GPa) = 35.39784 39.20395 37.30089
#
# Velocity S-wave (km/s) = 3.85455 4.05649 3.95681
# Velocity P-wave (km/s) = 6.49798 6.75642 6.62846
#
# Compressibility (1/GPa) = 0.01872653
#
# Stress axis : x y z
#
# Youngs Moduli (GPa) = 105.56431 76.74496 72.54064
#
# Poissons Ratio (x) = 0.30795 0.11957
# Poissons Ratio (y) = 0.42359 0.22633
# Poissons Ratio (z) = 0.17400 0.23945
#
# Static dielectric constant tensor:
#      x y z
#    x 1.896990 0.000000 0.000000 
#    y 0.000000 1.906930 0.000000 
#    z 0.000000 0.000000 1.864960 
# 
# From -- ./inp_files/34854.got.cif
#   From: 2010.05.17/outbox.cif.g08.bks.cpg/sg22_18_cif.got.tgz:34854.got - 2010.06.03 23:40:54.
