data_PCOD9328259
_publ_section_title
;
Structure prediction by ZEFSAII (Michael W. Deem and Ramdas Pophale) SiO2 
 PCOD9328259
Probable space group: F 2 2 2
;
_chemical_formula_sum "Si O2"
_cell_formula_units_Z 88
_cell_length_a 19.853410
_cell_length_b 11.861103
_cell_length_c 16.344150
_cell_angle_alpha 90.000000
_cell_angle_beta 90.000000
_cell_angle_gamma 90.000000
_cell_volume 3848.775046
_symmetry_space_group_name_H-M "F 2 2 2"
_symmetry_group_IT_number 22
_symmetry_cell_setting 'orthorhombic'
loop_
_space_group_symop_operation_xyz
x,y,z
-x,-y,z
x,-y,-z
-x,y,-z
x,1/2+y,1/2+z
-x,1/2-y,1/2+z
x,1/2-y,1/2-z
-x,1/2+y,1/2-z
1/2+x,y,1/2+z
1/2-x,-y,1/2+z
1/2+x,-y,1/2-z
1/2-x,y,1/2-z
1/2+x,1/2+y,z
1/2-x,1/2-y,z
1/2+x,1/2-y,-z
1/2-x,1/2+y,-z
loop_
_atom_site_type_symbol
_atom_site_label
_atom_site_fract_x
_atom_site_fract_y
_atom_site_fract_z
Si Si1 0.823102 0.982236 0.843455
Si Si2 0.562256 0.069770 0.852727
Si Si3 0.171186 0.259999 0.361420
Si Si4 0.672017 0.592286 0.662780
Si Si5 0.500000 0.294108 0.500000
Si Si6 0.140558 0.790242 0.047728
O O1 0.742111 0.972902 0.845913
O O2 0.844318 0.918038 0.759541
O O3 0.845981 0.915930 0.923138
O O4 0.847601 0.110225 0.842979
O O5 0.617085 0.168773 0.825888
O O6 0.500000 0.000000 0.807715
O O7 0.613008 0.973719 0.881993
O O8 0.526867 0.129739 0.927403
O O9 0.250000 0.250000 0.336793
O O10 0.169576 0.251937 0.460453
O O11 0.672010 0.712905 0.620023
O O12 0.439016 0.223829 0.537447
#
# Coordination Sequence:
#
# PCOD9328259 Si02
#       6
#    16  16  16  16   8  16
#     4  11  24  44  63 107 145 184 229 304 367 433
#     4  11  22  42  68 101 132 181 242 290 347 428
#     4  11  23  41  69 105 137 184 239 306 356 419
#     4  11  23  41  72  97 143 189 236 289 358 443
#     4  10  23  40  73  96 132 179 233 296 348 416
#     4  11  23  41  69 103 137 185 240 297 362 433
#
# _framework density 22.864418000000001
#
# number of rings (size 3 to 8) (size 9 to 14) (size 15 to 20)
#    0.000    1.091    3.636    3.000    2.545    2.182 
#    0.000   12.727    0.000    0.000    0.000    0.000 
#    0.000    0.000    0.000    0.000    0.000    0.000 
#
# Total GULP energy -122734.446422 kJ/mol
# GULP energy per Si atom -5578.838474 kJ/mol
# Density = 2.281238 g / cm^3
# Si number density = 22.864418 Si / 1000 Ang^3
#
#
#
# Elastic Constant Matrix: (Units=GPa)
#
#
# Indices 1 2 3 4 5 6 
#
# 1 147.0360 42.7637 16.4856 0.0000 0.0000 0.0000
# 2 42.7637 136.3603 28.4128 0.0000 0.0000 0.0000
# 3 16.4856 28.4128 31.2136 0.0000 0.0000 0.0000
# 4 0.0000 0.0000 0.0000 16.8168 0.0000 0.0000
# 5 0.0000 0.0000 0.0000 0.0000 -16.1059 0.0000
# 6 0.0000 0.0000 0.0000 0.0000 0.0000 47.2027
#
#
#
# Elastic Compliance Matrix: (Units=1/GPa)
#
#
# Indices 1 2 3 4 5 6 
#
# 1 0.007613 -0.001912 -0.002280 0.000000 0.000000 0.000000
# 2 -0.001912 0.009530 -0.007665 0.000000 0.000000 0.000000
# 3 -0.002280 -0.007665 0.040219 0.000000 0.000000 0.000000
# 4 0.000000 0.000000 0.000000 0.059464 0.000000 0.000000
# 5 0.000000 0.000000 0.000000 0.000000 -0.062089 0.000000
# 6 0.000000 0.000000 0.000000 0.000000 0.000000 0.021185
#
#
# Mechanical properties :
#
#
# Convention : Reuss Voigt Hill
#
# Bulk Modulus (GPa) = 29.72027 54.43712 42.07870
# Shear Modulus (GPa) = 45.10459 24.71259 34.90859
#
# Velocity S-wave (km/s) = 4.44632 3.29117 3.91162
# Velocity P-wave (km/s) = 6.27586 6.18892 6.23254
#
# Compressibility (1/GPa) = 0.03364707
#
# Stress axis : x y z
#
# Youngs Moduli (GPa) = 131.35635 104.92705 24.86388
#
# Poissons Ratio (x) = 0.20066 0.05669
# Poissons Ratio (y) = 0.25120 0.19059
# Poissons Ratio (z) = 0.29949 0.80429
#
# Static dielectric constant tensor:
#      x y z
#    x 1.906080 0.000000 0.000000 
#    y 0.000000 1.878330 0.000000 
#    z 0.000000 0.000000 1.859500 
# 
# From -- ./inp_files/22600.got.cif
#   From: 2010.05.17/outbox.cif.g08.bks.cpg/sg22_12_cif.got.tgz:22600.got - 2010.06.03 23:40:54.
