data_PCOD9328077
_publ_section_title
;
Structure prediction by ZEFSAII (Michael W. Deem and Ramdas Pophale) SiO2 
 PCOD9328077
Probable space group: F 2 2 2
;
_chemical_formula_sum "Si O2"
_cell_formula_units_Z 72
_cell_length_a 11.922572
_cell_length_b 9.485077
_cell_length_c 26.845867
_cell_angle_alpha 90.000000
_cell_angle_beta 90.000000
_cell_angle_gamma 90.000000
_cell_volume 3035.905500
_symmetry_space_group_name_H-M "F 2 2 2"
_symmetry_group_IT_number 22
_symmetry_cell_setting 'orthorhombic'
loop_
_space_group_symop_operation_xyz
x,y,z
-x,-y,z
x,-y,-z
-x,y,-z
x,1/2+y,1/2+z
-x,1/2-y,1/2+z
x,1/2-y,1/2-z
-x,1/2+y,1/2-z
1/2+x,y,1/2+z
1/2-x,-y,1/2+z
1/2+x,-y,1/2-z
1/2-x,y,1/2-z
1/2+x,1/2+y,z
1/2-x,1/2-y,z
1/2+x,1/2-y,-z
1/2-x,1/2+y,-z
loop_
_atom_site_type_symbol
_atom_site_label
_atom_site_fract_x
_atom_site_fract_y
_atom_site_fract_z
Si Si1 0.830291 0.500000 0.500000
Si Si2 0.750000 0.250000 0.250000
Si Si3 0.038696 0.643822 0.882118
Si Si4 0.750000 0.750000 0.250000
Si Si5 0.282923 0.994075 0.817985
Si Si6 0.250000 0.750000 0.939216
Si Si7 0.601941 0.903401 0.606097
O O1 0.757005 0.615253 0.473244
O O2 0.892330 0.577373 0.546174
O O3 0.691471 0.365824 0.285711
O O4 0.103200 0.584883 0.833510
O O5 0.136078 0.734071 0.908500
O O6 0.000000 0.500000 0.909076
O O7 0.932673 0.745796 0.879099
O O8 0.790464 0.872780 0.210710
O O9 0.213628 0.043833 0.866372
O O10 0.500000 0.000000 0.624584
#
# Coordination Sequence:
#
# PCOD9328077 Si02
#       7
#     8   4  16   4  16   8  16
#     4  12  27  46  73 110 154 204 251 302 369 432
#     4  10  24  44  78 100 148 192 246 318 386 448
#     4  12  26  46  75 106 146 198 245 300 372 438
#     4  10  22  42  82 100 144 192 236 312 378 436
#     4  11  23  48  70 111 146 192 246 311 376 445
#     4  12  27  49  68 107 152 199 249 307 350 440
#     4  12  24  45  74 105 155 199 244 307 368 443
#
# _framework density 23.716152999999998
#
# number of rings (size 3 to 8) (size 9 to 14) (size 15 to 20)
#    0.000    0.444    4.444    3.667    3.111    0.889 
#    0.000   16.667    0.000    0.000    0.000    0.000 
#    0.000    0.000    0.000    0.000    0.000    0.000 
#
# Total GULP energy -100370.599771 kJ/mol
# GULP energy per Si atom -5576.144432 kJ/mol
# Density = 2.366217 g / cm^3
# Si number density = 23.716153 Si / 1000 Ang^3
#
#
#
# Elastic Constant Matrix: (Units=GPa)
#
#
# Indices 1 2 3 4 5 6 
#
# 1 65.9853 26.7952 35.4044 0.0000 0.0000 0.0000
# 2 26.7952 192.9683 56.5809 0.0000 0.0000 0.0000
# 3 35.4044 56.5809 127.3401 0.0000 0.0000 0.0000
# 4 0.0000 0.0000 0.0000 54.7364 0.0000 0.0000
# 5 0.0000 0.0000 0.0000 0.0000 2.9211 0.0000
# 6 0.0000 0.0000 0.0000 0.0000 0.0000 43.5953
#
#
#
# Elastic Compliance Matrix: (Units=1/GPa)
#
#
# Indices 1 2 3 4 5 6 
#
# 1 0.018047 -0.001190 -0.004489 0.000000 0.000000 0.000000
# 2 -0.001190 0.006037 -0.002352 0.000000 0.000000 0.000000
# 3 -0.004489 -0.002352 0.010146 0.000000 0.000000 0.000000
# 4 0.000000 0.000000 0.000000 0.018269 0.000000 0.000000
# 5 0.000000 0.000000 0.000000 0.000000 0.342331 0.000000
# 6 0.000000 0.000000 0.000000 0.000000 0.000000 0.022938
#
#
# Mechanical properties :
#
#
# Convention : Reuss Voigt Hill
#
# Bulk Modulus (GPa) = 55.03879 69.31718 62.17798
# Shear Modulus (GPa) = 11.36662 38.08479 24.72571
#
# Velocity S-wave (km/s) = 2.19162 4.01166 3.23239
# Velocity P-wave (km/s) = 5.44628 7.12385 6.34079
#
# Compressibility (1/GPa) = 0.01816901
#
# Stress axis : x y z
#
# Youngs Moduli (GPa) = 55.41238 165.64732 98.56196
#
# Poissons Ratio (x) = 0.19707 0.44243
# Poissons Ratio (y) = 0.06592 0.23178
# Poissons Ratio (z) = 0.24874 0.38954
#
# Static dielectric constant tensor:
#      x y z
#    x 1.930830 0.000000 0.000000 
#    y 0.000000 1.909290 0.000000 
#    z 0.000000 0.000000 1.943950 
# 
# From -- ./inp_files/53067.got.cif
#   From: 2010.05.17/outbox.cif.g08.bks.cpg/sg22_27_cif.got.tgz:53067.got - 2010.06.03 23:40:54.
