data_PCOD9328442
_publ_section_title
;
Structure prediction by ZEFSAII (Michael W. Deem and Ramdas Pophale) SiO2 
 PCOD9328442
Probable space group: F 2 2 2
;
_chemical_formula_sum "Si O2"
_cell_formula_units_Z 64
_cell_length_a 5.413060
_cell_length_b 25.848287
_cell_length_c 18.920565
_cell_angle_alpha 90.000000
_cell_angle_beta 90.000000
_cell_angle_gamma 90.000000
_cell_volume 2647.333828
_symmetry_space_group_name_H-M "F 2 2 2"
_symmetry_group_IT_number 22
_symmetry_cell_setting 'orthorhombic'
loop_
_space_group_symop_operation_xyz
x,y,z
-x,-y,z
x,-y,-z
-x,y,-z
x,1/2+y,1/2+z
-x,1/2-y,1/2+z
x,1/2-y,1/2-z
-x,1/2+y,1/2-z
1/2+x,y,1/2+z
1/2-x,-y,1/2+z
1/2+x,-y,1/2-z
1/2-x,y,1/2-z
1/2+x,1/2+y,z
1/2-x,1/2-y,z
1/2+x,1/2-y,-z
1/2-x,1/2+y,-z
loop_
_atom_site_type_symbol
_atom_site_label
_atom_site_fract_x
_atom_site_fract_y
_atom_site_fract_z
Si Si1 0.750000 0.645870 0.250000
Si Si2 0.250000 0.750000 0.956579
Si Si3 0.137152 0.903672 0.328429
Si Si4 0.247935 0.441874 0.970279
Si Si5 0.588283 0.301528 0.149766
O O1 0.647818 0.609108 0.311814
O O2 0.535743 0.683542 0.224033
O O3 0.364910 0.706611 0.905090
O O4 0.500000 0.765397 0.000000
O O5 0.250000 0.912893 0.250000
O O6 0.213616 0.945210 0.385963
O O7 0.246344 0.851509 0.363873
O O8 0.249747 0.500000 0.000000
O O9 0.500000 0.417402 0.000000
O O10 0.000000 0.415547 0.000000
O O11 0.750000 0.250000 0.150559
#
# Coordination Sequence:
#
# PCOD9328442 Si02
#       5
#     8   8  16  16  16
#     4  10  24  41  70 102 148 192 260 312 364 429
#     4  12  26  45  60  91 144 194 260 302 358 432
#     4  10  24  44  71 109 147 197 248 311 365 443
#     4  10  24  49  77 108 146 186 239 303 387 454
#     4  11  24  44  65 100 145 197 255 304 365 417
#
# _framework density 24.175265
#
# number of rings (size 3 to 8) (size 9 to 14) (size 15 to 20)
#    0.000    1.500    1.250    1.500    7.000   13.000 
#    4.500    5.000    0.000    0.000    0.000    0.000 
#    0.000    0.000    0.000    0.000    0.000    0.000 
#
# Total GULP energy -89333.970256 kJ/mol
# GULP energy per Si atom -5583.373141 kJ/mol
# Density = 2.412024 g / cm^3
# Si number density = 24.175265 Si / 1000 Ang^3
#
#
#
# Elastic Constant Matrix: (Units=GPa)
#
#
# Indices 1 2 3 4 5 6 
#
# 1 173.7443 13.9316 53.6249 0.0000 0.0000 0.0000
# 2 13.9316 69.3398 45.0283 0.0000 0.0000 0.0000
# 3 53.6249 45.0283 157.8954 0.0000 0.0000 0.0000
# 4 0.0000 0.0000 0.0000 25.3803 0.0000 0.0000
# 5 0.0000 0.0000 0.0000 0.0000 45.7940 0.0000
# 6 0.0000 0.0000 0.0000 0.0000 0.0000 8.0955
#
#
#
# Elastic Compliance Matrix: (Units=1/GPa)
#
#
# Indices 1 2 3 4 5 6 
#
# 1 0.006431 0.000155 -0.002228 0.000000 0.000000 0.000000
# 2 0.000155 0.017703 -0.005101 0.000000 0.000000 0.000000
# 3 -0.002228 -0.005101 0.008545 0.000000 0.000000 0.000000
# 4 0.000000 0.000000 0.000000 0.039401 0.000000 0.000000
# 5 0.000000 0.000000 0.000000 0.000000 0.021837 0.000000
# 6 0.000000 0.000000 0.000000 0.000000 0.000000 0.123526
#
#
# Mechanical properties :
#
#
# Convention : Reuss Voigt Hill
#
# Bulk Modulus (GPa) = 54.55565 69.57213 62.06389
# Shear Modulus (GPa) = 21.01710 35.08025 28.04868
#
# Velocity S-wave (km/s) = 2.95170 3.81344 3.40990
# Velocity P-wave (km/s) = 5.85085 6.94481 6.42117
#
# Compressibility (1/GPa) = 0.01832991
#
# Stress axis : x y z
#
# Youngs Moduli (GPa) = 155.49925 56.48675 117.02990
#
# Poissons Ratio (x) = -0.00875 0.26077
# Poissons Ratio (y) = -0.02409 0.59699
# Poissons Ratio (z) = 0.34649 0.28815
#
# Static dielectric constant tensor:
#      x y z
#    x 2.083560 0.000000 0.000000 
#    y 0.000000 1.915020 0.000000 
#    z 0.000000 0.000000 2.031000 
# 
# From -- ./inp_files/34222.got.cif
#   From: 2010.05.17/outbox.cif.g08.bks.cpg/sg22_18_cif.got.tgz:34222.got - 2010.06.03 23:40:54.
