data_PCOD9328170
_publ_section_title
;
Structure prediction by ZEFSAII (Michael W. Deem and Ramdas Pophale) SiO2 
 PCOD9328170
Probable space group: F 2 2 2
;
_chemical_formula_sum "Si O2"
_cell_formula_units_Z 112
_cell_length_a 31.407865
_cell_length_b 11.780669
_cell_length_c 15.312831
_cell_angle_alpha 90.000000
_cell_angle_beta 90.000000
_cell_angle_gamma 90.000000
_cell_volume 5665.834165
_symmetry_space_group_name_H-M "F 2 2 2"
_symmetry_group_IT_number 22
_symmetry_cell_setting 'orthorhombic'
loop_
_space_group_symop_operation_xyz
x,y,z
-x,-y,z
x,-y,-z
-x,y,-z
x,1/2+y,1/2+z
-x,1/2-y,1/2+z
x,1/2-y,1/2-z
-x,1/2+y,1/2-z
1/2+x,y,1/2+z
1/2-x,-y,1/2+z
1/2+x,-y,1/2-z
1/2-x,y,1/2-z
1/2+x,1/2+y,z
1/2-x,1/2-y,z
1/2+x,1/2-y,-z
1/2-x,1/2+y,-z
loop_
_atom_site_type_symbol
_atom_site_label
_atom_site_fract_x
_atom_site_fract_y
_atom_site_fract_z
Si Si1 0.365149 0.112887 0.750000
Si Si2 0.250000 0.619722 0.943261
Si Si3 0.964147 0.591455 0.749999
Si Si4 0.659921 0.452834 0.902423
Si Si5 0.159922 0.452834 0.097577
Si Si6 0.500605 0.249999 0.104892
Si Si7 0.900503 0.750000 0.352827
O O1 0.364221 0.250000 0.750000
O O2 0.414223 0.071495 0.749999
O O3 0.344168 0.056124 0.665247
O O4 0.344168 0.056124 0.834753
O O5 0.250000 0.750000 0.982997
O O6 0.294292 0.607856 0.891743
O O7 0.205709 0.607855 0.891743
O O8 0.250000 0.500000 0.000000
O O9 0.974925 0.650688 0.656785
O O10 0.974925 0.650687 0.843214
O O11 0.000000 0.500000 0.749999
O O12 0.622592 0.361540 0.889378
O O13 0.657091 0.500000 0.000000
O O14 0.122593 0.361539 0.110622
O O15 0.157092 0.500000 0.000000
O O16 0.450967 0.249999 0.131380
O O17 0.500000 0.249998 0.000000
O O18 0.893182 0.750000 0.250000
#
# Coordination Sequence:
#
# PCOD9328170 Si02
#       7
#    16  16  16  16  16  16  16
#     4  12  26  45  66  99 145 186 230 293 366 420
#     4  10  22  45  72 111 148 188 238 301 363 425
#     4  11  23  46  64  93 139 174 228 293 348 415
#     4  11  26  42  72 102 136 187 230 290 353 430
#     4  11  26  42  72 102 136 187 230 290 353 430
#     4  11  25  42  66  98 129 180 228 283 347 415
#     4  12  22  46  67 100 137 173 243 287 341 420
#
# _framework density 19.767609
#
# number of rings (size 3 to 8) (size 9 to 14) (size 15 to 20)
#    0.000    0.857    5.714    1.714    6.000    2.286 
#    0.000    2.143    0.000    0.000    0.000    0.000 
#    0.000    0.000    0.000    0.000    0.000    0.000 
#
# Total GULP energy -155993.598279 kJ/mol
# GULP energy per Si atom -5571.199939 kJ/mol
# Density = 1.972262 g / cm^3
# Si number density = 19.767609 Si / 1000 Ang^3
#
#
#
# Elastic Constant Matrix: (Units=GPa)
#
#
# Indices 1 2 3 4 5 6 
#
# 1 108.6858 7.9737 20.9657 0.0000 0.0000 0.0000
# 2 7.9737 101.4981 32.3107 0.0000 0.0000 0.0000
# 3 20.9657 32.3107 156.0340 0.0000 0.0000 0.0000
# 4 0.0000 0.0000 0.0000 42.6662 0.0000 0.0000
# 5 0.0000 0.0000 0.0000 0.0000 42.7881 0.0000
# 6 0.0000 0.0000 0.0000 0.0000 0.0000 28.6670
#
#
#
# Elastic Compliance Matrix: (Units=1/GPa)
#
#
# Indices 1 2 3 4 5 6 
#
# 1 0.009458 -0.000362 -0.001196 0.000000 0.000000 0.000000
# 2 -0.000362 0.010562 -0.002138 0.000000 0.000000 0.000000
# 3 -0.001196 -0.002138 0.007012 0.000000 0.000000 0.000000
# 4 0.000000 0.000000 0.000000 0.023438 0.000000 0.000000
# 5 0.000000 0.000000 0.000000 0.000000 0.023371 0.000000
# 6 0.000000 0.000000 0.000000 0.000000 0.000000 0.034883
#
#
# Mechanical properties :
#
#
# Convention : Reuss Voigt Hill
#
# Bulk Modulus (GPa) = 50.91915 54.30202 52.61059
# Shear Modulus (GPa) = 40.76194 43.15545 41.95870
#
# Velocity S-wave (km/s) = 4.54591 4.67748 4.61216
# Velocity P-wave (km/s) = 7.30538 7.53004 7.41856
#
# Compressibility (1/GPa) = 0.01963898
#
# Stress axis : x y z
#
# Youngs Moduli (GPa) = 105.72957 94.68279 142.60587
#
# Poissons Ratio (x) = 0.03431 0.17053
# Poissons Ratio (y) = 0.03831 0.30494
# Poissons Ratio (z) = 0.12643 0.20246
#
# Static dielectric constant tensor:
#      x y z
#    x 1.662820 0.000000 0.000000 
#    y 0.000000 1.732660 0.000000 
#    z 0.000000 0.000000 1.675110 
# 
# From -- ./inp_files/33520.got.cif
#   From: 2010.05.17/outbox.cif.g08.bks.cpg/sg22_17_cif.got.tgz:33520.got - 2010.06.03 23:40:54.
