data_PCOD9328421
_publ_section_title
;
Structure prediction by ZEFSAII (Michael W. Deem and Ramdas Pophale) SiO2 
 PCOD9328421
Probable space group: F 2 2 2
;
_chemical_formula_sum "Si O2"
_cell_formula_units_Z 84
_cell_length_a 20.156709
_cell_length_b 14.454168
_cell_length_c 12.469475
_cell_angle_alpha 90.000000
_cell_angle_beta 90.000000
_cell_angle_gamma 90.000000
_cell_volume 3632.962316
_symmetry_space_group_name_H-M "F 2 2 2"
_symmetry_group_IT_number 22
_symmetry_cell_setting 'orthorhombic'
loop_
_space_group_symop_operation_xyz
x,y,z
-x,-y,z
x,-y,-z
-x,y,-z
x,1/2+y,1/2+z
-x,1/2-y,1/2+z
x,1/2-y,1/2-z
-x,1/2+y,1/2-z
1/2+x,y,1/2+z
1/2-x,-y,1/2+z
1/2+x,-y,1/2-z
1/2-x,y,1/2-z
1/2+x,1/2+y,z
1/2-x,1/2-y,z
1/2+x,1/2-y,-z
1/2-x,1/2+y,-z
loop_
_atom_site_type_symbol
_atom_site_label
_atom_site_fract_x
_atom_site_fract_y
_atom_site_fract_z
Si Si1 0.659261 0.837316 0.826160
Si Si2 0.859448 0.267211 0.939426
Si Si3 0.750000 0.000739 0.250000
Si Si4 0.158389 0.443322 0.415501
Si Si5 0.050046 0.580421 0.318826
Si Si6 0.000000 0.774158 0.000000
Si Si7 0.250000 0.750000 0.750000
O O1 0.677384 0.750000 0.750000
O O2 0.704167 0.927397 0.812579
O O3 0.587808 0.869167 0.778465
O O4 0.665327 0.807696 0.948521
O O5 0.862098 0.156213 0.950955
O O6 0.807701 0.284019 0.841603
O O7 0.939555 0.286130 0.947447
O O8 0.797437 0.933577 0.187168
O O9 0.201585 0.500000 0.500000
O O10 0.102032 0.517397 0.386110
O O11 0.021801 0.657361 0.401242
O O12 0.000000 0.500000 0.281504
#
# Coordination Sequence:
#
# PCOD9328421 Si02
#       7
#    16  16   8  16  16   8   4
#     4  11  23  39  69 111 142 192 254 331 396 475
#     4  12  26  45  69 105 153 198 267 319 402 478
#     4  10  24  38  64 100 144 182 244 316 392 460
#     4  11  20  38  66  99 134 190 239 308 378 468
#     4  11  20  38  69 109 146 189 256 328 397 457
#     4  12  21  40  76 108 143 202 264 326 385 488
#     4  12  34  48  66 106 160 218 250 346 410 476
#
# _framework density 23.121628999999999
#
# number of rings (size 3 to 8) (size 9 to 14) (size 15 to 20)
#    0.000    0.762    5.714    2.286    5.333    1.524 
#    0.000    0.000    0.000    0.000    4.952    0.000 
#    0.000    0.000    0.000    0.000    0.000    0.000 
#
# Total GULP energy -116956.089783 kJ/mol
# GULP energy per Si atom -5569.337609 kJ/mol
# Density = 2.306900 g / cm^3
# Si number density = 23.121629 Si / 1000 Ang^3
#
#
#
# Elastic Constant Matrix: (Units=GPa)
#
#
# Indices 1 2 3 4 5 6 
#
# 1 117.6125 19.5341 53.9340 0.0000 0.0000 0.0000
# 2 19.5341 61.0449 35.4426 0.0000 0.0000 0.0000
# 3 53.9340 35.4426 161.1166 0.0000 0.0000 0.0000
# 4 0.0000 0.0000 0.0000 37.2411 0.0000 0.0000
# 5 0.0000 0.0000 0.0000 0.0000 30.2311 0.0000
# 6 0.0000 0.0000 0.0000 0.0000 0.0000 45.8943
#
#
#
# Elastic Compliance Matrix: (Units=1/GPa)
#
#
# Indices 1 2 3 4 5 6 
#
# 1 0.010157 -0.001463 -0.003078 0.000000 0.000000 0.000000
# 2 -0.001463 0.018991 -0.003688 0.000000 0.000000 0.000000
# 3 -0.003078 -0.003688 0.008048 0.000000 0.000000 0.000000
# 4 0.000000 0.000000 0.000000 0.026852 0.000000 0.000000
# 5 0.000000 0.000000 0.000000 0.000000 0.033079 0.000000
# 6 0.000000 0.000000 0.000000 0.000000 0.000000 0.021789
#
#
# Mechanical properties :
#
#
# Convention : Reuss Voigt Hill
#
# Bulk Modulus (GPa) = 48.22073 61.95504 55.08789
# Shear Modulus (GPa) = 35.14027 38.06418 36.60223
#
# Velocity S-wave (km/s) = 3.90269 4.06181 3.98305
# Velocity P-wave (km/s) = 6.41939 6.98936 6.71043
#
# Compressibility (1/GPa) = 0.02073797
#
# Stress axis : x y z
#
# Youngs Moduli (GPa) = 98.45331 52.65732 124.24832
#
# Poissons Ratio (x) = 0.07704 0.38247
# Poissons Ratio (y) = 0.14404 0.45821
# Poissons Ratio (z) = 0.30307 0.19419
#
# Static dielectric constant tensor:
#      x y z
#    x 2.069410 0.000000 0.000000 
#    y 0.000000 1.484650 0.000000 
#    z 0.000000 0.000000 1.991950 
# 
# From -- ./inp_files/21359.got.cif
#   From: 2010.05.17/outbox.cif.g08.bks.cpg/sg22_11_cif.got.tgz:21359.got - 2010.06.03 23:40:54.
