data_PCOD9328244
_publ_section_title
;
Structure prediction by ZEFSAII (Michael W. Deem and Ramdas Pophale) SiO2 
 PCOD9328244
Probable space group: F 2 2 2
;
_chemical_formula_sum "Si O2"
_cell_formula_units_Z 88
_cell_length_a 12.005857
_cell_length_b 19.243698
_cell_length_c 18.376309
_cell_angle_alpha 90.000000
_cell_angle_beta 90.000000
_cell_angle_gamma 90.000000
_cell_volume 4245.608889
_symmetry_space_group_name_H-M "F 2 2 2"
_symmetry_group_IT_number 22
_symmetry_cell_setting 'orthorhombic'
loop_
_space_group_symop_operation_xyz
x,y,z
-x,-y,z
x,-y,-z
-x,y,-z
x,1/2+y,1/2+z
-x,1/2-y,1/2+z
x,1/2-y,1/2-z
-x,1/2+y,1/2-z
1/2+x,y,1/2+z
1/2-x,-y,1/2+z
1/2+x,-y,1/2-z
1/2-x,y,1/2-z
1/2+x,1/2+y,z
1/2-x,1/2-y,z
1/2+x,1/2-y,-z
1/2-x,1/2+y,-z
loop_
_atom_site_type_symbol
_atom_site_label
_atom_site_fract_x
_atom_site_fract_y
_atom_site_fract_z
Si Si1 0.619762 0.397296 0.269268
Si Si2 0.901216 0.134022 0.550664
Si Si3 0.174693 0.081268 0.009819
Si Si4 0.000000 0.000000 0.374207
Si Si5 0.508502 0.377500 0.118235
Si Si6 0.029792 0.725644 0.826779
O O1 0.750000 0.393128 0.250000
O O2 0.588842 0.459075 0.324314
O O3 0.548544 0.407748 0.195320
O O4 0.572567 0.325886 0.305466
O O5 0.786913 0.125095 0.509086
O O6 0.939806 0.058224 0.578075
O O7 0.890661 0.181417 0.621673
O O8 0.000000 0.162204 0.500000
O O9 0.107586 0.094789 0.085051
O O10 0.097060 0.103816 0.943485
O O11 0.198254 0.000000 0.000000
O O12 0.504500 0.294940 0.131036
O O13 0.079986 0.750000 0.750000
#
# Coordination Sequence:
#
# PCOD9328244 Si02
#       6
#    16  16  16   8  16  16
#     4  10  23  40  68  95 130 180 224 282 339 408
#     4  11  24  42  68  96 137 178 224 283 340 413
#     4  11  25  42  67  97 133 173 224 283 338 403
#     4  10  23  40  62  99 128 170 232 274 337 404
#     4  10  23  42  63  98 130 171 220 276 340 403
#     4   9  22  46  64  99 135 169 229 272 338 408
#
# _framework density 20.727298000000001
#
# number of rings (size 3 to 8) (size 9 to 14) (size 15 to 20)
#    0.000    1.818    0.000    2.455   12.727    4.000 
#    0.000   10.000    0.000    0.000    0.000    0.000 
#    0.000    0.000    0.000    0.000    0.000    0.000 
#
# Total GULP energy -122963.076752 kJ/mol
# GULP energy per Si atom -5589.230761 kJ/mol
# Density = 2.068012 g / cm^3
# Si number density = 20.727298 Si / 1000 Ang^3
#
#
#
# Elastic Constant Matrix: (Units=GPa)
#
#
# Indices 1 2 3 4 5 6 
#
# 1 79.5050 -9.4668 4.6430 0.0000 0.0000 0.0000
# 2 -9.4668 59.1739 20.0282 0.0000 0.0000 0.0000
# 3 4.6430 20.0282 60.8131 0.0000 0.0000 0.0000
# 4 0.0000 0.0000 0.0000 30.0085 0.0000 0.0000
# 5 0.0000 0.0000 0.0000 0.0000 20.1185 0.0000
# 6 0.0000 0.0000 0.0000 0.0000 0.0000 8.7705
#
#
#
# Elastic Compliance Matrix: (Units=1/GPa)
#
#
# Indices 1 2 3 4 5 6 
#
# 1 0.013012 0.002721 -0.001890 0.000000 0.000000 0.000000
# 2 0.002721 0.019589 -0.006659 0.000000 0.000000 0.000000
# 3 -0.001890 -0.006659 0.018781 0.000000 0.000000 0.000000
# 4 0.000000 0.000000 0.000000 0.033324 0.000000 0.000000
# 5 0.000000 0.000000 0.000000 0.000000 0.049705 0.000000
# 6 0.000000 0.000000 0.000000 0.000000 0.000000 0.114018
#
#
# Mechanical properties :
#
#
# Convention : Reuss Voigt Hill
#
# Bulk Modulus (GPa) = 25.17175 25.54453 25.35814
# Shear Modulus (GPa) = 18.29311 24.06534 21.17923
#
# Velocity S-wave (km/s) = 2.97402 3.41111 3.20003
# Velocity P-wave (km/s) = 4.89527 5.27874 5.09061
#
# Compressibility (1/GPa) = 0.03972707
#
# Stress axis : x y z
#
# Youngs Moduli (GPa) = 76.85087 51.05016 53.24469
#
# Poissons Ratio (x) = -0.13892 0.10062
# Poissons Ratio (y) = -0.20914 0.35456
# Poissons Ratio (z) = 0.14523 0.33995
#
# Static dielectric constant tensor:
#      x y z
#    x 1.736020 0.000000 0.000000 
#    y 0.000000 1.733900 0.000000 
#    z 0.000000 0.000000 1.747580 
# 
# From -- ./inp_files/36098.got.cif
#   From: 2010.05.17/outbox.cif.g08.bks.cpg/sg22_19_cif.got.tgz:36098.got - 2010.06.03 23:40:54.
