data_PCOD9328791
_publ_section_title
;
Structure prediction by ZEFSAII (Michael W. Deem and Ramdas Pophale) SiO2 
 PCOD9328791
Probable space group: F 2 2 2
;
_chemical_formula_sum "Si O2"
_cell_formula_units_Z 88
_cell_length_a 22.566105
_cell_length_b 20.454265
_cell_length_c 9.744807
_cell_angle_alpha 90.000000
_cell_angle_beta 90.000000
_cell_angle_gamma 90.000000
_cell_volume 4497.940695
_symmetry_space_group_name_H-M "F 2 2 2"
_symmetry_group_IT_number 22
_symmetry_cell_setting 'orthorhombic'
loop_
_space_group_symop_operation_xyz
x,y,z
-x,-y,z
x,-y,-z
-x,y,-z
x,1/2+y,1/2+z
-x,1/2-y,1/2+z
x,1/2-y,1/2-z
-x,1/2+y,1/2-z
1/2+x,y,1/2+z
1/2-x,-y,1/2+z
1/2+x,-y,1/2-z
1/2-x,y,1/2-z
1/2+x,1/2+y,z
1/2-x,1/2-y,z
1/2+x,1/2-y,-z
1/2-x,1/2+y,-z
loop_
_atom_site_type_symbol
_atom_site_label
_atom_site_fract_x
_atom_site_fract_y
_atom_site_fract_z
Si Si1 0.304916 0.482492 0.846775
Si Si2 0.750000 0.750000 0.750000
Si Si3 0.909617 0.583682 0.317580
Si Si4 0.145397 0.848077 0.263274
Si Si5 0.000000 0.500000 0.500000
Si Si6 0.428371 0.798953 0.491858
Si Si7 0.430156 0.352079 0.473543
O O1 0.250000 0.492460 0.750000
O O2 0.356567 0.533064 0.814639
O O3 0.328838 0.409344 0.821282
O O4 0.286480 0.500000 0.000000
O O5 0.799305 0.801573 0.690482
O O6 0.961324 0.545515 0.399670
O O7 0.899260 0.648484 0.407508
O O8 0.920545 0.607488 0.163926
O O9 0.099410 0.811901 0.159038
O O10 0.108850 0.872840 0.395157
O O11 0.500000 0.807587 0.500000
O O12 0.416064 0.725226 0.539690
O O13 0.500000 0.356390 0.500000
#
# Coordination Sequence:
#
# PCOD9328791 Si02
#       7
#    16   4  16  16   4  16  16
#     4  12  28  47  70  96 136 191 237 290 345 420
#     4  12  24  44  80  94 140 192 234 268 344 444
#     4  12  25  44  70 101 139 185 231 286 349 426
#     4  12  24  47  72 104 138 188 234 281 356 423
#     4  12  24  48  70  92 140 196 226 276 368 432
#     4  11  21  44  73 101 142 180 227 285 363 419
#     4  11  26  41  69 111 142 176 230 300 345 412
#
# _framework density 19.564508
#
# number of rings (size 3 to 8) (size 9 to 14) (size 15 to 20)
#    0.000    0.364    6.364    1.636    5.091    2.909 
#    0.000    0.000    0.000    2.182    0.000    0.000 
#    0.000    0.000    0.000    0.000    0.000    0.000 
#
# Total GULP energy -122811.332487 kJ/mol
# GULP energy per Si atom -5582.333295 kJ/mol
# Density = 1.951998 g / cm^3
# Si number density = 19.564508 Si / 1000 Ang^3
#
#
#
# Elastic Constant Matrix: (Units=GPa)
#
#
# Indices 1 2 3 4 5 6 
#
# 1 122.2740 38.3599 71.9271 0.0000 0.0000 0.0000
# 2 38.3599 58.2239 57.5454 0.0000 0.0000 0.0000
# 3 71.9271 57.5454 169.2679 0.0001 -0.0001 -0.0001
# 4 0.0000 0.0000 0.0001 40.7071 0.0000 -0.0001
# 5 0.0000 0.0000 -0.0001 0.0000 35.0542 0.0001
# 6 0.0000 0.0000 -0.0001 -0.0001 0.0001 108.8750
#
#
#
# Elastic Compliance Matrix: (Units=1/GPa)
#
#
# Indices 1 2 3 4 5 6 
#
# 1 0.011533 -0.004149 -0.003490 0.000000 0.000000 0.000000
# 2 -0.004149 0.027359 -0.007538 0.000000 0.000000 0.000000
# 3 -0.003490 -0.007538 0.009954 0.000000 0.000000 0.000000
# 4 0.000000 0.000000 0.000000 0.024566 0.000000 0.000000
# 5 0.000000 0.000000 0.000000 0.000000 0.028527 0.000000
# 6 0.000000 0.000000 0.000000 0.000000 0.000000 0.009185
#
#
# Mechanical properties :
#
#
# Convention : Reuss Voigt Hill
#
# Bulk Modulus (GPa) = 54.08018 76.15898 65.11958
# Shear Modulus (GPa) = 33.86585 49.05613 41.46099
#
# Velocity S-wave (km/s) = 4.16502 5.01283 4.60846
# Velocity P-wave (km/s) = 7.12965 8.51565 7.85328
#
# Compressibility (1/GPa) = 0.01849106
#
# Stress axis : x y z
#
# Youngs Moduli (GPa) = 86.70722 36.55143 100.46566
#
# Poissons Ratio (x) = 0.15164 0.35066
# Poissons Ratio (y) = 0.35973 0.75732
# Poissons Ratio (z) = 0.30264 0.27553
#
# Static dielectric constant tensor:
#      x y z
#    x 1.684120 0.000000 0.000000 
#    y 0.000000 1.705880 0.000000 
#    z 0.000000 0.000000 1.460810 
# 
# From -- ./inp_files/13778.got.cif
#   From: 2010.05.17/outbox.cif.g08.bks.cpg/sg22_7_cif.got.tgz:13778.got - 2010.06.03 23:40:54.
