data_PCOD9328280
_publ_section_title
;
Structure prediction by ZEFSAII (Michael W. Deem and Ramdas Pophale) SiO2 
 PCOD9328280
Probable space group: F 2 2 2
;
_chemical_formula_sum "Si O2"
_cell_formula_units_Z 68
_cell_length_a 19.340548
_cell_length_b 12.072545
_cell_length_c 11.161889
_cell_angle_alpha 90.000000
_cell_angle_beta 90.000000
_cell_angle_gamma 90.000000
_cell_volume 2606.185400
_symmetry_space_group_name_H-M "F 2 2 2"
_symmetry_group_IT_number 22
_symmetry_cell_setting 'orthorhombic'
loop_
_space_group_symop_operation_xyz
x,y,z
-x,-y,z
x,-y,-z
-x,y,-z
x,1/2+y,1/2+z
-x,1/2-y,1/2+z
x,1/2-y,1/2-z
-x,1/2+y,1/2-z
1/2+x,y,1/2+z
1/2-x,-y,1/2+z
1/2+x,-y,1/2-z
1/2-x,y,1/2-z
1/2+x,1/2+y,z
1/2-x,1/2-y,z
1/2+x,1/2-y,-z
1/2-x,1/2+y,-z
loop_
_atom_site_type_symbol
_atom_site_label
_atom_site_fract_x
_atom_site_fract_y
_atom_site_fract_z
Si Si1 0.736428 0.126608 0.418419
Si Si2 0.500000 0.000000 0.500000
Si Si3 0.105471 0.387672 0.947408
Si Si4 0.860490 0.809631 0.130159
Si Si5 0.901821 0.952170 0.806475
O O1 0.750000 0.250000 0.377079
O O2 0.813490 0.083244 0.424018
O O3 0.700737 0.137561 0.549426
O O4 0.677202 0.075919 0.337151
O O5 0.549345 0.075358 0.418225
O O6 0.106022 0.283647 0.039474
O O7 0.076719 0.614545 0.188200
O O8 0.074898 0.500000 0.000000
O O9 0.834754 0.750000 0.250000
O O10 0.904366 0.913047 0.184732
#
# Coordination Sequence:
#
# PCOD9328280 Si02
#       5
#    16   4  16  16  16
#     4  10  23  41  71 109 156 195 251 332 411 482
#     4  12  28  52  82 104 154 224 264 340 388 500
#     4  11  23  39  71 111 150 199 253 333 403 472
#     4  11  22  42  71 111 158 205 262 319 406 480
#     4  12  24  49  74 105 157 209 269 325 404 478
#
# _framework density 26.091774000000001
#
# number of rings (size 3 to 8) (size 9 to 14) (size 15 to 20)
#    0.000    0.941    4.706    2.118    0.000   10.824 
#    4.235    2.941    0.000    0.000    0.000    0.000 
#    0.000    0.000    0.000    0.000    0.000    0.000 
#
# Total GULP energy -94890.925626 kJ/mol
# GULP energy per Si atom -5581.819154 kJ/mol
# Density = 2.603239 g / cm^3
# Si number density = 26.091774 Si / 1000 Ang^3
#
#
#
# Elastic Constant Matrix: (Units=GPa)
#
#
# Indices 1 2 3 4 5 6 
#
# 1 74.7085 36.2001 0.2228 0.0000 0.0000 0.0000
# 2 36.2001 81.4656 64.0593 0.0000 0.0000 0.0000
# 3 0.2228 64.0593 198.9389 0.0000 0.0000 0.0000
# 4 0.0000 0.0000 0.0000 29.7477 0.0000 0.0000
# 5 0.0000 0.0000 0.0000 0.0000 54.9218 0.0000
# 6 0.0000 0.0000 0.0000 0.0000 0.0000 -7.3982
#
#
#
# Elastic Compliance Matrix: (Units=1/GPa)
#
#
# Indices 1 2 3 4 5 6 
#
# 1 0.018778 -0.011151 0.003570 0.000000 0.000000 0.000000
# 2 -0.011151 0.023059 -0.007413 0.000000 0.000000 0.000000
# 3 0.003570 -0.007413 0.007410 0.000000 0.000000 0.000000
# 4 0.000000 0.000000 0.000000 0.033616 0.000000 0.000000
# 5 0.000000 0.000000 0.000000 0.000000 0.018208 0.000000
# 6 0.000000 0.000000 0.000000 0.000000 0.000000 -0.135168
#
#
# Mechanical properties :
#
#
# Convention : Reuss Voigt Hill
#
# Bulk Modulus (GPa) = 51.92531 61.78636 56.85584
# Shear Modulus (GPa) = 2164.49532 32.42966 1098.46249
#
# Velocity S-wave (km/s) = 28.83350 3.52931 20.54053
# Velocity P-wave (km/s) = 33.59224 6.35137 24.17415
#
# Compressibility (1/GPa) = 0.01925843
#
# Stress axis : x y z
#
# Youngs Moduli (GPa) = 53.25371 43.36678 134.96036
#
# Poissons Ratio (x) = 0.48359 -0.48177
# Poissons Ratio (y) = 0.59384 1.00042
# Poissons Ratio (z) = -0.19010 0.32146
#
# Static dielectric constant tensor:
#      x y z
#    x 2.093890 0.000000 0.000000 
#    y 0.000000 2.072620 0.000000 
#    z 0.000000 0.000000 2.138970 
# 
# From -- ./inp_files/22376.got.cif
#   From: 2010.05.17/outbox.cif.g08.bks.cpg/sg22_12_cif.got.tgz:22376.got - 2010.06.03 23:40:54.
