data_PCOD9328476
_publ_section_title
;
Structure prediction by ZEFSAII (Michael W. Deem and Ramdas Pophale) SiO2 
 PCOD9328476
Probable space group: F 2 2 2
;
_chemical_formula_sum "Si O2"
_cell_formula_units_Z 64
_cell_length_a 11.825103
_cell_length_b 14.539449
_cell_length_c 15.008744
_cell_angle_alpha 90.000000
_cell_angle_beta 90.000000
_cell_angle_gamma 90.000000
_cell_volume 2580.460590
_symmetry_space_group_name_H-M "F 2 2 2"
_symmetry_group_IT_number 22
_symmetry_cell_setting 'orthorhombic'
loop_
_space_group_symop_operation_xyz
x,y,z
-x,-y,z
x,-y,-z
-x,y,-z
x,1/2+y,1/2+z
-x,1/2-y,1/2+z
x,1/2-y,1/2-z
-x,1/2+y,1/2-z
1/2+x,y,1/2+z
1/2-x,-y,1/2+z
1/2+x,-y,1/2-z
1/2-x,y,1/2-z
1/2+x,1/2+y,z
1/2-x,1/2-y,z
1/2+x,1/2-y,-z
1/2-x,1/2+y,-z
loop_
_atom_site_type_symbol
_atom_site_label
_atom_site_fract_x
_atom_site_fract_y
_atom_site_fract_z
Si Si1 0.875690 0.713324 0.878205
Si Si2 0.441813 0.372656 0.086143
Si Si3 0.306465 0.600727 0.544032
Si Si4 0.433733 0.355844 0.274382
O O1 0.750000 0.750000 0.858973
O O2 0.969036 0.792101 0.892748
O O3 0.934219 0.652820 0.801361
O O4 0.871955 0.655888 0.968603
O O5 0.315028 0.351236 0.055940
O O6 0.421522 0.414552 0.184307
O O7 0.500000 0.415056 0.000000
O O8 0.289344 0.500000 0.500000
O O9 0.368833 0.605497 0.639365
O O10 0.392912 0.250000 0.250000
#
# Coordination Sequence:
#
# PCOD9328476 Si02
#       4
#    16  16  16  16
#     4  11  23  43  74 110 150 204 274 328 379 476
#     4  11  23  45  74 106 147 203 262 320 379 483
#     4  12  27  47  74 114 159 199 261 340 413 456
#     4  10  24  43  78 110 148 205 273 313 389 483
#
# _framework density 24.801774000000002
#
# number of rings (size 3 to 8) (size 9 to 14) (size 15 to 20)
#    0.000    1.000    2.500    4.500    0.000   10.000 
#    0.000    7.500    0.000    0.000    0.000    0.000 
#    0.000    0.000    0.000    0.000    0.000    0.000 
#
# Total GULP energy -89381.710716 kJ/mol
# GULP energy per Si atom -5586.356920 kJ/mol
# Density = 2.474532 g / cm^3
# Si number density = 24.801774 Si / 1000 Ang^3
#
#
#
# Elastic Constant Matrix: (Units=GPa)
#
#
# Indices 1 2 3 4 5 6 
#
# 1 167.5922 19.7388 42.4650 0.0000 0.0000 0.0000
# 2 19.7388 55.9840 20.3303 0.0000 0.0000 0.0000
# 3 42.4650 20.3303 228.7526 0.0000 0.0000 0.0000
# 4 0.0000 0.0000 0.0000 -5.0902 0.0000 0.0000
# 5 0.0000 0.0000 0.0000 0.0000 37.9351 0.0000
# 6 0.0000 0.0000 0.0000 0.0000 0.0000 -83.1686
#
#
#
# Elastic Compliance Matrix: (Units=1/GPa)
#
#
# Indices 1 2 3 4 5 6 
#
# 1 0.006451 -0.001901 -0.001029 0.000000 0.000000 0.000000
# 2 -0.001901 0.019018 -0.001337 0.000000 0.000000 0.000000
# 3 -0.001029 -0.001337 0.004681 0.000000 0.000000 0.000000
# 4 0.000000 0.000000 0.000000 -0.196457 0.000000 0.000000
# 5 0.000000 0.000000 0.000000 0.000000 0.026361 0.000000
# 6 0.000000 0.000000 0.000000 0.000000 0.000000 -0.012024
#
#
# Mechanical properties :
#
#
# Convention : Reuss Voigt Hill
#
# Bulk Modulus (GPa) = 46.26033 68.59968 57.43000
# Shear Modulus (GPa) = -36.70274 14.58824 -11.05725
#
# Velocity S-wave (km/s) = -3.85105 2.42790 -2.11375
# Velocity P-wave (km/s) = 1.03998 5.96480 4.15315
#
# Compressibility (1/GPa) = 0.02161679
#
# Stress axis : x y z
#
# Youngs Moduli (GPa) = 155.00465 52.58130 213.61369
#
# Poissons Ratio (x) = 0.09996 0.21974
# Poissons Ratio (y) = 0.29468 0.28567
# Poissons Ratio (z) = 0.15945 0.07032
#
# Static dielectric constant tensor:
#      x y z
#    x 1.899130 0.000000 0.000000 
#    y 0.000000 2.078640 0.000000 
#    z 0.000000 0.000000 2.081080 
# 
# From -- ./inp_files/27807.got.cif
#   From: 2010.05.17/outbox.cif.g08.bks.cpg/sg22_14_cif.got.tgz:27807.got - 2010.06.03 23:40:54.
