data_PCOD9328115
_publ_section_title
;
Structure prediction by ZEFSAII (Michael W. Deem and Ramdas Pophale) SiO2 
 PCOD9328115
Probable space group: F 2 2 2
;
_chemical_formula_sum "Si O2"
_cell_formula_units_Z 88
_cell_length_a 13.324509
_cell_length_b 17.147927
_cell_length_c 17.739072
_cell_angle_alpha 90.000000
_cell_angle_beta 90.000000
_cell_angle_gamma 90.000000
_cell_volume 4053.159897
_symmetry_space_group_name_H-M "F 2 2 2"
_symmetry_group_IT_number 22
_symmetry_cell_setting 'orthorhombic'
loop_
_space_group_symop_operation_xyz
x,y,z
-x,-y,z
x,-y,-z
-x,y,-z
x,1/2+y,1/2+z
-x,1/2-y,1/2+z
x,1/2-y,1/2-z
-x,1/2+y,1/2-z
1/2+x,y,1/2+z
1/2-x,-y,1/2+z
1/2+x,-y,1/2-z
1/2-x,y,1/2-z
1/2+x,1/2+y,z
1/2-x,1/2-y,z
1/2+x,1/2-y,-z
1/2-x,1/2+y,-z
loop_
_atom_site_type_symbol
_atom_site_label
_atom_site_fract_x
_atom_site_fract_y
_atom_site_fract_z
Si Si1 0.146778 0.205588 0.565212
Si Si2 0.000000 0.179895 0.000000
Si Si3 0.149052 0.881230 0.874184
Si Si4 0.527180 0.882243 0.826711
Si Si5 0.107580 0.250000 0.250000
Si Si6 0.500000 0.500000 0.205249
Si Si7 0.358508 0.426581 0.442446
O O1 0.250000 0.250000 0.567911
O O2 0.057406 0.267481 0.560667
O O3 0.139010 0.151968 0.491858
O O4 0.126175 0.149894 0.634705
O O5 0.910935 0.139889 0.951735
O O6 0.158068 0.807507 0.814831
O O7 0.257329 0.917031 0.893656
O O8 0.079150 0.948341 0.839363
O O9 0.460947 0.811531 0.794447
O O10 0.554946 0.939828 0.760146
O O11 0.455097 0.922813 0.888634
O O12 0.356967 0.500000 0.500000
#
# Coordination Sequence:
#
# PCOD9328115 Si02
#       7
#    16   8  16  16   8   8  16
#     4  12  23  42  73 107 133 178 240 299 353 410
#     4  12  22  43  73 102 140 174 236 304 348 405
#     4  11  25  43  70 104 144 183 242 289 359 425
#     4  11  23  46  69  99 142 185 236 290 358 424
#     4  10  22  43  73 100 134 188 237 290 349 420
#     4  10  26  43  69  94 148 200 218 288 360 425
#     4  12  26  41  69 108 140 189 238 292 357 427
#
# _framework density 21.711455999999998
#
# number of rings (size 3 to 8) (size 9 to 14) (size 15 to 20)
#    0.000    0.727    5.455    1.091    2.545    4.364 
#    0.000    2.273    0.000    0.000    0.000    0.000 
#    0.000    0.000    0.000    0.000    0.000    0.000 
#
# Total GULP energy -122957.552360 kJ/mol
# GULP energy per Si atom -5588.979653 kJ/mol
# Density = 2.166204 g / cm^3
# Si number density = 21.711456 Si / 1000 Ang^3
#
#
#
# Elastic Constant Matrix: (Units=GPa)
#
#
# Indices 1 2 3 4 5 6 
#
# 1 58.2215 35.2348 9.8123 0.0000 0.0000 0.0000
# 2 35.2348 112.1427 47.1901 0.0000 0.0000 0.0000
# 3 9.8123 47.1901 89.1246 0.0000 0.0000 0.0000
# 4 0.0000 0.0000 0.0000 35.7139 0.0000 0.0000
# 5 0.0000 0.0000 0.0000 0.0000 -0.3126 0.0000
# 6 0.0000 0.0000 0.0000 0.0000 0.0000 21.0709
#
#
#
# Elastic Compliance Matrix: (Units=1/GPa)
#
#
# Indices 1 2 3 4 5 6 
#
# 1 0.021373 -0.007366 0.001547 0.000000 0.000000 0.000000
# 2 -0.007366 0.014013 -0.006608 0.000000 0.000000 0.000000
# 3 0.001547 -0.006608 0.014549 0.000000 0.000000 0.000000
# 4 0.000000 0.000000 0.000000 0.028000 0.000000 0.000000
# 5 0.000000 0.000000 0.000000 0.000000 -3.198961 0.000000
# 6 0.000000 0.000000 0.000000 0.000000 0.000000 0.047459
#
#
# Mechanical properties :
#
#
# Convention : Reuss Voigt Hill
#
# Bulk Modulus (GPa) = 39.87320 49.32925 44.60123
# Shear Modulus (GPa) = -1.64455 22.44454 10.40000
#
# Velocity S-wave (km/s) = -0.87126 3.21871 2.19100
# Velocity P-wave (km/s) = 4.17047 6.04840 5.19499
#
# Compressibility (1/GPa) = 0.02507950
#
# Stress axis : x y z
#
# Youngs Moduli (GPa) = 46.78779 71.36442 68.73343
#
# Poissons Ratio (x) = 0.52570 -0.10635
# Poissons Ratio (y) = 0.34466 0.45422
# Poissons Ratio (z) = -0.07240 0.47161
#
# Static dielectric constant tensor:
#      x y z
#    x 1.742120 0.000000 0.000000 
#    y 0.000000 1.812580 0.000000 
#    z 0.000000 0.000000 1.805500 
# 
# From -- ./inp_files/37170.got.cif
#   From: 2010.05.17/outbox.cif.g08.bks.cpg/sg22_19_cif.got.tgz:37170.got - 2010.06.03 23:40:54.
