data_PCOD9328018
_publ_section_title
;
Structure prediction by ZEFSAII (Michael W. Deem and Ramdas Pophale) SiO2 
 PCOD9328018
Probable space group: F 2 2 2
;
_chemical_formula_sum "Si O2"
_cell_formula_units_Z 56
_cell_length_a 32.871359
_cell_length_b 12.975589
_cell_length_c 5.037238
_cell_angle_alpha 90.000000
_cell_angle_beta 90.000000
_cell_angle_gamma 90.000000
_cell_volume 2148.509168
_symmetry_space_group_name_H-M "F 2 2 2"
_symmetry_group_IT_number 22
_symmetry_cell_setting 'orthorhombic'
loop_
_space_group_symop_operation_xyz
x,y,z
-x,-y,z
x,-y,-z
-x,y,-z
x,1/2+y,1/2+z
-x,1/2-y,1/2+z
x,1/2-y,1/2-z
-x,1/2+y,1/2-z
1/2+x,y,1/2+z
1/2-x,-y,1/2+z
1/2+x,-y,1/2-z
1/2-x,y,1/2-z
1/2+x,1/2+y,z
1/2-x,1/2-y,z
1/2+x,1/2-y,-z
1/2-x,1/2+y,-z
loop_
_atom_site_type_symbol
_atom_site_label
_atom_site_fract_x
_atom_site_fract_y
_atom_site_fract_z
Si Si1 0.500000 0.323777 0.000000
Si Si2 0.794804 0.889531 0.653388
Si Si3 0.353118 0.000000 0.500000
Si Si4 0.153041 0.250000 0.250000
Si Si5 0.410862 0.358616 0.903603
O O1 0.492540 0.250000 0.250000
O O2 0.542271 0.381591 0.043568
O O3 0.750000 0.861031 0.750000
O O4 0.819408 0.913277 0.921319
O O5 0.818804 0.807710 0.469283
O O6 0.793396 0.000000 0.500000
O O7 0.386957 0.955781 0.287332
O O8 0.119502 0.334760 0.350190
O O9 0.410150 0.250000 0.750000
#
# Coordination Sequence:
#
# PCOD9328018 Si02
#       5
#     8  16   8   8  16
#     4  10  22  41  72 109 154 200 250 316 387 463
#     4  12  26  47  75 107 152 197 256 331 391 462
#     4  12  24  43  72 106 148 198 250 319 390 458
#     4  12  24  46  77 106 144 206 256 308 399 476
#     4  11  23  42  71 108 150 198 252 311 387 469
#
# _framework density 26.064582999999999
#
# number of rings (size 3 to 8) (size 9 to 14) (size 15 to 20)
#    0.000    0.571    8.571    0.000    0.000    0.571 
#    0.000   10.714    0.000    1.714    0.000    0.000 
#    0.000    0.000    0.000    0.000    0.000    0.000 
#
# Total GULP energy -77960.085180 kJ/mol
# GULP energy per Si atom -5568.577513 kJ/mol
# Density = 2.600526 g / cm^3
# Si number density = 26.064583 Si / 1000 Ang^3
#
#
#
# Elastic Constant Matrix: (Units=GPa)
#
#
# Indices 1 2 3 4 5 6 
#
# 1 292.4470 85.4402 30.7192 0.0000 0.0000 0.0000
# 2 85.4402 214.6095 55.7617 0.0000 0.0000 0.0000
# 3 30.7192 55.7617 82.6719 0.0000 -0.0001 0.0000
# 4 0.0000 0.0000 0.0000 50.6428 0.0000 0.0001
# 5 0.0000 0.0000 -0.0001 0.0000 18.4224 0.0000
# 6 0.0000 0.0000 0.0000 0.0001 0.0000 9.0602
#
#
#
# Elastic Compliance Matrix: (Units=1/GPa)
#
#
# Indices 1 2 3 4 5 6 
#
# 1 0.003886 -0.001421 -0.000485 0.000000 0.000000 0.000000
# 2 -0.001421 0.006169 -0.003633 0.000000 0.000000 0.000000
# 3 -0.000485 -0.003633 0.014727 0.000000 0.000000 0.000000
# 4 0.000000 0.000000 0.000000 0.019746 0.000000 0.000000
# 5 0.000000 0.000000 0.000000 0.000000 0.054282 0.000000
# 6 0.000000 0.000000 0.000000 0.000000 0.000000 0.110373
#
#
# Mechanical properties :
#
#
# Convention : Reuss Voigt Hill
#
# Bulk Modulus (GPa) = 72.97748 103.73008 88.35378
# Shear Modulus (GPa) = 22.23916 43.47891 32.85903
#
# Velocity S-wave (km/s) = 2.92418 4.08870 3.55445
# Velocity P-wave (km/s) = 6.28177 7.88503 7.12861
#
# Compressibility (1/GPa) = 0.01370286
#
# Stress axis : x y z
#
# Youngs Moduli (GPa) = 257.36705 162.09383 67.90253
#
# Poissons Ratio (x) = 0.23029 0.03297
# Poissons Ratio (y) = 0.36565 0.24670
# Poissons Ratio (z) = 0.12495 0.58892
#
# Static dielectric constant tensor:
#      x y z
#    x 1.982060 0.000000 0.000000 
#    y 0.000000 1.662150 0.000000 
#    z 0.000000 0.000000 2.078950 
# 
# From -- ./inp_files/6024.got.cif
#   From: 2010.05.17/outbox.cif.g08.bks.cpg/sg22_4_cif.got.tgz:6024.got - 2010.06.03 23:40:54.
