data_PCOD9328838
_publ_section_title
;
Structure prediction by ZEFSAII (Michael W. Deem and Ramdas Pophale) SiO2 
 PCOD9328838
Probable space group: F 2 2 2
;
_chemical_formula_sum "Si O2"
_cell_formula_units_Z 68
_cell_length_a 15.754843
_cell_length_b 21.695178
_cell_length_c 9.384198
_cell_angle_alpha 90.000000
_cell_angle_beta 90.000000
_cell_angle_gamma 90.000000
_cell_volume 3207.557570
_symmetry_space_group_name_H-M "F 2 2 2"
_symmetry_group_IT_number 22
_symmetry_cell_setting 'orthorhombic'
loop_
_space_group_symop_operation_xyz
x,y,z
-x,-y,z
x,-y,-z
-x,y,-z
x,1/2+y,1/2+z
-x,1/2-y,1/2+z
x,1/2-y,1/2-z
-x,1/2+y,1/2-z
1/2+x,y,1/2+z
1/2-x,-y,1/2+z
1/2+x,-y,1/2-z
1/2-x,y,1/2-z
1/2+x,1/2+y,z
1/2-x,1/2-y,z
1/2+x,1/2-y,-z
1/2-x,1/2+y,-z
loop_
_atom_site_type_symbol
_atom_site_label
_atom_site_fract_x
_atom_site_fract_y
_atom_site_fract_z
Si Si1 0.605011 0.319827 0.248667
Si Si2 0.302372 0.956196 0.621798
Si Si3 0.753452 0.840677 0.518563
Si Si4 0.250000 0.750000 0.750000
Si Si5 0.017890 0.928468 0.831062
O O1 0.568295 0.250000 0.250000
O O2 0.669315 0.328711 0.114609
O O3 0.665970 0.324611 0.385251
O O4 0.537545 0.375388 0.243222
O O5 0.250000 0.986412 0.750000
O O6 0.244082 0.911159 0.530437
O O7 0.381561 0.919700 0.687757
O O8 0.339814 0.000000 0.500000
O O9 0.749613 0.802291 0.375743
O O10 0.000000 0.000000 0.788302
O O11 0.000000 0.921910 0.000000
#
# Coordination Sequence:
#
# PCOD9328838 Si02
#       5
#    16  16  16   4  16
#     4  11  22  42  72 107 140 187 240 293 360 422
#     4  12  26  43  71 104 134 189 237 285 357 427
#     4  11  22  40  71 106 143 186 235 292 346 430
#     4  12  20  42  64 104 156 174 238 286 344 430
#     4  11  22  44  70 101 143 185 234 292 355 424
#
# _framework density 21.199930999999999
#
# number of rings (size 3 to 8) (size 9 to 14) (size 15 to 20)
#    0.000    0.706    8.235    0.706    6.588    0.000 
#    2.118    3.529    0.000    0.000    0.000    0.000 
#    0.000    0.000    0.000    0.000    0.000    0.000 
#
# Total GULP energy -94671.971824 kJ/mol
# GULP energy per Si atom -5568.939519 kJ/mol
# Density = 2.115168 g / cm^3
# Si number density = 21.199931 Si / 1000 Ang^3
#
#
#
# Elastic Constant Matrix: (Units=GPa)
#
#
# Indices 1 2 3 4 5 6 
#
# 1 95.6207 34.6105 41.9238 0.0000 0.0000 0.0000
# 2 34.6105 121.1930 36.0233 0.0000 0.0000 0.0000
# 3 41.9238 36.0233 144.2062 0.0000 0.0000 0.0000
# 4 0.0000 0.0000 0.0000 39.0298 0.0000 0.0000
# 5 0.0000 0.0000 0.0000 0.0000 10.2192 0.0000
# 6 0.0000 0.0000 0.0000 0.0000 0.0000 17.8691
#
#
#
# Elastic Compliance Matrix: (Units=1/GPa)
#
#
# Indices 1 2 3 4 5 6 
#
# 1 0.012781 -0.002750 -0.003029 0.000000 0.000000 0.000000
# 2 -0.002750 0.009505 -0.001575 0.000000 0.000000 0.000000
# 3 -0.003029 -0.001575 0.008208 0.000000 0.000000 0.000000
# 4 0.000000 0.000000 0.000000 0.025621 0.000000 0.000000
# 5 0.000000 0.000000 0.000000 0.000000 0.097855 0.000000
# 6 0.000000 0.000000 0.000000 0.000000 0.000000 0.055962
#
#
# Mechanical properties :
#
#
# Convention : Reuss Voigt Hill
#
# Bulk Modulus (GPa) = 63.34190 65.12612 64.23401
# Shear Modulus (GPa) = 21.74833 29.98779 25.86806
#
# Velocity S-wave (km/s) = 3.20639 3.76509 3.49692
# Velocity P-wave (km/s) = 6.60690 7.04897 6.83151
#
# Compressibility (1/GPa) = 0.01578734
#
# Stress axis : x y z
#
# Youngs Moduli (GPa) = 78.23952 105.21097 121.82518
#
# Poissons Ratio (x) = 0.28931 0.36899
# Poissons Ratio (y) = 0.21514 0.19186
# Poissons Ratio (z) = 0.23698 0.16570
#
# Static dielectric constant tensor:
#      x y z
#    x 1.756050 0.000000 0.000000 
#    y 0.000000 1.856440 0.000000 
#    z 0.000000 0.000000 1.726710 
# 
# From -- ./inp_files/11236.got.cif
#   From: 2010.05.17/outbox.cif.g08.bks.cpg/sg22_6_cif.got.tgz:11236.got - 2010.06.03 23:40:54.
