data_PCOD9328477
_publ_section_title
;
Structure prediction by ZEFSAII (Michael W. Deem and Ramdas Pophale) SiO2 
 PCOD9328477
Probable space group: F 2 2 2
;
_chemical_formula_sum "Si O2"
_cell_formula_units_Z 64
_cell_length_a 11.779926
_cell_length_b 21.049692
_cell_length_c 12.838845
_cell_angle_alpha 90.000000
_cell_angle_beta 90.000000
_cell_angle_gamma 90.000000
_cell_volume 3183.568975
_symmetry_space_group_name_H-M "F 2 2 2"
_symmetry_group_IT_number 22
_symmetry_cell_setting 'orthorhombic'
loop_
_space_group_symop_operation_xyz
x,y,z
-x,-y,z
x,-y,-z
-x,y,-z
x,1/2+y,1/2+z
-x,1/2-y,1/2+z
x,1/2-y,1/2-z
-x,1/2+y,1/2-z
1/2+x,y,1/2+z
1/2-x,-y,1/2+z
1/2+x,-y,1/2-z
1/2-x,y,1/2-z
1/2+x,1/2+y,z
1/2-x,1/2-y,z
1/2+x,1/2-y,-z
1/2-x,1/2+y,-z
loop_
_atom_site_type_symbol
_atom_site_label
_atom_site_fract_x
_atom_site_fract_y
_atom_site_fract_z
Si Si1 0.337384 0.943342 0.077227
Si Si2 0.617241 0.238636 0.636364
Si Si3 0.381053 0.095563 0.444437
Si Si4 0.250000 0.526121 0.750000
Si Si5 0.000000 0.842027 0.500000
O O1 0.329386 0.978468 0.186194
O O2 0.217427 0.917090 0.030810
O O3 0.426409 0.887126 0.073336
O O4 0.371016 0.000000 0.000000
O O5 0.563454 0.250000 0.750000
O O6 0.750000 0.250000 0.646255
O O7 0.599475 0.168947 0.588364
O O8 0.577738 0.295474 0.564432
O O9 0.500000 0.073903 0.500000
O O10 0.324991 0.064038 0.337884
#
# Coordination Sequence:
#
# PCOD9328477 Si02
#       5
#    16  16  16   8   8
#     4  10  24  44  65 101 141 184 230 289 355 436
#     4  11  23  41  69  99 135 182 234 295 358 431
#     4  11  23  45  72 107 142 187 244 298 361 427
#     4  10  24  46  69 103 144 182 242 284 358 438
#     4  12  23  44  68  96 141 176 224 294 366 420
#
# _framework density 20.103224000000001
#
# number of rings (size 3 to 8) (size 9 to 14) (size 15 to 20)
#    0.000    1.250    3.750    1.875    3.500    6.500 
#    9.000    0.000    0.000    0.000    0.000    0.000 
#    0.000    0.000    0.000    0.000    0.000    0.000 
#
# Total GULP energy -89189.238730 kJ/mol
# GULP energy per Si atom -5574.327421 kJ/mol
# Density = 2.005747 g / cm^3
# Si number density = 20.103224 Si / 1000 Ang^3
#
#
#
# Elastic Constant Matrix: (Units=GPa)
#
#
# Indices 1 2 3 4 5 6 
#
# 1 101.4180 41.4288 23.0967 0.0000 0.0000 0.0000
# 2 41.4288 155.4710 42.1694 0.0000 0.0000 0.0000
# 3 23.0967 42.1694 74.1378 0.0000 0.0000 0.0000
# 4 0.0000 0.0000 0.0000 19.7772 0.0000 0.0000
# 5 0.0000 0.0000 0.0000 0.0000 -1.7830 0.0000
# 6 0.0000 0.0000 0.0000 0.0000 0.0000 1.9116
#
#
#
# Elastic Compliance Matrix: (Units=1/GPa)
#
#
# Indices 1 2 3 4 5 6 
#
# 1 0.011346 -0.002441 -0.002146 0.000000 0.000000 0.000000
# 2 -0.002441 0.008131 -0.003864 0.000000 0.000000 0.000000
# 3 -0.002146 -0.003864 0.016355 0.000000 0.000000 0.000000
# 4 0.000000 0.000000 0.000000 0.050563 0.000000 0.000000
# 5 0.000000 0.000000 0.000000 0.000000 -0.560859 0.000000
# 6 0.000000 0.000000 0.000000 0.000000 0.000000 0.523109
#
#
# Mechanical properties :
#
#
# Convention : Reuss Voigt Hill
#
# Bulk Modulus (GPa) = 52.83018 60.49071 56.66045
# Shear Modulus (GPa) = 69.58108 18.93663 44.25886
#
# Velocity S-wave (km/s) = 5.88957 3.07248 4.69719
# Velocity P-wave (km/s) = 8.51974 6.53776 7.59369
#
# Compressibility (1/GPa) = 0.01892857
#
# Stress axis : x y z
#
# Youngs Moduli (GPa) = 88.13505 122.99030 61.14367
#
# Poissons Ratio (x) = 0.30026 0.13122
# Poissons Ratio (y) = 0.21517 0.23627
# Poissons Ratio (z) = 0.18915 0.47525
#
# Static dielectric constant tensor:
#      x y z
#    x 1.746760 0.000000 0.000000 
#    y 0.000000 1.708930 0.000000 
#    z 0.000000 0.000000 1.907780 
# 
# From -- ./inp_files/17976.got.cif
#   From: 2010.05.17/outbox.cif.g08.bks.cpg/sg22_9_cif.got.tgz:17976.got - 2010.06.03 23:40:54.
