data_PCOD9328239
_publ_section_title
;
Structure prediction by ZEFSAII (Michael W. Deem and Ramdas Pophale) SiO2 
 PCOD9328239
Probable space group: F 2 2 2
;
_chemical_formula_sum "Si O2"
_cell_formula_units_Z 96
_cell_length_a 15.882350
_cell_length_b 13.524076
_cell_length_c 21.755030
_cell_angle_alpha 90.000000
_cell_angle_beta 90.000000
_cell_angle_gamma 90.000000
_cell_volume 4672.852273
_symmetry_space_group_name_H-M "F 2 2 2"
_symmetry_group_IT_number 22
_symmetry_cell_setting 'orthorhombic'
loop_
_space_group_symop_operation_xyz
x,y,z
-x,-y,z
x,-y,-z
-x,y,-z
x,1/2+y,1/2+z
-x,1/2-y,1/2+z
x,1/2-y,1/2-z
-x,1/2+y,1/2-z
1/2+x,y,1/2+z
1/2-x,-y,1/2+z
1/2+x,-y,1/2-z
1/2-x,y,1/2-z
1/2+x,1/2+y,z
1/2-x,1/2-y,z
1/2+x,1/2-y,-z
1/2-x,1/2+y,-z
loop_
_atom_site_type_symbol
_atom_site_label
_atom_site_fract_x
_atom_site_fract_y
_atom_site_fract_z
Si Si1 0.788540 0.102517 0.310994
Si Si2 0.587458 0.190735 0.032734
Si Si3 0.864566 0.240116 0.679104
Si Si4 0.699955 0.000000 0.000000
Si Si5 0.250000 0.250000 0.920330
Si Si6 0.731466 0.089128 0.625789
Si Si7 0.473276 0.387216 0.662262
O O1 0.750000 0.145535 0.250000
O O2 0.767892 0.161725 0.373134
O O3 0.888165 0.102171 0.299336
O O4 0.748325 0.995972 0.324278
O O5 0.635988 0.092245 0.009642
O O6 0.666115 0.266240 0.039125
O O7 0.555524 0.162955 0.099724
O O8 0.500000 0.218629 0.000000
O O9 0.836253 0.250000 0.750000
O O10 0.807834 0.165735 0.638375
O O11 0.850899 0.345460 0.643995
O O12 0.953680 0.184517 0.685273
O O13 0.755251 0.962795 0.058917
O O14 0.500000 0.500000 0.650254
#
# Coordination Sequence:
#
# PCOD9328239 Si02
#       7
#    16  16  16   8   8  16  16
#     4  11  22  42  69  92 136 180 230 284 350 426
#     4  11  22  37  64  92 133 172 232 293 340 414
#     4  11  23  40  68 106 144 177 234 292 367 425
#     4  12  21  40  66 100 133 178 237 290 354 424
#     4  10  23  40  60 100 124 174 241 274 354 426
#     4  11  22  40  64 103 140 181 231 287 358 421
#     4  11  21  39  61 102 132 173 231 285 355 421
#
# _framework density 20.544197
#
# number of rings (size 3 to 8) (size 9 to 14) (size 15 to 20)
#    0.000    1.000    5.000    4.500    0.000    5.333 
#    0.000    0.000    0.000    0.000    0.000    0.000 
#    0.000    0.000    0.000    0.000    0.000    0.000 
#
# Total GULP energy -133638.941160 kJ/mol
# GULP energy per Si atom -5568.289215 kJ/mol
# Density = 2.049744 g / cm^3
# Si number density = 20.544197 Si / 1000 Ang^3
#
#
#
# Elastic Constant Matrix: (Units=GPa)
#
#
# Indices 1 2 3 4 5 6 
#
# 1 77.8243 22.3356 11.3453 0.0000 0.0000 0.0000
# 2 22.3356 88.7584 6.4861 0.0000 0.0000 0.0000
# 3 11.3453 6.4861 86.5571 0.0000 0.0000 0.0000
# 4 0.0000 0.0000 0.0000 69.6516 0.0000 0.0000
# 5 0.0000 0.0000 0.0000 0.0000 86.6954 0.0000
# 6 0.0000 0.0000 0.0000 0.0000 0.0000 35.9980
#
#
#
# Elastic Compliance Matrix: (Units=1/GPa)
#
#
# Indices 1 2 3 4 5 6 
#
# 1 0.014063 -0.003423 -0.001587 0.000000 0.000000 0.000000
# 2 -0.003423 0.012162 -0.000463 0.000000 0.000000 0.000000
# 3 -0.001587 -0.000463 0.011796 0.000000 0.000000 0.000000
# 4 0.000000 0.000000 0.000000 0.014357 0.000000 0.000000
# 5 0.000000 0.000000 0.000000 0.000000 0.011535 0.000000
# 6 0.000000 0.000000 0.000000 0.000000 0.000000 0.027779
#
#
# Mechanical properties :
#
#
# Convention : Reuss Voigt Hill
#
# Bulk Modulus (GPa) = 36.93345 37.05265 36.99305
# Shear Modulus (GPa) = 44.77805 52.66721 48.72263
#
# Velocity S-wave (km/s) = 4.67368 5.06870 4.87519
# Velocity P-wave (km/s) = 6.86593 7.23397 7.05235
#
# Compressibility (1/GPa) = 0.02707573
#
# Stress axis : x y z
#
# Youngs Moduli (GPa) = 71.10769 82.22523 84.77644
#
# Poissons Ratio (x) = 0.28145 0.13452
# Poissons Ratio (y) = 0.24340 0.03922
# Poissons Ratio (z) = 0.11283 0.03804
#
# Static dielectric constant tensor:
#      x y z
#    x 1.738260 0.000000 0.000000 
#    y 0.000000 1.787170 0.000000 
#    z 0.000000 0.000000 1.742550 
# 
# From -- ./inp_files/43519.got.cif
#   From: 2010.05.17/outbox.cif.g08.bks.cpg/sg22_22_cif.got.tgz:43519.got - 2010.06.03 23:40:54.
