data_PCOD9328124
_publ_section_title
;
Structure prediction by ZEFSAII (Michael W. Deem and Ramdas Pophale) SiO2 
 PCOD9328124
Probable space group: F 2 2 2
;
_chemical_formula_sum "Si O2"
_cell_formula_units_Z 112
_cell_length_a 28.569576
_cell_length_b 13.656970
_cell_length_c 12.194805
_cell_angle_alpha 90.000000
_cell_angle_beta 90.000000
_cell_angle_gamma 90.000000
_cell_volume 4758.093923
_symmetry_space_group_name_H-M "F 2 2 2"
_symmetry_group_IT_number 22
_symmetry_cell_setting 'orthorhombic'
loop_
_space_group_symop_operation_xyz
x,y,z
-x,-y,z
x,-y,-z
-x,y,-z
x,1/2+y,1/2+z
-x,1/2-y,1/2+z
x,1/2-y,1/2-z
-x,1/2+y,1/2-z
1/2+x,y,1/2+z
1/2-x,-y,1/2+z
1/2+x,-y,1/2-z
1/2-x,y,1/2-z
1/2+x,1/2+y,z
1/2-x,1/2-y,z
1/2+x,1/2-y,-z
1/2-x,1/2+y,-z
loop_
_atom_site_type_symbol
_atom_site_label
_atom_site_fract_x
_atom_site_fract_y
_atom_site_fract_z
Si Si1 0.445812 0.968443 0.113194
Si Si2 0.549783 0.047582 0.347925
Si Si3 0.122061 0.229003 0.130864
Si Si4 0.287212 0.342086 0.445043
Si Si5 0.047917 0.753922 0.437876
Si Si6 0.290427 0.047440 0.825766
Si Si7 0.650606 0.991397 0.381967
O O1 0.436327 0.006067 0.233968
O O2 0.437907 0.853153 0.121364
O O3 0.500000 0.000000 0.103569
O O4 0.421661 0.000000 0.000000
O O5 0.539806 0.162667 0.358857
O O6 0.500000 0.000000 0.382616
O O7 0.600007 0.039485 0.404239
O O8 0.100546 0.250000 0.250000
O O9 0.163851 0.303108 0.103189
O O10 0.145118 0.123101 0.135809
O O11 0.084549 0.231525 0.034020
O O12 0.250000 0.250000 0.443017
O O13 0.275607 0.439196 0.372130
O O14 0.296711 0.383691 0.568156
O O15 0.000000 0.777778 0.500000
O O16 0.250000 0.090626 0.750000
O O17 0.330285 0.035250 0.732513
O O18 0.677622 0.000000 0.500000
#
# Coordination Sequence:
#
# PCOD9328124 Si02
#       7
#    16  16  16  16  16  16  16
#     4  10  22  44  65  99 133 186 242 312 367 423
#     4  11  26  44  73 103 148 199 250 308 370 434
#     4  12  27  46  74 109 148 203 252 306 364 448
#     4  11  27  51  79 113 151 193 244 302 373 448
#     4  12  25  44  71 103 147 191 257 308 373 430
#     4  11  27  49  81 113 148 194 242 304 372 448
#     4  12  26  48  72 109 153 196 248 307 369 443
#
# _framework density 23.538838999999999
#
# number of rings (size 3 to 8) (size 9 to 14) (size 15 to 20)
#    0.000    0.714    4.286    2.143    8.000    1.429 
#    0.000    0.000    0.000    0.000    0.000    0.000 
#    0.000    0.000    0.000    0.000    0.000    0.000 
#
# Total GULP energy -156164.119164 kJ/mol
# GULP energy per Si atom -5577.289970 kJ/mol
# Density = 2.348526 g / cm^3
# Si number density = 23.538839 Si / 1000 Ang^3
#
#
#
# Elastic Constant Matrix: (Units=GPa)
#
#
# Indices 1 2 3 4 5 6 
#
# 1 79.9222 0.5755 19.2454 0.0000 0.0000 0.0000
# 2 0.5755 102.7600 15.9342 0.0000 0.0000 0.0000
# 3 19.2454 15.9342 129.3667 0.0000 0.0000 0.0000
# 4 0.0000 0.0000 0.0000 35.0768 0.0000 0.0000
# 5 0.0000 0.0000 0.0000 0.0000 -26.7518 0.0000
# 6 0.0000 0.0000 0.0000 0.0000 0.0000 25.3331
#
#
#
# Elastic Compliance Matrix: (Units=1/GPa)
#
#
# Indices 1 2 3 4 5 6 
#
# 1 0.012982 0.000231 -0.001960 0.000000 0.000000 0.000000
# 2 0.000231 0.009925 -0.001257 0.000000 0.000000 0.000000
# 3 -0.001960 -0.001257 0.008176 0.000000 0.000000 0.000000
# 4 0.000000 0.000000 0.000000 0.028509 0.000000 0.000000
# 5 0.000000 0.000000 0.000000 0.000000 -0.037381 0.000000
# 6 0.000000 0.000000 0.000000 0.000000 0.000000 0.039474
#
#
# Mechanical properties :
#
#
# Convention : Reuss Voigt Hill
#
# Bulk Modulus (GPa) = 39.82039 42.61769 41.21904
# Shear Modulus (GPa) = 65.76529 25.15120 45.45824
#
# Velocity S-wave (km/s) = 5.29147 3.27233 4.39931
# Velocity P-wave (km/s) = 7.36794 5.69404 6.58440
#
# Compressibility (1/GPa) = 0.02511277
#
# Stress axis : x y z
#
# Youngs Moduli (GPa) = 77.02713 100.75555 122.30429
#
# Poissons Ratio (x) = -0.02329 0.23969
# Poissons Ratio (y) = -0.01781 0.15372
# Poissons Ratio (z) = 0.15096 0.12664
#
# Static dielectric constant tensor:
#      x y z
#    x 1.935940 0.000000 0.000000 
#    y 0.000000 2.140260 0.000000 
#    z 0.000000 0.000000 1.943580 
# 
# From -- ./inp_files/25395.got.cif
#   From: 2010.05.17/outbox.cif.g08.bks.cpg/sg22_13_cif.got.tgz:25395.got - 2010.06.03 23:40:54.
