data_PCOD9328069
_publ_section_title
;
Structure prediction by ZEFSAII (Michael W. Deem and Ramdas Pophale) SiO2 
 PCOD9328069
Probable space group: F 2 2 2
;
_chemical_formula_sum "Si O2"
_cell_formula_units_Z 88
_cell_length_a 13.384374
_cell_length_b 19.187630
_cell_length_c 15.698189
_cell_angle_alpha 90.000000
_cell_angle_beta 90.000000
_cell_angle_gamma 90.000000
_cell_volume 4031.521242
_symmetry_space_group_name_H-M "F 2 2 2"
_symmetry_group_IT_number 22
_symmetry_cell_setting 'orthorhombic'
loop_
_space_group_symop_operation_xyz
x,y,z
-x,-y,z
x,-y,-z
-x,y,-z
x,1/2+y,1/2+z
-x,1/2-y,1/2+z
x,1/2-y,1/2-z
-x,1/2+y,1/2-z
1/2+x,y,1/2+z
1/2-x,-y,1/2+z
1/2+x,-y,1/2-z
1/2-x,y,1/2-z
1/2+x,1/2+y,z
1/2-x,1/2-y,z
1/2+x,1/2-y,-z
1/2-x,1/2+y,-z
loop_
_atom_site_type_symbol
_atom_site_label
_atom_site_fract_x
_atom_site_fract_y
_atom_site_fract_z
Si Si1 0.411497 0.764848 0.928644
Si Si2 0.500000 0.500000 0.734440
Si Si3 0.917713 0.922481 0.422049
Si Si4 0.361009 0.118947 0.714584
Si Si5 0.516913 0.750000 0.750000
Si Si6 0.382412 0.635286 0.020691
Si Si7 0.249607 0.500000 0.500000
O O1 0.375907 0.844347 0.924921
O O2 0.451027 0.743434 0.835381
O O3 0.500000 0.767471 0.000000
O O4 0.347897 0.700670 0.964198
O O5 0.463917 0.559660 0.668872
O O6 0.418147 0.455952 0.786753
O O7 0.829728 0.979578 0.427969
O O8 0.000000 0.927427 0.500000
O O9 0.250000 0.109250 0.750000
O O10 0.416339 0.181008 0.765343
O O11 0.364867 0.149935 0.619680
O O12 0.500000 0.622696 0.000000
O O13 0.319243 0.566397 0.006877
#
# Coordination Sequence:
#
# PCOD9328069 Si02
#       7
#    16   8  16  16   8  16   8
#     4  10  22  42  73  98 144 195 241 303 388 446
#     4  12  23  44  69 102 150 186 238 322 376 436
#     4  11  22  42  68 102 136 183 241 314 375 436
#     4  12  27  43  72 112 145 193 257 309 371 449
#     4  12  21  46  72 105 146 198 251 314 380 455
#     4  11  25  47  68 102 147 196 236 308 382 444
#     4  12  24  40  74  98 136 188 256 290 372 460
#
# _framework density 21.82799
#
# number of rings (size 3 to 8) (size 9 to 14) (size 15 to 20)
#    0.000    0.727    7.273    1.636    2.545    0.727 
#    3.273    0.000    0.000    1.091    0.000    0.000 
#    0.000    0.000    0.000    0.000    0.000    0.000 
#
# Total GULP energy -122681.257562 kJ/mol
# GULP energy per Si atom -5576.420798 kJ/mol
# Density = 2.177831 g / cm^3
# Si number density = 21.827990 Si / 1000 Ang^3
#
#
#
# Elastic Constant Matrix: (Units=GPa)
#
#
# Indices 1 2 3 4 5 6 
#
# 1 90.8738 55.8540 28.1170 0.0000 0.0000 0.0000
# 2 55.8540 186.7157 22.2290 0.0000 0.0000 0.0000
# 3 28.1170 22.2290 106.3261 0.0000 0.0000 0.0000
# 4 0.0000 0.0000 0.0000 49.8884 0.0000 0.0000
# 5 0.0000 0.0000 0.0000 0.0000 7.2525 0.0000
# 6 0.0000 0.0000 0.0000 0.0000 0.0000 1370.5682
#
#
#
# Elastic Compliance Matrix: (Units=1/GPa)
#
#
# Indices 1 2 3 4 5 6 
#
# 1 0.014343 -0.003937 -0.002970 0.000000 0.000000 0.000000
# 2 -0.003937 0.006573 -0.000333 0.000000 0.000000 0.000000
# 3 -0.002970 -0.000333 0.010260 0.000000 0.000000 0.000000
# 4 0.000000 0.000000 0.000000 0.020045 0.000000 0.000000
# 5 0.000000 0.000000 0.000000 0.000000 0.137883 0.000000
# 6 0.000000 0.000000 0.000000 0.000000 0.000000 0.000730
#
#
# Mechanical properties :
#
#
# Convention : Reuss Voigt Hill
#
# Bulk Modulus (GPa) = 59.89344 66.25728 63.07536
# Shear Modulus (GPa) = 23.82328 304.05619 163.93974
#
# Velocity S-wave (km/s) = 3.30723 11.81520 8.67573
# Velocity P-wave (km/s) = 6.48707 14.71571 11.37177
#
# Compressibility (1/GPa) = 0.01669632
#
# Stress axis : x y z
#
# Youngs Moduli (GPa) = 69.72071 152.13533 97.46590
#
# Poissons Ratio (x) = 0.59895 0.28945
# Poissons Ratio (y) = 0.27449 0.03247
# Poissons Ratio (z) = 0.20706 0.05068
#
# Static dielectric constant tensor:
#      x y z
#    x 1.885930 0.000000 0.000000 
#    y 0.000000 1.839690 0.000000 
#    z 0.000000 0.000000 -3.765750 
# 
# From -- ./inp_files/29301.got.cif
#   From: 2010.05.17/outbox.cif.g08.bks.cpg/sg22_15_cif.got.tgz:29301.got - 2010.06.03 23:40:54.
