data_PCOD9328247
_publ_section_title
;
Structure prediction by ZEFSAII (Michael W. Deem and Ramdas Pophale) SiO2 
 PCOD9328247
Probable space group: F 2 2 2
;
_chemical_formula_sum "Si O2"
_cell_formula_units_Z 56
_cell_length_a 13.500769
_cell_length_b 33.754088
_cell_length_c 5.047267
_cell_angle_alpha 90.000000
_cell_angle_beta 90.000000
_cell_angle_gamma 90.000000
_cell_volume 2300.070587
_symmetry_space_group_name_H-M "F 2 2 2"
_symmetry_group_IT_number 22
_symmetry_cell_setting 'orthorhombic'
loop_
_space_group_symop_operation_xyz
x,y,z
-x,-y,z
x,-y,-z
-x,y,-z
x,1/2+y,1/2+z
-x,1/2-y,1/2+z
x,1/2-y,1/2-z
-x,1/2+y,1/2-z
1/2+x,y,1/2+z
1/2-x,-y,1/2+z
1/2+x,-y,1/2-z
1/2-x,y,1/2-z
1/2+x,1/2+y,z
1/2-x,1/2-y,z
1/2+x,1/2-y,-z
1/2-x,1/2+y,-z
loop_
_atom_site_type_symbol
_atom_site_label
_atom_site_fract_x
_atom_site_fract_y
_atom_site_fract_z
Si Si1 0.636384 0.028553 0.249732
Si Si2 0.632398 0.844661 0.212160
Si Si3 0.500000 0.908320 0.500000
Si Si4 0.868889 0.794038 0.790954
O O1 0.750000 0.043341 0.250000
O O2 0.562885 0.064377 0.300590
O O3 0.626093 0.000000 0.500000
O O4 0.619635 0.000000 0.000000
O O5 0.750000 0.852814 0.250000
O O6 0.572693 0.881718 0.323011
O O7 0.610693 0.808746 0.414434
O O8 0.606045 0.828430 0.921104
O O9 0.909747 0.750000 0.750000
O O10 0.750000 0.791106 0.750000
#
# Coordination Sequence:
#
# PCOD9328247 Si02
#       4
#    16  16   8  16
#     4  10  25  49  75 103 136 181 234 283 340 418
#     4  10  23  40  64 103 140 179 232 286 347 409
#     4  12  27  46  74 106 146 184 222 288 360 418
#     4   9  18  38  66  94 134 187 237 285 337 399
#
# _framework density 24.347079000000001
#
# number of rings (size 3 to 8) (size 9 to 14) (size 15 to 20)
#    0.000    2.000    0.000    1.286    0.000   18.286 
#    0.000    5.714    0.000    0.000    0.000    0.000 
#    0.000    0.000    0.000    0.000    0.000    0.000 
#
# Total GULP energy -78490.142949 kJ/mol
# GULP energy per Si atom -5606.438782 kJ/mol
# Density = 2.429166 g / cm^3
# Si number density = 24.347079 Si / 1000 Ang^3
#
#
#
# Elastic Constant Matrix: (Units=GPa)
#
#
# Indices 1 2 3 4 5 6 
#
# 1 141.2835 80.4109 15.6295 0.0000 -0.0001 0.0000
# 2 80.4109 146.6588 38.7648 -0.0001 -0.0001 0.0000
# 3 15.6295 38.7648 135.6667 -0.0007 -0.0009 0.0003
# 4 0.0000 -0.0001 -0.0007 22.9518 -0.0001 0.0001
# 5 -0.0001 -0.0001 -0.0009 -0.0001 33.4093 -0.0001
# 6 0.0000 0.0000 0.0003 0.0001 -0.0001 20.2126
#
#
#
# Elastic Compliance Matrix: (Units=1/GPa)
#
#
# Indices 1 2 3 4 5 6 
#
# 1 0.010315 -0.005778 0.000463 0.000000 0.000000 0.000000
# 2 -0.005778 0.010612 -0.002367 0.000000 0.000000 0.000000
# 3 0.000463 -0.002367 0.007994 0.000000 0.000000 0.000000
# 4 0.000000 0.000000 0.000000 0.043570 0.000000 0.000000
# 5 0.000000 0.000000 0.000000 0.000000 0.029932 0.000000
# 6 0.000000 0.000000 0.000000 0.000000 0.000000 0.049474
#
#
# Mechanical properties :
#
#
# Convention : Reuss Voigt Hill
#
# Bulk Modulus (GPa) = 73.76082 77.02438 75.39260
# Shear Modulus (GPa) = 29.10701 34.56833 31.83767
#
# Velocity S-wave (km/s) = 3.46136 3.77213 3.62008
# Velocity P-wave (km/s) = 6.80705 7.11875 6.96465
#
# Compressibility (1/GPa) = 0.01355733
#
# Stress axis : x y z
#
# Youngs Moduli (GPa) = 96.94311 94.23216 125.09490
#
# Poissons Ratio (x) = 0.54448 -0.05787
# Poissons Ratio (y) = 0.56014 0.29605
# Poissons Ratio (z) = -0.04485 0.22301
#
# Static dielectric constant tensor:
#      x y z
#    x 1.999420 0.000000 0.000000 
#    y 0.000000 1.845730 0.000000 
#    z 0.000000 0.000000 1.884290 
# 
# From -- ./inp_files/1861.got.cif
#   From: 2010.05.17/outbox.cif.g08.bks.cpg/sg22_1_cif.got.tgz:1861.got - 2010.06.03 23:40:54.
