data_PCOD9328900
_publ_section_title
;
Structure prediction by ZEFSAII (Michael W. Deem and Ramdas Pophale) SiO2 
 PCOD9328900
Probable space group: F 2 2 2
;
_chemical_formula_sum "Si O2"
_cell_formula_units_Z 72
_cell_length_a 10.520500
_cell_length_b 35.849448
_cell_length_c 10.520489
_cell_angle_alpha 90.000000
_cell_angle_beta 90.000000
_cell_angle_gamma 90.000000
_cell_volume 3967.845746
_symmetry_space_group_name_H-M "F 2 2 2"
_symmetry_group_IT_number 22
_symmetry_cell_setting 'orthorhombic'
loop_
_space_group_symop_operation_xyz
x,y,z
-x,-y,z
x,-y,-z
-x,y,-z
x,1/2+y,1/2+z
-x,1/2-y,1/2+z
x,1/2-y,1/2-z
-x,1/2+y,1/2-z
1/2+x,y,1/2+z
1/2-x,-y,1/2+z
1/2+x,-y,1/2-z
1/2-x,y,1/2-z
1/2+x,1/2+y,z
1/2-x,1/2-y,z
1/2+x,1/2-y,-z
1/2-x,1/2+y,-z
loop_
_atom_site_type_symbol
_atom_site_label
_atom_site_fract_x
_atom_site_fract_y
_atom_site_fract_z
Si Si1 0.608189 0.314710 0.108189
Si Si2 0.500000 0.500000 0.000000
Si Si3 0.650586 0.437993 0.150587
Si Si4 0.744983 0.876029 0.038159
Si Si5 0.750000 0.250000 0.250000
Si Si6 0.538159 0.376029 0.744983
O O1 0.663519 0.276853 0.163520
O O2 0.545319 0.339690 0.220310
O O3 0.500000 0.309386 0.000000
O O4 0.720311 0.339690 0.045319
O O5 0.583071 0.528012 0.916929
O O6 0.750000 0.453180 0.250000
O O7 0.550689 0.411362 0.224510
O O8 0.724510 0.411362 0.050690
O O9 0.610080 0.875784 0.110080
O O10 0.851753 0.876983 0.148247
#
# Coordination Sequence:
#
# PCOD9328900 Si02
#       6
#    16   4  16  16   4  16
#     4   9  21  38  54  84 120 154 200 250 298 358
#     4  12  24  44  56  84 136 168 184 256 316 348
#     4  11  23  38  60  88 118 156 200 244 300 364
#     4   9  18  38  65  88 114 153 202 252 300 354
#     4  12  24  36  56  84 128 168 200 240 316 364
#     4   9  18  38  65  88 114 153 202 252 300 354
#
# _framework density 18.145866999999999
#
# number of rings (size 3 to 8) (size 9 to 14) (size 15 to 20)
#    0.000    2.222    2.222    1.333    6.222    4.444 
#    0.000    0.000    0.000    0.000    0.000    0.000 
#    0.000    0.000    0.000    0.000    0.000    0.000 
#
# Total GULP energy -100448.165281 kJ/mol
# GULP energy per Si atom -5580.453627 kJ/mol
# Density = 1.810457 g / cm^3
# Si number density = 18.145867 Si / 1000 Ang^3
#
#
#
# Elastic Constant Matrix: (Units=GPa)
#
#
# Indices 1 2 3 4 5 6 
#
# 1 111.1004 78.4165 88.8386 0.0000 0.0000 0.0000
# 2 78.4165 159.1968 78.4162 0.0000 0.0000 0.0000
# 3 88.8386 78.4162 111.0995 0.0000 0.0000 0.0000
# 4 0.0000 0.0000 0.0000 25.8508 0.0000 0.0000
# 5 0.0000 0.0000 0.0000 0.0000 50.2768 0.0000
# 6 0.0000 0.0000 0.0000 0.0000 0.0000 25.8507
#
#
#
# Elastic Compliance Matrix: (Units=1/GPa)
#
#
# Indices 1 2 3 4 5 6 
#
# 1 0.026536 -0.004015 -0.018385 0.000000 0.000000 0.000000
# 2 -0.004015 0.010237 -0.004015 0.000000 0.000000 0.000000
# 3 -0.018385 -0.004015 0.026536 0.000000 0.000000 0.000000
# 4 0.000000 0.000000 0.000000 0.038683 0.000000 0.000000
# 5 0.000000 0.000000 0.000000 0.000000 0.019890 0.000000
# 6 0.000000 0.000000 0.000000 0.000000 0.000000 0.038684
#
#
# Mechanical properties :
#
#
# Convention : Reuss Voigt Hill
#
# Bulk Modulus (GPa) = 95.42990 96.97103 96.20047
# Shear Modulus (GPa) = 23.05338 29.44404 26.24871
#
# Velocity S-wave (km/s) = 3.56820 4.03256 3.80747
# Velocity P-wave (km/s) = 8.34750 8.67397 8.51230
#
# Compressibility (1/GPa) = 0.01047890
#
# Stress axis : x y z
#
# Youngs Moduli (GPa) = 37.68511 97.68676 37.68477
#
# Poissons Ratio (x) = 0.39220 0.69283
# Poissons Ratio (y) = 0.15130 0.15130
# Poissons Ratio (z) = 0.69284 0.39220
#
# Static dielectric constant tensor:
#      x y z
#    x 1.636260 0.000000 0.000000 
#    y 0.000000 1.570220 0.000000 
#    z 0.000000 0.000000 1.636260 
# 
# From -- ./inp_files/18144.got.cif
#   From: 2010.05.17/outbox.cif.g08.bks.cpg/sg22_10_cif.got.tgz:18144.got - 2010.06.03 23:40:54.
