data_PCOD9328474
_publ_section_title
;
Structure prediction by ZEFSAII (Michael W. Deem and Ramdas Pophale) SiO2 
 PCOD9328474
Probable space group: F 2 2 2
;
_chemical_formula_sum "Si O2"
_cell_formula_units_Z 56
_cell_length_a 16.014113
_cell_length_b 7.983743
_cell_length_c 18.017272
_cell_angle_alpha 90.000000
_cell_angle_beta 90.000000
_cell_angle_gamma 90.000000
_cell_volume 2303.554396
_symmetry_space_group_name_H-M "F 2 2 2"
_symmetry_group_IT_number 22
_symmetry_cell_setting 'orthorhombic'
loop_
_space_group_symop_operation_xyz
x,y,z
-x,-y,z
x,-y,-z
-x,y,-z
x,1/2+y,1/2+z
-x,1/2-y,1/2+z
x,1/2-y,1/2-z
-x,1/2+y,1/2-z
1/2+x,y,1/2+z
1/2-x,-y,1/2+z
1/2+x,-y,1/2-z
1/2-x,y,1/2-z
1/2+x,1/2+y,z
1/2-x,1/2-y,z
1/2+x,1/2-y,-z
1/2-x,1/2+y,-z
loop_
_atom_site_type_symbol
_atom_site_label
_atom_site_fract_x
_atom_site_fract_y
_atom_site_fract_z
Si Si1 0.589671 0.939127 0.183646
Si Si2 0.750000 0.750000 0.053890
Si Si3 0.859197 0.933590 0.158040
Si Si4 0.155156 0.233565 0.591145
O O1 0.650315 0.962097 0.254354
O O2 0.593228 0.746138 0.157789
O O3 0.500000 0.000000 0.213007
O O4 0.611408 0.068465 0.119547
O O5 0.776701 0.896019 0.109095
O O6 0.826347 0.727941 0.996737
O O7 0.893105 0.100971 0.119204
O O8 0.250000 0.250000 0.623601
#
# Coordination Sequence:
#
# PCOD9328474 Si02
#       4
#    16   8  16  16
#     4  11  27  44  70 108 147 196 253 301 372 455
#     4  10  24  47  73 114 138 182 248 314 382 447
#     4  11  24  42  76  99 148 189 238 314 370 446
#     4  10  24  43  75 105 147 184 248 310 377 448
#
# _framework density 24.310257
#
# number of rings (size 3 to 8) (size 9 to 14) (size 15 to 20)
#    0.857    0.571    0.000    3.429   12.000    9.143 
#    0.000    2.857    6.286    0.000    0.000    0.000 
#    0.000    0.000    0.000    0.000    0.000    0.000 
#
# Total GULP energy -78146.268114 kJ/mol
# GULP energy per Si atom -5581.876294 kJ/mol
# Density = 2.425493 g / cm^3
# Si number density = 24.310257 Si / 1000 Ang^3
#
#
#
# Elastic Constant Matrix: (Units=GPa)
#
#
# Indices 1 2 3 4 5 6 
#
# 1 49.2316 33.7940 33.0501 0.0000 0.0000 0.0000
# 2 33.7940 190.8308 61.7279 0.0000 0.0000 0.0000
# 3 33.0501 61.7279 170.5267 0.0000 0.0000 0.0000
# 4 0.0000 0.0000 0.0000 23.2475 0.0000 0.0000
# 5 0.0000 0.0000 0.0000 0.0000 7.8809 0.0000
# 6 0.0000 0.0000 0.0000 0.0000 0.0000 26.7593
#
#
#
# Elastic Compliance Matrix: (Units=1/GPa)
#
#
# Indices 1 2 3 4 5 6 
#
# 1 0.025002 -0.003239 -0.003673 0.000000 0.000000 0.000000
# 2 -0.003239 0.006355 -0.001673 0.000000 0.000000 0.000000
# 3 -0.003673 -0.001673 0.007181 0.000000 0.000000 0.000000
# 4 0.000000 0.000000 0.000000 0.043015 0.000000 0.000000
# 5 0.000000 0.000000 0.000000 0.000000 0.126890 0.000000
# 6 0.000000 0.000000 0.000000 0.000000 0.000000 0.037370
#
#
# Mechanical properties :
#
#
# Convention : Reuss Voigt Hill
#
# Bulk Modulus (GPa) = 46.79877 74.19257 60.49567
# Shear Modulus (GPa) = 18.51127 30.37867 24.44497
#
# Velocity S-wave (km/s) = 2.76245 3.53884 3.17447
# Velocity P-wave (km/s) = 5.42837 6.87627 6.19477
#
# Compressibility (1/GPa) = 0.02136808
#
# Stress axis : x y z
#
# Youngs Moduli (GPa) = 39.99755 157.35834 139.24688
#
# Poissons Ratio (x) = 0.50975 0.51145
# Poissons Ratio (y) = 0.12957 0.23290
# Poissons Ratio (z) = 0.14691 0.26319
#
# Static dielectric constant tensor:
#      x y z
#    x 1.963120 0.000000 0.000000 
#    y 0.000000 2.043490 0.000000 
#    z 0.000000 0.000000 1.868530 
# 
# From -- ./inp_files/10940.got.cif
#   From: 2010.05.17/outbox.cif.g08.bks.cpg/sg22_6_cif.got.tgz:10940.got - 2010.06.03 23:40:54.
