data_PCOD9328855
_publ_section_title
;
Structure prediction by ZEFSAII (Michael W. Deem and Ramdas Pophale) SiO2 
 PCOD9328855
Probable space group: F 2 2 2
;
_chemical_formula_sum "Si O2"
_cell_formula_units_Z 88
_cell_length_a 18.569508
_cell_length_b 16.151429
_cell_length_c 14.459588
_cell_angle_alpha 90.000000
_cell_angle_beta 90.000000
_cell_angle_gamma 90.000000
_cell_volume 4336.778773
_symmetry_space_group_name_H-M "F 2 2 2"
_symmetry_group_IT_number 22
_symmetry_cell_setting 'orthorhombic'
loop_
_space_group_symop_operation_xyz
x,y,z
-x,-y,z
x,-y,-z
-x,y,-z
x,1/2+y,1/2+z
-x,1/2-y,1/2+z
x,1/2-y,1/2-z
-x,1/2+y,1/2-z
1/2+x,y,1/2+z
1/2-x,-y,1/2+z
1/2+x,-y,1/2-z
1/2-x,y,1/2-z
1/2+x,1/2+y,z
1/2-x,1/2-y,z
1/2+x,1/2-y,-z
1/2-x,1/2+y,-z
loop_
_atom_site_type_symbol
_atom_site_label
_atom_site_fract_x
_atom_site_fract_y
_atom_site_fract_z
Si Si1 0.920082 0.532103 0.105851
Si Si2 0.214584 0.500000 0.500000
Si Si3 0.558482 0.724715 0.358460
Si Si4 0.196124 0.425773 0.833386
Si Si5 0.319673 0.313150 0.023656
Si Si6 0.390526 0.236922 0.859158
O O1 0.920405 0.630386 0.117216
O O2 0.866507 0.493172 0.181635
O O3 0.000000 0.500000 0.124888
O O4 0.903826 0.500000 0.000000
O O5 0.258422 0.534481 0.414223
O O6 0.184120 0.587922 0.538682
O O7 0.562610 0.750000 0.250000
O O8 0.615548 0.779137 0.413827
O O9 0.474385 0.734436 0.386801
O O10 0.250000 0.406251 0.750000
O O11 0.152253 0.348098 0.872916
O O12 0.250000 0.250000 0.037001
O O13 0.346038 0.302614 0.917773
O O14 0.388404 0.250000 0.750000
#
# Coordination Sequence:
#
# PCOD9328855 Si02
#       6
#    16   8  16  16  16  16
#     4  11  22  41  73 104 136 181 250 309 347 417
#     4  12  26  44  62 110 140 186 230 282 370 430
#     4  11  26  46  68 102 147 191 232 293 371 428
#     4  12  24  41  71 101 139 179 237 297 356 416
#     4  12  25  45  72 100 147 183 235 293 358 439
#     4  11  24  46  71 102 132 185 239 299 353 417
#
# _framework density 20.291557999999998
#
# number of rings (size 3 to 8) (size 9 to 14) (size 15 to 20)
#    0.000    0.545    4.545    3.818    5.091    0.364 
#    0.000    1.818    0.000    0.000    0.000    0.000 
#    0.000    0.000    0.000    0.000    0.000    0.000 
#
# Total GULP energy -122709.350069 kJ/mol
# GULP energy per Si atom -5577.697730 kJ/mol
# Density = 2.024537 g / cm^3
# Si number density = 20.291558 Si / 1000 Ang^3
#
#
#
# Elastic Constant Matrix: (Units=GPa)
#
#
# Indices 1 2 3 4 5 6 
#
# 1 135.4588 70.4093 47.6436 0.0000 0.0000 0.0000
# 2 70.4093 180.7302 27.5618 0.0000 0.0000 0.0000
# 3 47.6436 27.5618 80.2283 0.0000 0.0000 0.0000
# 4 0.0000 0.0000 0.0000 31.4966 0.0000 0.0000
# 5 0.0000 0.0000 0.0000 0.0000 30.5075 0.0000
# 6 0.0000 0.0000 0.0000 0.0000 0.0000 35.7153
#
#
#
# Elastic Compliance Matrix: (Units=1/GPa)
#
#
# Indices 1 2 3 4 5 6 
#
# 1 0.011097 -0.003502 -0.005387 0.000000 0.000000 0.000000
# 2 -0.003502 0.006944 -0.000306 0.000000 0.000000 0.000000
# 3 -0.005387 -0.000306 0.015769 0.000000 0.000000 0.000000
# 4 0.000000 0.000000 0.000000 0.031749 0.000000 0.000000
# 5 0.000000 0.000000 0.000000 0.000000 0.032779 0.000000
# 6 0.000000 0.000000 0.000000 0.000000 0.000000 0.027999
#
#
# Mechanical properties :
#
#
# Convention : Reuss Voigt Hill
#
# Bulk Modulus (GPa) = 64.85016 76.40517 70.62767
# Shear Modulus (GPa) = 33.36285 36.26404 34.81345
#
# Velocity S-wave (km/s) = 4.05924 4.23205 4.14655
# Velocity P-wave (km/s) = 7.34837 7.84957 7.60310
#
# Compressibility (1/GPa) = 0.01542016
#
# Stress axis : x y z
#
# Youngs Moduli (GPa) = 90.11273 144.00925 63.41682
#
# Poissons Ratio (x) = 0.50428 0.34163
# Poissons Ratio (y) = 0.31555 0.01941
# Poissons Ratio (z) = 0.48544 0.04407
#
# Static dielectric constant tensor:
#      x y z
#    x 1.746380 0.000000 0.000000 
#    y 0.000000 1.746920 0.000000 
#    z 0.000000 0.000000 1.732210 
# 
# From -- ./inp_files/31430.got.cif
#   From: 2010.05.17/outbox.cif.g08.bks.cpg/sg22_16_cif.got.tgz:31430.got - 2010.06.03 23:40:54.
