data_PCOD9328193
_publ_section_title
;
Structure prediction by ZEFSAII (Michael W. Deem and Ramdas Pophale) SiO2 
 PCOD9328193
Probable space group: F 2 2 2
;
_chemical_formula_sum "Si O2"
_cell_formula_units_Z 108
_cell_length_a 27.191741
_cell_length_b 11.485892
_cell_length_c 14.452033
_cell_angle_alpha 90.000000
_cell_angle_beta 90.000000
_cell_angle_gamma 90.000000
_cell_volume 4513.679185
_symmetry_space_group_name_H-M "F 2 2 2"
_symmetry_group_IT_number 22
_symmetry_cell_setting 'orthorhombic'
loop_
_space_group_symop_operation_xyz
x,y,z
-x,-y,z
x,-y,-z
-x,y,-z
x,1/2+y,1/2+z
-x,1/2-y,1/2+z
x,1/2-y,1/2-z
-x,1/2+y,1/2-z
1/2+x,y,1/2+z
1/2-x,-y,1/2+z
1/2+x,-y,1/2-z
1/2-x,y,1/2-z
1/2+x,1/2+y,z
1/2-x,1/2-y,z
1/2+x,1/2-y,-z
1/2-x,1/2+y,-z
loop_
_atom_site_type_symbol
_atom_site_label
_atom_site_fract_x
_atom_site_fract_y
_atom_site_fract_z
Si Si1 0.589576 0.293976 0.851406
Si Si2 0.945421 0.250000 0.250000
Si Si3 0.000000 0.500000 0.000000
Si Si4 0.699744 0.211379 0.896597
Si Si5 0.878656 0.539795 0.699998
Si Si6 0.326389 0.758286 0.407945
Si Si7 0.937731 0.795398 0.552863
Si Si8 0.792762 0.976463 0.674943
O O1 0.569778 0.250000 0.750000
O O2 0.646187 0.247026 0.857694
O O3 0.593549 0.434923 0.850215
O O4 0.561875 0.253788 0.946636
O O5 0.913593 0.368481 0.248936
O O6 0.963135 0.264567 0.356876
O O7 0.036281 0.418465 0.944748
O O8 0.750000 0.250000 0.847340
O O9 0.707889 0.072342 0.905563
O O10 0.699032 0.276546 0.994866
O O11 0.841972 0.620853 0.639129
O O12 0.842883 0.485873 0.774740
O O13 0.379713 0.702266 0.428873
O O14 0.297361 0.659140 0.352123
O O15 0.750000 0.990136 0.750000
#
# Coordination Sequence:
#
# PCOD9328193 Si02
#       8
#    16   8   4  16  16  16  16  16
#     4  11  24  42  74 104 144 197 246 296 378 453
#     4  10  22  46  75 102 150 186 232 302 369 438
#     4  12  28  48  84 114 146 192 248 312 354 490
#     4  11  25  40  56  92 141 193 249 308 365 430
#     4  11  21  41  68 100 134 190 242 299 359 439
#     4  10  24  43  68  95 139 192 247 308 377 436
#     4  10  25  47  74 111 142 185 242 301 386 440
#     4  12  23  37  64  94 139 188 254 314 363 425
#
# _framework density 23.927264000000001
#
# number of rings (size 3 to 8) (size 9 to 14) (size 15 to 20)
#    0.000    1.185    4.444    1.333    8.296    5.926 
#    4.000    0.000    0.000    6.222    0.000    0.000 
#    0.000    0.000    0.000    0.000    0.000    0.000 
#
# Total GULP energy -150400.086684 kJ/mol
# GULP energy per Si atom -5570.373581 kJ/mol
# Density = 2.387280 g / cm^3
# Si number density = 23.927264 Si / 1000 Ang^3
#
#
#
# Elastic Constant Matrix: (Units=GPa)
#
#
# Indices 1 2 3 4 5 6 
#
# 1 56.6354 13.7564 19.2561 0.0000 0.0000 0.0000
# 2 13.7564 137.5522 45.4909 0.0000 0.0000 0.0000
# 3 19.2561 45.4909 171.7627 0.0000 0.0000 0.0000
# 4 0.0000 0.0000 0.0000 -174.9473 0.0000 0.0000
# 5 0.0000 0.0000 0.0000 0.0000 36.8481 0.0000
# 6 0.0000 0.0000 0.0000 0.0000 0.0000 22.1728
#
#
#
# Elastic Compliance Matrix: (Units=1/GPa)
#
#
# Indices 1 2 3 4 5 6 
#
# 1 0.018560 -0.001280 -0.001742 0.000000 0.000000 0.000000
# 2 -0.001280 0.008056 -0.001990 0.000000 0.000000 0.000000
# 3 -0.001742 -0.001990 0.006544 0.000000 0.000000 0.000000
# 4 0.000000 0.000000 0.000000 -0.005716 0.000000 0.000000
# 5 0.000000 0.000000 0.000000 0.000000 0.027138 0.000000
# 6 0.000000 0.000000 0.000000 0.000000 0.000000 0.045100
#
#
# Mechanical properties :
#
#
# Convention : Reuss Voigt Hill
#
# Bulk Modulus (GPa) = 43.22181 58.10633 50.66407
# Shear Modulus (GPa) = 42.58247 -4.02215 19.28016
#
# Velocity S-wave (km/s) = 4.22318 -1.29794 2.84171
# Velocity P-wave (km/s) = 6.47174 4.70012 5.65573
#
# Compressibility (1/GPa) = 0.02313647
#
# Stress axis : x y z
#
# Youngs Moduli (GPa) = 53.87958 124.12848 152.80407
#
# Poissons Ratio (x) = 0.15890 0.26614
# Poissons Ratio (y) = 0.06897 0.30410
# Poissons Ratio (z) = 0.09384 0.24703
#
# Static dielectric constant tensor:
#      x y z
#    x 2.090460 0.000000 0.000000 
#    y 0.000000 1.898770 0.000000 
#    z 0.000000 0.000000 1.947390 
# 
# From -- ./inp_files/33565.got.cif
#   From: 2010.05.17/outbox.cif.g08.bks.cpg/sg22_17_cif.got.tgz:33565.got - 2010.06.03 23:40:54.
