data_PCOD9328561
_publ_section_title
;
Structure prediction by ZEFSAII (Michael W. Deem and Ramdas Pophale) SiO2 
 PCOD9328561
Probable space group: F 2 2 2
;
_chemical_formula_sum "Si O2"
_cell_formula_units_Z 80
_cell_length_a 5.054144
_cell_length_b 24.962627
_cell_length_c 30.114604
_cell_angle_alpha 90.000000
_cell_angle_beta 90.000000
_cell_angle_gamma 90.000000
_cell_volume 3799.400325
_symmetry_space_group_name_H-M "F 2 2 2"
_symmetry_group_IT_number 22
_symmetry_cell_setting 'orthorhombic'
loop_
_space_group_symop_operation_xyz
x,y,z
-x,-y,z
x,-y,-z
-x,y,-z
x,1/2+y,1/2+z
-x,1/2-y,1/2+z
x,1/2-y,1/2-z
-x,1/2+y,1/2-z
1/2+x,y,1/2+z
1/2-x,-y,1/2+z
1/2+x,-y,1/2-z
1/2-x,y,1/2-z
1/2+x,1/2+y,z
1/2-x,1/2-y,z
1/2+x,1/2-y,-z
1/2-x,1/2+y,-z
loop_
_atom_site_type_symbol
_atom_site_label
_atom_site_fract_x
_atom_site_fract_y
_atom_site_fract_z
Si Si1 0.000000 0.500000 0.084068
Si Si2 0.250000 0.597253 0.250000
Si Si3 0.750000 0.828635 0.250000
Si Si4 0.250000 0.250000 0.173437
Si Si5 0.784935 0.082249 0.347596
Si Si6 0.754292 0.097108 0.530594
Si Si7 0.208356 0.147514 0.122959
O O1 0.175348 0.535118 0.117350
O O2 0.163994 0.458774 0.054048
O O3 0.501613 0.634525 0.238104
O O4 0.185400 0.566922 0.204174
O O5 0.636575 0.791665 0.210106
O O6 0.126024 0.206297 0.140250
O O7 0.499064 0.106174 0.356836
O O8 0.004026 0.127592 0.359927
O O9 0.500000 0.090293 0.500000
O O10 0.705744 0.139193 0.570172
O O11 0.000000 0.113546 0.500000
#
# Coordination Sequence:
#
# PCOD9328561 Si02
#       7
#     8   8   8   8  16  16  16
#     4  10  25  42  68  94 126 166 218 264 331 386
#     4  12  20  43  59  95 136 171 213 265 306 376
#     4  11  24  36  67  95 128 169 233 250 302 373
#     4  11  22  42  64 100 128 174 210 266 308 381
#     4  11  23  41  61  94 131 172 207 266 312 375
#     4  11  24  44  67  93 120 159 211 271 325 386
#     4  11  24  41  63  95 131 162 212 264 327 372
#
# _framework density 21.055955000000001
#
# number of rings (size 3 to 8) (size 9 to 14) (size 15 to 20)
#    0.000    1.000    4.000    2.700    0.000   13.600 
#    0.000    6.000    0.000    0.000    0.000    0.000 
#    0.000    0.000    0.000    0.000    0.000    0.000 
#
# Total GULP energy -111575.471460 kJ/mol
# GULP energy per Si atom -5578.773573 kJ/mol
# Density = 2.100803 g / cm^3
# Si number density = 21.055955 Si / 1000 Ang^3
#
#
#
# Elastic Constant Matrix: (Units=GPa)
#
#
# Indices 1 2 3 4 5 6 
#
# 1 67.0004 2.7474 38.4068 0.0000 0.0000 0.0000
# 2 2.7474 50.0919 43.0216 0.0000 0.0000 0.0000
# 3 38.4068 43.0216 204.9070 0.0000 0.0000 0.0000
# 4 0.0000 0.0000 0.0000 101.6663 0.0000 0.0000
# 5 0.0000 0.0000 0.0000 0.0000 10.6777 0.0000
# 6 0.0000 0.0000 0.0000 0.0000 0.0000 21.5235
#
#
#
# Elastic Compliance Matrix: (Units=1/GPa)
#
#
# Indices 1 2 3 4 5 6 
#
# 1 0.016917 0.002190 -0.003631 0.000000 0.000000 0.000000
# 2 0.002190 0.024639 -0.005584 0.000000 0.000000 0.000000
# 3 -0.003631 -0.005584 0.006733 0.000000 0.000000 0.000000
# 4 0.000000 0.000000 0.000000 0.009836 0.000000 0.000000
# 5 0.000000 0.000000 0.000000 0.000000 0.093653 0.000000
# 6 0.000000 0.000000 0.000000 0.000000 0.000000 0.046461
#
#
# Mechanical properties :
#
#
# Convention : Reuss Voigt Hill
#
# Bulk Modulus (GPa) = 29.20505 54.48342 41.84424
# Shear Modulus (GPa) = 22.35136 42.62841 32.48988
#
# Velocity S-wave (km/s) = 3.26164 4.50436 3.93240
# Velocity P-wave (km/s) = 5.29950 7.27901 6.36666
#
# Compressibility (1/GPa) = 0.03424065
#
# Stress axis : x y z
#
# Youngs Moduli (GPa) = 59.11329 40.58662 148.52021
#
# Poissons Ratio (x) = -0.08890 0.53923
# Poissons Ratio (y) = -0.12948 0.82928
# Poissons Ratio (z) = 0.21462 0.22662
#
# Static dielectric constant tensor:
#      x y z
#    x 1.729060 0.000000 0.000000 
#    y 0.000000 1.780110 0.000000 
#    z 0.000000 0.000000 1.787590 
# 
# From -- ./inp_files/51306.got.cif
#   From: 2010.05.17/outbox.cif.g08.bks.cpg/sg22_26_cif.got.tgz:51306.got - 2010.06.03 23:40:54.
