data_PCOD9328841
_publ_section_title
;
Structure prediction by ZEFSAII (Michael W. Deem and Ramdas Pophale) SiO2 
 PCOD9328841
Probable space group: F 2 2 2
;
_chemical_formula_sum "Si O2"
_cell_formula_units_Z 64
_cell_length_a 12.860845
_cell_length_b 18.091309
_cell_length_c 12.103997
_cell_angle_alpha 90.000000
_cell_angle_beta 90.000000
_cell_angle_gamma 90.000000
_cell_volume 2816.231183
_symmetry_space_group_name_H-M "F 2 2 2"
_symmetry_group_IT_number 22
_symmetry_cell_setting 'orthorhombic'
loop_
_space_group_symop_operation_xyz
x,y,z
-x,-y,z
x,-y,-z
-x,y,-z
x,1/2+y,1/2+z
-x,1/2-y,1/2+z
x,1/2-y,1/2-z
-x,1/2+y,1/2-z
1/2+x,y,1/2+z
1/2-x,-y,1/2+z
1/2+x,-y,1/2-z
1/2-x,y,1/2-z
1/2+x,1/2+y,z
1/2-x,1/2-y,z
1/2+x,1/2-y,-z
1/2-x,1/2+y,-z
loop_
_atom_site_type_symbol
_atom_site_label
_atom_site_fract_x
_atom_site_fract_y
_atom_site_fract_z
Si Si1 0.391137 0.083563 0.539894
Si Si2 0.804373 0.670780 0.986698
Si Si3 0.403823 0.415388 0.707295
Si Si4 0.358430 0.419235 0.317600
O O1 0.500000 0.118495 0.500000
O O2 0.293555 0.119517 0.483969
O O3 0.361422 0.088715 0.668801
O O4 0.395134 0.000000 0.500000
O O5 0.750000 0.750000 0.979640
O O6 0.872821 0.644876 0.090329
O O7 0.864482 0.647925 0.875207
O O8 0.366686 0.492978 0.650614
O O9 0.527032 0.414432 0.737637
O O10 0.250000 0.410072 0.250000
#
# Coordination Sequence:
#
# PCOD9328841 Si02
#       4
#    16  16  16  16
#     4  11  22  41  67  95 125 168 226 287 347 407
#     4  12  26  41  60  94 138 181 227 281 344 415
#     4  11  23  41  71 100 130 176 231 291 351 419
#     4  11  22  43  70  99 131 174 234 293 350 416
#
# _framework density 22.725407000000001
#
# number of rings (size 3 to 8) (size 9 to 14) (size 15 to 20)
#    0.000    0.750    0.000   11.250    0.000    6.500 
#    0.000    2.500    0.000    0.000    0.000    0.000 
#    0.000    0.000    0.000    0.000    0.000    0.000 
#
# Total GULP energy -89105.839752 kJ/mol
# GULP energy per Si atom -5569.114985 kJ/mol
# Density = 2.267368 g / cm^3
# Si number density = 22.725407 Si / 1000 Ang^3
#
#
#
# Elastic Constant Matrix: (Units=GPa)
#
#
# Indices 1 2 3 4 5 6 
#
# 1 106.6054 -0.9506 2.7206 0.0000 0.0000 0.0000
# 2 -0.9506 61.4754 33.1257 0.0000 0.0000 0.0000
# 3 2.7206 33.1257 118.8275 0.0000 0.0000 0.0000
# 4 0.0000 0.0000 0.0000 34.4150 0.0000 0.0000
# 5 0.0000 0.0000 0.0000 0.0000 45.3943 0.0000
# 6 0.0000 0.0000 0.0000 0.0000 0.0000 -7.7595
#
#
#
# Elastic Compliance Matrix: (Units=1/GPa)
#
#
# Indices 1 2 3 4 5 6 
#
# 1 0.009391 0.000307 -0.000301 0.000000 0.000000 0.000000
# 2 0.000307 0.019152 -0.005346 0.000000 0.000000 0.000000
# 3 -0.000301 -0.005346 0.009913 0.000000 0.000000 0.000000
# 4 0.000000 0.000000 0.000000 0.029057 0.000000 0.000000
# 5 0.000000 0.000000 0.000000 0.000000 0.022029 0.000000
# 6 0.000000 0.000000 0.000000 0.000000 0.000000 -0.128874
#
#
# Mechanical properties :
#
#
# Convention : Reuss Voigt Hill
#
# Bulk Modulus (GPa) = 36.00145 39.63329 37.81737
# Shear Modulus (GPa) = -257.81597 31.21079 -113.30259
#
# Velocity S-wave (km/s) = -10.66277 3.70994 -7.06863
# Velocity P-wave (km/s) = 11.64974 5.98578 7.06707
#
# Compressibility (1/GPa) = 0.02777666
#
# Stress axis : x y z
#
# Youngs Moduli (GPa) = 106.48719 52.21351 100.87989
#
# Poissons Ratio (x) = -0.01604 0.03033
# Poissons Ratio (y) = -0.03271 0.53931
# Poissons Ratio (z) = 0.03202 0.27914
#
# Static dielectric constant tensor:
#      x y z
#    x 1.850210 0.000000 0.000000 
#    y 0.000000 1.824360 0.000000 
#    z 0.000000 0.000000 1.914540 
# 
# From -- ./inp_files/27817.got.cif
#   From: 2010.05.17/outbox.cif.g08.bks.cpg/sg22_14_cif.got.tgz:27817.got - 2010.06.03 23:40:54.
