data_PCOD9328911
_publ_section_title
;
Structure prediction by ZEFSAII (Michael W. Deem and Ramdas Pophale) SiO2 
 PCOD9328911
Probable space group: F 2 2 2
;
_chemical_formula_sum "Si O2"
_cell_formula_units_Z 64
_cell_length_a 12.538642
_cell_length_b 19.420378
_cell_length_c 11.384060
_cell_angle_alpha 90.000000
_cell_angle_beta 90.000000
_cell_angle_gamma 90.000000
_cell_volume 2772.077434
_symmetry_space_group_name_H-M "F 2 2 2"
_symmetry_group_IT_number 22
_symmetry_cell_setting 'orthorhombic'
loop_
_space_group_symop_operation_xyz
x,y,z
-x,-y,z
x,-y,-z
-x,y,-z
x,1/2+y,1/2+z
-x,1/2-y,1/2+z
x,1/2-y,1/2-z
-x,1/2+y,1/2-z
1/2+x,y,1/2+z
1/2-x,-y,1/2+z
1/2+x,-y,1/2-z
1/2-x,y,1/2-z
1/2+x,1/2+y,z
1/2-x,1/2-y,z
1/2+x,1/2-y,-z
1/2-x,1/2+y,-z
loop_
_atom_site_type_symbol
_atom_site_label
_atom_site_fract_x
_atom_site_fract_y
_atom_site_fract_z
Si Si1 0.111725 0.683274 0.928646
Si Si2 0.917164 0.061331 0.173431
Si Si3 0.185676 0.436047 0.925112
Si Si4 0.048615 0.311793 0.319690
O O1 0.110158 0.656679 0.792953
O O2 0.120836 0.765821 0.906428
O O3 0.187886 0.634616 0.001969
O O4 0.000000 0.675744 0.000000
O O5 0.886364 0.072296 0.309864
O O6 0.805642 0.046556 0.112130
O O7 0.972511 0.131279 0.130256
O O8 0.000000 0.000000 0.159036
O O9 0.142630 0.500000 0.000000
O O10 0.985277 0.250000 0.250000
#
# Coordination Sequence:
#
# PCOD9328911 Si02
#       4
#    16  16  16  16
#     4   9  17  37  66  98 129 179 226 283 352 418
#     4  11  23  42  68 103 147 183 239 304 349 424
#     4  11  23  39  70 106 134 192 239 285 362 428
#     4   8  19  36  68  99 130 181 230 284 352 414
#
# _framework density 23.087377
#
# number of rings (size 3 to 8) (size 9 to 14) (size 15 to 20)
#    1.500    0.500    2.500    1.500    0.000    0.500 
#    4.500    8.750    0.000    6.000    0.000    0.000 
#    0.000    0.000    0.000    0.000    0.000    0.000 
#
# Total GULP energy -89201.732868 kJ/mol
# GULP energy per Si atom -5575.108304 kJ/mol
# Density = 2.303483 g / cm^3
# Si number density = 23.087377 Si / 1000 Ang^3
#
#
#
# Elastic Constant Matrix: (Units=GPa)
#
#
# Indices 1 2 3 4 5 6 
#
# 1 79.2895 45.3767 30.7612 0.0000 0.0000 0.0000
# 2 45.3767 112.5559 42.6281 0.0000 0.0000 0.0000
# 3 30.7612 42.6281 116.0204 0.0000 0.0000 0.0000
# 4 0.0000 0.0000 0.0000 35.5516 0.0000 0.0000
# 5 0.0000 0.0000 0.0000 0.0000 10.7698 0.0000
# 6 0.0000 0.0000 0.0000 0.0000 0.0000 31.6311
#
#
#
# Elastic Compliance Matrix: (Units=1/GPa)
#
#
# Indices 1 2 3 4 5 6 
#
# 1 0.016906 -0.005945 -0.002298 0.000000 0.000000 0.000000
# 2 -0.005945 0.012411 -0.002984 0.000000 0.000000 0.000000
# 3 -0.002298 -0.002984 0.010325 0.000000 0.000000 0.000000
# 4 0.000000 0.000000 0.000000 0.028128 0.000000 0.000000
# 5 0.000000 0.000000 0.000000 0.000000 0.092852 0.000000
# 6 0.000000 0.000000 0.000000 0.000000 0.000000 0.031614
#
#
# Mechanical properties :
#
#
# Convention : Reuss Voigt Hill
#
# Bulk Modulus (GPa) = 58.18058 60.59975 59.39017
# Shear Modulus (GPa) = 22.68391 28.19715 25.44053
#
# Velocity S-wave (km/s) = 3.13793 3.49853 3.32313
# Velocity P-wave (km/s) = 6.19545 6.52876 6.36429
#
# Compressibility (1/GPa) = 0.01718787
#
# Stress axis : x y z
#
# Youngs Moduli (GPa) = 59.15066 80.57115 96.85440
#
# Poissons Ratio (x) = 0.47902 0.22257
# Poissons Ratio (y) = 0.35167 0.28900
# Poissons Ratio (z) = 0.13593 0.24041
#
# Static dielectric constant tensor:
#      x y z
#    x 1.841670 0.000000 0.000000 
#    y 0.000000 1.870100 0.000000 
#    z 0.000000 0.000000 1.911210 
# 
# From -- ./inp_files/17753.got.cif
#   From: 2010.05.17/outbox.cif.g08.bks.cpg/sg22_9_cif.got.tgz:17753.got - 2010.06.03 23:40:54.
