data_PCOD9328184
_publ_section_title
;
Structure prediction by ZEFSAII (Michael W. Deem and Ramdas Pophale) SiO2 
 PCOD9328184
Probable space group: F 2 2 2
;
_chemical_formula_sum "Si O2"
_cell_formula_units_Z 48
_cell_length_a 13.397150
_cell_length_b 10.798382
_cell_length_c 14.828783
_cell_angle_alpha 90.000000
_cell_angle_beta 90.000000
_cell_angle_gamma 90.000000
_cell_volume 2145.243608
_symmetry_space_group_name_H-M "F 2 2 2"
_symmetry_group_IT_number 22
_symmetry_cell_setting 'orthorhombic'
loop_
_space_group_symop_operation_xyz
x,y,z
-x,-y,z
x,-y,-z
-x,y,-z
x,1/2+y,1/2+z
-x,1/2-y,1/2+z
x,1/2-y,1/2-z
-x,1/2+y,1/2-z
1/2+x,y,1/2+z
1/2-x,-y,1/2+z
1/2+x,-y,1/2-z
1/2-x,y,1/2-z
1/2+x,1/2+y,z
1/2-x,1/2-y,z
1/2+x,1/2-y,-z
1/2-x,1/2+y,-z
loop_
_atom_site_type_symbol
_atom_site_label
_atom_site_fract_x
_atom_site_fract_y
_atom_site_fract_z
Si Si1 0.443169 0.127330 0.810097
Si Si2 0.000000 0.785167 0.500000
Si Si3 0.610776 0.433002 0.912253
Si Si4 0.750000 0.507187 0.750000
O O1 0.471244 0.250000 0.750000
O O2 0.328885 0.096907 0.795461
O O3 0.500000 0.000000 0.785990
O O4 0.456174 0.144493 0.915996
O O5 0.917702 0.700729 0.449800
O O6 0.500000 0.500000 0.898439
O O7 0.684889 0.436104 0.826890
O O8 0.656940 0.500000 0.000000
#
# Coordination Sequence:
#
# PCOD9328184 Si02
#       4
#    16   8  16   8
#     4  12  26  46  72 105 145 190 240 302 362 426
#     4  10  22  46  70  96 143 190 233 294 359 426
#     4   9  20  42  68  97 139 188 232 284 354 428
#     4  12  23  42  73 106 137 184 239 294 361 432
#
# _framework density 22.375081000000002
#
# number of rings (size 3 to 8) (size 9 to 14) (size 15 to 20)
#    0.000    1.667    0.000    8.000    0.000    4.000 
#    0.000   14.167    0.000    4.000    0.000    0.000 
#    0.000    0.000    0.000    0.000    0.000    0.000 
#
# Total GULP energy -66906.137759 kJ/mol
# GULP energy per Si atom -5575.511480 kJ/mol
# Density = 2.232415 g / cm^3
# Si number density = 22.375081 Si / 1000 Ang^3
#
#
#
# Elastic Constant Matrix: (Units=GPa)
#
#
# Indices 1 2 3 4 5 6 
#
# 1 112.1971 58.5289 83.9897 0.0000 0.0000 0.0000
# 2 58.5289 113.2728 67.9571 0.0000 0.0000 0.0000
# 3 83.9897 67.9571 245.0830 0.0000 0.0000 0.0000
# 4 0.0000 0.0000 0.0000 -49.6003 0.0000 0.0000
# 5 0.0000 0.0000 0.0000 0.0000 49.4839 0.0000
# 6 0.0000 0.0000 0.0000 0.0000 0.0000 13.4093
#
#
#
# Elastic Compliance Matrix: (Units=1/GPa)
#
#
# Indices 1 2 3 4 5 6 
#
# 1 0.014232 -0.005311 -0.003405 0.000000 0.000000 0.000000
# 2 -0.005311 0.012572 -0.001666 0.000000 0.000000 0.000000
# 3 -0.003405 -0.001666 0.005709 0.000000 0.000000 0.000000
# 4 0.000000 0.000000 0.000000 -0.020161 0.000000 0.000000
# 5 0.000000 0.000000 0.000000 0.000000 0.020209 0.000000
# 6 0.000000 0.000000 0.000000 0.000000 0.000000 0.074575
#
#
# Mechanical properties :
#
#
# Convention : Reuss Voigt Hill
#
# Bulk Modulus (GPa) = 85.10887 99.05600 92.08243
# Shear Modulus (GPa) = 37.93174 19.99707 28.96441
#
# Velocity S-wave (km/s) = 4.12183 2.99276 3.60181
# Velocity P-wave (km/s) = 7.79568 7.50393 7.65119
#
# Compressibility (1/GPa) = 0.01174966
#
# Stress axis : x y z
#
# Youngs Moduli (GPa) = 70.26270 79.54154 175.16442
#
# Poissons Ratio (x) = 0.42247 0.59637
# Poissons Ratio (y) = 0.37319 0.29179
# Poissons Ratio (z) = 0.23922 0.13250
#
# Static dielectric constant tensor:
#      x y z
#    x 1.855160 0.000000 0.000000 
#    y 0.000000 1.984450 0.000000 
#    z 0.000000 0.000000 1.935630 
# 
# From -- ./inp_files/19000.got.cif
#   From: 2010.05.17/outbox.cif.g08.bks.cpg/sg22_10_cif.got.tgz:19000.got - 2010.06.03 23:40:54.
