data_PCOD9328375
_publ_section_title
;
Structure prediction by ZEFSAII (Michael W. Deem and Ramdas Pophale) SiO2 
 PCOD9328375
Probable space group: F 2 2 2
;
_chemical_formula_sum "Si O2"
_cell_formula_units_Z 88
_cell_length_a 12.080760
_cell_length_b 32.992810
_cell_length_c 10.557372
_cell_angle_alpha 90.000000
_cell_angle_beta 90.000000
_cell_angle_gamma 90.000000
_cell_volume 4207.938533
_symmetry_space_group_name_H-M "F 2 2 2"
_symmetry_group_IT_number 22
_symmetry_cell_setting 'orthorhombic'
loop_
_space_group_symop_operation_xyz
x,y,z
-x,-y,z
x,-y,-z
-x,y,-z
x,1/2+y,1/2+z
-x,1/2-y,1/2+z
x,1/2-y,1/2-z
-x,1/2+y,1/2-z
1/2+x,y,1/2+z
1/2-x,-y,1/2+z
1/2+x,-y,1/2-z
1/2-x,y,1/2-z
1/2+x,1/2+y,z
1/2-x,1/2-y,z
1/2+x,1/2-y,-z
1/2-x,1/2+y,-z
loop_
_atom_site_type_symbol
_atom_site_label
_atom_site_fract_x
_atom_site_fract_y
_atom_site_fract_z
Si Si1 0.625178 0.859793 0.980785
Si Si2 0.000000 0.000000 0.215866
Si Si3 0.500000 0.729888 0.000000
Si Si4 0.903595 0.250000 0.250000
Si Si5 0.670875 0.500000 0.000000
Si Si6 0.780151 0.294010 0.603609
Si Si7 0.750000 0.673645 0.750000
Si Si8 0.833446 0.439139 0.859882
O O1 0.677683 0.855397 0.840784
O O2 0.500000 0.845932 0.000000
O O3 0.706773 0.829280 0.050742
O O4 0.628788 0.903172 0.049356
O O5 0.934469 0.966088 0.299533
O O6 0.093547 0.984265 0.116009
O O7 0.531702 0.757908 0.879731
O O8 0.406905 0.701766 0.935428
O O9 0.839506 0.291364 0.289902
O O10 0.752308 0.467190 0.941375
O O11 0.750000 0.291864 0.750000
O O12 0.750000 0.250000 0.546196
O O13 0.750000 0.423283 0.750000
#
# Coordination Sequence:
#
# PCOD9328375 Si02
#       8
#    16   8   8   8   8  16   8  16
#     4  12  28  44  67 103 149 193 239 311 369 443
#     4   9  20  41  74 110 134 195 231 296 360 446
#     4  12  24  42  76  98 134 189 254 325 372 444
#     4  11  24  46  77 102 138 195 264 323 370 454
#     4   9  20  41  74 106 146 183 242 287 366 446
#     4  11  25  44  68 100 134 184 251 303 367 444
#     4  11  26  46  64 100 150 194 246 306 380 434
#     4  10  23  45  72 105 145 181 239 300 365 445
#
# _framework density 20.912852999999998
#
# number of rings (size 3 to 8) (size 9 to 14) (size 15 to 20)
#    0.000    1.273    1.818    2.727   10.182    1.455 
#    1.636    3.636    0.000    0.000    0.000    0.000 
#    0.000    0.000    0.000    0.000    0.000    0.000 
#
# Total GULP energy -122553.015494 kJ/mol
# GULP energy per Si atom -5570.591613 kJ/mol
# Density = 2.086525 g / cm^3
# Si number density = 20.912853 Si / 1000 Ang^3
#
#
#
# Elastic Constant Matrix: (Units=GPa)
#
#
# Indices 1 2 3 4 5 6 
#
# 1 157.1006 54.8219 64.5597 0.0000 0.0000 0.0000
# 2 54.8219 71.7144 40.6411 0.0000 0.0000 0.0000
# 3 64.5597 40.6411 122.9607 0.0000 0.0000 0.0000
# 4 0.0000 0.0000 0.0000 28.1654 0.0000 0.0000
# 5 0.0000 0.0000 0.0000 0.0000 34.5785 0.0000
# 6 0.0000 0.0000 0.0000 0.0000 0.0000 10.4963
#
#
#
# Elastic Compliance Matrix: (Units=1/GPa)
#
#
# Indices 1 2 3 4 5 6 
#
# 1 0.009618 -0.005526 -0.003224 0.000000 0.000000 0.000000
# 2 -0.005526 0.020333 -0.003819 0.000000 0.000000 0.000000
# 3 -0.003224 -0.003819 0.011088 0.000000 0.000000 0.000000
# 4 0.000000 0.000000 0.000000 0.035505 0.000000 0.000000
# 5 0.000000 0.000000 0.000000 0.000000 0.028920 0.000000
# 6 0.000000 0.000000 0.000000 0.000000 0.000000 0.095272
#
#
# Mechanical properties :
#
#
# Convention : Reuss Voigt Hill
#
# Bulk Modulus (GPa) = 62.88739 74.64680 68.76710
# Shear Modulus (GPa) = 21.62889 27.43157 24.53023
#
# Velocity S-wave (km/s) = 3.21945 3.62568 3.42859
# Velocity P-wave (km/s) = 6.62995 7.30063 6.97336
#
# Compressibility (1/GPa) = 0.01590144
#
# Stress axis : x y z
#
# Youngs Moduli (GPa) = 103.96723 49.18169 90.19152
#
# Poissons Ratio (x) = 0.27177 0.29075
# Poissons Ratio (y) = 0.57451 0.34445
# Poissons Ratio (z) = 0.33515 0.18783
#
# Static dielectric constant tensor:
#      x y z
#    x 1.869620 0.000000 0.000000 
#    y 0.000000 1.764110 0.000000 
#    z 0.000000 0.000000 1.852450 
# 
# From -- ./inp_files/18479.got.cif
#   From: 2010.05.17/outbox.cif.g08.bks.cpg/sg22_10_cif.got.tgz:18479.got - 2010.06.03 23:40:54.
