data_PCOD9328340
_publ_section_title
;
Structure prediction by ZEFSAII (Michael W. Deem and Ramdas Pophale) SiO2 
 PCOD9328340
Probable space group: F 2 2 2
;
_chemical_formula_sum "Si O2"
_cell_formula_units_Z 100
_cell_length_a 9.090421
_cell_length_b 21.967770
_cell_length_c 24.142122
_cell_angle_alpha 90.000000
_cell_angle_beta 90.000000
_cell_angle_gamma 90.000000
_cell_volume 4821.091900
_symmetry_space_group_name_H-M "F 2 2 2"
_symmetry_group_IT_number 22
_symmetry_cell_setting 'orthorhombic'
loop_
_space_group_symop_operation_xyz
x,y,z
-x,-y,z
x,-y,-z
-x,y,-z
x,1/2+y,1/2+z
-x,1/2-y,1/2+z
x,1/2-y,1/2-z
-x,1/2+y,1/2-z
1/2+x,y,1/2+z
1/2-x,-y,1/2+z
1/2+x,-y,1/2-z
1/2-x,y,1/2-z
1/2+x,1/2+y,z
1/2-x,1/2-y,z
1/2+x,1/2-y,-z
1/2-x,1/2+y,-z
loop_
_atom_site_type_symbol
_atom_site_label
_atom_site_fract_x
_atom_site_fract_y
_atom_site_fract_z
Si Si1 0.678746 0.337744 0.142612
Si Si2 0.091765 0.903467 0.910736
Si Si3 0.500000 0.000000 0.212316
Si Si4 0.863795 0.288360 0.535698
Si Si5 0.487565 0.215215 0.866029
Si Si6 0.750000 0.916180 0.750000
Si Si7 0.308040 0.110604 0.186802
Si Si8 0.000000 0.500000 0.500000
O O1 0.572151 0.377561 0.103152
O O2 0.581933 0.277892 0.159823
O O3 0.836698 0.319151 0.116894
O O4 0.726400 0.374555 0.196761
O O5 0.189433 0.850217 0.938041
O O6 0.168974 0.907673 0.851216
O O7 0.085270 0.956896 0.955791
O O8 0.387416 0.960889 0.247541
O O9 0.587124 0.948025 0.179851
O O10 0.750000 0.250000 0.500559
O O11 0.000000 0.306956 0.500000
O O12 0.919028 0.242503 0.583259
O O13 0.595758 0.170523 0.831112
O O14 0.250000 0.117079 0.250000
#
# Coordination Sequence:
#
# PCOD9328340 Si02
#       8
#    16  16   8  16  16   8  16   4
#     4  10  24  42  68 100 143 180 239 295 361 432
#     4  11  26  45  71 106 139 186 246 300 364 424
#     4  12  26  41  66  95 138 194 246 284 350 432
#     4  11  23  43  69  98 137 182 239 299 364 434
#     4  10  23  44  66 106 138 181 236 293 368 438
#     4  12  24  45  64 100 141 200 240 288 352 440
#     4  12  25  47  72 105 147 194 236 299 365 452
#     4  12  28  46  76 106 144 190 256 310 344 432
#
# _framework density 20.742189
#
# number of rings (size 3 to 8) (size 9 to 14) (size 15 to 20)
#    0.000    0.960    4.800    0.960    6.720    1.920 
#    2.880    6.400    0.000    0.960    0.000    0.000 
#    0.000    0.000    0.000    0.000    0.000    0.000 
#
# Total GULP energy -139304.853501 kJ/mol
# GULP energy per Si atom -5572.194140 kJ/mol
# Density = 2.069498 g / cm^3
# Si number density = 20.742189 Si / 1000 Ang^3
#
#
#
# Elastic Constant Matrix: (Units=GPa)
#
#
# Indices 1 2 3 4 5 6 
#
# 1 83.3047 37.1402 28.0325 0.0000 0.0000 0.0000
# 2 37.1402 110.3935 50.3340 0.0000 0.0000 0.0000
# 3 28.0325 50.3340 99.9227 0.0000 0.0000 0.0000
# 4 0.0000 0.0000 0.0000 24.2560 0.0000 0.0000
# 5 0.0000 0.0000 0.0000 0.0000 17.3256 0.0000
# 6 0.0000 0.0000 0.0000 0.0000 0.0000 27.9878
#
#
#
# Elastic Compliance Matrix: (Units=1/GPa)
#
#
# Indices 1 2 3 4 5 6 
#
# 1 0.014449 -0.003911 -0.002083 0.000000 0.000000 0.000000
# 2 -0.003911 0.012818 -0.005360 0.000000 0.000000 0.000000
# 3 -0.002083 -0.005360 0.013292 0.000000 0.000000 0.000000
# 4 0.000000 0.000000 0.000000 0.041227 0.000000 0.000000
# 5 0.000000 0.000000 0.000000 0.000000 0.057718 0.000000
# 6 0.000000 0.000000 0.000000 0.000000 0.000000 0.035730
#
#
# Mechanical properties :
#
#
# Convention : Reuss Voigt Hill
#
# Bulk Modulus (GPa) = 56.02017 58.29271 57.15644
# Shear Modulus (GPa) = 24.52276 25.78818 25.15547
#
# Velocity S-wave (km/s) = 3.44214 3.52983 3.48626
# Velocity P-wave (km/s) = 6.54708 6.69159 6.61973
#
# Compressibility (1/GPa) = 0.01785071
#
# Stress axis : x y z
#
# Youngs Moduli (GPa) = 69.20921 78.01486 75.23345
#
# Poissons Ratio (x) = 0.30513 0.15674
# Poissons Ratio (y) = 0.27069 0.40322
# Poissons Ratio (z) = 0.14419 0.41813
#
# Static dielectric constant tensor:
#      x y z
#    x 1.973810 0.000000 0.000000 
#    y 0.000000 1.773300 0.000000 
#    z 0.000000 0.000000 1.752950 
# 
# From -- ./inp_files/42049.got.cif
#   From: 2010.05.17/outbox.cif.g08.bks.cpg/sg22_22_cif.got.tgz:42049.got - 2010.06.03 23:40:54.
