data_PCOD9328555
_publ_section_title
;
Structure prediction by ZEFSAII (Michael W. Deem and Ramdas Pophale) SiO2 
 PCOD9328555
Probable space group: F 2 2 2
;
_chemical_formula_sum "Si O2"
_cell_formula_units_Z 76
_cell_length_a 32.036388
_cell_length_b 5.216837
_cell_length_c 24.292613
_cell_angle_alpha 90.000000
_cell_angle_beta 90.000000
_cell_angle_gamma 90.000000
_cell_volume 4059.990748
_symmetry_space_group_name_H-M "F 2 2 2"
_symmetry_group_IT_number 22
_symmetry_cell_setting 'orthorhombic'
loop_
_space_group_symop_operation_xyz
x,y,z
-x,-y,z
x,-y,-z
-x,y,-z
x,1/2+y,1/2+z
-x,1/2-y,1/2+z
x,1/2-y,1/2-z
-x,1/2+y,1/2-z
1/2+x,y,1/2+z
1/2-x,-y,1/2+z
1/2+x,-y,1/2-z
1/2-x,y,1/2-z
1/2+x,1/2+y,z
1/2-x,1/2-y,z
1/2+x,1/2-y,-z
1/2-x,1/2+y,-z
loop_
_atom_site_type_symbol
_atom_site_label
_atom_site_fract_x
_atom_site_fract_y
_atom_site_fract_z
Si Si1 0.000000 0.500000 0.890700
Si Si2 0.429239 0.806207 0.187434
Si Si3 0.430596 0.248681 0.037032
Si Si4 0.117820 0.696775 0.647407
Si Si5 0.750000 0.750000 0.750000
Si Si6 0.293562 0.645533 0.687368
O O1 0.969017 0.666927 0.852682
O O2 0.972549 0.317442 0.929316
O O3 0.441788 0.750000 0.250000
O O4 0.398119 0.578855 0.168669
O O5 0.406410 0.079866 0.180932
O O6 0.395866 0.283705 0.084004
O O7 0.434555 0.500000 0.000000
O O8 0.421564 0.000000 0.000000
O O9 0.166134 0.764241 0.655605
O O10 0.716668 0.643484 0.704494
O O11 0.296761 0.750000 0.750000
O O12 0.250000 0.750000 0.663502
#
# Coordination Sequence:
#
# PCOD9328555 Si02
#       6
#     8  16  16  16   4  16
#     4  10  25  40  62  88 114 160 209 252 316 356
#     4  11  24  39  58  90 127 162 196 243 298 381
#     4  11  24  43  61  84 112 151 210 267 302 341
#     4  11  24  39  61  89 121 164 202 242 310 356
#     4   8  18  32  56  94 124 168 190 228 294 360
#     4   9  19  34  57  91 125 158 193 234 289 371
#
# _framework density 18.719256999999999
#
# number of rings (size 3 to 8) (size 9 to 14) (size 15 to 20)
#    0.000    1.895    0.000    4.737    7.368   13.474 
#    0.000    0.000    0.000    1.263    0.000    0.000 
#    0.000    0.000    0.000    0.000    0.000    0.000 
#
# Total GULP energy -105914.728141 kJ/mol
# GULP energy per Si atom -5574.459376 kJ/mol
# Density = 1.867665 g / cm^3
# Si number density = 18.719257 Si / 1000 Ang^3
#
#
#
# Elastic Constant Matrix: (Units=GPa)
#
#
# Indices 1 2 3 4 5 6 
#
# 1 143.2057 27.0935 58.5361 -0.0007 -0.0086 -0.0034
# 2 27.0935 91.2080 37.6483 -0.0090 -0.0255 -0.0177
# 3 58.5361 37.6483 117.3748 0.0011 -0.0057 -0.0030
# 4 -0.0007 -0.0090 0.0011 32.8626 -0.0075 -0.0103
# 5 -0.0086 -0.0255 -0.0057 -0.0075 10.4841 0.0002
# 6 -0.0034 -0.0177 -0.0030 -0.0103 0.0002 30.7074
#
#
#
# Elastic Compliance Matrix: (Units=1/GPa)
#
#
# Indices 1 2 3 4 5 6 
#
# 1 0.008839 -0.000929 -0.004110 0.000000 0.000003 0.000000
# 2 -0.000929 0.012735 -0.003621 0.000004 0.000028 0.000007
# 3 -0.004110 -0.003621 0.011731 -0.000001 -0.000006 -0.000001
# 4 0.000000 0.000004 -0.000001 0.030430 0.000022 0.000010
# 5 0.000003 0.000028 -0.000006 0.000022 0.095383 -0.000001
# 6 0.000000 0.000007 -0.000001 0.000010 -0.000001 0.032565
#
#
# Mechanical properties :
#
#
# Convention : Reuss Voigt Hill
#
# Bulk Modulus (GPa) = 62.56402 66.48270 64.52336
# Shear Modulus (GPa) = 23.32841 30.04485 26.68663
#
# Velocity S-wave (km/s) = 3.53402 4.01062 3.77984
# Velocity P-wave (km/s) = 7.08147 7.55245 7.32075
#
# Compressibility (1/GPa) = 0.01598363
#
# Stress axis : x y z
#
# Youngs Moduli (GPa) = 113.13876 78.52528 85.24452
#
# Poissons Ratio (x) = 0.07296 0.35035
# Poissons Ratio (y) = 0.10511 0.30870
# Poissons Ratio (z) = 0.46500 0.28437
#
# Static dielectric constant tensor:
#      x y z
#    x 1.632500 0.000040 0.000000 
#    y 0.000040 2.004730 0.000040 
#    z 0.000000 0.000040 1.619560 
# 
# From -- ./inp_files/50622.got.cif
#   From: 2010.05.17/outbox.cif.g08.bks.cpg/sg22_26_cif.got.tgz:50622.got - 2010.06.03 23:40:54.
