data_PCOD9328061
_publ_section_title
;
Structure prediction by ZEFSAII (Michael W. Deem and Ramdas Pophale) SiO2 
 PCOD9328061
Probable space group: F 2 2 2
;
_chemical_formula_sum "Si O2"
_cell_formula_units_Z 64
_cell_length_a 25.725231
_cell_length_b 12.853804
_cell_length_c 9.232646
_cell_angle_alpha 90.000000
_cell_angle_beta 90.000000
_cell_angle_gamma 90.000000
_cell_volume 3052.932067
_symmetry_space_group_name_H-M "F 2 2 2"
_symmetry_group_IT_number 22
_symmetry_cell_setting 'orthorhombic'
loop_
_space_group_symop_operation_xyz
x,y,z
-x,-y,z
x,-y,-z
-x,y,-z
x,1/2+y,1/2+z
-x,1/2-y,1/2+z
x,1/2-y,1/2-z
-x,1/2+y,1/2-z
1/2+x,y,1/2+z
1/2-x,-y,1/2+z
1/2+x,-y,1/2-z
1/2-x,y,1/2-z
1/2+x,1/2+y,z
1/2-x,1/2-y,z
1/2+x,1/2-y,-z
1/2-x,1/2+y,-z
loop_
_atom_site_type_symbol
_atom_site_label
_atom_site_fract_x
_atom_site_fract_y
_atom_site_fract_z
Si Si1 0.191588 0.373959 0.736625
Si Si2 0.592696 0.126400 0.070600
Si Si3 0.066442 0.922350 0.732945
Si Si4 0.866874 0.500000 0.500000
Si Si5 0.480617 0.750000 0.250000
O O1 0.194923 0.250000 0.750000
O O2 0.250000 0.416984 0.750000
O O3 0.148896 0.396518 0.860735
O O4 0.167468 0.416205 0.587385
O O5 0.559940 0.226417 0.121111
O O6 0.559400 0.032139 0.145793
O O7 0.596486 0.134381 0.898541
O O8 0.018170 0.848633 0.771155
O O9 0.097949 0.946797 0.877122
#
# Coordination Sequence:
#
# PCOD9328061 Si02
#       5
#    16  16  16   8   8
#     4  10  22  42  70  96 129 174 219 269 338 395
#     4  10  22  43  62  93 132 169 215 271 322 395
#     4  10  24  39  63  96 129 171 216 264 330 393
#     4  10  24  44  65 100 134 166 225 280 322 400
#     4  12  22  36  67  92 129 172 214 260 330 392
#
# _framework density 20.963453999999999
#
# number of rings (size 3 to 8) (size 9 to 14) (size 15 to 20)
#    0.000    1.750    1.250    1.500    3.500   10.000 
#    0.000    5.000    0.000    3.000    0.000    0.000 
#    0.000    0.000    0.000    0.000    0.000    0.000 
#
# Total GULP energy -89100.338077 kJ/mol
# GULP energy per Si atom -5568.771130 kJ/mol
# Density = 2.091574 g / cm^3
# Si number density = 20.963454 Si / 1000 Ang^3
#
#
#
# Elastic Constant Matrix: (Units=GPa)
#
#
# Indices 1 2 3 4 5 6 
#
# 1 158.4151 48.5842 90.3253 0.0000 0.0000 0.0000
# 2 48.5842 52.0689 38.9659 0.0000 0.0000 0.0000
# 3 90.3253 38.9659 202.3574 0.0000 0.0000 0.0000
# 4 0.0000 0.0000 0.0000 36.5105 0.0000 0.0000
# 5 0.0000 0.0000 0.0000 0.0000 -12.1275 0.0000
# 6 0.0000 0.0000 0.0000 0.0000 0.0000 17.4545
#
#
#
# Elastic Compliance Matrix: (Units=1/GPa)
#
#
# Indices 1 2 3 4 5 6 
#
# 1 0.010388 -0.007270 -0.003237 0.000000 0.000000 0.000000
# 2 -0.007270 0.027527 -0.002055 0.000000 0.000000 0.000000
# 3 -0.003237 -0.002055 0.006782 0.000000 0.000000 0.000000
# 4 0.000000 0.000000 0.000000 0.027389 0.000000 0.000000
# 5 0.000000 0.000000 0.000000 0.000000 -0.082458 0.000000
# 6 0.000000 0.000000 0.000000 0.000000 0.000000 0.057292
#
#
# Mechanical properties :
#
#
# Convention : Reuss Voigt Hill
#
# Bulk Modulus (GPa) = 51.09250 85.39912 68.24581
# Shear Modulus (GPa) = 63.63713 24.03190 43.83451
#
# Velocity S-wave (km/s) = 5.51563 3.38948 4.57770
# Velocity P-wave (km/s) = 8.06151 7.49291 7.78240
#
# Compressibility (1/GPa) = 0.01957234
#
# Stress axis : x y z
#
# Youngs Moduli (GPa) = 96.26643 36.32752 147.44205
#
# Poissons Ratio (x) = 0.26412 0.47724
# Poissons Ratio (y) = 0.69989 0.30305
# Poissons Ratio (z) = 0.31159 0.07467
#
# Static dielectric constant tensor:
#      x y z
#    x 1.798530 0.000000 0.000000 
#    y 0.000000 1.920200 0.000000 
#    z 0.000000 0.000000 1.783480 
# 
# From -- ./inp_files/9818.got.cif
#   From: 2010.05.17/outbox.cif.g08.bks.cpg/sg22_5_cif.got.tgz:9818.got - 2010.06.03 23:40:54.
