data_PCOD9328358
_publ_section_title
;
Structure prediction by ZEFSAII (Michael W. Deem and Ramdas Pophale) SiO2 
 PCOD9328358
Probable space group: F 2 2 2
;
_chemical_formula_sum "Si O2"
_cell_formula_units_Z 68
_cell_length_a 15.322757
_cell_length_b 9.729571
_cell_length_c 17.125584
_cell_angle_alpha 90.000000
_cell_angle_beta 90.000000
_cell_angle_gamma 90.000000
_cell_volume 2553.148033
_symmetry_space_group_name_H-M "F 2 2 2"
_symmetry_group_IT_number 22
_symmetry_cell_setting 'orthorhombic'
loop_
_space_group_symop_operation_xyz
x,y,z
-x,-y,z
x,-y,-z
-x,y,-z
x,1/2+y,1/2+z
-x,1/2-y,1/2+z
x,1/2-y,1/2-z
-x,1/2+y,1/2-z
1/2+x,y,1/2+z
1/2-x,-y,1/2+z
1/2+x,-y,1/2-z
1/2-x,y,1/2-z
1/2+x,1/2+y,z
1/2-x,1/2-y,z
1/2+x,1/2-y,-z
1/2-x,1/2+y,-z
loop_
_atom_site_type_symbol
_atom_site_label
_atom_site_fract_x
_atom_site_fract_y
_atom_site_fract_z
Si Si1 0.500000 0.500000 0.096441
Si Si2 0.000000 0.000000 0.500000
Si Si3 0.310156 0.873015 0.407071
Si Si4 0.786519 0.104055 0.666418
Si Si5 0.032714 0.694145 0.857150
Si Si6 0.117657 0.250000 0.750000
O O1 0.408051 0.577993 0.064741
O O2 0.538360 0.639651 0.134171
O O3 0.962118 0.887805 0.438782
O O4 0.250000 0.750000 0.442244
O O5 0.330537 0.828233 0.317146
O O6 0.243227 0.997967 0.398854
O O7 0.750000 0.065162 0.750000
O O8 0.750000 0.250000 0.640766
O O9 0.885765 0.132493 0.685309
O O10 0.946965 0.663644 0.806291
#
# Coordination Sequence:
#
# PCOD9328358 Si02
#       6
#     8   4  16  16  16   8
#     4  10  24  46  74 105 158 213 278 330 424 508
#     4  12  32  48  84 114 180 218 276 344 448 536
#     4  11  23  40  67 119 156 205 258 365 420 487
#     4  11  22  38  70 114 152 198 270 348 412 483
#     4  11  26  48  75 119 159 222 272 349 423 517
#     4  10  23  44  75 114 158 210 284 337 421 494
#
# _framework density 26.633786000000001
#
# number of rings (size 3 to 8) (size 9 to 14) (size 15 to 20)
#    0.000    1.176    2.353    3.176   13.176    1.412 
#    0.000    0.000   10.353    0.000    0.000    0.000 
#    0.000    0.000    0.000    0.000    0.000    0.000 
#
# Total GULP energy -94677.241253 kJ/mol
# GULP energy per Si atom -5569.249485 kJ/mol
# Density = 2.657317 g / cm^3
# Si number density = 26.633786 Si / 1000 Ang^3
#
#
#
# Elastic Constant Matrix: (Units=GPa)
#
#
# Indices 1 2 3 4 5 6 
#
# 1 152.7826 71.3045 20.8711 0.0000 0.0000 0.0000
# 2 71.3045 175.4533 8.7011 0.0000 0.0000 0.0000
# 3 20.8711 8.7011 94.9941 0.0000 0.0000 0.0000
# 4 0.0000 0.0000 0.0000 -33.3966 0.0000 0.0000
# 5 0.0000 0.0000 0.0000 0.0000 92.5286 0.0000
# 6 0.0000 0.0000 0.0000 0.0000 0.0000 69.5807
#
#
#
# Elastic Compliance Matrix: (Units=1/GPa)
#
#
# Indices 1 2 3 4 5 6 
#
# 1 0.008290 -0.003294 -0.001520 0.000000 0.000000 0.000000
# 2 -0.003294 0.007034 0.000079 0.000000 0.000000 0.000000
# 3 -0.001520 0.000079 0.010854 0.000000 0.000000 0.000000
# 4 0.000000 0.000000 0.000000 -0.029943 0.000000 0.000000
# 5 0.000000 0.000000 0.000000 0.000000 0.010807 0.000000
# 6 0.000000 0.000000 0.000000 0.000000 0.000000 0.014372
#
#
# Mechanical properties :
#
#
# Convention : Reuss Voigt Hill
#
# Bulk Modulus (GPa) = 59.84564 69.44262 64.64413
# Shear Modulus (GPa) = 137.16698 47.23276 92.19987
#
# Velocity S-wave (km/s) = 7.18421 4.21576 5.89006
# Velocity P-wave (km/s) = 9.55698 7.05880 8.40126
#
# Compressibility (1/GPa) = 0.01670966
#
# Stress axis : x y z
#
# Youngs Moduli (GPa) = 120.62656 142.16335 92.13534
#
# Poissons Ratio (x) = 0.46825 0.14002
# Poissons Ratio (y) = 0.39731 -0.00731
# Poissons Ratio (z) = 0.18332 -0.01128
#
# Static dielectric constant tensor:
#      x y z
#    x 2.202690 0.000000 0.000000 
#    y 0.000000 2.096000 0.000000 
#    z 0.000000 0.000000 2.088320 
# 
# From -- ./inp_files/44002.got.cif
#   From: 2010.05.17/outbox.cif.g08.bks.cpg/sg22_23_cif.got.tgz:44002.got - 2010.06.03 23:40:54.
