data_PCOD9328001
_publ_section_title
;
Structure prediction by ZEFSAII (Michael W. Deem and Ramdas Pophale) SiO2 
 PCOD9328001
Probable space group: F 2 2 2
;
_chemical_formula_sum "Si O2"
_cell_formula_units_Z 64
_cell_length_a 18.106456
_cell_length_b 18.106502
_cell_length_c 6.174771
_cell_angle_alpha 90.000000
_cell_angle_beta 90.000000
_cell_angle_gamma 90.000000
_cell_volume 2024.365216
_symmetry_space_group_name_H-M "F 2 2 2"
_symmetry_group_IT_number 22
_symmetry_cell_setting 'orthorhombic'
loop_
_space_group_symop_operation_xyz
x,y,z
-x,-y,z
x,-y,-z
-x,y,-z
x,1/2+y,1/2+z
-x,1/2-y,1/2+z
x,1/2-y,1/2-z
-x,1/2+y,1/2-z
1/2+x,y,1/2+z
1/2-x,-y,1/2+z
1/2+x,-y,1/2-z
1/2-x,y,1/2-z
1/2+x,1/2+y,z
1/2-x,1/2-y,z
1/2+x,1/2-y,-z
1/2-x,1/2+y,-z
loop_
_atom_site_type_symbol
_atom_site_label
_atom_site_fract_x
_atom_site_fract_y
_atom_site_fract_z
Si Si1 0.409655 0.159654 0.625000
Si Si2 0.631127 0.250000 0.750000
Si Si3 0.635378 0.000000 0.500000
Si Si4 0.000000 0.618871 0.000000
Si Si5 0.629731 0.000000 0.000000
Si Si6 0.250000 0.379729 0.250000
Si Si7 0.250000 0.114622 0.750000
O O1 0.409490 0.229515 0.468973
O O2 0.409642 0.077385 0.513495
O O3 0.327385 0.159642 0.736504
O O4 0.479515 0.159489 0.781028
O O5 0.681993 0.322755 0.731996
O O6 0.664699 0.998465 0.755036
O O7 0.072756 0.568007 0.981995
O O8 0.248466 0.414698 0.494962
#
# Coordination Sequence:
#
# PCOD9328001 Si02
#       7
#    16   8   8   8   8   8   8
#     4  10  22  42  70 116 156 208 268 338 404 490
#     4   9  20  38  68 106 148 192 262 317 390 469
#     4  10  22  41  68 106 150 191 258 320 394 467
#     4   9  20  38  68 106 148 192 262 317 390 469
#     4   9  20  40  66 102 142 202 252 301 380 505
#     4   9  20  40  66 102 142 202 252 301 380 505
#     4  10  22  41  68 106 150 191 258 320 394 467
#
# _framework density 31.614851000000002
#
# number of rings (size 3 to 8) (size 9 to 14) (size 15 to 20)
#    0.000    2.500    0.000    0.000    0.000   24.000 
#    0.000   12.500    0.000    0.000    0.000  231.000 
#    0.000    0.000    0.000    0.000    0.000    0.000 
#
# Total GULP energy -89500.138633 kJ/mol
# GULP energy per Si atom -5593.758665 kJ/mol
# Density = 3.154289 g / cm^3
# Si number density = 31.614851 Si / 1000 Ang^3
#
#
#
# Elastic Constant Matrix: (Units=GPa)
#
#
# Indices 1 2 3 4 5 6 
#
# 1 146.0527 53.1569 139.9164 -0.0015 0.0013 0.0015
# 2 53.1569 146.0584 139.9190 -0.0015 0.0018 0.0009
# 3 139.9164 139.9190 420.4990 -0.0015 0.0029 0.0026
# 4 -0.0015 -0.0015 -0.0015 117.0986 0.0019 0.0015
# 5 0.0013 0.0018 0.0029 0.0019 117.0978 -0.0020
# 6 0.0015 0.0009 0.0026 0.0015 -0.0020 21.9378
#
#
#
# Elastic Compliance Matrix: (Units=1/GPa)
#
#
# Indices 1 2 3 4 5 6 
#
# 1 0.010095 -0.000670 -0.003136 0.000000 0.000000 0.000000
# 2 -0.000670 0.010095 -0.003136 0.000000 0.000000 0.000000
# 3 -0.003136 -0.003136 0.004465 0.000000 0.000000 0.000000
# 4 0.000000 0.000000 0.000000 0.008540 0.000000 -0.000001
# 5 0.000000 0.000000 0.000000 0.000000 0.008540 0.000001
# 6 0.000000 0.000000 0.000000 -0.000001 0.000001 0.045583
#
#
# Mechanical properties :
#
#
# Convention : Reuss Voigt Hill
#
# Bulk Modulus (GPa) = 92.84289 153.17717 123.01003
# Shear Modulus (GPa) = 47.71361 76.53470 62.12415
#
# Velocity S-wave (km/s) = 3.88908 4.92555 4.43768
# Velocity P-wave (km/s) = 7.04253 8.99468 8.07779
#
# Compressibility (1/GPa) = 0.01077088
#
# Stress axis : x y z
#
# Youngs Moduli (GPa) = 99.05919 99.06320 223.95533
#
# Poissons Ratio (x) = 0.06634 0.70236
# Poissons Ratio (y) = 0.06633 0.70235
# Poissons Ratio (z) = 0.31067 0.31067
#
# Static dielectric constant tensor:
#      x y z
#    x 2.542580 0.000000 0.000000 
#    y 0.000000 2.542590 0.000000 
#    z 0.000000 0.000000 3.208210 
# 
# From -- ./inp_files/4544.got.cif
#   From: 2010.05.17/outbox.cif.g08.bks.cpg/sg22_3_cif.got.tgz:4544.got - 2010.06.03 23:40:54.
