data_PCOD9328178
_publ_section_title
;
Structure prediction by ZEFSAII (Michael W. Deem and Ramdas Pophale) SiO2 
 PCOD9328178
Probable space group: F 2 2 2
;
_chemical_formula_sum "Si O2"
_cell_formula_units_Z 64
_cell_length_a 10.945192
_cell_length_b 25.589586
_cell_length_c 8.255014
_cell_angle_alpha 90.000000
_cell_angle_beta 90.000000
_cell_angle_gamma 90.000000
_cell_volume 2312.088525
_symmetry_space_group_name_H-M "F 2 2 2"
_symmetry_group_IT_number 22
_symmetry_cell_setting 'orthorhombic'
loop_
_space_group_symop_operation_xyz
x,y,z
-x,-y,z
x,-y,-z
-x,y,-z
x,1/2+y,1/2+z
-x,1/2-y,1/2+z
x,1/2-y,1/2-z
-x,1/2+y,1/2-z
1/2+x,y,1/2+z
1/2-x,-y,1/2+z
1/2+x,-y,1/2-z
1/2-x,y,1/2-z
1/2+x,1/2+y,z
1/2-x,1/2-y,z
1/2+x,1/2-y,-z
1/2-x,1/2+y,-z
loop_
_atom_site_type_symbol
_atom_site_label
_atom_site_fract_x
_atom_site_fract_y
_atom_site_fract_z
Si Si1 0.123470 0.534288 0.205928
Si Si2 0.341441 0.395640 0.397217
Si Si3 0.138629 0.211513 0.568263
Si Si4 0.438877 0.639971 0.170733
O O1 0.250000 0.506071 0.250000
O O2 0.134579 0.442296 0.976411
O O3 0.130008 0.584276 0.330486
O O4 0.000000 0.500000 0.232372
O O5 0.250000 0.402438 0.250000
O O6 0.310431 0.343610 0.496707
O O7 0.463958 0.377831 0.306474
O O8 0.250000 0.250000 0.526567
O O9 0.116649 0.307058 0.745307
O O10 0.000000 0.223217 0.500000
O O11 0.500000 0.649821 0.000000
#
# Coordination Sequence:
#
# PCOD9328178 Si02
#       4
#    16  16  16  16
#     4  11  25  48  80 118 158 207 267 329 398 482
#     4  10  22  45  80 113 157 210 263 334 402 470
#     4   9  20  43  79 119 161 210 267 329 398 480
#     4  10  22  45  76 112 160 212 262 332 403 468
#
# _framework density 27.680600999999999
#
# number of rings (size 3 to 8) (size 9 to 14) (size 15 to 20)
#    0.000    2.000    0.000    3.750    0.000    4.000 
#    0.000   22.500    0.000   70.500    0.000    0.000 
#    0.000    0.000    0.000    0.000    0.000    0.000 
#
# Total GULP energy -89561.440988 kJ/mol
# GULP energy per Si atom -5597.590062 kJ/mol
# Density = 2.761760 g / cm^3
# Si number density = 27.680601 Si / 1000 Ang^3
#
#
#
# Elastic Constant Matrix: (Units=GPa)
#
#
# Indices 1 2 3 4 5 6 
#
# 1 217.0091 92.5412 54.1051 0.0000 0.0000 0.0000
# 2 92.5412 184.3310 43.8354 0.0000 0.0000 0.0000
# 3 54.1051 43.8354 161.2723 0.0000 0.0000 0.0000
# 4 0.0000 0.0000 0.0000 15.1304 0.0000 0.0000
# 5 0.0000 0.0000 0.0000 0.0000 63.8447 0.0000
# 6 0.0000 0.0000 0.0000 0.0000 0.0000 53.9799
#
#
#
# Elastic Compliance Matrix: (Units=1/GPa)
#
#
# Indices 1 2 3 4 5 6 
#
# 1 0.006108 -0.002757 -0.001300 0.000000 0.000000 0.000000
# 2 -0.002757 0.007045 -0.000990 0.000000 0.000000 0.000000
# 3 -0.001300 -0.000990 0.006906 0.000000 0.000000 0.000000
# 4 0.000000 0.000000 0.000000 0.066092 0.000000 0.000000
# 5 0.000000 0.000000 0.000000 0.000000 0.015663 0.000000
# 6 0.000000 0.000000 0.000000 0.000000 0.000000 0.018525
#
#
# Mechanical properties :
#
#
# Convention : Reuss Voigt Hill
#
# Bulk Modulus (GPa) = 100.35298 104.84177 102.59737
# Shear Modulus (GPa) = 37.38197 51.39971 44.39084
#
# Velocity S-wave (km/s) = 3.67887 4.31383 4.00894
# Velocity P-wave (km/s) = 7.37415 7.92275 7.65337
#
# Compressibility (1/GPa) = 0.00996483
#
# Stress axis : x y z
#
# Youngs Moduli (GPa) = 163.72000 141.95072 144.80688
#
# Poissons Ratio (x) = 0.39141 0.18820
# Poissons Ratio (y) = 0.45144 0.14332
# Poissons Ratio (z) = 0.21278 0.14050
#
# Static dielectric constant tensor:
#      x y z
#    x 2.457090 0.000000 0.000000 
#    y 0.000000 2.442400 0.000000 
#    z 0.000000 0.000000 2.119980 
# 
# From -- ./inp_files/17751.got.cif
#   From: 2010.05.17/outbox.cif.g08.bks.cpg/sg22_9_cif.got.tgz:17751.got - 2010.06.03 23:40:54.
