data_PCOD9328597
_publ_section_title
;
Structure prediction by ZEFSAII (Michael W. Deem and Ramdas Pophale) SiO2 
 PCOD9328597
Probable space group: F 2 2 2
;
_chemical_formula_sum "Si O2"
_cell_formula_units_Z 60
_cell_length_a 24.324908
_cell_length_b 12.218515
_cell_length_c 8.935099
_cell_angle_alpha 90.000000
_cell_angle_beta 90.000000
_cell_angle_gamma 90.000000
_cell_volume 2655.638777
_symmetry_space_group_name_H-M "F 2 2 2"
_symmetry_group_IT_number 22
_symmetry_cell_setting 'orthorhombic'
loop_
_space_group_symop_operation_xyz
x,y,z
-x,-y,z
x,-y,-z
-x,y,-z
x,1/2+y,1/2+z
-x,1/2-y,1/2+z
x,1/2-y,1/2-z
-x,1/2+y,1/2-z
1/2+x,y,1/2+z
1/2-x,-y,1/2+z
1/2+x,-y,1/2-z
1/2-x,y,1/2-z
1/2+x,1/2+y,z
1/2-x,1/2-y,z
1/2+x,1/2-y,-z
1/2-x,1/2+y,-z
loop_
_atom_site_type_symbol
_atom_site_label
_atom_site_fract_x
_atom_site_fract_y
_atom_site_fract_z
Si Si1 0.000000 0.333768 0.500000
Si Si2 0.916133 0.250000 0.750000
Si Si3 0.253580 0.000000 0.500000
Si Si4 0.500000 0.500000 0.500000
Si Si5 0.926509 0.619231 0.753254
Si Si6 0.833208 0.950581 0.236756
O O1 0.043211 0.269878 0.391055
O O2 0.035843 0.402777 0.612074
O O3 0.875472 0.147045 0.725546
O O4 0.209416 0.988508 0.634937
O O5 0.299418 0.922515 0.584723
O O6 0.459623 0.572014 0.395277
O O7 0.919416 0.750000 0.750000
O O8 0.870498 0.557469 0.724074
#
# Coordination Sequence:
#
# PCOD9328597 Si02
#       6
#     8   8   8   4  16  16
#     4  12  27  45  74 122 162 207 261 298 410 484
#     4  12  28  47  76 114 162 211 254 330 400 498
#     4  10  25  50  72 104 138 202 265 338 392 450
#     4  12  28  50  78 118 176 204 262 318 398 488
#     4  12  27  46  77 118 158 212 253 322 389 490
#     4  11  26  49  74 107 149 198 268 326 398 462
#
# _framework density 22.593432
#
# number of rings (size 3 to 8) (size 9 to 14) (size 15 to 20)
#    0.000    0.533    1.333    4.800    7.467    5.867 
#    4.800    1.333    0.000    0.000    0.000    0.000 
#    0.000    0.000    0.000    0.000    0.000    0.000 
#
# Total GULP energy -83537.894986 kJ/mol
# GULP energy per Si atom -5569.192999 kJ/mol
# Density = 2.254201 g / cm^3
# Si number density = 22.593432 Si / 1000 Ang^3
#
#
#
# Elastic Constant Matrix: (Units=GPa)
#
#
# Indices 1 2 3 4 5 6 
#
# 1 191.8429 69.0029 81.4520 0.0000 0.0000 0.0000
# 2 69.0029 129.0473 46.1382 0.0000 0.0000 0.0000
# 3 81.4520 46.1382 163.8096 0.0000 0.0000 0.0000
# 4 0.0000 0.0000 0.0000 20.5371 0.0000 0.0000
# 5 0.0000 0.0000 0.0000 0.0000 1057.7470 0.0000
# 6 0.0000 0.0000 0.0000 0.0000 0.0000 -135.0459
#
#
#
# Elastic Compliance Matrix: (Units=1/GPa)
#
#
# Indices 1 2 3 4 5 6 
#
# 1 0.007515 -0.002983 -0.002897 0.000000 0.000000 0.000000
# 2 -0.002983 0.009801 -0.001277 0.000000 0.000000 0.000000
# 3 -0.002897 -0.001277 0.007905 0.000000 0.000000 0.000000
# 4 0.000000 0.000000 0.000000 0.048692 0.000000 0.000000
# 5 0.000000 0.000000 0.000000 0.000000 0.000945 0.000000
# 6 0.000000 0.000000 0.000000 0.000000 0.000000 -0.007405
#
#
# Mechanical properties :
#
#
# Convention : Reuss Voigt Hill
#
# Bulk Modulus (GPa) = 91.68352 97.54290 94.61321
# Shear Modulus (GPa) = 58.54579 207.85474 133.20027
#
# Velocity S-wave (km/s) = 5.09598 9.60196 7.68657
# Velocity P-wave (km/s) = 8.67716 12.89174 10.98841
#
# Compressibility (1/GPa) = 0.01090709
#
# Stress axis : x y z
#
# Youngs Moduli (GPa) = 133.06021 102.03320 126.50581
#
# Poissons Ratio (x) = 0.30435 0.36646
# Poissons Ratio (y) = 0.39690 0.16158
# Poissons Ratio (z) = 0.38544 0.13032
#
# Static dielectric constant tensor:
#      x y z
#    x 1.822380 0.000000 0.000000 
#    y 0.000000 1.885560 0.000000 
#    z 0.000000 0.000000 1.907740 
# 
# From -- ./inp_files/14365.got.cif
#   From: 2010.05.17/outbox.cif.g08.bks.cpg/sg22_8_cif.got.tgz:14365.got - 2010.06.03 23:40:54.
