data_PCOD9328147
_publ_section_title
;
Structure prediction by ZEFSAII (Michael W. Deem and Ramdas Pophale) SiO2 
 PCOD9328147
Probable space group: F 2 2 2
;
_chemical_formula_sum "Si O2"
_cell_formula_units_Z 68
_cell_length_a 8.801992
_cell_length_b 20.500462
_cell_length_c 17.301250
_cell_angle_alpha 90.000000
_cell_angle_beta 90.000000
_cell_angle_gamma 90.000000
_cell_volume 3121.922370
_symmetry_space_group_name_H-M "F 2 2 2"
_symmetry_group_IT_number 22
_symmetry_cell_setting 'orthorhombic'
loop_
_space_group_symop_operation_xyz
x,y,z
-x,-y,z
x,-y,-z
-x,y,-z
x,1/2+y,1/2+z
-x,1/2-y,1/2+z
x,1/2-y,1/2-z
-x,1/2+y,1/2-z
1/2+x,y,1/2+z
1/2-x,-y,1/2+z
1/2+x,-y,1/2-z
1/2-x,y,1/2-z
1/2+x,1/2+y,z
1/2-x,1/2-y,z
1/2+x,1/2-y,-z
1/2-x,1/2+y,-z
loop_
_atom_site_type_symbol
_atom_site_label
_atom_site_fract_x
_atom_site_fract_y
_atom_site_fract_z
Si Si1 0.500000 0.500000 0.839627
Si Si2 0.500000 0.500000 0.500000
Si Si3 0.086655 0.360896 0.710386
Si Si4 0.255630 0.418143 0.414405
Si Si5 0.750000 0.849317 0.250000
Si Si6 0.148856 0.312233 0.540041
O O1 0.554906 0.560837 0.787041
O O2 0.628402 0.472013 0.896206
O O3 0.400807 0.454623 0.445493
O O4 0.250000 0.345247 0.750000
O O5 0.108164 0.346589 0.619896
O O6 0.928056 0.325183 0.736432
O O7 0.275474 0.385385 0.331076
O O8 0.211968 0.364727 0.478785
O O9 0.250000 0.250000 0.556552
O O10 0.000000 0.284369 0.500000
#
# Coordination Sequence:
#
# PCOD9328147 Si02
#       6
#     8   4  16  16   8  16
#     4  10  22  44  76  99 155 180 226 294 376 450
#     4  12  28  36  72 114 156 184 244 298 366 458
#     4  11  26  45  76 112 147 189 237 299 381 448
#     4  11  26  45  69 111 143 196 237 301 372 440
#     4  10  24  44  73 106 150 182 243 296 364 442
#     4  12  27  52  74  98 141 200 253 309 365 435
#
# _framework density 21.781448999999999
#
# number of rings (size 3 to 8) (size 9 to 14) (size 15 to 20)
#    0.000    0.941    4.706    1.412   14.824    2.353 
#    0.000    0.588    0.000    0.000    0.000    0.000 
#    0.000    0.000    0.000    0.000    0.000    0.000 
#
# Total GULP energy -94818.099480 kJ/mol
# GULP energy per Si atom -5577.535264 kJ/mol
# Density = 2.173187 g / cm^3
# Si number density = 21.781449 Si / 1000 Ang^3
#
#
#
# Elastic Constant Matrix: (Units=GPa)
#
#
# Indices 1 2 3 4 5 6 
#
# 1 152.4683 28.4917 52.4196 0.0000 0.0000 0.0000
# 2 28.4917 64.1111 9.7885 0.0000 0.0000 0.0000
# 3 52.4196 9.7885 139.1407 0.0000 0.0000 0.0000
# 4 0.0000 0.0000 0.0000 26.5903 0.0000 0.0000
# 5 0.0000 0.0000 0.0000 0.0000 49.8165 0.0000
# 6 0.0000 0.0000 0.0000 0.0000 0.0000 15.0802
#
#
#
# Elastic Compliance Matrix: (Units=1/GPa)
#
#
# Indices 1 2 3 4 5 6 
#
# 1 0.008129 -0.003179 -0.002839 0.000000 0.000000 0.000000
# 2 -0.003179 0.017011 0.000001 0.000000 0.000000 0.000000
# 3 -0.002839 0.000001 0.008256 0.000000 0.000000 0.000000
# 4 0.000000 0.000000 0.000000 0.037608 0.000000 0.000000
# 5 0.000000 0.000000 0.000000 0.000000 0.020074 0.000000
# 6 0.000000 0.000000 0.000000 0.000000 0.000000 0.066312
#
#
# Mechanical properties :
#
#
# Convention : Reuss Voigt Hill
#
# Bulk Modulus (GPa) = 46.81207 59.67995 53.24601
# Shear Modulus (GPa) = 28.32160 35.96543 32.14351
#
# Velocity S-wave (km/s) = 3.60983 4.06790 3.84569
# Velocity P-wave (km/s) = 6.23802 7.03723 6.64964
#
# Compressibility (1/GPa) = 0.02136201
#
# Stress axis : x y z
#
# Youngs Moduli (GPa) = 123.01917 58.78686 121.11845
#
# Poissons Ratio (x) = 0.18689 0.34383
# Poissons Ratio (y) = 0.39109 -0.00012
# Poissons Ratio (z) = 0.34923 -0.00006
#
# Static dielectric constant tensor:
#      x y z
#    x 1.829900 0.000000 0.000000 
#    y 0.000000 1.772110 0.000000 
#    z 0.000000 0.000000 1.735900 
# 
# From -- ./inp_files/11314.got.cif
#   From: 2010.05.17/outbox.cif.g08.bks.cpg/sg22_6_cif.got.tgz:11314.got - 2010.06.03 23:40:54.
