data_PCOD9328520
_publ_section_title
;
Structure prediction by ZEFSAII (Michael W. Deem and Ramdas Pophale) SiO2 
 PCOD9328520
Probable space group: F 2 2 2
;
_chemical_formula_sum "Si O2"
_cell_formula_units_Z 36
_cell_length_a 25.444122
_cell_length_b 4.751270
_cell_length_c 13.582951
_cell_angle_alpha 90.000000
_cell_angle_beta 90.000000
_cell_angle_gamma 90.000000
_cell_volume 1642.068666
_symmetry_space_group_name_H-M "F 2 2 2"
_symmetry_group_IT_number 22
_symmetry_cell_setting 'orthorhombic'
loop_
_space_group_symop_operation_xyz
x,y,z
-x,-y,z
x,-y,-z
-x,y,-z
x,1/2+y,1/2+z
-x,1/2-y,1/2+z
x,1/2-y,1/2-z
-x,1/2+y,1/2-z
1/2+x,y,1/2+z
1/2-x,-y,1/2+z
1/2+x,-y,1/2-z
1/2-x,y,1/2-z
1/2+x,1/2+y,z
1/2-x,1/2-y,z
1/2+x,1/2-y,-z
1/2-x,1/2+y,-z
loop_
_atom_site_type_symbol
_atom_site_label
_atom_site_fract_x
_atom_site_fract_y
_atom_site_fract_z
Si Si1 0.674311 0.750000 0.250000
Si Si2 0.250000 0.250000 0.750000
Si Si3 0.000000 0.000000 0.820281
Si Si4 0.600607 0.259030 0.930722
O O1 0.708837 0.486133 0.210349
O O2 0.638109 0.835938 0.158191
O O3 0.019566 0.250000 0.750000
O O4 0.952100 0.113660 0.884104
O O5 0.625368 0.500000 0.000000
O O6 0.587156 0.000000 0.000000
#
# Coordination Sequence:
#
# PCOD9328520 Si02
#       4
#     8   4   8  16
#     4  11  24  50  71 100 143 172 244 287 368 402
#     4  10  24  46  78  98 130 188 220 318 352 416
#     4  12  25  44  71 104 148 198 233 282 345 416
#     4  12  26  45  72 104 144 188 234 284 347 423
#
# _framework density 21.923563000000001
#
# number of rings (size 3 to 8) (size 9 to 14) (size 15 to 20)
#    0.000    0.444    2.222    6.000    3.111    1.778 
#    0.000   22.222    0.000    0.000    0.000    0.000 
#    0.000    0.000    0.000    0.000    0.000    0.000 
#
# Total GULP energy -50257.121714 kJ/mol
# GULP energy per Si atom -5584.124635 kJ/mol
# Density = 2.187366 g / cm^3
# Si number density = 21.923563 Si / 1000 Ang^3
#
#
#
# Elastic Constant Matrix: (Units=GPa)
#
#
# Indices 1 2 3 4 5 6 
#
# 1 105.3727 31.9020 50.4568 0.0004 -0.0004 -0.0010
# 2 31.9020 148.3472 52.7179 0.0013 0.0000 -0.0020
# 3 50.4568 52.7179 133.1103 0.0006 -0.0001 -0.0004
# 4 0.0004 0.0013 0.0006 57.4740 -0.0002 -0.0006
# 5 -0.0004 0.0000 -0.0001 -0.0002 1.2816 0.0005
# 6 -0.0010 -0.0020 -0.0004 -0.0006 0.0005 27.7300
#
#
#
# Elastic Compliance Matrix: (Units=1/GPa)
#
#
# Indices 1 2 3 4 5 6 
#
# 1 0.011746 -0.001098 -0.004018 0.000000 0.000003 0.000000
# 2 -0.001098 0.007948 -0.002731 0.000000 0.000000 0.000000
# 3 -0.004018 -0.002731 0.010117 0.000000 0.000000 0.000000
# 4 0.000000 0.000000 0.000000 0.017399 0.000002 0.000000
# 5 0.000003 0.000000 0.000000 0.000002 0.780248 -0.000014
# 6 0.000000 0.000000 0.000000 0.000000 -0.000014 0.036062
#
#
# Mechanical properties :
#
#
# Convention : Reuss Voigt Hill
#
# Bulk Modulus (GPa) = 70.83739 72.99818 71.91778
# Shear Modulus (GPa) = 5.65662 34.08067 19.86865
#
# Velocity S-wave (km/s) = 1.60803 3.94702 3.01370
# Velocity P-wave (km/s) = 5.98572 7.35805 6.70708
#
# Compressibility (1/GPa) = 0.01411684
#
# Stress axis : x y z
#
# Youngs Moduli (GPa) = 85.13206 125.82135 98.84128
#
# Poissons Ratio (x) = 0.13819 0.39711
# Poissons Ratio (y) = 0.09350 0.26997
# Poissons Ratio (z) = 0.34203 0.34366
#
# Static dielectric constant tensor:
#      x y z
#    x 1.798580 0.000000 0.000000 
#    y 0.000000 1.825300 0.000000 
#    z 0.000000 0.000000 1.786410 
# 
# From -- ./inp_files/926.got.cif
#   From: 2010.05.17/outbox.cif.g08.bks.cpg/sg22_1_cif.got.tgz:926.got - 2010.06.03 23:40:54.
