data_PCOD9328256
_publ_section_title
;
Structure prediction by ZEFSAII (Michael W. Deem and Ramdas Pophale) SiO2 
 PCOD9328256
Probable space group: F 2 2 2
;
_chemical_formula_sum "Si O2"
_cell_formula_units_Z 88
_cell_length_a 11.543370
_cell_length_b 17.945702
_cell_length_c 21.055624
_cell_angle_alpha 90.000000
_cell_angle_beta 90.000000
_cell_angle_gamma 90.000000
_cell_volume 4361.754167
_symmetry_space_group_name_H-M "F 2 2 2"
_symmetry_group_IT_number 22
_symmetry_cell_setting 'orthorhombic'
loop_
_space_group_symop_operation_xyz
x,y,z
-x,-y,z
x,-y,-z
-x,y,-z
x,1/2+y,1/2+z
-x,1/2-y,1/2+z
x,1/2-y,1/2-z
-x,1/2+y,1/2-z
1/2+x,y,1/2+z
1/2-x,-y,1/2+z
1/2+x,-y,1/2-z
1/2-x,y,1/2-z
1/2+x,1/2+y,z
1/2-x,1/2-y,z
1/2+x,1/2-y,-z
1/2-x,1/2+y,-z
loop_
_atom_site_type_symbol
_atom_site_label
_atom_site_fract_x
_atom_site_fract_y
_atom_site_fract_z
Si Si1 0.500000 0.897768 0.500000
Si Si2 0.733791 0.914482 0.180529
Si Si3 0.638029 0.702253 0.098924
Si Si4 0.512868 0.691833 0.311627
Si Si5 0.879346 0.464849 0.381030
Si Si6 0.238235 0.167179 0.674923
O O1 0.417953 0.848231 0.545018
O O2 0.416912 0.943119 0.452074
O O3 0.750000 0.949485 0.250000
O O4 0.818735 0.847948 0.158276
O O5 0.613641 0.870129 0.189690
O O6 0.773278 0.977609 0.130224
O O7 0.750000 0.750000 0.077468
O O8 0.543931 0.756395 0.128815
O O9 0.504434 0.750000 0.250000
O O10 0.396496 0.647953 0.329554
O O11 0.834028 0.389011 0.350004
O O12 0.000000 0.500000 0.353305
O O13 0.250000 0.172498 0.750000
O O14 0.250000 0.250000 0.646748
#
# Coordination Sequence:
#
# PCOD9328256 Si02
#       6
#     8  16  16  16  16  16
#     4  12  25  46  72  92 146 197 252 302 341 454
#     4  11  23  39  68 101 144 186 236 298 366 445
#     4  10  23  40  69 107 133 188 245 297 367 440
#     4  11  21  41  69 104 152 184 231 302 383 437
#     4  12  27  44  68 102 139 194 248 294 358 434
#     4  11  24  41  67 103 144 186 234 300 364 432
#
# _framework density 20.175369
#
# number of rings (size 3 to 8) (size 9 to 14) (size 15 to 20)
#    0.000    0.909    5.455    1.909    2.545    2.909 
#    0.000    0.000    0.000    0.000    4.727    0.000 
#    0.000    0.000    0.000    0.000    0.000    0.000 
#
# Total GULP energy -122502.610077 kJ/mol
# GULP energy per Si atom -5568.300458 kJ/mol
# Density = 2.012945 g / cm^3
# Si number density = 20.175369 Si / 1000 Ang^3
#
#
#
# Elastic Constant Matrix: (Units=GPa)
#
#
# Indices 1 2 3 4 5 6 
#
# 1 118.9638 52.7160 55.4644 0.0000 0.0000 0.0000
# 2 52.7160 105.6220 42.1440 0.0000 0.0000 0.0000
# 3 55.4644 42.1440 100.0888 0.0000 0.0000 0.0000
# 4 0.0000 0.0000 0.0000 23.7353 0.0000 0.0000
# 5 0.0000 0.0000 0.0000 0.0000 23.5797 0.0000
# 6 0.0000 0.0000 0.0000 0.0000 0.0000 7.2335
#
#
#
# Elastic Compliance Matrix: (Units=1/GPa)
#
#
# Indices 1 2 3 4 5 6 
#
# 1 0.012752 -0.004261 -0.005273 0.000000 0.000000 0.000000
# 2 -0.004261 0.012803 -0.003030 0.000000 0.000000 0.000000
# 3 -0.005273 -0.003030 0.014189 0.000000 0.000000 0.000000
# 4 0.000000 0.000000 0.000000 0.042131 0.000000 0.000000
# 5 0.000000 0.000000 0.000000 0.000000 0.042409 0.000000
# 6 0.000000 0.000000 0.000000 0.000000 0.000000 0.138245
#
#
# Mechanical properties :
#
#
# Convention : Reuss Voigt Hill
#
# Bulk Modulus (GPa) = 68.41057 69.48040 68.94548
# Shear Modulus (GPa) = 17.09231 22.53304 19.81267
#
# Velocity S-wave (km/s) = 2.91381 3.34557 3.13712
# Velocity P-wave (km/s) = 6.73067 7.03113 6.88254
#
# Compressibility (1/GPa) = 0.01461762
#
# Stress axis : x y z
#
# Youngs Moduli (GPa) = 78.41752 78.10516 70.47852
#
# Poissons Ratio (x) = 0.33279 0.37160
# Poissons Ratio (y) = 0.33413 0.21354
# Poissons Ratio (z) = 0.41346 0.23665
#
# Static dielectric constant tensor:
#      x y z
#    x 1.778510 0.000000 0.000000 
#    y 0.000000 1.820350 0.000000 
#    z 0.000000 0.000000 1.723270 
# 
# From -- ./inp_files/21387.got.cif
#   From: 2010.05.17/outbox.cif.g08.bks.cpg/sg22_11_cif.got.tgz:21387.got - 2010.06.03 23:40:54.
