data_PCOD9328432
_publ_section_title
;
Structure prediction by ZEFSAII (Michael W. Deem and Ramdas Pophale) SiO2 
 PCOD9328432
Probable space group: F 2 2 2
;
_chemical_formula_sum "Si O2"
_cell_formula_units_Z 92
_cell_length_a 14.155966
_cell_length_b 20.041010
_cell_length_c 15.858766
_cell_angle_alpha 90.000000
_cell_angle_beta 90.000000
_cell_angle_gamma 90.000000
_cell_volume 4499.129633
_symmetry_space_group_name_H-M "F 2 2 2"
_symmetry_group_IT_number 22
_symmetry_cell_setting 'orthorhombic'
loop_
_space_group_symop_operation_xyz
x,y,z
-x,-y,z
x,-y,-z
-x,y,-z
x,1/2+y,1/2+z
-x,1/2-y,1/2+z
x,1/2-y,1/2-z
-x,1/2+y,1/2-z
1/2+x,y,1/2+z
1/2-x,-y,1/2+z
1/2+x,-y,1/2-z
1/2-x,y,1/2-z
1/2+x,1/2+y,z
1/2-x,1/2-y,z
1/2+x,1/2-y,-z
1/2-x,1/2+y,-z
loop_
_atom_site_type_symbol
_atom_site_label
_atom_site_fract_x
_atom_site_fract_y
_atom_site_fract_z
Si Si1 0.483229 0.250000 0.250000
Si Si2 0.750000 0.896113 0.250000
Si Si3 0.302809 0.500000 0.500000
Si Si4 0.110633 0.006280 0.683558
Si Si5 0.355967 0.606906 0.037433
Si Si6 0.500000 0.000000 0.500000
Si Si7 0.163881 0.797382 0.887815
Si Si8 0.148434 0.852910 0.228010
O O1 0.414866 0.240510 0.331281
O O2 0.555398 0.187832 0.245092
O O3 0.834990 0.944520 0.275194
O O4 0.786435 0.849407 0.175472
O O5 0.363028 0.497125 0.584940
O O6 0.235331 0.434744 0.505781
O O7 0.143890 0.075050 0.726466
O O8 0.000000 0.000000 0.696168
O O9 0.433883 0.549389 0.051320
O O10 0.347608 0.640521 0.127350
O O11 0.378988 0.660577 0.965116
O O12 0.250000 0.750000 0.917469
O O13 0.250000 0.822668 0.250000
#
# Coordination Sequence:
#
# PCOD9328432 Si02
#       8
#     8   8   8  16  16   4  16  16
#     4  12  26  46  72  98 142 190 244 290 354 448
#     4  12  21  46  72 103 138 184 234 302 358 425
#     4  11  21  45  69 102 144 180 232 306 358 424
#     4  12  25  41  74 107 142 185 237 295 367 429
#     4  11  24  44  70 104 142 183 238 298 362 435
#     4  10  24  40  70 104 138 174 234 302 354 416
#     4  12  25  46  74 101 138 186 242 297 359 428
#     4  12  26  47  69 104 144 192 232 290 371 430
#
# _framework density 20.448399999999999
#
# number of rings (size 3 to 8) (size 9 to 14) (size 15 to 20)
#    0.000    0.348    6.087    2.609    3.652    1.391 
#    0.000    0.000    3.826    0.000    0.000    0.000 
#    0.000    0.000    0.000    0.000    0.000    0.000 
#
# Total GULP energy -128588.225749 kJ/mol
# GULP energy per Si atom -5590.792424 kJ/mol
# Density = 2.040186 g / cm^3
# Si number density = 20.448400 Si / 1000 Ang^3
#
#
#
# Elastic Constant Matrix: (Units=GPa)
#
#
# Indices 1 2 3 4 5 6 
#
# 1 139.5652 38.2113 36.6470 0.0000 0.0000 0.0000
# 2 38.2113 96.3694 52.8712 0.0000 0.0000 0.0000
# 3 36.6470 52.8712 121.0717 0.0000 0.0000 0.0000
# 4 0.0000 0.0000 0.0000 16.6687 0.0000 0.0000
# 5 0.0000 0.0000 0.0000 0.0000 15.3279 0.0000
# 6 0.0000 0.0000 0.0000 0.0000 0.0000 40.7616
#
#
#
# Elastic Compliance Matrix: (Units=1/GPa)
#
#
# Indices 1 2 3 4 5 6 
#
# 1 0.008214 -0.002489 -0.001399 0.000000 0.000000 0.000000
# 2 -0.002489 0.014401 -0.005535 0.000000 0.000000 0.000000
# 3 -0.001399 -0.005535 0.011100 0.000000 0.000000 0.000000
# 4 0.000000 0.000000 0.000000 0.059993 0.000000 0.000000
# 5 0.000000 0.000000 0.000000 0.000000 0.065241 0.000000
# 6 0.000000 0.000000 0.000000 0.000000 0.000000 0.024533
#
#
# Mechanical properties :
#
#
# Convention : Reuss Voigt Hill
#
# Bulk Modulus (GPa) = 67.26075 68.05170 67.65622
# Shear Modulus (GPa) = 24.12148 29.83676 26.97912
#
# Velocity S-wave (km/s) = 3.43830 3.82399 3.63626
# Velocity P-wave (km/s) = 6.98046 7.26974 7.12657
#
# Compressibility (1/GPa) = 0.01486751
#
# Stress axis : x y z
#
# Youngs Moduli (GPa) = 121.74249 69.44197 90.08792
#
# Poissons Ratio (x) = 0.17286 0.12606
# Poissons Ratio (y) = 0.30305 0.49865
# Poissons Ratio (z) = 0.17035 0.38437
#
# Static dielectric constant tensor:
#      x y z
#    x 1.750800 0.000000 0.000000 
#    y 0.000000 1.779440 0.000000 
#    z 0.000000 0.000000 1.681130 
# 
# From -- ./inp_files/29444.got.cif
#   From: 2010.05.17/outbox.cif.g08.bks.cpg/sg22_15_cif.got.tgz:29444.got - 2010.06.03 23:40:54.
