data_PCOD9328752
_publ_section_title
;
Structure prediction by ZEFSAII (Michael W. Deem and Ramdas Pophale) SiO2 
 PCOD9328752
Probable space group: F 2 2 2
;
_chemical_formula_sum "Si O2"
_cell_formula_units_Z 96
_cell_length_a 20.786655
_cell_length_b 11.680879
_cell_length_c 20.134058
_cell_angle_alpha 90.000000
_cell_angle_beta 90.000000
_cell_angle_gamma 90.000000
_cell_volume 4888.678178
_symmetry_space_group_name_H-M "F 2 2 2"
_symmetry_group_IT_number 22
_symmetry_cell_setting 'orthorhombic'
loop_
_space_group_symop_operation_xyz
x,y,z
-x,-y,z
x,-y,-z
-x,y,-z
x,1/2+y,1/2+z
-x,1/2-y,1/2+z
x,1/2-y,1/2-z
-x,1/2+y,1/2-z
1/2+x,y,1/2+z
1/2-x,-y,1/2+z
1/2+x,-y,1/2-z
1/2-x,y,1/2-z
1/2+x,1/2+y,z
1/2-x,1/2-y,z
1/2+x,1/2-y,-z
1/2-x,1/2+y,-z
loop_
_atom_site_type_symbol
_atom_site_label
_atom_site_fract_x
_atom_site_fract_y
_atom_site_fract_z
Si Si1 0.451656 0.374620 0.781850
Si Si2 0.575261 0.136861 0.509338
Si Si3 0.777924 0.402392 0.174923
Si Si4 0.655034 0.178264 0.383425
Si Si5 0.410834 0.816120 0.660722
Si Si6 0.619663 0.072594 0.785217
O O1 0.445968 0.250000 0.750000
O O2 0.399444 0.381512 0.839657
O O3 0.521323 0.372639 0.816384
O O4 0.430256 0.468912 0.728174
O O5 0.500000 0.172193 0.500000
O O6 0.623103 0.191730 0.455193
O O7 0.597401 0.164321 0.583655
O O8 0.577465 0.000000 0.500000
O O9 0.750000 0.383554 0.250000
O O10 0.718888 0.398546 0.123586
O O11 0.823253 0.296928 0.151714
O O12 0.819877 0.516509 0.178760
O O13 0.362249 0.876043 0.712510
O O14 0.410706 0.680934 0.677258
#
# Coordination Sequence:
#
# PCOD9328752 Si02
#       6
#    16  16  16  16  16  16
#     4  12  19  35  67 101 134 167 221 290 349 406
#     4  11  24  42  66  94 138 182 224 278 339 426
#     4  11  22  40  70 100 130 173 234 289 331 396
#     4  11  21  39  66 100 127 175 236 276 336 400
#     4  11  25  40  62 105 137 181 225 277 372 406
#     4  11  23  39  67  99 138 170 223 300 348 400
#
# _framework density 19.637211000000001
#
# number of rings (size 3 to 8) (size 9 to 14) (size 15 to 20)
#    0.000    0.833    6.667    2.500    2.333    0.000 
#    0.000    5.833    0.000    1.000    0.000    0.000 
#    0.000    0.000    0.000    0.000    0.000    0.000 
#
# Total GULP energy -133960.718744 kJ/mol
# GULP energy per Si atom -5581.696614 kJ/mol
# Density = 1.959252 g / cm^3
# Si number density = 19.637211 Si / 1000 Ang^3
#
#
#
# Elastic Constant Matrix: (Units=GPa)
#
#
# Indices 1 2 3 4 5 6 
#
# 1 104.3546 31.3648 40.2929 0.0000 0.0000 0.0000
# 2 31.3648 106.8308 35.5909 0.0000 0.0000 0.0000
# 3 40.2929 35.5909 123.6415 0.0000 0.0000 0.0000
# 4 0.0000 0.0000 0.0000 20.4175 0.0000 0.0000
# 5 0.0000 0.0000 0.0000 0.0000 37.8660 0.0000
# 6 0.0000 0.0000 0.0000 0.0000 0.0000 23.1325
#
#
#
# Elastic Compliance Matrix: (Units=1/GPa)
#
#
# Indices 1 2 3 4 5 6 
#
# 1 0.011471 -0.002347 -0.003062 0.000000 0.000000 0.000000
# 2 -0.002347 0.010834 -0.002354 0.000000 0.000000 0.000000
# 3 -0.003062 -0.002354 0.009763 0.000000 0.000000 0.000000
# 4 0.000000 0.000000 0.000000 0.048978 0.000000 0.000000
# 5 0.000000 0.000000 0.000000 0.000000 0.026409 0.000000
# 6 0.000000 0.000000 0.000000 0.000000 0.000000 0.043229
#
#
# Mechanical properties :
#
#
# Convention : Reuss Voigt Hill
#
# Bulk Modulus (GPa) = 60.45562 61.03602 60.74582
# Shear Modulus (GPa) = 29.11641 31.45507 30.28574
#
# Velocity S-wave (km/s) = 3.85478 4.00660 3.93143
# Velocity P-wave (km/s) = 7.11797 7.24935 7.18396
#
# Compressibility (1/GPa) = 0.01654106
#
# Stress axis : x y z
#
# Youngs Moduli (GPa) = 87.17854 92.30280 102.42345
#
# Poissons Ratio (x) = 0.21668 0.31366
# Poissons Ratio (y) = 0.20465 0.24106
# Poissons Ratio (z) = 0.26698 0.21724
#
# Static dielectric constant tensor:
#      x y z
#    x 1.761930 0.000000 0.000000 
#    y 0.000000 1.733670 0.000000 
#    z 0.000000 0.000000 1.691510 
# 
# From -- ./inp_files/44773.got.cif
#   From: 2010.05.17/outbox.cif.g08.bks.cpg/sg22_23_cif.got.tgz:44773.got - 2010.06.03 23:40:54.
