data_PCOD9328652
_publ_section_title
;
Structure prediction by ZEFSAII (Michael W. Deem and Ramdas Pophale) SiO2 
 PCOD9328652
Probable space group: F 2 2 2
;
_chemical_formula_sum "Si O2"
_cell_formula_units_Z 56
_cell_length_a 7.800903
_cell_length_b 15.968520
_cell_length_c 16.420393
_cell_angle_alpha 90.000000
_cell_angle_beta 90.000000
_cell_angle_gamma 90.000000
_cell_volume 2045.469892
_symmetry_space_group_name_H-M "F 2 2 2"
_symmetry_group_IT_number 22
_symmetry_cell_setting 'orthorhombic'
loop_
_space_group_symop_operation_xyz
x,y,z
-x,-y,z
x,-y,-z
-x,y,-z
x,1/2+y,1/2+z
-x,1/2-y,1/2+z
x,1/2-y,1/2-z
-x,1/2+y,1/2-z
1/2+x,y,1/2+z
1/2-x,-y,1/2+z
1/2+x,-y,1/2-z
1/2-x,y,1/2-z
1/2+x,1/2+y,z
1/2-x,1/2-y,z
1/2+x,1/2-y,-z
1/2-x,1/2+y,-z
loop_
_atom_site_type_symbol
_atom_site_label
_atom_site_fract_x
_atom_site_fract_y
_atom_site_fract_z
Si Si1 0.250000 0.480858 0.250000
Si Si2 0.500000 0.000000 0.000000
Si Si3 0.500000 0.769142 0.500000
Si Si4 0.920537 0.876876 0.864531
Si Si5 0.750000 0.250000 0.250000
Si Si6 0.329463 0.126876 0.114531
O O1 0.169252 0.541734 0.321612
O O2 0.379705 0.415851 0.297459
O O3 0.381202 0.055864 0.053605
O O4 0.370295 0.834149 0.452541
O O5 0.375000 0.875000 0.625000
O O6 0.868798 0.805864 0.803605
O O7 0.580748 0.791734 0.071612
#
# Coordination Sequence:
#
# PCOD9328652 Si02
#       6
#     8   4   8  16   4  16
#     4  11  28  53  87 122 171 222 300 343 450 509
#     4  10  28  48  82 116 174 222 300 330 452 518
#     4  11  28  53  87 122 171 222 300 343 450 509
#     4  11  27  51  82 122 168 227 285 365 422 521
#     4  10  28  48  82 116 174 222 300 330 452 518
#     4  11  27  51  82 122 168 227 285 365 422 521
#
# _framework density 27.377572000000001
#
# number of rings (size 3 to 8) (size 9 to 14) (size 15 to 20)
#    0.000    1.143    0.000    1.714   16.000    4.571 
#    0.000    0.000    0.000    0.000    0.000    0.000 
#    0.000    0.000    0.000    0.000    0.000    0.000 
#
# Total GULP energy -78044.693283 kJ/mol
# GULP energy per Si atom -5574.620949 kJ/mol
# Density = 2.731526 g / cm^3
# Si number density = 27.377572 Si / 1000 Ang^3
#
#
#
# Elastic Constant Matrix: (Units=GPa)
#
#
# Indices 1 2 3 4 5 6 
#
# 1 161.6895 74.1943 70.0560 0.0000 0.0000 0.0000
# 2 74.1943 204.3907 126.3728 0.0000 0.0000 0.0000
# 3 70.0560 126.3728 230.6301 0.0000 0.0000 0.0000
# 4 0.0000 0.0000 0.0000 77.9166 0.0000 0.0000
# 5 0.0000 0.0000 0.0000 0.0000 62.4442 0.0000
# 6 0.0000 0.0000 0.0000 0.0000 0.0000 44.6836
#
#
#
# Elastic Compliance Matrix: (Units=1/GPa)
#
#
# Indices 1 2 3 4 5 6 
#
# 1 0.007638 -0.002024 -0.001211 0.000000 0.000000 0.000000
# 2 -0.002024 0.007936 -0.003734 0.000000 0.000000 0.000000
# 3 -0.001211 -0.003734 0.006750 0.000000 0.000000 0.000000
# 4 0.000000 0.000000 0.000000 0.012834 0.000000 0.000000
# 5 0.000000 0.000000 0.000000 0.000000 0.016014 0.000000
# 6 0.000000 0.000000 0.000000 0.000000 0.000000 0.022380
#
#
# Mechanical properties :
#
#
# Convention : Reuss Voigt Hill
#
# Bulk Modulus (GPa) = 119.24201 126.43961 122.84081
# Shear Modulus (GPa) = 55.38070 58.74803 57.06437
#
# Velocity S-wave (km/s) = 4.50249 4.63735 4.57042
# Velocity P-wave (km/s) = 8.40708 8.65779 8.53336
#
# Compressibility (1/GPa) = 0.00838631
#
# Stress axis : x y z
#
# Youngs Moduli (GPa) = 130.92204 126.01362 148.15545
#
# Poissons Ratio (x) = 0.25502 0.17945
# Poissons Ratio (y) = 0.26495 0.55315
# Poissons Ratio (z) = 0.15858 0.47048
#
# Static dielectric constant tensor:
#      x y z
#    x 2.489220 0.000000 0.000000 
#    y 0.000000 2.221910 0.000000 
#    z 0.000000 0.000000 2.318190 
# 
# From -- ./inp_files/26757.got.cif
#   From: 2010.05.17/outbox.cif.g08.bks.cpg/sg22_14_cif.got.tgz:26757.got - 2010.06.03 23:40:54.
