data_PCOD9328042
_publ_section_title
;
Structure prediction by ZEFSAII (Michael W. Deem and Ramdas Pophale) SiO2 
 PCOD9328042
Probable space group: F 2 2 2
;
_chemical_formula_sum "Si O2"
_cell_formula_units_Z 88
_cell_length_a 31.264787
_cell_length_b 8.316100
_cell_length_c 16.641841
_cell_angle_alpha 90.000000
_cell_angle_beta 90.000000
_cell_angle_gamma 90.000000
_cell_volume 4326.896886
_symmetry_space_group_name_H-M "F 2 2 2"
_symmetry_group_IT_number 22
_symmetry_cell_setting 'orthorhombic'
loop_
_space_group_symop_operation_xyz
x,y,z
-x,-y,z
x,-y,-z
-x,y,-z
x,1/2+y,1/2+z
-x,1/2-y,1/2+z
x,1/2-y,1/2-z
-x,1/2+y,1/2-z
1/2+x,y,1/2+z
1/2-x,-y,1/2+z
1/2+x,-y,1/2-z
1/2-x,y,1/2-z
1/2+x,1/2+y,z
1/2-x,1/2-y,z
1/2+x,1/2-y,-z
1/2-x,1/2+y,-z
loop_
_atom_site_type_symbol
_atom_site_label
_atom_site_fract_x
_atom_site_fract_y
_atom_site_fract_z
Si Si1 0.127150 0.803058 0.415664
Si Si2 0.119920 0.329254 0.090691
Si Si3 0.577566 0.750000 0.750000
Si Si4 0.714337 0.116475 0.423375
Si Si5 0.294899 0.818758 0.661007
Si Si6 0.539962 0.912144 0.202110
O O1 0.103279 0.787069 0.501391
O O2 0.103249 0.757491 0.334097
O O3 0.169003 0.700347 0.428021
O O4 0.139020 0.990730 0.409766
O O5 0.160010 0.220305 0.117691
O O6 0.079461 0.346640 0.149396
O O7 0.555736 0.570470 0.751928
O O8 0.750000 0.250000 0.421008
O O9 0.720274 0.000000 0.500000
O O10 0.712872 0.007624 0.344029
O O11 0.298895 0.750000 0.750000
O O12 0.250000 0.750000 0.625946
O O13 0.526250 0.750000 0.250000
O O14 0.500000 0.000000 0.157014
#
# Coordination Sequence:
#
# PCOD9328042 Si02
#       6
#    16  16   8  16  16  16
#     4  10  23  40  65  94 134 176 235 284 356 422
#     4  10  22  42  66  98 133 180 225 292 348 426
#     4  10  24  44  67 104 130 180 235 296 358 442
#     4  12  25  40  67  95 136 187 239 295 358 425
#     4  11  24  42  63  94 136 182 233 287 349 416
#     4  11  23  43  74 100 140 181 233 295 372 432
#
# _framework density 20.337903000000001
#
# number of rings (size 3 to 8) (size 9 to 14) (size 15 to 20)
#    0.000    1.273    2.727    2.182   10.182    0.000 
#    0.000    7.273    0.000    1.091    0.000    0.000 
#    0.000    0.000    0.000    0.000    0.000    0.000 
#
# Total GULP energy -122526.732177 kJ/mol
# GULP energy per Si atom -5569.396917 kJ/mol
# Density = 2.029161 g / cm^3
# Si number density = 20.337903 Si / 1000 Ang^3
#
#
#
# Elastic Constant Matrix: (Units=GPa)
#
#
# Indices 1 2 3 4 5 6 
#
# 1 90.7958 52.4500 32.8743 0.0000 0.0000 0.0000
# 2 52.4500 113.7318 49.2190 0.0000 0.0000 0.0000
# 3 32.8743 49.2190 102.5016 0.0000 0.0000 0.0000
# 4 0.0000 0.0000 0.0000 51.9660 0.0000 0.0000
# 5 0.0000 0.0000 0.0000 0.0000 12.4909 0.0000
# 6 0.0000 0.0000 0.0000 0.0000 0.0000 44.9280
#
#
#
# Elastic Compliance Matrix: (Units=1/GPa)
#
#
# Indices 1 2 3 4 5 6 
#
# 1 0.015306 -0.006229 -0.001918 0.000000 0.000000 0.000000
# 2 -0.006229 0.013634 -0.004549 0.000000 0.000000 0.000000
# 3 -0.001918 -0.004549 0.012555 0.000000 0.000000 0.000000
# 4 0.000000 0.000000 0.000000 0.019243 0.000000 0.000000
# 5 0.000000 0.000000 0.000000 0.000000 0.080058 0.000000
# 6 0.000000 0.000000 0.000000 0.000000 0.000000 0.022258
#
#
# Mechanical properties :
#
#
# Convention : Reuss Voigt Hill
#
# Bulk Modulus (GPa) = 62.09685 64.01285 63.05485
# Shear Modulus (GPa) = 25.79785 33.37606 29.58696
#
# Velocity S-wave (km/s) = 3.56541 4.05542 3.81828
# Velocity P-wave (km/s) = 6.89553 7.31242 7.10704
#
# Compressibility (1/GPa) = 0.01610388
#
# Stress axis : x y z
#
# Youngs Moduli (GPa) = 65.33211 73.34720 79.64677
#
# Poissons Ratio (x) = 0.45686 0.15277
# Poissons Ratio (y) = 0.40694 0.36231
# Poissons Ratio (z) = 0.12532 0.33365
#
# Static dielectric constant tensor:
#      x y z
#    x 1.761530 0.000000 0.000000 
#    y 0.000000 1.722410 0.000000 
#    z 0.000000 0.000000 1.774510 
# 
# From -- ./inp_files/40325.got.cif
#   From: 2010.05.17/outbox.cif.g08.bks.cpg/sg22_21_cif.got.tgz:40325.got - 2010.06.03 23:40:54.
