data_PCOD9328640
_publ_section_title
;
Structure prediction by ZEFSAII (Michael W. Deem and Ramdas Pophale) SiO2 
 PCOD9328640
Probable space group: F 2 2 2
;
_chemical_formula_sum "Si O2"
_cell_formula_units_Z 40
_cell_length_a 21.976906
_cell_length_b 5.076610
_cell_length_c 13.785096
_cell_angle_alpha 90.000000
_cell_angle_beta 90.000000
_cell_angle_gamma 90.000000
_cell_volume 1537.978082
_symmetry_space_group_name_H-M "F 2 2 2"
_symmetry_group_IT_number 22
_symmetry_cell_setting 'orthorhombic'
loop_
_space_group_symop_operation_xyz
x,y,z
-x,-y,z
x,-y,-z
-x,y,-z
x,1/2+y,1/2+z
-x,1/2-y,1/2+z
x,1/2-y,1/2-z
-x,1/2+y,1/2-z
1/2+x,y,1/2+z
1/2-x,-y,1/2+z
1/2+x,-y,1/2-z
1/2-x,y,1/2-z
1/2+x,1/2+y,z
1/2-x,1/2-y,z
1/2+x,1/2-y,-z
1/2-x,1/2+y,-z
loop_
_atom_site_type_symbol
_atom_site_label
_atom_site_fract_x
_atom_site_fract_y
_atom_site_fract_z
Si Si1 0.500000 0.500000 0.500000
Si Si2 0.563002 0.626165 0.155074
Si Si3 0.250000 0.750000 0.250000
Si Si4 0.750000 0.250000 0.891348
Si Si5 0.854563 0.000000 0.000000
O O1 0.541474 0.327344 0.571853
O O2 0.500000 0.500000 0.191019
O O3 0.593542 0.750000 0.250000
O O4 0.604742 0.427224 0.094320
O O5 0.237651 0.516181 0.169475
O O6 0.809678 0.213040 0.956165
#
# Coordination Sequence:
#
# PCOD9328640 Si02
#       5
#     4  16   4   8   8
#     4  12  22  46  80 112 162 204 274 344 414 504
#     4  12  26  49  78 121 161 213 276 346 428 499
#     4  10  26  54  78 118 174 218 290 346 410 504
#     4  11  27  52  81 127 170 226 290 344 422 510
#     4  12  27  53  82 118 170 226 276 352 422 508
#
# _framework density 26.008171000000001
#
# number of rings (size 3 to 8) (size 9 to 14) (size 15 to 20)
#    0.000    0.400    6.000    1.200    5.600    4.800 
#    3.600    0.000    0.000    0.000    0.000    0.000 
#    0.000    0.000    0.000    0.000    0.000    0.000 
#
# Total GULP energy -55765.523370 kJ/mol
# GULP energy per Si atom -5576.552337 kJ/mol
# Density = 2.594897 g / cm^3
# Si number density = 26.008171 Si / 1000 Ang^3
#
#
#
# Elastic Constant Matrix: (Units=GPa)
#
#
# Indices 1 2 3 4 5 6 
#
# 1 95.6941 23.0371 50.2225 0.0003 -0.0012 -0.0006
# 2 23.0371 155.0755 83.5671 0.0012 -0.0039 -0.0008
# 3 50.2225 83.5671 230.2150 0.0002 -0.0009 -0.0002
# 4 0.0003 0.0012 0.0002 80.9147 -0.0018 -0.0004
# 5 -0.0012 -0.0039 -0.0009 -0.0018 43.8716 0.0013
# 6 -0.0006 -0.0008 -0.0002 -0.0004 0.0013 18.8264
#
#
#
# Elastic Compliance Matrix: (Units=1/GPa)
#
#
# Indices 1 2 3 4 5 6 
#
# 1 0.011827 -0.000456 -0.002415 0.000000 0.000000 0.000000
# 2 -0.000456 0.008034 -0.002817 0.000000 0.000001 0.000000
# 3 -0.002415 -0.002817 0.005893 0.000000 0.000000 0.000000
# 4 0.000000 0.000000 0.000000 0.012359 0.000001 0.000000
# 5 0.000000 0.000001 0.000000 0.000001 0.022794 -0.000002
# 6 0.000000 0.000000 0.000000 0.000000 -0.000002 0.053117
#
#
# Mechanical properties :
#
#
# Convention : Reuss Voigt Hill
#
# Bulk Modulus (GPa) = 69.54346 88.29311 78.91828
# Shear Modulus (GPa) = 38.40498 50.33306 44.36902
#
# Velocity S-wave (km/s) = 3.84689 4.40395 4.13481
# Velocity P-wave (km/s) = 6.82118 7.73832 7.29418
#
# Compressibility (1/GPa) = 0.01437950
#
# Stress axis : x y z
#
# Youngs Moduli (GPa) = 84.55266 124.46835 169.69039
#
# Poissons Ratio (x) = 0.05672 0.40975
# Poissons Ratio (y) = 0.03853 0.47801
# Poissons Ratio (z) = 0.20417 0.35062
#
# Static dielectric constant tensor:
#      x y z
#    x 2.220900 0.000000 0.000000 
#    y 0.000000 1.817230 0.000000 
#    z 0.000000 0.000000 2.007310 
# 
# From -- ./inp_files/4208.got.cif
#   From: 2010.05.17/outbox.cif.g08.bks.cpg/sg22_3_cif.got.tgz:4208.got - 2010.06.03 23:40:54.
