data_PCOD9328074
_publ_section_title
;
Structure prediction by ZEFSAII (Michael W. Deem and Ramdas Pophale) SiO2 
 PCOD9328074
Probable space group: F 2 2 2
;
_chemical_formula_sum "Si O2"
_cell_formula_units_Z 80
_cell_length_a 22.799445
_cell_length_b 16.194153
_cell_length_c 10.122496
_cell_angle_alpha 90.000000
_cell_angle_beta 90.000000
_cell_angle_gamma 90.000000
_cell_volume 3737.404698
_symmetry_space_group_name_H-M "F 2 2 2"
_symmetry_group_IT_number 22
_symmetry_cell_setting 'orthorhombic'
loop_
_space_group_symop_operation_xyz
x,y,z
-x,-y,z
x,-y,-z
-x,y,-z
x,1/2+y,1/2+z
-x,1/2-y,1/2+z
x,1/2-y,1/2-z
-x,1/2+y,1/2-z
1/2+x,y,1/2+z
1/2-x,-y,1/2+z
1/2+x,-y,1/2-z
1/2-x,y,1/2-z
1/2+x,1/2+y,z
1/2-x,1/2-y,z
1/2+x,1/2-y,-z
1/2-x,1/2+y,-z
loop_
_atom_site_type_symbol
_atom_site_label
_atom_site_fract_x
_atom_site_fract_y
_atom_site_fract_z
Si Si1 0.567505 0.202108 0.516738
Si Si2 0.605260 0.624821 0.462628
Si Si3 0.560853 0.453878 0.790604
Si Si4 0.750000 0.090503 0.250000
Si Si5 0.380247 0.119169 0.736274
Si Si6 0.290612 0.500000 0.500000
O O1 0.500000 0.229012 0.500000
O O2 0.604920 0.278585 0.571110
O O3 0.569011 0.122940 0.612043
O O4 0.590489 0.175434 0.373266
O O5 0.563066 0.579437 0.359437
O O6 0.590622 0.623184 0.618744
O O7 0.666029 0.574054 0.454142
O O8 0.500000 0.500000 0.819276
O O9 0.610532 0.523764 0.805750
O O10 0.688615 0.138765 0.251805
O O11 0.753484 0.034133 0.379666
#
# Coordination Sequence:
#
# PCOD9328074 Si02
#       6
#    16  16  16   8  16   8
#     4  12  27  42  65 104 145 176 219 281 351 411
#     4  11  24  44  66  98 135 174 230 275 334 408
#     4  12  24  43  66  99 139 181 220 275 341 419
#     4  10  22  42  77  93 130 180 242 280 336 409
#     4  11  24  45  71  98 134 182 233 279 342 412
#     4  10  22  44  67 102 125 178 232 284 336 406
#
# _framework density 21.405228000000001
#
# number of rings (size 3 to 8) (size 9 to 14) (size 15 to 20)
#    0.000    0.800    6.000    1.800    5.600    2.400 
#    0.000    8.000    0.000    1.200    0.000    0.000 
#    0.000    0.000    0.000    0.000    0.000    0.000 
#
# Total GULP energy -111821.711356 kJ/mol
# GULP energy per Si atom -5591.085568 kJ/mol
# Density = 2.135651 g / cm^3
# Si number density = 21.405228 Si / 1000 Ang^3
#
#
#
# Elastic Constant Matrix: (Units=GPa)
#
#
# Indices 1 2 3 4 5 6 
#
# 1 80.2728 15.6188 30.0098 0.0000 0.0000 0.0000
# 2 15.6188 114.2846 15.3808 0.0000 0.0000 0.0000
# 3 30.0098 15.3808 94.9934 0.0000 0.0000 0.0000
# 4 0.0000 0.0000 0.0000 30.6676 0.0000 0.0000
# 5 0.0000 0.0000 0.0000 0.0000 26.4072 0.0000
# 6 0.0000 0.0000 0.0000 0.0000 0.0000 25.9956
#
#
#
# Elastic Compliance Matrix: (Units=1/GPa)
#
#
# Indices 1 2 3 4 5 6 
#
# 1 0.014336 -0.001380 -0.004305 0.000000 0.000000 0.000000
# 2 -0.001380 0.009078 -0.001034 0.000000 0.000000 0.000000
# 3 -0.004305 -0.001034 0.012055 0.000000 0.000000 0.000000
# 4 0.000000 0.000000 0.000000 0.032608 0.000000 0.000000
# 5 0.000000 0.000000 0.000000 0.000000 0.037868 0.000000
# 6 0.000000 0.000000 0.000000 0.000000 0.000000 0.038468
#
#
# Mechanical properties :
#
#
# Convention : Reuss Voigt Hill
#
# Bulk Modulus (GPa) = 45.39318 45.72998 45.56158
# Shear Modulus (GPa) = 30.26752 31.85018 31.05885
#
# Velocity S-wave (km/s) = 3.76443 3.86160 3.81332
# Velocity P-wave (km/s) = 6.33618 6.42595 6.38123
#
# Compressibility (1/GPa) = 0.02202974
#
# Stress axis : x y z
#
# Youngs Moduli (GPa) = 69.75667 110.15883 82.95586
#
# Poissons Ratio (x) = 0.15199 0.35716
# Poissons Ratio (y) = 0.09625 0.08577
# Poissons Ratio (z) = 0.30033 0.11390
#
# Static dielectric constant tensor:
#      x y z
#    x 1.760210 0.000000 0.000000 
#    y 0.000000 1.794170 0.000000 
#    z 0.000000 0.000000 1.772940 
# 
# From -- ./inp_files/23603.got.cif
#   From: 2010.05.17/outbox.cif.g08.bks.cpg/sg22_12_cif.got.tgz:23603.got - 2010.06.03 23:40:54.
