data_PCOD9328918
_publ_section_title
;
Structure prediction by ZEFSAII (Michael W. Deem and Ramdas Pophale) SiO2 
 PCOD9328918
Probable space group: F 2 2 2
;
_chemical_formula_sum "Si O2"
_cell_formula_units_Z 84
_cell_length_a 11.256332
_cell_length_b 11.256620
_cell_length_c 31.805360
_cell_angle_alpha 90.000000
_cell_angle_beta 90.000000
_cell_angle_gamma 90.000000
_cell_volume 4030.001567
_symmetry_space_group_name_H-M "F 2 2 2"
_symmetry_group_IT_number 22
_symmetry_cell_setting 'orthorhombic'
loop_
_space_group_symop_operation_xyz
x,y,z
-x,-y,z
x,-y,-z
-x,y,-z
x,1/2+y,1/2+z
-x,1/2-y,1/2+z
x,1/2-y,1/2-z
-x,1/2+y,1/2-z
1/2+x,y,1/2+z
1/2-x,-y,1/2+z
1/2+x,-y,1/2-z
1/2-x,y,1/2-z
1/2+x,1/2+y,z
1/2-x,1/2-y,z
1/2+x,1/2-y,-z
1/2-x,1/2+y,-z
loop_
_atom_site_type_symbol
_atom_site_label
_atom_site_fract_x
_atom_site_fract_y
_atom_site_fract_z
Si Si1 0.750000 0.250000 0.750000
Si Si2 0.592248 0.407744 0.811646
Si Si3 0.502386 0.200664 0.546623
Si Si4 0.200667 0.997610 0.953377
Si Si5 0.505294 0.692175 0.636206
Si Si6 0.692176 0.994718 0.863794
O O1 0.667041 0.167043 0.721567
O O2 0.500000 0.500000 0.791930
O O3 0.520916 0.315186 0.840848
O O4 0.626362 0.626352 0.648798
O O5 0.315192 0.520934 0.840851
O O6 0.500000 0.255647 0.500000
O O7 0.394038 0.105958 0.548280
O O8 0.493102 0.285478 0.586226
O O9 0.622302 0.122301 0.550596
O O10 0.285485 0.006890 0.913775
O O11 0.255652 0.000000 0.000000
O O12 0.102647 0.897348 0.646030
#
# Coordination Sequence:
#
# PCOD9328918 Si02
#       6
#     4  16  16  16  16  16
#     4  12  28  52  76 112 140 172 228 284 360 428
#     4  12  26  48  78 104 138 180 220 286 350 418
#     4   9  18  33  55  87 130 180 232 285 339 396
#     4   9  18  33  55  87 130 180 232 285 339 396
#     4  11  23  40  65  98 138 183 230 278 342 413
#     4  11  23  40  65  98 138 183 230 278 342 413
#
# _framework density 20.843664
#
# number of rings (size 3 to 8) (size 9 to 14) (size 15 to 20)
#    0.000    1.524    3.810    2.286    0.000    6.095 
#    0.000    5.714    0.000    0.000    0.000    0.000 
#    0.000    0.000    0.000    0.000    0.000    0.000 
#
# Total GULP energy -117427.759177 kJ/mol
# GULP energy per Si atom -5591.798056 kJ/mol
# Density = 2.079622 g / cm^3
# Si number density = 20.843664 Si / 1000 Ang^3
#
#
#
# Elastic Constant Matrix: (Units=GPa)
#
#
# Indices 1 2 3 4 5 6 
#
# 1 81.0324 68.1454 37.1296 0.0000 0.0000 0.0000
# 2 68.1454 81.0830 37.1468 0.0000 0.0000 0.0000
# 3 37.1296 37.1468 81.3473 0.0000 0.0000 0.0000
# 4 0.0000 0.0000 0.0000 17.9112 0.0000 0.0000
# 5 0.0000 0.0000 0.0000 0.0000 17.9137 0.0000
# 6 0.0000 0.0000 0.0000 0.0000 0.0000 33.0965
#
#
#
# Elastic Compliance Matrix: (Units=1/GPa)
#
#
# Indices 1 2 3 4 5 6 
#
# 1 0.043071 -0.034386 -0.003957 0.000000 0.000000 0.000000
# 2 -0.034386 0.043048 -0.003963 0.000000 0.000000 0.000000
# 3 -0.003957 -0.003963 0.015909 0.000000 0.000000 0.000000
# 4 0.000000 0.000000 0.000000 0.055831 0.000000 0.000000
# 5 0.000000 0.000000 0.000000 0.000000 0.055823 0.000000
# 6 0.000000 0.000000 0.000000 0.000000 0.000000 0.030215
#
#
# Mechanical properties :
#
#
# Convention : Reuss Voigt Hill
#
# Bulk Modulus (GPa) = 57.41702 58.70073 58.05887
# Shear Modulus (GPa) = 14.95603 20.52031 17.73817
#
# Velocity S-wave (km/s) = 2.68159 3.14106 2.92037
# Velocity P-wave (km/s) = 6.09870 6.43261 6.26788
#
# Compressibility (1/GPa) = 0.01741644
#
# Stress axis : x y z
#
# Youngs Moduli (GPa) = 23.21735 23.23000 62.85906
#
# Poissons Ratio (x) = 0.79879 0.24873
# Poissons Ratio (y) = 0.79835 0.24909
# Poissons Ratio (z) = 0.09187 0.09205
#
# Static dielectric constant tensor:
#      x y z
#    x 1.741370 0.000000 0.000000 
#    y 0.000000 1.741380 0.000000 
#    z 0.000000 0.000000 1.721390 
# 
# From -- ./inp_files/23879.got.cif
#   From: 2010.05.17/outbox.cif.g08.bks.cpg/sg22_12_cif.got.tgz:23879.got - 2010.06.03 23:40:54.
