data_PCOD9328685
_publ_section_title
;
Structure prediction by ZEFSAII (Michael W. Deem and Ramdas Pophale) SiO2 
 PCOD9328685
Probable space group: F 2 2 2
;
_chemical_formula_sum "Si O2"
_cell_formula_units_Z 112
_cell_length_a 27.951235
_cell_length_b 15.910802
_cell_length_c 11.300996
_cell_angle_alpha 90.000000
_cell_angle_beta 90.000000
_cell_angle_gamma 90.000000
_cell_volume 5025.853141
_symmetry_space_group_name_H-M "F 2 2 2"
_symmetry_group_IT_number 22
_symmetry_cell_setting 'orthorhombic'
loop_
_space_group_symop_operation_xyz
x,y,z
-x,-y,z
x,-y,-z
-x,y,-z
x,1/2+y,1/2+z
-x,1/2-y,1/2+z
x,1/2-y,1/2-z
-x,1/2+y,1/2-z
1/2+x,y,1/2+z
1/2-x,-y,1/2+z
1/2+x,-y,1/2-z
1/2-x,y,1/2-z
1/2+x,1/2+y,z
1/2-x,1/2-y,z
1/2+x,1/2-y,-z
1/2-x,1/2+y,-z
loop_
_atom_site_type_symbol
_atom_site_label
_atom_site_fract_x
_atom_site_fract_y
_atom_site_fract_z
Si Si1 0.062308 0.843307 0.194789
Si Si2 0.863206 0.444777 0.180272
Si Si3 0.870073 0.377051 0.919064
Si Si4 0.697010 0.780740 0.416775
Si Si5 0.049171 0.150666 0.253143
Si Si6 0.199634 0.172333 0.812782
Si Si7 0.885640 0.404752 0.544643
O O1 0.070500 0.750000 0.250000
O O2 0.085577 0.917834 0.271272
O O3 0.005769 0.857744 0.213062
O O4 0.088194 0.852612 0.064734
O O5 0.852812 0.539823 0.148236
O O6 0.828585 0.410873 0.282255
O O7 0.859878 0.393884 0.056991
O O8 0.839231 0.295324 0.887869
O O9 0.926075 0.372287 0.879815
O O10 0.750000 0.750000 0.373983
O O11 0.705642 0.799041 0.555104
O O12 0.662979 0.863337 0.400653
O O13 0.059181 0.250000 0.250000
O O14 0.078189 0.101195 0.153456
O O15 0.173363 0.250000 0.750000
O O16 0.250000 0.162688 0.750000
O O17 0.879106 0.500000 0.500000
#
# Coordination Sequence:
#
# PCOD9328685 Si02
#       7
#    16  16  16  16  16  16  16
#     4  11  24  43  75 103 133 178 243 297 349 404
#     4  11  22  39  65 100 138 173 226 294 344 407
#     4  11  24  42  63  95 144 186 217 276 356 422
#     4  12  23  44  71  99 139 187 232 284 356 423
#     4  11  25  44  67  99 141 190 226 276 353 434
#     4  11  19  37  68 100 128 172 237 301 345 389
#     4  12  26  47  73 103 142 181 240 299 348 411
#
# _framework density 22.284773000000001
#
# number of rings (size 3 to 8) (size 9 to 14) (size 15 to 20)
#    0.000    0.714    5.714    2.571    0.000    3.429 
#    5.143    2.857    0.000    0.000    0.000    0.000 
#    0.000    0.000    0.000    0.000    0.000    0.000 
#
# Total GULP energy -155984.180402 kJ/mol
# GULP energy per Si atom -5570.863586 kJ/mol
# Density = 2.223405 g / cm^3
# Si number density = 22.284773 Si / 1000 Ang^3
#
#
#
# Elastic Constant Matrix: (Units=GPa)
#
#
# Indices 1 2 3 4 5 6 
#
# 1 155.9214 42.3109 32.3467 0.0000 0.0000 0.0000
# 2 42.3109 132.9069 34.0664 0.0000 0.0000 0.0000
# 3 32.3467 34.0664 101.8527 0.0000 0.0000 0.0000
# 4 0.0000 0.0000 0.0000 37.5847 0.0000 0.0000
# 5 0.0000 0.0000 0.0000 0.0000 30.7876 0.0000
# 6 0.0000 0.0000 0.0000 0.0000 0.0000 44.0205
#
#
#
# Elastic Compliance Matrix: (Units=1/GPa)
#
#
# Indices 1 2 3 4 5 6 
#
# 1 0.007273 -0.001885 -0.001679 0.000000 0.000000 0.000000
# 2 -0.001885 0.008718 -0.002317 0.000000 0.000000 0.000000
# 3 -0.001679 -0.002317 0.011127 0.000000 0.000000 0.000000
# 4 0.000000 0.000000 0.000000 0.026607 0.000000 0.000000
# 5 0.000000 0.000000 0.000000 0.000000 0.032481 0.000000
# 6 0.000000 0.000000 0.000000 0.000000 0.000000 0.022717
#
#
# Mechanical properties :
#
#
# Convention : Reuss Voigt Hill
#
# Bulk Modulus (GPa) = 65.12714 67.56989 66.34852
# Shear Modulus (GPa) = 39.74448 41.27568 40.51008
#
# Velocity S-wave (km/s) = 4.22771 4.30838 4.26824
# Velocity P-wave (km/s) = 7.28833 7.42539 7.35718
#
# Compressibility (1/GPa) = 0.01535458
#
# Stress axis : x y z
#
# Youngs Moduli (GPa) = 137.48703 114.70358 89.87536
#
# Poissons Ratio (x) = 0.21622 0.15094
# Poissons Ratio (y) = 0.25917 0.20827
# Poissons Ratio (z) = 0.23090 0.26580
#
# Static dielectric constant tensor:
#      x y z
#    x 1.864500 0.000000 0.000000 
#    y 0.000000 1.808310 0.000000 
#    z 0.000000 0.000000 1.857400 
# 
# From -- ./inp_files/25391.got.cif
#   From: 2010.05.17/outbox.cif.g08.bks.cpg/sg22_13_cif.got.tgz:25391.got - 2010.06.03 23:40:54.
