data_PCOD9328690
_publ_section_title
;
Structure prediction by ZEFSAII (Michael W. Deem and Ramdas Pophale) SiO2 
 PCOD9328690
Probable space group: F 2 2 2
;
_chemical_formula_sum "Si O2"
_cell_formula_units_Z 88
_cell_length_a 22.736266
_cell_length_b 30.783950
_cell_length_c 5.854405
_cell_angle_alpha 90.000000
_cell_angle_beta 90.000000
_cell_angle_gamma 90.000000
_cell_volume 4097.568756
_symmetry_space_group_name_H-M "F 2 2 2"
_symmetry_group_IT_number 22
_symmetry_cell_setting 'orthorhombic'
loop_
_space_group_symop_operation_xyz
x,y,z
-x,-y,z
x,-y,-z
-x,y,-z
x,1/2+y,1/2+z
-x,1/2-y,1/2+z
x,1/2-y,1/2-z
-x,1/2+y,1/2-z
1/2+x,y,1/2+z
1/2-x,-y,1/2+z
1/2+x,-y,1/2-z
1/2-x,y,1/2-z
1/2+x,1/2+y,z
1/2-x,1/2-y,z
1/2+x,1/2-y,-z
1/2-x,1/2+y,-z
loop_
_atom_site_type_symbol
_atom_site_label
_atom_site_fract_x
_atom_site_fract_y
_atom_site_fract_z
Si Si1 0.569137 0.425323 0.987989
Si Si2 0.940946 0.634625 0.865798
Si Si3 0.845151 0.000000 0.000000
Si Si4 0.128928 0.655964 0.740592
Si Si5 0.438180 0.783049 0.426760
Si Si6 0.750000 0.054865 0.250000
Si Si7 0.250000 0.393149 0.250000
O O1 0.583047 0.408169 0.242721
O O2 0.610857 0.463446 0.906104
O O3 0.500000 0.435421 0.000000
O O4 0.586349 0.383386 0.841669
O O5 0.959635 0.672748 0.694703
O O6 0.887817 0.657493 0.996703
O O7 0.000000 0.623657 0.000000
O O8 0.804550 0.023266 0.188580
O O9 0.106980 0.699368 0.616001
O O10 0.193712 0.637596 0.707767
O O11 0.500000 0.761141 0.500000
O O12 0.409541 0.750000 0.250000
O O13 0.757291 0.080549 0.500988
#
# Coordination Sequence:
#
# PCOD9328690 Si02
#       7
#    16  16   8  16  16   8   8
#     4  11  22  40  62  96 136 182 229 293 360 425
#     4  11  19  39  66  95 139 182 231 284 357 428
#     4  12  25  44  68  96 139 182 242 304 362 428
#     4  11  23  42  68  99 137 184 238 288 348 435
#     4  11  23  38  65 110 143 178 227 291 361 438
#     4  12  27  50  70 102 139 187 255 313 360 422
#     4  12  27  50  76 103 138 201 251 304 357 430
#
# _framework density 21.476150000000001
#
# number of rings (size 3 to 8) (size 9 to 14) (size 15 to 20)
#    0.000    0.727    5.455    3.545    2.545    0.000 
#    3.273    0.000    0.000    3.273    0.000    0.000 
#    0.000    0.000    0.000    0.000    0.000    0.000 
#
# Total GULP energy -122528.736112 kJ/mol
# GULP energy per Si atom -5569.488005 kJ/mol
# Density = 2.142727 g / cm^3
# Si number density = 21.476150 Si / 1000 Ang^3
#
#
#
# Elastic Constant Matrix: (Units=GPa)
#
#
# Indices 1 2 3 4 5 6 
#
# 1 143.3643 43.1862 43.7313 0.0045 -0.0178 -0.0208
# 2 43.1862 84.7881 36.9044 -0.0048 -0.0064 -0.0027
# 3 43.7313 36.9044 91.0631 -0.0037 -0.0304 -0.0510
# 4 0.0045 -0.0048 -0.0037 19.9745 -0.0003 -0.0273
# 5 -0.0178 -0.0064 -0.0304 -0.0003 21.4866 0.0313
# 6 -0.0208 -0.0027 -0.0510 -0.0273 0.0313 29.4686
#
#
#
# Elastic Compliance Matrix: (Units=1/GPa)
#
#
# Indices 1 2 3 4 5 6 
#
# 1 0.008843 -0.003225 -0.002940 -0.000003 0.000002 0.000001
# 2 -0.003225 0.015496 -0.004731 0.000004 -0.000005 -0.000009
# 3 -0.002940 -0.004731 0.014311 0.000002 0.000016 0.000022
# 4 -0.000003 0.000004 0.000002 0.050064 0.000001 0.000046
# 5 0.000002 -0.000005 0.000016 0.000001 0.046541 -0.000049
# 6 0.000001 -0.000009 0.000022 0.000046 -0.000049 0.033935
#
#
# Mechanical properties :
#
#
# Convention : Reuss Voigt Hill
#
# Bulk Modulus (GPa) = 59.31903 62.98437 61.15170
# Shear Modulus (GPa) = 25.43224 27.21217 26.32221
#
# Velocity S-wave (km/s) = 3.44497 3.56348 3.50472
# Velocity P-wave (km/s) = 6.59580 6.80606 6.70175
#
# Compressibility (1/GPa) = 0.01685800
#
# Stress axis : x y z
#
# Youngs Moduli (GPa) = 113.07816 64.53318 69.87751
#
# Poissons Ratio (x) = 0.20810 0.20544
# Poissons Ratio (y) = 0.36464 0.33061
# Poissons Ratio (z) = 0.33246 0.30533
#
# Static dielectric constant tensor:
#      x y z
#    x 1.792740 -0.000010 -0.000060 
#    y -0.000010 1.775850 -0.000110 
#    z -0.000060 -0.000110 2.003630 
# 
# From -- ./inp_files/4910.got.cif
#   From: 2010.05.17/outbox.cif.g08.bks.cpg/sg22_3_cif.got.tgz:4910.got - 2010.06.03 23:40:54.
