data_PCOD9328417
_publ_section_title
;
Structure prediction by ZEFSAII (Michael W. Deem and Ramdas Pophale) SiO2 
 PCOD9328417
Probable space group: F 2 2 2
;
_chemical_formula_sum "Si O2"
_cell_formula_units_Z 104
_cell_length_a 26.893632
_cell_length_b 15.422376
_cell_length_c 11.965982
_cell_angle_alpha 90.000000
_cell_angle_beta 90.000000
_cell_angle_gamma 90.000000
_cell_volume 4963.055025
_symmetry_space_group_name_H-M "F 2 2 2"
_symmetry_group_IT_number 22
_symmetry_cell_setting 'orthorhombic'
loop_
_space_group_symop_operation_xyz
x,y,z
-x,-y,z
x,-y,-z
-x,y,-z
x,1/2+y,1/2+z
-x,1/2-y,1/2+z
x,1/2-y,1/2-z
-x,1/2+y,1/2-z
1/2+x,y,1/2+z
1/2-x,-y,1/2+z
1/2+x,-y,1/2-z
1/2-x,y,1/2-z
1/2+x,1/2+y,z
1/2-x,1/2-y,z
1/2+x,1/2-y,-z
1/2-x,1/2+y,-z
loop_
_atom_site_type_symbol
_atom_site_label
_atom_site_fract_x
_atom_site_fract_y
_atom_site_fract_z
Si Si1 0.923804 0.928596 0.302436
Si Si2 0.229434 0.894951 0.008592
Si Si3 0.750000 0.557047 0.750000
Si Si4 0.048779 0.292484 0.574616
Si Si5 0.179474 0.435707 0.102929
Si Si6 0.877408 0.594226 0.440647
Si Si7 0.964561 0.121373 0.315980
O O1 0.873728 0.899349 0.363448
O O2 0.907744 0.916275 0.173744
O O3 0.975798 0.883851 0.333324
O O4 0.937090 0.029638 0.324273
O O5 0.232014 0.885421 0.143414
O O6 0.279483 0.868447 0.943988
O O7 0.179575 0.873264 0.942360
O O8 0.231150 0.000000 0.000000
O O9 0.794170 0.493967 0.798221
O O10 0.093896 0.336967 0.514127
O O11 0.057053 0.191977 0.600646
O O12 0.041353 0.342064 0.691333
O O13 0.000000 0.303345 0.500000
O O14 0.168779 0.500000 0.000000
O O15 0.877667 0.500000 0.500000
#
# Coordination Sequence:
#
# PCOD9328417 Si02
#       7
#    16  16   8  16  16  16  16
#     4  11  20  36  59  90 120 160 215 261 311 384
#     4   8  16  28  48  85 119 149 195 259 320 366
#     4   8  14  28  44  74 121 151 184 252 320 368
#     4  11  22  40  56  83 127 163 204 260 329 369
#     4   9  17  29  50  82 124 152 195 257 321 361
#     4  11  19  31  61  91 117 157 214 264 310 373
#     4  10  24  37  56  87 126 161 208 262 319 387
#
# _framework density 20.954834000000002
#
# number of rings (size 3 to 8) (size 9 to 14) (size 15 to 20)
#    0.000    2.462    3.077    2.769    0.000    1.538 
#    0.000    1.538    0.000    0.000    0.000   30.154 
#    0.000    0.000    0.000    0.000    0.000    0.000 
#
# Total GULP energy -144978.099202 kJ/mol
# GULP energy per Si atom -5576.080739 kJ/mol
# Density = 2.090714 g / cm^3
# Si number density = 20.954834 Si / 1000 Ang^3
#
#
#
# Elastic Constant Matrix: (Units=GPa)
#
#
# Indices 1 2 3 4 5 6 
#
# 1 137.3043 36.5506 46.3275 0.0000 0.0000 0.0000
# 2 36.5506 44.0550 23.1847 0.0000 0.0000 0.0000
# 3 46.3275 23.1847 66.3809 0.0000 0.0000 0.0000
# 4 0.0000 0.0000 0.0000 11.4078 0.0000 0.0000
# 5 0.0000 0.0000 0.0000 0.0000 24.7350 0.0000
# 6 0.0000 0.0000 0.0000 0.0000 0.0000 -30.7680
#
#
#
# Elastic Compliance Matrix: (Units=1/GPa)
#
#
# Indices 1 2 3 4 5 6 
#
# 1 0.010703 -0.006063 -0.005352 0.000000 0.000000 0.000000
# 2 -0.006063 0.031246 -0.006682 0.000000 0.000000 0.000000
# 3 -0.005352 -0.006682 0.021133 0.000000 0.000000 0.000000
# 4 0.000000 0.000000 0.000000 0.087660 0.000000 0.000000
# 5 0.000000 0.000000 0.000000 0.000000 0.040429 0.000000
# 6 0.000000 0.000000 0.000000 0.000000 0.000000 -0.032501
#
#
# Mechanical properties :
#
#
# Convention : Reuss Voigt Hill
#
# Bulk Modulus (GPa) = 37.19064 51.09621 44.14342
# Shear Modulus (GPa) = 24.53086 10.52010 17.52548
#
# Velocity S-wave (km/s) = 3.42519 2.24305 2.89510
# Velocity P-wave (km/s) = 5.78179 5.58079 5.68218
#
# Compressibility (1/GPa) = 0.02688849
#
# Stress axis : x y z
#
# Youngs Moduli (GPa) = 93.43256 32.00455 47.31857
#
# Poissons Ratio (x) = 0.19405 0.25325
# Poissons Ratio (y) = 0.56650 0.31616
# Poissons Ratio (z) = 0.50004 0.21384
#
# Static dielectric constant tensor:
#      x y z
#    x 1.795790 0.000000 0.000000 
#    y 0.000000 1.757350 0.000000 
#    z 0.000000 0.000000 1.852490 
# 
# From -- ./inp_files/24668.got.cif
#   From: 2010.05.17/outbox.cif.g08.bks.cpg/sg22_13_cif.got.tgz:24668.got - 2010.06.03 23:40:54.
