data_PCOD9328054
_publ_section_title
;
Structure prediction by ZEFSAII (Michael W. Deem and Ramdas Pophale) SiO2 
 PCOD9328054
Probable space group: F 2 2 2
;
_chemical_formula_sum "Si O2"
_cell_formula_units_Z 88
_cell_length_a 28.903443
_cell_length_b 13.187111
_cell_length_c 10.794786
_cell_angle_alpha 90.000000
_cell_angle_beta 90.000000
_cell_angle_gamma 90.000000
_cell_volume 4114.464109
_symmetry_space_group_name_H-M "F 2 2 2"
_symmetry_group_IT_number 22
_symmetry_cell_setting 'orthorhombic'
loop_
_space_group_symop_operation_xyz
x,y,z
-x,-y,z
x,-y,-z
-x,y,-z
x,1/2+y,1/2+z
-x,1/2-y,1/2+z
x,1/2-y,1/2-z
-x,1/2+y,1/2-z
1/2+x,y,1/2+z
1/2-x,-y,1/2+z
1/2+x,-y,1/2-z
1/2-x,y,1/2-z
1/2+x,1/2+y,z
1/2-x,1/2-y,z
1/2+x,1/2-y,-z
1/2-x,1/2+y,-z
loop_
_atom_site_type_symbol
_atom_site_label
_atom_site_fract_x
_atom_site_fract_y
_atom_site_fract_z
Si Si1 0.791999 0.821310 0.945528
Si Si2 0.164854 0.059353 0.716297
Si Si3 0.763928 0.000000 0.500000
Si Si4 0.108314 0.862218 0.728456
Si Si5 0.883522 0.796543 0.534538
Si Si6 0.053851 0.884987 0.969165
O O1 0.750000 0.750000 0.906185
O O2 0.812415 0.880873 0.828555
O O3 0.769082 0.905685 0.033188
O O4 0.833321 0.752528 0.995991
O O5 0.126754 0.132293 0.651355
O O6 0.203124 0.032199 0.612807
O O7 0.141469 0.955214 0.758364
O O8 0.128584 0.750000 0.750000
O O9 0.099082 0.863361 0.581525
O O10 0.065718 0.867771 0.824170
O O11 0.917492 0.700413 0.543596
O O12 0.000000 0.875462 0.000000
O O13 0.068596 0.000000 0.000000
#
# Coordination Sequence:
#
# PCOD9328054 Si02
#       6
#    16  16   8  16  16  16
#     4  12  26  42  64  97 140 192 243 292 348 419
#     4  12  23  44  65 100 137 191 241 292 353 429
#     4  12  26  38  62  96 146 180 246 288 340 418
#     4  10  22  42  68  98 135 178 226 298 357 425
#     4  11  23  42  68  98 137 184 233 293 360 425
#     4  10  23  46  71 103 136 174 233 291 367 446
#
# _framework density 21.38796
#
# number of rings (size 3 to 8) (size 9 to 14) (size 15 to 20)
#    0.000    0.909    3.636    2.182    8.909    0.000 
#    0.000   16.364    0.000    4.364    0.000    0.000 
#    0.000    0.000    0.000    0.000    0.000    0.000 
#
# Total GULP energy -122978.992421 kJ/mol
# GULP energy per Si atom -5589.954201 kJ/mol
# Density = 2.133928 g / cm^3
# Si number density = 21.387960 Si / 1000 Ang^3
#
#
#
# Elastic Constant Matrix: (Units=GPa)
#
#
# Indices 1 2 3 4 5 6 
#
# 1 98.4208 61.2203 42.9375 0.0000 0.0000 0.0000
# 2 61.2203 144.0636 33.5868 0.0000 0.0000 0.0000
# 3 42.9375 33.5868 94.0879 0.0000 0.0000 0.0000
# 4 0.0000 0.0000 0.0000 29.2160 0.0000 0.0000
# 5 0.0000 0.0000 0.0000 0.0000 35.5860 0.0000
# 6 0.0000 0.0000 0.0000 0.0000 0.0000 43.4993
#
#
#
# Elastic Compliance Matrix: (Units=1/GPa)
#
#
# Indices 1 2 3 4 5 6 
#
# 1 0.015903 -0.005526 -0.005285 0.000000 0.000000 0.000000
# 2 -0.005526 0.009492 -0.000866 0.000000 0.000000 0.000000
# 3 -0.005285 -0.000866 0.013349 0.000000 0.000000 0.000000
# 4 0.000000 0.000000 0.000000 0.034228 0.000000 0.000000
# 5 0.000000 0.000000 0.000000 0.000000 0.028101 0.000000
# 6 0.000000 0.000000 0.000000 0.000000 0.000000 0.022989
#
#
# Mechanical properties :
#
#
# Convention : Reuss Voigt Hill
#
# Bulk Modulus (GPa) = 64.97860 68.00685 66.49272
# Shear Modulus (GPa) = 32.77675 34.91545 33.84610
#
# Velocity S-wave (km/s) = 3.91895 4.04478 3.98236
# Velocity P-wave (km/s) = 7.13613 7.32663 7.23201
#
# Compressibility (1/GPa) = 0.01538968
#
# Stress axis : x y z
#
# Youngs Moduli (GPa) = 62.87927 105.35508 74.90933
#
# Poissons Ratio (x) = 0.58220 0.39589
# Poissons Ratio (y) = 0.34748 0.06490
# Poissons Ratio (z) = 0.33232 0.09128
#
# Static dielectric constant tensor:
#      x y z
#    x 1.748650 0.000000 0.000000 
#    y 0.000000 1.807600 0.000000 
#    z 0.000000 0.000000 1.828560 
# 
# From -- ./inp_files/25205.got.cif
#   From: 2010.05.17/outbox.cif.g08.bks.cpg/sg22_13_cif.got.tgz:25205.got - 2010.06.03 23:40:54.
