data_PCOD9328953
_publ_section_title
;
Structure prediction by ZEFSAII (Michael W. Deem and Ramdas Pophale) SiO2 
 PCOD9328953
Probable space group: F 2 2 2
;
_chemical_formula_sum "Si O2"
_cell_formula_units_Z 80
_cell_length_a 11.978308
_cell_length_b 15.095814
_cell_length_c 19.271876
_cell_angle_alpha 90.000000
_cell_angle_beta 90.000000
_cell_angle_gamma 90.000000
_cell_volume 3484.785129
_symmetry_space_group_name_H-M "F 2 2 2"
_symmetry_group_IT_number 22
_symmetry_cell_setting 'orthorhombic'
loop_
_space_group_symop_operation_xyz
x,y,z
-x,-y,z
x,-y,-z
-x,y,-z
x,1/2+y,1/2+z
-x,1/2-y,1/2+z
x,1/2-y,1/2-z
-x,1/2+y,1/2-z
1/2+x,y,1/2+z
1/2-x,-y,1/2+z
1/2+x,-y,1/2-z
1/2-x,y,1/2-z
1/2+x,1/2+y,z
1/2-x,1/2-y,z
1/2+x,1/2-y,-z
1/2-x,1/2+y,-z
loop_
_atom_site_type_symbol
_atom_site_label
_atom_site_fract_x
_atom_site_fract_y
_atom_site_fract_z
Si Si1 0.016757 0.903761 0.290799
Si Si2 0.990694 0.402131 0.369193
Si Si3 0.133509 0.398753 0.995631
Si Si4 0.764125 0.649335 0.849864
Si Si5 0.869390 0.231101 0.621628
O O1 0.972966 0.906325 0.212125
O O2 0.149642 0.891174 0.294790
O O3 0.952666 0.826044 0.330426
O O4 0.000000 0.000000 0.324956
O O5 0.858929 0.385392 0.364736
O O6 0.000000 0.500000 0.401211
O O7 0.062963 0.320557 0.399354
O O8 0.170709 0.359258 0.922682
O O9 0.176668 0.500000 0.000000
O O10 0.164637 0.332320 0.057413
O O11 0.000000 0.402758 0.000000
O O12 0.750000 0.750000 0.830135
O O13 0.750000 0.250000 0.656978
#
# Coordination Sequence:
#
# PCOD9328953 Si02
#       5
#    16  16  16  16  16
#     4  11  24  44  72 103 141 191 243 291 350 431
#     4  11  27  45  69 108 146 186 235 295 365 419
#     4  11  23  43  73 103 134 184 243 295 351 425
#     4  12  23  44  72  99 139 183 239 297 353 419
#     4  12  26  44  71 104 147 188 241 296 362 421
#
# _framework density 22.956938000000001
#
# number of rings (size 3 to 8) (size 9 to 14) (size 15 to 20)
#    0.000    0.600    4.000    3.000    5.600    2.400 
#    0.000    0.000    0.000    0.000    0.000    0.000 
#    0.000    0.000    0.000    0.000    0.000    0.000 
#
# Total GULP energy -111831.933025 kJ/mol
# GULP energy per Si atom -5591.596651 kJ/mol
# Density = 2.290469 g / cm^3
# Si number density = 22.956938 Si / 1000 Ang^3
#
#
#
# Elastic Constant Matrix: (Units=GPa)
#
#
# Indices 1 2 3 4 5 6 
#
# 1 140.4714 58.5878 -11.8208 0.0000 0.0000 0.0000
# 2 58.5878 178.0446 3.7266 0.0000 0.0000 0.0000
# 3 -11.8208 3.7266 61.7804 0.0000 0.0000 0.0000
# 4 0.0000 0.0000 0.0000 14.7176 0.0000 0.0000
# 5 0.0000 0.0000 0.0000 0.0000 27.8370 0.0000
# 6 0.0000 0.0000 0.0000 0.0000 0.0000 26.4164
#
#
#
# Elastic Compliance Matrix: (Units=1/GPa)
#
#
# Indices 1 2 3 4 5 6 
#
# 1 0.008444 -0.002816 0.001785 0.000000 0.000000 0.000000
# 2 -0.002816 0.006563 -0.000935 0.000000 0.000000 0.000000
# 3 0.001785 -0.000935 0.016584 0.000000 0.000000 0.000000
# 4 0.000000 0.000000 0.000000 0.067946 0.000000 0.000000
# 5 0.000000 0.000000 0.000000 0.000000 0.035923 0.000000
# 6 0.000000 0.000000 0.000000 0.000000 0.000000 0.037855
#
#
# Mechanical properties :
#
#
# Convention : Reuss Voigt Hill
#
# Bulk Modulus (GPa) = 36.15261 53.47595 44.81428
# Shear Modulus (GPa) = 26.81459 35.78104 31.29782
#
# Velocity S-wave (km/s) = 3.42137 3.95221 3.69633
# Velocity P-wave (km/s) = 5.60267 6.64615 6.14659
#
# Compressibility (1/GPa) = 0.02766052
#
# Stress axis : x y z
#
# Youngs Moduli (GPa) = 118.43359 152.37599 60.29781
#
# Poissons Ratio (x) = 0.42906 -0.10766
# Poissons Ratio (y) = 0.33349 0.05636
# Poissons Ratio (z) = -0.21145 0.14241
#
# Static dielectric constant tensor:
#      x y z
#    x 1.818420 0.000000 0.000000 
#    y 0.000000 1.891510 0.000000 
#    z 0.000000 0.000000 1.904280 
# 
# From -- ./inp_files/19816.got.cif
#   From: 2010.05.17/outbox.cif.g08.bks.cpg/sg22_10_cif.got.tgz:19816.got - 2010.06.03 23:40:54.
