data_PCOD9328098
_publ_section_title
;
Structure prediction by ZEFSAII (Michael W. Deem and Ramdas Pophale) SiO2 
 PCOD9328098
Probable space group: F 2 2 2
;
_chemical_formula_sum "Si O2"
_cell_formula_units_Z 104
_cell_length_a 37.140776
_cell_length_b 7.286741
_cell_length_c 18.304436
_cell_angle_alpha 90.000000
_cell_angle_beta 90.000000
_cell_angle_gamma 90.000000
_cell_volume 4953.824977
_symmetry_space_group_name_H-M "F 2 2 2"
_symmetry_group_IT_number 22
_symmetry_cell_setting 'orthorhombic'
loop_
_space_group_symop_operation_xyz
x,y,z
-x,-y,z
x,-y,-z
-x,y,-z
x,1/2+y,1/2+z
-x,1/2-y,1/2+z
x,1/2-y,1/2-z
-x,1/2+y,1/2-z
1/2+x,y,1/2+z
1/2-x,-y,1/2+z
1/2+x,-y,1/2-z
1/2-x,y,1/2-z
1/2+x,1/2+y,z
1/2-x,1/2-y,z
1/2+x,1/2-y,-z
1/2-x,1/2+y,-z
loop_
_atom_site_type_symbol
_atom_site_label
_atom_site_fract_x
_atom_site_fract_y
_atom_site_fract_z
Si Si1 0.468802 0.881673 0.074194
Si Si2 0.593122 0.996141 0.827186
Si Si3 0.836467 0.546414 0.086399
Si Si4 0.000000 0.000000 0.106891
Si Si5 0.920423 0.933663 0.163784
Si Si6 0.292939 0.739546 0.336387
Si Si7 0.847148 0.524521 0.413910
O O1 0.435501 0.879574 0.127716
O O2 0.484999 0.679872 0.065311
O O3 0.500000 0.000000 0.112091
O O4 0.460695 0.000000 0.000000
O O5 0.590353 0.974847 0.740741
O O6 0.584811 0.213229 0.836883
O O7 0.630695 0.963257 0.866658
O O8 0.802708 0.449090 0.122679
O O9 0.837452 0.763050 0.100144
O O10 0.839937 0.500000 0.000000
O O11 0.963165 0.953532 0.150047
O O12 0.889155 0.003583 0.108850
O O13 0.301209 0.750000 0.250000
O O14 0.250000 0.750000 0.344217
O O15 0.318327 0.893368 0.374290
O O16 0.844391 0.500000 0.500000
#
# Coordination Sequence:
#
# PCOD9328098 Si02
#       7
#    16  16  16   8  16  16  16
#     4  11  25  44  63  90 131 172 222 293 348 409
#     4  10  22  43  67  97 138 181 230 289 345 416
#     4  11  23  44  73 105 141 188 233 289 353 421
#     4  12  26  43  66  98 127 182 240 284 362 411
#     4  10  24  41  69 100 137 186 235 289 346 421
#     4  11  26  47  74 109 146 184 235 291 353 429
#     4  11  24  47  70 106 147 187 238 291 346 424
#
# _framework density 20.993880000000001
#
# number of rings (size 3 to 8) (size 9 to 14) (size 15 to 20)
#    0.000    1.231    3.077    1.385    3.231    7.385 
#    0.000    1.538    0.000    0.000    0.000    0.000 
#    0.000    0.000    0.000    0.000    0.000    0.000 
#
# Total GULP energy -145097.847349 kJ/mol
# GULP energy per Si atom -5580.686436 kJ/mol
# Density = 2.094610 g / cm^3
# Si number density = 20.993880 Si / 1000 Ang^3
#
#
#
# Elastic Constant Matrix: (Units=GPa)
#
#
# Indices 1 2 3 4 5 6 
#
# 1 136.0052 35.1685 87.6908 -0.0002 0.0001 0.0001
# 2 35.1685 112.7832 35.0087 -0.0004 0.0002 0.0001
# 3 87.6908 35.0087 153.4455 -0.0001 0.0000 0.0000
# 4 -0.0002 -0.0004 -0.0001 116.1863 0.0001 0.0002
# 5 0.0001 0.0002 0.0000 0.0001 38.1555 -0.0002
# 6 0.0001 0.0001 0.0000 0.0002 -0.0002 24.5042
#
#
#
# Elastic Compliance Matrix: (Units=1/GPa)
#
#
# Indices 1 2 3 4 5 6 
#
# 1 0.011948 -0.001729 -0.006433 0.000000 0.000000 0.000000
# 2 -0.001729 0.009792 -0.001246 0.000000 0.000000 0.000000
# 3 -0.006433 -0.001246 0.010478 0.000000 0.000000 0.000000
# 4 0.000000 0.000000 0.000000 0.008607 0.000000 0.000000
# 5 0.000000 0.000000 0.000000 0.000000 0.026209 0.000000
# 6 0.000000 0.000000 0.000000 0.000000 0.000000 0.040809
#
#
# Mechanical properties :
#
#
# Convention : Reuss Voigt Hill
#
# Bulk Modulus (GPa) = 74.61949 79.77443 77.19696
# Shear Modulus (GPa) = 38.13111 52.06028 45.09569
#
# Velocity S-wave (km/s) = 4.26643 4.98514 4.63972
# Velocity P-wave (km/s) = 7.73889 8.43901 8.09652
#
# Compressibility (1/GPa) = 0.01340133
#
# Stress axis : x y z
#
# Youngs Moduli (GPa) = 83.69826 102.11960 95.43897
#
# Poissons Ratio (x) = 0.17652 0.61400
# Poissons Ratio (y) = 0.14468 0.11895
# Poissons Ratio (z) = 0.53847 0.12727
#
# Static dielectric constant tensor:
#      x y z
#    x 1.738910 0.000000 0.000000 
#    y 0.000000 1.790080 0.000000 
#    z 0.000000 0.000000 1.755260 
# 
# From -- ./inp_files/40033.got.cif
#   From: 2010.05.17/outbox.cif.g08.bks.cpg/sg22_21_cif.got.tgz:40033.got - 2010.06.03 23:40:54.
