data_PCOD9328022
_publ_section_title
;
Structure prediction by ZEFSAII (Michael W. Deem and Ramdas Pophale) SiO2 
 PCOD9328022
Probable space group: F 2 2 2
;
_chemical_formula_sum "Si O2"
_cell_formula_units_Z 64
_cell_length_a 11.691023
_cell_length_b 10.864100
_cell_length_c 25.983672
_cell_angle_alpha 90.000000
_cell_angle_beta 90.000000
_cell_angle_gamma 90.000000
_cell_volume 3300.249658
_symmetry_space_group_name_H-M "F 2 2 2"
_symmetry_group_IT_number 22
_symmetry_cell_setting 'orthorhombic'
loop_
_space_group_symop_operation_xyz
x,y,z
-x,-y,z
x,-y,-z
-x,y,-z
x,1/2+y,1/2+z
-x,1/2-y,1/2+z
x,1/2-y,1/2-z
-x,1/2+y,1/2-z
1/2+x,y,1/2+z
1/2-x,-y,1/2+z
1/2+x,-y,1/2-z
1/2-x,y,1/2-z
1/2+x,1/2+y,z
1/2-x,1/2-y,z
1/2+x,1/2-y,-z
1/2-x,1/2+y,-z
loop_
_atom_site_type_symbol
_atom_site_label
_atom_site_fract_x
_atom_site_fract_y
_atom_site_fract_z
Si Si1 0.700560 0.116780 0.341992
Si Si2 0.000000 0.000000 0.781602
Si Si3 0.362204 0.514600 0.940331
Si Si4 0.607561 0.574422 0.317104
Si Si5 0.250000 0.750000 0.885130
O O1 0.750000 0.250000 0.331538
O O2 0.580163 0.084734 0.316120
O O3 0.690121 0.088253 0.402542
O O4 0.787706 0.019481 0.318033
O O5 0.930777 0.087792 0.741971
O O6 0.500000 0.500000 0.936382
O O7 0.311217 0.643007 0.918350
O O8 0.331263 0.500000 0.000000
O O9 0.500000 0.500000 0.341752
O O10 0.652004 0.689984 0.348976
#
# Coordination Sequence:
#
# PCOD9328022 Si02
#       5
#    16   8  16  16   8
#     4  11  23  41  65  94 130 172 215 269 319 384
#     4  10  22  42  57  98 135 168 220 254 316 392
#     4  10  23  43  68  97 123 169 219 269 335 377
#     4   9  23  40  61  92 131 170 215 250 324 379
#     4  10  22  46  65  94 134 164 215 274 312 392
#
# _framework density 19.392472000000001
#
# number of rings (size 3 to 8) (size 9 to 14) (size 15 to 20)
#    0.750    1.250    1.250    0.750    5.250    2.000 
#    9.000    5.000    0.000    6.750    0.000    0.000 
#    0.000    0.000    0.000    0.000    0.000    0.000 
#
# Total GULP energy -89247.698693 kJ/mol
# GULP energy per Si atom -5577.981168 kJ/mol
# Density = 1.934833 g / cm^3
# Si number density = 19.392472 Si / 1000 Ang^3
#
#
#
# Elastic Constant Matrix: (Units=GPa)
#
#
# Indices 1 2 3 4 5 6 
#
# 1 97.2417 44.4945 60.5179 0.0000 0.0000 0.0000
# 2 44.4945 106.6404 62.8607 0.0000 0.0000 0.0000
# 3 60.5179 62.8607 150.3998 0.0000 0.0000 0.0000
# 4 0.0000 0.0000 0.0000 14.2378 0.0000 0.0000
# 5 0.0000 0.0000 0.0000 0.0000 108.8897 0.0000
# 6 0.0000 0.0000 0.0000 0.0000 0.0000 37.9728
#
#
#
# Elastic Compliance Matrix: (Units=1/GPa)
#
#
# Indices 1 2 3 4 5 6 
#
# 1 0.014641 -0.003498 -0.004429 0.000000 0.000000 0.000000
# 2 -0.003498 0.013279 -0.004142 0.000000 0.000000 0.000000
# 3 -0.004429 -0.004142 0.010163 0.000000 0.000000 0.000000
# 4 0.000000 0.000000 0.000000 0.070235 0.000000 0.000000
# 5 0.000000 0.000000 0.000000 0.000000 0.009184 0.000000
# 6 0.000000 0.000000 0.000000 0.000000 0.000000 0.026335
#
#
# Mechanical properties :
#
#
# Convention : Reuss Voigt Hill
#
# Bulk Modulus (GPa) = 71.72111 76.66978 74.19544
# Shear Modulus (GPa) = 28.96507 44.64732 36.80620
#
# Velocity S-wave (km/s) = 3.86894 4.80344 4.36129
# Velocity P-wave (km/s) = 7.55133 8.38962 7.98148
#
# Compressibility (1/GPa) = 0.01394290
#
# Stress axis : x y z
#
# Youngs Moduli (GPa) = 68.30325 75.30954 98.40091
#
# Poissons Ratio (x) = 0.26342 0.43583
# Poissons Ratio (y) = 0.23891 0.40762
# Poissons Ratio (z) = 0.30253 0.31196
#
# Static dielectric constant tensor:
#      x y z
#    x 1.765940 0.000000 0.000000 
#    y 0.000000 1.653900 0.000000 
#    z 0.000000 0.000000 1.676160 
# 
# From -- ./inp_files/52430.got.cif
#   From: 2010.05.17/outbox.cif.g08.bks.cpg/sg22_27_cif.got.tgz:52430.got - 2010.06.03 23:40:54.
