data_PCOD9328565
_publ_section_title
;
Structure prediction by ZEFSAII (Michael W. Deem and Ramdas Pophale) SiO2 
 PCOD9328565
Probable space group: F 2 2 2
;
_chemical_formula_sum "Si O2"
_cell_formula_units_Z 112
_cell_length_a 14.808356
_cell_length_b 24.294135
_cell_length_c 13.187948
_cell_angle_alpha 90.000000
_cell_angle_beta 90.000000
_cell_angle_gamma 90.000000
_cell_volume 4744.446056
_symmetry_space_group_name_H-M "F 2 2 2"
_symmetry_group_IT_number 22
_symmetry_cell_setting 'orthorhombic'
loop_
_space_group_symop_operation_xyz
x,y,z
-x,-y,z
x,-y,-z
-x,y,-z
x,1/2+y,1/2+z
-x,1/2-y,1/2+z
x,1/2-y,1/2-z
-x,1/2+y,1/2-z
1/2+x,y,1/2+z
1/2-x,-y,1/2+z
1/2+x,-y,1/2-z
1/2-x,y,1/2-z
1/2+x,1/2+y,z
1/2-x,1/2-y,z
1/2+x,1/2-y,-z
1/2-x,1/2+y,-z
loop_
_atom_site_type_symbol
_atom_site_label
_atom_site_fract_x
_atom_site_fract_y
_atom_site_fract_z
Si Si1 0.479820 0.064388 0.881593
Si Si2 0.347661 0.721861 0.466038
Si Si3 0.972416 0.387101 0.673134
Si Si4 0.983812 0.262906 0.639786
Si Si5 0.211305 0.430284 0.350469
Si Si6 0.626448 0.964366 0.603949
Si Si7 0.796649 0.404130 0.047741
O O1 0.526345 0.101901 0.795145
O O2 0.500000 0.000000 0.866681
O O3 0.500000 0.079067 0.000000
O O4 0.372283 0.072377 0.878292
O O5 0.250000 0.750000 0.452473
O O6 0.407109 0.745958 0.559218
O O7 0.422139 0.730516 0.377662
O O8 0.323913 0.657863 0.476079
O O9 0.006647 0.327664 0.639859
O O10 0.033758 0.436735 0.632977
O O11 0.874362 0.393091 0.622336
O O12 0.946352 0.250000 0.750000
O O13 0.250000 0.404552 0.250000
O O14 0.167636 0.489146 0.323347
O O15 0.284904 0.434776 0.438943
O O16 0.699249 0.915690 0.595288
O O17 0.621004 0.000000 0.500000
#
# Coordination Sequence:
#
# PCOD9328565 Si02
#       7
#    16  16  16  16  16  16  16
#     4  11  26  41  71 102 143 187 234 287 368 437
#     4  11  25  49  74 100 145 189 244 309 366 428
#     4  12  25  46  74 102 145 196 237 304 370 429
#     4  11  27  47  73 110 139 186 256 307 364 440
#     4  11  25  41  67 105 143 184 238 288 359 448
#     4  10  25  43  70 105 146 187 241 289 363 449
#     4  11  25  43  70 101 140 190 231 299 360 430
#
# _framework density 23.606549999999999
#
# number of rings (size 3 to 8) (size 9 to 14) (size 15 to 20)
#    0.000    1.000    0.000    4.714   16.000    8.000 
#    0.000    2.857    0.000    0.000    0.000    0.000 
#    0.000    0.000    0.000    0.000    0.000    0.000 
#
# Total GULP energy -156585.215686 kJ/mol
# GULP energy per Si atom -5592.329132 kJ/mol
# Density = 2.355282 g / cm^3
# Si number density = 23.606550 Si / 1000 Ang^3
#
#
#
# Elastic Constant Matrix: (Units=GPa)
#
#
# Indices 1 2 3 4 5 6 
#
# 1 98.3288 28.7120 6.2981 0.0000 0.0000 0.0000
# 2 28.7120 124.9428 3.6727 0.0000 0.0000 0.0000
# 3 6.2981 3.6727 51.1778 0.0000 0.0000 0.0000
# 4 0.0000 0.0000 0.0000 25.2597 0.0000 0.0000
# 5 0.0000 0.0000 0.0000 0.0000 34.8920 0.0000
# 6 0.0000 0.0000 0.0000 0.0000 0.0000 30.0171
#
#
#
# Elastic Compliance Matrix: (Units=1/GPa)
#
#
# Indices 1 2 3 4 5 6 
#
# 1 0.010971 -0.002487 -0.001172 0.000000 0.000000 0.000000
# 2 -0.002487 0.008584 -0.000310 0.000000 0.000000 0.000000
# 3 -0.001172 -0.000310 0.019706 0.000000 0.000000 0.000000
# 4 0.000000 0.000000 0.000000 0.039589 0.000000 0.000000
# 5 0.000000 0.000000 0.000000 0.000000 0.028660 0.000000
# 6 0.000000 0.000000 0.000000 0.000000 0.000000 0.033314
#
#
# Mechanical properties :
#
#
# Convention : Reuss Voigt Hill
#
# Bulk Modulus (GPa) = 31.92374 39.09057 35.50716
# Shear Modulus (GPa) = 31.40645 33.75153 32.57899
#
# Velocity S-wave (km/s) = 3.65144 3.78531 3.71898
# Velocity P-wave (km/s) = 5.59732 5.97494 5.78921
#
# Compressibility (1/GPa) = 0.03132465
#
# Stress axis : x y z
#
# Youngs Moduli (GPa) = 91.14826 116.49271 50.74556
#
# Poissons Ratio (x) = 0.28969 0.05946
# Poissons Ratio (y) = 0.22666 0.01573
# Poissons Ratio (z) = 0.10680 0.03611
#
# Static dielectric constant tensor:
#      x y z
#    x 1.879400 0.000000 0.000000 
#    y 0.000000 1.881130 0.000000 
#    z 0.000000 0.000000 1.971590 
# 
# From -- ./inp_files/29600.got.cif
#   From: 2010.05.17/outbox.cif.g08.bks.cpg/sg22_15_cif.got.tgz:29600.got - 2010.06.03 23:40:54.
