data_PCOD9328217
_publ_section_title
;
Structure prediction by ZEFSAII (Michael W. Deem and Ramdas Pophale) SiO2 
 PCOD9328217
Probable space group: F 2 2 2
;
_chemical_formula_sum "Si O2"
_cell_formula_units_Z 92
_cell_length_a 16.385343
_cell_length_b 11.721361
_cell_length_c 23.944949
_cell_angle_alpha 90.000000
_cell_angle_beta 90.000000
_cell_angle_gamma 90.000000
_cell_volume 4598.831476
_symmetry_space_group_name_H-M "F 2 2 2"
_symmetry_group_IT_number 22
_symmetry_cell_setting 'orthorhombic'
loop_
_space_group_symop_operation_xyz
x,y,z
-x,-y,z
x,-y,-z
-x,y,-z
x,1/2+y,1/2+z
-x,1/2-y,1/2+z
x,1/2-y,1/2-z
-x,1/2+y,1/2-z
1/2+x,y,1/2+z
1/2-x,-y,1/2+z
1/2+x,-y,1/2-z
1/2-x,y,1/2-z
1/2+x,1/2+y,z
1/2-x,1/2-y,z
1/2+x,1/2-y,-z
1/2-x,1/2+y,-z
loop_
_atom_site_type_symbol
_atom_site_label
_atom_site_fract_x
_atom_site_fract_y
_atom_site_fract_z
Si Si1 0.492462 0.370632 0.868214
Si Si2 0.000000 0.500000 0.000000
Si Si3 0.907706 0.497830 0.806100
Si Si4 0.915943 0.335965 0.913643
Si Si5 0.750000 0.250000 0.619058
Si Si6 0.345430 0.742666 0.317140
Si Si7 0.852725 0.860992 0.210854
O O1 0.500000 0.500000 0.889583
O O2 0.523242 0.271513 0.909538
O O3 0.403232 0.337109 0.845570
O O4 0.558995 0.362140 0.818314
O O5 0.054903 0.421514 0.039513
O O6 0.912555 0.402529 0.854217
O O7 0.881311 0.617980 0.831635
O O8 0.849548 0.464237 0.754542
O O9 0.000000 0.500000 0.783654
O O10 0.824107 0.291702 0.918387
O O11 0.787335 0.345870 0.661322
O O12 0.353342 0.750000 0.250000
O O13 0.250000 0.750000 0.331788
O O14 0.846594 0.750000 0.250000
#
# Coordination Sequence:
#
# PCOD9328217 Si02
#       7
#    16   4  16  16   8  16  16
#     4  11  21  39  60  91 133 180 213 269 330 414
#     4  12  24  52  78  92 120 178 236 310 336 418
#     4  12  20  37  63  91 134 186 225 261 316 424
#     4  11  24  42  74  95 123 171 239 280 350 394
#     4  10  23  38  62 106 140 166 226 275 330 420
#     4  11  23  34  48  86 132 180 220 258 312 371
#     4  11  19  33  58  96 141 182 218 253 322 411
#
# _framework density 20.005081000000001
#
# number of rings (size 3 to 8) (size 9 to 14) (size 15 to 20)
#    0.000    0.870    6.087    3.391    0.000    5.565 
#    0.000    0.435   15.304    0.000    0.000    0.000 
#    0.000    0.000    0.000    0.000    0.000    0.000 
#
# Total GULP energy -128525.693987 kJ/mol
# GULP energy per Si atom -5588.073652 kJ/mol
# Density = 1.995955 g / cm^3
# Si number density = 20.005081 Si / 1000 Ang^3
#
#
#
# Elastic Constant Matrix: (Units=GPa)
#
#
# Indices 1 2 3 4 5 6 
#
# 1 156.5237 44.7666 39.1693 0.0000 0.0000 0.0000
# 2 44.7666 135.5964 34.5660 0.0000 0.0000 0.0000
# 3 39.1693 34.5660 63.7455 0.0000 0.0000 0.0000
# 4 0.0000 0.0000 0.0000 8.4663 0.0000 0.0000
# 5 0.0000 0.0000 0.0000 0.0000 10.1589 0.0000
# 6 0.0000 0.0000 0.0000 0.0000 0.0000 17.0335
#
#
#
# Elastic Compliance Matrix: (Units=1/GPa)
#
#
# Indices 1 2 3 4 5 6 
#
# 1 0.007830 -0.001576 -0.003956 0.000000 0.000000 0.000000
# 2 -0.001576 0.008875 -0.003844 0.000000 0.000000 0.000000
# 3 -0.003956 -0.003844 0.020203 0.000000 0.000000 0.000000
# 4 0.000000 0.000000 0.000000 0.118116 0.000000 0.000000
# 5 0.000000 0.000000 0.000000 0.000000 0.098436 0.000000
# 6 0.000000 0.000000 0.000000 0.000000 0.000000 0.058708
#
#
# Mechanical properties :
#
#
# Convention : Reuss Voigt Hill
#
# Bulk Modulus (GPa) = 55.08301 65.87437 60.47869
# Shear Modulus (GPa) = 14.83806 22.95599 18.89703
#
# Velocity S-wave (km/s) = 2.72640 3.39116 3.07679
# Velocity P-wave (km/s) = 6.12416 6.95224 6.55129
#
# Compressibility (1/GPa) = 0.01815442
#
# Stress axis : x y z
#
# Youngs Moduli (GPa) = 127.71871 112.67406 49.49835
#
# Poissons Ratio (x) = 0.17762 0.19583
# Poissons Ratio (y) = 0.20134 0.19027
# Poissons Ratio (z) = 0.50529 0.43311
#
# Static dielectric constant tensor:
#      x y z
#    x 1.752040 0.000000 0.000000 
#    y 0.000000 1.776840 0.000000 
#    z 0.000000 0.000000 1.668010 
# 
# From -- ./inp_files/49400.got.cif
#   From: 2010.05.17/outbox.cif.g08.bks.cpg/sg22_25_cif.got.tgz:49400.got - 2010.06.03 23:40:54.
