data_PCOD9328785
_publ_section_title
;
Structure prediction by ZEFSAII (Michael W. Deem and Ramdas Pophale) SiO2 
 PCOD9328785
Probable space group: F 2 2 2
;
_chemical_formula_sum "Si O2"
_cell_formula_units_Z 96
_cell_length_a 14.290803
_cell_length_b 22.017742
_cell_length_c 14.310370
_cell_angle_alpha 90.000000
_cell_angle_beta 90.000000
_cell_angle_gamma 90.000000
_cell_volume 4502.775285
_symmetry_space_group_name_H-M "F 2 2 2"
_symmetry_group_IT_number 22
_symmetry_cell_setting 'orthorhombic'
loop_
_space_group_symop_operation_xyz
x,y,z
-x,-y,z
x,-y,-z
-x,y,-z
x,1/2+y,1/2+z
-x,1/2-y,1/2+z
x,1/2-y,1/2-z
-x,1/2+y,1/2-z
1/2+x,y,1/2+z
1/2-x,-y,1/2+z
1/2+x,-y,1/2-z
1/2-x,y,1/2-z
1/2+x,1/2+y,z
1/2-x,1/2-y,z
1/2+x,1/2-y,-z
1/2-x,1/2+y,-z
loop_
_atom_site_type_symbol
_atom_site_label
_atom_site_fract_x
_atom_site_fract_y
_atom_site_fract_z
Si Si1 0.007633 0.570749 0.894578
Si Si2 0.840505 0.026592 0.103017
Si Si3 0.979383 0.361930 0.391860
Si Si4 0.820799 0.390246 0.162786
Si Si5 0.354683 0.093249 0.266543
Si Si6 0.147080 0.756340 0.361857
O O1 0.920900 0.580327 0.823681
O O2 0.000000 0.500000 0.908866
O O3 0.099136 0.586968 0.835674
O O4 0.000000 0.597985 0.000000
O O5 0.914119 0.079531 0.126746
O O6 0.741147 0.062534 0.103390
O O7 0.843910 0.971498 0.177897
O O8 0.858512 0.000000 0.000000
O O9 0.924070 0.297646 0.385205
O O10 0.000000 0.368190 0.500000
O O11 0.072776 0.367141 0.328999
O O12 0.750000 0.377243 0.250000
O O13 0.861817 0.327746 0.120315
O O14 0.250000 0.117535 0.250000
O O15 0.151962 0.750000 0.250000
O O16 0.250000 0.750000 0.404714
#
# Coordination Sequence:
#
# PCOD9328785 Si02
#       6
#    16  16  16  16  16  16
#     4  11  25  41  64 100 148 192 234 291 370 446
#     4  12  24  39  71 110 146 188 245 312 374 446
#     4  12  25  45  74 106 150 197 250 311 371 447
#     4  12  23  42  73 104 136 181 247 312 365 425
#     4  12  26  44  67 105 154 199 240 299 378 446
#     4  11  21  42  71  99 128 177 247 310 358 416
#
# _framework density 21.320186
#
# number of rings (size 3 to 8) (size 9 to 14) (size 15 to 20)
#    0.000    0.333    5.000    6.000    4.667    0.667 
#    0.000    0.000    0.000    1.000    0.000    0.000 
#    0.000    0.000    0.000    0.000    0.000    0.000 
#
# Total GULP energy -133645.661749 kJ/mol
# GULP energy per Si atom -5568.569240 kJ/mol
# Density = 2.127166 g / cm^3
# Si number density = 21.320186 Si / 1000 Ang^3
#
#
#
# Elastic Constant Matrix: (Units=GPa)
#
#
# Indices 1 2 3 4 5 6 
#
# 1 163.0390 46.0942 50.4794 0.0000 0.0000 0.0000
# 2 46.0942 109.6763 28.1435 0.0000 0.0000 0.0000
# 3 50.4794 28.1435 135.5587 0.0000 0.0000 0.0000
# 4 0.0000 0.0000 0.0000 7.3732 0.0000 0.0000
# 5 0.0000 0.0000 0.0000 0.0000 24.5625 0.0000
# 6 0.0000 0.0000 0.0000 0.0000 0.0000 20.2682
#
#
#
# Elastic Compliance Matrix: (Units=1/GPa)
#
#
# Indices 1 2 3 4 5 6 
#
# 1 0.007574 -0.002598 -0.002281 0.000000 0.000000 0.000000
# 2 -0.002598 0.010522 -0.001217 0.000000 0.000000 0.000000
# 3 -0.002281 -0.001217 0.008479 0.000000 0.000000 0.000000
# 4 0.000000 0.000000 0.000000 0.135626 0.000000 0.000000
# 5 0.000000 0.000000 0.000000 0.000000 0.040712 0.000000
# 6 0.000000 0.000000 0.000000 0.000000 0.000000 0.049338
#
#
# Mechanical properties :
#
#
# Convention : Reuss Voigt Hill
#
# Bulk Modulus (GPa) = 69.52693 73.07870 71.30281
# Shear Modulus (GPa) = 18.57089 29.34457 23.95773
#
# Velocity S-wave (km/s) = 2.95455 3.71398 3.35582
# Velocity P-wave (km/s) = 6.65739 7.26242 6.96647
#
# Compressibility (1/GPa) = 0.01438292
#
# Stress axis : x y z
#
# Youngs Moduli (GPa) = 132.02608 95.04007 117.93840
#
# Poissons Ratio (x) = 0.24691 0.26904
# Poissons Ratio (y) = 0.34299 0.14354
# Poissons Ratio (z) = 0.30117 0.11567
#
# Static dielectric constant tensor:
#      x y z
#    x 1.854710 0.000000 0.000000 
#    y 0.000000 1.837990 0.000000 
#    z 0.000000 0.000000 1.833930 
# 
# From -- ./inp_files/29373.got.cif
#   From: 2010.05.17/outbox.cif.g08.bks.cpg/sg22_15_cif.got.tgz:29373.got - 2010.06.03 23:40:54.
