data_PCOD9328366
_publ_section_title
;
Structure prediction by ZEFSAII (Michael W. Deem and Ramdas Pophale) SiO2 
 PCOD9328366
Probable space group: F 2 2 2
;
_chemical_formula_sum "Si O2"
_cell_formula_units_Z 116
_cell_length_a 24.251808
_cell_length_b 26.098268
_cell_length_c 9.565110
_cell_angle_alpha 90.000000
_cell_angle_beta 90.000000
_cell_angle_gamma 90.000000
_cell_volume 6054.046839
_symmetry_space_group_name_H-M "F 2 2 2"
_symmetry_group_IT_number 22
_symmetry_cell_setting 'orthorhombic'
loop_
_space_group_symop_operation_xyz
x,y,z
-x,-y,z
x,-y,-z
-x,y,-z
x,1/2+y,1/2+z
-x,1/2-y,1/2+z
x,1/2-y,1/2-z
-x,1/2+y,1/2-z
1/2+x,y,1/2+z
1/2-x,-y,1/2+z
1/2+x,-y,1/2-z
1/2-x,y,1/2-z
1/2+x,1/2+y,z
1/2-x,1/2-y,z
1/2+x,1/2-y,-z
1/2-x,1/2+y,-z
loop_
_atom_site_type_symbol
_atom_site_label
_atom_site_fract_x
_atom_site_fract_y
_atom_site_fract_z
Si Si1 0.564098 0.358406 0.513689
Si Si2 0.804281 0.509287 0.835761
Si Si3 0.859101 0.909802 0.269591
Si Si4 0.750000 0.250000 0.750000
Si Si5 0.720037 0.335387 0.561270
Si Si6 0.350360 0.842913 0.513609
Si Si7 0.943283 0.241534 0.916285
Si Si8 0.655740 0.124787 0.195484
O O1 0.500000 0.366903 0.500000
O O2 0.589544 0.386899 0.646588
O O3 0.573992 0.297563 0.527812
O O4 0.597180 0.378236 0.380568
O O5 0.750000 0.495265 0.750000
O O6 0.851446 0.469909 0.788817
O O7 0.818039 0.568283 0.805874
O O8 0.795222 0.500000 0.000000
O O9 0.806963 0.881774 0.348850
O O10 0.862823 0.891936 0.110722
O O11 0.710680 0.284708 0.652770
O O12 0.785850 0.333714 0.546883
O O13 0.693061 0.340431 0.408705
O O14 0.394399 0.799214 0.556266
O O15 0.351606 0.853650 0.349315
O O16 0.953789 0.250000 0.750000
O O17 0.000000 0.227411 0.000000
#
# Coordination Sequence:
#
# PCOD9328366 Si02
#       8
#    16  16  16   4  16  16  16  16
#     4  10  23  45  68  92 133 173 230 281 328 402
#     4  12  24  42  69  98 136 180 221 274 332 415
#     4  11  23  41  68  98 131 180 229 265 342 401
#     4  12  24  36  66  84 132 172 226 260 336 404
#     4  11  23  40  60  92 134 177 216 267 324 413
#     4  12  24  40  67  95 135 176 217 279 333 401
#     4  11  26  44  70  98 130 178 234 280 340 404
#     4  11  27  43  64 100 139 172 230 280 338 396
#
# _framework density 19.160737000000001
#
# number of rings (size 3 to 8) (size 9 to 14) (size 15 to 20)
#    0.000    0.828    5.517    2.069   10.621    0.000 
#    0.000    2.069    0.000    0.000    0.000    2.897 
#    0.000    0.000    0.000    0.000    0.000    0.000 
#
# Total GULP energy -161988.462524 kJ/mol
# GULP energy per Si atom -5585.809053 kJ/mol
# Density = 1.911713 g / cm^3
# Si number density = 19.160737 Si / 1000 Ang^3
#
#
#
# Elastic Constant Matrix: (Units=GPa)
#
#
# Indices 1 2 3 4 5 6 
#
# 1 105.7889 32.8195 38.6350 0.0003 0.0000 0.0000
# 2 32.8195 76.6591 33.5514 0.0004 -0.0002 -0.0001
# 3 38.6350 33.5514 154.7690 0.0012 -0.0003 -0.0001
# 4 0.0003 0.0004 0.0012 10.6460 -0.0005 -0.0002
# 5 0.0000 -0.0002 -0.0003 -0.0005 22.3717 0.0001
# 6 0.0000 -0.0001 -0.0001 -0.0002 0.0001 25.7740
#
#
#
# Elastic Compliance Matrix: (Units=1/GPa)
#
#
# Indices 1 2 3 4 5 6 
#
# 1 0.011424 -0.004025 -0.001979 0.000000 0.000000 0.000000
# 2 -0.004025 0.015830 -0.002427 0.000000 0.000000 0.000000
# 3 -0.001979 -0.002427 0.007481 -0.000001 0.000000 0.000000
# 4 0.000000 0.000000 -0.000001 0.093932 0.000002 0.000001
# 5 0.000000 0.000000 0.000000 0.000002 0.044699 0.000000
# 6 0.000000 0.000000 0.000000 0.000001 0.000000 0.038799
#
#
# Mechanical properties :
#
#
# Convention : Reuss Voigt Hill
#
# Bulk Modulus (GPa) = 55.94813 60.80320 58.37566
# Shear Modulus (GPa) = 21.27785 27.23908 24.25847
#
# Velocity S-wave (km/s) = 3.33602 3.77451 3.56202
# Velocity P-wave (km/s) = 6.64089 7.12728 6.88838
#
# Compressibility (1/GPa) = 0.01787370
#
# Stress axis : x y z
#
# Youngs Moduli (GPa) = 87.53299 63.17103 133.66332
#
# Poissons Ratio (x) = 0.25424 0.26457
# Poissons Ratio (y) = 0.35229 0.32440
# Poissons Ratio (z) = 0.17326 0.15332
#
# Static dielectric constant tensor:
#      x y z
#    x 1.675240 0.000000 0.000000 
#    y 0.000000 1.678030 0.000000 
#    z 0.000000 0.000000 1.673840 
# 
# From -- ./inp_files/14116.got.cif
#   From: 2010.05.17/outbox.cif.g08.bks.cpg/sg22_8_cif.got.tgz:14116.got - 2010.06.03 23:40:54.
