data_PCOD9328971
_publ_section_title
;
Structure prediction by ZEFSAII (Michael W. Deem and Ramdas Pophale) SiO2 
 PCOD9328971
Probable space group: F 2 2 2
;
_chemical_formula_sum "Si O2"
_cell_formula_units_Z 48
_cell_length_a 18.238292
_cell_length_b 13.037054
_cell_length_c 8.029652
_cell_angle_alpha 90.000000
_cell_angle_beta 90.000000
_cell_angle_gamma 90.000000
_cell_volume 1909.239244
_symmetry_space_group_name_H-M "F 2 2 2"
_symmetry_group_IT_number 22
_symmetry_cell_setting 'orthorhombic'
loop_
_space_group_symop_operation_xyz
x,y,z
-x,-y,z
x,-y,-z
-x,y,-z
x,1/2+y,1/2+z
-x,1/2-y,1/2+z
x,1/2-y,1/2-z
-x,1/2+y,1/2-z
1/2+x,y,1/2+z
1/2-x,-y,1/2+z
1/2+x,-y,1/2-z
1/2-x,y,1/2-z
1/2+x,1/2+y,z
1/2-x,1/2-y,z
1/2+x,1/2-y,-z
1/2-x,1/2+y,-z
loop_
_atom_site_type_symbol
_atom_site_label
_atom_site_fract_x
_atom_site_fract_y
_atom_site_fract_z
Si Si1 0.303537 0.096223 0.900134
Si Si2 0.424239 0.060488 0.648266
Si Si3 0.576207 0.727650 0.447804
O O1 0.250000 0.130773 0.750000
O O2 0.375466 0.053855 0.807832
O O3 0.343198 0.180832 0.014877
O O4 0.271968 0.000000 0.000000
O O5 0.429721 0.174729 0.573986
O O6 0.500000 0.000000 0.673061
O O7 0.385923 0.000000 0.500000
O O8 0.500000 0.669238 0.500000
O O9 0.572523 0.750000 0.250000
#
# Coordination Sequence:
#
# PCOD9328971 Si02
#       3
#    16  16  16
#     4  12  29  50  77 114 165 210 271 325 409 469
#     4  11  23  45  77 117 158 199 264 325 387 473
#     4  12  26  47  80 125 157 208 270 333 394 477
#
# _framework density 25.140903999999999
#
# number of rings (size 3 to 8) (size 9 to 14) (size 15 to 20)
#    0.000    0.333    3.333    6.000    4.667    2.667 
#    0.000    1.667    0.000    0.000    0.000    0.000 
#    0.000    0.000    0.000    0.000    0.000    0.000 
#
# Total GULP energy -67035.486727 kJ/mol
# GULP energy per Si atom -5586.290561 kJ/mol
# Density = 2.508368 g / cm^3
# Si number density = 25.140904 Si / 1000 Ang^3
#
#
#
# Elastic Constant Matrix: (Units=GPa)
#
#
# Indices 1 2 3 4 5 6 
#
# 1 182.6153 43.8728 64.9699 0.0000 0.0000 0.0000
# 2 43.8728 87.3041 22.2573 0.0000 0.0000 0.0000
# 3 64.9699 22.2573 150.4414 0.0000 0.0000 0.0000
# 4 0.0000 0.0000 0.0000 29.7989 0.0000 0.0000
# 5 0.0000 0.0000 0.0000 0.0000 45.6978 0.0000
# 6 0.0000 0.0000 0.0000 0.0000 0.0000 36.4815
#
#
#
# Elastic Compliance Matrix: (Units=1/GPa)
#
#
# Indices 1 2 3 4 5 6 
#
# 1 0.007113 -0.002901 -0.002643 0.000000 0.000000 0.000000
# 2 -0.002901 0.013086 -0.000683 0.000000 0.000000 0.000000
# 3 -0.002643 -0.000683 0.007889 0.000000 0.000000 0.000000
# 4 0.000000 0.000000 0.000000 0.033558 0.000000 0.000000
# 5 0.000000 0.000000 0.000000 0.000000 0.021883 0.000000
# 6 0.000000 0.000000 0.000000 0.000000 0.000000 0.027411
#
#
# Mechanical properties :
#
#
# Convention : Reuss Voigt Hill
#
# Bulk Modulus (GPa) = 63.95866 75.84009 69.89937
# Shear Modulus (GPa) = 38.87829 41.67969 40.27899
#
# Velocity S-wave (km/s) = 3.93672 4.07608 4.00700
# Velocity P-wave (km/s) = 6.79404 7.23768 7.01937
#
# Compressibility (1/GPa) = 0.01563510
#
# Stress axis : x y z
#
# Youngs Moduli (GPa) = 140.58533 76.41663 126.75091
#
# Poissons Ratio (x) = 0.22167 0.33497
# Poissons Ratio (y) = 0.40781 0.08661
# Poissons Ratio (z) = 0.37153 0.05222
#
# Static dielectric constant tensor:
#      x y z
#    x 2.045880 0.000000 0.000000 
#    y 0.000000 2.200720 0.000000 
#    z 0.000000 0.000000 1.915660 
# 
# From -- ./inp_files/12011.got.cif
#   From: 2010.05.17/outbox.cif.g08.bks.cpg/sg22_7_cif.got.tgz:12011.got - 2010.06.03 23:40:54.
