data_PCOD9328677
_publ_section_title
;
Structure prediction by ZEFSAII (Michael W. Deem and Ramdas Pophale) SiO2 
 PCOD9328677
Probable space group: F 2 2 2
;
_chemical_formula_sum "Si O2"
_cell_formula_units_Z 104
_cell_length_a 23.112446
_cell_length_b 26.252464
_cell_length_c 9.364451
_cell_angle_alpha 90.000000
_cell_angle_beta 90.000000
_cell_angle_gamma 90.000000
_cell_volume 5681.961708
_symmetry_space_group_name_H-M "F 2 2 2"
_symmetry_group_IT_number 22
_symmetry_cell_setting 'orthorhombic'
loop_
_space_group_symop_operation_xyz
x,y,z
-x,-y,z
x,-y,-z
-x,y,-z
x,1/2+y,1/2+z
-x,1/2-y,1/2+z
x,1/2-y,1/2-z
-x,1/2+y,1/2-z
1/2+x,y,1/2+z
1/2-x,-y,1/2+z
1/2+x,-y,1/2-z
1/2-x,y,1/2-z
1/2+x,1/2+y,z
1/2-x,1/2-y,z
1/2+x,1/2-y,-z
1/2-x,1/2+y,-z
loop_
_atom_site_type_symbol
_atom_site_label
_atom_site_fract_x
_atom_site_fract_y
_atom_site_fract_z
Si Si1 0.924922 0.307744 0.901678
Si Si2 0.500000 0.715993 0.000000
Si Si3 0.435674 0.948637 0.568383
Si Si4 0.914424 0.133381 0.138174
Si Si5 0.335684 0.750000 0.750000
Si Si6 0.750000 0.250000 0.002181
Si Si7 0.990807 0.412486 0.841240
Si Si8 0.342927 0.303361 0.672566
O O1 0.874811 0.297911 0.788774
O O2 0.961765 0.357038 0.865934
O O3 0.962117 0.256012 0.909969
O O4 0.891489 0.312598 0.051990
O O5 0.457460 0.679568 0.090931
O O6 0.500000 0.944694 0.500000
O O7 0.403937 0.899924 0.502994
O O8 0.448897 0.944831 0.736526
O O9 0.410560 0.000000 0.500000
O O10 0.856234 0.154306 0.209652
O O11 0.950236 0.099418 0.253742
O O12 0.299716 0.734825 0.890199
O O13 0.719299 0.206765 0.098477
O O14 0.000000 0.434074 0.000000
O O15 0.355274 0.250000 0.750000
#
# Coordination Sequence:
#
# PCOD9328677 Si02
#       8
#    16   8  16  16   8   8  16  16
#     4  11  20  27  49  74 113 143 186 219 273 324
#     4  12  18  30  45  80 116 155 184 218 256 342
#     4   9  20  37  51  67 106 152 199 237 277 334
#     4  11  20  32  49  74 108 153 193 219 280 327
#     4   9  20  34  46  66 104 162 184 229 280 324
#     4   9  21  36  46  64 101 153 204 232 272 318
#     4  11  19  32  50  81 108 144 191 231 269 338
#     4  11  20  32  48  72 103 153 182 234 266 332
#
# _framework density 18.303538
#
# number of rings (size 3 to 8) (size 9 to 14) (size 15 to 20)
#    0.000    1.538    6.154    1.154    0.000    0.000 
#    0.000    6.154    0.000    0.000    0.000    0.000 
#    0.000    0.000  104.615    0.000    6.462    0.154 
#
# Total GULP energy -144917.627931 kJ/mol
# GULP energy per Si atom -5573.754920 kJ/mol
# Density = 1.826188 g / cm^3
# Si number density = 18.303538 Si / 1000 Ang^3
#
#
#
# Elastic Constant Matrix: (Units=GPa)
#
#
# Indices 1 2 3 4 5 6 
#
# 1 55.3872 14.3202 30.1625 0.0000 0.0001 -0.0001
# 2 14.3202 63.5654 33.6910 -0.0001 0.0000 0.0000
# 3 30.1625 33.6910 128.1285 -0.0001 0.0002 -0.0003
# 4 0.0000 -0.0001 -0.0001 14.6532 0.0000 0.0000
# 5 0.0001 0.0000 0.0002 0.0000 17.0766 0.0002
# 6 -0.0001 0.0000 -0.0003 0.0000 0.0002 4.1094
#
#
#
# Elastic Compliance Matrix: (Units=1/GPa)
#
#
# Indices 1 2 3 4 5 6 
#
# 1 0.021035 -0.002457 -0.004306 0.000000 0.000000 0.000000
# 2 -0.002457 0.018566 -0.004304 0.000000 0.000000 0.000000
# 3 -0.004306 -0.004304 0.009950 0.000000 0.000000 0.000001
# 4 0.000000 0.000000 0.000000 0.068244 0.000000 0.000000
# 5 0.000000 0.000000 0.000000 0.000000 0.058560 -0.000002
# 6 0.000000 0.000000 0.000001 0.000000 -0.000002 0.243342
#
#
# Mechanical properties :
#
#
# Convention : Reuss Voigt Hill
#
# Bulk Modulus (GPa) = 36.47127 44.82538 40.64832
# Shear Modulus (GPa) = 11.08724 18.42836 14.75780
#
# Velocity S-wave (km/s) = 2.46386 3.17648 2.84259
# Velocity P-wave (km/s) = 5.29747 6.16414 5.74716
#
# Compressibility (1/GPa) = 0.02741884
#
# Stress axis : x y z
#
# Youngs Moduli (GPa) = 47.54054 53.86104 100.50336
#
# Poissons Ratio (x) = 0.13231 0.43275
# Poissons Ratio (y) = 0.11679 0.43253
# Poissons Ratio (z) = 0.20470 0.23180
#
# Static dielectric constant tensor:
#      x y z
#    x 1.669600 0.000000 0.000000 
#    y 0.000000 1.663860 0.000000 
#    z 0.000000 0.000000 1.747160 
# 
# From -- ./inp_files/14069.got.cif
#   From: 2010.05.17/outbox.cif.g08.bks.cpg/sg22_8_cif.got.tgz:14069.got - 2010.06.03 23:40:54.
