data_PCOD9328332
_publ_section_title
;
Structure prediction by ZEFSAII (Michael W. Deem and Ramdas Pophale) SiO2 
 PCOD9328332
Probable space group: F 2 2 2
;
_chemical_formula_sum "Si O2"
_cell_formula_units_Z 56
_cell_length_a 5.747893
_cell_length_b 24.244628
_cell_length_c 17.603128
_cell_angle_alpha 90.000000
_cell_angle_beta 90.000000
_cell_angle_gamma 90.000000
_cell_volume 2453.093189
_symmetry_space_group_name_H-M "F 2 2 2"
_symmetry_group_IT_number 22
_symmetry_cell_setting 'orthorhombic'
loop_
_space_group_symop_operation_xyz
x,y,z
-x,-y,z
x,-y,-z
-x,y,-z
x,1/2+y,1/2+z
-x,1/2-y,1/2+z
x,1/2-y,1/2-z
-x,1/2+y,1/2-z
1/2+x,y,1/2+z
1/2-x,-y,1/2+z
1/2+x,-y,1/2-z
1/2-x,y,1/2-z
1/2+x,1/2+y,z
1/2-x,1/2-y,z
1/2+x,1/2-y,-z
1/2-x,1/2+y,-z
loop_
_atom_site_type_symbol
_atom_site_label
_atom_site_fract_x
_atom_site_fract_y
_atom_site_fract_z
Si Si1 0.582312 0.157239 0.819201
Si Si2 0.254828 0.686754 0.973693
Si Si3 0.500000 0.500000 0.000000
Si Si4 0.250000 0.250000 0.750000
Si Si5 0.110356 0.443921 0.914889
O O1 0.750000 0.140421 0.750000
O O2 0.751337 0.180738 0.883932
O O3 0.412002 0.207528 0.796921
O O4 0.441620 0.106495 0.858313
O O5 0.250000 0.750000 0.000104
O O6 0.500000 0.661982 0.000000
O O7 0.000000 0.666734 0.000000
O O8 0.368042 0.459768 0.940955
O O9 0.000000 0.500000 0.881163
O O10 0.000000 0.439256 0.000000
#
# Coordination Sequence:
#
# PCOD9328332 Si02
#       5
#    16  16   4   4  16
#     4  12  27  48  70 109 156 208 261 314 396 474
#     4  10  23  43  71 103 145 195 261 318 372 453
#     4   8  18  44  84 118 144 172 262 334 408 456
#     4  12  30  44  72 106 172 212 256 318 398 468
#     4   9  21  47  79 112 141 192 253 328 393 462
#
# _framework density 22.828322
#
# number of rings (size 3 to 8) (size 9 to 14) (size 15 to 20)
#    0.000    2.000    0.000    3.000   10.000    4.571 
#   15.429    0.000    0.000    0.000    0.000    0.000 
#    0.000    0.000    0.000    0.000    0.000    0.000 
#
# Total GULP energy -78031.683098 kJ/mol
# GULP energy per Si atom -5573.691650 kJ/mol
# Density = 2.277636 g / cm^3
# Si number density = 22.828322 Si / 1000 Ang^3
#
#
#
# Elastic Constant Matrix: (Units=GPa)
#
#
# Indices 1 2 3 4 5 6 
#
# 1 161.1599 60.0928 78.5440 0.0000 0.0000 0.0000
# 2 60.0928 202.9309 51.9895 0.0000 0.0000 0.0000
# 3 78.5440 51.9895 127.4202 0.0000 0.0000 0.0000
# 4 0.0000 0.0000 0.0000 36.8447 0.0000 0.0000
# 5 0.0000 0.0000 0.0000 0.0000 40.1427 0.0000
# 6 0.0000 0.0000 0.0000 0.0000 0.0000 210.7269
#
#
#
# Elastic Compliance Matrix: (Units=1/GPa)
#
#
# Indices 1 2 3 4 5 6 
#
# 1 0.009224 -0.001424 -0.005105 0.000000 0.000000 0.000000
# 2 -0.001424 0.005723 -0.001457 0.000000 0.000000 0.000000
# 3 -0.005105 -0.001457 0.011589 0.000000 0.000000 0.000000
# 4 0.000000 0.000000 0.000000 0.027141 0.000000 0.000000
# 5 0.000000 0.000000 0.000000 0.000000 0.024911 0.000000
# 6 0.000000 0.000000 0.000000 0.000000 0.000000 0.004745
#
#
# Mechanical properties :
#
#
# Convention : Reuss Voigt Hill
#
# Bulk Modulus (GPa) = 94.65942 96.97373 95.81657
# Shear Modulus (GPa) = 48.62555 77.60185 63.11370
#
# Velocity S-wave (km/s) = 4.62026 5.83673 5.26376
# Velocity P-wave (km/s) = 8.36769 9.38057 8.88857
#
# Compressibility (1/GPa) = 0.01056419
#
# Stress axis : x y z
#
# Youngs Moduli (GPa) = 108.41566 174.74186 86.28548
#
# Poissons Ratio (x) = 0.24875 0.44047
# Poissons Ratio (y) = 0.15434 0.12576
# Poissons Ratio (z) = 0.55345 0.25468
#
# Static dielectric constant tensor:
#      x y z
#    x 1.977380 0.000000 0.000000 
#    y 0.000000 1.884450 0.000000 
#    z 0.000000 0.000000 1.854060 
# 
# From -- ./inp_files/34105.got.cif
#   From: 2010.05.17/outbox.cif.g08.bks.cpg/sg22_18_cif.got.tgz:34105.got - 2010.06.03 23:40:54.
