data_PCOD9328192
_publ_section_title
;
Structure prediction by ZEFSAII (Michael W. Deem and Ramdas Pophale) SiO2 
 PCOD9328192
Probable space group: F 2 2 2
;
_chemical_formula_sum "Si O2"
_cell_formula_units_Z 92
_cell_length_a 20.517417
_cell_length_b 8.982072
_cell_length_c 23.887521
_cell_angle_alpha 90.000000
_cell_angle_beta 90.000000
_cell_angle_gamma 90.000000
_cell_volume 4402.205369
_symmetry_space_group_name_H-M "F 2 2 2"
_symmetry_group_IT_number 22
_symmetry_cell_setting 'orthorhombic'
loop_
_space_group_symop_operation_xyz
x,y,z
-x,-y,z
x,-y,-z
-x,y,-z
x,1/2+y,1/2+z
-x,1/2-y,1/2+z
x,1/2-y,1/2-z
-x,1/2+y,1/2-z
1/2+x,y,1/2+z
1/2-x,-y,1/2+z
1/2+x,-y,1/2-z
1/2-x,y,1/2-z
1/2+x,1/2+y,z
1/2-x,1/2-y,z
1/2+x,1/2-y,-z
1/2-x,1/2+y,-z
loop_
_atom_site_type_symbol
_atom_site_label
_atom_site_fract_x
_atom_site_fract_y
_atom_site_fract_z
Si Si1 0.750000 0.750000 0.750000
Si Si2 0.057532 0.783465 0.042815
Si Si3 0.719456 0.597138 0.413006
Si Si4 0.829678 0.000000 0.000000
Si Si5 0.981954 0.328565 0.156755
Si Si6 0.851051 0.966891 0.696142
Si Si7 0.880238 0.000000 0.500000
Si Si8 0.586982 0.750000 0.250000
O O1 0.795462 0.858539 0.715993
O O2 0.076818 0.611049 0.035448
O O3 0.031931 0.784793 0.106176
O O4 0.120493 0.877690 0.025097
O O5 0.000000 0.820637 0.000000
O O6 0.750000 0.750000 0.391889
O O7 0.780694 0.527373 0.447319
O O8 0.678488 0.526221 0.362520
O O9 0.665330 0.603583 0.461682
O O10 0.084866 0.634709 0.188784
O O11 0.038126 0.260343 0.196497
O O12 0.000000 0.500000 0.139066
O O13 0.869050 0.103095 0.738333
#
# Coordination Sequence:
#
# PCOD9328192 Si02
#       8
#     4  16  16   8  16  16   8   8
#     4  12  30  46  64 108 142 178 248 298 344 432
#     4  12  24  42  69 105 142 184 234 293 352 426
#     4  11  24  43  73 101 143 188 232 286 352 431
#     4  11  27  44  64 108 147 185 230 288 364 417
#     4  10  22  46  74 103 135 183 238 292 358 420
#     4  11  26  47  73 103 137 188 235 295 360 422
#     4  11  21  42  72 102 139 183 230 286 340 435
#     4  10  25  47  76 105 139 182 242 300 356 424
#
# _framework density 20.898617000000002
#
# number of rings (size 3 to 8) (size 9 to 14) (size 15 to 20)
#    0.000    1.043    3.478    2.087    7.304    0.000 
#    0.000    6.957    0.000    0.000    0.000    0.000 
#    0.000    0.000    0.000    0.000    0.000    0.000 
#
# Total GULP energy -128176.241198 kJ/mol
# GULP energy per Si atom -5572.880052 kJ/mol
# Density = 2.085105 g / cm^3
# Si number density = 20.898617 Si / 1000 Ang^3
#
#
#
# Elastic Constant Matrix: (Units=GPa)
#
#
# Indices 1 2 3 4 5 6 
#
# 1 122.3827 49.0336 37.5766 0.0000 0.0000 0.0000
# 2 49.0336 63.6781 55.1895 0.0000 0.0000 0.0000
# 3 37.5766 55.1895 92.0478 0.0000 0.0000 0.0000
# 4 0.0000 0.0000 0.0000 -34.4477 0.0000 0.0000
# 5 0.0000 0.0000 0.0000 0.0000 85.7278 0.0000
# 6 0.0000 0.0000 0.0000 0.0000 0.0000 13.1985
#
#
#
# Elastic Compliance Matrix: (Units=1/GPa)
#
#
# Indices 1 2 3 4 5 6 
#
# 1 0.011894 -0.010306 0.001324 0.000000 0.000000 0.000000
# 2 -0.010306 0.041622 -0.020749 0.000000 0.000000 0.000000
# 3 0.001324 -0.020749 0.022764 0.000000 0.000000 0.000000
# 4 0.000000 0.000000 0.000000 -0.029029 0.000000 0.000000
# 5 0.000000 0.000000 0.000000 0.000000 0.011665 0.000000
# 6 0.000000 0.000000 0.000000 0.000000 0.000000 0.075766
#
#
# Mechanical properties :
#
#
# Convention : Reuss Voigt Hill
#
# Bulk Modulus (GPa) = 59.45756 62.41198 60.93477
# Shear Modulus (GPa) = 25.03149 21.98298 23.50724
#
# Velocity S-wave (km/s) = 3.46462 3.24680 3.35748
# Velocity P-wave (km/s) = 6.67211 6.63209 6.65213
#
# Compressibility (1/GPa) = 0.01681872
#
# Stress axis : x y z
#
# Youngs Moduli (GPa) = 84.07814 24.02565 43.92923
#
# Poissons Ratio (x) = 0.24760 -0.05814
# Poissons Ratio (y) = 0.86647 0.91147
# Poissons Ratio (z) = -0.11129 0.49850
#
# Static dielectric constant tensor:
#      x y z
#    x 1.802720 0.000000 0.000000 
#    y 0.000000 1.740790 0.000000 
#    z 0.000000 0.000000 1.776610 
# 
# From -- ./inp_files/49866.got.cif
#   From: 2010.05.17/outbox.cif.g08.bks.cpg/sg22_25_cif.got.tgz:49866.got - 2010.06.03 23:40:54.
