data_PCOD9328569
_publ_section_title
;
Structure prediction by ZEFSAII (Michael W. Deem and Ramdas Pophale) SiO2 
 PCOD9328569
Probable space group: F 2 2 2
;
_chemical_formula_sum "Si O2"
_cell_formula_units_Z 80
_cell_length_a 10.585174
_cell_length_b 21.898013
_cell_length_c 15.164855
_cell_angle_alpha 90.000000
_cell_angle_beta 90.000000
_cell_angle_gamma 90.000000
_cell_volume 3515.126614
_symmetry_space_group_name_H-M "F 2 2 2"
_symmetry_group_IT_number 22
_symmetry_cell_setting 'orthorhombic'
loop_
_space_group_symop_operation_xyz
x,y,z
-x,-y,z
x,-y,-z
-x,y,-z
x,1/2+y,1/2+z
-x,1/2-y,1/2+z
x,1/2-y,1/2-z
-x,1/2+y,1/2-z
1/2+x,y,1/2+z
1/2-x,-y,1/2+z
1/2+x,-y,1/2-z
1/2-x,y,1/2-z
1/2+x,1/2+y,z
1/2-x,1/2-y,z
1/2+x,1/2-y,-z
1/2-x,1/2+y,-z
loop_
_atom_site_type_symbol
_atom_site_label
_atom_site_fract_x
_atom_site_fract_y
_atom_site_fract_z
Si Si1 0.396897 0.625162 0.755886
Si Si2 0.992240 0.750000 0.750000
Si Si3 0.813864 0.000000 0.500000
Si Si4 0.307510 0.688867 0.105290
Si Si5 0.615037 0.097982 0.544875
Si Si6 0.147616 0.574437 0.175398
O O1 0.250000 0.607560 0.750000
O O2 0.420683 0.693592 0.718528
O O3 0.419194 0.622273 0.860189
O O4 0.508061 0.584046 0.714851
O O5 0.901121 0.717086 0.678954
O O6 0.732452 0.053058 0.546106
O O7 0.869069 0.035558 0.414617
O O8 0.250000 0.750000 0.065971
O O9 0.209116 0.640545 0.148799
O O10 0.362261 0.651908 0.023919
O O11 0.500000 0.063076 0.500000
O O12 0.250000 0.551020 0.250000
#
# Coordination Sequence:
#
# PCOD9328569 Si02
#       6
#    16   8   8  16  16  16
#     4  12  26  43  70 110 154 194 243 312 389 454
#     4  12  20  40  72 110 150 196 246 296 378 462
#     4  10  25  44  77 108 136 192 266 328 366 452
#     4  11  20  38  75 109 148 200 256 301 365 469
#     4  11  23  45  68 109 145 193 254 312 380 447
#     4  11  21  45  78 109 148 201 261 312 383 461
#
# _framework density 22.758782
#
# number of rings (size 3 to 8) (size 9 to 14) (size 15 to 20)
#    0.000    0.800    6.000    2.100    0.000    2.400 
#    0.000    8.000    0.000    0.000    0.000    0.000 
#    0.000    0.000    0.000    0.000    0.000    0.000 
#
# Total GULP energy -111613.696620 kJ/mol
# GULP energy per Si atom -5580.684831 kJ/mol
# Density = 2.270698 g / cm^3
# Si number density = 22.758782 Si / 1000 Ang^3
#
#
#
# Elastic Constant Matrix: (Units=GPa)
#
#
# Indices 1 2 3 4 5 6 
#
# 1 156.1699 55.5567 77.6094 0.0000 0.0000 0.0000
# 2 55.5567 129.7767 78.8711 0.0000 0.0000 0.0000
# 3 77.6094 78.8711 165.6112 0.0000 0.0000 0.0000
# 4 0.0000 0.0000 0.0000 70.8813 0.0000 0.0000
# 5 0.0000 0.0000 0.0000 0.0000 32.1408 0.0000
# 6 0.0000 0.0000 0.0000 0.0000 0.0000 2.3424
#
#
#
# Elastic Compliance Matrix: (Units=1/GPa)
#
#
# Indices 1 2 3 4 5 6 
#
# 1 0.008617 -0.001738 -0.003211 0.000000 0.000000 0.000000
# 2 -0.001738 0.011195 -0.004517 0.000000 0.000000 0.000000
# 3 -0.003211 -0.004517 0.009694 0.000000 0.000000 0.000000
# 4 0.000000 0.000000 0.000000 0.014108 0.000000 0.000000
# 5 0.000000 0.000000 0.000000 0.000000 0.031113 0.000000
# 6 0.000000 0.000000 0.000000 0.000000 0.000000 0.426911
#
#
# Mechanical properties :
#
#
# Convention : Reuss Voigt Hill
#
# Bulk Modulus (GPa) = 94.56238 97.29248 95.92743
# Shear Modulus (GPa) = 9.54028 37.04095 23.29062
#
# Velocity S-wave (km/s) = 2.04964 4.03866 3.20248
# Velocity P-wave (km/s) = 6.87324 8.03679 7.47768
#
# Compressibility (1/GPa) = 0.01057503
#
# Stress axis : x y z
#
# Youngs Moduli (GPa) = 116.05025 89.32840 103.15659
#
# Poissons Ratio (x) = 0.15522 0.33119
# Poissons Ratio (y) = 0.20166 0.46596
# Poissons Ratio (z) = 0.37259 0.40350
#
# Static dielectric constant tensor:
#      x y z
#    x 2.022360 0.000000 0.000000 
#    y 0.000000 1.893510 0.000000 
#    z 0.000000 0.000000 1.798150 
# 
# From -- ./inp_files/28152.got.cif
#   From: 2010.05.17/outbox.cif.g08.bks.cpg/sg22_15_cif.got.tgz:28152.got - 2010.06.03 23:40:54.
