data_PCOD9328636
_publ_section_title
;
Structure prediction by ZEFSAII (Michael W. Deem and Ramdas Pophale) SiO2 
 PCOD9328636
Probable space group: F 2 2 2
;
_chemical_formula_sum "Si O2"
_cell_formula_units_Z 88
_cell_length_a 8.927633
_cell_length_b 21.125626
_cell_length_c 17.600088
_cell_angle_alpha 90.000000
_cell_angle_beta 90.000000
_cell_angle_gamma 90.000000
_cell_volume 3319.408907
_symmetry_space_group_name_H-M "F 2 2 2"
_symmetry_group_IT_number 22
_symmetry_cell_setting 'orthorhombic'
loop_
_space_group_symop_operation_xyz
x,y,z
-x,-y,z
x,-y,-z
-x,y,-z
x,1/2+y,1/2+z
-x,1/2-y,1/2+z
x,1/2-y,1/2-z
-x,1/2+y,1/2-z
1/2+x,y,1/2+z
1/2-x,-y,1/2+z
1/2+x,-y,1/2-z
1/2-x,y,1/2-z
1/2+x,1/2+y,z
1/2-x,1/2-y,z
1/2+x,1/2-y,-z
1/2-x,1/2+y,-z
loop_
_atom_site_type_symbol
_atom_site_label
_atom_site_fract_x
_atom_site_fract_y
_atom_site_fract_z
Si Si1 0.511900 0.669663 0.091350
Si Si2 0.250000 0.250000 0.750000
Si Si3 0.500000 0.000000 0.500000
Si Si4 0.750000 0.036810 0.250000
Si Si5 0.000000 0.120964 0.500000
Si Si6 0.902452 0.909504 0.222290
Si Si7 0.734781 0.080169 0.413119
Si Si8 0.480971 0.194975 0.157858
O O1 0.610982 0.617218 0.136566
O O2 0.340722 0.648113 0.107048
O O3 0.564126 0.733866 0.133018
O O4 0.500000 0.676811 0.000000
O O5 0.363188 0.207879 0.799079
O O6 0.598760 0.042420 0.446982
O O7 0.566026 0.059068 0.273667
O O8 0.798674 0.046878 0.340161
O O9 0.147975 0.083037 0.518533
O O10 0.985048 0.160767 0.577036
O O11 0.750000 0.952163 0.250000
O O12 0.899187 0.851638 0.282584
#
# Coordination Sequence:
#
# PCOD9328636 Si02
#       8
#    16   4   4   8   8  16  16  16
#     4  12  25  49  82 118 170 224 273 350 429 519
#     4  12  24  50  78 116 172 228 268 338 416 530
#     4  12  28  56  80 116 154 220 276 352 426 522
#     4  10  28  55  83 115 164 217 292 352 418 514
#     4  12  32  48  80 128 167 215 280 364 416 510
#     4  10  26  51  79 122 155 218 282 357 424 498
#     4  12  29  54  82 119 167 224 286 349 438 503
#     4  12  26  50  79 122 167 214 280 339 430 506
#
# _framework density 26.510743999999999
#
# number of rings (size 3 to 8) (size 9 to 14) (size 15 to 20)
#    0.545    0.000    3.636    2.182    7.636    2.545 
#    0.000    0.000    0.000    0.000    0.000    0.000 
#    0.000    0.000    0.000    0.000    0.000    0.000 
#
# Total GULP energy -122730.236760 kJ/mol
# GULP energy per Si atom -5578.647125 kJ/mol
# Density = 2.645040 g / cm^3
# Si number density = 26.510744 Si / 1000 Ang^3
#
#
#
# Elastic Constant Matrix: (Units=GPa)
#
#
# Indices 1 2 3 4 5 6 
#
# 1 156.3751 62.9444 61.0982 0.0000 0.0000 0.0000
# 2 62.9444 132.1486 64.9530 0.0000 0.0000 0.0000
# 3 61.0982 64.9530 213.6496 0.0000 0.0000 0.0000
# 4 0.0000 0.0000 0.0000 54.6738 0.0000 0.0000
# 5 0.0000 0.0000 0.0000 0.0000 63.0267 0.0000
# 6 0.0000 0.0000 0.0000 0.0000 0.0000 44.2333
#
#
#
# Elastic Compliance Matrix: (Units=1/GPa)
#
#
# Indices 1 2 3 4 5 6 
#
# 1 0.008238 -0.003252 -0.001367 0.000000 0.000000 0.000000
# 2 -0.003252 0.010180 -0.002165 0.000000 0.000000 0.000000
# 3 -0.001367 -0.002165 0.005730 0.000000 0.000000 0.000000
# 4 0.000000 0.000000 0.000000 0.018290 0.000000 0.000000
# 5 0.000000 0.000000 0.000000 0.000000 0.015866 0.000000
# 6 0.000000 0.000000 0.000000 0.000000 0.000000 0.022607
#
#
# Mechanical properties :
#
#
# Convention : Reuss Voigt Hill
#
# Bulk Modulus (GPa) = 94.51971 97.79604 96.15787
# Shear Modulus (GPa) = 51.01677 53.26527 52.14102
#
# Velocity S-wave (km/s) = 4.39154 4.48727 4.43966
# Velocity P-wave (km/s) = 7.83868 7.98854 7.91396
#
# Compressibility (1/GPa) = 0.01057980
#
# Stress axis : x y z
#
# Youngs Moduli (GPa) = 121.38821 98.22889 174.52743
#
# Poissons Ratio (x) = 0.31943 0.23862
# Poissons Ratio (y) = 0.39474 0.37786
# Poissons Ratio (z) = 0.16597 0.21267
#
# Static dielectric constant tensor:
#      x y z
#    x 2.186980 0.000000 0.000000 
#    y 0.000000 2.299330 0.000000 
#    z 0.000000 0.000000 2.026630 
# 
# From -- ./inp_files/35303.got.cif
#   From: 2010.05.17/outbox.cif.g08.bks.cpg/sg22_18_cif.got.tgz:35303.got - 2010.06.03 23:40:54.
