data_PCOD9328700
_publ_section_title
;
Structure prediction by ZEFSAII (Michael W. Deem and Ramdas Pophale) SiO2 
 PCOD9328700
Probable space group: F 2 2 2
;
_chemical_formula_sum "Si O2"
_cell_formula_units_Z 92
_cell_length_a 14.675490
_cell_length_b 19.343989
_cell_length_c 16.821781
_cell_angle_alpha 90.000000
_cell_angle_beta 90.000000
_cell_angle_gamma 90.000000
_cell_volume 4775.409533
_symmetry_space_group_name_H-M "F 2 2 2"
_symmetry_group_IT_number 22
_symmetry_cell_setting 'orthorhombic'
loop_
_space_group_symop_operation_xyz
x,y,z
-x,-y,z
x,-y,-z
-x,y,-z
x,1/2+y,1/2+z
-x,1/2-y,1/2+z
x,1/2-y,1/2-z
-x,1/2+y,1/2-z
1/2+x,y,1/2+z
1/2-x,-y,1/2+z
1/2+x,-y,1/2-z
1/2-x,y,1/2-z
1/2+x,1/2+y,z
1/2-x,1/2-y,z
1/2+x,1/2-y,-z
1/2-x,1/2+y,-z
loop_
_atom_site_type_symbol
_atom_site_label
_atom_site_fract_x
_atom_site_fract_y
_atom_site_fract_z
Si Si1 0.250000 0.750000 0.963580
Si Si2 0.270241 0.369233 0.907542
Si Si3 0.437700 0.380437 0.621865
Si Si4 0.000000 0.500000 0.000000
Si Si5 0.055064 0.364438 0.693425
Si Si6 0.542631 0.741405 0.081851
Si Si7 0.656367 0.000000 0.500000
Si Si8 0.500000 0.500000 0.106681
O O1 0.348251 0.754589 0.919678
O O2 0.266437 0.684839 0.020662
O O3 0.169960 0.369898 0.873052
O O4 0.343740 0.347087 0.840753
O O5 0.290498 0.443605 0.948951
O O6 0.453197 0.446254 0.563224
O O7 0.464839 0.378329 0.714475
O O8 0.490417 0.314385 0.587503
O O9 0.041773 0.439168 0.655683
O O10 0.988802 0.307608 0.654116
O O11 0.500000 0.709312 0.000000
O O12 0.582301 0.964433 0.442270
#
# Coordination Sequence:
#
# PCOD9328700 Si02
#       8
#     8  16  16   4  16  16   8   8
#     4  12  22  38  66  92 124 166 216 254 318 392
#     4  11  20  36  61  93 126 162 210 266 322 383
#     4  12  24  42  62  93 126 172 218 271 323 387
#     4  12  24  44  68  84 134 180 226 262 330 402
#     4  11  23  39  64  93 133 165 212 276 326 378
#     4  12  23  42  64  95 126 168 214 261 323 391
#     4   9  19  32  59  89 122 162 207 261 306 386
#     4   9  19  36  57  91 124 164 210 254 326 373
#
# _framework density 19.265363000000001
#
# number of rings (size 3 to 8) (size 9 to 14) (size 15 to 20)
#    0.000    0.870    4.348    3.130    2.435    0.000 
#    0.000    4.348    0.000    0.000    0.000    0.000 
#    0.000    0.000    0.000    0.000    0.000    0.000 
#
# Total GULP energy -128065.742081 kJ/mol
# GULP energy per Si atom -5568.075743 kJ/mol
# Density = 1.922151 g / cm^3
# Si number density = 19.265363 Si / 1000 Ang^3
#
#
#
# Elastic Constant Matrix: (Units=GPa)
#
#
# Indices 1 2 3 4 5 6 
#
# 1 100.5745 19.2488 32.6932 0.0000 0.0000 0.0000
# 2 19.2488 65.9742 17.3931 0.0000 0.0000 0.0000
# 3 32.6932 17.3931 107.0478 0.0000 0.0000 0.0000
# 4 0.0000 0.0000 0.0000 22.5610 0.0000 0.0000
# 5 0.0000 0.0000 0.0000 0.0000 33.6419 0.0000
# 6 0.0000 0.0000 0.0000 0.0000 0.0000 23.8797
#
#
#
# Elastic Compliance Matrix: (Units=1/GPa)
#
#
# Indices 1 2 3 4 5 6 
#
# 1 0.011427 -0.002522 -0.003080 0.000000 0.000000 0.000000
# 2 -0.002522 0.016392 -0.001893 0.000000 0.000000 0.000000
# 3 -0.003080 -0.001893 0.010590 0.000000 0.000000 0.000000
# 4 0.000000 0.000000 0.000000 0.044324 0.000000 0.000000
# 5 0.000000 0.000000 0.000000 0.000000 0.029725 0.000000
# 6 0.000000 0.000000 0.000000 0.000000 0.000000 0.041877
#
#
# Mechanical properties :
#
#
# Convention : Reuss Voigt Hill
#
# Bulk Modulus (GPa) = 42.70097 45.80741 44.25419
# Shear Modulus (GPa) = 28.22766 29.63395 28.93080
#
# Velocity S-wave (km/s) = 3.83195 3.92624 3.87938
# Velocity P-wave (km/s) = 6.46461 6.66202 6.56406
#
# Compressibility (1/GPa) = 0.02341867
#
# Stress axis : x y z
#
# Youngs Moduli (GPa) = 87.51388 61.00405 94.42956
#
# Poissons Ratio (x) = 0.15385 0.29085
# Poissons Ratio (y) = 0.22070 0.17878
# Poissons Ratio (z) = 0.26955 0.11549
#
# Static dielectric constant tensor:
#      x y z
#    x 1.614930 0.000000 0.000000 
#    y 0.000000 1.665080 0.000000 
#    z 0.000000 0.000000 1.796330 
# 
# From -- ./inp_files/29449.got.cif
#   From: 2010.05.17/outbox.cif.g08.bks.cpg/sg22_15_cif.got.tgz:29449.got - 2010.06.03 23:40:54.
