data_PCOD9328771
_publ_section_title
;
Structure prediction by ZEFSAII (Michael W. Deem and Ramdas Pophale) SiO2 
 PCOD9328771
Probable space group: F 2 2 2
;
_chemical_formula_sum "Si O2"
_cell_formula_units_Z 96
_cell_length_a 14.489661
_cell_length_b 22.140704
_cell_length_c 15.441932
_cell_angle_alpha 90.000000
_cell_angle_beta 90.000000
_cell_angle_gamma 90.000000
_cell_volume 4953.946206
_symmetry_space_group_name_H-M "F 2 2 2"
_symmetry_group_IT_number 22
_symmetry_cell_setting 'orthorhombic'
loop_
_space_group_symop_operation_xyz
x,y,z
-x,-y,z
x,-y,-z
-x,y,-z
x,1/2+y,1/2+z
-x,1/2-y,1/2+z
x,1/2-y,1/2-z
-x,1/2+y,1/2-z
1/2+x,y,1/2+z
1/2-x,-y,1/2+z
1/2+x,-y,1/2-z
1/2-x,y,1/2-z
1/2+x,1/2+y,z
1/2-x,1/2-y,z
1/2+x,1/2-y,-z
1/2-x,1/2+y,-z
loop_
_atom_site_type_symbol
_atom_site_label
_atom_site_fract_x
_atom_site_fract_y
_atom_site_fract_z
Si Si1 0.750000 0.084408 0.250000
Si Si2 0.000000 0.691291 0.000000
Si Si3 0.890385 0.989366 0.641020
Si Si4 0.658613 0.595050 0.474895
Si Si5 0.977693 0.277950 0.662642
Si Si6 0.310864 0.190098 0.444143
Si Si7 0.678999 0.305261 0.144287
O O1 0.834750 0.042027 0.280668
O O2 0.724864 0.131656 0.327019
O O3 0.911712 0.649234 0.008485
O O4 0.999160 0.728876 0.088447
O O5 0.862624 0.947439 0.557959
O O6 0.858343 0.055209 0.610160
O O7 0.000000 0.000000 0.653622
O O8 0.753476 0.629128 0.456361
O O9 0.938029 0.250000 0.750000
O O10 0.898292 0.317592 0.618178
O O11 0.077868 0.304550 0.687595
O O12 0.250000 0.250000 0.418732
O O13 0.341650 0.201549 0.542709
O O14 0.750000 0.250000 0.162746
#
# Coordination Sequence:
#
# PCOD9328771 Si02
#       7
#     8   8  16  16  16  16  16
#     4  12  25  42  66  98 133 164 234 292 328 402
#     4  12  20  41  66  94 132 173 224 276 322 402
#     4  11  24  43  68  94 123 175 238 286 333 387
#     4  11  21  42  69  90 123 178 227 282 328 397
#     4  12  25  38  64 105 139 180 217 265 352 420
#     4  11  21  41  65  95 140 177 214 269 347 412
#     4  11  22  41  68 100 132 175 224 285 340 400
#
# _framework density 19.378491
#
# number of rings (size 3 to 8) (size 9 to 14) (size 15 to 20)
#    0.000    0.667    6.667    2.750    2.333    0.333 
#    6.000    0.000    0.000    0.000    0.000    0.000 
#    0.000    0.000    0.000    0.000    0.000    0.000 
#
# Total GULP energy -133729.387844 kJ/mol
# GULP energy per Si atom -5572.057827 kJ/mol
# Density = 1.933438 g / cm^3
# Si number density = 19.378491 Si / 1000 Ang^3
#
#
#
# Elastic Constant Matrix: (Units=GPa)
#
#
# Indices 1 2 3 4 5 6 
#
# 1 138.3502 45.9432 39.5717 0.0000 0.0000 0.0000
# 2 45.9432 68.0456 27.1797 0.0000 0.0000 0.0000
# 3 39.5717 27.1797 85.3335 0.0000 0.0000 0.0000
# 4 0.0000 0.0000 0.0000 12.6946 0.0000 0.0000
# 5 0.0000 0.0000 0.0000 0.0000 13.8496 0.0000
# 6 0.0000 0.0000 0.0000 0.0000 0.0000 26.6431
#
#
#
# Elastic Compliance Matrix: (Units=1/GPa)
#
#
# Indices 1 2 3 4 5 6 
#
# 1 0.009873 -0.005543 -0.002813 0.000000 0.000000 0.000000
# 2 -0.005543 0.019950 -0.003784 0.000000 0.000000 0.000000
# 3 -0.002813 -0.003784 0.014228 0.000000 0.000000 0.000000
# 4 0.000000 0.000000 0.000000 0.078774 0.000000 0.000000
# 5 0.000000 0.000000 0.000000 0.000000 0.072204 0.000000
# 6 0.000000 0.000000 0.000000 0.000000 0.000000 0.037533
#
#
# Mechanical properties :
#
#
# Convention : Reuss Voigt Hill
#
# Bulk Modulus (GPa) = 50.57632 57.45762 54.01697
# Shear Modulus (GPa) = 18.98017 22.57310 20.77663
#
# Velocity S-wave (km/s) = 3.13300 3.41670 3.27792
# Velocity P-wave (km/s) = 6.26446 6.72902 6.50089
#
# Compressibility (1/GPa) = 0.01977210
#
# Stress axis : x y z
#
# Youngs Moduli (GPa) = 101.28387 50.12600 70.28150
#
# Poissons Ratio (x) = 0.27783 0.19771
# Poissons Ratio (y) = 0.56137 0.26594
# Poissons Ratio (z) = 0.28493 0.18967
#
# Static dielectric constant tensor:
#      x y z
#    x 1.728500 0.000000 0.000000 
#    y 0.000000 1.719080 0.000000 
#    z 0.000000 0.000000 1.681250 
# 
# From -- ./inp_files/29396.got.cif
#   From: 2010.05.17/outbox.cif.g08.bks.cpg/sg22_15_cif.got.tgz:29396.got - 2010.06.03 23:40:54.
