data_PCOD9328032
_publ_section_title
;
Structure prediction by ZEFSAII (Michael W. Deem and Ramdas Pophale) SiO2 
 PCOD9328032
Probable space group: F 2 2 2
;
_chemical_formula_sum "Si O2"
_cell_formula_units_Z 84
_cell_length_a 11.710780
_cell_length_b 15.492282
_cell_length_c 23.098733
_cell_angle_alpha 90.000000
_cell_angle_beta 90.000000
_cell_angle_gamma 90.000000
_cell_volume 4190.727046
_symmetry_space_group_name_H-M "F 2 2 2"
_symmetry_group_IT_number 22
_symmetry_cell_setting 'orthorhombic'
loop_
_space_group_symop_operation_xyz
x,y,z
-x,-y,z
x,-y,-z
-x,y,-z
x,1/2+y,1/2+z
-x,1/2-y,1/2+z
x,1/2-y,1/2-z
-x,1/2+y,1/2-z
1/2+x,y,1/2+z
1/2-x,-y,1/2+z
1/2+x,-y,1/2-z
1/2-x,y,1/2-z
1/2+x,1/2+y,z
1/2-x,1/2-y,z
1/2+x,1/2-y,-z
1/2-x,1/2+y,-z
loop_
_atom_site_type_symbol
_atom_site_label
_atom_site_fract_x
_atom_site_fract_y
_atom_site_fract_z
Si Si1 0.250000 0.750000 0.750000
Si Si2 0.306519 0.000000 0.000000
Si Si3 0.040974 0.841216 0.802122
Si Si4 0.380843 0.123223 0.533827
Si Si5 0.062065 0.659988 0.176448
Si Si6 0.750000 0.750000 0.613904
Si Si7 0.500000 0.000000 0.902475
Si Si8 0.000000 0.500000 0.381722
O O1 0.166848 0.812617 0.784517
O O2 0.225811 0.915010 0.998129
O O3 0.389543 0.998481 0.055713
O O4 0.992126 0.755061 0.831872
O O5 0.964390 0.857780 0.744278
O O6 0.044301 0.923372 0.842103
O O7 0.500000 0.138537 0.500000
O O8 0.339553 0.204305 0.570943
O O9 0.407471 0.044504 0.577446
O O10 0.191051 0.677766 0.154768
O O11 0.007567 0.584682 0.138033
#
# Coordination Sequence:
#
# PCOD9328032 Si02
#       8
#     4   8  16  16  16   8   8   8
#     4   8  20  44  58  90 140 160 216 268 316 394
#     4  11  23  42  64 100 135 169 228 290 320 419
#     4  10  23  42  65  97 135 167 226 271 326 418
#     4  12  25  45  68  96 135 175 230 279 342 403
#     4  10  22  42  64  97 135 171 218 273 333 405
#     4  12  24  45  69 100 132 179 219 288 338 404
#     4  11  23  40  71  99 138 179 219 278 358 380
#     4  12  22  44  69  93 132 180 218 270 344 392
#
# _framework density 20.044253999999999
#
# number of rings (size 3 to 8) (size 9 to 14) (size 15 to 20)
#    0.000    1.333    5.714    0.571    0.000    6.095 
#    3.429    0.000    0.000    0.000    0.000    0.000 
#    0.000    0.000    0.000    0.000    0.000    0.000 
#
# Total GULP energy -117154.550715 kJ/mol
# GULP energy per Si atom -5578.788129 kJ/mol
# Density = 1.999863 g / cm^3
# Si number density = 20.044254 Si / 1000 Ang^3
#
#
#
# Elastic Constant Matrix: (Units=GPa)
#
#
# Indices 1 2 3 4 5 6 
#
# 1 107.7951 27.5262 59.8726 0.0000 0.0000 0.0000
# 2 27.5262 100.4005 70.4663 0.0000 0.0000 0.0000
# 3 59.8726 70.4663 110.5945 0.0000 0.0000 0.0000
# 4 0.0000 0.0000 0.0000 45.3641 0.0000 0.0000
# 5 0.0000 0.0000 0.0000 0.0000 82.3521 0.0000
# 6 0.0000 0.0000 0.0000 0.0000 0.0000 17.3617
#
#
#
# Elastic Compliance Matrix: (Units=1/GPa)
#
#
# Indices 1 2 3 4 5 6 
#
# 1 0.013633 0.002609 -0.009043 0.000000 0.000000 0.000000
# 2 0.002609 0.018517 -0.013211 0.000000 0.000000 0.000000
# 3 -0.009043 -0.013211 0.022355 0.000000 0.000000 0.000000
# 4 0.000000 0.000000 0.000000 0.022044 0.000000 0.000000
# 5 0.000000 0.000000 0.000000 0.000000 0.012143 0.000000
# 6 0.000000 0.000000 0.000000 0.000000 0.000000 0.057598
#
#
# Mechanical properties :
#
#
# Convention : Reuss Voigt Hill
#
# Bulk Modulus (GPa) = 65.72078 70.50228 68.11153
# Shear Modulus (GPa) = 26.22590 39.74391 32.98490
#
# Velocity S-wave (km/s) = 3.62111 4.45770 4.06101
# Velocity P-wave (km/s) = 7.09523 7.85777 7.48621
#
# Compressibility (1/GPa) = 0.01521589
#
# Stress axis : x y z
#
# Youngs Moduli (GPa) = 73.34894 54.00548 44.73266
#
# Poissons Ratio (x) = -0.14091 0.40453
# Poissons Ratio (y) = -0.19138 0.59095
# Poissons Ratio (z) = 0.66331 0.71344
#
# Static dielectric constant tensor:
#      x y z
#    x 1.697640 0.000000 0.000000 
#    y 0.000000 1.564990 0.000000 
#    z 0.000000 0.000000 1.768130 
# 
# From -- ./inp_files/20018.got.cif
#   From: 2010.05.17/outbox.cif.g08.bks.cpg/sg22_11_cif.got.tgz:20018.got - 2010.06.03 23:40:54.
