data_PCOD9328603
_publ_section_title
;
Structure prediction by ZEFSAII (Michael W. Deem and Ramdas Pophale) SiO2 
 PCOD9328603
Probable space group: F 2 2 2
;
_chemical_formula_sum "Si O2"
_cell_formula_units_Z 44
_cell_length_a 5.141820
_cell_length_b 13.802380
_cell_length_c 24.576599
_cell_angle_alpha 90.000000
_cell_angle_beta 90.000000
_cell_angle_gamma 90.000000
_cell_volume 1744.185343
_symmetry_space_group_name_H-M "F 2 2 2"
_symmetry_group_IT_number 22
_symmetry_cell_setting 'orthorhombic'
loop_
_space_group_symop_operation_xyz
x,y,z
-x,-y,z
x,-y,-z
-x,y,-z
x,1/2+y,1/2+z
-x,1/2-y,1/2+z
x,1/2-y,1/2-z
-x,1/2+y,1/2-z
1/2+x,y,1/2+z
1/2-x,-y,1/2+z
1/2+x,-y,1/2-z
1/2-x,y,1/2-z
1/2+x,1/2+y,z
1/2-x,1/2-y,z
1/2+x,1/2-y,-z
1/2-x,1/2+y,-z
loop_
_atom_site_type_symbol
_atom_site_label
_atom_site_fract_x
_atom_site_fract_y
_atom_site_fract_z
Si Si1 0.248520 0.861667 0.461839
Si Si2 0.650444 0.350346 0.812245
Si Si3 0.500000 0.000000 0.875642
Si Si4 0.750000 0.750000 0.750000
O O1 0.500000 0.879999 0.500000
O O2 0.250000 0.750000 0.442970
O O3 0.000000 0.872339 0.500000
O O4 0.187112 0.932817 0.412666
O O5 0.750000 0.350970 0.750000
O O6 0.750000 0.250000 0.839008
O O7 0.791561 0.436907 0.841988
O O8 0.355099 0.328044 0.795663
#
# Coordination Sequence:
#
# PCOD9328603 Si02
#       4
#    16  16   8   4
#     4  10  25  54  81 115 164 206 264 343 410 486
#     4   9  22  51  73 117 165 214 262 332 399 493
#     4  12  25  50  88 120 152 218 279 326 418 492
#     4   8  18  52  84  98 192 212 256 348 410 468
#
# _framework density 25.226679000000001
#
# number of rings (size 3 to 8) (size 9 to 14) (size 15 to 20)
#    0.000    2.545    0.000    0.545    0.000    7.273 
#   52.364    7.273    0.000    0.000    0.000    0.000 
#    0.000    0.000    0.000    0.000    0.000    0.000 
#
# Total GULP energy -61338.113123 kJ/mol
# GULP energy per Si atom -5576.192102 kJ/mol
# Density = 2.516926 g / cm^3
# Si number density = 25.226679 Si / 1000 Ang^3
#
#
#
# Elastic Constant Matrix: (Units=GPa)
#
#
# Indices 1 2 3 4 5 6 
#
# 1 142.1705 71.4821 58.4577 0.0000 0.0000 0.0000
# 2 71.4821 224.0932 123.7350 0.0000 0.0000 0.0000
# 3 58.4577 123.7350 129.0317 0.0000 0.0000 0.0000
# 4 0.0000 0.0000 0.0000 55.9129 0.0000 0.0000
# 5 0.0000 0.0000 0.0000 0.0000 27.0426 0.0000
# 6 0.0000 0.0000 0.0000 0.0000 0.0000 62.2738
#
#
#
# Elastic Compliance Matrix: (Units=1/GPa)
#
#
# Indices 1 2 3 4 5 6 
#
# 1 0.008816 -0.001290 -0.002757 0.000000 0.000000 0.000000
# 2 -0.001290 0.009673 -0.008692 0.000000 0.000000 0.000000
# 3 -0.002757 -0.008692 0.017334 0.000000 0.000000 0.000000
# 4 0.000000 0.000000 0.000000 0.017885 0.000000 0.000000
# 5 0.000000 0.000000 0.000000 0.000000 0.036979 0.000000
# 6 0.000000 0.000000 0.000000 0.000000 0.000000 0.016058
#
#
# Mechanical properties :
#
#
# Convention : Reuss Voigt Hill
#
# Bulk Modulus (GPa) = 96.65778 111.40500 104.03139
# Shear Modulus (GPa) = 36.85396 45.15390 41.00393
#
# Velocity S-wave (km/s) = 3.82633 4.23534 4.03602
# Velocity P-wave (km/s) = 7.61052 8.25681 7.94024
#
# Compressibility (1/GPa) = 0.01034578
#
# Stress axis : x y z
#
# Youngs Moduli (GPa) = 113.42995 103.38102 57.68987
#
# Poissons Ratio (x) = 0.13333 0.15907
# Poissons Ratio (y) = 0.14629 0.50142
# Poissons Ratio (z) = 0.31277 0.89855
#
# Static dielectric constant tensor:
#      x y z
#    x 2.532890 0.000000 0.000000 
#    y 0.000000 2.246130 0.000000 
#    z 0.000000 0.000000 1.878940 
# 
# From -- ./inp_files/50897.got.cif
#   From: 2010.05.17/outbox.cif.g08.bks.cpg/sg22_26_cif.got.tgz:50897.got - 2010.06.03 23:40:54.
