data_PCOD9328048
_publ_section_title
;
Structure prediction by ZEFSAII (Michael W. Deem and Ramdas Pophale) SiO2 
 PCOD9328048
Probable space group: F 2 2 2
;
_chemical_formula_sum "Si O2"
_cell_formula_units_Z 92
_cell_length_a 21.068058
_cell_length_b 29.145269
_cell_length_c 8.054782
_cell_angle_alpha 90.000000
_cell_angle_beta 90.000000
_cell_angle_gamma 90.000000
_cell_volume 4945.911764
_symmetry_space_group_name_H-M "F 2 2 2"
_symmetry_group_IT_number 22
_symmetry_cell_setting 'orthorhombic'
loop_
_space_group_symop_operation_xyz
x,y,z
-x,-y,z
x,-y,-z
-x,y,-z
x,1/2+y,1/2+z
-x,1/2-y,1/2+z
x,1/2-y,1/2-z
-x,1/2+y,1/2-z
1/2+x,y,1/2+z
1/2-x,-y,1/2+z
1/2+x,-y,1/2-z
1/2-x,y,1/2-z
1/2+x,1/2+y,z
1/2-x,1/2-y,z
1/2+x,1/2-y,-z
1/2-x,1/2+y,-z
loop_
_atom_site_type_symbol
_atom_site_label
_atom_site_fract_x
_atom_site_fract_y
_atom_site_fract_z
Si Si1 0.482826 0.444853 0.250397
Si Si2 0.138155 0.566878 0.603123
Si Si3 0.678044 0.471614 0.233371
Si Si4 0.099633 0.088474 0.568094
Si Si5 0.205330 0.838400 0.402173
Si Si6 0.250000 0.873194 0.750000
Si Si7 0.250000 0.750000 0.250000
O O1 0.500000 0.500000 0.247993
O O2 0.437733 0.426455 0.102975
O O3 0.438749 0.427801 0.406287
O O4 0.548862 0.419347 0.285151
O O5 0.140220 0.516396 0.683680
O O6 0.167879 0.562802 0.420663
O O7 0.185869 0.597860 0.710960
O O8 0.750000 0.485445 0.250000
O O9 0.654744 0.448445 0.400165
O O10 0.137179 0.136404 0.583223
O O11 0.250000 0.857901 0.250000
O O12 0.237527 0.845852 0.580563
O O13 0.206558 0.784545 0.357161
#
# Coordination Sequence:
#
# PCOD9328048 Si02
#       7
#    16  16  16  16  16   8   4
#     4  11  23  36  53  85 128 180 214 247 285 356
#     4  11  23  35  50  86 121 167 221 253 299 357
#     4  11  23  35  52  79 124 170 213 271 302 340
#     4  11  20  36  59  80 117 167 211 249 302 369
#     4  10  22  42  67  96 120 149 203 269 344 410
#     4  12  20  37  65  92 124 156 209 269 312 394
#     4   8  24  46  66 104 118 144 194 276 380 420
#
# _framework density 18.601222
#
# number of rings (size 3 to 8) (size 9 to 14) (size 15 to 20)
#    0.522    0.696    4.348    3.652    0.000    1.043 
#    0.000    0.000    0.000    0.000    9.043    0.000 
#    0.000    0.000    0.000    0.000    0.000    0.000 
#
# Total GULP energy -128112.647714 kJ/mol
# GULP energy per Si atom -5570.115118 kJ/mol
# Density = 1.855888 g / cm^3
# Si number density = 18.601222 Si / 1000 Ang^3
#
#
#
# Elastic Constant Matrix: (Units=GPa)
#
#
# Indices 1 2 3 4 5 6 
#
# 1 107.4778 35.0860 16.6413 -0.0001 0.0000 -0.0001
# 2 35.0860 96.8627 31.9199 0.0000 0.0000 0.0000
# 3 16.6413 31.9199 97.5701 0.0001 -0.0003 0.0000
# 4 -0.0001 0.0000 0.0001 15.9351 0.0000 0.0000
# 5 0.0000 0.0000 -0.0003 0.0000 30.0081 0.0000
# 6 -0.0001 0.0000 0.0000 0.0000 0.0000 22.5351
#
#
#
# Elastic Compliance Matrix: (Units=1/GPa)
#
#
# Indices 1 2 3 4 5 6 
#
# 1 0.010585 -0.003631 -0.000618 0.000000 0.000000 0.000000
# 2 -0.003631 0.012817 -0.003574 0.000000 0.000000 0.000000
# 3 -0.000618 -0.003574 0.011524 0.000000 0.000000 0.000000
# 4 0.000000 0.000000 0.000000 0.062754 0.000000 0.000000
# 5 0.000000 0.000000 0.000000 0.000000 0.033324 0.000000
# 6 0.000000 0.000000 0.000000 0.000000 0.000000 0.044375
#
#
# Mechanical properties :
#
#
# Convention : Reuss Voigt Hill
#
# Bulk Modulus (GPa) = 51.86361 52.13387 51.99874
# Shear Modulus (GPa) = 25.32283 28.24657 26.78470
#
# Velocity S-wave (km/s) = 3.69365 3.90106 3.79877
# Velocity P-wave (km/s) = 6.79214 6.95550 6.87431
#
# Compressibility (1/GPa) = 0.01928134
#
# Stress axis : x y z
#
# Youngs Moduli (GPa) = 94.47248 78.02333 86.77904
#
# Poissons Ratio (x) = 0.28328 0.05359
# Poissons Ratio (y) = 0.34300 0.31012
# Poissons Ratio (z) = 0.05835 0.27883
#
# Static dielectric constant tensor:
#      x y z
#    x 1.708300 0.000000 0.000000 
#    y 0.000000 1.628050 0.000000 
#    z 0.000000 0.000000 1.795240 
# 
# From -- ./inp_files/13033.got.cif
#   From: 2010.05.17/outbox.cif.g08.bks.cpg/sg22_7_cif.got.tgz:13033.got - 2010.06.03 23:40:54.
