data_PCOD9328208
_publ_section_title
;
Structure prediction by ZEFSAII (Michael W. Deem and Ramdas Pophale) SiO2 
 PCOD9328208
Probable space group: F 2 2 2
;
_chemical_formula_sum "Si O2"
_cell_formula_units_Z 92
_cell_length_a 18.434945
_cell_length_b 30.147906
_cell_length_c 8.291639
_cell_angle_alpha 90.000000
_cell_angle_beta 90.000000
_cell_angle_gamma 90.000000
_cell_volume 4608.285574
_symmetry_space_group_name_H-M "F 2 2 2"
_symmetry_group_IT_number 22
_symmetry_cell_setting 'orthorhombic'
loop_
_space_group_symop_operation_xyz
x,y,z
-x,-y,z
x,-y,-z
-x,y,-z
x,1/2+y,1/2+z
-x,1/2-y,1/2+z
x,1/2-y,1/2-z
-x,1/2+y,1/2-z
1/2+x,y,1/2+z
1/2-x,-y,1/2+z
1/2+x,-y,1/2-z
1/2-x,y,1/2-z
1/2+x,1/2+y,z
1/2-x,1/2-y,z
1/2+x,1/2-y,-z
1/2-x,1/2+y,-z
loop_
_atom_site_type_symbol
_atom_site_label
_atom_site_fract_x
_atom_site_fract_y
_atom_site_fract_z
Si Si1 0.568649 0.658303 0.596619
Si Si2 0.579386 0.109956 0.441060
Si Si3 0.221595 0.450576 0.567084
Si Si4 0.908891 0.250000 0.250000
Si Si5 0.786014 0.631550 0.071490
Si Si6 0.164485 0.689258 0.509091
Si Si7 0.250000 0.750000 0.750000
O O1 0.500000 0.641450 0.500000
O O2 0.579546 0.629517 0.759043
O O3 0.553797 0.709431 0.653135
O O4 0.637240 0.652418 0.476418
O O5 0.500000 0.095155 0.500000
O O6 0.642897 0.073414 0.452049
O O7 0.601828 0.153556 0.547392
O O8 0.218229 0.500000 0.500000
O O9 0.250000 0.450621 0.750000
O O10 0.278872 0.420002 0.469876
O O11 0.861080 0.277162 0.374999
O O12 0.750000 0.636337 0.250000
O O13 0.730345 0.657795 0.955128
O O14 0.197070 0.719378 0.647522
#
# Coordination Sequence:
#
# PCOD9328208 Si02
#       7
#    16  16  16   8  16  16   4
#     4  11  25  43  65  92 138 184 235 278 341 408
#     4  10  24  44  67  95 136 182 219 273 349 424
#     4  11  23  45  75 103 131 163 219 281 348 418
#     4  10  24  41  59  90 132 180 220 294 325 379
#     4  11  23  42  65  98 128 174 223 280 338 410
#     4  10  23  37  60  90 128 173 230 278 338 385
#     4  12  20  34  58  96 126 166 234 292 312 388
#
# _framework density 19.964041000000002
#
# number of rings (size 3 to 8) (size 9 to 14) (size 15 to 20)
#    0.000    1.391    2.609    1.565    4.870    6.957 
#    0.000    0.870    0.000    0.522    0.000    0.000 
#    0.000    0.000    0.000    0.000    0.000    0.000 
#
# Total GULP energy -128269.832126 kJ/mol
# GULP energy per Si atom -5576.949223 kJ/mol
# Density = 1.991860 g / cm^3
# Si number density = 19.964041 Si / 1000 Ang^3
#
#
#
# Elastic Constant Matrix: (Units=GPa)
#
#
# Indices 1 2 3 4 5 6 
#
# 1 74.0424 1.7503 6.7065 0.0000 0.0001 0.0001
# 2 1.7503 116.8773 17.9472 0.0000 0.0001 0.0001
# 3 6.7065 17.9472 80.5708 0.0000 0.0004 0.0003
# 4 0.0000 0.0000 0.0000 27.0494 0.0000 0.0000
# 5 0.0001 0.0001 0.0004 0.0000 32.7582 -0.0002
# 6 0.0001 0.0001 0.0003 0.0000 -0.0002 24.8693
#
#
#
# Elastic Compliance Matrix: (Units=1/GPa)
#
#
# Indices 1 2 3 4 5 6 
#
# 1 0.013608 -0.000031 -0.001126 0.000000 0.000000 0.000000
# 2 -0.000031 0.008859 -0.001971 0.000000 0.000000 0.000000
# 3 -0.001126 -0.001971 0.012944 0.000000 0.000000 0.000000
# 4 0.000000 0.000000 0.000000 0.036969 0.000000 0.000000
# 5 0.000000 0.000000 0.000000 0.000000 0.030527 0.000000
# 6 0.000000 0.000000 0.000000 0.000000 0.000000 0.040210
#
#
# Mechanical properties :
#
#
# Convention : Reuss Voigt Hill
#
# Bulk Modulus (GPa) = 34.29757 36.03319 35.16538
# Shear Modulus (GPa) = 31.42836 33.27448 32.35142
#
# Velocity S-wave (km/s) = 3.97198 4.08698 4.02989
# Velocity P-wave (km/s) = 6.18486 6.35291 6.26945
#
# Compressibility (1/GPa) = 0.02915658
#
# Stress axis : x y z
#
# Youngs Moduli (GPa) = 73.48358 112.87871 77.25501
#
# Poissons Ratio (x) = 0.00349 0.08698
# Poissons Ratio (y) = 0.00227 0.15225
# Poissons Ratio (z) = 0.08273 0.22246
#
# Static dielectric constant tensor:
#      x y z
#    x 1.718790 0.000000 0.000000 
#    y 0.000000 1.688840 0.000000 
#    z 0.000000 0.000000 1.721700 
# 
# From -- ./inp_files/12888.got.cif
#   From: 2010.05.17/outbox.cif.g08.bks.cpg/sg22_7_cif.got.tgz:12888.got - 2010.06.03 23:40:54.
