data_PCOD9328598
_publ_section_title
;
Structure prediction by ZEFSAII (Michael W. Deem and Ramdas Pophale) SiO2 
 PCOD9328598
Probable space group: F 2 2 2
;
_chemical_formula_sum "Si O2"
_cell_formula_units_Z 64
_cell_length_a 12.716998
_cell_length_b 20.951517
_cell_length_c 9.525996
_cell_angle_alpha 90.000000
_cell_angle_beta 90.000000
_cell_angle_gamma 90.000000
_cell_volume 2538.110183
_symmetry_space_group_name_H-M "F 2 2 2"
_symmetry_group_IT_number 22
_symmetry_cell_setting 'orthorhombic'
loop_
_space_group_symop_operation_xyz
x,y,z
-x,-y,z
x,-y,-z
-x,y,-z
x,1/2+y,1/2+z
-x,1/2-y,1/2+z
x,1/2-y,1/2-z
-x,1/2+y,1/2-z
1/2+x,y,1/2+z
1/2-x,-y,1/2+z
1/2+x,-y,1/2-z
1/2-x,y,1/2-z
1/2+x,1/2+y,z
1/2-x,1/2-y,z
1/2+x,1/2-y,-z
1/2-x,1/2+y,-z
loop_
_atom_site_type_symbol
_atom_site_label
_atom_site_fract_x
_atom_site_fract_y
_atom_site_fract_z
Si Si1 0.414621 0.904571 0.881035
Si Si2 0.396838 0.893212 0.321467
Si Si3 0.500000 0.806167 0.500000
Si Si4 0.351251 0.295157 0.578445
Si Si5 0.250000 0.994956 0.750000
O O1 0.484956 0.901079 0.740629
O O2 0.319013 0.951901 0.854045
O O3 0.500000 0.924755 0.000000
O O4 0.369833 0.837086 0.937713
O O5 0.406645 0.857257 0.469358
O O6 0.349420 0.847513 0.200274
O O7 0.332620 0.957932 0.325523
O O8 0.550083 0.752212 0.601729
O O9 0.250000 0.250000 0.571642
#
# Coordination Sequence:
#
# PCOD9328598 Si02
#       5
#    16  16   8  16   8
#     4  10  25  51  76 114 159 205 251 332 383 454
#     4  11  25  48  72 114 149 202 253 325 385 453
#     4  12  24  46  75 105 152 186 246 324 386 464
#     4  11  24  46  80 109 150 199 253 316 399 464
#     4  12  26  48  80 106 156 206 270 294 394 484
#
# _framework density 25.215612
#
# number of rings (size 3 to 8) (size 9 to 14) (size 15 to 20)
#    0.000    1.000    3.750    3.000    3.500    8.000 
#    9.000    1.250    0.000    0.000    0.000    0.000 
#    0.000    0.000    0.000    0.000    0.000    0.000 
#
# Total GULP energy -89142.069427 kJ/mol
# GULP energy per Si atom -5571.379339 kJ/mol
# Density = 2.515822 g / cm^3
# Si number density = 25.215612 Si / 1000 Ang^3
#
#
#
# Elastic Constant Matrix: (Units=GPa)
#
#
# Indices 1 2 3 4 5 6 
#
# 1 144.0782 99.1609 70.8061 0.0000 0.0000 0.0000
# 2 99.1609 181.8106 55.1856 0.0000 0.0000 0.0000
# 3 70.8061 55.1856 82.6202 0.0000 0.0000 0.0000
# 4 0.0000 0.0000 0.0000 24.4086 0.0000 0.0000
# 5 0.0000 0.0000 0.0000 0.0000 12.5090 0.0000
# 6 0.0000 0.0000 0.0000 0.0000 0.0000 75.2005
#
#
#
# Elastic Compliance Matrix: (Units=1/GPa)
#
#
# Indices 1 2 3 4 5 6 
#
# 1 0.015423 -0.005519 -0.009531 0.000000 0.000000 0.000000
# 2 -0.005519 0.008874 -0.001198 0.000000 0.000000 0.000000
# 3 -0.009531 -0.001198 0.021072 0.000000 0.000000 0.000000
# 4 0.000000 0.000000 0.000000 0.040969 0.000000 0.000000
# 5 0.000000 0.000000 0.000000 0.000000 0.079943 0.000000
# 6 0.000000 0.000000 0.000000 0.000000 0.000000 0.013298
#
#
# Mechanical properties :
#
#
# Convention : Reuss Voigt Hill
#
# Bulk Modulus (GPa) = 77.68026 95.42379 86.55203
# Shear Modulus (GPa) = 23.10913 34.64740 28.87826
#
# Velocity S-wave (km/s) = 3.03060 3.71083 3.38783
# Velocity P-wave (km/s) = 6.56653 7.50238 7.05000
#
# Compressibility (1/GPa) = 0.01287328
#
# Stress axis : x y z
#
# Youngs Moduli (GPa) = 64.83782 112.69282 47.45636
#
# Poissons Ratio (x) = 0.62192 0.45233
# Poissons Ratio (y) = 0.35782 0.05683
# Poissons Ratio (z) = 0.61800 0.13495
#
# Static dielectric constant tensor:
#      x y z
#    x 2.080740 0.000000 0.000000 
#    y 0.000000 1.973480 0.000000 
#    z 0.000000 0.000000 3.870800 
# 
# From -- ./inp_files/17963.got.cif
#   From: 2010.05.17/outbox.cif.g08.bks.cpg/sg22_9_cif.got.tgz:17963.got - 2010.06.03 23:40:54.
