data_PCOD9328388
_publ_section_title
;
Structure prediction by ZEFSAII (Michael W. Deem and Ramdas Pophale) SiO2 
 PCOD9328388
Probable space group: F 2 2 2
;
_chemical_formula_sum "Si O2"
_cell_formula_units_Z 108
_cell_length_a 14.212623
_cell_length_b 28.779722
_cell_length_c 12.065806
_cell_angle_alpha 90.000000
_cell_angle_beta 90.000000
_cell_angle_gamma 90.000000
_cell_volume 4935.341045
_symmetry_space_group_name_H-M "F 2 2 2"
_symmetry_group_IT_number 22
_symmetry_cell_setting 'orthorhombic'
loop_
_space_group_symop_operation_xyz
x,y,z
-x,-y,z
x,-y,-z
-x,y,-z
x,1/2+y,1/2+z
-x,1/2-y,1/2+z
x,1/2-y,1/2-z
-x,1/2+y,1/2-z
1/2+x,y,1/2+z
1/2-x,-y,1/2+z
1/2+x,-y,1/2-z
1/2-x,y,1/2-z
1/2+x,1/2+y,z
1/2-x,1/2-y,z
1/2+x,1/2-y,-z
1/2-x,1/2+y,-z
loop_
_atom_site_type_symbol
_atom_site_label
_atom_site_fract_x
_atom_site_fract_y
_atom_site_fract_z
Si Si1 0.971744 0.071034 0.342214
Si Si2 0.568340 0.080615 0.396680
Si Si3 0.903009 0.313739 0.439595
Si Si4 0.539610 0.825837 0.110870
Si Si5 0.252535 0.693965 0.621281
Si Si6 0.734336 0.527787 0.619249
Si Si7 0.942359 0.250000 0.250000
Si Si8 0.500000 0.000000 0.000000
O O1 0.983731 0.063082 0.212821
O O2 0.863803 0.056760 0.370796
O O3 0.994943 0.123930 0.370142
O O4 0.039632 0.037246 0.411995
O O5 0.500000 0.072180 0.500000
O O6 0.583209 0.136022 0.384127
O O7 0.671032 0.057784 0.400914
O O8 0.827943 0.320663 0.537079
O O9 0.883000 0.273937 0.348561
O O10 0.000000 0.301370 0.500000
O O11 0.649202 0.827791 0.087007
O O12 0.510924 0.790942 0.207995
O O13 0.500000 0.804011 0.000000
O O14 0.250000 0.680463 0.750000
O O15 0.250000 0.750000 0.617329
O O16 0.726447 0.500000 0.500000
O O17 0.750000 0.508727 0.750000
#
# Coordination Sequence:
#
# PCOD9328388 Si02
#       8
#    16  16  16  16  16  16   8   4
#     4  11  24  46  71 109 145 196 246 322 385 454
#     4  10  24  44  72 105 152 187 249 309 378 457
#     4  11  23  42  67 105 146 194 248 309 373 447
#     4  12  25  43  71 106 148 194 251 309 381 442
#     4  11  24  43  68 101 142 195 256 307 357 441
#     4  10  23  46  76 109 147 193 250 319 387 463
#     4  12  22  44  74  98 148 202 250 304 380 454
#     4  12  24  44  78  92 146 188 260 310 388 450
#
# _framework density 21.882987
#
# number of rings (size 3 to 8) (size 9 to 14) (size 15 to 20)
#    0.000    1.037    2.963    4.000    4.148    2.667 
#    0.000    4.074    0.000    0.000    0.000    0.000 
#    0.000    0.000    0.000    0.000    0.000    0.000 
#
# Total GULP energy -150572.618263 kJ/mol
# GULP energy per Si atom -5576.763639 kJ/mol
# Density = 2.183318 g / cm^3
# Si number density = 21.882987 Si / 1000 Ang^3
#
#
#
# Elastic Constant Matrix: (Units=GPa)
#
#
# Indices 1 2 3 4 5 6 
#
# 1 110.0122 24.0035 64.9603 0.0000 0.0000 0.0000
# 2 24.0035 113.0798 60.0864 0.0000 0.0000 0.0000
# 3 64.9603 60.0864 169.1648 0.0000 0.0000 0.0000
# 4 0.0000 0.0000 0.0000 94.5654 0.0000 0.0000
# 5 0.0000 0.0000 0.0000 0.0000 34.8761 0.0000
# 6 0.0000 0.0000 0.0000 0.0000 0.0000 23.4159
#
#
#
# Elastic Compliance Matrix: (Units=1/GPa)
#
#
# Indices 1 2 3 4 5 6 
#
# 1 0.011757 -0.000119 -0.004472 0.000000 0.000000 0.000000
# 2 -0.000119 0.010902 -0.003827 0.000000 0.000000 0.000000
# 3 -0.004472 -0.003827 0.008988 0.000000 0.000000 0.000000
# 4 0.000000 0.000000 0.000000 0.010575 0.000000 0.000000
# 5 0.000000 0.000000 0.000000 0.000000 0.028673 0.000000
# 6 0.000000 0.000000 0.000000 0.000000 0.000000 0.042706
#
#
# Mechanical properties :
#
#
# Convention : Reuss Voigt Hill
#
# Bulk Modulus (GPa) = 67.51959 76.70634 72.11297
# Shear Modulus (GPa) = 36.93494 46.78524 41.86009
#
# Velocity S-wave (km/s) = 4.11279 4.62884 4.37842
# Velocity P-wave (km/s) = 7.31267 7.98106 7.65416
#
# Compressibility (1/GPa) = 0.01481052
#
# Stress axis : x y z
#
# Youngs Moduli (GPa) = 85.05761 91.72729 111.26005
#
# Poissons Ratio (x) = 0.01093 0.49759
# Poissons Ratio (y) = 0.01014 0.42574
# Poissons Ratio (z) = 0.38040 0.35100
#
# Static dielectric constant tensor:
#      x y z
#    x 1.789530 0.000000 0.000000 
#    y 0.000000 1.808840 0.000000 
#    z 0.000000 0.000000 1.874530 
# 
# From -- ./inp_files/20330.got.cif
#   From: 2010.05.17/outbox.cif.g08.bks.cpg/sg22_11_cif.got.tgz:20330.got - 2010.06.03 23:40:54.
