data_PCOD9328840
_publ_section_title
;
Structure prediction by ZEFSAII (Michael W. Deem and Ramdas Pophale) SiO2 
 PCOD9328840
Probable space group: F 2 2 2
;
_chemical_formula_sum "Si O2"
_cell_formula_units_Z 112
_cell_length_a 27.909683
_cell_length_b 6.207144
_cell_length_c 27.277985
_cell_angle_alpha 90.000000
_cell_angle_beta 90.000000
_cell_angle_gamma 90.000000
_cell_volume 4725.622338
_symmetry_space_group_name_H-M "F 2 2 2"
_symmetry_group_IT_number 22
_symmetry_cell_setting 'orthorhombic'
loop_
_space_group_symop_operation_xyz
x,y,z
-x,-y,z
x,-y,-z
-x,y,-z
x,1/2+y,1/2+z
-x,1/2-y,1/2+z
x,1/2-y,1/2-z
-x,1/2+y,1/2-z
1/2+x,y,1/2+z
1/2-x,-y,1/2+z
1/2+x,-y,1/2-z
1/2-x,y,1/2-z
1/2+x,1/2+y,z
1/2-x,1/2-y,z
1/2+x,1/2-y,-z
1/2-x,1/2+y,-z
loop_
_atom_site_type_symbol
_atom_site_label
_atom_site_fract_x
_atom_site_fract_y
_atom_site_fract_z
Si Si1 0.197611 0.840398 0.875608
Si Si2 0.546893 0.085235 0.787093
Si Si3 0.693817 0.816086 0.539965
Si Si4 0.400301 0.745712 0.155164
Si Si5 0.199495 0.670974 0.305447
Si Si6 0.119815 0.456745 0.074379
Si Si7 0.953616 0.147925 0.885083
O O1 0.250000 0.750000 0.885863
O O2 0.158429 0.672344 0.893264
O O3 0.191763 0.051446 0.909559
O O4 0.195294 0.919080 0.819364
O O5 0.571973 0.250000 0.750000
O O6 0.532808 0.194841 0.839377
O O7 0.500000 0.000000 0.759617
O O8 0.574665 0.872402 0.801596
O O9 0.750000 0.750000 0.531435
O O10 0.655355 0.617719 0.542119
O O11 0.680768 0.000000 0.500000
O O12 0.345373 0.772662 0.168395
O O13 0.416495 0.507175 0.143706
O O14 0.409491 0.868191 0.104745
O O15 0.198154 0.750000 0.250000
O O16 0.250000 0.750000 0.326143
O O17 0.076726 0.271521 0.071442
O O18 0.000000 0.000000 0.898986
#
# Coordination Sequence:
#
# PCOD9328840 Si02
#       7
#    16  16  16  16  16  16  16
#     4  12  22  42  70  95 143 197 247 312 375 447
#     4  11  24  35  59  92 131 180 238 318 396 445
#     4  12  25  42  69 110 152 199 242 301 384 474
#     4  11  23  41  62  92 133 187 247 310 371 438
#     4  11  24  41  62  89 135 197 261 312 356 434
#     4  11  23  40  67 100 141 199 238 303 379 446
#     4  11  22  41  64  94 135 189 247 310 366 454
#
# _framework density 23.700581
#
# number of rings (size 3 to 8) (size 9 to 14) (size 15 to 20)
#    0.000    0.714    5.714    2.143    2.000    0.000 
#    0.000    4.286    0.000    0.000    0.000    0.000 
#    0.000   40.000    0.000    0.000    0.000    0.000 
#
# Total GULP energy -155980.939748 kJ/mol
# GULP energy per Si atom -5570.747848 kJ/mol
# Density = 2.364664 g / cm^3
# Si number density = 23.700581 Si / 1000 Ang^3
#
#
#
# Elastic Constant Matrix: (Units=GPa)
#
#
# Indices 1 2 3 4 5 6 
#
# 1 120.8920 52.9311 23.7074 0.0005 -0.0007 -0.0014
# 2 52.9311 133.8738 54.4020 0.0005 -0.0045 -0.0039
# 3 23.7074 54.4020 81.1495 -0.0001 -0.0005 0.0003
# 4 0.0005 0.0005 -0.0001 48.6425 -0.0012 -0.0008
# 5 -0.0007 -0.0045 -0.0005 -0.0012 -14.7565 0.0001
# 6 -0.0014 -0.0039 0.0003 -0.0008 0.0001 50.5809
#
#
#
# Elastic Compliance Matrix: (Units=1/GPa)
#
#
# Indices 1 2 3 4 5 6 
#
# 1 0.010012 -0.003807 -0.000373 0.000000 0.000001 0.000000
# 2 -0.003807 0.011714 -0.006741 0.000000 -0.000003 0.000001
# 3 -0.000373 -0.006741 0.016951 0.000000 0.000001 -0.000001
# 4 0.000000 0.000000 0.000000 0.020558 -0.000002 0.000000
# 5 0.000001 -0.000003 0.000001 -0.000002 -0.067767 0.000000
# 6 0.000000 0.000001 -0.000001 0.000000 0.000000 0.019770
#
#
# Mechanical properties :
#
#
# Convention : Reuss Voigt Hill
#
# Bulk Modulus (GPa) = 59.39788 66.44402 62.92095
# Shear Modulus (GPa) = 129.22620 30.55169 79.88895
#
# Velocity S-wave (km/s) = 7.39208 3.59426 5.81212
# Velocity P-wave (km/s) = 9.89815 6.73205 8.46445
#
# Compressibility (1/GPa) = 0.01683562
#
# Stress axis : x y z
#
# Youngs Moduli (GPa) = 99.88229 85.36621 58.99398
#
# Poissons Ratio (x) = 0.32499 0.02199
# Poissons Ratio (y) = 0.38025 0.39767
# Poissons Ratio (z) = 0.03723 0.57545
#
# Static dielectric constant tensor:
#      x y z
#    x 1.946960 0.000000 0.000000 
#    y 0.000000 2.092660 0.000000 
#    z 0.000000 0.000000 2.043370 
# 
# From -- ./inp_files/57346.got.cif
#   From: 2010.05.17/outbox.cif.g08.bks.cpg/sg22_29_cif.got.tgz:57346.got - 2010.06.03 23:40:54.
