data_PCOD9328975
_publ_section_title
;
Structure prediction by ZEFSAII (Michael W. Deem and Ramdas Pophale) SiO2 
 PCOD9328975
Probable space group: F 2 2 2
;
_chemical_formula_sum "Si O2"
_cell_formula_units_Z 64
_cell_length_a 8.829302
_cell_length_b 24.910472
_cell_length_c 12.899169
_cell_angle_alpha 90.000000
_cell_angle_beta 90.000000
_cell_angle_gamma 90.000000
_cell_volume 2837.070063
_symmetry_space_group_name_H-M "F 2 2 2"
_symmetry_group_IT_number 22
_symmetry_cell_setting 'orthorhombic'
loop_
_space_group_symop_operation_xyz
x,y,z
-x,-y,z
x,-y,-z
-x,y,-z
x,1/2+y,1/2+z
-x,1/2-y,1/2+z
x,1/2-y,1/2-z
-x,1/2+y,1/2-z
1/2+x,y,1/2+z
1/2-x,-y,1/2+z
1/2+x,-y,1/2-z
1/2-x,y,1/2-z
1/2+x,1/2+y,z
1/2-x,1/2-y,z
1/2+x,1/2-y,-z
1/2-x,1/2+y,-z
loop_
_atom_site_type_symbol
_atom_site_label
_atom_site_fract_x
_atom_site_fract_y
_atom_site_fract_z
Si Si1 0.131957 0.881468 0.158200
Si Si2 0.868413 0.198077 0.824072
Si Si3 0.588473 0.050835 0.795268
Si Si4 0.664008 0.359224 0.533049
O O1 0.250000 0.873855 0.250000
O O2 0.024900 0.829579 0.151882
O O3 0.014987 0.926415 0.200223
O O4 0.231591 0.887117 0.054899
O O5 0.895348 0.250000 0.750000
O O6 0.750000 0.165647 0.750000
O O7 0.766453 0.190508 0.926228
O O8 0.750000 0.033972 0.750000
O O9 0.616668 0.095160 0.883795
O O10 0.500000 0.000000 0.839817
O O11 0.500000 0.336988 0.500000
#
# Coordination Sequence:
#
# PCOD9328975 Si02
#       4
#    16  16  16  16
#     4  12  23  47  76 106 155 205 252 317 395 452
#     4  11  23  46  76 106 150 194 251 323 382 462
#     4  12  26  48  74 113 156 204 260 326 382 454
#     4  12  24  47  80 108 154 207 252 320 389 467
#
# _framework density 22.558485000000001
#
# number of rings (size 3 to 8) (size 9 to 14) (size 15 to 20)
#    0.000    0.250    7.500    1.500    0.000    1.000 
#    0.000   22.500    0.000    0.000    0.000    0.000 
#    0.000    0.000    0.000    0.000    0.000    0.000 
#
# Total GULP energy -89119.907955 kJ/mol
# GULP energy per Si atom -5569.994247 kJ/mol
# Density = 2.250714 g / cm^3
# Si number density = 22.558485 Si / 1000 Ang^3
#
#
#
# Elastic Constant Matrix: (Units=GPa)
#
#
# Indices 1 2 3 4 5 6 
#
# 1 189.7139 52.2479 41.7353 0.0000 0.0000 0.0000
# 2 52.2479 114.1526 45.0222 0.0000 0.0000 0.0000
# 3 41.7353 45.0222 90.8177 0.0000 0.0000 0.0000
# 4 0.0000 0.0000 0.0000 6.6006 0.0000 0.0000
# 5 0.0000 0.0000 0.0000 0.0000 48.5078 0.0000
# 6 0.0000 0.0000 0.0000 0.0000 0.0000 17.9379
#
#
#
# Elastic Compliance Matrix: (Units=1/GPa)
#
#
# Indices 1 2 3 4 5 6 
#
# 1 0.006262 -0.002152 -0.001811 0.000000 0.000000 0.000000
# 2 -0.002152 0.011629 -0.004776 0.000000 0.000000 0.000000
# 3 -0.001811 -0.004776 0.014211 0.000000 0.000000 0.000000
# 4 0.000000 0.000000 0.000000 0.151502 0.000000 0.000000
# 5 0.000000 0.000000 0.000000 0.000000 0.020615 0.000000
# 6 0.000000 0.000000 0.000000 0.000000 0.000000 0.055748
#
#
# Mechanical properties :
#
#
# Convention : Reuss Voigt Hill
#
# Bulk Modulus (GPa) = 68.38004 74.74390 71.56197
# Shear Modulus (GPa) = 17.71043 31.65451 24.68247
#
# Velocity S-wave (km/s) = 2.80498 3.75002 3.31139
# Velocity P-wave (km/s) = 6.39287 7.20802 6.81264
#
# Compressibility (1/GPa) = 0.01462415
#
# Stress axis : x y z
#
# Youngs Moduli (GPa) = 159.68971 85.99327 70.36830
#
# Poissons Ratio (x) = 0.18505 0.12743
# Poissons Ratio (y) = 0.34364 0.33608
# Poissons Ratio (z) = 0.28919 0.41070
#
# Static dielectric constant tensor:
#      x y z
#    x 1.855650 0.000000 0.000000 
#    y 0.000000 1.929070 0.000000 
#    z 0.000000 0.000000 1.971370 
# 
# From -- ./inp_files/15319.got.cif
#   From: 2010.05.17/outbox.cif.g08.bks.cpg/sg22_8_cif.got.tgz:15319.got - 2010.06.03 23:40:54.
