data_PCOD9328137
_publ_section_title
;
Structure prediction by ZEFSAII (Michael W. Deem and Ramdas Pophale) SiO2 
 PCOD9328137
Probable space group: F 2 2 2
;
_chemical_formula_sum "Si O2"
_cell_formula_units_Z 52
_cell_length_a 5.147987
_cell_length_b 14.863763
_cell_length_c 30.952198
_cell_angle_alpha 90.000000
_cell_angle_beta 90.000000
_cell_angle_gamma 90.000000
_cell_volume 2368.414484
_symmetry_space_group_name_H-M "F 2 2 2"
_symmetry_group_IT_number 22
_symmetry_cell_setting 'orthorhombic'
loop_
_space_group_symop_operation_xyz
x,y,z
-x,-y,z
x,-y,-z
-x,y,-z
x,1/2+y,1/2+z
-x,1/2-y,1/2+z
x,1/2-y,1/2-z
-x,1/2+y,1/2-z
1/2+x,y,1/2+z
1/2-x,-y,1/2+z
1/2+x,-y,1/2-z
1/2-x,y,1/2-z
1/2+x,1/2+y,z
1/2-x,1/2-y,z
1/2+x,1/2-y,-z
1/2-x,1/2+y,-z
loop_
_atom_site_type_symbol
_atom_site_label
_atom_site_fract_x
_atom_site_fract_y
_atom_site_fract_z
Si Si1 0.483454 0.692973 0.129563
Si Si2 0.000000 0.000000 0.500000
Si Si3 0.246656 0.063637 0.799863
Si Si4 0.832871 0.854546 0.043576
O O1 0.250000 0.750000 0.108403
O O2 0.329313 0.645065 0.168571
O O3 0.557515 0.625566 0.091064
O O4 0.750000 0.750000 0.141131
O O5 0.128192 0.069745 0.466980
O O6 0.250000 0.095396 0.750000
O O7 0.500000 0.000000 0.808533
O O8 0.000000 0.000000 0.803586
O O9 0.750000 0.750000 0.046562
O O10 0.000000 0.859226 0.000000
#
# Coordination Sequence:
#
# PCOD9328137 Si02
#       4
#    16   4  16  16
#     4  11  25  45  72 106 141 190 239 301 366 429
#     4  12  26  44  76 104 132 220 230 300 386 438
#     4  10  22  44  71 104 144 187 237 300 361 433
#     4  11  24  46  70 102 150 186 250 305 362 435
#
# _framework density 21.955618000000001
#
# number of rings (size 3 to 8) (size 9 to 14) (size 15 to 20)
#    0.000    1.231    1.538    3.231    4.308    3.077 
#    5.538    1.538    0.000    0.000    0.000    0.000 
#    0.000    0.000    0.000    0.000    0.000    0.000 
#
# Total GULP energy -72384.698340 kJ/mol
# GULP energy per Si atom -5568.053718 kJ/mol
# Density = 2.190565 g / cm^3
# Si number density = 21.955618 Si / 1000 Ang^3
#
#
#
# Elastic Constant Matrix: (Units=GPa)
#
#
# Indices 1 2 3 4 5 6 
#
# 1 148.7277 52.3208 55.2680 0.0000 0.0000 0.0000
# 2 52.3208 107.4108 52.0908 0.0000 0.0000 0.0000
# 3 55.2680 52.0908 110.7102 0.0000 0.0000 0.0000
# 4 0.0000 0.0000 0.0000 439.1803 0.0000 0.0000
# 5 0.0000 0.0000 0.0000 0.0000 59.2825 0.0000
# 6 0.0000 0.0000 0.0000 0.0000 0.0000 14.9280
#
#
#
# Elastic Compliance Matrix: (Units=1/GPa)
#
#
# Indices 1 2 3 4 5 6 
#
# 1 0.008867 -0.002815 -0.003102 0.000000 0.000000 0.000000
# 2 -0.002815 0.012956 -0.004691 0.000000 0.000000 0.000000
# 3 -0.003102 -0.004691 0.012788 0.000000 0.000000 0.000000
# 4 0.000000 0.000000 0.000000 0.002277 0.000000 0.000000
# 5 0.000000 0.000000 0.000000 0.000000 0.016868 0.000000
# 6 0.000000 0.000000 0.000000 0.000000 0.000000 0.066988
#
#
# Mechanical properties :
#
#
# Convention : Reuss Voigt Hill
#
# Bulk Modulus (GPa) = 74.65002 76.24533 75.44768
# Shear Modulus (GPa) = 34.14723 116.48943 75.31833
#
# Velocity S-wave (km/s) = 3.94799 7.29191 5.86338
# Velocity P-wave (km/s) = 7.40651 10.28097 8.95976
#
# Compressibility (1/GPa) = 0.01339584
#
# Stress axis : x y z
#
# Youngs Moduli (GPa) = 112.78328 77.18423 78.19656
#
# Poissons Ratio (x) = 0.21724 0.24256
# Poissons Ratio (y) = 0.31744 0.36681
# Poissons Ratio (z) = 0.34985 0.36206
#
# Static dielectric constant tensor:
#      x y z
#    x 1.891010 0.000000 0.000000 
#    y 0.000000 1.704510 0.000000 
#    z 0.000000 0.000000 2.079250 
# 
# From -- ./inp_files/1841.got.cif
#   From: 2010.05.17/outbox.cif.g08.bks.cpg/sg22_1_cif.got.tgz:1841.got - 2010.06.03 23:40:54.
