data_PCOD9328044
_publ_section_title
;
Structure prediction by ZEFSAII (Michael W. Deem and Ramdas Pophale) SiO2 
 PCOD9328044
Probable space group: F 2 2 2
;
_chemical_formula_sum "Si O2"
_cell_formula_units_Z 84
_cell_length_a 24.548749
_cell_length_b 23.539557
_cell_length_c 7.026528
_cell_angle_alpha 90.000000
_cell_angle_beta 90.000000
_cell_angle_gamma 90.000000
_cell_volume 4060.396382
_symmetry_space_group_name_H-M "F 2 2 2"
_symmetry_group_IT_number 22
_symmetry_cell_setting 'orthorhombic'
loop_
_space_group_symop_operation_xyz
x,y,z
-x,-y,z
x,-y,-z
-x,y,-z
x,1/2+y,1/2+z
-x,1/2-y,1/2+z
x,1/2-y,1/2-z
-x,1/2+y,1/2-z
1/2+x,y,1/2+z
1/2-x,-y,1/2+z
1/2+x,-y,1/2-z
1/2-x,y,1/2-z
1/2+x,1/2+y,z
1/2-x,1/2-y,z
1/2+x,1/2-y,-z
1/2-x,1/2+y,-z
loop_
_atom_site_type_symbol
_atom_site_label
_atom_site_fract_x
_atom_site_fract_y
_atom_site_fract_z
Si Si1 0.411120 0.750000 0.750000
Si Si2 0.769597 0.064917 0.969186
Si Si3 0.351412 0.567446 0.483246
Si Si4 0.500000 0.686161 0.500000
Si Si5 0.055708 0.602831 0.298689
Si Si6 0.630515 0.865673 0.374449
Si Si7 0.000000 0.000000 0.000000
O O1 0.450988 0.724511 0.585350
O O2 0.372089 0.800327 0.680464
O O3 0.750000 0.066440 0.750000
O O4 0.712105 0.075652 0.072627
O O5 0.816914 0.110896 0.987136
O O6 0.789494 0.000000 0.000000
O O7 0.358531 0.500000 0.500000
O O8 0.391649 0.591994 0.329072
O O9 0.367670 0.596848 0.682494
O O10 0.519018 0.645399 0.674066
O O11 0.076621 0.626540 0.499549
O O12 0.031263 0.542276 0.357751
#
# Coordination Sequence:
#
# PCOD9328044 Si02
#       7
#     8  16  16   8  16  16   4
#     4  12  24  48  69  96 132 183 248 286 338 396
#     4   9  21  38  66 102 138 173 219 271 352 420
#     4  10  22  42  67 102 141 178 213 278 351 425
#     4  12  26  46  72  92 135 191 246 290 338 406
#     4  12  26  43  67  99 141 178 235 278 350 409
#     4  11  24  43  68 103 131 181 229 288 336 413
#     4  12  28  40  64 108 146 182 224 298 350 414
#
# _framework density 20.687636000000001
#
# number of rings (size 3 to 8) (size 9 to 14) (size 15 to 20)
#    0.000    1.143    1.905    3.429   12.000    0.000 
#    0.000    4.286    0.000    0.000   14.857    0.000 
#    0.000    0.000    0.000    0.000    0.000    0.000 
#
# Total GULP energy -117331.986948 kJ/mol
# GULP energy per Si atom -5587.237474 kJ/mol
# Density = 2.064055 g / cm^3
# Si number density = 20.687636 Si / 1000 Ang^3
#
#
#
# Elastic Constant Matrix: (Units=GPa)
#
#
# Indices 1 2 3 4 5 6 
#
# 1 83.5203 65.0131 40.3376 -0.0031 -0.0043 -0.0036
# 2 65.0131 157.6306 50.4082 -0.0037 -0.0024 -0.0037
# 3 40.3376 50.4082 94.6463 0.0047 -0.0153 -0.0162
# 4 -0.0031 -0.0037 0.0047 38.4710 0.0001 -0.0026
# 5 -0.0043 -0.0024 -0.0153 0.0001 40.3642 0.0070
# 6 -0.0036 -0.0037 -0.0162 -0.0026 0.0070 39.5434
#
#
#
# Elastic Compliance Matrix: (Units=1/GPa)
#
#
# Indices 1 2 3 4 5 6 
#
# 1 0.019290 -0.006420 -0.004802 0.000002 0.000000 -0.000001
# 2 -0.006420 0.009783 -0.002474 0.000001 -0.000001 -0.000001
# 3 -0.004802 -0.002474 0.013930 -0.000002 0.000005 0.000005
# 4 0.000002 0.000001 -0.000002 0.025994 0.000000 0.000002
# 5 0.000000 -0.000001 0.000005 0.000000 0.024774 -0.000004
# 6 -0.000001 -0.000001 0.000005 0.000002 -0.000004 0.025289
#
#
# Mechanical properties :
#
#
# Convention : Reuss Voigt Hill
#
# Bulk Modulus (GPa) = 64.06005 71.92391 67.99198
# Shear Modulus (GPa) = 32.96943 35.67829 34.32386
#
# Velocity S-wave (km/s) = 3.99642 4.15736 4.07768
# Velocity P-wave (km/s) = 7.23379 7.60835 7.42343
#
# Compressibility (1/GPa) = 0.01561035
#
# Stress axis : x y z
#
# Youngs Moduli (GPa) = 51.84050 102.21633 71.78832
#
# Poissons Ratio (x) = 0.65627 0.34471
# Poissons Ratio (y) = 0.33284 0.17761
# Poissons Ratio (z) = 0.24893 0.25290
#
# Static dielectric constant tensor:
#      x y z
#    x 1.794580 -0.000010 0.000000 
#    y -0.000010 1.749580 -0.000010 
#    z 0.000000 -0.000010 1.781190 
# 
# From -- ./inp_files/13696.got.cif
#   From: 2010.05.17/outbox.cif.g08.bks.cpg/sg22_7_cif.got.tgz:13696.got - 2010.06.03 23:40:54.
