data_PCOD9328382
_publ_section_title
;
Structure prediction by ZEFSAII (Michael W. Deem and Ramdas Pophale) SiO2 
 PCOD9328382
Probable space group: F 2 2 2
;
_chemical_formula_sum "Si O2"
_cell_formula_units_Z 60
_cell_length_a 7.914669
_cell_length_b 19.895354
_cell_length_c 15.172770
_cell_angle_alpha 90.000000
_cell_angle_beta 90.000000
_cell_angle_gamma 90.000000
_cell_volume 2389.182376
_symmetry_space_group_name_H-M "F 2 2 2"
_symmetry_group_IT_number 22
_symmetry_cell_setting 'orthorhombic'
loop_
_space_group_symop_operation_xyz
x,y,z
-x,-y,z
x,-y,-z
-x,y,-z
x,1/2+y,1/2+z
-x,1/2-y,1/2+z
x,1/2-y,1/2-z
-x,1/2+y,1/2-z
1/2+x,y,1/2+z
1/2-x,-y,1/2+z
1/2+x,-y,1/2-z
1/2-x,y,1/2-z
1/2+x,1/2+y,z
1/2-x,1/2-y,z
1/2+x,1/2-y,-z
1/2-x,1/2+y,-z
loop_
_atom_site_type_symbol
_atom_site_label
_atom_site_fract_x
_atom_site_fract_y
_atom_site_fract_z
Si Si1 0.500000 0.000000 0.142691
Si Si2 0.750000 0.250000 0.750000
Si Si3 0.749521 0.831307 0.954844
Si Si4 0.391930 0.138979 0.131357
Si Si5 0.339185 0.949416 0.348663
O O1 0.422736 0.069230 0.182508
O O2 0.675033 0.023001 0.096713
O O3 0.638924 0.200630 0.806544
O O4 0.750000 0.750000 0.958044
O O5 0.567189 0.846496 0.915249
O O6 0.870515 0.875483 0.890643
O O7 0.748348 0.859606 0.054582
O O8 0.250000 0.945831 0.250000
O O9 0.500000 0.000000 0.351633
#
# Coordination Sequence:
#
# PCOD9328382 Si02
#       5
#     8   4  16  16  16
#     4  10  24  45  70 102 155 192 254 306 383 456
#     4  12  24  44  82 112 146 198 262 324 380 454
#     4  10  23  46  71 104 151 197 257 310 386 462
#     4  10  24  44  75 105 149 205 247 320 389 456
#     4  11  24  43  72 109 150 198 255 317 379 459
#
# _framework density 25.113195999999999
#
# number of rings (size 3 to 8) (size 9 to 14) (size 15 to 20)
#    0.000    1.600    2.667    0.000    1.867   15.467 
#    0.000    1.333    2.933    0.000    0.000    0.000 
#    0.000    0.000    0.000    0.000    0.000    0.000 
#
# Total GULP energy -83501.351149 kJ/mol
# GULP energy per Si atom -5566.756743 kJ/mol
# Density = 2.505604 g / cm^3
# Si number density = 25.113196 Si / 1000 Ang^3
#
#
#
# Elastic Constant Matrix: (Units=GPa)
#
#
# Indices 1 2 3 4 5 6 
#
# 1 138.8706 61.1817 38.2004 0.0000 0.0000 0.0000
# 2 61.1817 255.6328 80.2800 0.0000 0.0000 0.0000
# 3 38.2004 80.2800 127.3542 0.0000 0.0000 0.0000
# 4 0.0000 0.0000 0.0000 50.2798 0.0000 0.0000
# 5 0.0000 0.0000 0.0000 0.0000 -64.0618 0.0000
# 6 0.0000 0.0000 0.0000 0.0000 0.0000 21.6291
#
#
#
# Elastic Compliance Matrix: (Units=1/GPa)
#
#
# Indices 1 2 3 4 5 6 
#
# 1 0.008285 -0.001499 -0.001540 0.000000 0.000000 0.000000
# 2 -0.001499 0.005149 -0.002796 0.000000 0.000000 0.000000
# 3 -0.001540 -0.002796 0.010076 0.000000 0.000000 0.000000
# 4 0.000000 0.000000 0.000000 0.019889 0.000000 0.000000
# 5 0.000000 0.000000 0.000000 0.000000 -0.015610 0.000000
# 6 0.000000 0.000000 0.000000 0.000000 0.000000 0.046234
#
#
# Mechanical properties :
#
#
# Convention : Reuss Voigt Hill
#
# Bulk Modulus (GPa) = 84.46005 97.90908 91.18457
# Shear Modulus (GPa) = 55.77857 24.38245 40.08051
#
# Velocity S-wave (km/s) = 4.71795 3.11931 3.99932
# Velocity P-wave (km/s) = 7.96138 7.21424 7.59700
#
# Compressibility (1/GPa) = 0.01183992
#
# Stress axis : x y z
#
# Youngs Moduli (GPa) = 120.69840 194.22326 99.24083
#
# Poissons Ratio (x) = 0.29119 0.15284
# Poissons Ratio (y) = 0.18096 0.27747
# Poissons Ratio (z) = 0.18588 0.54302
#
# Static dielectric constant tensor:
#      x y z
#    x 2.042680 0.000000 0.000000 
#    y 0.000000 2.406410 0.000000 
#    z 0.000000 0.000000 2.516380 
# 
# From -- ./inp_files/34705.got.cif
#   From: 2010.05.17/outbox.cif.g08.bks.cpg/sg22_18_cif.got.tgz:34705.got - 2010.06.03 23:40:54.
