data_PCOD9328230
_publ_section_title
;
Structure prediction by ZEFSAII (Michael W. Deem and Ramdas Pophale) SiO2 
 PCOD9328230
Probable space group: F 2 2 2
;
_chemical_formula_sum "Si O2"
_cell_formula_units_Z 116
_cell_length_a 14.329050
_cell_length_b 11.507291
_cell_length_c 31.565552
_cell_angle_alpha 90.000000
_cell_angle_beta 90.000000
_cell_angle_gamma 90.000000
_cell_volume 5204.798039
_symmetry_space_group_name_H-M "F 2 2 2"
_symmetry_group_IT_number 22
_symmetry_cell_setting 'orthorhombic'
loop_
_space_group_symop_operation_xyz
x,y,z
-x,-y,z
x,-y,-z
-x,y,-z
x,1/2+y,1/2+z
-x,1/2-y,1/2+z
x,1/2-y,1/2-z
-x,1/2+y,1/2-z
1/2+x,y,1/2+z
1/2-x,-y,1/2+z
1/2+x,-y,1/2-z
1/2-x,y,1/2-z
1/2+x,1/2+y,z
1/2-x,1/2-y,z
1/2+x,1/2-y,-z
1/2-x,1/2+y,-z
loop_
_atom_site_type_symbol
_atom_site_label
_atom_site_fract_x
_atom_site_fract_y
_atom_site_fract_z
Si Si1 0.593014 0.314170 0.648694
Si Si2 0.366706 0.167602 0.052445
Si Si3 0.805655 0.572612 0.619363
Si Si4 0.123862 0.171300 0.643231
Si Si5 0.101501 0.062242 0.191765
Si Si6 0.000000 0.000000 0.500000
Si Si7 0.386896 0.004976 0.785762
Si Si8 0.158848 0.578988 0.539031
O O1 0.642272 0.319318 0.603403
O O2 0.485669 0.346631 0.637456
O O3 0.590975 0.194100 0.675229
O O4 0.636847 0.407122 0.680198
O O5 0.266373 0.122586 0.036322
O O6 0.394391 0.299178 0.039963
O O7 0.439326 0.080249 0.031426
O O8 0.851379 0.697113 0.630900
O O9 0.695145 0.596496 0.614772
O O10 0.828223 0.496364 0.659681
O O11 0.847659 0.503002 0.580116
O O12 0.141071 0.127634 0.692107
O O13 0.139610 0.034402 0.238748
O O14 0.000000 0.000000 0.188179
O O15 0.500000 0.000000 0.783788
O O16 0.132733 0.500000 0.500000
#
# Coordination Sequence:
#
# PCOD9328230 Si02
#       8
#    16  16  16  16  16   4  16  16
#     4  11  21  41  67  95 131 176 228 288 344 410
#     4  11  26  45  74 102 139 178 234 295 347 424
#     4  11  23  41  65  95 133 183 224 282 353 413
#     4  10  23  39  64  97 134 180 229 286 340 418
#     4  11  21  40  64  92 135 176 230 280 344 412
#     4  12  28  48  74 116 132 186 236 294 356 424
#     4   9  21  37  62  94 126 177 229 276 338 410
#     4  11  25  48  69 100 138 185 230 288 358 424
#
# _framework density 22.287129
#
# number of rings (size 3 to 8) (size 9 to 14) (size 15 to 20)
#    0.000    1.379    3.448    1.241    4.828    4.414 
#    0.000    3.103    0.000    1.655    0.000    0.000 
#    0.000    0.000    0.000    0.000    0.000    0.000 
#
# Total GULP energy -161950.742927 kJ/mol
# GULP energy per Si atom -5584.508377 kJ/mol
# Density = 2.223640 g / cm^3
# Si number density = 22.287129 Si / 1000 Ang^3
#
#
#
# Elastic Constant Matrix: (Units=GPa)
#
#
# Indices 1 2 3 4 5 6 
#
# 1 47.5330 24.4373 -8.8865 0.0000 0.0000 0.0000
# 2 24.4373 173.7708 79.9494 0.0000 0.0000 0.0000
# 3 -8.8865 79.9494 113.1243 0.0000 0.0000 0.0000
# 4 0.0000 0.0000 0.0000 45.9014 0.0000 0.0000
# 5 0.0000 0.0000 0.0000 0.0000 2.5264 0.0000
# 6 0.0000 0.0000 0.0000 0.0000 0.0000 28.6083
#
#
#
# Elastic Compliance Matrix: (Units=1/GPa)
#
#
# Indices 1 2 3 4 5 6 
#
# 1 0.025781 -0.006753 0.006798 0.000000 0.000000 0.000000
# 2 -0.006753 0.010296 -0.007807 0.000000 0.000000 0.000000
# 3 0.006798 -0.007807 0.014892 0.000000 0.000000 0.000000
# 4 0.000000 0.000000 0.000000 0.021786 0.000000 0.000000
# 5 0.000000 0.000000 0.000000 0.000000 0.395827 0.000000
# 6 0.000000 0.000000 0.000000 0.000000 0.000000 0.034955
#
#
# Mechanical properties :
#
#
# Convention : Reuss Voigt Hill
#
# Bulk Modulus (GPa) = 28.21385 58.38095 43.29740
# Shear Modulus (GPa) = 9.41838 31.33573 20.37706
#
# Velocity S-wave (km/s) = 2.05794 3.75374 3.02701
# Velocity P-wave (km/s) = 4.28177 6.71112 5.62906
#
# Compressibility (1/GPa) = 0.03544358
#
# Stress axis : x y z
#
# Youngs Moduli (GPa) = 38.78861 97.12061 67.15175
#
# Poissons Ratio (x) = 0.65587 -0.45649
# Poissons Ratio (y) = 0.26195 0.52428
# Poissons Ratio (z) = -0.26368 0.75826
#
# Static dielectric constant tensor:
#      x y z
#    x 1.858230 0.000000 0.000000 
#    y 0.000000 2.543890 0.000000 
#    z 0.000000 0.000000 1.826100 
# 
# From -- ./inp_files/56817.got.cif
#   From: 2010.05.17/outbox.cif.g08.bks.cpg/sg22_29_cif.got.tgz:56817.got - 2010.06.03 23:40:54.
