data_PCOD9328118
_publ_section_title
;
Structure prediction by ZEFSAII (Michael W. Deem and Ramdas Pophale) SiO2 
 PCOD9328118
Probable space group: F 2 2 2
;
_chemical_formula_sum "Si O2"
_cell_formula_units_Z 72
_cell_length_a 5.401559
_cell_length_b 23.735479
_cell_length_c 23.398008
_cell_angle_alpha 90.000000
_cell_angle_beta 90.000000
_cell_angle_gamma 90.000000
_cell_volume 2999.825619
_symmetry_space_group_name_H-M "F 2 2 2"
_symmetry_group_IT_number 22
_symmetry_cell_setting 'orthorhombic'
loop_
_space_group_symop_operation_xyz
x,y,z
-x,-y,z
x,-y,-z
-x,y,-z
x,1/2+y,1/2+z
-x,1/2-y,1/2+z
x,1/2-y,1/2-z
-x,1/2+y,1/2-z
1/2+x,y,1/2+z
1/2-x,-y,1/2+z
1/2+x,-y,1/2-z
1/2-x,y,1/2-z
1/2+x,1/2+y,z
1/2-x,1/2-y,z
1/2+x,1/2-y,-z
1/2-x,1/2+y,-z
loop_
_atom_site_type_symbol
_atom_site_label
_atom_site_fract_x
_atom_site_fract_y
_atom_site_fract_z
Si Si1 0.994592 0.086524 0.214897
Si Si2 0.134720 0.943043 0.083164
Si Si3 0.000000 0.104787 0.500000
Si Si4 0.395191 0.324300 0.054884
Si Si5 0.004388 0.783666 0.820502
O O1 0.750000 0.070916 0.250000
O O2 0.931330 0.062834 0.151126
O O3 0.250000 0.071059 0.250000
O O4 0.000752 0.154402 0.207240
O O5 0.394800 0.937545 0.049698
O O6 0.032600 0.884388 0.058946
O O7 0.000000 0.000000 0.065149
O O8 0.126578 0.151514 0.457643
O O9 0.458621 0.292960 0.112029
O O10 0.500000 0.292745 0.000000
O O11 0.250000 0.750000 0.804570
O O12 0.750000 0.750000 0.810799
#
# Coordination Sequence:
#
# PCOD9328118 Si02
#       5
#    16  16   8  16  16
#     4  11  26  47  74 101 141 189 242 307 370 435
#     4  10  24  43  70 107 141 188 245 301 368 453
#     4  10  22  43  74  96 154 194 238 304 373 450
#     4   9  22  39  63  97 139 185 233 286 363 439
#     4  11  25  41  69 101 137 177 239 299 364 436
#
# _framework density 24.001394000000001
#
# number of rings (size 3 to 8) (size 9 to 14) (size 15 to 20)
#    0.000    1.778    0.000    1.333   15.556   10.222 
#    0.000    0.000    0.000    0.000    0.000    0.000 
#    0.000    0.000    0.000    0.000    0.000    0.000 
#
# Total GULP energy -100207.602211 kJ/mol
# GULP energy per Si atom -5567.089012 kJ/mol
# Density = 2.394677 g / cm^3
# Si number density = 24.001394 Si / 1000 Ang^3
#
#
#
# Elastic Constant Matrix: (Units=GPa)
#
#
# Indices 1 2 3 4 5 6 
#
# 1 134.5392 41.2500 60.2410 0.0000 0.0000 0.0000
# 2 41.2500 110.7044 28.4230 0.0000 0.0000 0.0000
# 3 60.2410 28.4230 230.1834 0.0000 0.0000 0.0000
# 4 0.0000 0.0000 0.0000 76.8313 0.0000 0.0000
# 5 0.0000 0.0000 0.0000 0.0000 -10.8364 0.0000
# 6 0.0000 0.0000 0.0000 0.0000 0.0000 -252.6698
#
#
#
# Elastic Compliance Matrix: (Units=1/GPa)
#
#
# Indices 1 2 3 4 5 6 
#
# 1 0.009250 -0.002918 -0.002061 0.000000 0.000000 0.000000
# 2 -0.002918 0.010249 -0.000502 0.000000 0.000000 0.000000
# 3 -0.002061 -0.000502 0.004946 0.000000 0.000000 0.000000
# 4 0.000000 0.000000 0.000000 0.013016 0.000000 0.000000
# 5 0.000000 0.000000 0.000000 0.000000 -0.092281 0.000000
# 6 0.000000 0.000000 0.000000 0.000000 0.000000 -0.003958
#
#
# Mechanical properties :
#
#
# Convention : Reuss Voigt Hill
#
# Bulk Modulus (GPa) = 74.15994 81.69500 77.92747
# Shear Modulus (GPa) = -115.40979 -14.30078 -64.85529
#
# Velocity S-wave (km/s) = -6.94183 -2.44361 -5.20386
# Velocity P-wave (km/s) = 5.76947 5.11369 1.88904
#
# Compressibility (1/GPa) = 0.01348437
#
# Stress axis : x y z
#
# Youngs Moduli (GPa) = 108.10885 97.56963 202.19979
#
# Poissons Ratio (x) = 0.28467 0.41664
# Poissons Ratio (y) = 0.31542 0.10150
# Poissons Ratio (z) = 0.22276 0.04898
#
# Static dielectric constant tensor:
#      x y z
#    x 1.543810 0.000000 0.000000 
#    y 0.000000 1.870290 0.000000 
#    z 0.000000 0.000000 12.231860 
# 
# From -- ./inp_files/46543.got.cif
#   From: 2010.05.17/outbox.cif.g08.bks.cpg/sg22_24_cif.got.tgz:46543.got - 2010.06.03 23:40:54.
