data_PCOD9328135
_publ_section_title
;
Structure prediction by ZEFSAII (Michael W. Deem and Ramdas Pophale) SiO2 
 PCOD9328135
Probable space group: F 2 2 2
;
_chemical_formula_sum "Si O2"
_cell_formula_units_Z 56
_cell_length_a 7.344161
_cell_length_b 22.794578
_cell_length_c 14.076893
_cell_angle_alpha 90.000000
_cell_angle_beta 90.000000
_cell_angle_gamma 90.000000
_cell_volume 2356.571141
_symmetry_space_group_name_H-M "F 2 2 2"
_symmetry_group_IT_number 22
_symmetry_cell_setting 'orthorhombic'
loop_
_space_group_symop_operation_xyz
x,y,z
-x,-y,z
x,-y,-z
-x,y,-z
x,1/2+y,1/2+z
-x,1/2-y,1/2+z
x,1/2-y,1/2-z
-x,1/2+y,1/2-z
1/2+x,y,1/2+z
1/2-x,-y,1/2+z
1/2+x,-y,1/2-z
1/2-x,y,1/2-z
1/2+x,1/2+y,z
1/2-x,1/2-y,z
1/2+x,1/2-y,-z
1/2-x,1/2+y,-z
loop_
_atom_site_type_symbol
_atom_site_label
_atom_site_fract_x
_atom_site_fract_y
_atom_site_fract_z
Si Si1 0.250000 0.250000 0.370798
Si Si2 0.106469 0.942729 0.830462
Si Si3 0.301775 0.636952 0.514512
Si Si4 0.593121 0.330390 0.179968
O O1 0.339127 0.302073 0.430684
O O2 0.418909 0.212957 0.325642
O O3 0.250000 0.960170 0.750000
O O4 0.979729 0.892966 0.783059
O O5 0.192685 0.907675 0.918616
O O6 0.000000 0.000000 0.862177
O O7 0.500000 0.609835 0.500000
O O8 0.184976 0.655837 0.422392
O O9 0.750000 0.310321 0.250000
#
# Coordination Sequence:
#
# PCOD9328135 Si02
#       4
#     8  16  16  16
#     4  10  22  44  70 104 150 194 236 298 368 438
#     4  11  24  45  71 103 143 187 240 302 368 438
#     4  11  23  44  72 105 145 189 241 299 370 437
#     4  11  24  46  74 108 147 192 246 301 365 436
#
# _framework density 23.763338999999998
#
# number of rings (size 3 to 8) (size 9 to 14) (size 15 to 20)
#    0.000    1.143    0.000    7.714    0.000    2.286 
#    0.000   52.143    0.000    0.000    0.000    0.000 
#    0.000    0.000    0.000    0.000    0.000    0.000 
#
# Total GULP energy -78327.658366 kJ/mol
# GULP energy per Si atom -5594.832740 kJ/mol
# Density = 2.370925 g / cm^3
# Si number density = 23.763339 Si / 1000 Ang^3
#
#
#
# Elastic Constant Matrix: (Units=GPa)
#
#
# Indices 1 2 3 4 5 6 
#
# 1 179.2561 69.0067 58.4669 0.0000 0.0000 0.0000
# 2 69.0067 178.5459 47.9193 0.0000 0.0000 0.0000
# 3 58.4669 47.9193 106.8695 0.0000 0.0000 0.0000
# 4 0.0000 0.0000 0.0000 -1.2956 0.0000 0.0000
# 5 0.0000 0.0000 0.0000 0.0000 35.4552 0.0000
# 6 0.0000 0.0000 0.0000 0.0000 0.0000 31.8988
#
#
#
# Elastic Compliance Matrix: (Units=1/GPa)
#
#
# Indices 1 2 3 4 5 6 
#
# 1 0.007374 -0.002009 -0.003133 0.000000 0.000000 0.000000
# 2 -0.002009 0.006914 -0.002001 0.000000 0.000000 0.000000
# 3 -0.003133 -0.002001 0.011969 0.000000 0.000000 0.000000
# 4 0.000000 0.000000 0.000000 -0.771838 0.000000 0.000000
# 5 0.000000 0.000000 0.000000 0.000000 0.028205 0.000000
# 6 0.000000 0.000000 0.000000 0.000000 0.000000 0.031349
#
#
# Mechanical properties :
#
#
# Convention : Reuss Voigt Hill
#
# Bulk Modulus (GPa) = 83.54322 90.60638 87.07480
# Shear Modulus (GPa) = -7.48784 32.49691 12.50454
#
# Velocity S-wave (km/s) = -1.77703 3.70202 2.29642
# Velocity P-wave (km/s) = 5.56976 7.51563 6.61464
#
# Compressibility (1/GPa) = 0.01196985
#
# Stress axis : x y z
#
# Youngs Moduli (GPa) = 135.61129 144.62599 83.55074
#
# Poissons Ratio (x) = 0.29056 0.26180
# Poissons Ratio (y) = 0.27245 0.16720
# Poissons Ratio (z) = 0.42492 0.28943
#
# Static dielectric constant tensor:
#      x y z
#    x 2.009070 0.000000 0.000000 
#    y 0.000000 1.840050 0.000000 
#    z 0.000000 0.000000 2.011690 
# 
# From -- ./inp_files/26717.got.cif
#   From: 2010.05.17/outbox.cif.g08.bks.cpg/sg22_14_cif.got.tgz:26717.got - 2010.06.03 23:40:54.
