data_PCOD9328657
_publ_section_title
;
Structure prediction by ZEFSAII (Michael W. Deem and Ramdas Pophale) SiO2 
 PCOD9328657
Probable space group: F 2 2 2
;
_chemical_formula_sum "Si O2"
_cell_formula_units_Z 84
_cell_length_a 4.776451
_cell_length_b 23.628643
_cell_length_c 29.843068
_cell_angle_alpha 90.000000
_cell_angle_beta 90.000000
_cell_angle_gamma 90.000000
_cell_volume 3368.120153
_symmetry_space_group_name_H-M "F 2 2 2"
_symmetry_group_IT_number 22
_symmetry_cell_setting 'orthorhombic'
loop_
_space_group_symop_operation_xyz
x,y,z
-x,-y,z
x,-y,-z
-x,y,-z
x,1/2+y,1/2+z
-x,1/2-y,1/2+z
x,1/2-y,1/2-z
-x,1/2+y,1/2-z
1/2+x,y,1/2+z
1/2-x,-y,1/2+z
1/2+x,-y,1/2-z
1/2-x,y,1/2-z
1/2+x,1/2+y,z
1/2-x,1/2-y,z
1/2+x,1/2-y,-z
1/2-x,1/2+y,-z
loop_
_atom_site_type_symbol
_atom_site_label
_atom_site_fract_x
_atom_site_fract_y
_atom_site_fract_z
Si Si1 0.894245 0.062697 0.549689
Si Si2 0.934708 0.351692 0.688973
Si Si3 0.500000 0.111656 0.500000
Si Si4 0.750000 0.250000 0.750000
Si Si5 0.750000 0.456215 0.750000
Si Si6 0.429928 0.647450 0.373321
Si Si7 0.476645 0.715179 0.062408
O O1 0.565625 0.064971 0.539448
O O2 0.000000 0.088368 0.500000
O O3 0.004870 0.098422 0.591038
O O4 0.000000 0.000000 0.552709
O O5 0.927131 0.295572 0.720426
O O6 0.724252 0.336591 0.648542
O O7 0.240865 0.307544 0.600032
O O8 0.237551 0.365634 0.669425
O O9 0.584525 0.160819 0.536294
O O10 0.500000 0.500000 0.738557
O O11 0.832658 0.410392 0.711676
O O12 0.750000 0.750000 0.075327
O O13 0.250000 0.750000 0.032930
#
# Coordination Sequence:
#
# PCOD9328657 Si02
#       7
#    16  16   8   4   8  16  16
#     4  11  26  48  73 105 153 212 269 328 392 451
#     4  11  27  48  79 113 157 198 256 322 406 482
#     4  12  24  49  68 100 146 200 275 326 374 466
#     4  10  28  54  80 118 152 208 244 316 404 516
#     4  11  24  49  80 113 150 201 256 320 408 501
#     4  12  26  48  73 117 153 197 261 327 381 471
#     4  12  26  43  70 102 145 201 250 322 386 447
#
# _framework density 24.939729
#
# number of rings (size 3 to 8) (size 9 to 14) (size 15 to 20)
#    0.000    0.571    1.905    5.143    4.000    6.857 
#    0.000    1.905    0.000    0.000    0.000    0.000 
#    0.000    0.000    0.000    0.000    0.000    0.000 
#
# Total GULP energy -116944.679479 kJ/mol
# GULP energy per Si atom -5568.794261 kJ/mol
# Density = 2.488297 g / cm^3
# Si number density = 24.939729 Si / 1000 Ang^3
#
#
#
# Elastic Constant Matrix: (Units=GPa)
#
#
# Indices 1 2 3 4 5 6 
#
# 1 123.2666 54.1652 27.2634 0.0000 0.0000 0.0000
# 2 54.1652 217.2194 67.4647 0.0000 0.0000 0.0000
# 3 27.2634 67.4647 89.7882 0.0000 0.0000 0.0000
# 4 0.0000 0.0000 0.0000 66.0938 0.0000 0.0000
# 5 0.0000 0.0000 0.0000 0.0000 46.3205 0.0000
# 6 0.0000 0.0000 0.0000 0.0000 0.0000 35.0952
#
#
#
# Elastic Compliance Matrix: (Units=1/GPa)
#
#
# Indices 1 2 3 4 5 6 
#
# 1 0.009244 -0.001870 -0.001402 0.000000 0.000000 0.000000
# 2 -0.001870 0.006383 -0.004228 0.000000 0.000000 0.000000
# 3 -0.001402 -0.004228 0.014740 0.000000 0.000000 0.000000
# 4 0.000000 0.000000 0.000000 0.015130 0.000000 0.000000
# 5 0.000000 0.000000 0.000000 0.000000 0.021589 0.000000
# 6 0.000000 0.000000 0.000000 0.000000 0.000000 0.028494
#
#
# Mechanical properties :
#
#
# Convention : Reuss Voigt Hill
#
# Bulk Modulus (GPa) = 65.07391 80.89564 72.98477
# Shear Modulus (GPa) = 43.21415 48.26063 45.73739
#
# Velocity S-wave (km/s) = 4.16714 4.40374 4.28707
# Velocity P-wave (km/s) = 7.02157 7.63964 7.33712
#
# Compressibility (1/GPa) = 0.01536714
#
# Stress axis : x y z
#
# Youngs Moduli (GPa) = 108.17659 156.66304 67.84165
#
# Poissons Ratio (x) = 0.29290 0.09512
# Poissons Ratio (y) = 0.20225 0.28686
# Poissons Ratio (z) = 0.15168 0.66244
#
# Static dielectric constant tensor:
#      x y z
#    x 1.194950 0.000000 0.000000 
#    y 0.000000 2.013780 0.000000 
#    z 0.000000 0.000000 2.102210 
# 
# From -- ./inp_files/55021.got.cif
#   From: 2010.05.17/outbox.cif.g08.bks.cpg/sg22_28_cif.got.tgz:55021.got - 2010.06.03 23:40:54.
