data_PCOD9328154
_publ_section_title
;
Structure prediction by ZEFSAII (Michael W. Deem and Ramdas Pophale) SiO2 
 PCOD9328154
Probable space group: F 2 2 2
;
_chemical_formula_sum "Si O2"
_cell_formula_units_Z 84
_cell_length_a 21.693405
_cell_length_b 7.394842
_cell_length_c 21.480113
_cell_angle_alpha 90.000000
_cell_angle_beta 90.000000
_cell_angle_gamma 90.000000
_cell_volume 3445.824743
_symmetry_space_group_name_H-M "F 2 2 2"
_symmetry_group_IT_number 22
_symmetry_cell_setting 'orthorhombic'
loop_
_space_group_symop_operation_xyz
x,y,z
-x,-y,z
x,-y,-z
-x,y,-z
x,1/2+y,1/2+z
-x,1/2-y,1/2+z
x,1/2-y,1/2-z
-x,1/2+y,1/2-z
1/2+x,y,1/2+z
1/2-x,-y,1/2+z
1/2+x,-y,1/2-z
1/2-x,y,1/2-z
1/2+x,1/2+y,z
1/2-x,1/2-y,z
1/2+x,1/2-y,-z
1/2-x,1/2+y,-z
loop_
_atom_site_type_symbol
_atom_site_label
_atom_site_fract_x
_atom_site_fract_y
_atom_site_fract_z
Si Si1 0.352530 0.414904 0.328224
Si Si2 0.046842 0.713917 0.180771
Si Si3 0.750000 0.750000 0.250000
Si Si4 0.131388 0.030479 0.122614
Si Si5 0.260878 0.036819 0.072636
Si Si6 0.027741 0.700446 0.562834
O O1 0.408353 0.542476 0.310126
O O2 0.291965 0.393233 0.286946
O O3 0.367711 0.201691 0.331593
O O4 0.324947 0.497909 0.392469
O O5 0.020704 0.750000 0.250000
O O6 0.996435 0.701889 0.125180
O O7 0.090568 0.876378 0.154814
O O8 0.198135 0.956940 0.102527
O O9 0.099325 0.141474 0.064671
O O10 0.250000 0.250000 0.081888
O O11 0.264329 0.000000 0.000000
O O12 0.000000 0.500000 0.566220
O O13 0.000000 0.784240 0.500000
#
# Coordination Sequence:
#
# PCOD9328154 Si02
#       6
#    16  16   4  16  16  16
#     4  11  24  43  64  96 136 181 220 277 337 407
#     4  11  25  42  66 104 129 176 232 280 343 411
#     4  12  20  48  62  92 144 178 228 266 350 410
#     4  10  22  45  64  93 136 177 219 281 341 399
#     4  10  23  39  62  98 130 175 226 278 341 398
#     4   9  21  43  70  99 132 178 228 279 344 403
#
# _framework density 24.377327999999999
#
# number of rings (size 3 to 8) (size 9 to 14) (size 15 to 20)
#    0.000    1.714    2.857    1.143    8.000    2.286 
#   12.000    0.952    0.000    0.000    0.000    0.000 
#    0.000    0.000    0.000    0.000    0.000    0.000 
#
# Total GULP energy -117095.597838 kJ/mol
# GULP energy per Si atom -5575.980849 kJ/mol
# Density = 2.432184 g / cm^3
# Si number density = 24.377328 Si / 1000 Ang^3
#
#
#
# Elastic Constant Matrix: (Units=GPa)
#
#
# Indices 1 2 3 4 5 6 
#
# 1 47.3253 13.7628 16.7575 0.0000 0.0000 0.0000
# 2 13.7628 87.6789 15.5131 0.0000 0.0000 0.0000
# 3 16.7575 15.5131 131.0995 0.0000 0.0000 0.0000
# 4 0.0000 0.0000 0.0000 28.6038 0.0000 0.0000
# 5 0.0000 0.0000 0.0000 0.0000 25.1557 0.0000
# 6 0.0000 0.0000 0.0000 0.0000 0.0000 29.3181
#
#
#
# Elastic Compliance Matrix: (Units=1/GPa)
#
#
# Indices 1 2 3 4 5 6 
#
# 1 0.022953 -0.003150 -0.002561 0.000000 0.000000 0.000000
# 2 -0.003150 0.012081 -0.001027 0.000000 0.000000 0.000000
# 3 -0.002561 -0.001027 0.008077 0.000000 0.000000 0.000000
# 4 0.000000 0.000000 0.000000 0.034960 0.000000 0.000000
# 5 0.000000 0.000000 0.000000 0.000000 0.039752 0.000000
# 6 0.000000 0.000000 0.000000 0.000000 0.000000 0.034109
#
#
# Mechanical properties :
#
#
# Convention : Reuss Voigt Hill
#
# Bulk Modulus (GPa) = 33.74349 39.79674 36.77012
# Shear Modulus (GPa) = 28.52463 31.28689 29.90576
#
# Velocity S-wave (km/s) = 3.42443 3.58640 3.50635
# Velocity P-wave (km/s) = 5.43211 5.78882 5.61330
#
# Compressibility (1/GPa) = 0.02963535
#
# Stress axis : x y z
#
# Youngs Moduli (GPa) = 43.56681 82.77210 123.81291
#
# Poissons Ratio (x) = 0.26071 0.31711
# Poissons Ratio (y) = 0.13722 0.12715
# Poissons Ratio (z) = 0.11159 0.08501
#
# Static dielectric constant tensor:
#      x y z
#    x 2.117360 0.000000 0.000000 
#    y 0.000000 1.915190 0.000000 
#    z 0.000000 0.000000 2.122770 
# 
# From -- ./inp_files/45171.got.cif
#   From: 2010.05.17/outbox.cif.g08.bks.cpg/sg22_23_cif.got.tgz:45171.got - 2010.06.03 23:40:54.
