data_PCOD9328434
_publ_section_title
;
Structure prediction by ZEFSAII (Michael W. Deem and Ramdas Pophale) SiO2 
 PCOD9328434
Probable space group: F 2 2 2
;
_chemical_formula_sum "Si O2"
_cell_formula_units_Z 88
_cell_length_a 25.870573
_cell_length_b 15.284252
_cell_length_c 11.422243
_cell_angle_alpha 90.000000
_cell_angle_beta 90.000000
_cell_angle_gamma 90.000000
_cell_volume 4516.496028
_symmetry_space_group_name_H-M "F 2 2 2"
_symmetry_group_IT_number 22
_symmetry_cell_setting 'orthorhombic'
loop_
_space_group_symop_operation_xyz
x,y,z
-x,-y,z
x,-y,-z
-x,y,-z
x,1/2+y,1/2+z
-x,1/2-y,1/2+z
x,1/2-y,1/2-z
-x,1/2+y,1/2-z
1/2+x,y,1/2+z
1/2-x,-y,1/2+z
1/2+x,-y,1/2-z
1/2-x,y,1/2-z
1/2+x,1/2+y,z
1/2-x,1/2-y,z
1/2+x,1/2-y,-z
1/2-x,1/2+y,-z
loop_
_atom_site_type_symbol
_atom_site_label
_atom_site_fract_x
_atom_site_fract_y
_atom_site_fract_z
Si Si1 0.430793 0.750000 0.250000
Si Si2 0.702723 0.936769 0.174286
Si Si3 0.664919 0.796192 0.581758
Si Si4 0.728539 0.621368 0.587410
Si Si5 0.623274 0.161689 0.677056
Si Si6 0.006143 0.895210 0.858831
O O1 0.388911 0.774483 0.352493
O O2 0.469729 0.833344 0.275370
O O3 0.750000 0.902159 0.250000
O O4 0.652573 0.909748 0.244830
O O5 0.706764 0.040179 0.158485
O O6 0.712781 0.897670 0.046729
O O7 0.698318 0.710073 0.610826
O O8 0.709682 0.869187 0.605772
O O9 0.649278 0.818086 0.448162
O O10 0.626228 0.250000 0.750000
O O11 0.564812 0.131886 0.663758
O O12 0.000000 0.000000 0.837739
O O13 0.000000 0.880092 0.000000
#
# Coordination Sequence:
#
# PCOD9328434 Si02
#       6
#     8  16  16  16  16  16
#     4  12  26  45  72 102 139 182 236 300 354 416
#     4  11  23  39  65  98 141 183 232 279 344 419
#     4  11  24  42  68  99 139 184 229 282 360 417
#     4  10  24  41  60 103 143 180 230 281 344 430
#     4  12  23  43  73 100 135 188 237 291 348 423
#     4  11  26  48  71 101 136 181 241 293 358 428
#
# _framework density 19.484131000000001
#
# number of rings (size 3 to 8) (size 9 to 14) (size 15 to 20)
#    0.000    0.909    6.364    0.000    5.091    1.091 
#    0.000    0.000    0.000    3.818    0.000    0.000 
#    0.000    0.000    0.000    0.000    0.000    0.000 
#
# Total GULP energy -122488.968686 kJ/mol
# GULP energy per Si atom -5567.680395 kJ/mol
# Density = 1.943978 g / cm^3
# Si number density = 19.484131 Si / 1000 Ang^3
#
#
#
# Elastic Constant Matrix: (Units=GPa)
#
#
# Indices 1 2 3 4 5 6 
#
# 1 167.0565 67.6533 59.3757 0.0000 0.0000 0.0000
# 2 67.6533 115.6964 53.7022 0.0000 0.0000 0.0000
# 3 59.3757 53.7022 116.1884 0.0000 0.0000 0.0000
# 4 0.0000 0.0000 0.0000 23.9192 0.0000 0.0000
# 5 0.0000 0.0000 0.0000 0.0000 39.4228 0.0000
# 6 0.0000 0.0000 0.0000 0.0000 0.0000 30.7907
#
#
#
# Elastic Compliance Matrix: (Units=1/GPa)
#
#
# Indices 1 2 3 4 5 6 
#
# 1 0.008409 -0.003721 -0.002577 0.000000 0.000000 0.000000
# 2 -0.003721 0.012650 -0.003946 0.000000 0.000000 0.000000
# 3 -0.002577 -0.003946 0.011748 0.000000 0.000000 0.000000
# 4 0.000000 0.000000 0.000000 0.041807 0.000000 0.000000
# 5 0.000000 0.000000 0.000000 0.000000 0.025366 0.000000
# 6 0.000000 0.000000 0.000000 0.000000 0.000000 0.032477
#
#
# Mechanical properties :
#
#
# Convention : Reuss Voigt Hill
#
# Bulk Modulus (GPa) = 81.17398 84.48932 82.83165
# Shear Modulus (GPa) = 31.83666 33.37387 32.60526
#
# Velocity S-wave (km/s) = 4.04664 4.14318 4.09519
# Velocity P-wave (km/s) = 7.97406 8.14526 8.06011
#
# Compressibility (1/GPa) = 0.01231922
#
# Stress axis : x y z
#
# Youngs Moduli (GPa) = 118.92190 79.04886 85.12423
#
# Poissons Ratio (x) = 0.29412 0.21941
# Poissons Ratio (y) = 0.44247 0.33587
# Poissons Ratio (z) = 0.30652 0.31190
#
# Static dielectric constant tensor:
#      x y z
#    x 1.695470 0.000000 0.000000 
#    y 0.000000 1.709740 0.000000 
#    z 0.000000 0.000000 1.703370 
# 
# From -- ./inp_files/23651.got.cif
#   From: 2010.05.17/outbox.cif.g08.bks.cpg/sg22_12_cif.got.tgz:23651.got - 2010.06.03 23:40:54.
