data_PCOD9328196
_publ_section_title
;
Structure prediction by ZEFSAII (Michael W. Deem and Ramdas Pophale) SiO2 
 PCOD9328196
Probable space group: F 2 2 2
;
_chemical_formula_sum "Si O2"
_cell_formula_units_Z 64
_cell_length_a 9.387266
_cell_length_b 10.774648
_cell_length_c 24.658683
_cell_angle_alpha 90.000000
_cell_angle_beta 90.000000
_cell_angle_gamma 90.000000
_cell_volume 2494.089838
_symmetry_space_group_name_H-M "F 2 2 2"
_symmetry_group_IT_number 22
_symmetry_cell_setting 'orthorhombic'
loop_
_space_group_symop_operation_xyz
x,y,z
-x,-y,z
x,-y,-z
-x,y,-z
x,1/2+y,1/2+z
-x,1/2-y,1/2+z
x,1/2-y,1/2-z
-x,1/2+y,1/2-z
1/2+x,y,1/2+z
1/2-x,-y,1/2+z
1/2+x,-y,1/2-z
1/2-x,y,1/2-z
1/2+x,1/2+y,z
1/2-x,1/2-y,z
1/2+x,1/2-y,-z
1/2-x,1/2+y,-z
loop_
_atom_site_type_symbol
_atom_site_label
_atom_site_fract_x
_atom_site_fract_y
_atom_site_fract_z
Si Si1 0.975938 0.766728 0.632495
Si Si2 0.267254 0.045973 0.610709
Si Si3 0.647979 0.145260 0.967101
Si Si4 0.613910 0.602393 0.212140
O O1 0.871607 0.884165 0.633649
O O2 0.886658 0.652106 0.607578
O O3 0.098068 0.798167 0.590498
O O4 0.032494 0.725087 0.691047
O O5 0.226587 0.979045 0.554627
O O6 0.325325 0.951866 0.655328
O O7 0.750000 0.250000 0.992896
O O8 0.500000 0.131127 0.000000
O O9 0.500000 0.500000 0.232471
O O10 0.750000 0.614910 0.250000
#
# Coordination Sequence:
#
# PCOD9328196 Si02
#       4
#    16  16  16  16
#     4  10  23  48  77 108 156 197 250 319 378 449
#     4  10  23  48  76 106 152 199 253 315 376 454
#     4  12  27  49  76 111 148 200 259 321 390 455
#     4  10  22  46  78 113 155 203 256 313 382 457
#
# _framework density 25.660665000000002
#
# number of rings (size 3 to 8) (size 9 to 14) (size 15 to 20)
#    0.000    1.500    2.500    0.750    3.500    4.000 
#    0.000   23.750    0.000    0.000    0.000    0.000 
#    0.000    0.000    0.000    0.000    0.000    0.000 
#
# Total GULP energy -89715.125453 kJ/mol
# GULP energy per Si atom -5607.195341 kJ/mol
# Density = 2.560226 g / cm^3
# Si number density = 25.660665 Si / 1000 Ang^3
#
#
#
# Elastic Constant Matrix: (Units=GPa)
#
#
# Indices 1 2 3 4 5 6 
#
# 1 163.8935 61.4617 53.3848 0.0000 0.0000 0.0000
# 2 61.4617 107.0082 33.3359 0.0000 0.0000 0.0000
# 3 53.3848 33.3359 105.8841 0.0000 0.0000 0.0000
# 4 0.0000 0.0000 0.0000 12.6931 0.0000 0.0000
# 5 0.0000 0.0000 0.0000 0.0000 65.2150 0.0000
# 6 0.0000 0.0000 0.0000 0.0000 0.0000 56.4301
#
#
#
# Elastic Compliance Matrix: (Units=1/GPa)
#
#
# Indices 1 2 3 4 5 6 
#
# 1 0.008597 -0.003978 -0.003082 0.000000 0.000000 0.000000
# 2 -0.003978 0.012202 -0.001836 0.000000 0.000000 0.000000
# 3 -0.003082 -0.001836 0.011576 0.000000 0.000000 0.000000
# 4 0.000000 0.000000 0.000000 0.078783 0.000000 0.000000
# 5 0.000000 0.000000 0.000000 0.000000 0.015334 0.000000
# 6 0.000000 0.000000 0.000000 0.000000 0.000000 0.017721
#
#
# Mechanical properties :
#
#
# Convention : Reuss Voigt Hill
#
# Bulk Modulus (GPa) = 68.57158 74.79451 71.68305
# Shear Modulus (GPa) = 29.96417 42.10787 36.03602
#
# Velocity S-wave (km/s) = 3.42088 4.05526 3.75150
# Velocity P-wave (km/s) = 6.51028 7.15106 6.83818
#
# Compressibility (1/GPa) = 0.01458330
#
# Stress axis : x y z
#
# Youngs Moduli (GPa) = 116.31731 81.95578 86.38322
#
# Poissons Ratio (x) = 0.32600 0.26625
# Poissons Ratio (y) = 0.46268 0.15860
# Poissons Ratio (z) = 0.35851 0.15047
#
# Static dielectric constant tensor:
#      x y z
#    x 2.017700 0.000000 0.000000 
#    y 0.000000 2.155720 0.000000 
#    z 0.000000 0.000000 1.983710 
# 
# From -- ./inp_files/55344.got.cif
#   From: 2010.05.17/outbox.cif.g08.bks.cpg/sg22_28_cif.got.tgz:55344.got - 2010.06.03 23:40:54.
