data_PCOD9328749
_publ_section_title
;
Structure prediction by ZEFSAII (Michael W. Deem and Ramdas Pophale) SiO2 
 PCOD9328749
Probable space group: F 2 2 2
;
_chemical_formula_sum "Si O2"
_cell_formula_units_Z 112
_cell_length_a 32.572756
_cell_length_b 16.111955
_cell_length_c 11.740662
_cell_angle_alpha 90.000000
_cell_angle_beta 90.000000
_cell_angle_gamma 90.000000
_cell_volume 6161.625969
_symmetry_space_group_name_H-M "F 2 2 2"
_symmetry_group_IT_number 22
_symmetry_cell_setting 'orthorhombic'
loop_
_space_group_symop_operation_xyz
x,y,z
-x,-y,z
x,-y,-z
-x,y,-z
x,1/2+y,1/2+z
-x,1/2-y,1/2+z
x,1/2-y,1/2-z
-x,1/2+y,1/2-z
1/2+x,y,1/2+z
1/2-x,-y,1/2+z
1/2+x,-y,1/2-z
1/2-x,y,1/2-z
1/2+x,1/2+y,z
1/2-x,1/2-y,z
1/2+x,1/2-y,-z
1/2-x,1/2+y,-z
loop_
_atom_site_type_symbol
_atom_site_label
_atom_site_fract_x
_atom_site_fract_y
_atom_site_fract_z
Si Si1 0.117704 0.271674 0.929851
Si Si2 0.296777 0.741329 0.557166
Si Si3 0.366541 0.471411 0.127694
Si Si4 0.417358 0.695636 0.855487
Si Si5 0.704179 0.610540 0.241354
Si Si6 0.088960 0.625870 0.270670
Si Si7 0.000390 0.099055 0.861644
O O1 0.102744 0.350931 0.856980
O O2 0.112122 0.192765 0.848366
O O3 0.164736 0.269142 0.973266
O O4 0.087082 0.254649 0.035307
O O5 0.250000 0.750000 0.509336
O O6 0.300955 0.663812 0.643945
O O7 0.299715 0.822666 0.638159
O O8 0.388663 0.382895 0.119411
O O9 0.328304 0.459335 0.211294
O O10 0.397336 0.536504 0.184462
O O11 0.355445 0.500000 0.000000
O O12 0.402269 0.750000 0.750000
O O13 0.461200 0.654394 0.828182
O O14 0.750000 0.576428 0.250000
O O15 0.040962 0.634165 0.300912
O O16 0.000000 0.000000 0.835163
O O17 0.000000 0.104362 0.000000
#
# Coordination Sequence:
#
# PCOD9328749 Si02
#       7
#    16  16  16  16  16  16  16
#     4  11  22  40  59  93 126 163 206 257 326 370
#     4   9  17  35  61  89 124 164 208 253 304 378
#     4  12  20  39  62  90 122 165 212 258 314 369
#     4  12  24  37  67  94 119 162 217 259 301 388
#     4   9  18  33  61  93 119 155 212 267 299 357
#     4  11  24  39  59  88 129 163 199 268 316 373
#     4  11  21  39  64  92 118 157 212 255 314 370
#
# _framework density 18.177019999999999
#
# number of rings (size 3 to 8) (size 9 to 14) (size 15 to 20)
#    0.000    1.286    5.714    1.714    2.000    0.000 
#    0.000    8.571    0.000    0.857    0.000    0.000 
#    0.000    0.000    0.000    0.000    0.000    0.000 
#
# Total GULP energy -156092.273220 kJ/mol
# GULP energy per Si atom -5574.724044 kJ/mol
# Density = 1.813565 g / cm^3
# Si number density = 18.177020 Si / 1000 Ang^3
#
#
#
# Elastic Constant Matrix: (Units=GPa)
#
#
# Indices 1 2 3 4 5 6 
#
# 1 153.3089 11.1340 34.7674 0.0000 0.0000 0.0000
# 2 11.1340 37.7976 20.3229 0.0000 0.0000 0.0000
# 3 34.7674 20.3229 78.3036 0.0000 0.0000 0.0000
# 4 0.0000 0.0000 0.0000 24.6800 0.0000 0.0000
# 5 0.0000 0.0000 0.0000 0.0000 26.4887 0.0000
# 6 0.0000 0.0000 0.0000 0.0000 0.0000 17.8830
#
#
#
# Elastic Compliance Matrix: (Units=1/GPa)
#
#
# Indices 1 2 3 4 5 6 
#
# 1 0.007260 -0.000471 -0.003101 0.000000 0.000000 0.000000
# 2 -0.000471 0.030778 -0.007779 0.000000 0.000000 0.000000
# 3 -0.003101 -0.007779 0.016167 0.000000 0.000000 0.000000
# 4 0.000000 0.000000 0.000000 0.040519 0.000000 0.000000
# 5 0.000000 0.000000 0.000000 0.000000 0.037752 0.000000
# 6 0.000000 0.000000 0.000000 0.000000 0.000000 0.055919
#
#
# Mechanical properties :
#
#
# Convention : Reuss Voigt Hill
#
# Bulk Modulus (GPa) = 31.74374 44.65098 38.19736
# Shear Modulus (GPa) = 22.56335 27.35606 24.95971
#
# Velocity S-wave (km/s) = 3.52705 3.88362 3.70962
# Velocity P-wave (km/s) = 5.83852 6.68789 6.27759
#
# Compressibility (1/GPa) = 0.03150227
#
# Stress axis : x y z
#
# Youngs Moduli (GPa) = 137.73488 32.49069 61.85524
#
# Poissons Ratio (x) = 0.01531 0.19184
# Poissons Ratio (y) = 0.06489 0.48117
# Poissons Ratio (z) = 0.42717 0.25274
#
# Static dielectric constant tensor:
#      x y z
#    x 1.684430 0.000000 0.000000 
#    y 0.000000 1.636250 0.000000 
#    z 0.000000 0.000000 1.648430 
# 
# From -- ./inp_files/25401.got.cif
#   From: 2010.05.17/outbox.cif.g08.bks.cpg/sg22_13_cif.got.tgz:25401.got - 2010.06.03 23:40:54.
