data_PCOD9328545
_publ_section_title
;
Structure prediction by ZEFSAII (Michael W. Deem and Ramdas Pophale) SiO2 
 PCOD9328545
Probable space group: F 2 2 2
;
_chemical_formula_sum "Si O2"
_cell_formula_units_Z 104
_cell_length_a 26.698077
_cell_length_b 20.234532
_cell_length_c 9.108279
_cell_angle_alpha 90.000000
_cell_angle_beta 90.000000
_cell_angle_gamma 90.000000
_cell_volume 4920.502657
_symmetry_space_group_name_H-M "F 2 2 2"
_symmetry_group_IT_number 22
_symmetry_cell_setting 'orthorhombic'
loop_
_space_group_symop_operation_xyz
x,y,z
-x,-y,z
x,-y,-z
-x,y,-z
x,1/2+y,1/2+z
-x,1/2-y,1/2+z
x,1/2-y,1/2-z
-x,1/2+y,1/2-z
1/2+x,y,1/2+z
1/2-x,-y,1/2+z
1/2+x,-y,1/2-z
1/2-x,y,1/2-z
1/2+x,1/2+y,z
1/2-x,1/2-y,z
1/2+x,1/2-y,-z
1/2-x,1/2+y,-z
loop_
_atom_site_type_symbol
_atom_site_label
_atom_site_fract_x
_atom_site_fract_y
_atom_site_fract_z
Si Si1 0.835182 0.500000 0.500000
Si Si2 0.000000 0.657665 0.500000
Si Si3 0.829160 0.221666 0.096791
Si Si4 0.968038 0.750000 0.250000
Si Si5 0.554558 0.424009 0.453791
Si Si6 0.591693 0.394487 0.133506
Si Si7 0.122454 0.170797 0.383924
Si Si8 0.702895 0.871011 0.354555
O O1 0.870657 0.546080 0.599108
O O2 0.804202 0.553413 0.406132
O O3 0.000286 0.704415 0.642167
O O4 0.050190 0.614708 0.493303
O O5 0.809671 0.250000 0.250000
O O6 0.875958 0.173022 0.136235
O O7 0.847225 0.281141 0.992112
O O8 0.793575 0.175487 0.997811
O O9 0.929150 0.793194 0.343154
O O10 0.553482 0.500000 0.500000
O O11 0.500000 0.395996 0.500000
O O12 0.562847 0.410529 0.282623
O O13 0.602862 0.393204 0.532734
O O14 0.154585 0.153145 0.239649
O O15 0.750000 0.863341 0.250000
#
# Coordination Sequence:
#
# PCOD9328545 Si02
#       8
#     8   8  16   8  16  16  16  16
#     4  10  24  49  72  94 138 186 235 286 364 422
#     4  12  26  35  64 100 139 192 242 290 334 414
#     4  11  22  42  72 102 138 181 225 288 364 427
#     4  12  24  38  59 102 138 188 235 282 352 414
#     4  11  25  39  61  97 141 188 242 286 340 416
#     4  11  23  42  66  98 141 189 238 289 341 418
#     4  12  22  43  68  97 139 186 226 289 362 412
#     4  11  25  49  75 105 136 177 238 296 357 439
#
# _framework density 21.136051999999999
#
# number of rings (size 3 to 8) (size 9 to 14) (size 15 to 20)
#    0.000    0.769    4.615    2.769    4.308    4.000 
#    4.154    1.538    0.000    0.000    0.000    0.000 
#    0.000    0.000    0.000    0.000    0.000    0.000 
#
# Total GULP energy -145409.333047 kJ/mol
# GULP energy per Si atom -5592.666656 kJ/mol
# Density = 2.108795 g / cm^3
# Si number density = 21.136052 Si / 1000 Ang^3
#
#
#
# Elastic Constant Matrix: (Units=GPa)
#
#
# Indices 1 2 3 4 5 6 
#
# 1 76.9443 33.7830 29.5853 -0.0001 0.0001 0.0002
# 2 33.7830 111.3928 48.4065 -0.0003 0.0001 -0.0042
# 3 29.5853 48.4065 114.8275 -0.0017 0.0005 -0.0172
# 4 -0.0001 -0.0003 -0.0017 20.2146 0.0002 -0.0128
# 5 0.0001 0.0001 0.0005 0.0002 19.4726 0.0020
# 6 0.0002 -0.0042 -0.0172 -0.0128 0.0020 304.0995
#
#
#
# Elastic Compliance Matrix: (Units=1/GPa)
#
#
# Indices 1 2 3 4 5 6 
#
# 1 0.015545 -0.003641 -0.002470 0.000000 0.000000 0.000000
# 2 -0.003641 0.011843 -0.004055 0.000000 0.000000 0.000000
# 3 -0.002470 -0.004055 0.011054 0.000001 0.000000 0.000001
# 4 0.000000 0.000000 0.000001 0.049469 -0.000001 0.000002
# 5 0.000000 0.000000 0.000000 -0.000001 0.051354 0.000000
# 6 0.000000 0.000000 0.000001 0.000002 0.000000 0.003288
#
#
# Mechanical properties :
#
#
# Convention : Reuss Voigt Hill
#
# Bulk Modulus (GPa) = 55.21485 58.52380 56.86933
# Shear Modulus (GPa) = 29.59925 81.51664 55.55795
#
# Velocity S-wave (km/s) = 3.74627 6.21702 5.13254
# Velocity P-wave (km/s) = 6.70022 8.90417 7.87963
#
# Compressibility (1/GPa) = 0.01811107
#
# Stress axis : x y z
#
# Youngs Moduli (GPa) = 64.33010 84.43511 90.46150
#
# Poissons Ratio (x) = 0.30742 0.22346
# Poissons Ratio (y) = 0.23422 0.36679
# Poissons Ratio (z) = 0.15891 0.34235
#
# Static dielectric constant tensor:
#      x y z
#    x 1.744350 0.000000 0.000000 
#    y 0.000000 1.780320 0.000000 
#    z 0.000000 0.000000 1.761610 
# 
# From -- ./inp_files/15677.got.cif
#   From: 2010.05.17/outbox.cif.g08.bks.cpg/sg22_8_cif.got.tgz:15677.got - 2010.06.03 23:40:54.
