data_PCOD9328403
_publ_section_title
;
Structure prediction by ZEFSAII (Michael W. Deem and Ramdas Pophale) SiO2 
 PCOD9328403
Probable space group: F 2 2 2
;
_chemical_formula_sum "Si O2"
_cell_formula_units_Z 92
_cell_length_a 23.858429
_cell_length_b 17.383246
_cell_length_c 9.763278
_cell_angle_alpha 90.000000
_cell_angle_beta 90.000000
_cell_angle_gamma 90.000000
_cell_volume 4049.192047
_symmetry_space_group_name_H-M "F 2 2 2"
_symmetry_group_IT_number 22
_symmetry_cell_setting 'orthorhombic'
loop_
_space_group_symop_operation_xyz
x,y,z
-x,-y,z
x,-y,-z
-x,y,-z
x,1/2+y,1/2+z
-x,1/2-y,1/2+z
x,1/2-y,1/2-z
-x,1/2+y,1/2-z
1/2+x,y,1/2+z
1/2-x,-y,1/2+z
1/2+x,-y,1/2-z
1/2-x,y,1/2-z
1/2+x,1/2+y,z
1/2-x,1/2-y,z
1/2+x,1/2-y,-z
1/2-x,1/2+y,-z
loop_
_atom_site_type_symbol
_atom_site_label
_atom_site_fract_x
_atom_site_fract_y
_atom_site_fract_z
Si Si1 0.000000 0.332948 0.000000
Si Si2 0.500000 0.000000 0.500000
Si Si3 0.613650 0.410262 0.471825
Si Si4 0.807139 0.583545 0.197044
Si Si5 0.471763 0.750000 0.750000
Si Si6 0.645717 0.337203 0.191337
Si Si7 0.093153 0.383715 0.401830
Si Si8 0.250000 0.432109 0.750000
O O1 0.055116 0.380224 0.029703
O O2 0.010820 0.281861 0.868439
O O3 0.543040 0.945577 0.417075
O O4 0.612536 0.500000 0.500000
O O5 0.664745 0.378922 0.564382
O O6 0.618206 0.385480 0.315406
O O7 0.750000 0.622375 0.250000
O O8 0.853872 0.582844 0.316996
O O9 0.786564 0.495520 0.166734
O O10 0.432419 0.686887 0.818547
O O11 0.649907 0.250000 0.250000
O O12 0.706897 0.377018 0.172238
O O13 0.612652 0.352385 0.050503
#
# Coordination Sequence:
#
# PCOD9328403 Si02
#       8
#     8   4  16  16   8  16  16   8
#     4  12  28  44  80 102 160 202 258 328 403 487
#     4  12  30  48  84 120 148 210 284 332 402 472
#     4  12  25  48  73 114 146 204 264 327 391 472
#     4  10  24  48  82 108 153 202 267 328 393 477
#     4  12  28  52  73 114 160 215 256 340 424 484
#     4  12  28  45  74 110 159 206 261 325 403 483
#     4  12  28  51  79 114 158 211 275 335 403 491
#     4  10  23  48  74 111 152 202 258 338 394 463
#
# _framework density 22.720582
#
# number of rings (size 3 to 8) (size 9 to 14) (size 15 to 20)
#    0.522    0.000    3.478    3.130    8.522    1.391 
#    0.000    0.435    0.000    0.000    0.000    0.000 
#    0.000    0.000    0.000    0.000    0.000    0.000 
#
# Total GULP energy -128569.566114 kJ/mol
# GULP energy per Si atom -5589.981135 kJ/mol
# Density = 2.266887 g / cm^3
# Si number density = 22.720582 Si / 1000 Ang^3
#
#
#
# Elastic Constant Matrix: (Units=GPa)
#
#
# Indices 1 2 3 4 5 6 
#
# 1 149.9197 44.6783 51.2455 0.0000 0.0000 0.0000
# 2 44.6783 109.5007 46.9940 0.0000 0.0000 0.0000
# 3 51.2455 46.9940 156.2156 0.0000 0.0000 0.0000
# 4 0.0000 0.0000 0.0000 34.0456 0.0000 0.0000
# 5 0.0000 0.0000 0.0000 0.0000 56.3281 0.0000
# 6 0.0000 0.0000 0.0000 0.0000 0.0000 -43.5685
#
#
#
# Elastic Compliance Matrix: (Units=1/GPa)
#
#
# Indices 1 2 3 4 5 6 
#
# 1 0.008056 -0.002472 -0.001899 0.000000 0.000000 0.000000
# 2 -0.002472 0.011245 -0.002572 0.000000 0.000000 0.000000
# 3 -0.001899 -0.002572 0.007798 0.000000 0.000000 0.000000
# 4 0.000000 0.000000 0.000000 0.029372 0.000000 0.000000
# 5 0.000000 0.000000 0.000000 0.000000 0.017753 0.000000
# 6 0.000000 0.000000 0.000000 0.000000 0.000000 -0.022952
#
#
# Mechanical properties :
#
#
# Convention : Reuss Voigt Hill
#
# Bulk Modulus (GPa) = 75.68269 77.94130 76.81200
# Shear Modulus (GPa) = 71.87818 27.54225 49.71022
#
# Velocity S-wave (km/s) = 5.63067 3.48547 4.68257
# Velocity P-wave (km/s) = 8.69799 7.11173 7.94455
#
# Compressibility (1/GPa) = 0.01321306
#
# Stress axis : x y z
#
# Youngs Moduli (GPa) = 124.12990 88.93069 128.23701
#
# Poissons Ratio (x) = 0.21984 0.24353
# Poissons Ratio (y) = 0.30685 0.32980
# Poissons Ratio (z) = 0.23573 0.22871
#
# Static dielectric constant tensor:
#      x y z
#    x 1.955480 0.000000 0.000000 
#    y 0.000000 1.873090 0.000000 
#    z 0.000000 0.000000 2.094330 
# 
# From -- ./inp_files/13804.got.cif
#   From: 2010.05.17/outbox.cif.g08.bks.cpg/sg22_7_cif.got.tgz:13804.got - 2010.06.03 23:40:54.
