data_PCOD9328306
_publ_section_title
;
Structure prediction by ZEFSAII (Michael W. Deem and Ramdas Pophale) SiO2 
 PCOD9328306
Probable space group: F 2 2 2
;
_chemical_formula_sum "Si O2"
_cell_formula_units_Z 104
_cell_length_a 24.631153
_cell_length_b 9.105415
_cell_length_c 21.130171
_cell_angle_alpha 90.000000
_cell_angle_beta 90.000000
_cell_angle_gamma 90.000000
_cell_volume 4739.008614
_symmetry_space_group_name_H-M "F 2 2 2"
_symmetry_group_IT_number 22
_symmetry_cell_setting 'orthorhombic'
loop_
_space_group_symop_operation_xyz
x,y,z
-x,-y,z
x,-y,-z
-x,y,-z
x,1/2+y,1/2+z
-x,1/2-y,1/2+z
x,1/2-y,1/2-z
-x,1/2+y,1/2-z
1/2+x,y,1/2+z
1/2-x,-y,1/2+z
1/2+x,-y,1/2-z
1/2-x,y,1/2-z
1/2+x,1/2+y,z
1/2-x,1/2-y,z
1/2+x,1/2-y,-z
1/2-x,1/2+y,-z
loop_
_atom_site_type_symbol
_atom_site_label
_atom_site_fract_x
_atom_site_fract_y
_atom_site_fract_z
Si Si1 0.735087 0.580230 0.934257
Si Si2 0.577272 0.411839 0.563347
Si Si3 0.403101 0.574067 0.752622
Si Si4 0.126020 0.870915 0.133469
Si Si5 0.500000 0.500000 0.333569
Si Si6 0.166514 0.553793 0.152516
Si Si7 0.061500 0.168974 0.984631
O O1 0.750000 0.750000 0.944507
O O2 0.673228 0.567778 0.911806
O O3 0.774361 0.533127 0.876786
O O4 0.745291 0.500000 0.000000
O O5 0.561144 0.500000 0.500000
O O6 0.529594 0.393075 0.615340
O O7 0.624923 0.498407 0.598271
O O8 0.597333 0.259689 0.534082
O O9 0.415222 0.750000 0.750000
O O10 0.395769 0.496269 0.820032
O O11 0.449830 0.482174 0.714863
O O12 0.348310 0.541864 0.713405
O O13 0.152651 0.725658 0.165413
O O14 0.078675 0.811593 0.087550
O O15 0.000000 0.214634 0.000000
O O16 0.065542 0.000000 0.000000
#
# Coordination Sequence:
#
# PCOD9328306 Si02
#       7
#    16  16  16  16   8  16  16
#     4  10  23  42  71 104 135 179 229 290 366 423
#     4  11  20  40  68  98 134 173 230 282 354 424
#     4  11  27  47  69  97 137 187 240 294 354 429
#     4  11  24  45  67  97 143 182 235 291 349 428
#     4  10  25  40  66  96 129 184 228 282 340 422
#     4  10  23  43  70  98 133 186 227 292 351 428
#     4  11  25  39  63 101 137 180 223 288 350 413
#
# _framework density 21.945516999999999
#
# number of rings (size 3 to 8) (size 9 to 14) (size 15 to 20)
#    0.000    1.385    1.538    2.538    8.615    5.538 
#    0.000    3.077    0.000    0.000    0.000    0.000 
#    0.000    0.000    0.000    0.000    0.000    0.000 
#
# Total GULP energy -145054.850090 kJ/mol
# GULP energy per Si atom -5579.032696 kJ/mol
# Density = 2.189557 g / cm^3
# Si number density = 21.945517 Si / 1000 Ang^3
#
#
#
# Elastic Constant Matrix: (Units=GPa)
#
#
# Indices 1 2 3 4 5 6 
#
# 1 89.3460 4.6704 36.6129 0.0000 0.0000 0.0000
# 2 4.6704 68.6274 22.7771 0.0000 0.0000 0.0000
# 3 36.6129 22.7771 109.4048 0.0000 0.0000 0.0000
# 4 0.0000 0.0000 0.0000 41.6908 0.0000 0.0000
# 5 0.0000 0.0000 0.0000 0.0000 20.5918 0.0000
# 6 0.0000 0.0000 0.0000 0.0000 0.0000 15.5083
#
#
#
# Elastic Compliance Matrix: (Units=1/GPa)
#
#
# Indices 1 2 3 4 5 6 
#
# 1 0.012994 0.000600 -0.004474 0.000000 0.000000 0.000000
# 2 0.000600 0.015681 -0.003466 0.000000 0.000000 0.000000
# 3 -0.004474 -0.003466 0.011359 0.000000 0.000000 0.000000
# 4 0.000000 0.000000 0.000000 0.023986 0.000000 0.000000
# 5 0.000000 0.000000 0.000000 0.000000 0.048563 0.000000
# 6 0.000000 0.000000 0.000000 0.000000 0.000000 0.064482
#
#
# Mechanical properties :
#
#
# Convention : Reuss Voigt Hill
#
# Bulk Modulus (GPa) = 39.43742 43.94433 41.69088
# Shear Modulus (GPa) = 24.97573 29.11271 27.04422
#
# Velocity S-wave (km/s) = 3.37720 3.64619 3.51427
# Velocity P-wave (km/s) = 5.76341 6.14768 5.95865
#
# Compressibility (1/GPa) = 0.02535663
#
# Stress axis : x y z
#
# Youngs Moduli (GPa) = 76.95693 63.77239 88.03614
#
# Poissons Ratio (x) = -0.03829 0.39384
# Poissons Ratio (y) = -0.04621 0.30509
# Poissons Ratio (z) = 0.34428 0.22101
#
# Static dielectric constant tensor:
#      x y z
#    x 1.841950 0.000000 0.000000 
#    y 0.000000 1.882050 0.000000 
#    z 0.000000 0.000000 1.813510 
# 
# From -- ./inp_files/45770.got.cif
#   From: 2010.05.17/outbox.cif.g08.bks.cpg/sg22_23_cif.got.tgz:45770.got - 2010.06.03 23:40:54.
