data_PCOD9328941
_publ_section_title
;
Structure prediction by ZEFSAII (Michael W. Deem and Ramdas Pophale) SiO2 
 PCOD9328941
Probable space group: F 2 2 2
;
_chemical_formula_sum "Si O2"
_cell_formula_units_Z 96
_cell_length_a 19.571647
_cell_length_b 27.945862
_cell_length_c 9.191703
_cell_angle_alpha 90.000000
_cell_angle_beta 90.000000
_cell_angle_gamma 90.000000
_cell_volume 5027.370209
_symmetry_space_group_name_H-M "F 2 2 2"
_symmetry_group_IT_number 22
_symmetry_cell_setting 'orthorhombic'
loop_
_space_group_symop_operation_xyz
x,y,z
-x,-y,z
x,-y,-z
-x,y,-z
x,1/2+y,1/2+z
-x,1/2-y,1/2+z
x,1/2-y,1/2-z
-x,1/2+y,1/2-z
1/2+x,y,1/2+z
1/2-x,-y,1/2+z
1/2+x,-y,1/2-z
1/2-x,y,1/2-z
1/2+x,1/2+y,z
1/2-x,1/2-y,z
1/2+x,1/2-y,-z
1/2-x,1/2+y,-z
loop_
_atom_site_type_symbol
_atom_site_label
_atom_site_fract_x
_atom_site_fract_y
_atom_site_fract_z
Si Si1 0.436722 0.280695 0.892904
Si Si2 0.811457 0.529291 0.145210
Si Si3 0.285019 0.626198 0.489751
Si Si4 0.177953 0.230383 0.414858
Si Si5 0.142050 0.878750 0.174864
Si Si6 0.421170 0.483754 0.842396
O O1 0.455997 0.250000 0.750000
O O2 0.402874 0.331223 0.848757
O O3 0.500000 0.288955 0.000000
O O4 0.381576 0.249820 0.983232
O O5 0.750000 0.515573 0.250000
O O6 0.880624 0.513220 0.221515
O O7 0.803318 0.500000 0.000000
O O8 0.804610 0.583767 0.097793
O O9 0.310206 0.674042 0.569945
O O10 0.204763 0.622910 0.442576
O O11 0.324374 0.622361 0.335471
O O12 0.168935 0.250000 0.250000
O O13 0.250000 0.250000 0.472379
O O14 0.097168 0.927376 0.167175
O O15 0.500000 0.500000 0.833672
O O16 0.395004 0.500000 0.000000
#
# Coordination Sequence:
#
# PCOD9328941 Si02
#       6
#    16  16  16  16  16  16
#     4  12  26  46  70 100 140 185 231 285 346 415
#     4  12  24  42  68 102 139 175 229 293 347 409
#     4  11  23  42  74 104 134 180 234 291 349 418
#     4  11  24  43  68 105 140 175 228 286 346 412
#     4  11  23  45  72 101 135 185 239 281 355 418
#     4  11  26  47  68 100 141 189 235 288 351 415
#
# _framework density 19.095469000000001
#
# number of rings (size 3 to 8) (size 9 to 14) (size 15 to 20)
#    0.000    0.667    5.000    3.000    4.667    2.000 
#    3.000    0.000    0.000    0.000    0.000    0.000 
#    0.000    0.000    0.000    0.000    0.000    0.000 
#
# Total GULP energy -134106.561218 kJ/mol
# GULP energy per Si atom -5587.773384 kJ/mol
# Density = 1.905201 g / cm^3
# Si number density = 19.095469 Si / 1000 Ang^3
#
#
#
# Elastic Constant Matrix: (Units=GPa)
#
#
# Indices 1 2 3 4 5 6 
#
# 1 99.9322 53.5728 51.1232 0.0000 0.0000 0.0000
# 2 53.5728 115.2694 48.2977 0.0000 0.0000 0.0000
# 3 51.1232 48.2977 116.0384 0.0000 0.0000 0.0000
# 4 0.0000 0.0000 0.0000 24.5215 0.0000 0.0000
# 5 0.0000 0.0000 0.0000 0.0000 35.0125 0.0000
# 6 0.0000 0.0000 0.0000 0.0000 0.0000 20.4377
#
#
#
# Elastic Compliance Matrix: (Units=1/GPa)
#
#
# Indices 1 2 3 4 5 6 
#
# 1 0.015049 -0.005107 -0.004505 0.000000 0.000000 0.000000
# 2 -0.005107 0.012241 -0.002845 0.000000 0.000000 0.000000
# 3 -0.004505 -0.002845 0.011787 0.000000 0.000000 0.000000
# 4 0.000000 0.000000 0.000000 0.040780 0.000000 0.000000
# 5 0.000000 0.000000 0.000000 0.000000 0.028561 0.000000
# 6 0.000000 0.000000 0.000000 0.000000 0.000000 0.048929
#
#
# Mechanical properties :
#
#
# Convention : Reuss Voigt Hill
#
# Bulk Modulus (GPa) = 70.60334 70.80304 70.70319
# Shear Modulus (GPa) = 26.74069 27.87744 27.30906
#
# Velocity S-wave (km/s) = 3.74621 3.82501 3.78581
# Velocity P-wave (km/s) = 7.46768 7.52772 7.49776
#
# Compressibility (1/GPa) = 0.01416364
#
# Stress axis : x y z
#
# Youngs Moduli (GPa) = 66.44994 81.69400 84.84229
#
# Poissons Ratio (x) = 0.41719 0.38218
# Poissons Ratio (y) = 0.33934 0.24138
# Poissons Ratio (z) = 0.29933 0.23242
#
# Static dielectric constant tensor:
#      x y z
#    x 1.689130 0.000000 0.000000 
#    y 0.000000 2.076460 0.000000 
#    z 0.000000 0.000000 1.644840 
# 
# From -- ./inp_files/12851.got.cif
#   From: 2010.05.17/outbox.cif.g08.bks.cpg/sg22_7_cif.got.tgz:12851.got - 2010.06.03 23:40:54.
