data_PCOD9328413
_publ_section_title
;
Structure prediction by ZEFSAII (Michael W. Deem and Ramdas Pophale) SiO2 
 PCOD9328413
Probable space group: F 2 2 2
;
_chemical_formula_sum "Si O2"
_cell_formula_units_Z 76
_cell_length_a 15.564106
_cell_length_b 29.720566
_cell_length_c 7.560575
_cell_angle_alpha 90.000000
_cell_angle_beta 90.000000
_cell_angle_gamma 90.000000
_cell_volume 3497.325719
_symmetry_space_group_name_H-M "F 2 2 2"
_symmetry_group_IT_number 22
_symmetry_cell_setting 'orthorhombic'
loop_
_space_group_symop_operation_xyz
x,y,z
-x,-y,z
x,-y,-z
-x,y,-z
x,1/2+y,1/2+z
-x,1/2-y,1/2+z
x,1/2-y,1/2-z
-x,1/2+y,1/2-z
1/2+x,y,1/2+z
1/2-x,-y,1/2+z
1/2+x,-y,1/2-z
1/2-x,y,1/2-z
1/2+x,1/2+y,z
1/2-x,1/2-y,z
1/2+x,1/2-y,-z
1/2-x,1/2+y,-z
loop_
_atom_site_type_symbol
_atom_site_label
_atom_site_fract_x
_atom_site_fract_y
_atom_site_fract_z
Si Si1 0.000000 0.000000 0.500000
Si Si2 0.205544 0.957452 0.079624
Si Si3 0.935567 0.294387 0.339765
Si Si4 0.102746 0.118050 0.995624
Si Si5 0.500000 0.151625 0.000000
Si Si6 0.373962 0.423010 0.379365
O O1 0.061818 0.965984 0.609365
O O2 0.250000 0.977472 0.250000
O O3 0.142531 0.917980 0.136582
O O4 0.284077 0.938038 0.963474
O O5 0.156971 0.000000 0.000000
O O6 0.896698 0.250000 0.250000
O O7 0.874897 0.331804 0.431700
O O8 0.000000 0.281040 0.500000
O O9 0.986238 0.319420 0.178767
O O10 0.133158 0.097842 0.182605
O O11 0.000000 0.116975 0.000000
O O12 0.418964 0.118382 0.018147
#
# Coordination Sequence:
#
# PCOD9328413 Si02
#       6
#     4  16  16  16   8  16
#     4  10  24  36  66 100 134 198 228 280 328 396
#     4  12  26  42  62  95 139 192 233 282 343 405
#     4  11  21  39  66 104 130 171 227 290 352 420
#     4  11  24  42  65 100 129 178 234 284 349 409
#     4  11  20  37  68  96 134 174 219 284 343 408
#     4  11  22  41  66  95 141 181 236 280 337 403
#
# _framework density 21.730889999999999
#
# number of rings (size 3 to 8) (size 9 to 14) (size 15 to 20)
#    0.000    0.842    6.316    3.158    2.947    0.421 
#    0.000    0.000    0.000    5.684    0.000   11.789 
#    0.000    0.000    0.000    0.000    0.000    0.000 
#
# Total GULP energy -106007.300714 kJ/mol
# GULP energy per Si atom -5579.331617 kJ/mol
# Density = 2.168143 g / cm^3
# Si number density = 21.730890 Si / 1000 Ang^3
#
#
#
# Elastic Constant Matrix: (Units=GPa)
#
#
# Indices 1 2 3 4 5 6 
#
# 1 56.9175 32.9939 10.1165 0.0000 -0.0001 0.0000
# 2 32.9939 171.7561 40.7894 0.0000 0.0000 0.0000
# 3 10.1165 40.7894 116.9920 0.0000 -0.0002 0.0000
# 4 0.0000 0.0000 0.0000 48.9957 0.0000 0.0000
# 5 -0.0001 0.0000 -0.0002 0.0000 22.1321 0.0000
# 6 0.0000 0.0000 0.0000 0.0000 0.0000 19.1065
#
#
#
# Elastic Compliance Matrix: (Units=1/GPa)
#
#
# Indices 1 2 3 4 5 6 
#
# 1 0.019790 -0.003702 -0.000421 0.000000 0.000000 0.000000
# 2 -0.003702 0.007040 -0.002134 0.000000 0.000000 0.000000
# 3 -0.000421 -0.002134 0.009328 0.000000 0.000000 0.000000
# 4 0.000000 0.000000 0.000000 0.020410 0.000000 0.000000
# 5 0.000000 0.000000 0.000000 0.000000 0.045183 0.000000
# 6 0.000000 0.000000 0.000000 0.000000 0.000000 0.052338
#
#
# Mechanical properties :
#
#
# Convention : Reuss Voigt Hill
#
# Bulk Modulus (GPa) = 42.29305 57.05169 49.67237
# Shear Modulus (GPa) = 28.65582 35.49793 32.07687
#
# Velocity S-wave (km/s) = 3.63529 4.04607 3.84617
# Velocity P-wave (km/s) = 6.09302 6.93818 6.52929
#
# Compressibility (1/GPa) = 0.02364454
#
# Stress axis : x y z
#
# Youngs Moduli (GPa) = 50.53098 142.04143 107.20227
#
# Poissons Ratio (x) = 0.52579 0.04510
# Poissons Ratio (y) = 0.18705 0.22882
# Poissons Ratio (z) = 0.02126 0.30319
#
# Static dielectric constant tensor:
#      x y z
#    x 1.783960 0.000000 0.000000 
#    y 0.000000 1.844580 0.000000 
#    z 0.000000 0.000000 1.967550 
# 
# From -- ./inp_files/11686.got.cif
#   From: 2010.05.17/outbox.cif.g08.bks.cpg/sg22_6_cif.got.tgz:11686.got - 2010.06.03 23:40:54.
