data_PCOD9328735
_publ_section_title
;
Structure prediction by ZEFSAII (Michael W. Deem and Ramdas Pophale) SiO2 
 PCOD9328735
Probable space group: F 2 2 2
;
_chemical_formula_sum "Si O2"
_cell_formula_units_Z 80
_cell_length_a 27.367729
_cell_length_b 18.073654
_cell_length_c 8.591875
_cell_angle_alpha 90.000000
_cell_angle_beta 90.000000
_cell_angle_gamma 90.000000
_cell_volume 4249.840928
_symmetry_space_group_name_H-M "F 2 2 2"
_symmetry_group_IT_number 22
_symmetry_cell_setting 'orthorhombic'
loop_
_space_group_symop_operation_xyz
x,y,z
-x,-y,z
x,-y,-z
-x,y,-z
x,1/2+y,1/2+z
-x,1/2-y,1/2+z
x,1/2-y,1/2-z
-x,1/2+y,1/2-z
1/2+x,y,1/2+z
1/2-x,-y,1/2+z
1/2+x,-y,1/2-z
1/2-x,y,1/2-z
1/2+x,1/2+y,z
1/2-x,1/2-y,z
1/2+x,1/2-y,-z
1/2-x,1/2+y,-z
loop_
_atom_site_type_symbol
_atom_site_label
_atom_site_fract_x
_atom_site_fract_y
_atom_site_fract_z
Si Si1 0.006895 0.915439 0.314648
Si Si2 0.414204 0.668151 0.817024
Si Si3 0.596743 0.669143 0.812191
Si Si4 0.300377 0.598838 0.176822
Si Si5 0.661654 0.550685 0.132022
O O1 0.060230 0.888040 0.267492
O O2 0.000000 0.912005 0.500000
O O3 0.966071 0.862817 0.239061
O O4 0.000000 0.000000 0.263078
O O5 0.405288 0.750000 0.750000
O O6 0.372472 0.607067 0.777492
O O7 0.412106 0.669835 0.003472
O O8 0.585649 0.750000 0.750000
O O9 0.652764 0.647298 0.780133
O O10 0.250000 0.624194 0.250000
O O11 0.311506 0.513458 0.227179
O O12 0.301705 0.592868 0.987054
O O13 0.632624 0.500000 0.000000
#
# Coordination Sequence:
#
# PCOD9328735 Si02
#       5
#    16  16  16  16  16
#     4  11  24  39  57  85 117 151 196 243 289 354
#     4  11  21  37  60  84 120 159 191 240 298 357
#     4  11  22  37  57  84 118 153 195 237 296 353
#     4   8  16  34  58  80 105 144 193 244 280 343
#     4   7  17  34  56  84 110 142 196 241 286 345
#
# _framework density 18.824234000000001
#
# number of rings (size 3 to 8) (size 9 to 14) (size 15 to 20)
#    1.200    1.000    0.000    3.600    0.000    1.200 
#    0.000   12.000    0.000    3.000    0.000    0.000 
#    0.000    0.000    0.000    0.000    0.000    0.000 
#
# Total GULP energy -111386.961366 kJ/mol
# GULP energy per Si atom -5569.348068 kJ/mol
# Density = 1.878139 g / cm^3
# Si number density = 18.824234 Si / 1000 Ang^3
#
#
#
# Elastic Constant Matrix: (Units=GPa)
#
#
# Indices 1 2 3 4 5 6 
#
# 1 112.2925 43.2952 30.9625 0.0000 0.0000 0.0000
# 2 43.2952 100.1483 17.4494 0.0000 0.0000 0.0000
# 3 30.9625 17.4494 35.8115 -0.0001 0.0000 0.0000
# 4 0.0000 0.0000 -0.0001 9.7097 0.0000 0.0000
# 5 0.0000 0.0000 0.0000 0.0000 16.6373 0.0000
# 6 0.0000 0.0000 0.0000 0.0000 0.0000 23.4430
#
#
#
# Elastic Compliance Matrix: (Units=1/GPa)
#
#
# Indices 1 2 3 4 5 6 
#
# 1 0.013014 -0.004006 -0.009300 0.000000 0.000000 0.000000
# 2 -0.004006 0.012145 -0.002454 0.000000 0.000000 0.000000
# 3 -0.009300 -0.002454 0.037161 0.000000 0.000000 0.000000
# 4 0.000000 0.000000 0.000000 0.102990 0.000000 0.000000
# 5 0.000000 0.000000 0.000000 0.000000 0.060106 0.000000
# 6 0.000000 0.000000 0.000000 0.000000 0.000000 0.042657
#
#
# Mechanical properties :
#
#
# Convention : Reuss Voigt Hill
#
# Bulk Modulus (GPa) = 32.46834 47.96295 40.21564
# Shear Modulus (GPa) = 16.13641 20.39433 18.26537
#
# Velocity S-wave (km/s) = 2.93100 3.29509 3.11836
# Velocity P-wave (km/s) = 5.36097 6.32546 5.86308
#
# Compressibility (1/GPa) = 0.03079923
#
# Stress axis : x y z
#
# Youngs Moduli (GPa) = 76.83993 82.34173 26.91018
#
# Poissons Ratio (x) = 0.32984 0.25027
# Poissons Ratio (y) = 0.30780 0.06604
# Poissons Ratio (z) = 0.71462 0.20208
#
# Static dielectric constant tensor:
#      x y z
#    x 1.649000 0.000000 0.000000 
#    y 0.000000 1.692230 0.000000 
#    z 0.000000 0.000000 1.651410 
# 
# From -- ./inp_files/14672.got.cif
#   From: 2010.05.17/outbox.cif.g08.bks.cpg/sg22_8_cif.got.tgz:14672.got - 2010.06.03 23:40:54.
