data_PCOD9328336
_publ_section_title
;
Structure prediction by ZEFSAII (Michael W. Deem and Ramdas Pophale) SiO2 
 PCOD9328336
Probable space group: F 2 2 2
;
_chemical_formula_sum "Si O2"
_cell_formula_units_Z 96
_cell_length_a 28.411829
_cell_length_b 8.960116
_cell_length_c 15.994639
_cell_angle_alpha 90.000000
_cell_angle_beta 90.000000
_cell_angle_gamma 90.000000
_cell_volume 4071.807770
_symmetry_space_group_name_H-M "F 2 2 2"
_symmetry_group_IT_number 22
_symmetry_cell_setting 'orthorhombic'
loop_
_space_group_symop_operation_xyz
x,y,z
-x,-y,z
x,-y,-z
-x,y,-z
x,1/2+y,1/2+z
-x,1/2-y,1/2+z
x,1/2-y,1/2-z
-x,1/2+y,1/2-z
1/2+x,y,1/2+z
1/2-x,-y,1/2+z
1/2+x,-y,1/2-z
1/2-x,y,1/2-z
1/2+x,1/2+y,z
1/2-x,1/2-y,z
1/2+x,1/2-y,-z
1/2-x,1/2+y,-z
loop_
_atom_site_type_symbol
_atom_site_label
_atom_site_fract_x
_atom_site_fract_y
_atom_site_fract_z
Si Si1 0.917986 0.324854 0.413742
Si Si2 0.096578 0.658065 0.613880
Si Si3 0.339731 0.874952 0.057688
Si Si4 0.004044 0.322597 0.162848
Si Si5 0.248220 0.929193 0.346343
Si Si6 0.300276 0.812239 0.594014
O O1 0.906794 0.337546 0.512572
O O2 0.914893 0.484400 0.368597
O O3 0.876454 0.213783 0.385933
O O4 0.968663 0.250941 0.403485
O O5 0.057000 0.767130 0.647986
O O6 0.149419 0.702053 0.639314
O O7 0.301842 0.963198 0.112086
O O8 0.310594 0.765390 0.995379
O O9 0.364608 0.000000 0.000000
O O10 0.988160 0.250000 0.250000
O O11 0.000000 0.500000 0.163025
O O12 0.250000 0.976543 0.250000
O O13 0.250000 0.750000 0.347420
O O14 0.288498 0.011233 0.399654
O O15 0.250000 0.750000 0.625999
#
# Coordination Sequence:
#
# PCOD9328336 Si02
#       6
#    16  16  16  16  16  16
#     4  10  23  43  74 101 143 176 235 291 361 411
#     4  10  23  45  70 107 136 185 229 292 354 429
#     4  11  23  41  72 106 143 189 254 297 358 431
#     4  12  27  47  73 102 140 183 231 292 363 437
#     4  11  25  44  65 102 149 197 244 302 366 423
#     4  11  23  43  71 104 141 191 240 296 350 423
#
# _framework density 23.576753
#
# number of rings (size 3 to 8) (size 9 to 14) (size 15 to 20)
#    0.000    1.167    1.667    3.500    4.667    7.667 
#   12.000    0.000    0.000    0.000    0.000    0.000 
#    0.000    0.000    0.000    0.000    0.000    0.000 
#
# Total GULP energy -134130.410789 kJ/mol
# GULP energy per Si atom -5588.767116 kJ/mol
# Density = 2.352309 g / cm^3
# Si number density = 23.576753 Si / 1000 Ang^3
#
#
#
# Elastic Constant Matrix: (Units=GPa)
#
#
# Indices 1 2 3 4 5 6 
#
# 1 186.1252 80.9532 15.3025 0.0000 0.0000 0.0000
# 2 80.9532 158.3451 25.6789 0.0000 0.0000 0.0000
# 3 15.3025 25.6789 51.2051 0.0000 0.0000 0.0000
# 4 0.0000 0.0000 0.0000 23.3081 0.0000 0.0000
# 5 0.0000 0.0000 0.0000 0.0000 0.6646 0.0000
# 6 0.0000 0.0000 0.0000 0.0000 0.0000 47.8996
#
#
#
# Elastic Compliance Matrix: (Units=1/GPa)
#
#
# Indices 1 2 3 4 5 6 
#
# 1 0.006914 -0.003483 -0.000320 0.000000 0.000000 0.000000
# 2 -0.003483 0.008629 -0.003286 0.000000 0.000000 0.000000
# 3 -0.000320 -0.003286 0.021273 0.000000 0.000000 0.000000
# 4 0.000000 0.000000 0.000000 0.042904 0.000000 0.000000
# 5 0.000000 0.000000 0.000000 0.000000 1.504721 0.000000
# 6 0.000000 0.000000 0.000000 0.000000 0.000000 0.020877
#
#
# Mechanical properties :
#
#
# Convention : Reuss Voigt Hill
#
# Bulk Modulus (GPa) = 44.17373 71.06052 57.61713
# Shear Modulus (GPa) = 3.07306 32.62384 17.84845
#
# Velocity S-wave (km/s) = 1.14292 3.72389 2.75441
# Velocity P-wave (km/s) = 4.52973 6.97820 5.88276
#
# Compressibility (1/GPa) = 0.02263789
#
# Stress axis : x y z
#
# Youngs Moduli (GPa) = 144.63771 115.89000 47.00812
#
# Poissons Ratio (x) = 0.40363 0.01502
# Poissons Ratio (y) = 0.50375 0.15449
# Poissons Ratio (z) = 0.04622 0.38087
#
# Static dielectric constant tensor:
#      x y z
#    x 1.892690 0.000000 0.000000 
#    y 0.000000 2.010550 0.000000 
#    z 0.000000 0.000000 1.905490 
# 
# From -- ./inp_files/45698.got.cif
#   From: 2010.05.17/outbox.cif.g08.bks.cpg/sg22_23_cif.got.tgz:45698.got - 2010.06.03 23:40:54.
