data_PCOD9328646
_publ_section_title
;
Structure prediction by ZEFSAII (Michael W. Deem and Ramdas Pophale) SiO2 
 PCOD9328646
Probable space group: F 2 2 2
;
_chemical_formula_sum "Si O2"
_cell_formula_units_Z 120
_cell_length_a 11.672836
_cell_length_b 21.463944
_cell_length_c 24.050183
_cell_angle_alpha 90.000000
_cell_angle_beta 90.000000
_cell_angle_gamma 90.000000
_cell_volume 6025.655462
_symmetry_space_group_name_H-M "F 2 2 2"
_symmetry_group_IT_number 22
_symmetry_cell_setting 'orthorhombic'
loop_
_space_group_symop_operation_xyz
x,y,z
-x,-y,z
x,-y,-z
-x,y,-z
x,1/2+y,1/2+z
-x,1/2-y,1/2+z
x,1/2-y,1/2-z
-x,1/2+y,1/2-z
1/2+x,y,1/2+z
1/2-x,-y,1/2+z
1/2+x,-y,1/2-z
1/2-x,y,1/2-z
1/2+x,1/2+y,z
1/2-x,1/2-y,z
1/2+x,1/2-y,-z
1/2-x,1/2+y,-z
loop_
_atom_site_type_symbol
_atom_site_label
_atom_site_fract_x
_atom_site_fract_y
_atom_site_fract_z
Si Si1 0.717223 0.621355 0.186361
Si Si2 0.963856 0.349968 0.851182
Si Si3 0.079092 0.559165 0.218155
Si Si4 0.121383 0.777436 0.893986
Si Si5 0.324715 0.477929 0.829336
Si Si6 0.165048 0.446604 0.544353
Si Si7 0.437470 0.933565 0.054574
Si Si8 0.500000 0.340048 0.000000
O O1 0.750000 0.639789 0.250000
O O2 0.836128 0.622258 0.152138
O O3 0.637736 0.668446 0.152107
O O4 0.673487 0.550981 0.185502
O O5 0.950056 0.278235 0.865611
O O6 0.023833 0.374547 0.795652
O O7 0.035768 0.385712 0.897348
O O8 0.196635 0.546765 0.184616
O O9 0.099532 0.555773 0.283574
O O10 0.000000 0.500000 0.202893
O O11 0.250000 0.750000 0.905612
O O12 0.060547 0.801273 0.950248
O O13 0.360461 0.466343 0.892340
O O14 0.134998 0.500000 0.500000
O O15 0.303104 0.439918 0.543343
O O16 0.096777 0.384899 0.527036
O O17 0.500000 0.000000 0.066170
O O18 0.500000 0.908829 0.000000
#
# Coordination Sequence:
#
# PCOD9328646 Si02
#       8
#    16  16  16  16  16  16  16   8
#     4  11  21  41  68 101 140 174 229 295 358 431
#     4  11  22  39  67  98 128 173 237 295 334 410
#     4  11  20  37  65 102 134 172 219 288 358 410
#     4  10  27  46  68  95 132 192 247 287 339 424
#     4  11  22  38  65 105 138 172 214 286 371 427
#     4  12  25  42  66 103 146 183 227 289 369 450
#     4  11  22  37  68 103 128 172 232 301 352 400
#     4  12  29  48  64 100 145 198 232 288 368 440
#
# _framework density 19.914846000000001
#
# number of rings (size 3 to 8) (size 9 to 14) (size 15 to 20)
#    0.000    0.933    5.333    2.200    4.667    5.600 
#    0.000    0.000    0.000    0.000    0.000    0.000 
#    0.000    0.000    0.000    0.000    0.000    0.000 
#
# Total GULP energy -167629.903046 kJ/mol
# GULP energy per Si atom -5587.663435 kJ/mol
# Density = 1.986952 g / cm^3
# Si number density = 19.914846 Si / 1000 Ang^3
#
#
#
# Elastic Constant Matrix: (Units=GPa)
#
#
# Indices 1 2 3 4 5 6 
#
# 1 100.5348 62.5324 42.1324 0.0000 0.0000 0.0000
# 2 62.5324 115.9568 70.9525 0.0000 0.0000 0.0000
# 3 42.1324 70.9525 169.6910 0.0000 0.0000 0.0000
# 4 0.0000 0.0000 0.0000 52.5516 0.0000 0.0000
# 5 0.0000 0.0000 0.0000 0.0000 33.1767 0.0000
# 6 0.0000 0.0000 0.0000 0.0000 0.0000 34.8254
#
#
#
# Elastic Compliance Matrix: (Units=1/GPa)
#
#
# Indices 1 2 3 4 5 6 
#
# 1 0.014994 -0.007805 -0.000459 0.000000 0.000000 0.000000
# 2 -0.007805 0.015651 -0.004606 0.000000 0.000000 0.000000
# 3 -0.000459 -0.004606 0.007933 0.000000 0.000000 0.000000
# 4 0.000000 0.000000 0.000000 0.019029 0.000000 0.000000
# 5 0.000000 0.000000 0.000000 0.000000 0.030142 0.000000
# 6 0.000000 0.000000 0.000000 0.000000 0.000000 0.028715
#
#
# Mechanical properties :
#
#
# Convention : Reuss Voigt Hill
#
# Bulk Modulus (GPa) = 77.89799 81.93524 79.91662
# Shear Modulus (GPa) = 34.13347 38.14844 36.14095
#
# Velocity S-wave (km/s) = 4.14450 4.38148 4.26464
# Velocity P-wave (km/s) = 7.88055 8.17488 8.02906
#
# Compressibility (1/GPa) = 0.01283730
#
# Stress axis : x y z
#
# Youngs Moduli (GPa) = 66.69419 63.89222 126.05198
#
# Poissons Ratio (x) = 0.49865 0.05792
# Poissons Ratio (y) = 0.52052 0.58065
# Poissons Ratio (z) = 0.03064 0.29432
#
# Static dielectric constant tensor:
#      x y z
#    x 1.708710 0.000000 0.000000 
#    y 0.000000 1.680250 0.000000 
#    z 0.000000 0.000000 1.745930 
# 
# From -- ./inp_files/48330.got.cif
#   From: 2010.05.17/outbox.cif.g08.bks.cpg/sg22_25_cif.got.tgz:48330.got - 2010.06.03 23:40:54.
