data_PCOD9328745
_publ_section_title
;
Structure prediction by ZEFSAII (Michael W. Deem and Ramdas Pophale) SiO2 
 PCOD9328745
Probable space group: F 2 2 2
;
_chemical_formula_sum "Si O2"
_cell_formula_units_Z 84
_cell_length_a 15.713664
_cell_length_b 20.180500
_cell_length_c 12.080127
_cell_angle_alpha 90.000000
_cell_angle_beta 90.000000
_cell_angle_gamma 90.000000
_cell_volume 3830.724197
_symmetry_space_group_name_H-M "F 2 2 2"
_symmetry_group_IT_number 22
_symmetry_cell_setting 'orthorhombic'
loop_
_space_group_symop_operation_xyz
x,y,z
-x,-y,z
x,-y,-z
-x,y,-z
x,1/2+y,1/2+z
-x,1/2-y,1/2+z
x,1/2-y,1/2-z
-x,1/2+y,1/2-z
1/2+x,y,1/2+z
1/2-x,-y,1/2+z
1/2+x,-y,1/2-z
1/2-x,y,1/2-z
1/2+x,1/2+y,z
1/2-x,1/2-y,z
1/2+x,1/2-y,-z
1/2-x,1/2+y,-z
loop_
_atom_site_type_symbol
_atom_site_label
_atom_site_fract_x
_atom_site_fract_y
_atom_site_fract_z
Si Si1 0.292192 0.940078 0.426939
Si Si2 0.500000 0.000000 0.500000
Si Si3 0.256900 0.321074 0.429693
Si Si4 0.884020 0.646810 0.244986
Si Si5 0.541545 0.593974 0.806623
Si Si6 0.120884 0.001636 0.368148
O O1 0.240430 0.884964 0.493853
O O2 0.365896 0.902033 0.362907
O O3 0.219228 0.978822 0.362869
O O4 0.335669 0.000000 0.500000
O O5 0.486969 0.056346 0.401265
O O6 0.250000 0.250000 0.487438
O O7 0.178320 0.339563 0.347921
O O8 0.340639 0.313350 0.354082
O O9 0.881338 0.571381 0.196699
O O10 0.982839 0.655761 0.274042
O O11 0.563592 0.550828 0.697881
O O12 0.100314 0.000000 0.500000
#
# Coordination Sequence:
#
# PCOD9328745 Si02
#       6
#    16   4  16  16  16  16
#     4  11  21  40  68 100 136 176 233 282 343 411
#     4  12  20  32  50  96 132 176 202 274 346 396
#     4  11  24  44  72  95 133 187 238 274 342 427
#     4  11  21  39  62  98 133 177 224 284 333 405
#     4  12  23  35  63 101 141 173 224 290 349 396
#     4  11  22  38  63 101 145 181 223 279 351 415
#
# _framework density 21.927968
#
# number of rings (size 3 to 8) (size 9 to 14) (size 15 to 20)
#    0.000    0.762    6.667    4.000    2.667    1.524 
#    0.000    0.000   12.571    1.143    0.000    0.000 
#    0.000    0.000    0.000    0.000    0.000    0.000 
#
# Total GULP energy -116928.442415 kJ/mol
# GULP energy per Si atom -5568.021067 kJ/mol
# Density = 2.187806 g / cm^3
# Si number density = 21.927968 Si / 1000 Ang^3
#
#
#
# Elastic Constant Matrix: (Units=GPa)
#
#
# Indices 1 2 3 4 5 6 
#
# 1 116.7510 -2.2412 13.6729 0.0000 0.0000 0.0000
# 2 -2.2412 66.2160 13.4529 0.0000 0.0000 0.0000
# 3 13.6729 13.4529 110.2212 0.0000 0.0000 0.0000
# 4 0.0000 0.0000 0.0000 14.6906 0.0000 0.0000
# 5 0.0000 0.0000 0.0000 0.0000 34.0969 0.0000
# 6 0.0000 0.0000 0.0000 0.0000 0.0000 8.6169
#
#
#
# Elastic Compliance Matrix: (Units=1/GPa)
#
#
# Indices 1 2 3 4 5 6 
#
# 1 0.008709 0.000527 -0.001145 0.000000 0.000000 0.000000
# 2 0.000527 0.015518 -0.001959 0.000000 0.000000 0.000000
# 3 -0.001145 -0.001959 0.009454 0.000000 0.000000 0.000000
# 4 0.000000 0.000000 0.000000 0.068071 0.000000 0.000000
# 5 0.000000 0.000000 0.000000 0.000000 0.029328 0.000000
# 6 0.000000 0.000000 0.000000 0.000000 0.000000 0.116051
#
#
# Mechanical properties :
#
#
# Convention : Reuss Voigt Hill
#
# Bulk Modulus (GPa) = 35.05379 38.10637 36.58008
# Shear Modulus (GPa) = 19.09898 29.36779 24.23339
#
# Velocity S-wave (km/s) = 2.95445 3.66359 3.32797
# Velocity P-wave (km/s) = 5.25918 5.94236 5.61117
#
# Compressibility (1/GPa) = 0.02852758
#
# Stress axis : x y z
#
# Youngs Moduli (GPa) = 114.81817 64.44116 105.77724
#
# Poissons Ratio (x) = -0.03398 0.12109
# Poissons Ratio (y) = -0.06055 0.20726
# Poissons Ratio (z) = 0.13144 0.12627
#
# Static dielectric constant tensor:
#      x y z
#    x 1.457440 0.000000 0.000000 
#    y 0.000000 1.786150 0.000000 
#    z 0.000000 0.000000 1.882610 
# 
# From -- ./inp_files/21339.got.cif
#   From: 2010.05.17/outbox.cif.g08.bks.cpg/sg22_11_cif.got.tgz:21339.got - 2010.06.03 23:40:54.
