data_PCOD9328289
_publ_section_title
;
Structure prediction by ZEFSAII (Michael W. Deem and Ramdas Pophale) SiO2 
 PCOD9328289
Probable space group: F 2 2 2
;
_chemical_formula_sum "Si O2"
_cell_formula_units_Z 84
_cell_length_a 15.490851
_cell_length_b 24.494304
_cell_length_c 11.102918
_cell_angle_alpha 90.000000
_cell_angle_beta 90.000000
_cell_angle_gamma 90.000000
_cell_volume 4212.864710
_symmetry_space_group_name_H-M "F 2 2 2"
_symmetry_group_IT_number 22
_symmetry_cell_setting 'orthorhombic'
loop_
_space_group_symop_operation_xyz
x,y,z
-x,-y,z
x,-y,-z
-x,y,-z
x,1/2+y,1/2+z
-x,1/2-y,1/2+z
x,1/2-y,1/2-z
-x,1/2+y,1/2-z
1/2+x,y,1/2+z
1/2-x,-y,1/2+z
1/2+x,-y,1/2-z
1/2-x,y,1/2-z
1/2+x,1/2+y,z
1/2-x,1/2-y,z
1/2+x,1/2-y,-z
1/2-x,1/2+y,-z
loop_
_atom_site_type_symbol
_atom_site_label
_atom_site_fract_x
_atom_site_fract_y
_atom_site_fract_z
Si Si1 0.000000 0.309490 0.500000
Si Si2 0.897907 0.598191 0.912248
Si Si3 0.808818 0.853368 0.356761
Si Si4 0.811253 0.796619 0.949848
Si Si5 0.250000 0.123726 0.750000
Si Si6 0.987810 0.185338 0.735103
Si Si7 0.500000 0.000000 0.000000
O O1 0.907668 0.279360 0.486590
O O2 0.993501 0.339203 0.629000
O O3 0.816487 0.590812 0.827871
O O4 0.954021 0.649520 0.858132
O O5 0.859329 0.610055 0.045062
O O6 0.948969 0.542366 0.917437
O O7 0.750000 0.878472 0.250000
O O8 0.740497 0.818941 0.435054
O O9 0.887781 0.818327 0.302931
O O10 0.750000 0.750000 0.900532
O O11 0.806832 0.840828 0.843800
O O12 0.012133 0.250000 0.750000
#
# Coordination Sequence:
#
# PCOD9328289 Si02
#       7
#     8  16  16  16   8  16   4
#     4  12  24  37  62  93 134 192 234 282 356 418
#     4  11  25  46  72  98 136 186 235 296 355 429
#     4  11  23  41  61  96 140 178 230 287 350 418
#     4  11  23  37  58  92 139 185 226 283 349 428
#     4  10  23  42  64  92 134 168 231 298 358 414
#     4  12  25  40  63 101 145 187 232 286 352 434
#     4  12  24  50  76  98 128 192 248 278 354 436
#
# _framework density 19.938925999999999
#
# number of rings (size 3 to 8) (size 9 to 14) (size 15 to 20)
#    0.000    0.762    5.714    1.429    8.000    0.000 
#    1.714    0.000    0.000    0.571    0.000    0.000 
#    0.000    0.000    0.000    0.000    0.000    0.000 
#
# Total GULP energy -117034.400181 kJ/mol
# GULP energy per Si atom -5573.066675 kJ/mol
# Density = 1.989354 g / cm^3
# Si number density = 19.938926 Si / 1000 Ang^3
#
#
#
# Elastic Constant Matrix: (Units=GPa)
#
#
# Indices 1 2 3 4 5 6 
#
# 1 154.1038 50.5272 47.1606 0.0000 0.0000 0.0000
# 2 50.5272 97.6998 38.9132 0.0000 0.0000 0.0000
# 3 47.1606 38.9132 141.1101 0.0000 0.0000 0.0000
# 4 0.0000 0.0000 0.0000 5.3017 0.0000 0.0000
# 5 0.0000 0.0000 0.0000 0.0000 40.6033 0.0000
# 6 0.0000 0.0000 0.0000 0.0000 0.0000 10.0588
#
#
#
# Elastic Compliance Matrix: (Units=1/GPa)
#
#
# Indices 1 2 3 4 5 6 
#
# 1 0.008186 -0.003532 -0.001762 0.000000 0.000000 0.000000
# 2 -0.003532 0.013022 -0.002411 0.000000 0.000000 0.000000
# 3 -0.001762 -0.002411 0.008340 0.000000 0.000000 0.000000
# 4 0.000000 0.000000 0.000000 0.188617 0.000000 0.000000
# 5 0.000000 0.000000 0.000000 0.000000 0.024629 0.000000
# 6 0.000000 0.000000 0.000000 0.000000 0.000000 0.099416
#
#
# Mechanical properties :
#
#
# Convention : Reuss Voigt Hill
#
# Bulk Modulus (GPa) = 70.72279 74.01287 72.36783
# Shear Modulus (GPa) = 13.79946 28.28027 21.03986
#
# Velocity S-wave (km/s) = 2.63361 3.77018 3.25193
# Velocity P-wave (km/s) = 6.69287 7.49351 7.10448
#
# Compressibility (1/GPa) = 0.01413971
#
# Stress axis : x y z
#
# Youngs Moduli (GPa) = 122.15364 76.79198 119.89949
#
# Poissons Ratio (x) = 0.27123 0.21126
# Poissons Ratio (y) = 0.43144 0.28904
# Poissons Ratio (z) = 0.21523 0.18512
#
# Static dielectric constant tensor:
#      x y z
#    x 1.764160 0.000000 0.000000 
#    y 0.000000 1.698360 0.000000 
#    z 0.000000 0.000000 1.776340 
# 
# From -- ./inp_files/20002.got.cif
#   From: 2010.05.17/outbox.cif.g08.bks.cpg/sg22_11_cif.got.tgz:20002.got - 2010.06.03 23:40:54.
