data_PCOD9328361
_publ_section_title
;
Structure prediction by ZEFSAII (Michael W. Deem and Ramdas Pophale) SiO2 
 PCOD9328361
Probable space group: F 2 2 2
;
_chemical_formula_sum "Si O2"
_cell_formula_units_Z 48
_cell_length_a 10.717967
_cell_length_b 15.564626
_cell_length_c 13.158415
_cell_angle_alpha 90.000000
_cell_angle_beta 90.000000
_cell_angle_gamma 90.000000
_cell_volume 2195.101894
_symmetry_space_group_name_H-M "F 2 2 2"
_symmetry_group_IT_number 22
_symmetry_cell_setting 'orthorhombic'
loop_
_space_group_symop_operation_xyz
x,y,z
-x,-y,z
x,-y,-z
-x,y,-z
x,1/2+y,1/2+z
-x,1/2-y,1/2+z
x,1/2-y,1/2-z
-x,1/2+y,1/2-z
1/2+x,y,1/2+z
1/2-x,-y,1/2+z
1/2+x,-y,1/2-z
1/2-x,y,1/2-z
1/2+x,1/2+y,z
1/2-x,1/2-y,z
1/2+x,1/2-y,-z
1/2-x,1/2+y,-z
loop_
_atom_site_type_symbol
_atom_site_label
_atom_site_fract_x
_atom_site_fract_y
_atom_site_fract_z
Si Si1 0.500000 0.701683 0.500000
Si Si2 0.000000 0.500000 0.772261
Si Si3 0.295559 0.424869 0.423714
Si Si4 0.471391 0.365336 0.112935
O O1 0.620700 0.643118 0.485946
O O2 0.506450 0.765618 0.597261
O O3 0.887807 0.467529 0.842136
O O4 0.036976 0.421081 0.698750
O O5 0.255235 0.500000 0.500000
O O6 0.176789 0.378586 0.374820
O O7 0.500000 0.400025 0.000000
#
# Coordination Sequence:
#
# PCOD9328361 Si02
#       4
#     8   8  16  16
#     4  10  23  45  66 102 136 182 226 285 339 402
#     4  12  22  42  68 106 128 182 230 280 340 414
#     4  12  22  45  70  97 138 184 227 280 343 417
#     4  10  25  42  69  98 141 176 229 281 348 400
#
# _framework density 21.866866000000002
#
# number of rings (size 3 to 8) (size 9 to 14) (size 15 to 20)
#    1.000    0.000    3.333    4.500    0.000    1.333 
#    0.000    3.333    0.000    0.000    0.000    0.000 
#    0.000    0.000    0.000    0.000    0.000    0.000 
#
# Total GULP energy -67016.006247 kJ/mol
# GULP energy per Si atom -5584.667187 kJ/mol
# Density = 2.181710 g / cm^3
# Si number density = 21.866866 Si / 1000 Ang^3
#
#
#
# Elastic Constant Matrix: (Units=GPa)
#
#
# Indices 1 2 3 4 5 6 
#
# 1 99.7116 39.4813 32.4986 0.0000 0.0000 0.0000
# 2 39.4813 137.9890 26.7375 0.0000 0.0000 0.0000
# 3 32.4986 26.7375 69.5490 0.0000 0.0000 0.0000
# 4 0.0000 0.0000 0.0000 12.8617 0.0000 0.0000
# 5 0.0000 0.0000 0.0000 0.0000 28.3316 0.0000
# 6 0.0000 0.0000 0.0000 0.0000 0.0000 25.4907
#
#
#
# Elastic Compliance Matrix: (Units=1/GPa)
#
#
# Indices 1 2 3 4 5 6 
#
# 1 0.012687 -0.002681 -0.004898 0.000000 0.000000 0.000000
# 2 -0.002681 0.008397 -0.001975 0.000000 0.000000 0.000000
# 3 -0.004898 -0.001975 0.017426 0.000000 0.000000 0.000000
# 4 0.000000 0.000000 0.000000 0.077750 0.000000 0.000000
# 5 0.000000 0.000000 0.000000 0.000000 0.035296 0.000000
# 6 0.000000 0.000000 0.000000 0.000000 0.000000 0.039230
#
#
# Mechanical properties :
#
#
# Convention : Reuss Voigt Hill
#
# Bulk Modulus (GPa) = 51.54073 56.07604 53.80838
# Shear Modulus (GPa) = 23.10953 27.23895 25.17424
#
# Velocity S-wave (km/s) = 3.25442 3.53324 3.39669
# Velocity P-wave (km/s) = 6.14354 6.50730 6.32803
#
# Compressibility (1/GPa) = 0.01940213
#
# Stress axis : x y z
#
# Youngs Moduli (GPa) = 78.82279 119.09334 57.38470
#
# Poissons Ratio (x) = 0.31928 0.28104
# Poissons Ratio (y) = 0.21132 0.11335
# Poissons Ratio (z) = 0.38604 0.23525
#
# Static dielectric constant tensor:
#      x y z
#    x 1.781100 0.000000 0.000000 
#    y 0.000000 1.822130 0.000000 
#    z 0.000000 0.000000 1.811980 
# 
# From -- ./inp_files/17556.got.cif
#   From: 2010.05.17/outbox.cif.g08.bks.cpg/sg22_9_cif.got.tgz:17556.got - 2010.06.03 23:40:54.
