data_PCOD9328465
_publ_section_title
;
Structure prediction by ZEFSAII (Michael W. Deem and Ramdas Pophale) SiO2 
 PCOD9328465
Probable space group: F 2 2 2
;
_chemical_formula_sum "Si O2"
_cell_formula_units_Z 116
_cell_length_a 26.612412
_cell_length_b 21.213438
_cell_length_c 8.871842
_cell_angle_alpha 90.000000
_cell_angle_beta 90.000000
_cell_angle_gamma 90.000000
_cell_volume 5008.516354
_symmetry_space_group_name_H-M "F 2 2 2"
_symmetry_group_IT_number 22
_symmetry_cell_setting 'orthorhombic'
loop_
_space_group_symop_operation_xyz
x,y,z
-x,-y,z
x,-y,-z
-x,y,-z
x,1/2+y,1/2+z
-x,1/2-y,1/2+z
x,1/2-y,1/2-z
-x,1/2+y,1/2-z
1/2+x,y,1/2+z
1/2-x,-y,1/2+z
1/2+x,-y,1/2-z
1/2-x,y,1/2-z
1/2+x,1/2+y,z
1/2-x,1/2-y,z
1/2+x,1/2-y,-z
1/2-x,1/2+y,-z
loop_
_atom_site_type_symbol
_atom_site_label
_atom_site_fract_x
_atom_site_fract_y
_atom_site_fract_z
Si Si1 0.430557 0.367160 0.883001
Si Si2 0.166744 0.189244 0.836805
Si Si3 0.090384 0.583083 0.874759
Si Si4 0.467974 0.323520 0.215238
Si Si5 0.142953 0.989410 0.165124
Si Si6 0.260327 0.823968 0.574671
Si Si7 0.500000 0.500000 0.500000
Si Si8 0.814216 0.914397 0.595026
O O1 0.392506 0.313291 0.832521
O O2 0.479711 0.362180 0.779692
O O3 0.398866 0.432596 0.859676
O O4 0.446936 0.345745 0.051260
O O5 0.185723 0.250000 0.750000
O O6 0.185898 0.133899 0.732718
O O7 0.184251 0.172552 0.005071
O O8 0.072303 0.652642 0.836100
O O9 0.113378 0.549663 0.727345
O O10 0.040283 0.543933 0.914125
O O11 0.133112 0.583829 0.003320
O O12 0.476878 0.250000 0.250000
O O13 0.182750 0.977190 0.302106
O O14 0.165887 0.000000 0.000000
O O15 0.250000 0.826920 0.750000
O O16 0.250000 0.750000 0.531418
O O17 0.228230 0.882245 0.507149
#
# Coordination Sequence:
#
# PCOD9328465 Si02
#       8
#    16  16  16  16  16  16   4  16
#     4  10  24  43  66 106 144 208 247 309 381 449
#     4  11  23  43  71 100 148 200 247 301 379 455
#     4  12  25  44  72 108 148 197 254 318 371 453
#     4  11  25  41  65 105 161 197 254 305 377 461
#     4  11  22  47  74 104 141 191 261 311 379 444
#     4  11  25  45  74 109 151 198 254 307 372 471
#     4  12  24  44  74 104 144 200 262 302 380 434
#     4  11  25  42  72 111 145 185 248 325 386 441
#
# _framework density 23.160553
#
# number of rings (size 3 to 8) (size 9 to 14) (size 15 to 20)
#    0.000    0.966    4.138    1.655    5.793    1.103 
#    0.000    0.000    0.000   29.793    0.000    0.000 
#    0.000    0.000    0.000    0.000    0.000    0.000 
#
# Total GULP energy -161530.318481 kJ/mol
# GULP energy per Si atom -5570.010982 kJ/mol
# Density = 2.310784 g / cm^3
# Si number density = 23.160553 Si / 1000 Ang^3
#
#
#
# Elastic Constant Matrix: (Units=GPa)
#
#
# Indices 1 2 3 4 5 6 
#
# 1 50.3344 19.3576 14.2638 -0.0007 0.0069 0.0017
# 2 19.3576 75.4919 1.7150 0.0005 -0.0034 -0.0002
# 3 14.2638 1.7150 78.7726 0.0007 -0.0040 -0.0028
# 4 -0.0007 0.0005 0.0007 25.2835 -0.0056 -0.0014
# 5 0.0069 -0.0034 -0.0040 -0.0056 251.7373 0.0107
# 6 0.0017 -0.0002 -0.0028 -0.0014 0.0107 495.3803
#
#
#
# Elastic Compliance Matrix: (Units=1/GPa)
#
#
# Indices 1 2 3 4 5 6 
#
# 1 0.023286 -0.005878 -0.004089 0.000001 -0.000001 0.000000
# 2 -0.005878 0.014737 0.000744 0.000000 0.000000 0.000000
# 3 -0.004089 0.000744 0.013419 0.000000 0.000000 0.000000
# 4 0.000001 0.000000 0.000000 0.039552 0.000001 0.000000
# 5 -0.000001 0.000000 0.000000 0.000001 0.003972 0.000000
# 6 0.000000 0.000000 0.000000 0.000000 0.000000 0.002019
#
#
# Mechanical properties :
#
#
# Convention : Reuss Voigt Hill
#
# Bulk Modulus (GPa) = 30.30705 30.58576 30.44640
# Shear Modulus (GPa) = 39.54760 165.76438 102.65599
#
# Velocity S-wave (km/s) = 4.13672 8.46919 6.66482
# Velocity P-wave (km/s) = 5.99422 10.43412 8.50887
#
# Compressibility (1/GPa) = 0.03299563
#
# Stress axis : x y z
#
# Youngs Moduli (GPa) = 42.94345 67.85711 74.52154
#
# Poissons Ratio (x) = 0.39888 0.30469
# Poissons Ratio (y) = 0.25243 -0.05541
# Poissons Ratio (z) = 0.17558 -0.05046
#
# Static dielectric constant tensor:
#      x y z
#    x 1.896850 -0.000020 0.000000 
#    y -0.000020 -0.140730 0.000050 
#    z 0.000000 0.000050 1.519730 
# 
# From -- ./inp_files/14970.got.cif
#   From: 2010.05.17/outbox.cif.g08.bks.cpg/sg22_8_cif.got.tgz:14970.got - 2010.06.03 23:40:54.
