data_PCOD9328248
_publ_section_title
;
Structure prediction by ZEFSAII (Michael W. Deem and Ramdas Pophale) SiO2 
 PCOD9328248
Probable space group: F 2 2 2
;
_chemical_formula_sum "Si O2"
_cell_formula_units_Z 72
_cell_length_a 20.982623
_cell_length_b 7.294557
_cell_length_c 24.501264
_cell_angle_alpha 90.000000
_cell_angle_beta 90.000000
_cell_angle_gamma 90.000000
_cell_volume 3750.137484
_symmetry_space_group_name_H-M "F 2 2 2"
_symmetry_group_IT_number 22
_symmetry_cell_setting 'orthorhombic'
loop_
_space_group_symop_operation_xyz
x,y,z
-x,-y,z
x,-y,-z
-x,y,-z
x,1/2+y,1/2+z
-x,1/2-y,1/2+z
x,1/2-y,1/2-z
-x,1/2+y,1/2-z
1/2+x,y,1/2+z
1/2-x,-y,1/2+z
1/2+x,-y,1/2-z
1/2-x,y,1/2-z
1/2+x,1/2+y,z
1/2-x,1/2-y,z
1/2+x,1/2-y,-z
1/2-x,1/2+y,-z
loop_
_atom_site_type_symbol
_atom_site_label
_atom_site_fract_x
_atom_site_fract_y
_atom_site_fract_z
Si Si1 0.057936 0.148489 0.308168
Si Si2 0.250000 0.750000 0.144894
Si Si3 0.569432 0.979937 0.392784
Si Si4 0.787466 0.439375 0.562484
Si Si5 0.383604 0.787948 0.188984
O O1 0.060256 0.250000 0.250000
O O2 0.060028 0.307493 0.352536
O O3 0.114704 0.006028 0.318817
O O4 0.000000 0.000000 0.310801
O O5 0.253440 0.578839 0.103932
O O6 0.311151 0.731170 0.182451
O O7 0.635929 0.945144 0.424628
O O8 0.500000 0.000000 0.421895
O O9 0.580491 0.162566 0.355576
O O10 0.779666 0.500000 0.500000
O O11 0.750000 0.250000 0.569427
O O12 0.408199 0.750000 0.250000
#
# Coordination Sequence:
#
# PCOD9328248 Si02
#       5
#    16   8  16  16  16
#     4  12  21  34  57  88 125 165 204 237 292 368
#     4  10  23  40  64  88 118 162 203 254 316 362
#     4  11  23  39  61  93 126 163 204 254 311 364
#     4  11  23  44  69  90 117 158 211 264 318 381
#     4  11  21  37  59  89 128 163 201 246 294 371
#
# _framework density 19.199296
#
# number of rings (size 3 to 8) (size 9 to 14) (size 15 to 20)
#    0.000    0.889    5.556    3.000    0.000    0.444 
#    0.000    0.000    0.000    0.000    0.000    0.000 
#    0.000    0.000    0.000    0.000    0.000    0.000 
#
# Total GULP energy -100321.246020 kJ/mol
# GULP energy per Si atom -5573.402557 kJ/mol
# Density = 1.915560 g / cm^3
# Si number density = 19.199296 Si / 1000 Ang^3
#
#
#
# Elastic Constant Matrix: (Units=GPa)
#
#
# Indices 1 2 3 4 5 6 
#
# 1 69.9414 15.0501 6.2848 0.0000 0.0000 -0.0001
# 2 15.0501 133.6604 24.9362 -0.0001 0.0001 0.0000
# 3 6.2848 24.9362 52.2767 0.0000 0.0000 0.0000
# 4 0.0000 -0.0001 0.0000 22.6335 0.0000 0.0000
# 5 0.0000 0.0001 0.0000 0.0000 14.9287 0.0000
# 6 -0.0001 0.0000 0.0000 0.0000 0.0000 22.2564
#
#
#
# Elastic Compliance Matrix: (Units=1/GPa)
#
#
# Indices 1 2 3 4 5 6 
#
# 1 0.014707 -0.001456 -0.001074 0.000000 0.000000 0.000000
# 2 -0.001456 0.008357 -0.003811 0.000000 0.000000 0.000000
# 3 -0.001074 -0.003811 0.021076 0.000000 0.000000 0.000000
# 4 0.000000 0.000000 0.000000 0.044182 0.000000 0.000000
# 5 0.000000 0.000000 0.000000 0.000000 0.066985 0.000000
# 6 0.000000 0.000000 0.000000 0.000000 0.000000 0.044931
#
#
# Mechanical properties :
#
#
# Convention : Reuss Voigt Hill
#
# Bulk Modulus (GPa) = 31.78764 38.71343 35.25053
# Shear Modulus (GPa) = 22.38081 25.93754 24.15918
#
# Velocity S-wave (km/s) = 3.41795 3.67953 3.55115
# Velocity P-wave (km/s) = 5.67179 6.18544 5.93417
#
# Compressibility (1/GPa) = 0.03145877
#
# Stress axis : x y z
#
# Youngs Moduli (GPa) = 67.99288 119.66627 47.44737
#
# Poissons Ratio (x) = 0.17420 0.05095
# Poissons Ratio (y) = 0.09898 0.18083
# Poissons Ratio (z) = 0.07301 0.45606
#
# Static dielectric constant tensor:
#      x y z
#    x 1.765470 0.000000 0.000000 
#    y 0.000000 1.676250 0.000000 
#    z 0.000000 0.000000 1.632730 
# 
# From -- ./inp_files/4628.got.cif
#   From: 2010.05.17/outbox.cif.g08.bks.cpg/sg22_3_cif.got.tgz:4628.got - 2010.06.03 23:40:54.
