data_PCOD9328647
_publ_section_title
;
Structure prediction by ZEFSAII (Michael W. Deem and Ramdas Pophale) SiO2 
 PCOD9328647
Probable space group: F 2 2 2
;
_chemical_formula_sum "Si O2"
_cell_formula_units_Z 92
_cell_length_a 24.272426
_cell_length_b 11.649753
_cell_length_c 15.054243
_cell_angle_alpha 90.000000
_cell_angle_beta 90.000000
_cell_angle_gamma 90.000000
_cell_volume 4256.854686
_symmetry_space_group_name_H-M "F 2 2 2"
_symmetry_group_IT_number 22
_symmetry_cell_setting 'orthorhombic'
loop_
_space_group_symop_operation_xyz
x,y,z
-x,-y,z
x,-y,-z
-x,y,-z
x,1/2+y,1/2+z
-x,1/2-y,1/2+z
x,1/2-y,1/2-z
-x,1/2+y,1/2-z
1/2+x,y,1/2+z
1/2-x,-y,1/2+z
1/2+x,-y,1/2-z
1/2-x,y,1/2-z
1/2+x,1/2+y,z
1/2-x,1/2-y,z
1/2+x,1/2-y,-z
1/2-x,1/2+y,-z
loop_
_atom_site_type_symbol
_atom_site_label
_atom_site_fract_x
_atom_site_fract_y
_atom_site_fract_z
Si Si1 0.908649 0.927599 0.586535
Si Si2 0.298862 0.071756 0.118561
Si Si3 0.250000 0.250000 0.250000
Si Si4 0.059572 0.460163 0.379075
Si Si5 0.500000 0.500000 0.713156
Si Si6 0.741011 0.130324 0.437334
Si Si7 0.383022 0.333466 0.966444
O O1 0.959879 0.924335 0.653371
O O2 0.892180 0.797425 0.562248
O O3 0.926128 0.000000 0.500000
O O4 0.856380 0.002990 0.621883
O O5 0.288509 0.171081 0.188229
O O6 0.251585 0.975153 0.126774
O O7 0.284611 0.119524 0.019204
O O8 0.095872 0.575011 0.392710
O O9 0.085507 0.363914 0.441916
O O10 0.000000 0.500000 0.412711
O O11 0.042708 0.432380 0.278073
O O12 0.750000 0.250000 0.389464
O O13 0.680755 0.135322 0.478366
#
# Coordination Sequence:
#
# PCOD9328647 Si02
#       7
#    16  16   4  16   8  16  16
#     4  12  25  46  68 104 146 192 242 297 364 425
#     4  11  23  43  68 105 145 183 237 287 362 434
#     4  12  28  44  70 108 152 186 224 302 372 434
#     4   9  22  45  68 111 134 185 246 295 350 426
#     4  10  27  47  64 104 152 178 244 305 355 418
#     4  11  20  42  73 105 135 184 237 292 341 437
#     4  11  21  42  82 101 142 190 243 292 357 436
#
# _framework density 21.612202
#
# number of rings (size 3 to 8) (size 9 to 14) (size 15 to 20)
#    0.522    0.696    4.348    3.391    0.000    6.261 
#    3.130    0.435    0.000    0.000    0.000    0.000 
#    0.000    0.000    0.000    0.000    0.000    0.000 
#
# Total GULP energy -128214.202842 kJ/mol
# GULP energy per Si atom -5574.530558 kJ/mol
# Density = 2.156301 g / cm^3
# Si number density = 21.612202 Si / 1000 Ang^3
#
#
#
# Elastic Constant Matrix: (Units=GPa)
#
#
# Indices 1 2 3 4 5 6 
#
# 1 123.7451 55.1864 45.4345 0.0000 0.0000 0.0000
# 2 55.1864 160.7142 59.0566 0.0000 0.0000 0.0000
# 3 45.4345 59.0566 91.7121 0.0000 0.0000 0.0000
# 4 0.0000 0.0000 0.0000 29.8684 0.0000 0.0000
# 5 0.0000 0.0000 0.0000 0.0000 75.6898 0.0000
# 6 0.0000 0.0000 0.0000 0.0000 0.0000 18.6903
#
#
#
# Elastic Compliance Matrix: (Units=1/GPa)
#
#
# Indices 1 2 3 4 5 6 
#
# 1 0.010443 -0.002207 -0.003752 0.000000 0.000000 0.000000
# 2 -0.002207 0.008617 -0.004456 0.000000 0.000000 0.000000
# 3 -0.003752 -0.004456 0.015632 0.000000 0.000000 0.000000
# 4 0.000000 0.000000 0.000000 0.033480 0.000000 0.000000
# 5 0.000000 0.000000 0.000000 0.000000 0.013212 0.000000
# 6 0.000000 0.000000 0.000000 0.000000 0.000000 0.053504
#
#
# Mechanical properties :
#
#
# Convention : Reuss Voigt Hill
#
# Bulk Modulus (GPa) = 72.13906 77.28071 74.70989
# Shear Modulus (GPa) = 31.18394 39.28262 35.23328
#
# Velocity S-wave (km/s) = 3.80265 4.26797 4.04202
# Velocity P-wave (km/s) = 7.26165 7.75390 7.51181
#
# Compressibility (1/GPa) = 0.01386212
#
# Stress axis : x y z
#
# Youngs Moduli (GPa) = 95.75647 116.04432 63.97246
#
# Poissons Ratio (x) = 0.25613 0.24004
# Poissons Ratio (y) = 0.21135 0.28504
# Poissons Ratio (z) = 0.35931 0.51705
#
# Static dielectric constant tensor:
#      x y z
#    x 1.773300 0.000000 0.000000 
#    y 0.000000 1.746590 0.000000 
#    z 0.000000 0.000000 1.841560 
# 
# From -- ./inp_files/39503.got.cif
#   From: 2010.05.17/outbox.cif.g08.bks.cpg/sg22_20_cif.got.tgz:39503.got - 2010.06.03 23:40:54.
