data_PCOD9328216
_publ_section_title
;
Structure prediction by ZEFSAII (Michael W. Deem and Ramdas Pophale) SiO2 
 PCOD9328216
Probable space group: F 2 2 2
;
_chemical_formula_sum "Si O2"
_cell_formula_units_Z 104
_cell_length_a 20.143191
_cell_length_b 14.283715
_cell_length_c 18.331896
_cell_angle_alpha 90.000000
_cell_angle_beta 90.000000
_cell_angle_gamma 90.000000
_cell_volume 5274.445774
_symmetry_space_group_name_H-M "F 2 2 2"
_symmetry_group_IT_number 22
_symmetry_cell_setting 'orthorhombic'
loop_
_space_group_symop_operation_xyz
x,y,z
-x,-y,z
x,-y,-z
-x,y,-z
x,1/2+y,1/2+z
-x,1/2-y,1/2+z
x,1/2-y,1/2-z
-x,1/2+y,1/2-z
1/2+x,y,1/2+z
1/2-x,-y,1/2+z
1/2+x,-y,1/2-z
1/2-x,y,1/2-z
1/2+x,1/2+y,z
1/2-x,1/2-y,z
1/2+x,1/2-y,-z
1/2-x,1/2+y,-z
loop_
_atom_site_type_symbol
_atom_site_label
_atom_site_fract_x
_atom_site_fract_y
_atom_site_fract_z
Si Si1 0.750000 0.024366 0.750000
Si Si2 0.661972 0.104630 0.967771
Si Si3 0.338532 0.816420 0.680277
Si Si4 0.505098 0.803979 0.326640
Si Si5 0.750000 0.250000 0.555164
Si Si6 0.949667 0.652422 0.937193
Si Si7 0.381736 0.999902 0.168748
Si Si8 0.500000 0.500000 0.777530
O O1 0.705853 0.091594 0.697160
O O2 0.689854 0.973216 0.794727
O O3 0.732621 0.152411 0.981186
O O4 0.636745 0.084487 0.885767
O O5 0.613606 0.172209 0.012724
O O6 0.660810 0.000000 0.000000
O O7 0.328172 0.750000 0.750000
O O8 0.416599 0.823053 0.668362
O O9 0.310466 0.768785 0.608708
O O10 0.491558 0.750000 0.250000
O O11 0.479917 0.738406 0.392211
O O12 0.475925 0.908838 0.321482
O O13 0.921212 0.578077 0.878428
O O14 0.000000 0.614638 0.000000
O O15 0.437325 0.029586 0.227119
#
# Coordination Sequence:
#
# PCOD9328216 Si02
#       8
#     8  16  16  16   8  16  16   8
#     4  12  19  36  60 103 144 166 218 293 367 418
#     4  10  23  38  61  92 130 171 232 280 347 411
#     4  11  19  31  57  94 126 161 208 274 346 401
#     4  11  24  40  65 100 138 175 228 291 355 425
#     4  12  19  36  60  86 125 168 216 280 336 410
#     4  11  23  44  66  97 139 183 234 294 349 429
#     4  11  22  39  65 106 139 182 224 299 363 419
#     4  12  22  38  66 100 138 176 232 286 354 426
#
# _framework density 19.717711999999999
#
# number of rings (size 3 to 8) (size 9 to 14) (size 15 to 20)
#    0.000    0.923    6.154    1.846    2.154    2.154 
#    0.000    5.000    0.000    0.923    0.000    0.000 
#    0.000    0.000    0.000    0.000    0.000    0.000 
#
# Total GULP energy -144825.427925 kJ/mol
# GULP energy per Si atom -5570.208766 kJ/mol
# Density = 1.967283 g / cm^3
# Si number density = 19.717712 Si / 1000 Ang^3
#
#
#
# Elastic Constant Matrix: (Units=GPa)
#
#
# Indices 1 2 3 4 5 6 
#
# 1 104.8212 48.6761 48.8730 0.0000 0.0000 0.0000
# 2 48.6761 96.5496 36.3670 0.0000 0.0000 0.0000
# 3 48.8730 36.3670 73.3231 0.0000 0.0000 0.0000
# 4 0.0000 0.0000 0.0000 3.4589 0.0000 0.0000
# 5 0.0000 0.0000 0.0000 0.0000 29.8901 0.0000
# 6 0.0000 0.0000 0.0000 0.0000 0.0000 25.3215
#
#
#
# Elastic Compliance Matrix: (Units=1/GPa)
#
#
# Indices 1 2 3 4 5 6 
#
# 1 0.015470 -0.004815 -0.007924 0.000000 0.000000 0.000000
# 2 -0.004815 0.014235 -0.003851 0.000000 0.000000 0.000000
# 3 -0.007924 -0.003851 0.020830 0.000000 0.000000 0.000000
# 4 0.000000 0.000000 0.000000 0.289111 0.000000 0.000000
# 5 0.000000 0.000000 0.000000 0.000000 0.033456 0.000000
# 6 0.000000 0.000000 0.000000 0.000000 0.000000 0.039492
#
#
# Mechanical properties :
#
#
# Convention : Reuss Voigt Hill
#
# Bulk Modulus (GPa) = 57.61605 60.28068 58.94836
# Shear Modulus (GPa) = 11.07276 21.11929 16.09603
#
# Velocity S-wave (km/s) = 2.37230 3.27629 2.86024
# Velocity P-wave (km/s) = 6.06528 6.70450 6.39289
#
# Compressibility (1/GPa) = 0.01735628
#
# Stress axis : x y z
#
# Youngs Moduli (GPa) = 64.63988 70.24707 48.00823
#
# Poissons Ratio (x) = 0.33824 0.38039
# Poissons Ratio (y) = 0.31124 0.18489
# Poissons Ratio (z) = 0.51217 0.27053
#
# Static dielectric constant tensor:
#      x y z
#    x 1.795020 0.000000 0.000000 
#    y 0.000000 1.787450 0.000000 
#    z 0.000000 0.000000 1.760700 
# 
# From -- ./inp_files/38980.got.cif
#   From: 2010.05.17/outbox.cif.g08.bks.cpg/sg22_20_cif.got.tgz:38980.got - 2010.06.03 23:40:54.
