data_PCOD9328068
_publ_section_title
;
Structure prediction by ZEFSAII (Michael W. Deem and Ramdas Pophale) SiO2 
 PCOD9328068
Probable space group: F 2 2 2
;
_chemical_formula_sum "Si O2"
_cell_formula_units_Z 64
_cell_length_a 26.184214
_cell_length_b 11.250114
_cell_length_c 8.664122
_cell_angle_alpha 90.000000
_cell_angle_beta 90.000000
_cell_angle_gamma 90.000000
_cell_volume 2552.237139
_symmetry_space_group_name_H-M "F 2 2 2"
_symmetry_group_IT_number 22
_symmetry_cell_setting 'orthorhombic'
loop_
_space_group_symop_operation_xyz
x,y,z
-x,-y,z
x,-y,-z
-x,y,-z
x,1/2+y,1/2+z
-x,1/2-y,1/2+z
x,1/2-y,1/2-z
-x,1/2+y,1/2-z
1/2+x,y,1/2+z
1/2-x,-y,1/2+z
1/2+x,-y,1/2-z
1/2-x,y,1/2-z
1/2+x,1/2+y,z
1/2-x,1/2-y,z
1/2+x,1/2-y,-z
1/2-x,1/2+y,-z
loop_
_atom_site_type_symbol
_atom_site_label
_atom_site_fract_x
_atom_site_fract_y
_atom_site_fract_z
Si Si1 0.692186 0.123357 0.308570
Si Si2 0.945088 0.067417 0.358357
Si Si3 0.442641 0.338395 0.965745
Si Si4 0.157649 0.132935 0.154940
O O1 0.668864 0.250000 0.250000
O O2 0.750000 0.122322 0.250000
O O3 0.687914 0.131638 0.493276
O O4 0.669901 0.993092 0.264767
O O5 0.948312 0.201028 0.421095
O O6 0.925561 0.088827 0.185210
O O7 0.917509 0.000000 0.500000
O O8 0.000000 0.000000 0.343164
O O9 0.500000 0.376147 0.000000
O O10 0.401519 0.352698 0.100676
O O11 0.171254 0.250000 0.250000
#
# Coordination Sequence:
#
# PCOD9328068 Si02
#       4
#    16  16  16  16
#     4  10  26  54  82 115 162 213 276 357 443 520
#     4  10  22  42  72 104 154 233 284 330 407 478
#     4  11  25  45  72 116 172 220 278 344 410 498
#     4  11  28  49  84 130 162 218 287 352 435 518
#
# _framework density 25.076038
#
# number of rings (size 3 to 8) (size 9 to 14) (size 15 to 20)
#    0.000    1.500    2.500    0.000    7.000   18.000 
#    0.000    0.000    5.500    0.000    0.000    0.000 
#    0.000    0.000    0.000    0.000    0.000    0.000 
#
# Total GULP energy -89468.168664 kJ/mol
# GULP energy per Si atom -5591.760542 kJ/mol
# Density = 2.501896 g / cm^3
# Si number density = 25.076038 Si / 1000 Ang^3
#
#
#
# Elastic Constant Matrix: (Units=GPa)
#
#
# Indices 1 2 3 4 5 6 
#
# 1 116.9743 44.8934 6.6585 0.0000 0.0000 0.0000
# 2 44.8934 280.4990 66.8016 0.0000 0.0000 0.0000
# 3 6.6585 66.8016 75.3213 0.0000 0.0000 0.0000
# 4 0.0000 0.0000 0.0000 60.1761 0.0000 0.0000
# 5 0.0000 0.0000 0.0000 0.0000 29.4605 0.0000
# 6 0.0000 0.0000 0.0000 0.0000 0.0000 30.0495
#
#
#
# Elastic Compliance Matrix: (Units=1/GPa)
#
#
# Indices 1 2 3 4 5 6 
#
# 1 0.009131 -0.001609 0.000620 0.000000 0.000000 0.000000
# 2 -0.001609 0.004803 -0.004118 0.000000 0.000000 0.000000
# 3 0.000620 -0.004118 0.016874 0.000000 0.000000 0.000000
# 4 0.000000 0.000000 0.000000 0.016618 0.000000 0.000000
# 5 0.000000 0.000000 0.000000 0.000000 0.033944 0.000000
# 6 0.000000 0.000000 0.000000 0.000000 0.000000 0.033278
#
#
# Mechanical properties :
#
#
# Convention : Reuss Voigt Hill
#
# Bulk Modulus (GPa) = 48.55743 78.83351 63.69547
# Shear Modulus (GPa) = 37.95740 47.56661 42.76201
#
# Velocity S-wave (km/s) = 3.89484 4.36006 4.13400
# Velocity P-wave (km/s) = 6.29543 7.54008 6.94570
#
# Compressibility (1/GPa) = 0.02059417
#
# Stress axis : x y z
#
# Youngs Moduli (GPa) = 109.51543 208.19277 59.26417
#
# Poissons Ratio (x) = 0.33499 -0.03673
# Poissons Ratio (y) = 0.17621 0.24403
# Poissons Ratio (z) = -0.06788 0.85728
#
# Static dielectric constant tensor:
#      x y z
#    x 2.052940 0.000000 0.000000 
#    y 0.000000 2.014510 0.000000 
#    z 0.000000 0.000000 2.038200 
# 
# From -- ./inp_files/8547.got.cif
#   From: 2010.05.17/outbox.cif.g08.bks.cpg/sg22_5_cif.got.tgz:8547.got - 2010.06.03 23:40:54.
