data_PCOD9328942
_publ_section_title
;
Structure prediction by ZEFSAII (Michael W. Deem and Ramdas Pophale) SiO2 
 PCOD9328942
Probable space group: F 2 2 2
;
_chemical_formula_sum "Si O2"
_cell_formula_units_Z 68
_cell_length_a 15.423306
_cell_length_b 21.800993
_cell_length_c 8.987719
_cell_angle_alpha 90.000000
_cell_angle_beta 90.000000
_cell_angle_gamma 90.000000
_cell_volume 3022.061070
_symmetry_space_group_name_H-M "F 2 2 2"
_symmetry_group_IT_number 22
_symmetry_cell_setting 'orthorhombic'
loop_
_space_group_symop_operation_xyz
x,y,z
-x,-y,z
x,-y,-z
-x,y,-z
x,1/2+y,1/2+z
-x,1/2-y,1/2+z
x,1/2-y,1/2-z
-x,1/2+y,1/2-z
1/2+x,y,1/2+z
1/2-x,-y,1/2+z
1/2+x,-y,1/2-z
1/2-x,y,1/2-z
1/2+x,1/2+y,z
1/2-x,1/2-y,z
1/2+x,1/2-y,-z
1/2-x,1/2+y,-z
loop_
_atom_site_type_symbol
_atom_site_label
_atom_site_fract_x
_atom_site_fract_y
_atom_site_fract_z
Si Si1 0.684050 0.462198 0.363967
Si Si2 0.252691 0.346008 0.015068
Si Si3 0.977296 0.571316 0.677442
Si Si4 0.250000 0.250000 0.750000
Si Si5 0.101812 0.179298 0.249715
O O1 0.641168 0.500000 0.500000
O O2 0.750000 0.496856 0.250000
O O3 0.741572 0.414733 0.458186
O O4 0.616785 0.427271 0.256440
O O5 0.171238 0.329402 0.119385
O O6 0.340957 0.333426 0.103176
O O7 0.249525 0.302436 0.877113
O O8 0.030860 0.625927 0.754901
O O9 0.000000 0.500000 0.707425
O O10 0.000000 0.578915 0.500000
O O11 0.069224 0.250000 0.250000
#
# Coordination Sequence:
#
# PCOD9328942 Si02
#       5
#    16  16  16   4  16
#     4  12  28  46  78 112 143 200 257 304 377 449
#     4  11  23  42  77 111 149 195 249 303 358 452
#     4  11  27  49  74 108 159 192 247 316 378 441
#     4  12  20  42  68 112 156 174 258 302 348 434
#     4  11  23  47  74 108 152 201 243 302 383 445
#
# _framework density 22.501200000000001
#
# number of rings (size 3 to 8) (size 9 to 14) (size 15 to 20)
#    0.000    0.706    3.529    3.529    9.882    3.294 
#    6.353    0.000    0.000    0.000    0.000    0.000 
#    0.000    0.000    0.000    0.000    0.000    0.000 
#
# Total GULP energy -94646.387345 kJ/mol
# GULP energy per Si atom -5567.434550 kJ/mol
# Density = 2.244999 g / cm^3
# Si number density = 22.501200 Si / 1000 Ang^3
#
#
#
# Elastic Constant Matrix: (Units=GPa)
#
#
# Indices 1 2 3 4 5 6 
#
# 1 102.6431 37.8859 51.6434 0.0000 0.0000 0.0000
# 2 37.8859 118.5639 25.7637 0.0000 0.0000 0.0000
# 3 51.6434 25.7637 151.7583 0.0000 0.0000 0.0000
# 4 0.0000 0.0000 0.0000 48.5856 0.0000 0.0000
# 5 0.0000 0.0000 0.0000 0.0000 4.2573 0.0000
# 6 0.0000 0.0000 0.0000 0.0000 0.0000 9.7273
#
#
#
# Elastic Compliance Matrix: (Units=1/GPa)
#
#
# Indices 1 2 3 4 5 6 
#
# 1 0.012879 -0.003284 -0.003825 0.000000 0.000000 0.000000
# 2 -0.003284 0.009595 -0.000511 0.000000 0.000000 0.000000
# 3 -0.003825 -0.000511 0.007978 0.000000 0.000000 0.000000
# 4 0.000000 0.000000 0.000000 0.020582 0.000000 0.000000
# 5 0.000000 0.000000 0.000000 0.000000 0.234888 0.000000
# 6 0.000000 0.000000 0.000000 0.000000 0.000000 0.102803
#
#
# Mechanical properties :
#
#
# Convention : Reuss Voigt Hill
#
# Bulk Modulus (GPa) = 65.74385 67.06126 66.40256
# Shear Modulus (GPa) = 12.22382 29.69220 20.95801
#
# Velocity S-wave (km/s) = 2.33331 3.63655 3.05522
# Velocity P-wave (km/s) = 6.04487 6.89208 6.48233
#
# Compressibility (1/GPa) = 0.01521055
#
# Stress axis : x y z
#
# Youngs Moduli (GPa) = 77.64365 104.22293 125.34521
#
# Poissons Ratio (x) = 0.34229 0.47948
# Poissons Ratio (y) = 0.25500 0.06408
# Poissons Ratio (z) = 0.29701 0.05329
#
# Static dielectric constant tensor:
#      x y z
#    x 1.875820 0.000000 0.000000 
#    y 0.000000 1.849820 0.000000 
#    z 0.000000 0.000000 1.827560 
# 
# From -- ./inp_files/11268.got.cif
#   From: 2010.05.17/outbox.cif.g08.bks.cpg/sg22_6_cif.got.tgz:11268.got - 2010.06.03 23:40:54.
