data_PCOD9328519
_publ_section_title
;
Structure prediction by ZEFSAII (Michael W. Deem and Ramdas Pophale) SiO2 
 PCOD9328519
Probable space group: F 2 2 2
;
_chemical_formula_sum "Si O2"
_cell_formula_units_Z 72
_cell_length_a 13.892061
_cell_length_b 28.274712
_cell_length_c 8.031365
_cell_angle_alpha 90.000000
_cell_angle_beta 90.000000
_cell_angle_gamma 90.000000
_cell_volume 3154.672175
_symmetry_space_group_name_H-M "F 2 2 2"
_symmetry_group_IT_number 22
_symmetry_cell_setting 'orthorhombic'
loop_
_space_group_symop_operation_xyz
x,y,z
-x,-y,z
x,-y,-z
-x,y,-z
x,1/2+y,1/2+z
-x,1/2-y,1/2+z
x,1/2-y,1/2-z
-x,1/2+y,1/2-z
1/2+x,y,1/2+z
1/2-x,-y,1/2+z
1/2+x,-y,1/2-z
1/2-x,y,1/2-z
1/2+x,1/2+y,z
1/2-x,1/2-y,z
1/2+x,1/2-y,-z
1/2-x,1/2+y,-z
loop_
_atom_site_type_symbol
_atom_site_label
_atom_site_fract_x
_atom_site_fract_y
_atom_site_fract_z
Si Si1 0.239069 0.000000 0.000000
Si Si2 0.901140 0.527115 0.217674
Si Si3 0.486043 0.620226 0.685694
Si Si4 0.860103 0.700249 0.298100
Si Si5 0.359753 0.695597 0.192908
O O1 0.162948 0.996454 0.152273
O O2 0.320500 0.036651 0.072263
O O3 0.942132 0.576513 0.288904
O O4 0.000000 0.500000 0.175902
O O5 0.500000 0.601115 0.500000
O O6 0.404459 0.659547 0.688382
O O7 0.576826 0.651594 0.741606
O O8 0.905993 0.750000 0.250000
O O9 0.750000 0.702266 0.250000
O O10 0.870738 0.693466 0.493996
O O11 0.382976 0.750000 0.250000
O O12 0.250000 0.688476 0.250000
#
# Coordination Sequence:
#
# PCOD9328519 Si02
#       5
#     8  16  16  16  16
#     4  10  24  46  76 100 136 194 226 302 380 460
#     4  11  25  49  73 106 144 186 248 307 384 456
#     4  12  25  43  69 103 143 188 248 307 370 449
#     4  11  23  41  66 100 145 192 244 305 366 445
#     4  11  23  44  69 102 151 205 253 303 376 453
#
# _framework density 22.823288999999999
#
# number of rings (size 3 to 8) (size 9 to 14) (size 15 to 20)
#    0.000    0.889    0.000    8.667    3.111    3.556 
#   12.000    0.000    0.000    0.000    0.000    0.000 
#    0.000    0.000    0.000    0.000    0.000    0.000 
#
# Total GULP energy -100271.242754 kJ/mol
# GULP energy per Si atom -5570.624597 kJ/mol
# Density = 2.277134 g / cm^3
# Si number density = 22.823289 Si / 1000 Ang^3
#
#
#
# Elastic Constant Matrix: (Units=GPa)
#
#
# Indices 1 2 3 4 5 6 
#
# 1 195.9480 49.8721 27.4028 0.0000 0.0000 0.0000
# 2 49.8721 101.7287 -3.8386 0.0000 0.0000 0.0000
# 3 27.4028 -3.8386 94.7560 0.0000 0.0000 0.0000
# 4 0.0000 0.0000 0.0000 19.0408 0.0000 0.0000
# 5 0.0000 0.0000 0.0000 0.0000 9.9250 0.0000
# 6 0.0000 0.0000 0.0000 0.0000 0.0000 31.5118
#
#
#
# Elastic Compliance Matrix: (Units=1/GPa)
#
#
# Indices 1 2 3 4 5 6 
#
# 1 0.006156 -0.003090 -0.001906 0.000000 0.000000 0.000000
# 2 -0.003090 0.011396 0.001355 0.000000 0.000000 0.000000
# 3 -0.001906 0.001355 0.011159 0.000000 0.000000 0.000000
# 4 0.000000 0.000000 0.000000 0.052519 0.000000 0.000000
# 5 0.000000 0.000000 0.000000 0.000000 0.100756 0.000000
# 6 0.000000 0.000000 0.000000 0.000000 0.000000 0.031734
#
#
# Mechanical properties :
#
#
# Convention : Reuss Voigt Hill
#
# Bulk Modulus (GPa) = 46.66088 59.92279 53.29184
# Shear Modulus (GPa) = 21.91587 33.36193 27.63890
#
# Velocity S-wave (km/s) = 3.10214 3.82743 3.48371
# Velocity P-wave (km/s) = 5.77233 6.77085 6.29143
#
# Compressibility (1/GPa) = 0.02143123
#
# Stress axis : x y z
#
# Youngs Moduli (GPa) = 162.43394 87.74940 89.61056
#
# Poissons Ratio (x) = 0.27115 0.17076
# Poissons Ratio (y) = 0.50193 -0.12145
# Poissons Ratio (z) = 0.30953 -0.11893
#
# Static dielectric constant tensor:
#      x y z
#    x 1.833420 0.000000 0.000000 
#    y 0.000000 1.861930 0.000000 
#    z 0.000000 0.000000 1.915140 
# 
# From -- ./inp_files/10151.got.cif
#   From: 2010.05.17/outbox.cif.g08.bks.cpg/sg22_6_cif.got.tgz:10151.got - 2010.06.03 23:40:54.
