data_PCOD9328011
_publ_section_title
;
Structure prediction by ZEFSAII (Michael W. Deem and Ramdas Pophale) SiO2 
 PCOD9328011
Probable space group: F 2 2 2
;
_chemical_formula_sum "Si O2"
_cell_formula_units_Z 52
_cell_length_a 18.049626
_cell_length_b 8.229290
_cell_length_c 12.846088
_cell_angle_alpha 90.000000
_cell_angle_beta 90.000000
_cell_angle_gamma 90.000000
_cell_volume 1908.101475
_symmetry_space_group_name_H-M "F 2 2 2"
_symmetry_group_IT_number 22
_symmetry_cell_setting 'orthorhombic'
loop_
_space_group_symop_operation_xyz
x,y,z
-x,-y,z
x,-y,-z
-x,y,-z
x,1/2+y,1/2+z
-x,1/2-y,1/2+z
x,1/2-y,1/2-z
-x,1/2+y,1/2-z
1/2+x,y,1/2+z
1/2-x,-y,1/2+z
1/2+x,-y,1/2-z
1/2-x,y,1/2-z
1/2+x,1/2+y,z
1/2-x,1/2-y,z
1/2+x,1/2-y,-z
1/2-x,1/2+y,-z
loop_
_atom_site_type_symbol
_atom_site_label
_atom_site_fract_x
_atom_site_fract_y
_atom_site_fract_z
Si Si1 0.750000 0.475397 0.750000
Si Si2 0.500000 0.000000 0.000000
Si Si3 0.909024 0.109870 0.828695
Si Si4 0.913570 0.290487 0.438905
Si Si5 0.750000 0.250000 0.406362
O O1 0.820363 0.391533 0.696561
O O2 0.721359 0.599274 0.662336
O O3 0.553906 0.110245 0.070991
O O4 0.936567 0.250000 0.750000
O O5 0.925307 0.915293 0.842763
O O6 0.936971 0.162155 0.943163
O O7 0.824852 0.299517 0.460686
#
# Coordination Sequence:
#
# PCOD9328011 Si02
#       5
#     8   4  16  16   8
#     4   9  19  36  68 110 152 184 256 344 396 464
#     4  12  28  50  76 108 172 218 256 326 408 484
#     4  10  22  41  70 110 149 200 265 333 393 475
#     4  10  25  45  72 110 153 212 262 326 406 478
#     4   9  20  40  71 106 148 194 265 328 396 469
#
# _framework density 27.252220000000001
#
# number of rings (size 3 to 8) (size 9 to 14) (size 15 to 20)
#    0.000    2.154    0.000    0.462    8.615    4.923 
#    0.000    3.077    0.000    0.000    0.000    0.000 
#    0.000    0.000    0.000    0.000    0.000    0.000 
#
# Total GULP energy -72455.196966 kJ/mol
# GULP energy per Si atom -5573.476690 kJ/mol
# Density = 2.719019 g / cm^3
# Si number density = 27.252220 Si / 1000 Ang^3
#
#
#
# Elastic Constant Matrix: (Units=GPa)
#
#
# Indices 1 2 3 4 5 6 
#
# 1 135.3915 64.3315 55.8472 0.0000 0.0000 0.0000
# 2 64.3315 174.1788 83.2534 0.0000 0.0000 0.0000
# 3 55.8472 83.2534 140.1761 0.0000 0.0000 0.0000
# 4 0.0000 0.0000 0.0000 738.6667 0.0000 0.0000
# 5 0.0000 0.0000 0.0000 0.0000 49.4925 0.0000
# 6 0.0000 0.0000 0.0000 0.0000 0.0000 46.1599
#
#
#
# Elastic Compliance Matrix: (Units=1/GPa)
#
#
# Indices 1 2 3 4 5 6 
#
# 1 0.009492 -0.002371 -0.002373 0.000000 0.000000 0.000000
# 2 -0.002371 0.008610 -0.004169 0.000000 0.000000 0.000000
# 3 -0.002373 -0.004169 0.010555 0.000000 0.000000 0.000000
# 4 0.000000 0.000000 0.000000 0.001354 0.000000 0.000000
# 5 0.000000 0.000000 0.000000 0.000000 0.020205 0.000000
# 6 0.000000 0.000000 0.000000 0.000000 0.000000 0.021664
#
#
# Mechanical properties :
#
#
# Convention : Reuss Voigt Hill
#
# Bulk Modulus (GPa) = 92.33486 95.17896 93.75691
# Shear Modulus (GPa) = 53.58171 183.28477 118.43324
#
# Velocity S-wave (km/s) = 4.43893 8.20981 6.59943
# Velocity P-wave (km/s) = 7.76062 11.17448 9.62019
#
# Compressibility (1/GPa) = 0.01083015
#
# Stress axis : x y z
#
# Youngs Moduli (GPa) = 105.35593 116.14972 94.74002
#
# Poissons Ratio (x) = 0.27543 0.22483
# Poissons Ratio (y) = 0.24984 0.39494
# Poissons Ratio (z) = 0.25002 0.48419
#
# Static dielectric constant tensor:
#      x y z
#    x 0.464330 0.000000 0.000000 
#    y 0.000000 2.455470 0.000000 
#    z 0.000000 0.000000 2.094330 
# 
# From -- ./inp_files/12069.got.cif
#   From: 2010.05.17/outbox.cif.g08.bks.cpg/sg22_7_cif.got.tgz:12069.got - 2010.06.03 23:40:54.
