data_PCOD9328812
_publ_section_title
;
Structure prediction by ZEFSAII (Michael W. Deem and Ramdas Pophale) SiO2 
 PCOD9328812
Probable space group: F 2 2 2
;
_chemical_formula_sum "Si O2"
_cell_formula_units_Z 84
_cell_length_a 22.212965
_cell_length_b 20.068590
_cell_length_c 8.354248
_cell_angle_alpha 90.000000
_cell_angle_beta 90.000000
_cell_angle_gamma 90.000000
_cell_volume 3724.180794
_symmetry_space_group_name_H-M "F 2 2 2"
_symmetry_group_IT_number 22
_symmetry_cell_setting 'orthorhombic'
loop_
_space_group_symop_operation_xyz
x,y,z
-x,-y,z
x,-y,-z
-x,y,-z
x,1/2+y,1/2+z
-x,1/2-y,1/2+z
x,1/2-y,1/2-z
-x,1/2+y,1/2-z
1/2+x,y,1/2+z
1/2-x,-y,1/2+z
1/2+x,-y,1/2-z
1/2-x,y,1/2-z
1/2+x,1/2+y,z
1/2-x,1/2-y,z
1/2+x,1/2-y,-z
1/2-x,1/2+y,-z
loop_
_atom_site_type_symbol
_atom_site_label
_atom_site_fract_x
_atom_site_fract_y
_atom_site_fract_z
Si Si1 0.140661 0.281394 0.516177
Si Si2 0.365217 0.846181 0.828623
Si Si3 0.068247 0.017955 0.312520
Si Si4 0.750000 0.250000 0.250000
Si Si5 0.728272 0.921944 0.983907
Si Si6 0.350799 0.405118 0.828513
O O1 0.118668 0.206563 0.471702
O O2 0.144756 0.310203 0.338638
O O3 0.202161 0.277595 0.618898
O O4 0.109853 0.340445 0.621395
O O5 0.413669 0.904745 0.803442
O O6 0.302912 0.881558 0.876284
O O7 0.076663 0.000000 0.500000
O O8 0.110518 0.970384 0.206804
O O9 0.000000 0.000000 0.270638
O O10 0.690982 0.896349 0.829151
O O11 0.799570 0.916120 0.962719
O O12 0.715374 0.000000 0.000000
#
# Coordination Sequence:
#
# PCOD9328812 Si02
#       6
#    16  16  16   4  16  16
#     4  11  26  40  72  96 155 192 234 297 353 454
#     4  11  23  46  66 107 140 191 245 291 366 431
#     4  11  24  48  79 100 138 189 247 305 359 431
#     4  12  24  46  56 108 144 214 224 266 384 432
#     4  11  22  38  66 100 152 179 234 293 353 442
#     4  11  22  39  64 109 134 191 227 289 365 424
#
# _framework density 22.555295999999998
#
# number of rings (size 3 to 8) (size 9 to 14) (size 15 to 20)
#    0.000    0.952    3.810    3.429    2.667    5.333 
#    0.000    1.905   16.762    0.000    0.000    0.000 
#    0.000    0.000    0.000    0.000    0.000    0.000 
#
# Total GULP energy -117133.153837 kJ/mol
# GULP energy per Si atom -5577.769230 kJ/mol
# Density = 2.250396 g / cm^3
# Si number density = 22.555296 Si / 1000 Ang^3
#
#
#
# Elastic Constant Matrix: (Units=GPa)
#
#
# Indices 1 2 3 4 5 6 
#
# 1 103.0080 53.1241 24.9719 0.0000 0.0000 0.0000
# 2 53.1241 184.5628 52.0488 -0.0001 0.0001 0.0000
# 3 24.9719 52.0488 83.3691 -0.0002 0.0002 0.0001
# 4 0.0000 -0.0001 -0.0002 52.2090 0.0001 0.0000
# 5 0.0000 0.0001 0.0002 0.0001 15.6997 0.0000
# 6 0.0000 0.0000 0.0001 0.0000 0.0000 6.0714
#
#
#
# Elastic Compliance Matrix: (Units=1/GPa)
#
#
# Indices 1 2 3 4 5 6 
#
# 1 0.011592 -0.002861 -0.001686 0.000000 0.000000 0.000000
# 2 -0.002861 0.007282 -0.003689 0.000000 0.000000 0.000000
# 3 -0.001686 -0.003689 0.014803 0.000000 0.000000 0.000000
# 4 0.000000 0.000000 0.000000 0.019154 0.000000 0.000000
# 5 0.000000 0.000000 0.000000 0.000000 0.063695 0.000000
# 6 0.000000 0.000000 0.000000 0.000000 0.000000 0.164708
#
#
# Mechanical properties :
#
#
# Convention : Reuss Voigt Hill
#
# Bulk Modulus (GPa) = 58.12411 70.13661 64.13036
# Shear Modulus (GPa) = 16.47756 30.84903 23.66330
#
# Velocity S-wave (km/s) = 2.70578 3.70226 3.24253
# Velocity P-wave (km/s) = 5.96550 7.03126 6.52019
#
# Compressibility (1/GPa) = 0.01720457
#
# Stress axis : x y z
#
# Youngs Moduli (GPa) = 86.26388 137.32057 67.55296
#
# Poissons Ratio (x) = 0.39291 0.11389
# Poissons Ratio (y) = 0.24682 0.24923
# Poissons Ratio (z) = 0.14544 0.50663
#
# Static dielectric constant tensor:
#      x y z
#    x 1.796860 0.000000 0.000000 
#    y 0.000000 1.993450 0.000000 
#    z 0.000000 0.000000 1.888760 
# 
# From -- ./inp_files/13658.got.cif
#   From: 2010.05.17/outbox.cif.g08.bks.cpg/sg22_7_cif.got.tgz:13658.got - 2010.06.03 23:40:54.
