data_PCOD9328464
_publ_section_title
;
Structure prediction by ZEFSAII (Michael W. Deem and Ramdas Pophale) SiO2 
 PCOD9328464
Probable space group: F 2 2 2
;
_chemical_formula_sum "Si O2"
_cell_formula_units_Z 36
_cell_length_a 7.077825
_cell_length_b 7.406533
_cell_length_c 25.914634
_cell_angle_alpha 90.000000
_cell_angle_beta 90.000000
_cell_angle_gamma 90.000000
_cell_volume 1358.500686
_symmetry_space_group_name_H-M "F 2 2 2"
_symmetry_group_IT_number 22
_symmetry_cell_setting 'orthorhombic'
loop_
_space_group_symop_operation_xyz
x,y,z
-x,-y,z
x,-y,-z
-x,y,-z
x,1/2+y,1/2+z
-x,1/2-y,1/2+z
x,1/2-y,1/2-z
-x,1/2+y,1/2-z
1/2+x,y,1/2+z
1/2-x,-y,1/2+z
1/2+x,-y,1/2-z
1/2-x,y,1/2-z
1/2+x,1/2+y,z
1/2-x,1/2-y,z
1/2+x,1/2-y,-z
1/2-x,1/2+y,-z
loop_
_atom_site_type_symbol
_atom_site_label
_atom_site_fract_x
_atom_site_fract_y
_atom_site_fract_z
Si Si1 0.750000 0.250000 0.250000
Si Si2 0.221292 0.959200 0.556821
Si Si3 0.272546 0.532848 0.669327
O O1 0.828321 0.398055 0.290689
O O2 0.250000 0.750000 0.563050
O O3 0.288798 0.033162 0.611770
O O4 0.299861 0.000000 0.500000
O O5 0.000000 0.000000 0.554685
O O6 0.500000 0.500000 0.674317
O O7 0.250000 0.750000 0.676877
#
# Coordination Sequence:
#
# PCOD9328464 Si02
#       3
#     4  16  16
#     4  12  26  36  70  90 140 176 230 280 336 414
#     4   9  19  39  66  94 132 171 221 277 336 402
#     4  10  24  43  65  98 133 179 229 280 341 405
#
# _framework density 26.499801000000001
#
# number of rings (size 3 to 8) (size 9 to 14) (size 15 to 20)
#    0.000    2.222    0.000    0.667    9.333    0.000 
#    0.000    4.444    0.000    0.000    0.000    0.000 
#    0.000    0.000    0.000    0.000    0.000    0.000 
#
# Total GULP energy -50193.171593 kJ/mol
# GULP energy per Si atom -5577.019066 kJ/mol
# Density = 2.643949 g / cm^3
# Si number density = 26.499801 Si / 1000 Ang^3
#
#
#
# Elastic Constant Matrix: (Units=GPa)
#
#
# Indices 1 2 3 4 5 6 
#
# 1 160.6289 42.6211 -4.8595 0.0000 0.0000 0.0000
# 2 42.6211 202.9046 82.8569 0.0000 0.0000 0.0000
# 3 -4.8595 82.8569 317.7734 0.0000 0.0000 0.0000
# 4 0.0000 0.0000 0.0000 55.1624 0.0000 0.0000
# 5 0.0000 0.0000 0.0000 0.0000 -31.3044 0.0000
# 6 0.0000 0.0000 0.0000 0.0000 0.0000 47.1067
#
#
#
# Elastic Compliance Matrix: (Units=1/GPa)
#
#
# Indices 1 2 3 4 5 6 
#
# 1 0.006670 -0.001615 0.000523 0.000000 0.000000 0.000000
# 2 -0.001615 0.005907 -0.001565 0.000000 0.000000 0.000000
# 3 0.000523 -0.001565 0.003563 0.000000 0.000000 0.000000
# 4 0.000000 0.000000 0.000000 0.018128 0.000000 0.000000
# 5 0.000000 0.000000 0.000000 0.000000 -0.031944 0.000000
# 6 0.000000 0.000000 0.000000 0.000000 0.000000 0.021228
#
#
# Mechanical properties :
#
#
# Convention : Reuss Voigt Hill
#
# Bulk Modulus (GPa) = 92.36619 102.50488 97.43553
# Shear Modulus (GPa) = 153.97362 51.57216 102.77289
#
# Velocity S-wave (km/s) = 7.63085 4.41629 6.23432
# Velocity P-wave (km/s) = 10.60994 8.04799 9.41650
#
# Compressibility (1/GPa) = 0.01082647
#
# Stress axis : x y z
#
# Youngs Moduli (GPa) = 149.93035 169.30333 280.67046
#
# Poissons Ratio (x) = 0.27335 -0.14679
# Poissons Ratio (y) = 0.24207 0.43919
# Poissons Ratio (z) = -0.07841 0.26492
#
# Static dielectric constant tensor:
#      x y z
#    x 2.425170 0.000000 0.000000 
#    y 0.000000 1.971270 0.000000 
#    z 0.000000 0.000000 2.481350 
# 
# From -- ./inp_files/762.got.cif
#   From: 2010.05.17/outbox.cif.g08.bks.cpg/sg22_1_cif.got.tgz:762.got - 2010.06.03 23:40:54.
