data_PCOD9328523
_publ_section_title
;
Structure prediction by ZEFSAII (Michael W. Deem and Ramdas Pophale) SiO2 
 PCOD9328523
Probable space group: F 2 2 2
;
_chemical_formula_sum "Si O2"
_cell_formula_units_Z 60
_cell_length_a 7.104287
_cell_length_b 17.052135
_cell_length_c 20.199383
_cell_angle_alpha 90.000000
_cell_angle_beta 90.000000
_cell_angle_gamma 90.000000
_cell_volume 2447.019127
_symmetry_space_group_name_H-M "F 2 2 2"
_symmetry_group_IT_number 22
_symmetry_cell_setting 'orthorhombic'
loop_
_space_group_symop_operation_xyz
x,y,z
-x,-y,z
x,-y,-z
-x,y,-z
x,1/2+y,1/2+z
-x,1/2-y,1/2+z
x,1/2-y,1/2-z
-x,1/2+y,1/2-z
1/2+x,y,1/2+z
1/2-x,-y,1/2+z
1/2+x,-y,1/2-z
1/2-x,y,1/2-z
1/2+x,1/2+y,z
1/2-x,1/2-y,z
1/2+x,1/2-y,-z
1/2-x,1/2+y,-z
loop_
_atom_site_type_symbol
_atom_site_label
_atom_site_fract_x
_atom_site_fract_y
_atom_site_fract_z
Si Si1 0.750000 0.750000 0.250000
Si Si2 0.029734 0.226538 0.423470
Si Si3 0.750000 0.973853 0.750000
Si Si4 0.874491 0.933369 0.372981
Si Si5 0.002997 0.635726 0.655775
O O1 0.881922 0.693159 0.294041
O O2 0.250000 0.250000 0.419077
O O3 0.015401 0.147806 0.380470
O O4 0.917546 0.301610 0.395809
O O5 0.000000 0.208729 0.500000
O O6 0.633848 0.918604 0.699090
O O7 0.850384 0.035523 0.701304
O O8 0.654738 0.915257 0.386811
O O9 0.000000 0.000000 0.408184
#
# Coordination Sequence:
#
# PCOD9328523 Si02
#       5
#     4  16   8  16  16
#     4  12  18  42  68  94 136 174 226 298 358 402
#     4  10  24  47  70  95 135 190 242 287 341 411
#     4  12  25  39  67 113 142 174 226 292 380 426
#     4  11  22  42  66  97 138 182 223 289 355 417
#     4  11  24  43  69  99 143 180 233 296 350 429
#
# _framework density 24.519628000000001
#
# number of rings (size 3 to 8) (size 9 to 14) (size 15 to 20)
#    0.000    1.067    4.000    4.800    0.000    3.200 
#    0.000    2.667    0.000    1.600    0.000    0.000 
#    0.000    0.000    0.000    0.000    0.000    0.000 
#
# Total GULP energy -83680.662879 kJ/mol
# GULP energy per Si atom -5578.710859 kJ/mol
# Density = 2.446382 g / cm^3
# Si number density = 24.519628 Si / 1000 Ang^3
#
#
#
# Elastic Constant Matrix: (Units=GPa)
#
#
# Indices 1 2 3 4 5 6 
#
# 1 63.2378 58.3894 30.5016 0.0000 0.0000 0.0000
# 2 58.3894 201.3600 69.9381 0.0000 0.0000 0.0000
# 3 30.5016 69.9381 102.1295 0.0000 0.0000 0.0000
# 4 0.0000 0.0000 0.0000 12.5419 0.0000 0.0000
# 5 0.0000 0.0000 0.0000 0.0000 20.6547 0.0000
# 6 0.0000 0.0000 0.0000 0.0000 0.0000 44.7736
#
#
#
# Elastic Compliance Matrix: (Units=1/GPa)
#
#
# Indices 1 2 3 4 5 6 
#
# 1 0.022240 -0.005435 -0.002920 0.000000 0.000000 0.000000
# 2 -0.005435 0.007844 -0.003749 0.000000 0.000000 0.000000
# 3 -0.002920 -0.003749 0.013231 0.000000 0.000000 0.000000
# 4 0.000000 0.000000 0.000000 0.079733 0.000000 0.000000
# 5 0.000000 0.000000 0.000000 0.000000 0.048415 0.000000
# 6 0.000000 0.000000 0.000000 0.000000 0.000000 0.022335
#
#
# Mechanical properties :
#
#
# Convention : Reuss Voigt Hill
#
# Bulk Modulus (GPa) = 52.33562 76.04283 64.18922
# Shear Modulus (GPa) = 22.28425 29.45392 25.86909
#
# Velocity S-wave (km/s) = 3.01796 3.46965 3.25166
# Velocity P-wave (km/s) = 5.79092 6.86525 6.35084
#
# Compressibility (1/GPa) = 0.01910745
#
# Stress axis : x y z
#
# Youngs Moduli (GPa) = 44.96408 127.48391 75.58183
#
# Poissons Ratio (x) = 0.69283 0.22073
# Poissons Ratio (y) = 0.24437 0.28332
# Poissons Ratio (z) = 0.13132 0.47788
#
# Static dielectric constant tensor:
#      x y z
#    x 2.280390 0.000000 0.000000 
#    y 0.000000 2.001990 0.000000 
#    z 0.000000 0.000000 1.968310 
# 
# From -- ./inp_files/46968.got.cif
#   From: 2010.05.17/outbox.cif.g08.bks.cpg/sg22_24_cif.got.tgz:46968.got - 2010.06.03 23:40:54.
