data_PCOD9328330
_publ_section_title
;
Structure prediction by ZEFSAII (Michael W. Deem and Ramdas Pophale) SiO2 
 PCOD9328330
Probable space group: F 2 2 2
;
_chemical_formula_sum "Si O2"
_cell_formula_units_Z 104
_cell_length_a 28.087933
_cell_length_b 9.359973
_cell_length_c 19.382573
_cell_angle_alpha 90.000000
_cell_angle_beta 90.000000
_cell_angle_gamma 90.000000
_cell_volume 5095.722915
_symmetry_space_group_name_H-M "F 2 2 2"
_symmetry_group_IT_number 22
_symmetry_cell_setting 'orthorhombic'
loop_
_space_group_symop_operation_xyz
x,y,z
-x,-y,z
x,-y,-z
-x,y,-z
x,1/2+y,1/2+z
-x,1/2-y,1/2+z
x,1/2-y,1/2-z
-x,1/2+y,1/2-z
1/2+x,y,1/2+z
1/2-x,-y,1/2+z
1/2+x,-y,1/2-z
1/2-x,y,1/2-z
1/2+x,1/2+y,z
1/2-x,1/2-y,z
1/2+x,1/2-y,-z
1/2-x,1/2+y,-z
loop_
_atom_site_type_symbol
_atom_site_label
_atom_site_fract_x
_atom_site_fract_y
_atom_site_fract_z
Si Si1 0.350180 0.922200 0.856467
Si Si2 0.996483 0.331435 0.683984
Si Si3 0.259417 0.412825 0.668575
Si Si4 0.954344 0.709791 0.544055
Si Si5 0.595089 0.500000 0.500000
Si Si6 0.126202 0.000000 0.000000
Si Si7 0.294137 0.661634 0.914679
Si Si8 0.094989 0.750000 0.750000
O O1 0.318159 0.779465 0.865852
O O2 0.378612 0.881858 0.786612
O O3 0.314299 0.051004 0.844120
O O4 0.376362 0.957685 0.929269
O O5 0.016580 0.250000 0.750000
O O6 0.024032 0.273943 0.619180
O O7 0.000000 0.500000 0.688495
O O8 0.940166 0.298780 0.688113
O O9 0.250000 0.430155 0.750000
O O10 0.250000 0.250000 0.648199
O O11 0.228185 0.526765 0.625518
O O12 0.935924 0.860591 0.516358
O O13 0.910525 0.598645 0.542936
O O14 0.000000 0.659934 0.500000
O O15 0.162605 0.895714 0.960581
O O16 0.250000 0.750000 0.949342
#
# Coordination Sequence:
#
# PCOD9328330 Si02
#       8
#    16  16  16  16   8   8  16   8
#     4  11  23  44  68 105 138 193 249 296 368 468
#     4  10  25  43  68 102 145 192 242 304 370 427
#     4  10  23  43  69 102 142 181 236 313 378 436
#     4  12  26  46  72 104 149 188 251 302 371 442
#     4  12  27  43  72 107 145 194 247 316 381 436
#     4  12  25  43  74 101 137 192 234 292 370 438
#     4  10  24  43  67  97 137 179 233 291 366 437
#     4  10  24  40  73  96 146 192 251 288 366 452
#
# _framework density 20.409272999999999
#
# number of rings (size 3 to 8) (size 9 to 14) (size 15 to 20)
#    0.462    0.769    1.538    3.231    6.462    5.231 
#    0.000    0.000    0.000    0.000    0.000    0.000 
#    0.000    0.000    0.000    0.000    0.000    0.000 
#
# Total GULP energy -145002.732439 kJ/mol
# GULP energy per Si atom -5577.028171 kJ/mol
# Density = 2.036282 g / cm^3
# Si number density = 20.409273 Si / 1000 Ang^3
#
#
#
# Elastic Constant Matrix: (Units=GPa)
#
#
# Indices 1 2 3 4 5 6 
#
# 1 135.4728 58.0391 63.7232 0.0000 0.0000 0.0000
# 2 58.0391 118.8796 30.0505 0.0000 0.0000 0.0000
# 3 63.7232 30.0505 115.6629 0.0000 0.0000 0.0000
# 4 0.0000 0.0000 0.0000 23.1946 0.0000 0.0000
# 5 0.0000 0.0000 0.0000 0.0000 49.4780 0.0000
# 6 0.0000 0.0000 0.0000 0.0000 0.0000 28.8643
#
#
#
# Elastic Compliance Matrix: (Units=1/GPa)
#
#
# Indices 1 2 3 4 5 6 
#
# 1 0.011782 -0.004400 -0.005348 0.000000 0.000000 0.000000
# 2 -0.004400 0.010647 -0.000342 0.000000 0.000000 0.000000
# 3 -0.005348 -0.000342 0.011681 0.000000 0.000000 0.000000
# 4 0.000000 0.000000 0.000000 0.043114 0.000000 0.000000
# 5 0.000000 0.000000 0.000000 0.000000 0.020211 0.000000
# 6 0.000000 0.000000 0.000000 0.000000 0.000000 0.034645
#
#
# Mechanical properties :
#
#
# Convention : Reuss Voigt Hill
#
# Bulk Modulus (GPa) = 71.78992 74.84899 73.31946
# Shear Modulus (GPa) = 31.86674 34.85420 33.36047
#
# Velocity S-wave (km/s) = 3.95572 4.13699 4.04737
# Velocity P-wave (km/s) = 7.49101 7.71837 7.60554
#
# Compressibility (1/GPa) = 0.01392953
#
# Stress axis : x y z
#
# Youngs Moduli (GPa) = 84.87219 93.92632 85.60852
#
# Poissons Ratio (x) = 0.41332 0.45784
# Poissons Ratio (y) = 0.37348 0.02925
# Poissons Ratio (z) = 0.45391 0.03210
#
# Static dielectric constant tensor:
#      x y z
#    x 1.771540 0.000000 0.000000 
#    y 0.000000 1.721900 0.000000 
#    z 0.000000 0.000000 1.698420 
# 
# From -- ./inp_files/45825.got.cif
#   From: 2010.05.17/outbox.cif.g08.bks.cpg/sg22_23_cif.got.tgz:45825.got - 2010.06.03 23:40:54.
