data_PCOD9328057
_publ_section_title
;
Structure prediction by ZEFSAII (Michael W. Deem and Ramdas Pophale) SiO2 
 PCOD9328057
Probable space group: F 2 2 2
;
_chemical_formula_sum "Si O2"
_cell_formula_units_Z 100
_cell_length_a 22.586947
_cell_length_b 29.789183
_cell_length_c 8.160961
_cell_angle_alpha 90.000000
_cell_angle_beta 90.000000
_cell_angle_gamma 90.000000
_cell_volume 5491.075658
_symmetry_space_group_name_H-M "F 2 2 2"
_symmetry_group_IT_number 22
_symmetry_cell_setting 'orthorhombic'
loop_
_space_group_symop_operation_xyz
x,y,z
-x,-y,z
x,-y,-z
-x,y,-z
x,1/2+y,1/2+z
-x,1/2-y,1/2+z
x,1/2-y,1/2-z
-x,1/2+y,1/2-z
1/2+x,y,1/2+z
1/2-x,-y,1/2+z
1/2+x,-y,1/2-z
1/2-x,y,1/2-z
1/2+x,1/2+y,z
1/2-x,1/2-y,z
1/2+x,1/2-y,-z
1/2-x,1/2+y,-z
loop_
_atom_site_type_symbol
_atom_site_label
_atom_site_fract_x
_atom_site_fract_y
_atom_site_fract_z
Si Si1 0.873642 0.524038 0.660612
Si Si2 0.188609 0.836612 0.829593
Si Si3 0.200511 0.537191 0.882912
Si Si4 0.000000 0.500000 0.251437
Si Si5 0.750000 0.750000 0.250000
Si Si6 0.000000 0.578886 0.000000
Si Si7 0.318070 0.122397 0.692641
Si Si8 0.872717 0.624478 0.018354
O O1 0.851535 0.500000 0.500000
O O2 0.851644 0.492582 0.805690
O O3 0.944012 0.520306 0.656733
O O4 0.848489 0.573654 0.676490
O O5 0.250000 0.854812 0.750000
O O6 0.206404 0.784003 0.845557
O O7 0.140104 0.848002 0.687648
O O8 0.177706 0.856161 0.010642
O O9 0.250000 0.549092 0.750000
O O10 0.169465 0.580436 0.960118
O O11 0.228954 0.500000 0.000000
O O12 0.016238 0.456555 0.142913
O O13 0.940420 0.608744 0.988773
O O14 0.250000 0.118026 0.750000
O O15 0.350174 0.146443 0.847666
#
# Coordination Sequence:
#
# PCOD9328057 Si02
#       8
#    16  16  16   8   4   8  16  16
#     4  12  24  35  51  77 117 172 227 273 302 354
#     4  10  22  42  69  99 126 154 194 258 341 409
#     4  12  23  35  51  79 119 168 217 265 317 358
#     4  11  21  40  54  72 118 184 248 261 291 340
#     4   8  20  48  74 100 128 158 180 260 360 436
#     4  11  22  40  58  82 124 184 232 266 304 342
#     4  12  23  38  59  93 128 158 214 272 323 380
#     4  12  23  40  62  90 128 173 216 265 309 371
#
# _framework density 18.211368
#
# number of rings (size 3 to 8) (size 9 to 14) (size 15 to 20)
#    0.480    0.160    6.400    2.640    2.240    0.000 
#    0.000    4.400    0.000    0.000    4.160    0.000 
#    0.000    0.000    0.000    0.000    0.000    0.000 
#
# Total GULP energy -139184.718747 kJ/mol
# GULP energy per Si atom -5567.388750 kJ/mol
# Density = 1.816992 g / cm^3
# Si number density = 18.211368 Si / 1000 Ang^3
#
#
#
# Elastic Constant Matrix: (Units=GPa)
#
#
# Indices 1 2 3 4 5 6 
#
# 1 125.5949 24.3388 36.7088 0.0002 0.0038 0.0002
# 2 24.3388 79.0074 42.2849 0.0007 0.0014 0.0000
# 3 36.7088 42.2849 132.7937 0.0008 0.0082 -0.0001
# 4 0.0002 0.0007 0.0008 13.6837 -0.0006 -0.0002
# 5 0.0038 0.0014 0.0082 -0.0006 22.8696 -0.0001
# 6 0.0002 0.0000 -0.0001 -0.0002 -0.0001 16.6421
#
#
#
# Elastic Compliance Matrix: (Units=1/GPa)
#
#
# Indices 1 2 3 4 5 6 
#
# 1 0.008849 -0.001708 -0.001902 0.000000 -0.000001 0.000000
# 2 -0.001708 0.015587 -0.004491 -0.000001 0.000001 0.000000
# 3 -0.001902 -0.004491 0.009486 0.000000 -0.000003 0.000000
# 4 0.000000 -0.000001 0.000000 0.073079 0.000002 0.000001
# 5 -0.000001 0.000001 -0.000003 0.000002 0.043726 0.000000
# 6 0.000000 0.000000 0.000000 0.000001 0.000000 0.060089
#
#
# Mechanical properties :
#
#
# Convention : Reuss Voigt Hill
#
# Bulk Modulus (GPa) = 56.43463 60.45125 58.44294
# Shear Modulus (GPa) = 21.46605 26.24332 23.85469
#
# Velocity S-wave (km/s) = 3.43697 3.80022 3.62315
# Velocity P-wave (km/s) = 6.84151 7.24720 7.04728
#
# Compressibility (1/GPa) = 0.01771962
#
# Stress axis : x y z
#
# Youngs Moduli (GPa) = 113.00587 64.15677 105.41352
#
# Poissons Ratio (x) = 0.10957 0.20054
# Poissons Ratio (y) = 0.19300 0.47343
# Poissons Ratio (z) = 0.21498 0.28814
#
# Static dielectric constant tensor:
#      x y z
#    x 1.644470 0.000000 0.000000 
#    y 0.000000 1.621010 0.000000 
#    z 0.000000 0.000000 1.683090 
# 
# From -- ./inp_files/13084.got.cif
#   From: 2010.05.17/outbox.cif.g08.bks.cpg/sg22_7_cif.got.tgz:13084.got - 2010.06.03 23:40:54.
