data_PCOD9328395
_publ_section_title
;
Structure prediction by ZEFSAII (Michael W. Deem and Ramdas Pophale) SiO2 
 PCOD9328395
Probable space group: F 2 2 2
;
_chemical_formula_sum "Si O2"
_cell_formula_units_Z 64
_cell_length_a 7.844045
_cell_length_b 19.293764
_cell_length_c 18.052091
_cell_angle_alpha 90.000000
_cell_angle_beta 90.000000
_cell_angle_gamma 90.000000
_cell_volume 2732.024267
_symmetry_space_group_name_H-M "F 2 2 2"
_symmetry_group_IT_number 22
_symmetry_cell_setting 'orthorhombic'
loop_
_space_group_symop_operation_xyz
x,y,z
-x,-y,z
x,-y,-z
-x,y,-z
x,1/2+y,1/2+z
-x,1/2-y,1/2+z
x,1/2-y,1/2-z
-x,1/2+y,1/2-z
1/2+x,y,1/2+z
1/2-x,-y,1/2+z
1/2+x,-y,1/2-z
1/2-x,y,1/2-z
1/2+x,1/2+y,z
1/2-x,1/2-y,z
1/2+x,1/2-y,-z
1/2-x,1/2+y,-z
loop_
_atom_site_type_symbol
_atom_site_label
_atom_site_fract_x
_atom_site_fract_y
_atom_site_fract_z
Si Si1 0.046432 0.265926 0.913965
Si Si2 0.642535 0.551780 0.818116
Si Si3 0.553158 0.422688 0.413782
Si Si4 0.434607 0.682755 0.786726
O O1 0.250000 0.250000 0.904036
O O2 0.998578 0.345050 0.888181
O O3 0.935715 0.208062 0.871539
O O4 0.000000 0.262743 0.000000
O O5 0.500000 0.500000 0.845116
O O6 0.750000 0.519559 0.750000
O O7 0.751587 0.576346 0.887888
O O8 0.548760 0.616068 0.780335
O O9 0.500000 0.500000 0.384677
O O10 0.500000 0.423930 0.500000
O O11 0.519961 0.750000 0.750000
O O12 0.250000 0.673852 0.750000
#
# Coordination Sequence:
#
# PCOD9328395 Si02
#       4
#    16  16  16  16
#     4  11  24  46  74 107 146 192 244 299 364 432
#     4  12  25  45  71 103 145 190 244 296 368 436
#     4  10  23  47  72 102 148 190 237 297 363 431
#     4  11  26  45  70 107 145 187 244 304 366 428
#
# _framework density 23.425853
#
# number of rings (size 3 to 8) (size 9 to 14) (size 15 to 20)
#    0.000    1.000    2.500    3.000    3.500    4.000 
#    9.000    2.500    0.000    0.000    0.000    0.000 
#    0.000    0.000    0.000    0.000    0.000    0.000 
#
# Total GULP energy -89294.517106 kJ/mol
# GULP energy per Si atom -5580.907319 kJ/mol
# Density = 2.337254 g / cm^3
# Si number density = 23.425853 Si / 1000 Ang^3
#
#
#
# Elastic Constant Matrix: (Units=GPa)
#
#
# Indices 1 2 3 4 5 6 
#
# 1 126.0583 26.3861 52.7780 0.0000 0.0000 0.0000
# 2 26.3861 72.6800 2.1628 0.0000 0.0000 0.0000
# 3 52.7780 2.1628 103.6832 0.0000 0.0000 0.0000
# 4 0.0000 0.0000 0.0000 19.7034 0.0000 0.0000
# 5 0.0000 0.0000 0.0000 0.0000 47.1782 0.0000
# 6 0.0000 0.0000 0.0000 0.0000 0.0000 37.0870
#
#
#
# Elastic Compliance Matrix: (Units=1/GPa)
#
#
# Indices 1 2 3 4 5 6 
#
# 1 0.011063 -0.003851 -0.005551 0.000000 0.000000 0.000000
# 2 -0.003851 0.015108 0.001645 0.000000 0.000000 0.000000
# 3 -0.005551 0.001645 0.012436 0.000000 0.000000 0.000000
# 4 0.000000 0.000000 0.000000 0.050753 0.000000 0.000000
# 5 0.000000 0.000000 0.000000 0.000000 0.021196 0.000000
# 6 0.000000 0.000000 0.000000 0.000000 0.000000 0.026964
#
#
# Mechanical properties :
#
#
# Convention : Reuss Voigt Hill
#
# Bulk Modulus (GPa) = 43.30282 51.67504 47.48893
# Shear Modulus (GPa) = 31.10770 35.53335 33.32052
#
# Velocity S-wave (km/s) = 3.64802 3.89889 3.77554
# Velocity P-wave (km/s) = 6.02240 6.50963 6.27075
#
# Compressibility (1/GPa) = 0.02309318
#
# Stress axis : x y z
#
# Youngs Moduli (GPa) = 90.39051 66.18942 80.41071
#
# Poissons Ratio (x) = 0.25491 0.44637
# Poissons Ratio (y) = 0.34811 -0.13229
# Poissons Ratio (z) = 0.50177 -0.10890
#
# Static dielectric constant tensor:
#      x y z
#    x 1.913800 0.000000 0.000000 
#    y 0.000000 1.896290 0.000000 
#    z 0.000000 0.000000 1.968380 
# 
# From -- ./inp_files/34792.got.cif
#   From: 2010.05.17/outbox.cif.g08.bks.cpg/sg22_18_cif.got.tgz:34792.got - 2010.06.03 23:40:54.
