data_PCOD9328263
_publ_section_title
;
Structure prediction by ZEFSAII (Michael W. Deem and Ramdas Pophale) SiO2 
 PCOD9328263
Probable space group: F 2 2 2
;
_chemical_formula_sum "Si O2"
_cell_formula_units_Z 96
_cell_length_a 21.588720
_cell_length_b 24.955227
_cell_length_c 8.143972
_cell_angle_alpha 90.000000
_cell_angle_beta 90.000000
_cell_angle_gamma 90.000000
_cell_volume 4387.576384
_symmetry_space_group_name_H-M "F 2 2 2"
_symmetry_group_IT_number 22
_symmetry_cell_setting 'orthorhombic'
loop_
_space_group_symop_operation_xyz
x,y,z
-x,-y,z
x,-y,-z
-x,y,-z
x,1/2+y,1/2+z
-x,1/2-y,1/2+z
x,1/2-y,1/2-z
-x,1/2+y,1/2-z
1/2+x,y,1/2+z
1/2-x,-y,1/2+z
1/2+x,-y,1/2-z
1/2-x,y,1/2-z
1/2+x,1/2+y,z
1/2-x,1/2-y,z
1/2+x,1/2-y,-z
1/2-x,1/2+y,-z
loop_
_atom_site_type_symbol
_atom_site_label
_atom_site_fract_x
_atom_site_fract_y
_atom_site_fract_z
Si Si1 0.431554 0.015127 0.308301
Si Si2 0.649665 0.576824 0.681600
Si Si3 0.565305 0.722468 0.066975
Si Si4 0.631091 0.874648 0.298375
Si Si5 0.073585 0.664489 0.032698
Si Si6 0.728538 0.935286 0.498070
O O1 0.418966 0.077713 0.302314
O O2 0.500000 0.000000 0.253727
O O3 0.424612 0.000000 0.500000
O O4 0.383914 0.980271 0.202354
O O5 0.598622 0.623113 0.666115
O O6 0.689486 0.584310 0.845263
O O7 0.699693 0.575806 0.534911
O O8 0.557266 0.750000 0.250000
O O9 0.613982 0.674605 0.081968
O O10 0.581534 0.771912 0.947583
O O11 0.500000 0.700723 0.000000
O O12 0.617801 0.849179 0.121698
O O13 0.694125 0.904950 0.349643
O O14 0.000000 0.656039 0.000000
O O15 0.722028 0.000000 0.500000
#
# Coordination Sequence:
#
# PCOD9328263 Si02
#       6
#    16  16  16  16  16  16
#     4  11  22  37  61  97 130 160 209 264 333 401
#     4  11  23  41  62  87 131 164 217 271 319 395
#     4   9  21  39  62  94 128 171 219 271 331 396
#     4  11  21  39  62  90 127 172 214 260 325 393
#     4  10  23  41  62  96 131 163 213 272 337 388
#     4  11  24  42  62  88 124 175 223 259 325 396
#
# _framework density 21.879961000000002
#
# number of rings (size 3 to 8) (size 9 to 14) (size 15 to 20)
#    0.000    1.500    3.333    1.000    4.667    4.667 
#    0.000    2.500    0.000    5.000    0.000    0.000 
#    0.000    0.000    0.000    0.000    0.000    0.000 
#
# Total GULP energy -133999.010579 kJ/mol
# GULP energy per Si atom -5583.292107 kJ/mol
# Density = 2.183016 g / cm^3
# Si number density = 21.879961 Si / 1000 Ang^3
#
#
#
# Elastic Constant Matrix: (Units=GPa)
#
#
# Indices 1 2 3 4 5 6 
#
# 1 145.7471 61.3939 30.9628 0.0004 -0.0002 -0.0001
# 2 61.3939 134.0829 17.2457 0.0004 0.0002 -0.0001
# 3 30.9628 17.2457 55.3438 0.0010 -0.0008 -0.0005
# 4 0.0004 0.0004 0.0010 9.4246 -0.0003 -0.0001
# 5 -0.0002 0.0002 -0.0008 -0.0003 23.8034 0.0003
# 6 -0.0001 -0.0001 -0.0005 -0.0001 0.0003 24.9770
#
#
#
# Elastic Compliance Matrix: (Units=1/GPa)
#
#
# Indices 1 2 3 4 5 6 
#
# 1 0.009292 -0.003736 -0.004034 0.000000 0.000000 0.000000
# 2 -0.003736 0.009271 -0.000799 0.000000 0.000000 0.000000
# 3 -0.004034 -0.000799 0.020575 -0.000002 0.000001 0.000000
# 4 0.000000 0.000000 -0.000002 0.106105 0.000001 0.000000
# 5 0.000000 0.000000 0.000001 0.000001 0.042011 -0.000001
# 6 0.000000 0.000000 0.000000 0.000000 -0.000001 0.040037
#
#
# Mechanical properties :
#
#
# Convention : Reuss Voigt Hill
#
# Bulk Modulus (GPa) = 45.45470 61.59762 53.52616
# Shear Modulus (GPa) = 19.86001 26.67910 23.26956
#
# Velocity S-wave (km/s) = 3.01604 3.49569 3.26469
# Velocity P-wave (km/s) = 5.74007 6.67134 6.22315
#
# Compressibility (1/GPa) = 0.02199993
#
# Stress axis : x y z
#
# Youngs Moduli (GPa) = 107.62101 107.85940 48.60272
#
# Poissons Ratio (x) = 0.40293 0.19608
# Poissons Ratio (y) = 0.40204 0.03884
# Poissons Ratio (z) = 0.43419 0.08619
#
# Static dielectric constant tensor:
#      x y z
#    x 1.801810 0.000000 0.000000 
#    y 0.000000 1.992070 0.000000 
#    z 0.000000 0.000000 1.917380 
# 
# From -- ./inp_files/12821.got.cif
#   From: 2010.05.17/outbox.cif.g08.bks.cpg/sg22_7_cif.got.tgz:12821.got - 2010.06.03 23:40:54.
