data_PCOD9328599
_publ_section_title
;
Structure prediction by ZEFSAII (Michael W. Deem and Ramdas Pophale) SiO2 
 PCOD9328599
Probable space group: F 2 2 2
;
_chemical_formula_sum "Si O2"
_cell_formula_units_Z 64
_cell_length_a 29.661480
_cell_length_b 17.153747
_cell_length_c 5.172213
_cell_angle_alpha 90.000000
_cell_angle_beta 90.000000
_cell_angle_gamma 90.000000
_cell_volume 2631.650543
_symmetry_space_group_name_H-M "F 2 2 2"
_symmetry_group_IT_number 22
_symmetry_cell_setting 'orthorhombic'
loop_
_space_group_symop_operation_xyz
x,y,z
-x,-y,z
x,-y,-z
-x,y,-z
x,1/2+y,1/2+z
-x,1/2-y,1/2+z
x,1/2-y,1/2-z
-x,1/2+y,1/2-z
1/2+x,y,1/2+z
1/2-x,-y,1/2+z
1/2+x,-y,1/2-z
1/2-x,y,1/2-z
1/2+x,1/2+y,z
1/2-x,1/2-y,z
1/2+x,1/2-y,-z
1/2-x,1/2+y,-z
loop_
_atom_site_type_symbol
_atom_site_label
_atom_site_fract_x
_atom_site_fract_y
_atom_site_fract_z
Si Si1 0.000000 0.371853 0.000000
Si Si2 0.854969 0.182299 0.078056
Si Si3 0.066240 0.750000 0.750000
Si Si4 0.582969 0.948078 0.754893
Si Si5 0.197267 0.556327 0.745426
O O1 0.032445 0.417184 0.804036
O O2 0.965677 0.319199 0.839053
O O3 0.830846 0.250000 0.250000
O O4 0.878037 0.116195 0.252250
O O5 0.899740 0.222511 0.967511
O O6 0.829670 0.135474 0.844609
O O7 0.584754 0.000000 0.500000
O O8 0.592214 0.000000 0.000000
O O9 0.190277 0.500000 0.500000
O O10 0.250000 0.578949 0.750000
O O11 0.190458 0.500000 0.000000
#
# Coordination Sequence:
#
# PCOD9328599 Si02
#       5
#     8  16   8  16  16
#     4  12  25  46  70 104 159 208 268 328 389 466
#     4  12  27  48  79 117 159 210 265 329 405 487
#     4  12  26  46  71 108 158 206 263 320 418 444
#     4  12  28  48  73 111 153 209 270 331 387 460
#     4  10  25  51  87 119 157 205 261 328 404 487
#
# _framework density 24.319337999999998
#
# number of rings (size 3 to 8) (size 9 to 14) (size 15 to 20)
#    0.000    0.500    2.500    4.125    3.500   10.000 
#    0.000    0.625    0.000    0.000    0.000    0.000 
#    0.000    0.000    0.000    0.000    0.000    0.000 
#
# Total GULP energy -89493.571041 kJ/mol
# GULP energy per Si atom -5593.348190 kJ/mol
# Density = 2.426399 g / cm^3
# Si number density = 24.319338 Si / 1000 Ang^3
#
#
#
# Elastic Constant Matrix: (Units=GPa)
#
#
# Indices 1 2 3 4 5 6 
#
# 1 148.9860 66.1265 41.3763 0.0000 0.0000 0.0001
# 2 66.1265 147.5186 90.3236 0.0003 -0.0001 0.0001
# 3 41.3763 90.3236 189.3222 0.0009 -0.0010 0.0005
# 4 0.0000 0.0003 0.0009 56.5202 -0.0004 0.0001
# 5 0.0000 -0.0001 -0.0010 -0.0004 28.8123 -0.0005
# 6 0.0001 0.0001 0.0005 0.0001 -0.0005 -12.1749
#
#
#
# Elastic Compliance Matrix: (Units=1/GPa)
#
#
# Indices 1 2 3 4 5 6 
#
# 1 0.008380 -0.003722 -0.000056 0.000000 0.000000 0.000000
# 2 -0.003722 0.011230 -0.004544 0.000000 0.000000 0.000000
# 3 -0.000056 -0.004544 0.007462 0.000000 0.000000 0.000000
# 4 0.000000 0.000000 0.000000 0.017693 0.000000 0.000000
# 5 0.000000 0.000000 0.000000 0.000000 0.034707 -0.000001
# 6 0.000000 0.000000 0.000000 0.000000 -0.000001 -0.082136
#
#
# Mechanical properties :
#
#
# Convention : Reuss Voigt Hill
#
# Bulk Modulus (GPa) = 95.89892 97.94218 96.92055
# Shear Modulus (GPa) = 286.45806 33.83154 160.14480
#
# Velocity S-wave (km/s) = 10.86490 3.73384 8.12365
# Velocity P-wave (km/s) = 14.03258 7.67786 11.31068
#
# Compressibility (1/GPa) = 0.01042765
#
# Stress axis : x y z
#
# Youngs Moduli (GPa) = 119.33830 89.05066 134.01163
#
# Poissons Ratio (x) = 0.33147 0.00744
# Poissons Ratio (y) = 0.44420 0.60895
# Poissons Ratio (z) = 0.00663 0.40465
#
# Static dielectric constant tensor:
#      x y z
#    x 1.947490 0.000000 0.000000 
#    y 0.000000 2.424800 0.000000 
#    z 0.000000 0.000000 1.947700 
# 
# From -- ./inp_files/6163.got.cif
#   From: 2010.05.17/outbox.cif.g08.bks.cpg/sg22_4_cif.got.tgz:6163.got - 2010.06.03 23:40:54.
