data_PCOD9328624
_publ_section_title
;
Structure prediction by ZEFSAII (Michael W. Deem and Ramdas Pophale) SiO2 
 PCOD9328624
Probable space group: F 2 2 2
;
_chemical_formula_sum "Si O2"
_cell_formula_units_Z 104
_cell_length_a 18.583652
_cell_length_b 26.169218
_cell_length_c 9.226035
_cell_angle_alpha 90.000000
_cell_angle_beta 90.000000
_cell_angle_gamma 90.000000
_cell_volume 4486.802024
_symmetry_space_group_name_H-M "F 2 2 2"
_symmetry_group_IT_number 22
_symmetry_cell_setting 'orthorhombic'
loop_
_space_group_symop_operation_xyz
x,y,z
-x,-y,z
x,-y,-z
-x,y,-z
x,1/2+y,1/2+z
-x,1/2-y,1/2+z
x,1/2-y,1/2-z
-x,1/2+y,1/2-z
1/2+x,y,1/2+z
1/2-x,-y,1/2+z
1/2+x,-y,1/2-z
1/2-x,y,1/2-z
1/2+x,1/2+y,z
1/2-x,1/2-y,z
1/2+x,1/2-y,-z
1/2-x,1/2+y,-z
loop_
_atom_site_type_symbol
_atom_site_label
_atom_site_fract_x
_atom_site_fract_y
_atom_site_fract_z
Si Si1 0.875331 0.202457 0.189820
Si Si2 0.902742 0.858563 0.216947
Si Si3 0.920267 0.022099 0.840430
Si Si4 0.809636 0.032973 0.365959
Si Si5 0.728781 0.810343 0.438494
Si Si6 0.876038 0.862868 0.535776
Si Si7 0.500000 0.206003 0.500000
O O1 0.831655 0.250000 0.250000
O O2 0.824565 0.177382 0.072819
O O3 0.899229 0.163970 0.314669
O O4 0.938531 0.230727 0.097510
O O5 0.912118 0.916728 0.163676
O O6 0.921368 0.856942 0.388166
O O7 0.822681 0.833925 0.188460
O O8 0.956680 0.826294 0.118606
O O9 0.863448 0.002046 0.725034
O O10 0.000000 0.000000 0.805012
O O11 0.904306 0.000000 0.000000
O O12 0.750000 0.051085 0.250000
O O13 0.856488 0.078957 0.430010
O O14 0.778468 0.000000 0.500000
O O15 0.750000 0.750000 0.418723
O O16 0.800967 0.837542 0.487903
#
# Coordination Sequence:
#
# PCOD9328624 Si02
#       7
#    16  16  16  16  16  16   8
#     4  11  24  46  72 102 142 190 247 302 376 450
#     4  11  26  47  72 109 146 194 251 307 377 457
#     4  11  26  48  76 104 150 201 251 305 381 462
#     4  12  27  46  71 108 146 188 242 313 384 450
#     4  11  24  47  74 106 147 190 246 306 381 455
#     4  12  26  43  72 110 143 188 245 310 376 450
#     4  10  26  46  69  98 144 190 245 296 370 444
#
# _framework density 23.179092000000001
#
# number of rings (size 3 to 8) (size 9 to 14) (size 15 to 20)
#    0.000    0.769    3.077    3.231   10.769    3.385 
#    0.000    0.000    0.000    0.000    0.000    0.000 
#    0.000    0.000    0.000    0.000    0.000    0.000 
#
# Total GULP energy -145187.438011 kJ/mol
# GULP energy per Si atom -5584.132231 kJ/mol
# Density = 2.312634 g / cm^3
# Si number density = 23.179092 Si / 1000 Ang^3
#
#
#
# Elastic Constant Matrix: (Units=GPa)
#
#
# Indices 1 2 3 4 5 6 
#
# 1 78.1762 -10.3078 12.0393 0.0000 0.0000 0.0000
# 2 -10.3078 60.0853 -1.5561 0.0000 0.0000 0.0000
# 3 12.0393 -1.5561 156.1815 -0.0001 0.0000 0.0001
# 4 0.0000 0.0000 -0.0001 29.0369 0.0000 0.0000
# 5 0.0000 0.0000 0.0000 0.0000 30.3946 0.0000
# 6 0.0000 0.0000 0.0001 0.0000 0.0000 17.1844
#
#
#
# Elastic Compliance Matrix: (Units=1/GPa)
#
#
# Indices 1 2 3 4 5 6 
#
# 1 0.013241 0.002246 -0.000998 0.000000 0.000000 0.000000
# 2 0.002246 0.017028 -0.000003 0.000000 0.000000 0.000000
# 3 -0.000998 -0.000003 0.006480 0.000000 0.000000 0.000000
# 4 0.000000 0.000000 0.000000 0.034439 0.000000 0.000000
# 5 0.000000 0.000000 0.000000 0.000000 0.032901 0.000000
# 6 0.000000 0.000000 0.000000 0.000000 0.000000 0.058192
#
#
# Mechanical properties :
#
#
# Convention : Reuss Voigt Hill
#
# Bulk Modulus (GPa) = 25.48598 32.75489 29.12043
# Shear Modulus (GPa) = 28.92309 34.94103 31.93206
#
# Velocity S-wave (km/s) = 3.53627 3.88679 3.71566
# Velocity P-wave (km/s) = 5.26238 5.85702 5.56765
#
# Compressibility (1/GPa) = 0.03923726
#
# Stress axis : x y z
#
# Youngs Moduli (GPa) = 75.52033 58.72619 154.32743
#
# Poissons Ratio (x) = -0.13188 0.15407
# Poissons Ratio (y) = -0.16960 0.00053
# Poissons Ratio (z) = 0.07540 0.00020
#
# Static dielectric constant tensor:
#      x y z
#    x 1.891570 0.000000 0.000000 
#    y 0.000000 1.777730 0.000000 
#    z 0.000000 0.000000 1.998530 
# 
# From -- ./inp_files/12973.got.cif
#   From: 2010.05.17/outbox.cif.g08.bks.cpg/sg22_7_cif.got.tgz:12973.got - 2010.06.03 23:40:54.
