data_PCOD9328529
_publ_section_title
;
Structure prediction by ZEFSAII (Michael W. Deem and Ramdas Pophale) SiO2 
 PCOD9328529
Probable space group: F 2 2 2
;
_chemical_formula_sum "Si O2"
_cell_formula_units_Z 48
_cell_length_a 30.497871
_cell_length_b 13.220974
_cell_length_c 5.061835
_cell_angle_alpha 90.000000
_cell_angle_beta 90.000000
_cell_angle_gamma 90.000000
_cell_volume 2040.990385
_symmetry_space_group_name_H-M "F 2 2 2"
_symmetry_group_IT_number 22
_symmetry_cell_setting 'orthorhombic'
loop_
_space_group_symop_operation_xyz
x,y,z
-x,-y,z
x,-y,-z
-x,y,-z
x,1/2+y,1/2+z
-x,1/2-y,1/2+z
x,1/2-y,1/2-z
-x,1/2+y,1/2-z
1/2+x,y,1/2+z
1/2-x,-y,1/2+z
1/2+x,-y,1/2-z
1/2-x,y,1/2-z
1/2+x,1/2+y,z
1/2-x,1/2-y,z
1/2+x,1/2-y,-z
1/2-x,1/2+y,-z
loop_
_atom_site_type_symbol
_atom_site_label
_atom_site_fract_x
_atom_site_fract_y
_atom_site_fract_z
Si Si1 0.916909 0.568163 0.762965
Si Si2 0.500000 0.816445 0.000000
Si Si3 0.781772 0.113670 0.997862
Si Si4 0.151403 0.250000 0.750000
O O1 0.921585 0.500000 0.500000
O O2 0.881978 0.657263 0.761002
O O3 0.900754 0.500000 0.000000
O O4 0.962859 0.616397 0.860477
O O5 0.517899 0.750000 0.250000
O O6 0.750000 0.121509 0.750000
O O7 0.750000 0.116294 0.250000
O O8 0.815679 0.205256 0.028816
O O9 0.802829 0.000000 0.000000
#
# Coordination Sequence:
#
# PCOD9328529 Si02
#       4
#    16   8  16   8
#     4  12  29  50  79 117 160 210 263 332 399 472
#     4  12  25  52  83 112 158 218 275 328 403 480
#     4  10  24  47  75 108 147 199 254 315 391 471
#     4  12  27  50  80 112 160 200 268 326 405 468
#
# _framework density 23.517994000000002
#
# number of rings (size 3 to 8) (size 9 to 14) (size 15 to 20)
#    0.000    0.667    1.667    4.000    0.000   13.333 
#    0.000    3.333    0.000    0.000    0.000    0.000 
#    0.000    0.000    0.000    0.000    0.000    0.000 
#
# Total GULP energy -67078.235846 kJ/mol
# GULP energy per Si atom -5589.852987 kJ/mol
# Density = 2.346447 g / cm^3
# Si number density = 23.517994 Si / 1000 Ang^3
#
#
#
# Elastic Constant Matrix: (Units=GPa)
#
#
# Indices 1 2 3 4 5 6 
#
# 1 130.6073 97.5443 72.8364 0.0001 0.0000 -0.0002
# 2 97.5443 195.9207 109.6298 0.0001 -0.0001 -0.0003
# 3 72.8364 109.6298 216.6218 0.0004 -0.0005 -0.0007
# 4 0.0001 0.0001 0.0004 37.2531 0.0000 -0.0003
# 5 0.0000 -0.0001 -0.0005 0.0000 -49.2267 -0.0004
# 6 -0.0002 -0.0003 -0.0007 -0.0003 -0.0004 115.5368
#
#
#
# Elastic Compliance Matrix: (Units=1/GPa)
#
#
# Indices 1 2 3 4 5 6 
#
# 1 0.012516 -0.005408 -0.001471 0.000000 0.000000 0.000000
# 2 -0.005408 0.009457 -0.002968 0.000000 0.000000 0.000000
# 3 -0.001471 -0.002968 0.006613 0.000000 0.000000 0.000000
# 4 0.000000 0.000000 0.000000 0.026843 0.000000 0.000000
# 5 0.000000 0.000000 0.000000 0.000000 -0.020314 0.000000
# 6 0.000000 0.000000 0.000000 0.000000 0.000000 0.008655
#
#
# Mechanical properties :
#
#
# Convention : Reuss Voigt Hill
#
# Bulk Modulus (GPa) = 112.46285 122.57454 117.51870
# Shear Modulus (GPa) = 75.26714 38.25524 56.76119
#
# Velocity S-wave (km/s) = 5.66335 4.03753 4.91809
# Velocity P-wave (km/s) = 9.52305 8.60048 9.07350
#
# Compressibility (1/GPa) = 0.00889182
#
# Stress axis : x y z
#
# Youngs Moduli (GPa) = 79.89632 105.73710 151.21558
#
# Poissons Ratio (x) = 0.57185 0.22250
# Poissons Ratio (y) = 0.43209 0.44879
# Poissons Ratio (z) = 0.11756 0.31381
#
# Static dielectric constant tensor:
#      x y z
#    x 1.919950 0.000000 0.000000 
#    y 0.000000 2.070080 0.000000 
#    z 0.000000 0.000000 1.885800 
# 
# From -- ./inp_files/5958.got.cif
#   From: 2010.05.17/outbox.cif.g08.bks.cpg/sg22_3_cif.got.tgz:5958.got - 2010.06.03 23:40:54.
