data_PCOD9328777
_publ_section_title
;
Structure prediction by ZEFSAII (Michael W. Deem and Ramdas Pophale) SiO2 
 PCOD9328777
Probable space group: F 2 2 2
;
_chemical_formula_sum "Si O2"
_cell_formula_units_Z 64
_cell_length_a 11.628097
_cell_length_b 23.306052
_cell_length_c 9.749140
_cell_angle_alpha 90.000000
_cell_angle_beta 90.000000
_cell_angle_gamma 90.000000
_cell_volume 2642.066011
_symmetry_space_group_name_H-M "F 2 2 2"
_symmetry_group_IT_number 22
_symmetry_cell_setting 'orthorhombic'
loop_
_space_group_symop_operation_xyz
x,y,z
-x,-y,z
x,-y,-z
-x,y,-z
x,1/2+y,1/2+z
-x,1/2-y,1/2+z
x,1/2-y,1/2-z
-x,1/2+y,1/2-z
1/2+x,y,1/2+z
1/2-x,-y,1/2+z
1/2+x,-y,1/2-z
1/2-x,y,1/2-z
1/2+x,1/2+y,z
1/2-x,1/2-y,z
1/2+x,1/2-y,-z
1/2-x,1/2+y,-z
loop_
_atom_site_type_symbol
_atom_site_label
_atom_site_fract_x
_atom_site_fract_y
_atom_site_fract_z
Si Si1 0.365874 0.932651 0.023124
Si Si2 0.047769 0.937024 0.200660
Si Si3 0.146563 0.886080 0.950678
Si Si4 0.886759 0.763658 0.913035
O O1 0.363736 0.917860 0.183705
O O2 0.281190 0.894405 0.933366
O O3 0.500000 0.922685 0.000000
O O4 0.342846 0.000000 0.000000
O O5 0.113454 0.936772 0.056923
O O6 0.936814 0.896574 0.176741
O O7 0.000000 0.000000 0.235627
O O8 0.117131 0.829709 0.036707
O O9 0.904776 0.750000 0.750000
O O10 0.750000 0.750000 0.941650
O O11 0.000000 0.739863 0.000000
#
# Coordination Sequence:
#
# PCOD9328777 Si02
#       4
#    16  16  16  16
#     4  11  23  41  62 106 150 185 236 288 353 444
#     4  11  21  41  71 100 145 186 234 285 352 452
#     4  11  24  42  71  99 135 194 241 294 373 433
#     4  11  27  52  80 109 146 196 261 333 393 453
#
# _framework density 24.223469000000001
#
# number of rings (size 3 to 8) (size 9 to 14) (size 15 to 20)
#    0.000    1.000    5.000    3.750    7.000    2.500 
#    0.000    2.500    0.000    0.000    0.000    0.000 
#    0.000    0.000    0.000    0.000    0.000    0.000 
#
# Total GULP energy -89157.225490 kJ/mol
# GULP energy per Si atom -5572.326593 kJ/mol
# Density = 2.416833 g / cm^3
# Si number density = 24.223469 Si / 1000 Ang^3
#
#
#
# Elastic Constant Matrix: (Units=GPa)
#
#
# Indices 1 2 3 4 5 6 
#
# 1 224.5858 45.8427 68.9188 0.0000 0.0000 0.0000
# 2 45.8427 84.8675 28.9301 0.0000 0.0000 0.0000
# 3 68.9188 28.9301 114.1380 0.0000 0.0000 0.0000
# 4 0.0000 0.0000 0.0000 8.3642 0.0000 0.0000
# 5 0.0000 0.0000 0.0000 0.0000 40.0111 0.0000
# 6 0.0000 0.0000 0.0000 0.0000 0.0000 29.7955
#
#
#
# Elastic Compliance Matrix: (Units=1/GPa)
#
#
# Indices 1 2 3 4 5 6 
#
# 1 0.005794 -0.002120 -0.002961 0.000000 0.000000 0.000000
# 2 -0.002120 0.013673 -0.002185 0.000000 0.000000 0.000000
# 3 -0.002961 -0.002185 0.011103 0.000000 0.000000 0.000000
# 4 0.000000 0.000000 0.000000 0.119556 0.000000 0.000000
# 5 0.000000 0.000000 0.000000 0.000000 0.024993 0.000000
# 6 0.000000 0.000000 0.000000 0.000000 0.000000 0.033562
#
#
# Mechanical properties :
#
#
# Convention : Reuss Voigt Hill
#
# Bulk Modulus (GPa) = 62.35629 78.99717 70.67673
# Shear Modulus (GPa) = 21.87590 34.29415 28.08502
#
# Velocity S-wave (km/s) = 3.00840 3.76671 3.40871
# Velocity P-wave (km/s) = 6.15348 7.18332 6.68825
#
# Compressibility (1/GPa) = 0.01603687
#
# Stress axis : x y z
#
# Youngs Moduli (GPa) = 172.58762 73.13457 90.06358
#
# Poissons Ratio (x) = 0.15507 0.26669
# Poissons Ratio (y) = 0.36595 0.19683
# Poissons Ratio (z) = 0.51106 0.15983
#
# Static dielectric constant tensor:
#      x y z
#    x 2.169750 0.000000 0.000000 
#    y 0.000000 1.953610 0.000000 
#    z 0.000000 0.000000 2.130200 
# 
# From -- ./inp_files/17754.got.cif
#   From: 2010.05.17/outbox.cif.g08.bks.cpg/sg22_9_cif.got.tgz:17754.got - 2010.06.03 23:40:54.
