data_PCOD9328234
_publ_section_title
;
Structure prediction by ZEFSAII (Michael W. Deem and Ramdas Pophale) SiO2 
 PCOD9328234
Probable space group: F 2 2 2
;
_chemical_formula_sum "Si O2"
_cell_formula_units_Z 80
_cell_length_a 19.837506
_cell_length_b 10.995624
_cell_length_c 16.481923
_cell_angle_alpha 90.000000
_cell_angle_beta 90.000000
_cell_angle_gamma 90.000000
_cell_volume 3595.131932
_symmetry_space_group_name_H-M "F 2 2 2"
_symmetry_group_IT_number 22
_symmetry_cell_setting 'orthorhombic'
loop_
_space_group_symop_operation_xyz
x,y,z
-x,-y,z
x,-y,-z
-x,y,-z
x,1/2+y,1/2+z
-x,1/2-y,1/2+z
x,1/2-y,1/2-z
-x,1/2+y,1/2-z
1/2+x,y,1/2+z
1/2-x,-y,1/2+z
1/2+x,-y,1/2-z
1/2-x,y,1/2-z
1/2+x,1/2+y,z
1/2-x,1/2-y,z
1/2+x,1/2-y,-z
1/2-x,1/2+y,-z
loop_
_atom_site_type_symbol
_atom_site_label
_atom_site_fract_x
_atom_site_fract_y
_atom_site_fract_z
Si Si1 0.500000 0.000000 0.658275
Si Si2 0.250000 0.750000 0.584866
Si Si3 0.727360 0.492051 0.663373
Si Si4 0.911204 0.877431 0.289781
Si Si5 0.842715 0.627861 0.960009
Si Si6 0.541741 0.760493 0.848475
O O1 0.439787 0.959586 0.717638
O O2 0.522886 0.873924 0.618435
O O3 0.233770 0.630092 0.637447
O O4 0.185860 0.784730 0.529694
O O5 0.750000 0.539286 0.750000
O O6 0.650796 0.445549 0.672227
O O7 0.723295 0.590707 0.593192
O O8 0.889463 0.750000 0.250000
O O9 0.974231 0.843496 0.347639
O O10 0.898684 0.684791 0.901631
O O11 0.865661 0.500000 0.000000
O O12 0.556910 0.750000 0.750000
#
# Coordination Sequence:
#
# PCOD9328234 Si02
#       6
#     8   8  16  16  16  16
#     4   8  16  30  56  94 122 144 196 270 314 346
#     4  10  23  40  53  82 124 156 194 252 317 370
#     4  11  21  38  62  84 111 161 213 248 296 373
#     4   9  17  31  55  90 119 146 197 261 307 356
#     4  10  23  40  58  88 127 162 200 256 323 376
#     4   9  18  35  60  92 123 157 205 259 314 373
#
# _framework density 22.252312
#
# number of rings (size 3 to 8) (size 9 to 14) (size 15 to 20)
#    0.000    2.800    0.000    3.900    0.000    3.200 
#    0.000   13.000    0.000    0.000    0.000   60.200 
#    0.000    0.000    0.000    0.000    0.000    0.000 
#
# Total GULP energy -111661.121884 kJ/mol
# GULP energy per Si atom -5583.056094 kJ/mol
# Density = 2.220167 g / cm^3
# Si number density = 22.252312 Si / 1000 Ang^3
#
#
#
# Elastic Constant Matrix: (Units=GPa)
#
#
# Indices 1 2 3 4 5 6 
#
# 1 59.7967 15.9426 17.6329 0.0000 0.0000 0.0000
# 2 15.9426 84.1925 4.2124 0.0000 0.0000 0.0000
# 3 17.6329 4.2124 61.7390 0.0000 0.0000 0.0000
# 4 0.0000 0.0000 0.0000 2.3931 0.0000 0.0000
# 5 0.0000 0.0000 0.0000 0.0000 20.7954 0.0000
# 6 0.0000 0.0000 0.0000 0.0000 0.0000 25.3016
#
#
#
# Elastic Compliance Matrix: (Units=1/GPa)
#
#
# Indices 1 2 3 4 5 6 
#
# 1 0.019168 -0.003367 -0.005245 0.000000 0.000000 0.000000
# 2 -0.003367 0.012510 0.000108 0.000000 0.000000 0.000000
# 3 -0.005245 0.000108 0.017688 0.000000 0.000000 0.000000
# 4 0.000000 0.000000 0.000000 0.417874 0.000000 0.000000
# 5 0.000000 0.000000 0.000000 0.000000 0.048088 0.000000
# 6 0.000000 0.000000 0.000000 0.000000 0.000000 0.039523
#
#
# Mechanical properties :
#
#
# Convention : Reuss Voigt Hill
#
# Bulk Modulus (GPa) = 30.90444 31.25602 31.08023
# Shear Modulus (GPa) = 8.58159 20.89403 14.73781
#
# Velocity S-wave (km/s) = 1.96593 3.06757 2.57632
# Velocity P-wave (km/s) = 4.36709 5.15978 4.77990
#
# Compressibility (1/GPa) = 0.03235781
#
# Stress axis : x y z
#
# Youngs Moduli (GPa) = 52.17142 79.93780 56.53647
#
# Poissons Ratio (x) = 0.26916 0.29651
# Poissons Ratio (y) = 0.17567 -0.00611
# Poissons Ratio (z) = 0.27362 -0.00864
#
# Static dielectric constant tensor:
#      x y z
#    x 1.824030 0.000000 0.000000 
#    y 0.000000 1.888690 0.000000 
#    z 0.000000 0.000000 1.879370 
# 
# From -- ./inp_files/21299.got.cif
#   From: 2010.05.17/outbox.cif.g08.bks.cpg/sg22_11_cif.got.tgz:21299.got - 2010.06.03 23:40:54.
