data_PCOD9328883
_publ_section_title
;
Structure prediction by ZEFSAII (Michael W. Deem and Ramdas Pophale) SiO2 
 PCOD9328883
Probable space group: F 2 2 2
;
_chemical_formula_sum "Si O2"
_cell_formula_units_Z 88
_cell_length_a 21.451313
_cell_length_b 11.514617
_cell_length_c 14.377500
_cell_angle_alpha 90.000000
_cell_angle_beta 90.000000
_cell_angle_gamma 90.000000
_cell_volume 3551.295026
_symmetry_space_group_name_H-M "F 2 2 2"
_symmetry_group_IT_number 22
_symmetry_cell_setting 'orthorhombic'
loop_
_space_group_symop_operation_xyz
x,y,z
-x,-y,z
x,-y,-z
-x,y,-z
x,1/2+y,1/2+z
-x,1/2-y,1/2+z
x,1/2-y,1/2-z
-x,1/2+y,1/2-z
1/2+x,y,1/2+z
1/2-x,-y,1/2+z
1/2+x,-y,1/2-z
1/2-x,y,1/2-z
1/2+x,1/2+y,z
1/2-x,1/2-y,z
1/2+x,1/2-y,-z
1/2-x,1/2+y,-z
loop_
_atom_site_type_symbol
_atom_site_label
_atom_site_fract_x
_atom_site_fract_y
_atom_site_fract_z
Si Si1 0.500000 0.000000 0.000000
Si Si2 0.151885 0.174212 0.107927
Si Si3 0.404142 0.408066 0.348873
Si Si4 0.250000 0.250000 0.250000
Si Si5 0.164573 0.303020 0.606863
Si Si6 0.283952 0.448949 0.605633
Si Si7 0.068503 0.474772 0.653751
O O1 0.451608 0.066050 0.067351
O O2 0.104757 0.270184 0.148432
O O3 0.208286 0.173249 0.180572
O O4 0.116295 0.055194 0.098986
O O5 0.172199 0.204976 0.004736
O O6 0.332907 0.454336 0.359379
O O7 0.428725 0.472943 0.257824
O O8 0.216775 0.397717 0.638756
O O9 0.177026 0.169089 0.629637
O O10 0.097439 0.347325 0.641219
O O11 0.273555 0.500000 0.500000
O O12 0.000000 0.500000 0.617928
#
# Coordination Sequence:
#
# PCOD9328883 Si02
#       7
#     4  16  16   4  16  16  16
#     4  12  24  44  76 104 140 208 266 320 378 484
#     4  12  25  45  71 112 145 206 252 316 390 471
#     4  12  25  46  73 107 146 202 266 314 387 472
#     4  12  24  40  80 108 146 194 280 326 372 470
#     4  11  26  44  74 111 152 197 247 318 398 459
#     4  11  22  44  73 109 147 193 250 308 380 462
#     4  12  28  48  69 107 155 201 253 328 395 467
#
# _framework density 24.779693000000002
#
# number of rings (size 3 to 8) (size 9 to 14) (size 15 to 20)
#    0.000    0.364    5.455    2.727    2.545    5.818 
#    3.273    1.818    0.000    0.000    0.000    0.000 
#    0.000    0.000    0.000    0.000    0.000    0.000 
#
# Total GULP energy -122918.218627 kJ/mol
# GULP energy per Si atom -5587.191756 kJ/mol
# Density = 2.472329 g / cm^3
# Si number density = 24.779693 Si / 1000 Ang^3
#
#
#
# Elastic Constant Matrix: (Units=GPa)
#
#
# Indices 1 2 3 4 5 6 
#
# 1 121.9354 32.8790 24.2333 0.0000 0.0000 0.0000
# 2 32.8790 102.6876 2.7950 0.0000 0.0000 0.0000
# 3 24.2333 2.7950 90.0601 0.0000 0.0000 0.0000
# 4 0.0000 0.0000 0.0000 25.7090 0.0000 0.0000
# 5 0.0000 0.0000 0.0000 0.0000 11.7924 0.0000
# 6 0.0000 0.0000 0.0000 0.0000 0.0000 24.3306
#
#
#
# Elastic Compliance Matrix: (Units=1/GPa)
#
#
# Indices 1 2 3 4 5 6 
#
# 1 0.009492 -0.002972 -0.002462 0.000000 0.000000 0.000000
# 2 -0.002972 0.010677 0.000468 0.000000 0.000000 0.000000
# 3 -0.002462 0.000468 0.011752 0.000000 0.000000 0.000000
# 4 0.000000 0.000000 0.000000 0.038897 0.000000 0.000000
# 5 0.000000 0.000000 0.000000 0.000000 0.084800 0.000000
# 6 0.000000 0.000000 0.000000 0.000000 0.000000 0.041100
#
#
# Mechanical properties :
#
#
# Convention : Reuss Voigt Hill
#
# Bulk Modulus (GPa) = 45.47646 48.27753 46.87699
# Shear Modulus (GPa) = 23.36682 29.35148 26.35915
#
# Velocity S-wave (km/s) = 3.07413 3.44539 3.26504
# Velocity P-wave (km/s) = 5.56709 5.94580 5.75956
#
# Compressibility (1/GPa) = 0.02198940
#
# Stress axis : x y z
#
# Youngs Moduli (GPa) = 105.35499 93.65802 85.09502
#
# Poissons Ratio (x) = 0.27836 0.20949
# Poissons Ratio (y) = 0.31313 -0.03986
# Poissons Ratio (z) = 0.25936 -0.04387
#
# Static dielectric constant tensor:
#      x y z
#    x 1.988720 0.000000 0.000000 
#    y 0.000000 1.959960 0.000000 
#    z 0.000000 0.000000 1.998460 
# 
# From -- ./inp_files/32365.got.cif
#   From: 2010.05.17/outbox.cif.g08.bks.cpg/sg22_17_cif.got.tgz:32365.got - 2010.06.03 23:40:54.
