data_PCOD9328751
_publ_section_title
;
Structure prediction by ZEFSAII (Michael W. Deem and Ramdas Pophale) SiO2 
 PCOD9328751
Probable space group: F 2 2 2
;
_chemical_formula_sum "Si O2"
_cell_formula_units_Z 84
_cell_length_a 16.100106
_cell_length_b 9.769610
_cell_length_c 22.865115
_cell_angle_alpha 90.000000
_cell_angle_beta 90.000000
_cell_angle_gamma 90.000000
_cell_volume 3596.494103
_symmetry_space_group_name_H-M "F 2 2 2"
_symmetry_group_IT_number 22
_symmetry_cell_setting 'orthorhombic'
loop_
_space_group_symop_operation_xyz
x,y,z
-x,-y,z
x,-y,-z
-x,y,-z
x,1/2+y,1/2+z
-x,1/2-y,1/2+z
x,1/2-y,1/2-z
-x,1/2+y,1/2-z
1/2+x,y,1/2+z
1/2-x,-y,1/2+z
1/2+x,-y,1/2-z
1/2-x,y,1/2-z
1/2+x,1/2+y,z
1/2-x,1/2-y,z
1/2+x,1/2-y,-z
1/2-x,1/2+y,-z
loop_
_atom_site_type_symbol
_atom_site_label
_atom_site_fract_x
_atom_site_fract_y
_atom_site_fract_z
Si Si1 0.442788 0.889433 0.108775
Si Si2 0.000000 0.000000 0.000000
Si Si3 0.295206 0.374043 0.530989
Si Si4 0.392060 0.847904 0.697280
Si Si5 0.907652 0.658314 0.697792
Si Si6 0.906191 0.267598 0.565743
O O1 0.364355 0.942087 0.072802
O O2 0.407297 0.759124 0.142722
O O3 0.513502 0.830815 0.066641
O O4 0.500000 0.000000 0.144386
O O5 0.942620 0.090547 0.958043
O O6 0.248207 0.500000 0.500000
O O7 0.250000 0.250000 0.563722
O O8 0.340452 0.289438 0.479570
O O9 0.360696 0.750000 0.750000
O O10 0.492226 0.855899 0.705537
O O11 0.376607 0.784732 0.632856
O O12 0.367175 0.008301 0.696136
O O13 0.872994 0.750000 0.750000
#
# Coordination Sequence:
#
# PCOD9328751 Si02
#       6
#    16   4  16  16  16  16
#     4  11  21  39  65  92 129 171 223 273 333 410
#     4  12  20  32  62  96 124 168 216 286 332 408
#     4  12  27  42  61  92 131 177 222 279 345 404
#     4   9  19  33  52  86 128 169 208 266 333 394
#     4   9  19  30  54  91 127 165 205 272 334 382
#     4  11  22  36  62  90 127 170 223 269 330 402
#
# _framework density 23.356079000000001
#
# number of rings (size 3 to 8) (size 9 to 14) (size 15 to 20)
#    0.000    1.524    3.810    2.286    9.333    0.000 
#    0.000    0.000    0.000    1.143    0.000    5.333 
#    0.000    0.000    0.000    0.000    0.000    0.000 
#
# Total GULP energy -117119.575068 kJ/mol
# GULP energy per Si atom -5577.122622 kJ/mol
# Density = 2.330292 g / cm^3
# Si number density = 23.356079 Si / 1000 Ang^3
#
#
#
# Elastic Constant Matrix: (Units=GPa)
#
#
# Indices 1 2 3 4 5 6 
#
# 1 36.9204 12.5946 3.9074 0.0000 0.0000 0.0000
# 2 12.5946 117.2480 9.3716 0.0000 0.0000 0.0000
# 3 3.9074 9.3716 83.3032 0.0000 0.0000 0.0000
# 4 0.0000 0.0000 0.0000 33.6545 0.0000 0.0000
# 5 0.0000 0.0000 0.0000 0.0000 2.1624 0.0000
# 6 0.0000 0.0000 0.0000 0.0000 0.0000 17.5350
#
#
#
# Elastic Compliance Matrix: (Units=1/GPa)
#
#
# Indices 1 2 3 4 5 6 
#
# 1 0.028196 -0.002950 -0.000991 0.000000 0.000000 0.000000
# 2 -0.002950 0.008915 -0.000865 0.000000 0.000000 0.000000
# 3 -0.000991 -0.000865 0.012148 0.000000 0.000000 0.000000
# 4 0.000000 0.000000 0.000000 0.029714 0.000000 0.000000
# 5 0.000000 0.000000 0.000000 0.000000 0.462439 0.000000
# 6 0.000000 0.000000 0.000000 0.000000 0.000000 0.057029
#
#
# Mechanical properties :
#
#
# Convention : Reuss Voigt Hill
#
# Bulk Modulus (GPa) = 25.22102 32.13541 28.67821
# Shear Modulus (GPa) = 8.04807 24.77692 16.41249
#
# Velocity S-wave (km/s) = 1.85830 3.26058 2.65374
# Velocity P-wave (km/s) = 3.92763 5.28809 4.65780
#
# Compressibility (1/GPa) = 0.03964947
#
# Stress axis : x y z
#
# Youngs Moduli (GPa) = 35.46558 112.17201 82.31754
#
# Poissons Ratio (x) = 0.33086 0.08155
# Poissons Ratio (y) = 0.10461 0.07117
# Poissons Ratio (z) = 0.03514 0.09698
#
# Static dielectric constant tensor:
#      x y z
#    x 1.880950 0.000000 0.000000 
#    y 0.000000 1.965760 0.000000 
#    z 0.000000 0.000000 1.907280 
# 
# From -- ./inp_files/49742.got.cif
#   From: 2010.05.17/outbox.cif.g08.bks.cpg/sg22_25_cif.got.tgz:49742.got - 2010.06.03 23:40:54.
