data_PCOD9328547
_publ_section_title
;
Structure prediction by ZEFSAII (Michael W. Deem and Ramdas Pophale) SiO2 
 PCOD9328547
Probable space group: F 2 2 2
;
_chemical_formula_sum "Si O2"
_cell_formula_units_Z 64
_cell_length_a 15.622908
_cell_length_b 13.333726
_cell_length_c 13.168501
_cell_angle_alpha 90.000000
_cell_angle_beta 90.000000
_cell_angle_gamma 90.000000
_cell_volume 2743.151178
_symmetry_space_group_name_H-M "F 2 2 2"
_symmetry_group_IT_number 22
_symmetry_cell_setting 'orthorhombic'
loop_
_space_group_symop_operation_xyz
x,y,z
-x,-y,z
x,-y,-z
-x,y,-z
x,1/2+y,1/2+z
-x,1/2-y,1/2+z
x,1/2-y,1/2-z
-x,1/2+y,1/2-z
1/2+x,y,1/2+z
1/2-x,-y,1/2+z
1/2+x,-y,1/2-z
1/2-x,y,1/2-z
1/2+x,1/2+y,z
1/2-x,1/2-y,z
1/2+x,1/2-y,-z
1/2-x,1/2+y,-z
loop_
_atom_site_type_symbol
_atom_site_label
_atom_site_fract_x
_atom_site_fract_y
_atom_site_fract_z
Si Si1 0.123289 0.694390 0.160464
Si Si2 0.028706 0.647235 0.607943
Si Si3 0.668839 0.189448 0.936120
Si Si4 0.854230 0.477071 0.771026
O O1 0.170896 0.750000 0.250000
O O2 0.102576 0.582858 0.200727
O O3 0.048853 0.778935 0.143894
O O4 0.173894 0.672570 0.056423
O O5 0.094936 0.732095 0.577865
O O6 0.084810 0.575277 0.684068
O O7 0.000000 0.600860 0.500000
O O8 0.750000 0.250000 0.895693
O O9 0.647615 0.093562 0.869638
O O10 0.750000 0.490415 0.750000
#
# Coordination Sequence:
#
# PCOD9328547 Si02
#       4
#    16  16  16  16
#     4  11  27  47  73 109 162 203 253 329 413 469
#     4  10  24  49  76 110 156 203 257 325 392 473
#     4  11  23  44  76 112 151 202 262 329 393 478
#     4  12  25  46  82 116 149 206 271 328 396 482
#
# _framework density 23.330833999999999
#
# number of rings (size 3 to 8) (size 9 to 14) (size 15 to 20)
#    0.000    1.000    2.500    3.000    3.500    4.000 
#    0.000   17.500    0.000    0.000    0.000    0.000 
#    0.000    0.000    0.000    0.000    0.000    0.000 
#
# Total GULP energy -89099.301635 kJ/mol
# GULP energy per Si atom -5568.706352 kJ/mol
# Density = 2.327773 g / cm^3
# Si number density = 23.330834 Si / 1000 Ang^3
#
#
#
# Elastic Constant Matrix: (Units=GPa)
#
#
# Indices 1 2 3 4 5 6 
#
# 1 136.6113 36.3579 44.3483 0.0000 0.0000 0.0000
# 2 36.3579 197.2570 86.3366 0.0000 0.0000 0.0000
# 3 44.3483 86.3366 165.8798 0.0000 0.0000 0.0000
# 4 0.0000 0.0000 0.0000 12.4680 0.0000 0.0000
# 5 0.0000 0.0000 0.0000 0.0000 32.3602 0.0000
# 6 0.0000 0.0000 0.0000 0.0000 0.0000 -97.1875
#
#
#
# Elastic Compliance Matrix: (Units=1/GPa)
#
#
# Indices 1 2 3 4 5 6 
#
# 1 0.008091 -0.000705 -0.001796 0.000000 0.000000 0.000000
# 2 -0.000705 0.006627 -0.003260 0.000000 0.000000 0.000000
# 3 -0.001796 -0.003260 0.008206 0.000000 0.000000 0.000000
# 4 0.000000 0.000000 0.000000 0.080205 0.000000 0.000000
# 5 0.000000 0.000000 0.000000 0.000000 0.030902 0.000000
# 6 0.000000 0.000000 0.000000 0.000000 0.000000 -0.010289
#
#
# Mechanical properties :
#
#
# Convention : Reuss Voigt Hill
#
# Bulk Modulus (GPa) = 87.72223 92.64819 90.18521
# Shear Modulus (GPa) = 35.95460 11.70850 23.83155
#
# Velocity S-wave (km/s) = 3.92991 2.24262 3.19950
# Velocity P-wave (km/s) = 7.63369 6.81929 7.23795
#
# Compressibility (1/GPa) = 0.01139962
#
# Stress axis : x y z
#
# Youngs Moduli (GPa) = 123.59769 150.90808 121.86758
#
# Poissons Ratio (x) = 0.10641 0.21888
# Poissons Ratio (y) = 0.08716 0.39734
# Poissons Ratio (z) = 0.22199 0.49203
#
# Static dielectric constant tensor:
#      x y z
#    x 1.880220 0.000000 0.000000 
#    y 0.000000 1.843110 0.000000 
#    z 0.000000 0.000000 2.251730 
# 
# From -- ./inp_files/30242.got.cif
#   From: 2010.05.17/outbox.cif.g08.bks.cpg/sg22_16_cif.got.tgz:30242.got - 2010.06.03 23:40:54.
