data_PCOD9328899
_publ_section_title
;
Structure prediction by ZEFSAII (Michael W. Deem and Ramdas Pophale) SiO2 
 PCOD9328899
Probable space group: F 2 2 2
;
_chemical_formula_sum "Si O2"
_cell_formula_units_Z 68
_cell_length_a 16.348765
_cell_length_b 36.895476
_cell_length_c 4.996311
_cell_angle_alpha 90.000000
_cell_angle_beta 90.000000
_cell_angle_gamma 90.000000
_cell_volume 3013.752145
_symmetry_space_group_name_H-M "F 2 2 2"
_symmetry_group_IT_number 22
_symmetry_cell_setting 'orthorhombic'
loop_
_space_group_symop_operation_xyz
x,y,z
-x,-y,z
x,-y,-z
-x,y,-z
x,1/2+y,1/2+z
-x,1/2-y,1/2+z
x,1/2-y,1/2-z
-x,1/2+y,1/2-z
1/2+x,y,1/2+z
1/2-x,-y,1/2+z
1/2+x,-y,1/2-z
1/2-x,y,1/2-z
1/2+x,1/2+y,z
1/2-x,1/2-y,z
1/2+x,1/2-y,-z
1/2-x,1/2+y,-z
loop_
_atom_site_type_symbol
_atom_site_label
_atom_site_fract_x
_atom_site_fract_y
_atom_site_fract_z
Si Si1 0.899998 0.541485 0.516318
Si Si2 0.879438 0.786851 0.136544
Si Si3 0.250000 0.750000 0.250000
Si Si4 0.091509 0.332159 0.879158
Si Si5 0.599589 0.912905 0.009118
O O1 0.872133 0.500000 0.500000
O O2 0.874989 0.571099 0.294353
O O3 0.000000 0.540449 0.500000
O O4 0.873861 0.557369 0.797573
O O5 0.924822 0.750000 0.250000
O O6 0.858970 0.807730 0.409233
O O7 0.807082 0.771719 0.954549
O O8 0.914106 0.815663 0.918534
O O9 0.124067 0.372952 0.911515
O O10 0.000000 0.331054 0.000000
O O11 0.500000 0.911959 0.000000
#
# Coordination Sequence:
#
# PCOD9328899 Si02
#       5
#    16  16   4  16  16
#     4   9  15  24  41  65  96 143 194 222 243 294
#     4  12  24  42  62  81 106 146 187 237 285 338
#     4  12  26  48  62  80 106 136 202 226 302 328
#     4  11  23  38  57  85 117 149 185 227 291 339
#     4   9  17  29  44  67 105 144 179 221 262 318
#
# _framework density 22.563236
#
# number of rings (size 3 to 8) (size 9 to 14) (size 15 to 20)
#    0.000    1.647    2.353    3.176    0.000    8.471 
#    2.118    0.000    0.000    0.000    0.000    0.000 
#    0.000    0.000    0.000   59.294    0.471   26.353 
#
# Total GULP energy -94778.548694 kJ/mol
# GULP energy per Si atom -5575.208747 kJ/mol
# Density = 2.251188 g / cm^3
# Si number density = 22.563236 Si / 1000 Ang^3
#
#
#
# Elastic Constant Matrix: (Units=GPa)
#
#
# Indices 1 2 3 4 5 6 
#
# 1 18.5738 -0.4608 -0.8303 0.0004 -0.0041 0.0001
# 2 -0.4608 176.3619 38.7459 0.0003 -0.0006 -0.0004
# 3 -0.8303 38.7459 128.7759 0.0002 -0.0081 0.0002
# 4 0.0004 0.0003 0.0002 39.9035 -0.0007 0.0019
# 5 -0.0041 -0.0006 -0.0081 -0.0007 23.3310 -0.0006
# 6 0.0001 -0.0004 0.0002 0.0019 -0.0006 10.2892
#
#
#
# Elastic Compliance Matrix: (Units=1/GPa)
#
#
# Indices 1 2 3 4 5 6 
#
# 1 0.053856 0.000069 0.000326 -0.000001 0.000010 0.000000
# 2 0.000069 0.006072 -0.001826 0.000000 0.000000 0.000000
# 3 0.000326 -0.001826 0.008317 0.000000 0.000003 0.000000
# 4 -0.000001 0.000000 0.000000 0.025060 0.000001 -0.000005
# 5 0.000010 0.000000 0.000003 0.000001 0.042861 0.000002
# 6 0.000000 0.000000 0.000000 -0.000005 0.000002 0.097190
#
#
# Mechanical properties :
#
#
# Convention : Reuss Voigt Hill
#
# Bulk Modulus (GPa) = 15.29461 44.29125 29.79293
# Shear Modulus (GPa) = 19.37895 33.78851 26.58373
#
# Velocity S-wave (km/s) = 2.93383 3.87396 3.43620
# Velocity P-wave (km/s) = 4.27431 6.29940 5.38295
#
# Compressibility (1/GPa) = 0.06538251
#
# Stress axis : x y z
#
# Youngs Moduli (GPa) = 18.56814 164.70175 120.23498
#
# Poissons Ratio (x) = -0.01136 -0.03925
# Poissons Ratio (y) = -0.00128 0.21959
# Poissons Ratio (z) = -0.00606 0.30081
#
# Static dielectric constant tensor:
#      x y z
#    x 1.939280 0.000000 0.000000 
#    y 0.000000 1.877870 0.000000 
#    z 0.000000 0.000000 1.795480 
# 
# From -- ./inp_files/3970.got.cif
#   From: 2010.05.17/outbox.cif.g08.bks.cpg/sg22_2_cif.got.tgz:3970.got - 2010.06.03 23:40:54.
