data_PCOD9328199
_publ_section_title
;
Structure prediction by ZEFSAII (Michael W. Deem and Ramdas Pophale) SiO2 
 PCOD9328199
Probable space group: F 2 2 2
;
_chemical_formula_sum "Si O2"
_cell_formula_units_Z 108
_cell_length_a 14.334097
_cell_length_b 12.969509
_cell_length_c 23.700357
_cell_angle_alpha 90.000000
_cell_angle_beta 90.000000
_cell_angle_gamma 90.000000
_cell_volume 4406.043310
_symmetry_space_group_name_H-M "F 2 2 2"
_symmetry_group_IT_number 22
_symmetry_cell_setting 'orthorhombic'
loop_
_space_group_symop_operation_xyz
x,y,z
-x,-y,z
x,-y,-z
-x,y,-z
x,1/2+y,1/2+z
-x,1/2-y,1/2+z
x,1/2-y,1/2-z
-x,1/2+y,1/2-z
1/2+x,y,1/2+z
1/2-x,-y,1/2+z
1/2+x,-y,1/2-z
1/2-x,y,1/2-z
1/2+x,1/2+y,z
1/2-x,1/2-y,z
1/2+x,1/2-y,-z
1/2-x,1/2+y,-z
loop_
_atom_site_type_symbol
_atom_site_label
_atom_site_fract_x
_atom_site_fract_y
_atom_site_fract_z
Si Si1 0.659680 0.993709 0.066817
Si Si2 0.504199 0.335867 0.829316
Si Si3 0.500000 0.500000 0.000000
Si Si4 0.647004 0.216256 0.881167
Si Si5 0.103661 0.379872 0.831362
Si Si6 0.137849 0.421065 0.592658
Si Si7 0.750000 0.750000 0.631649
Si Si8 0.857813 0.584819 0.232628
O O1 0.621689 0.881586 0.082000
O O2 0.601238 0.075613 0.104488
O O3 0.768406 0.009324 0.087899
O O4 0.658419 0.000000 0.000000
O O5 0.574783 0.309884 0.880847
O O6 0.456847 0.222284 0.818950
O O7 0.424429 0.415428 0.849985
O O8 0.571808 0.374524 0.780190
O O9 0.569467 0.440176 0.041412
O O10 0.750000 0.250000 0.896874
O O11 0.649315 0.168468 0.817831
O O12 0.208166 0.336277 0.828621
O O13 0.100219 0.478705 0.792010
O O14 0.175809 0.304232 0.591966
O O15 0.750000 0.568803 0.250000
#
# Coordination Sequence:
#
# PCOD9328199 Si02
#       8
#    16  16   4  16  16  16   8  16
#     4  10  22  47  75 105 149 207 252 311 393 469
#     4  11  24  46  69 107 149 187 254 325 377 456
#     4  12  24  40  64 108 144 180 256 304 374 436
#     4  11  24  44  70 102 147 191 257 309 378 472
#     4   9  22  45  73 108 144 201 254 317 382 474
#     4  10  23  43  69 104 148 187 248 314 371 451
#     4   8  18  46  73  96 150 190 244 303 374 458
#     4  11  23  45  75 102 145 199 254 311 398 466
#
# _framework density 24.511789
#
# number of rings (size 3 to 8) (size 9 to 14) (size 15 to 20)
#    0.000    1.778    2.222    0.444    2.074    3.556 
#   18.667   17.407    0.000    1.778    0.000    0.000 
#    0.000    0.000    0.000    0.000    0.000    0.000 
#
# Total GULP energy -150877.130380 kJ/mol
# GULP energy per Si atom -5588.041866 kJ/mol
# Density = 2.445600 g / cm^3
# Si number density = 24.511789 Si / 1000 Ang^3
#
#
#
# Elastic Constant Matrix: (Units=GPa)
#
#
# Indices 1 2 3 4 5 6 
#
# 1 140.0388 39.6860 61.9388 0.0000 0.0000 0.0000
# 2 39.6860 97.6640 42.5686 0.0000 0.0000 0.0000
# 3 61.9388 42.5686 92.7526 0.0000 0.0000 0.0000
# 4 0.0000 0.0000 0.0000 -12.1618 0.0000 0.0000
# 5 0.0000 0.0000 0.0000 0.0000 28.9481 0.0000
# 6 0.0000 0.0000 0.0000 0.0000 0.0000 43.9792
#
#
#
# Elastic Compliance Matrix: (Units=1/GPa)
#
#
# Indices 1 2 3 4 5 6 
#
# 1 0.010303 -0.001485 -0.006199 0.000000 0.000000 0.000000
# 2 -0.001485 0.013014 -0.004981 0.000000 0.000000 0.000000
# 3 -0.006199 -0.004981 0.017207 0.000000 0.000000 0.000000
# 4 0.000000 0.000000 0.000000 -0.082225 0.000000 0.000000
# 5 0.000000 0.000000 0.000000 0.000000 0.034545 0.000000
# 6 0.000000 0.000000 0.000000 0.000000 0.000000 0.022738
#
#
# Mechanical properties :
#
#
# Convention : Reuss Voigt Hill
#
# Bulk Modulus (GPa) = 65.81413 68.76025 67.28719
# Shear Modulus (GPa) = 108.75107 24.57058 66.66082
#
# Velocity S-wave (km/s) = 6.66807 3.16950 5.22058
# Velocity P-wave (km/s) = 9.28399 6.44260 7.99061
#
# Compressibility (1/GPa) = 0.01519430
#
# Stress axis : x y z
#
# Youngs Moduli (GPa) = 97.05440 76.84251 58.11585
#
# Poissons Ratio (x) = 0.11410 0.36026
# Poissons Ratio (y) = 0.14412 0.28947
# Poissons Ratio (z) = 0.60164 0.38275
#
# Static dielectric constant tensor:
#      x y z
#    x 2.088030 0.000000 0.000000 
#    y 0.000000 1.954960 0.000000 
#    z 0.000000 0.000000 1.963320 
# 
# From -- ./inp_files/48999.got.cif
#   From: 2010.05.17/outbox.cif.g08.bks.cpg/sg22_25_cif.got.tgz:48999.got - 2010.06.03 23:40:54.
