data_PCOD9328166
_publ_section_title
;
Structure prediction by ZEFSAII (Michael W. Deem and Ramdas Pophale) SiO2 
 PCOD9328166
Probable space group: F 2 2 2
;
_chemical_formula_sum "Si O2"
_cell_formula_units_Z 96
_cell_length_a 13.964060
_cell_length_b 15.845576
_cell_length_c 18.459120
_cell_angle_alpha 90.000000
_cell_angle_beta 90.000000
_cell_angle_gamma 90.000000
_cell_volume 4084.423160
_symmetry_space_group_name_H-M "F 2 2 2"
_symmetry_group_IT_number 22
_symmetry_cell_setting 'orthorhombic'
loop_
_space_group_symop_operation_xyz
x,y,z
-x,-y,z
x,-y,-z
-x,y,-z
x,1/2+y,1/2+z
-x,1/2-y,1/2+z
x,1/2-y,1/2-z
-x,1/2+y,1/2-z
1/2+x,y,1/2+z
1/2-x,-y,1/2+z
1/2+x,-y,1/2-z
1/2-x,y,1/2-z
1/2+x,1/2+y,z
1/2-x,1/2-y,z
1/2+x,1/2-y,-z
1/2-x,1/2+y,-z
loop_
_atom_site_type_symbol
_atom_site_label
_atom_site_fract_x
_atom_site_fract_y
_atom_site_fract_z
Si Si1 0.000000 0.500000 0.154938
Si Si2 0.750000 0.750000 0.384608
Si Si3 0.170621 0.311063 0.649284
Si Si4 0.022162 0.652759 0.734188
Si Si5 0.291176 0.920475 0.673758
Si Si6 0.887095 0.702010 0.992355
Si Si7 0.300566 0.952562 0.084120
O O1 0.010450 0.412344 0.199399
O O2 0.097819 0.513579 0.111859
O O3 0.760701 0.831330 0.335426
O O4 0.840957 0.751801 0.438620
O O5 0.250000 0.250000 0.680731
O O6 0.132862 0.261685 0.577334
O O7 0.235711 0.390637 0.631707
O O8 0.080681 0.336251 0.696844
O O9 0.052928 0.750000 0.750000
O O10 0.098593 0.603724 0.684566
O O11 0.250000 0.959163 0.750000
O O12 0.268796 0.967371 0.598115
O O13 0.833382 0.612005 0.979396
O O14 0.000000 0.687894 0.000000
#
# Coordination Sequence:
#
# PCOD9328166 Si02
#       7
#     8   8  16  16  16  16  16
#     4  12  26  42  69 110 145 198 258 312 384 474
#     4  12  25  46  72 102 141 190 254 308 374 460
#     4  10  22  45  71 104 148 193 256 317 384 454
#     4  12  24  41  72 106 147 202 253 311 395 460
#     4  12  26  45  69 106 154 194 246 312 385 460
#     4  11  24  48  75 106 141 191 256 319 381 459
#     4  11  25  46  70 105 151 193 248 314 381 454
#
# _framework density 23.50393
#
# number of rings (size 3 to 8) (size 9 to 14) (size 15 to 20)
#    0.000    0.667    4.167    5.250    2.333    2.333 
#    0.000    0.000    0.000    0.000    0.000    0.000 
#    0.000    0.000    0.000    0.000    0.000    0.000 
#
# Total GULP energy -133937.233764 kJ/mol
# GULP energy per Si atom -5580.718073 kJ/mol
# Density = 2.345043 g / cm^3
# Si number density = 23.503930 Si / 1000 Ang^3
#
#
#
# Elastic Constant Matrix: (Units=GPa)
#
#
# Indices 1 2 3 4 5 6 
#
# 1 166.2140 24.8999 14.9313 0.0000 0.0000 0.0000
# 2 24.8999 104.0115 29.9344 0.0000 0.0000 0.0000
# 3 14.9313 29.9344 46.1922 0.0000 0.0000 0.0000
# 4 0.0000 0.0000 0.0000 7.1375 0.0000 0.0000
# 5 0.0000 0.0000 0.0000 0.0000 47.8232 0.0000
# 6 0.0000 0.0000 0.0000 0.0000 0.0000 33.9412
#
#
#
# Elastic Compliance Matrix: (Units=1/GPa)
#
#
# Indices 1 2 3 4 5 6 
#
# 1 0.006303 -0.001134 -0.001303 0.000000 0.000000 0.000000
# 2 -0.001134 0.012023 -0.007425 0.000000 0.000000 0.000000
# 3 -0.001303 -0.007425 0.026881 0.000000 0.000000 0.000000
# 4 0.000000 0.000000 0.000000 0.140105 0.000000 0.000000
# 5 0.000000 0.000000 0.000000 0.000000 0.020910 0.000000
# 6 0.000000 0.000000 0.000000 0.000000 0.000000 0.029463
#
#
# Mechanical properties :
#
#
# Convention : Reuss Voigt Hill
#
# Bulk Modulus (GPa) = 39.23937 50.66098 44.95017
# Shear Modulus (GPa) = 18.94644 34.22386 26.58515
#
# Velocity S-wave (km/s) = 2.84226 3.82002 3.36682
# Velocity P-wave (km/s) = 5.24427 6.40763 5.85492
#
# Compressibility (1/GPa) = 0.02548461
#
# Stress axis : x y z
#
# Youngs Moduli (GPa) = 158.64846 83.17675 37.20084
#
# Poissons Ratio (x) = 0.09433 0.04846
# Poissons Ratio (y) = 0.17992 0.27620
# Poissons Ratio (z) = 0.20665 0.61755
#
# Static dielectric constant tensor:
#      x y z
#    x 1.910670 0.000000 0.000000 
#    y 0.000000 1.747410 0.000000 
#    z 0.000000 0.000000 1.952810 
# 
# From -- ./inp_files/43511.got.cif
#   From: 2010.05.17/outbox.cif.g08.bks.cpg/sg22_22_cif.got.tgz:43511.got - 2010.06.03 23:40:54.
