data_PCOD9328294
_publ_section_title
;
Structure prediction by ZEFSAII (Michael W. Deem and Ramdas Pophale) SiO2 
 PCOD9328294
Probable space group: F 2 2 2
;
_chemical_formula_sum "Si O2"
_cell_formula_units_Z 108
_cell_length_a 15.169136
_cell_length_b 23.138330
_cell_length_c 14.494175
_cell_angle_alpha 90.000000
_cell_angle_beta 90.000000
_cell_angle_gamma 90.000000
_cell_volume 5087.288374
_symmetry_space_group_name_H-M "F 2 2 2"
_symmetry_group_IT_number 22
_symmetry_cell_setting 'orthorhombic'
loop_
_space_group_symop_operation_xyz
x,y,z
-x,-y,z
x,-y,-z
-x,y,-z
x,1/2+y,1/2+z
-x,1/2-y,1/2+z
x,1/2-y,1/2-z
-x,1/2+y,1/2-z
1/2+x,y,1/2+z
1/2-x,-y,1/2+z
1/2+x,-y,1/2-z
1/2-x,y,1/2-z
1/2+x,1/2+y,z
1/2-x,1/2-y,z
1/2+x,1/2-y,-z
1/2-x,1/2+y,-z
loop_
_atom_site_type_symbol
_atom_site_label
_atom_site_fract_x
_atom_site_fract_y
_atom_site_fract_z
Si Si1 0.271834 0.625713 0.019019
Si Si2 0.607307 0.002621 0.801968
Si Si3 0.908928 0.328055 0.952631
Si Si4 0.500000 0.500000 0.000000
Si Si5 0.839776 0.785292 0.126412
Si Si6 0.084968 0.124138 0.252911
Si Si7 0.700783 0.500000 0.500000
Si Si8 0.409225 0.414069 0.848718
O O1 0.174748 0.654762 0.015806
O O2 0.323266 0.660945 0.941218
O O3 0.256644 0.558634 0.995998
O O4 0.334370 0.626381 0.107906
O O5 0.631096 0.061611 0.747041
O O6 0.500000 0.000000 0.807317
O O7 0.632774 0.951077 0.734001
O O8 0.645542 0.997799 0.904571
O O9 0.902740 0.261681 0.919842
O O10 0.914101 0.367703 0.862382
O O11 0.000000 0.338450 0.000000
O O12 0.446193 0.542581 0.070416
O O13 0.750000 0.750000 0.138335
O O14 0.870339 0.817639 0.217268
O O15 0.993120 0.117898 0.197596
#
# Coordination Sequence:
#
# PCOD9328294 Si02
#       8
#    16  16  16   4  16  16   8  16
#     4  11  26  42  67 106 143 185 231 301 360 434
#     4  10  23  42  67 105 144 191 241 285 363 445
#     4  11  26  47  72  99 136 190 250 296 362 435
#     4  12  18  40  64 100 154 188 232 274 360 460
#     4  10  25  48  71 103 136 176 247 306 361 416
#     4  11  22  44  72 103 136 189 235 304 356 429
#     4  12  24  42  68 102 146 194 228 291 370 435
#     4  11  24  40  68 106 149 190 238 293 366 448
#
# _framework density 21.229385000000001
#
# number of rings (size 3 to 8) (size 9 to 14) (size 15 to 20)
#    0.000    1.185    3.704    2.000    8.296    4.741 
#    0.000    0.000    0.000    0.000    0.000    0.000 
#    0.000    0.000    0.000    0.000    0.000    0.000 
#
# Total GULP energy -150793.762719 kJ/mol
# GULP energy per Si atom -5584.954175 kJ/mol
# Density = 2.118107 g / cm^3
# Si number density = 21.229385 Si / 1000 Ang^3
#
#
#
# Elastic Constant Matrix: (Units=GPa)
#
#
# Indices 1 2 3 4 5 6 
#
# 1 53.0671 -2.4478 52.1568 0.0000 0.0000 0.0000
# 2 -2.4478 90.6622 27.9123 0.0000 0.0000 0.0000
# 3 52.1568 27.9123 101.1333 0.0000 0.0000 0.0000
# 4 0.0000 0.0000 0.0000 27.5531 0.0000 0.0000
# 5 0.0000 0.0000 0.0000 0.0000 22.8836 0.0000
# 6 0.0000 0.0000 0.0000 0.0000 0.0000 17.7986
#
#
#
# Elastic Compliance Matrix: (Units=1/GPa)
#
#
# Indices 1 2 3 4 5 6 
#
# 1 0.043958 0.008925 -0.025133 0.000000 0.000000 0.000000
# 2 0.008925 0.013866 -0.008430 0.000000 0.000000 0.000000
# 3 -0.025133 -0.008430 0.025176 0.000000 0.000000 0.000000
# 4 0.000000 0.000000 0.000000 0.036294 0.000000 0.000000
# 5 0.000000 0.000000 0.000000 0.000000 0.043699 0.000000
# 6 0.000000 0.000000 0.000000 0.000000 0.000000 0.056184
#
#
# Mechanical properties :
#
#
# Convention : Reuss Voigt Hill
#
# Bulk Modulus (GPa) = 29.65267 44.45614 37.05440
# Shear Modulus (GPa) = 17.87660 24.79649 21.33655
#
# Velocity S-wave (km/s) = 2.90499 3.42135 3.17369
# Velocity P-wave (km/s) = 5.02494 6.04928 5.56075
#
# Compressibility (1/GPa) = 0.03372378
#
# Stress axis : x y z
#
# Youngs Moduli (GPa) = 22.74906 72.11804 39.71987
#
# Poissons Ratio (x) = -0.64363 0.99829
# Poissons Ratio (y) = -0.20303 0.33482
# Poissons Ratio (z) = 0.57176 0.60793
#
# Static dielectric constant tensor:
#      x y z
#    x 1.810610 0.000000 0.000000 
#    y 0.000000 1.774740 0.000000 
#    z 0.000000 0.000000 1.771590 
# 
# From -- ./inp_files/29658.got.cif
#   From: 2010.05.17/outbox.cif.g08.bks.cpg/sg22_15_cif.got.tgz:29658.got - 2010.06.03 23:40:54.
