data_PCOD9328543
_publ_section_title
;
Structure prediction by ZEFSAII (Michael W. Deem and Ramdas Pophale) SiO2 
 PCOD9328543
Probable space group: F 2 2 2
;
_chemical_formula_sum "Si O2"
_cell_formula_units_Z 56
_cell_length_a 10.912101
_cell_length_b 17.430741
_cell_length_c 12.573013
_cell_angle_alpha 90.000000
_cell_angle_beta 90.000000
_cell_angle_gamma 90.000000
_cell_volume 2391.462590
_symmetry_space_group_name_H-M "F 2 2 2"
_symmetry_group_IT_number 22
_symmetry_cell_setting 'orthorhombic'
loop_
_space_group_symop_operation_xyz
x,y,z
-x,-y,z
x,-y,-z
-x,y,-z
x,1/2+y,1/2+z
-x,1/2-y,1/2+z
x,1/2-y,1/2-z
-x,1/2+y,1/2-z
1/2+x,y,1/2+z
1/2-x,-y,1/2+z
1/2+x,-y,1/2-z
1/2-x,y,1/2-z
1/2+x,1/2+y,z
1/2-x,1/2-y,z
1/2+x,1/2-y,-z
1/2-x,1/2+y,-z
loop_
_atom_site_type_symbol
_atom_site_label
_atom_site_fract_x
_atom_site_fract_y
_atom_site_fract_z
Si Si1 0.632483 0.595697 0.182621
Si Si2 0.000000 0.500000 0.500000
Si Si3 0.382216 0.874779 0.236716
Si Si4 0.750000 0.250000 0.750000
Si Si5 0.616680 0.248099 0.429484
O O1 0.750000 0.568030 0.250000
O O2 0.591699 0.554147 0.071848
O O3 0.508500 0.582834 0.248180
O O4 0.663211 0.688528 0.186607
O O5 0.250000 0.912749 0.250000
O O6 0.378260 0.813251 0.333934
O O7 0.394074 0.830123 0.126810
O O8 0.500000 0.232701 0.500000
O O9 0.750000 0.250000 0.482769
#
# Coordination Sequence:
#
# PCOD9328543 Si02
#       5
#    16   4  16   4  16
#     4  10  24  48  84 116 164 216 275 350 410 504
#     4  12  28  52  92 116 168 238 272 322 468 502
#     4   9  19  38  59  96 149 196 249 328 398 463
#     4   8  20  48  86 116 170 206 282 368 396 464
#     4   9  18  31  53  90 144 194 240 318 403 471
#
# _framework density 23.416632
#
# number of rings (size 3 to 8) (size 9 to 14) (size 15 to 20)
#    0.857    1.714    0.000    3.429    2.000    3.429 
#    5.143    0.000    9.429    1.714    0.000    0.000 
#    0.000    0.000    0.000    0.000    0.000    0.000 
#
# Total GULP energy -77958.723049 kJ/mol
# GULP energy per Si atom -5568.480218 kJ/mol
# Density = 2.336333 g / cm^3
# Si number density = 23.416632 Si / 1000 Ang^3
#
#
#
# Elastic Constant Matrix: (Units=GPa)
#
#
# Indices 1 2 3 4 5 6 
#
# 1 249.0481 54.7973 76.4905 0.0000 0.0000 0.0000
# 2 54.7973 159.2868 55.4951 0.0000 0.0000 0.0000
# 3 76.4905 55.4951 103.4342 0.0000 0.0000 0.0000
# 4 0.0000 0.0000 0.0000 13.7120 0.0000 0.0000
# 5 0.0000 0.0000 0.0000 0.0000 50.2526 0.0000
# 6 0.0000 0.0000 0.0000 0.0000 0.0000 -77.5268
#
#
#
# Elastic Compliance Matrix: (Units=1/GPa)
#
#
# Indices 1 2 3 4 5 6 
#
# 1 0.005235 -0.000556 -0.003573 0.000000 0.000000 0.000000
# 2 -0.000556 0.007780 -0.003763 0.000000 0.000000 0.000000
# 3 -0.003573 -0.003763 0.014329 0.000000 0.000000 0.000000
# 4 0.000000 0.000000 0.000000 0.072929 0.000000 0.000000
# 5 0.000000 0.000000 0.000000 0.000000 0.019899 0.000000
# 6 0.000000 0.000000 0.000000 0.000000 0.000000 -0.012899
#
#
# Mechanical properties :
#
#
# Convention : Reuss Voigt Hill
#
# Bulk Modulus (GPa) = 86.50363 98.37057 92.43710
# Shear Modulus (GPa) = 39.39748 18.95332 29.17540
#
# Velocity S-wave (km/s) = 4.10623 2.84807 3.53360
# Velocity P-wave (km/s) = 7.71380 7.27430 7.49727
#
# Compressibility (1/GPa) = 0.01156021
#
# Stress axis : x y z
#
# Youngs Moduli (GPa) = 191.02115 128.52882 69.78743
#
# Poissons Ratio (x) = 0.07148 0.24935
# Poissons Ratio (y) = 0.10623 0.26262
# Poissons Ratio (z) = 0.68251 0.48367
#
# Static dielectric constant tensor:
#      x y z
#    x 1.913850 0.000000 0.000000 
#    y 0.000000 1.992670 0.000000 
#    z 0.000000 0.000000 1.939720 
# 
# From -- ./inp_files/17712.got.cif
#   From: 2010.05.17/outbox.cif.g08.bks.cpg/sg22_9_cif.got.tgz:17712.got - 2010.06.03 23:40:54.
