data_PCOD9328050
_publ_section_title
;
Structure prediction by ZEFSAII (Michael W. Deem and Ramdas Pophale) SiO2 
 PCOD9328050
Probable space group: F 2 2 2
;
_chemical_formula_sum "Si O2"
_cell_formula_units_Z 68
_cell_length_a 10.669802
_cell_length_b 9.821212
_cell_length_c 30.466611
_cell_angle_alpha 90.000000
_cell_angle_beta 90.000000
_cell_angle_gamma 90.000000
_cell_volume 3192.607971
_symmetry_space_group_name_H-M "F 2 2 2"
_symmetry_group_IT_number 22
_symmetry_cell_setting 'orthorhombic'
loop_
_space_group_symop_operation_xyz
x,y,z
-x,-y,z
x,-y,-z
-x,y,-z
x,1/2+y,1/2+z
-x,1/2-y,1/2+z
x,1/2-y,1/2-z
-x,1/2+y,1/2-z
1/2+x,y,1/2+z
1/2-x,-y,1/2+z
1/2+x,-y,1/2-z
1/2-x,y,1/2-z
1/2+x,1/2+y,z
1/2-x,1/2-y,z
1/2+x,1/2-y,-z
1/2-x,1/2+y,-z
loop_
_atom_site_type_symbol
_atom_site_label
_atom_site_fract_x
_atom_site_fract_y
_atom_site_fract_z
Si Si1 0.997072 0.718364 0.851488
Si Si2 0.356865 0.138235 0.577928
Si Si3 0.590392 0.108660 0.724543
Si Si4 0.784970 0.997345 0.343172
Si Si5 0.000000 0.500000 0.500000
O O1 0.969769 0.783294 0.898193
O O2 0.877388 0.626296 0.838912
O O3 0.009800 0.837885 0.816643
O O4 0.122513 0.629177 0.851792
O O5 0.250000 0.250000 0.570054
O O6 0.302334 0.032759 0.614770
O O7 0.408554 0.079038 0.533177
O O8 0.614580 0.250000 0.750000
O O9 0.790069 0.039055 0.798701
O O10 0.500000 0.000000 0.748777
#
# Coordination Sequence:
#
# PCOD9328050 Si02
#       5
#    16  16  16  16   4
#     4  10  22  44  71  94 126 176 228 274 339 397
#     4  10  22  42  67  97 137 173 218 276 334 399
#     4  12  26  44  65  96 137 177 226 285 339 394
#     4  10  22  44  71  93 124 179 228 274 331 402
#     4  12  24  36  64 104 136 172 220 260 336 408
#
# _framework density 21.299202999999999
#
# number of rings (size 3 to 8) (size 9 to 14) (size 15 to 20)
#    0.000    1.412    2.353    2.118    3.294    3.765 
#    0.000    1.176    0.000    0.000    0.000    0.000 
#    0.000    0.000    0.000    0.000    0.000    0.000 
#
# Total GULP energy -95054.924180 kJ/mol
# GULP energy per Si atom -5591.466128 kJ/mol
# Density = 2.125073 g / cm^3
# Si number density = 21.299203 Si / 1000 Ang^3
#
#
#
# Elastic Constant Matrix: (Units=GPa)
#
#
# Indices 1 2 3 4 5 6 
#
# 1 114.9455 55.6725 56.4235 0.0000 0.0000 0.0000
# 2 55.6725 99.8978 53.9733 0.0000 0.0000 0.0000
# 3 56.4235 53.9733 148.6215 0.0000 0.0000 0.0000
# 4 0.0000 0.0000 0.0000 37.2459 0.0000 0.0000
# 5 0.0000 0.0000 0.0000 0.0000 17.6633 0.0000
# 6 0.0000 0.0000 0.0000 0.0000 0.0000 34.7412
#
#
#
# Elastic Compliance Matrix: (Units=1/GPa)
#
#
# Indices 1 2 3 4 5 6 
#
# 1 0.012802 -0.005609 -0.002823 0.000000 0.000000 0.000000
# 2 -0.005609 0.014911 -0.003286 0.000000 0.000000 0.000000
# 3 -0.002823 -0.003286 0.008994 0.000000 0.000000 0.000000
# 4 0.000000 0.000000 0.000000 0.026849 0.000000 0.000000
# 5 0.000000 0.000000 0.000000 0.000000 0.056614 0.000000
# 6 0.000000 0.000000 0.000000 0.000000 0.000000 0.028784
#
#
# Mechanical properties :
#
#
# Convention : Reuss Voigt Hill
#
# Bulk Modulus (GPa) = 75.35309 77.28928 76.32119
# Shear Modulus (GPa) = 28.27812 31.08980 29.68396
#
# Velocity S-wave (km/s) = 3.64766 3.82471 3.73723
# Velocity P-wave (km/s) = 7.29354 7.47467 7.38466
#
# Compressibility (1/GPa) = 0.01327086
#
# Stress axis : x y z
#
# Youngs Moduli (GPa) = 78.10986 67.06236 111.19027
#
# Poissons Ratio (x) = 0.37618 0.31393
# Poissons Ratio (y) = 0.43815 0.36534
# Poissons Ratio (z) = 0.22053 0.22035
#
# Static dielectric constant tensor:
#      x y z
#    x 1.846870 0.000000 0.000000 
#    y 0.000000 1.818540 0.000000 
#    z 0.000000 0.000000 1.733990 
# 
# From -- ./inp_files/52990.got.cif
#   From: 2010.05.17/outbox.cif.g08.bks.cpg/sg22_27_cif.got.tgz:52990.got - 2010.06.03 23:40:54.
