data_PCOD9328348
_publ_section_title
;
Structure prediction by ZEFSAII (Michael W. Deem and Ramdas Pophale) SiO2 
 PCOD9328348
Probable space group: F 2 2 2
;
_chemical_formula_sum "Si O2"
_cell_formula_units_Z 68
_cell_length_a 5.534139
_cell_length_b 25.124474
_cell_length_c 20.612979
_cell_angle_alpha 90.000000
_cell_angle_beta 90.000000
_cell_angle_gamma 90.000000
_cell_volume 2866.076658
_symmetry_space_group_name_H-M "F 2 2 2"
_symmetry_group_IT_number 22
_symmetry_cell_setting 'orthorhombic'
loop_
_space_group_symop_operation_xyz
x,y,z
-x,-y,z
x,-y,-z
-x,y,-z
x,1/2+y,1/2+z
-x,1/2-y,1/2+z
x,1/2-y,1/2-z
-x,1/2+y,1/2-z
1/2+x,y,1/2+z
1/2-x,-y,1/2+z
1/2+x,-y,1/2-z
1/2-x,y,1/2-z
1/2+x,1/2+y,z
1/2-x,1/2-y,z
1/2+x,1/2-y,-z
1/2-x,1/2+y,-z
loop_
_atom_site_type_symbol
_atom_site_label
_atom_site_fract_x
_atom_site_fract_y
_atom_site_fract_z
Si Si1 0.000000 0.500000 0.500000
Si Si2 0.993485 0.334866 0.626050
Si Si3 0.138948 0.084407 0.687617
Si Si4 0.250000 0.834341 0.750000
Si Si5 0.655450 0.082949 0.935560
Si Si6 0.250000 0.250000 0.539493
O O1 0.155500 0.461820 0.454962
O O2 0.141271 0.384477 0.654375
O O3 0.172635 0.298829 0.585245
O O4 0.877039 0.306148 0.688937
O O5 0.786513 0.361657 0.582456
O O6 0.250000 0.053441 0.750000
O O7 0.954443 0.127884 0.718059
O O8 0.992904 0.062251 0.626688
O O9 0.500000 0.091164 0.000000
O O10 0.500000 0.260556 0.500000
#
# Coordination Sequence:
#
# PCOD9328348 Si02
#       6
#     4  16  16   8  16   8
#     4  12  26  40  64 122 140 196 246 326 390 470
#     4  10  23  44  70 102 141 195 249 316 376 451
#     4   9  19  39  69 103 130 188 238 300 379 450
#     4   8  18  40  71  98 128 182 244 300 378 441
#     4  11  24  41  72 108 146 189 256 316 385 455
#     4  12  32  44  67 105 158 202 260 310 400 460
#
# _framework density 23.725812000000001
#
# number of rings (size 3 to 8) (size 9 to 14) (size 15 to 20)
#    0.000    1.882    0.000    1.765   11.529    0.000 
#    0.000    6.471    0.000    0.000  492.471    0.000 
#    0.000    0.000    0.000    0.000    0.000    0.000 
#
# Total GULP energy -95020.400815 kJ/mol
# GULP energy per Si atom -5589.435342 kJ/mol
# Density = 2.367181 g / cm^3
# Si number density = 23.725812 Si / 1000 Ang^3
#
#
#
# Elastic Constant Matrix: (Units=GPa)
#
#
# Indices 1 2 3 4 5 6 
#
# 1 130.6057 28.8738 98.3371 0.0000 0.0000 0.0000
# 2 28.8738 55.0331 56.1711 0.0000 0.0000 0.0000
# 3 98.3371 56.1711 218.7866 0.0000 0.0000 0.0000
# 4 0.0000 0.0000 0.0000 -53.6335 0.0000 0.0000
# 5 0.0000 0.0000 0.0000 0.0000 62.9253 0.0000
# 6 0.0000 0.0000 0.0000 0.0000 0.0000 17.2577
#
#
#
# Elastic Compliance Matrix: (Units=1/GPa)
#
#
# Indices 1 2 3 4 5 6 
#
# 1 0.011617 -0.001037 -0.004955 0.000000 0.000000 0.000000
# 2 -0.001037 0.024716 -0.005879 0.000000 0.000000 0.000000
# 3 -0.004955 -0.005879 0.008307 0.000000 0.000000 0.000000
# 4 0.000000 0.000000 0.000000 -0.018645 0.000000 0.000000
# 5 0.000000 0.000000 0.000000 0.000000 0.015892 0.000000
# 6 0.000000 0.000000 0.000000 0.000000 0.000000 0.057945
#
#
# Mechanical properties :
#
#
# Convention : Reuss Voigt Hill
#
# Bulk Modulus (GPa) = 47.85470 85.68769 66.77120
# Shear Modulus (GPa) = 38.30218 20.04613 29.17416
#
# Velocity S-wave (km/s) = 4.02228 2.90988 3.51042
# Velocity P-wave (km/s) = 6.46416 6.89087 6.68092
#
# Compressibility (1/GPa) = 0.02089659
#
# Stress axis : x y z
#
# Youngs Moduli (GPa) = 86.08267 40.45959 120.37749
#
# Poissons Ratio (x) = 0.04197 0.59647
# Poissons Ratio (y) = 0.08930 0.70773
# Poissons Ratio (z) = 0.42654 0.23787
#
# Static dielectric constant tensor:
#      x y z
#    x 1.876790 0.000000 0.000000 
#    y 0.000000 1.896330 0.000000 
#    z 0.000000 0.000000 1.881210 
# 
# From -- ./inp_files/41030.got.cif
#   From: 2010.05.17/outbox.cif.g08.bks.cpg/sg22_21_cif.got.tgz:41030.got - 2010.06.03 23:40:54.
