data_PCOD9328269
_publ_section_title
;
Structure prediction by ZEFSAII (Michael W. Deem and Ramdas Pophale) SiO2 
 PCOD9328269
Probable space group: F 2 2 2
;
_chemical_formula_sum "Si O2"
_cell_formula_units_Z 108
_cell_length_a 32.417204
_cell_length_b 5.069425
_cell_length_c 30.154735
_cell_angle_alpha 90.000000
_cell_angle_beta 90.000000
_cell_angle_gamma 90.000000
_cell_volume 4955.526153
_symmetry_space_group_name_H-M "F 2 2 2"
_symmetry_group_IT_number 22
_symmetry_cell_setting 'orthorhombic'
loop_
_space_group_symop_operation_xyz
x,y,z
-x,-y,z
x,-y,-z
-x,y,-z
x,1/2+y,1/2+z
-x,1/2-y,1/2+z
x,1/2-y,1/2-z
-x,1/2+y,1/2-z
1/2+x,y,1/2+z
1/2-x,-y,1/2+z
1/2+x,-y,1/2-z
1/2-x,y,1/2-z
1/2+x,1/2+y,z
1/2-x,1/2-y,z
1/2+x,1/2-y,-z
1/2-x,1/2+y,-z
loop_
_atom_site_type_symbol
_atom_site_label
_atom_site_fract_x
_atom_site_fract_y
_atom_site_fract_z
Si Si1 0.750000 0.250000 0.750000
Si Si2 0.603513 0.645564 0.145949
Si Si3 0.221021 0.500000 0.000000
Si Si4 0.709017 0.589054 0.674890
Si Si5 0.333060 0.610159 0.587507
Si Si6 0.590305 0.373971 0.455600
Si Si7 0.043945 0.638715 0.570568
Si Si8 0.879146 0.330097 0.200068
O O1 0.720640 0.405618 0.716317
O O2 0.641039 0.648319 0.109662
O O3 0.561455 0.692391 0.119497
O O4 0.597104 0.366250 0.168308
O O5 0.613993 0.871441 0.182524
O O6 0.250000 0.250000 0.986816
O O7 0.193567 0.602280 0.957810
O O8 0.750000 0.750000 0.667042
O O9 0.696565 0.464548 0.628044
O O10 0.668774 0.742724 0.691239
O O11 0.372703 0.420628 0.579167
O O12 0.609194 0.500000 0.500000
O O13 0.551485 0.573753 0.449943
O O14 0.574345 0.077536 0.452272
O O15 0.000000 0.500000 0.568794
O O16 0.889217 0.250000 0.250000
#
# Coordination Sequence:
#
# PCOD9328269 Si02
#       8
#     4  16   8  16  16  16  16  16
#     4  12  26  40  56  94 128 164 214 280 362 386
#     4  10  23  41  66  95 127 175 213 266 340 392
#     4  12  28  44  66  96 127 178 237 280 332 380
#     4  11  25  39  62  88 129 169 217 280 346 390
#     4  10  24  45  67  90 132 176 227 276 325 403
#     4  11  23  42  65  96 131 178 221 272 333 388
#     4  11  23  40  66  99 134 171 218 269 331 404
#     4  11  23  40  67  95 129 166 225 275 329 406
#
# _framework density 21.793851
#
# number of rings (size 3 to 8) (size 9 to 14) (size 15 to 20)
#    0.000    1.185    0.741    5.556    9.333    6.519 
#    0.000    0.000    0.000    1.778    0.000    0.000 
#    0.000    0.000    0.000    0.000    0.000    0.000 
#
# Total GULP energy -150516.184188 kJ/mol
# GULP energy per Si atom -5574.673488 kJ/mol
# Density = 2.174425 g / cm^3
# Si number density = 21.793851 Si / 1000 Ang^3
#
#
#
# Elastic Constant Matrix: (Units=GPa)
#
#
# Indices 1 2 3 4 5 6 
#
# 1 71.7486 10.1445 29.4407 -0.0058 0.2742 -0.0826
# 2 10.1445 68.7582 13.4020 0.0844 0.3392 -0.0575
# 3 29.4407 13.4020 135.6227 0.0396 0.0375 -0.1909
# 4 -0.0058 0.0844 0.0396 57.7903 0.1369 0.1236
# 5 0.2742 0.3392 0.0375 0.1369 3.9505 0.1049
# 6 -0.0826 -0.0575 -0.1909 0.1236 0.1049 73.8919
#
#
#
# Elastic Compliance Matrix: (Units=1/GPa)
#
#
# Indices 1 2 3 4 5 6 
#
# 1 0.015488 -0.001657 -0.003198 0.000008 -0.000903 0.000009
# 2 -0.001657 0.015013 -0.001123 -0.000019 -0.001163 0.000009
# 3 -0.003198 -0.001123 0.008179 -0.000005 0.000241 0.000016
# 4 0.000008 -0.000019 -0.000005 0.017305 -0.000598 -0.000028
# 5 -0.000903 -0.001163 0.000241 -0.000598 0.253326 -0.000360
# 6 0.000009 0.000009 0.000016 -0.000028 -0.000360 0.013534
#
#
# Mechanical properties :
#
#
# Convention : Reuss Voigt Hill
#
# Bulk Modulus (GPa) = 37.42268 42.45597 39.93932
# Shear Modulus (GPa) = 14.54720 42.00268 28.27494
#
# Velocity S-wave (km/s) = 2.58639 4.39483 3.60583
# Velocity P-wave (km/s) = 5.11152 6.72873 5.97509
#
# Compressibility (1/GPa) = 0.02672177
#
# Stress axis : x y z
#
# Youngs Moduli (GPa) = 64.56789 66.60904 122.27051
#
# Poissons Ratio (x) = 0.11039 0.39102
# Poissons Ratio (y) = 0.10700 0.13737
# Poissons Ratio (z) = 0.20649 0.07483
#
# Static dielectric constant tensor:
#      x y z
#    x 1.748110 -0.000030 0.000800 
#    y -0.000030 1.909590 -0.000610 
#    z 0.000800 -0.000610 1.612600 
# 
# From -- ./inp_files/57390.got.cif
#   From: 2010.05.17/outbox.cif.g08.bks.cpg/sg22_29_cif.got.tgz:57390.got - 2010.06.03 23:40:54.
