data_PCOD9328390
_publ_section_title
;
Structure prediction by ZEFSAII (Michael W. Deem and Ramdas Pophale) SiO2 
 PCOD9328390
Probable space group: F 2 2 2
;
_chemical_formula_sum "Si O2"
_cell_formula_units_Z 92
_cell_length_a 9.687565
_cell_length_b 20.308603
_cell_length_c 24.248389
_cell_angle_alpha 90.000000
_cell_angle_beta 90.000000
_cell_angle_gamma 90.000000
_cell_volume 4770.650157
_symmetry_space_group_name_H-M "F 2 2 2"
_symmetry_group_IT_number 22
_symmetry_cell_setting 'orthorhombic'
loop_
_space_group_symop_operation_xyz
x,y,z
-x,-y,z
x,-y,-z
-x,y,-z
x,1/2+y,1/2+z
-x,1/2-y,1/2+z
x,1/2-y,1/2-z
-x,1/2+y,1/2-z
1/2+x,y,1/2+z
1/2-x,-y,1/2+z
1/2+x,-y,1/2-z
1/2-x,y,1/2-z
1/2+x,1/2+y,z
1/2-x,1/2-y,z
1/2+x,1/2-y,-z
1/2-x,1/2+y,-z
loop_
_atom_site_type_symbol
_atom_site_label
_atom_site_fract_x
_atom_site_fract_y
_atom_site_fract_z
Si Si1 0.617652 0.548878 0.106859
Si Si2 0.538438 0.659627 0.682620
Si Si3 0.090295 0.938373 0.765521
Si Si4 0.500000 0.613718 0.500000
Si Si5 0.375318 0.546969 0.395107
Si Si6 0.695450 0.823796 0.088611
Si Si7 0.250000 0.750000 0.250000
O O1 0.500000 0.500000 0.080813
O O2 0.571856 0.565738 0.168996
O O3 0.744377 0.498720 0.108178
O O4 0.684808 0.619134 0.087886
O O5 0.467943 0.624450 0.734536
O O6 0.627043 0.608424 0.645842
O O7 0.408011 0.675478 0.641999
O O8 0.645606 0.710982 0.708923
O O9 0.250000 0.947960 0.750000
O O10 0.000000 0.000000 0.746642
O O11 0.410848 0.570935 0.456897
O O12 0.400290 0.657196 0.537260
O O13 0.500000 0.500000 0.377920
O O14 0.750000 0.750000 0.084026
#
# Coordination Sequence:
#
# PCOD9328390 Si02
#       7
#    16  16  16   8  16  16   4
#     4  11  24  38  66 109 138 170 226 294 343 410
#     4  11  25  42  65  93 138 183 235 274 340 417
#     4  11  21  36  63  98 135 175 217 273 337 402
#     4  10  23  46  78  90 127 180 238 286 359 430
#     4  11  20  44  73  98 122 175 232 287 347 413
#     4  11  25  48  69  99 137 192 231 289 363 440
#     4  12  32  40  62 104 136 200 232 292 336 426
#
# _framework density 19.284583999999999
#
# number of rings (size 3 to 8) (size 9 to 14) (size 15 to 20)
#    0.000    1.043    5.217    1.826    8.522    0.000 
#    9.391    0.870    0.000    0.000    0.000    0.000 
#    0.000    0.000    0.000    0.000    0.000    0.000 
#
# Total GULP energy -128201.603037 kJ/mol
# GULP energy per Si atom -5573.982741 kJ/mol
# Density = 1.924069 g / cm^3
# Si number density = 19.284584 Si / 1000 Ang^3
#
#
#
# Elastic Constant Matrix: (Units=GPa)
#
#
# Indices 1 2 3 4 5 6 
#
# 1 116.9802 63.0502 23.3290 0.0000 0.0000 0.0000
# 2 63.0502 128.8372 61.9035 0.0000 0.0000 0.0000
# 3 23.3290 61.9035 110.1082 0.0000 0.0000 0.0000
# 4 0.0000 0.0000 0.0000 25.5382 0.0000 0.0000
# 5 0.0000 0.0000 0.0000 0.0000 10.2479 0.0000
# 6 0.0000 0.0000 0.0000 0.0000 0.0000 -202.5283
#
#
#
# Elastic Compliance Matrix: (Units=1/GPa)
#
#
# Indices 1 2 3 4 5 6 
#
# 1 0.011693 -0.006209 0.001013 0.000000 0.000000 0.000000
# 2 -0.006209 0.013932 -0.006517 0.000000 0.000000 0.000000
# 3 0.001013 -0.006517 0.012531 0.000000 0.000000 0.000000
# 4 0.000000 0.000000 0.000000 0.039157 0.000000 0.000000
# 5 0.000000 0.000000 0.000000 0.000000 0.097581 0.000000
# 6 0.000000 0.000000 0.000000 0.000000 0.000000 -0.004938
#
#
# Mechanical properties :
#
#
# Convention : Reuss Voigt Hill
#
# Bulk Modulus (GPa) = 67.88701 72.49901 70.19301
# Shear Modulus (GPa) = 25.21541 -19.50558 2.85491
#
# Velocity S-wave (km/s) = 3.61992 -3.18380 1.21804
# Velocity P-wave (km/s) = 7.26298 4.91533 6.20127
#
# Compressibility (1/GPa) = 0.01473036
#
# Stress axis : x y z
#
# Youngs Moduli (GPa) = 85.52109 71.77918 79.80158
#
# Poissons Ratio (x) = 0.44569 -0.08087
# Poissons Ratio (y) = 0.53102 0.52006
# Poissons Ratio (z) = -0.08667 0.46778
#
# Static dielectric constant tensor:
#      x y z
#    x 1.711450 0.000000 0.000000 
#    y 0.000000 1.652770 0.000000 
#    z 0.000000 0.000000 1.702080 
# 
# From -- ./inp_files/12883.got.cif
#   From: 2010.05.17/outbox.cif.g08.bks.cpg/sg22_7_cif.got.tgz:12883.got - 2010.06.03 23:40:54.
