data_PCOD9328707
_publ_section_title
;
Structure prediction by ZEFSAII (Michael W. Deem and Ramdas Pophale) SiO2 
 PCOD9328707
Probable space group: F 2 2 2
;
_chemical_formula_sum "Si O2"
_cell_formula_units_Z 64
_cell_length_a 11.077988
_cell_length_b 14.616791
_cell_length_c 20.834890
_cell_angle_alpha 90.000000
_cell_angle_beta 90.000000
_cell_angle_gamma 90.000000
_cell_volume 3373.681965
_symmetry_space_group_name_H-M "F 2 2 2"
_symmetry_group_IT_number 22
_symmetry_cell_setting 'orthorhombic'
loop_
_space_group_symop_operation_xyz
x,y,z
-x,-y,z
x,-y,-z
-x,y,-z
x,1/2+y,1/2+z
-x,1/2-y,1/2+z
x,1/2-y,1/2-z
-x,1/2+y,1/2-z
1/2+x,y,1/2+z
1/2-x,-y,1/2+z
1/2+x,-y,1/2-z
1/2-x,y,1/2-z
1/2+x,1/2+y,z
1/2-x,1/2-y,z
1/2+x,1/2-y,-z
1/2-x,1/2+y,-z
loop_
_atom_site_type_symbol
_atom_site_label
_atom_site_fract_x
_atom_site_fract_y
_atom_site_fract_z
Si Si1 0.198802 0.852705 0.003891
Si Si2 0.062603 0.402084 0.935613
Si Si3 0.393496 0.244623 0.826879
Si Si4 0.020055 0.605638 0.599456
O O1 0.250000 0.750000 0.001538
O O2 0.149952 0.881078 0.933964
O O3 0.301048 0.911509 0.039194
O O4 0.082496 0.864097 0.048517
O O5 0.060688 0.339692 0.871897
O O6 0.000000 0.500000 0.924801
O O7 0.000000 0.359307 0.000000
O O8 0.392668 0.250000 0.750000
O O9 0.250000 0.250000 0.845373
O O10 0.484241 0.327126 0.844062
O O11 0.000000 0.500000 0.614980
#
# Coordination Sequence:
#
# PCOD9328707 Si02
#       4
#    16  16  16  16
#     4  11  20  38  60  95 126 160 211 252 334 374
#     4  11  23  36  67  95 127 160 216 275 318 381
#     4  11  23  43  66  91 127 177 222 257 321 398
#     4  11  23  37  62  92 133 164 202 272 319 393
#
# _framework density 18.970371
#
# number of rings (size 3 to 8) (size 9 to 14) (size 15 to 20)
#    0.000    1.000    5.000    3.000    7.000    1.000 
#    0.000    0.000    0.000    6.750    0.000    0.000 
#    0.000    0.000    0.000    0.000    0.000    0.000 
#
# Total GULP energy -89108.478310 kJ/mol
# GULP energy per Si atom -5569.279894 kJ/mol
# Density = 1.892719 g / cm^3
# Si number density = 18.970371 Si / 1000 Ang^3
#
#
#
# Elastic Constant Matrix: (Units=GPa)
#
#
# Indices 1 2 3 4 5 6 
#
# 1 86.8513 51.3186 37.5309 0.0000 0.0000 0.0000
# 2 51.3186 163.3993 57.8271 0.0000 0.0000 0.0000
# 3 37.5309 57.8271 121.3236 0.0000 0.0000 0.0000
# 4 0.0000 0.0000 0.0000 -25.6152 0.0000 0.0000
# 5 0.0000 0.0000 0.0000 0.0000 24.0112 0.0000
# 6 0.0000 0.0000 0.0000 0.0000 0.0000 22.7288
#
#
#
# Elastic Compliance Matrix: (Units=1/GPa)
#
#
# Indices 1 2 3 4 5 6 
#
# 1 0.014922 -0.003672 -0.002866 0.000000 0.000000 0.000000
# 2 -0.003672 0.008266 -0.002804 0.000000 0.000000 0.000000
# 3 -0.002866 -0.002804 0.010465 0.000000 0.000000 0.000000
# 4 0.000000 0.000000 0.000000 -0.039039 0.000000 0.000000
# 5 0.000000 0.000000 0.000000 0.000000 0.041647 0.000000
# 6 0.000000 0.000000 0.000000 0.000000 0.000000 0.043997
#
#
# Mechanical properties :
#
#
# Convention : Reuss Voigt Hill
#
# Bulk Modulus (GPa) = 66.80243 73.88082 70.34163
# Shear Modulus (GPa) = 48.10865 19.21812 33.66339
#
# Velocity S-wave (km/s) = 5.04132 3.18631 4.21708
# Velocity P-wave (km/s) = 8.31728 7.25029 7.80205
#
# Compressibility (1/GPa) = 0.01496951
#
# Stress axis : x y z
#
# Youngs Moduli (GPa) = 67.01396 120.98367 95.55458
#
# Poissons Ratio (x) = 0.44430 0.27383
# Poissons Ratio (y) = 0.24610 0.26790
# Poissons Ratio (z) = 0.19204 0.33919
#
# Static dielectric constant tensor:
#      x y z
#    x 1.788860 0.000000 0.000000 
#    y 0.000000 1.711550 0.000000 
#    z 0.000000 0.000000 1.762980 
# 
# From -- ./inp_files/19547.got.cif
#   From: 2010.05.17/outbox.cif.g08.bks.cpg/sg22_10_cif.got.tgz:19547.got - 2010.06.03 23:40:54.
