data_PCOD9328231
_publ_section_title
;
Structure prediction by ZEFSAII (Michael W. Deem and Ramdas Pophale) SiO2 
 PCOD9328231
Probable space group: F 2 2 2
;
_chemical_formula_sum "Si O2"
_cell_formula_units_Z 64
_cell_length_a 29.519861
_cell_length_b 5.215861
_cell_length_c 18.793775
_cell_angle_alpha 90.000000
_cell_angle_beta 90.000000
_cell_angle_gamma 90.000000
_cell_volume 2893.705572
_symmetry_space_group_name_H-M "F 2 2 2"
_symmetry_group_IT_number 22
_symmetry_cell_setting 'orthorhombic'
loop_
_space_group_symop_operation_xyz
x,y,z
-x,-y,z
x,-y,-z
-x,y,-z
x,1/2+y,1/2+z
-x,1/2-y,1/2+z
x,1/2-y,1/2-z
-x,1/2+y,1/2-z
1/2+x,y,1/2+z
1/2-x,-y,1/2+z
1/2+x,-y,1/2-z
1/2-x,y,1/2-z
1/2+x,1/2+y,z
1/2-x,1/2-y,z
1/2+x,1/2-y,-z
1/2-x,1/2+y,-z
loop_
_atom_site_type_symbol
_atom_site_label
_atom_site_fract_x
_atom_site_fract_y
_atom_site_fract_z
Si Si1 0.780524 0.002792 0.917250
Si Si2 0.140007 0.850629 0.176988
Si Si3 0.424417 0.073474 0.918470
Si Si4 0.046870 0.062291 0.153861
O O1 0.750000 0.250000 0.905897
O O2 0.750000 0.750000 0.904490
O O3 0.823890 0.008753 0.866974
O O4 0.795192 0.000000 0.000000
O O5 0.159940 0.750000 0.250000
O O6 0.122383 0.628504 0.123448
O O7 0.049781 0.844394 0.091745
O O8 0.406737 0.500562 0.804560
O O9 0.449576 0.843745 0.878133
O O10 0.417992 0.000000 0.000000
O O11 0.000000 0.000000 0.193014
#
# Coordination Sequence:
#
# PCOD9328231 Si02
#       4
#    16  16  16  16
#     4  10  24  45  73 103 132 172 223 281 348 414
#     4  10  26  45  70 101 137 181 227 279 342 408
#     4  10  23  39  65  97 133 179 226 281 336 397
#     4  10  23  42  65  99 137 182 228 283 336 403
#
# _framework density 22.116969999999998
#
# number of rings (size 3 to 8) (size 9 to 14) (size 15 to 20)
#    1.500    0.500    0.000    1.500    7.000    5.500 
#    4.500    1.250    0.000    0.000    0.000    0.000 
#    0.000    0.000    0.000    0.000    0.000    0.000 
#
# Total GULP energy -89316.513793 kJ/mol
# GULP energy per Si atom -5582.282112 kJ/mol
# Density = 2.206663 g / cm^3
# Si number density = 22.116970 Si / 1000 Ang^3
#
#
#
# Elastic Constant Matrix: (Units=GPa)
#
#
# Indices 1 2 3 4 5 6 
#
# 1 119.9278 28.3269 58.3835 0.0045 0.0013 -0.0001
# 2 28.3269 126.2924 29.9776 0.0065 0.0045 0.0000
# 3 58.3835 29.9776 62.4799 0.0009 0.0005 -0.0001
# 4 0.0045 0.0065 0.0009 -28.5641 -0.0050 -0.0018
# 5 0.0013 0.0045 0.0005 -0.0050 20.2436 -0.0004
# 6 -0.0001 0.0000 -0.0001 -0.0018 -0.0004 7.3028
#
#
#
# Elastic Compliance Matrix: (Units=1/GPa)
#
#
# Indices 1 2 3 4 5 6 
#
# 1 0.015297 -0.000043 -0.014274 0.000002 -0.000001 0.000000
# 2 -0.000043 0.008936 -0.004247 0.000002 -0.000002 0.000000
# 3 -0.014274 -0.004247 0.031381 -0.000002 0.000001 0.000000
# 4 0.000002 0.000002 -0.000002 -0.035009 -0.000009 -0.000008
# 5 -0.000001 -0.000002 0.000001 -0.000009 0.049398 0.000002
# 6 0.000000 0.000000 0.000000 -0.000008 0.000002 0.136934
#
#
# Mechanical properties :
#
#
# Convention : Reuss Voigt Hill
#
# Bulk Modulus (GPa) = 54.09458 60.23067 57.16262
# Shear Modulus (GPa) = 19.98184 12.59727 16.28956
#
# Velocity S-wave (km/s) = 3.00903 2.38917 2.71683
# Velocity P-wave (km/s) = 6.04846 5.90785 5.97857
#
# Compressibility (1/GPa) = 0.01848614
#
# Stress axis : x y z
#
# Youngs Moduli (GPa) = 65.37138 111.90780 31.86675
#
# Poissons Ratio (x) = 0.00482 0.45485
# Poissons Ratio (y) = 0.00281 0.13534
# Poissons Ratio (z) = 0.93309 0.47529
#
# Static dielectric constant tensor:
#      x y z
#    x 1.941640 0.000000 0.000000 
#    y 0.000000 1.803870 0.000000 
#    z 0.000000 0.000000 1.760250 
# 
# From -- ./inp_files/40201.got.cif
#   From: 2010.05.17/outbox.cif.g08.bks.cpg/sg22_21_cif.got.tgz:40201.got - 2010.06.03 23:40:54.
