data_PCOD9328746
_publ_section_title
;
Structure prediction by ZEFSAII (Michael W. Deem and Ramdas Pophale) SiO2 
 PCOD9328746
Probable space group: F 2 2 2
;
_chemical_formula_sum "Si O2"
_cell_formula_units_Z 80
_cell_length_a 22.174494
_cell_length_b 8.339420
_cell_length_c 20.486993
_cell_angle_alpha 90.000000
_cell_angle_beta 90.000000
_cell_angle_gamma 90.000000
_cell_volume 3788.504299
_symmetry_space_group_name_H-M "F 2 2 2"
_symmetry_group_IT_number 22
_symmetry_cell_setting 'orthorhombic'
loop_
_space_group_symop_operation_xyz
x,y,z
-x,-y,z
x,-y,-z
-x,y,-z
x,1/2+y,1/2+z
-x,1/2-y,1/2+z
x,1/2-y,1/2-z
-x,1/2+y,1/2-z
1/2+x,y,1/2+z
1/2-x,-y,1/2+z
1/2+x,-y,1/2-z
1/2-x,y,1/2-z
1/2+x,1/2+y,z
1/2-x,1/2-y,z
1/2+x,1/2-y,-z
1/2-x,1/2+y,-z
loop_
_atom_site_type_symbol
_atom_site_label
_atom_site_fract_x
_atom_site_fract_y
_atom_site_fract_z
Si Si1 0.319476 0.253597 0.827838
Si Si2 0.750000 0.250000 0.581943
Si Si3 0.174880 0.000000 0.000000
Si Si4 0.025801 0.746951 0.573765
Si Si5 0.860313 0.966461 0.420648
Si Si6 0.089736 0.590960 0.398306
O O1 0.319673 0.250000 0.750000
O O2 0.250000 0.250000 0.849668
O O3 0.359332 0.409729 0.843703
O O4 0.350968 0.117398 0.872409
O O5 0.782264 0.393217 0.543428
O O6 0.809699 0.157749 0.607543
O O7 0.130558 0.120919 0.962288
O O8 0.072594 0.890147 0.584890
O O9 0.061579 0.582217 0.587670
O O10 0.000000 0.752485 0.500000
O O11 0.964088 0.715849 0.613678
O O12 0.851302 0.000000 0.500000
#
# Coordination Sequence:
#
# PCOD9328746 Si02
#       6
#    16   8   8  16  16  16
#     4  11  27  49  69  95 144 197 235 293 372 436
#     4  12  22  32  56 101 135 170 230 294 346 416
#     4  12  20  35  60  94 141 176 228 294 358 408
#     4  11  21  39  63 104 145 178 224 297 363 415
#     4  12  25  39  68 106 139 180 237 301 354 429
#     4  11  21  39  65  93 134 188 230 279 356 427
#
# _framework density 21.116512
#
# number of rings (size 3 to 8) (size 9 to 14) (size 15 to 20)
#    0.000    0.600    5.000    4.200    2.800    2.800 
#    0.000    5.000    0.000    0.000    0.000    0.000 
#    0.000    0.000    0.000    0.000    0.000    0.000 
#
# Total GULP energy -111362.021450 kJ/mol
# GULP energy per Si atom -5568.101072 kJ/mol
# Density = 2.106845 g / cm^3
# Si number density = 21.116512 Si / 1000 Ang^3
#
#
#
# Elastic Constant Matrix: (Units=GPa)
#
#
# Indices 1 2 3 4 5 6 
#
# 1 190.3472 52.9572 46.6152 0.0000 0.0000 0.0000
# 2 52.9572 95.7766 31.3530 0.0000 0.0000 0.0000
# 3 46.6152 31.3530 56.5982 0.0000 0.0000 0.0000
# 4 0.0000 0.0000 0.0000 19.7118 0.0000 0.0000
# 5 0.0000 0.0000 0.0000 0.0000 -28.1377 0.0000
# 6 0.0000 0.0000 0.0000 0.0000 0.0000 50.4380
#
#
#
# Elastic Compliance Matrix: (Units=1/GPa)
#
#
# Indices 1 2 3 4 5 6 
#
# 1 0.007014 -0.002427 -0.004432 0.000000 0.000000 0.000000
# 2 -0.002427 0.013594 -0.005531 0.000000 0.000000 0.000000
# 3 -0.004432 -0.005531 0.024383 0.000000 0.000000 0.000000
# 4 0.000000 0.000000 0.000000 0.050731 0.000000 0.000000
# 5 0.000000 0.000000 0.000000 0.000000 -0.035540 0.000000
# 6 0.000000 0.000000 0.000000 0.000000 0.000000 0.019826
#
#
# Mechanical properties :
#
#
# Convention : Reuss Voigt Hill
#
# Bulk Modulus (GPa) = 49.48239 67.17477 58.32858
# Shear Modulus (GPa) = 44.83198 22.52220 33.67709
#
# Velocity S-wave (km/s) = 4.61268 3.26938 3.99786
# Velocity P-wave (km/s) = 7.20091 6.79208 6.99948
#
# Compressibility (1/GPa) = 0.02020921
#
# Stress axis : x y z
#
# Youngs Moduli (GPa) = 142.56392 73.56305 41.01211
#
# Poissons Ratio (x) = 0.17857 0.18179
# Poissons Ratio (y) = 0.34606 0.22684
# Poissons Ratio (z) = 0.63191 0.40688
#
# Static dielectric constant tensor:
#      x y z
#    x 1.828040 0.000000 0.000000 
#    y 0.000000 3.608350 0.000000 
#    z 0.000000 0.000000 1.833620 
# 
# From -- ./inp_files/49737.got.cif
#   From: 2010.05.17/outbox.cif.g08.bks.cpg/sg22_25_cif.got.tgz:49737.got - 2010.06.03 23:40:54.
