data_PCOD9328114
_publ_section_title
;
Structure prediction by ZEFSAII (Michael W. Deem and Ramdas Pophale) SiO2 
 PCOD9328114
Probable space group: F 2 2 2
;
_chemical_formula_sum "Si O2"
_cell_formula_units_Z 48
_cell_length_a 8.859451
_cell_length_b 11.211212
_cell_length_c 19.142401
_cell_angle_alpha 90.000000
_cell_angle_beta 90.000000
_cell_angle_gamma 90.000000
_cell_volume 1901.322489
_symmetry_space_group_name_H-M "F 2 2 2"
_symmetry_group_IT_number 22
_symmetry_cell_setting 'orthorhombic'
loop_
_space_group_symop_operation_xyz
x,y,z
-x,-y,z
x,-y,-z
-x,y,-z
x,1/2+y,1/2+z
-x,1/2-y,1/2+z
x,1/2-y,1/2-z
-x,1/2+y,1/2-z
1/2+x,y,1/2+z
1/2-x,-y,1/2+z
1/2+x,-y,1/2-z
1/2-x,y,1/2-z
1/2+x,1/2+y,z
1/2-x,1/2-y,z
1/2+x,1/2-y,-z
1/2-x,1/2+y,-z
loop_
_atom_site_type_symbol
_atom_site_label
_atom_site_fract_x
_atom_site_fract_y
_atom_site_fract_z
Si Si1 0.390851 0.316936 0.824727
Si Si2 0.832970 0.875613 0.469225
Si Si3 0.794740 0.409605 0.672802
O O1 0.407696 0.250000 0.750000
O O2 0.250000 0.250000 0.860950
O O3 0.337793 0.452689 0.818053
O O4 0.558858 0.336025 0.853841
O O5 0.750000 0.750000 0.482607
O O6 0.831035 0.898792 0.385997
O O7 0.000000 0.867555 0.500000
O O8 0.762412 0.000000 0.500000
O O9 0.750000 0.370965 0.750000
#
# Coordination Sequence:
#
# PCOD9328114 Si02
#       3
#    16  16  16
#     4  10  22  43  72 120 170 211 257 351 430 489
#     4  11  30  56  83 122 173 233 285 350 432 523
#     4  11  25  46  81 128 163 213 293 355 418 503
#
# _framework density 25.245585999999999
#
# number of rings (size 3 to 8) (size 9 to 14) (size 15 to 20)
#    0.000    1.333    3.333    0.000    4.667   18.000 
#    0.000    0.000    0.000    0.000    0.000    0.000 
#    0.000    0.000    0.000    0.000    0.000    0.000 
#
# Total GULP energy -67093.562073 kJ/mol
# GULP energy per Si atom -5591.130173 kJ/mol
# Density = 2.518813 g / cm^3
# Si number density = 25.245586 Si / 1000 Ang^3
#
#
#
# Elastic Constant Matrix: (Units=GPa)
#
#
# Indices 1 2 3 4 5 6 
#
# 1 133.9583 39.4341 49.8060 0.0000 0.0000 0.0000
# 2 39.4341 250.9191 35.4489 0.0000 0.0000 0.0000
# 3 49.8060 35.4489 166.7522 0.0000 0.0000 0.0000
# 4 0.0000 0.0000 0.0000 25.2264 0.0000 0.0000
# 5 0.0000 0.0000 0.0000 0.0000 279.8982 0.0000
# 6 0.0000 0.0000 0.0000 0.0000 0.0000 59.7955
#
#
#
# Elastic Compliance Matrix: (Units=1/GPa)
#
#
# Indices 1 2 3 4 5 6 
#
# 1 0.008646 -0.001025 -0.002365 0.000000 0.000000 0.000000
# 2 -0.001025 0.004230 -0.000593 0.000000 0.000000 0.000000
# 3 -0.002365 -0.000593 0.006829 0.000000 0.000000 0.000000
# 4 0.000000 0.000000 0.000000 0.039641 0.000000 0.000000
# 5 0.000000 0.000000 0.000000 0.000000 0.003573 0.000000
# 6 0.000000 0.000000 0.000000 0.000000 0.000000 0.016724
#
#
# Mechanical properties :
#
#
# Convention : Reuss Voigt Hill
#
# Bulk Modulus (GPa) = 85.17602 89.00083 87.08843
# Shear Modulus (GPa) = 54.63231 101.44674 78.03952
#
# Velocity S-wave (km/s) = 4.65696 6.34596 5.56590
# Velocity P-wave (km/s) = 7.92014 9.43533 8.71074
#
# Compressibility (1/GPa) = 0.01174039
#
# Stress axis : x y z
#
# Youngs Moduli (GPa) = 115.66327 236.39564 146.42858
#
# Poissons Ratio (x) = 0.24224 0.34623
# Poissons Ratio (y) = 0.11852 0.08686
# Poissons Ratio (z) = 0.27349 0.14023
#
# Static dielectric constant tensor:
#      x y z
#    x 1.960740 0.000000 0.000000 
#    y 0.000000 1.786350 0.000000 
#    z 0.000000 0.000000 1.997610 
# 
# From -- ./inp_files/13216.got.cif
#   From: 2010.05.17/outbox.cif.g08.bks.cpg/sg22_7_cif.got.tgz:13216.got - 2010.06.03 23:40:54.
