data_PCOD9328453
_publ_section_title
;
Structure prediction by ZEFSAII (Michael W. Deem and Ramdas Pophale) SiO2 
 PCOD9328453
Probable space group: F 2 2 2
;
_chemical_formula_sum "Si O2"
_cell_formula_units_Z 92
_cell_length_a 8.444552
_cell_length_b 20.336060
_cell_length_c 25.380179
_cell_angle_alpha 90.000000
_cell_angle_beta 90.000000
_cell_angle_gamma 90.000000
_cell_volume 4358.510631
_symmetry_space_group_name_H-M "F 2 2 2"
_symmetry_group_IT_number 22
_symmetry_cell_setting 'orthorhombic'
loop_
_space_group_symop_operation_xyz
x,y,z
-x,-y,z
x,-y,-z
-x,y,-z
x,1/2+y,1/2+z
-x,1/2-y,1/2+z
x,1/2-y,1/2-z
-x,1/2+y,1/2-z
1/2+x,y,1/2+z
1/2-x,-y,1/2+z
1/2+x,-y,1/2-z
1/2-x,y,1/2-z
1/2+x,1/2+y,z
1/2-x,1/2-y,z
1/2+x,1/2-y,-z
1/2-x,1/2+y,-z
loop_
_atom_site_type_symbol
_atom_site_label
_atom_site_fract_x
_atom_site_fract_y
_atom_site_fract_z
Si Si1 0.626255 0.820427 0.395910
Si Si2 0.504605 0.307917 0.628158
Si Si3 0.281959 0.095505 0.929471
Si Si4 0.459387 0.573816 0.161437
Si Si5 0.500000 0.500000 0.500000
Si Si6 0.500000 0.349593 0.000000
Si Si7 0.562316 0.323717 0.255437
O O1 0.497228 0.771842 0.368061
O O2 0.810203 0.813456 0.384743
O O3 0.583818 0.894138 0.379216
O O4 0.592007 0.808267 0.456689
O O5 0.389099 0.341005 0.585918
O O6 0.475796 0.341202 0.684434
O O7 0.202425 0.074606 0.873364
O O8 0.391803 0.044312 0.960982
O O9 0.135219 0.111225 0.968296
O O10 0.500000 0.500000 0.176002
O O11 0.476058 0.620952 0.212440
O O12 0.489021 0.250000 0.250000
O O13 0.750000 0.316742 0.250000
#
# Coordination Sequence:
#
# PCOD9328453 Si02
#       7
#    16  16  16  16   4   8  16
#     4  10  24  43  69 106 139 188 232 314 346 441
#     4  11  23  44  71 102 143 178 251 293 369 424
#     4  11  26  44  71 101 145 194 242 295 365 446
#     4  11  25  45  68 103 144 185 237 295 369 435
#     4  12  28  44  68 104 142 198 238 300 376 436
#     4  10  24  42  68 102 139 189 242 288 374 418
#     4  11  22  44  74 100 134 191 237 295 367 435
#
# _framework density 21.108128000000001
#
# number of rings (size 3 to 8) (size 9 to 14) (size 15 to 20)
#    0.000    1.217    3.478    1.043    7.304    6.957 
#    4.696    0.000    0.000    0.000    0.000    0.000 
#    0.000    0.000    0.000    0.000    0.000    0.000 
#
# Total GULP energy -128160.640517 kJ/mol
# GULP energy per Si atom -5572.201762 kJ/mol
# Density = 2.106009 g / cm^3
# Si number density = 21.108128 Si / 1000 Ang^3
#
#
#
# Elastic Constant Matrix: (Units=GPa)
#
#
# Indices 1 2 3 4 5 6 
#
# 1 110.4534 43.1480 49.9687 0.0000 0.0000 0.0000
# 2 43.1480 131.2501 51.4398 0.0000 0.0000 0.0000
# 3 49.9687 51.4398 153.2336 0.0000 0.0000 0.0000
# 4 0.0000 0.0000 0.0000 35.5432 0.0000 0.0000
# 5 0.0000 0.0000 0.0000 0.0000 23.8856 0.0000
# 6 0.0000 0.0000 0.0000 0.0000 0.0000 26.5166
#
#
#
# Elastic Compliance Matrix: (Units=1/GPa)
#
#
# Indices 1 2 3 4 5 6 
#
# 1 0.011356 -0.002628 -0.002821 0.000000 0.000000 0.000000
# 2 -0.002628 0.009381 -0.002292 0.000000 0.000000 0.000000
# 3 -0.002821 -0.002292 0.008215 0.000000 0.000000 0.000000
# 4 0.000000 0.000000 0.000000 0.028135 0.000000 0.000000
# 5 0.000000 0.000000 0.000000 0.000000 0.041866 0.000000
# 6 0.000000 0.000000 0.000000 0.000000 0.000000 0.037712
#
#
# Mechanical properties :
#
#
# Convention : Reuss Voigt Hill
#
# Bulk Modulus (GPa) = 74.23510 76.00556 75.12033
# Shear Modulus (GPa) = 31.92049 33.88111 32.90080
#
# Velocity S-wave (km/s) = 3.89297 4.01074 3.95229
# Velocity P-wave (km/s) = 7.44663 7.58512 7.51619
#
# Compressibility (1/GPa) = 0.01347072
#
# Stress axis : x y z
#
# Youngs Moduli (GPa) = 88.05639 106.59475 121.72131
#
# Poissons Ratio (x) = 0.28010 0.34339
# Poissons Ratio (y) = 0.23138 0.27903
# Poissons Ratio (z) = 0.24842 0.24436
#
# Static dielectric constant tensor:
#      x y z
#    x 1.760250 0.000000 0.000000 
#    y 0.000000 1.828020 0.000000 
#    z 0.000000 0.000000 1.834960 
# 
# From -- ./inp_files/47285.got.cif
#   From: 2010.05.17/outbox.cif.g08.bks.cpg/sg22_24_cif.got.tgz:47285.got - 2010.06.03 23:40:54.
