data_PCOD9328664
_publ_section_title
;
Structure prediction by ZEFSAII (Michael W. Deem and Ramdas Pophale) SiO2 
 PCOD9328664
Probable space group: F 2 2 2
;
_chemical_formula_sum "Si O2"
_cell_formula_units_Z 80
_cell_length_a 22.538663
_cell_length_b 12.213761
_cell_length_c 14.075653
_cell_angle_alpha 90.000000
_cell_angle_beta 90.000000
_cell_angle_gamma 90.000000
_cell_volume 3874.771701
_symmetry_space_group_name_H-M "F 2 2 2"
_symmetry_group_IT_number 22
_symmetry_cell_setting 'orthorhombic'
loop_
_space_group_symop_operation_xyz
x,y,z
-x,-y,z
x,-y,-z
-x,y,-z
x,1/2+y,1/2+z
-x,1/2-y,1/2+z
x,1/2-y,1/2-z
-x,1/2+y,1/2-z
1/2+x,y,1/2+z
1/2-x,-y,1/2+z
1/2+x,-y,1/2-z
1/2-x,y,1/2-z
1/2+x,1/2+y,z
1/2-x,1/2-y,z
1/2+x,1/2-y,-z
1/2-x,1/2+y,-z
loop_
_atom_site_type_symbol
_atom_site_label
_atom_site_fract_x
_atom_site_fract_y
_atom_site_fract_z
Si Si1 0.888548 0.193770 0.842324
Si Si2 0.805136 0.329072 0.965872
Si Si3 0.987358 0.871793 0.889008
Si Si4 0.869003 0.545543 0.602048
Si Si5 0.735807 0.947682 0.863217
O O1 0.862891 0.250000 0.750000
O O2 0.862137 0.260975 0.930893
O O3 0.959968 0.195265 0.841515
O O4 0.869949 0.066714 0.838588
O O5 0.750000 0.250000 0.950025
O O6 0.789720 0.435616 0.900286
O O7 0.805978 0.364402 0.077166
O O8 0.917331 0.865072 0.866703
O O9 0.000000 0.000000 0.867844
O O10 0.000000 0.853332 0.000000
O O11 0.890298 0.500000 0.500000
O O12 0.801058 0.577904 0.593544
O O13 0.750000 0.941095 0.750000
#
# Coordination Sequence:
#
# PCOD9328664 Si02
#       5
#    16  16  16  16  16
#     4  11  21  34  58  95 122 151 209 267 310 367
#     4  11  22  37  59  92 129 160 210 260 311 371
#     4   9  17  32  59  82 108 153 203 258 300 346
#     4  11  17  37  63  88 113 157 215 260 296 364
#     4  11  23  38  60  93 132 170 200 252 330 386
#
# _framework density 20.646379
#
# number of rings (size 3 to 8) (size 9 to 14) (size 15 to 20)
#    0.000    1.400    8.000    1.200    0.000    0.400 
#    0.000    2.000    0.000    2.400    0.000    0.000 
#    0.000    0.000    0.000    0.000    0.000    0.000 
#
# Total GULP energy -111350.022623 kJ/mol
# GULP energy per Si atom -5567.501131 kJ/mol
# Density = 2.059939 g / cm^3
# Si number density = 20.646379 Si / 1000 Ang^3
#
#
#
# Elastic Constant Matrix: (Units=GPa)
#
#
# Indices 1 2 3 4 5 6 
#
# 1 97.3613 31.8321 5.1428 0.0000 0.0000 0.0000
# 2 31.8321 65.6172 25.2495 0.0000 0.0000 0.0000
# 3 5.1428 25.2495 98.0514 0.0000 0.0000 0.0000
# 4 0.0000 0.0000 0.0000 22.4947 0.0000 0.0000
# 5 0.0000 0.0000 0.0000 0.0000 16.2519 0.0000
# 6 0.0000 0.0000 0.0000 0.0000 0.0000 31.3285
#
#
#
# Elastic Compliance Matrix: (Units=1/GPa)
#
#
# Indices 1 2 3 4 5 6 
#
# 1 0.012293 -0.006344 0.000989 0.000000 0.000000 0.000000
# 2 -0.006344 0.020190 -0.004866 0.000000 0.000000 0.000000
# 3 0.000989 -0.004866 0.011400 0.000000 0.000000 0.000000
# 4 0.000000 0.000000 0.000000 0.044455 0.000000 0.000000
# 5 0.000000 0.000000 0.000000 0.000000 0.061531 0.000000
# 6 0.000000 0.000000 0.000000 0.000000 0.000000 0.031920
#
#
# Mechanical properties :
#
#
# Convention : Reuss Voigt Hill
#
# Bulk Modulus (GPa) = 42.66232 42.83097 42.74664
# Shear Modulus (GPa) = 23.80431 27.26871 25.53651
#
# Velocity S-wave (km/s) = 3.39920 3.63816 3.52071
# Velocity P-wave (km/s) = 6.00952 6.19986 6.10543
#
# Compressibility (1/GPa) = 0.02343989
#
# Stress axis : x y z
#
# Youngs Moduli (GPa) = 81.34734 49.52907 87.71896
#
# Poissons Ratio (x) = 0.31422 -0.08675
# Poissons Ratio (y) = 0.51607 0.42688
# Poissons Ratio (z) = -0.08045 0.24103
#
# Static dielectric constant tensor:
#      x y z
#    x 1.812610 0.000000 0.000000 
#    y 0.000000 1.770030 0.000000 
#    z 0.000000 0.000000 1.807960 
# 
# From -- ./inp_files/19824.got.cif
#   From: 2010.05.17/outbox.cif.g08.bks.cpg/sg22_10_cif.got.tgz:19824.got - 2010.06.03 23:40:54.
