data_PCOD9328128
_publ_section_title
;
Structure prediction by ZEFSAII (Michael W. Deem and Ramdas Pophale) SiO2 
 PCOD9328128
Probable space group: F 2 2 2
;
_chemical_formula_sum "Si O2"
_cell_formula_units_Z 68
_cell_length_a 26.065201
_cell_length_b 8.077602
_cell_length_c 14.171082
_cell_angle_alpha 90.000000
_cell_angle_beta 90.000000
_cell_angle_gamma 90.000000
_cell_volume 2983.640819
_symmetry_space_group_name_H-M "F 2 2 2"
_symmetry_group_IT_number 22
_symmetry_cell_setting 'orthorhombic'
loop_
_space_group_symop_operation_xyz
x,y,z
-x,-y,z
x,-y,-z
-x,y,-z
x,1/2+y,1/2+z
-x,1/2-y,1/2+z
x,1/2-y,1/2-z
-x,1/2+y,1/2-z
1/2+x,y,1/2+z
1/2-x,-y,1/2+z
1/2+x,-y,1/2-z
1/2-x,y,1/2-z
1/2+x,1/2+y,z
1/2-x,1/2-y,z
1/2+x,1/2-y,-z
1/2-x,1/2+y,-z
loop_
_atom_site_type_symbol
_atom_site_label
_atom_site_fract_x
_atom_site_fract_y
_atom_site_fract_z
Si Si1 0.742844 0.444384 0.394977
Si Si2 0.409706 0.766478 0.537593
Si Si3 0.657336 0.418561 0.810424
Si Si4 0.121953 0.439361 0.864350
Si Si5 0.000000 0.000000 0.000000
O O1 0.756110 0.500000 0.500000
O O2 0.750000 0.250000 0.383234
O O3 0.784632 0.526967 0.327598
O O4 0.682296 0.477381 0.384424
O O5 0.366554 0.875029 0.588799
O O6 0.395215 0.714246 0.430103
O O7 0.410534 0.593696 0.595006
O O8 0.461057 0.872575 0.549624
O O9 0.655825 0.250000 0.750000
O O10 0.624078 0.550700 0.749323
#
# Coordination Sequence:
#
# PCOD9328128 Si02
#       5
#    16  16  16  16   4
#     4  12  25  39  68 111 152 199 241 275 351 447
#     4  10  23  46  68 102 132 187 244 301 377 423
#     4  10  24  43  73 107 150 198 237 290 355 446
#     4  10  22  44  68 101 152 186 232 290 361 436
#     4  12  28  46  76 100 128 180 256 324 372 428
#
# _framework density 22.790946000000002
#
# number of rings (size 3 to 8) (size 9 to 14) (size 15 to 20)
#    0.000    1.412    2.353    2.118    8.235    6.588 
#    0.000    7.059    0.000    0.000    0.000    0.000 
#    0.000    0.000    0.000    0.000    0.000    0.000 
#
# Total GULP energy -94942.183693 kJ/mol
# GULP energy per Si atom -5584.834335 kJ/mol
# Density = 2.273907 g / cm^3
# Si number density = 22.790946 Si / 1000 Ang^3
#
#
#
# Elastic Constant Matrix: (Units=GPa)
#
#
# Indices 1 2 3 4 5 6 
#
# 1 111.1770 54.9140 15.6474 0.0000 0.0000 0.0000
# 2 54.9140 112.9040 51.3590 0.0000 0.0000 0.0000
# 3 15.6474 51.3590 106.2653 0.0000 0.0000 0.0000
# 4 0.0000 0.0000 0.0000 29.3175 0.0000 0.0000
# 5 0.0000 0.0000 0.0000 0.0000 -2.3661 0.0000
# 6 0.0000 0.0000 0.0000 0.0000 0.0000 57.5408
#
#
#
# Elastic Compliance Matrix: (Units=1/GPa)
#
#
# Indices 1 2 3 4 5 6 
#
# 1 0.011988 -0.006445 0.001349 0.000000 0.000000 0.000000
# 2 -0.006445 0.014818 -0.006213 0.000000 0.000000 0.000000
# 3 0.001349 -0.006213 0.012214 0.000000 0.000000 0.000000
# 4 0.000000 0.000000 0.000000 0.034109 0.000000 0.000000
# 5 0.000000 0.000000 0.000000 0.000000 -0.422637 0.000000
# 6 0.000000 0.000000 0.000000 0.000000 0.000000 0.017379
#
#
# Mechanical properties :
#
#
# Convention : Reuss Voigt Hill
#
# Bulk Modulus (GPa) = 60.95835 63.79857 62.37846
# Shear Modulus (GPa) = -16.44491 30.79349 7.17429
#
# Velocity S-wave (km/s) = -2.68909 3.67976 1.77615
# Velocity P-wave (km/s) = 4.14285 6.79028 5.62455
#
# Compressibility (1/GPa) = 0.01640464
#
# Stress axis : x y z
#
# Youngs Moduli (GPa) = 83.41750 67.48744 81.87143
#
# Poissons Ratio (x) = 0.43492 -0.11049
# Poissons Ratio (y) = 0.53759 0.50863
# Poissons Ratio (z) = -0.11257 0.41927
#
# Static dielectric constant tensor:
#      x y z
#    x 1.861950 0.000000 0.000000 
#    y 0.000000 1.902830 0.000000 
#    z 0.000000 0.000000 1.940270 
# 
# From -- ./inp_files/32898.got.cif
#   From: 2010.05.17/outbox.cif.g08.bks.cpg/sg22_17_cif.got.tgz:32898.got - 2010.06.03 23:40:54.
