data_PCOD9328739
_publ_section_title
;
Structure prediction by ZEFSAII (Michael W. Deem and Ramdas Pophale) SiO2 
 PCOD9328739
Probable space group: F 2 2 2
;
_chemical_formula_sum "Si O2"
_cell_formula_units_Z 112
_cell_length_a 14.473204
_cell_length_b 15.367989
_cell_length_c 27.461391
_cell_angle_alpha 90.000000
_cell_angle_beta 90.000000
_cell_angle_gamma 90.000000
_cell_volume 6108.073527
_symmetry_space_group_name_H-M "F 2 2 2"
_symmetry_group_IT_number 22
_symmetry_cell_setting 'orthorhombic'
loop_
_space_group_symop_operation_xyz
x,y,z
-x,-y,z
x,-y,-z
-x,y,-z
x,1/2+y,1/2+z
-x,1/2-y,1/2+z
x,1/2-y,1/2-z
-x,1/2+y,1/2-z
1/2+x,y,1/2+z
1/2-x,-y,1/2+z
1/2+x,-y,1/2-z
1/2-x,y,1/2-z
1/2+x,1/2+y,z
1/2-x,1/2-y,z
1/2+x,1/2-y,-z
1/2-x,1/2+y,-z
loop_
_atom_site_type_symbol
_atom_site_label
_atom_site_fract_x
_atom_site_fract_y
_atom_site_fract_z
Si Si1 0.763784 0.480938 0.151434
Si Si2 0.491734 0.352218 0.055277
Si Si3 0.048950 0.410127 0.815698
Si Si4 0.654554 0.491183 0.054793
Si Si5 0.575225 0.572679 0.799763
Si Si6 0.525929 0.723403 0.157342
Si Si7 0.279501 0.158064 0.306883
O O1 0.849472 0.417961 0.160734
O O2 0.730197 0.482528 0.096109
O O3 0.676635 0.457603 0.185636
O O4 0.775870 0.581246 0.167293
O O5 0.584932 0.409608 0.060889
O O6 0.409705 0.423316 0.060235
O O7 0.473280 0.285845 0.098954
O O8 0.500000 0.317235 0.000000
O O9 0.062948 0.416261 0.757655
O O10 0.000000 0.500000 0.831095
O O11 0.991383 0.322741 0.827084
O O12 0.691446 0.500000 0.000000
O O13 0.500000 0.500000 0.816819
O O14 0.559270 0.664733 0.825096
O O15 0.610597 0.669660 0.183369
O O16 0.250000 0.154056 0.250000
O O17 0.250000 0.250000 0.328214
#
# Coordination Sequence:
#
# PCOD9328739 Si02
#       7
#    16  16  16  16  16  16  16
#     4  12  21  40  62  88 128 163 202 260 316 375
#     4   9  17  34  63  96 119 148 202 264 319 371
#     4  11  27  40  57  85 130 172 213 250 302 374
#     4   9  17  33  63  96 120 149 196 264 327 375
#     4  11  21  37  63  92 123 161 203 253 314 378
#     4  12  22  39  63  90 128 165 204 261 320 370
#     4  11  24  35  60  89 122 164 222 256 296 363
#
# _framework density 18.336386999999998
#
# number of rings (size 3 to 8) (size 9 to 14) (size 15 to 20)
#    0.000    1.286    4.286    3.429    6.000    0.571 
#    0.000    1.429    6.286    0.000    0.000    0.000 
#    0.000    0.000    0.000    0.000    0.000    0.000 
#
# Total GULP energy -156086.183119 kJ/mol
# GULP energy per Si atom -5574.506540 kJ/mol
# Density = 1.829465 g / cm^3
# Si number density = 18.336387 Si / 1000 Ang^3
#
#
#
# Elastic Constant Matrix: (Units=GPa)
#
#
# Indices 1 2 3 4 5 6 
#
# 1 55.0403 9.8315 29.8387 0.0000 0.0000 0.0000
# 2 9.8315 75.7426 27.7656 0.0000 0.0000 0.0000
# 3 29.8387 27.7656 117.2818 0.0000 0.0000 0.0000
# 4 0.0000 0.0000 0.0000 11.9748 0.0000 0.0000
# 5 0.0000 0.0000 0.0000 0.0000 26.8029 0.0000
# 6 0.0000 0.0000 0.0000 0.0000 0.0000 18.8798
#
#
#
# Elastic Compliance Matrix: (Units=1/GPa)
#
#
# Indices 1 2 3 4 5 6 
#
# 1 0.021125 -0.000845 -0.005174 0.000000 0.000000 0.000000
# 2 -0.000845 0.014491 -0.003216 0.000000 0.000000 0.000000
# 3 -0.005174 -0.003216 0.010604 0.000000 0.000000 0.000000
# 4 0.000000 0.000000 0.000000 0.083508 0.000000 0.000000
# 5 0.000000 0.000000 0.000000 0.000000 0.037309 0.000000
# 6 0.000000 0.000000 0.000000 0.000000 0.000000 0.052967
#
#
# Mechanical properties :
#
#
# Convention : Reuss Voigt Hill
#
# Bulk Modulus (GPa) = 36.03667 42.54847 39.29257
# Shear Modulus (GPa) = 20.18370 23.57344 21.87857
#
# Velocity S-wave (km/s) = 3.32135 3.58943 3.45799
# Velocity P-wave (km/s) = 5.86551 6.35873 6.11709
#
# Compressibility (1/GPa) = 0.02774951
#
# Stress axis : x y z
#
# Youngs Moduli (GPa) = 47.33805 69.00788 94.30213
#
# Poissons Ratio (x) = 0.05832 0.48796
# Poissons Ratio (y) = 0.04001 0.30324
# Poissons Ratio (z) = 0.24495 0.22190
#
# Static dielectric constant tensor:
#      x y z
#    x 1.698410 0.000000 0.000000 
#    y 0.000000 1.685920 0.000000 
#    z 0.000000 0.000000 1.651330 
# 
# From -- ./inp_files/29763.got.cif
#   From: 2010.05.17/outbox.cif.g08.bks.cpg/sg22_15_cif.got.tgz:29763.got - 2010.06.03 23:40:54.
