data_PCOD9328029
_publ_section_title
;
Structure prediction by ZEFSAII (Michael W. Deem and Ramdas Pophale) SiO2 
 PCOD9328029
Probable space group: F 2 2 2
;
_chemical_formula_sum "Si O2"
_cell_formula_units_Z 100
_cell_length_a 28.051481
_cell_length_b 23.347695
_cell_length_c 8.092722
_cell_angle_alpha 90.000000
_cell_angle_beta 90.000000
_cell_angle_gamma 90.000000
_cell_volume 5300.226489
_symmetry_space_group_name_H-M "F 2 2 2"
_symmetry_group_IT_number 22
_symmetry_cell_setting 'orthorhombic'
loop_
_space_group_symop_operation_xyz
x,y,z
-x,-y,z
x,-y,-z
-x,y,-z
x,1/2+y,1/2+z
-x,1/2-y,1/2+z
x,1/2-y,1/2-z
-x,1/2+y,1/2-z
1/2+x,y,1/2+z
1/2-x,-y,1/2+z
1/2+x,-y,1/2-z
1/2-x,y,1/2-z
1/2+x,1/2+y,z
1/2-x,1/2-y,z
1/2+x,1/2-y,-z
1/2-x,1/2+y,-z
loop_
_atom_site_type_symbol
_atom_site_label
_atom_site_fract_x
_atom_site_fract_y
_atom_site_fract_z
Si Si1 0.708141 0.145690 0.133079
Si Si2 0.727631 0.061812 0.570898
Si Si3 0.457931 0.611155 0.116788
Si Si4 0.547159 0.798163 0.892563
Si Si5 0.647967 0.638807 0.942628
Si Si6 0.500000 0.500000 0.000000
Si Si7 0.145662 0.266655 0.057803
O O1 0.750000 0.171427 0.250000
O O2 0.666755 0.125951 0.258077
O O3 0.733044 0.092382 0.044348
O O4 0.686412 0.189757 0.002099
O O5 0.750000 0.055884 0.750000
O O6 0.682349 0.104150 0.564540
O O7 0.714352 0.000000 0.500000
O O8 0.457145 0.642189 0.292841
O O9 0.406717 0.622336 0.036807
O O10 0.469283 0.543532 0.111553
O O11 0.500000 0.636425 0.000000
O O12 0.550905 0.750000 0.750000
O O13 0.500000 0.789163 0.000000
O O14 0.594555 0.792615 0.003604
O O15 0.652383 0.706715 0.963412
O O16 0.146934 0.250000 0.250000
#
# Coordination Sequence:
#
# PCOD9328029 Si02
#       7
#    16  16  16  16  16   4  16
#     4  10  22  42  64  89 129 170 213 272 329 385
#     4  11  24  43  65  95 125 168 225 271 327 390
#     4  10  22  43  65  96 130 174 223 270 323 399
#     4  12  23  39  65  98 138 174 217 273 339 399
#     4  11  22  40  66  90 129 173 208 272 328 386
#     4   8  24  40  70  88 132 176 234 258 332 384
#     4  12  24  38  62 101 138 169 219 261 335 413
#
# _framework density 18.867118999999999
#
# number of rings (size 3 to 8) (size 9 to 14) (size 15 to 20)
#    0.480    0.640    3.200    3.840    3.360    4.480 
#    0.000    4.400    0.000    0.000    0.000    0.000 
#    0.000    0.000    0.000    0.000    0.000    0.000 
#
# Total GULP energy -139569.251199 kJ/mol
# GULP energy per Si atom -5582.770048 kJ/mol
# Density = 1.882418 g / cm^3
# Si number density = 18.867119 Si / 1000 Ang^3
#
#
#
# Elastic Constant Matrix: (Units=GPa)
#
#
# Indices 1 2 3 4 5 6 
#
# 1 105.2999 16.2961 24.6969 0.0000 0.0001 0.0001
# 2 16.2961 88.7297 1.6171 -0.0009 0.0001 -0.0001
# 3 24.6969 1.6171 79.7566 -0.0019 -0.0002 -0.0004
# 4 0.0000 -0.0009 -0.0019 31.0010 -0.0001 -0.0003
# 5 0.0001 0.0001 -0.0002 -0.0001 29.4014 0.0002
# 6 0.0001 -0.0001 -0.0004 -0.0003 0.0002 8.7237
#
#
#
# Elastic Compliance Matrix: (Units=1/GPa)
#
#
# Indices 1 2 3 4 5 6 
#
# 1 0.010544 -0.001878 -0.003227 0.000000 0.000000 0.000000
# 2 -0.001878 0.011609 0.000346 0.000000 0.000000 0.000000
# 3 -0.003227 0.000346 0.013530 0.000001 0.000000 0.000001
# 4 0.000000 0.000000 0.000001 0.032257 0.000000 0.000001
# 5 0.000000 0.000000 0.000000 0.000000 0.034012 -0.000001
# 6 0.000000 0.000000 0.000001 0.000001 -0.000001 0.114631
#
#
# Mechanical properties :
#
#
# Convention : Reuss Voigt Hill
#
# Bulk Modulus (GPa) = 38.21750 39.88961 39.05355
# Shear Modulus (GPa) = 21.29271 29.23696 25.26484
#
# Velocity S-wave (km/s) = 3.36305 3.94080 3.66333
# Velocity P-wave (km/s) = 5.94813 6.47262 6.21591
#
# Compressibility (1/GPa) = 0.02616603
#
# Stress axis : x y z
#
# Youngs Moduli (GPa) = 94.83950 86.14198 73.90777
#
# Poissons Ratio (x) = 0.16175 0.23850
# Poissons Ratio (y) = 0.17808 -0.02558
# Poissons Ratio (z) = 0.30604 -0.02981
#
# Static dielectric constant tensor:
#      x y z
#    x 1.662420 0.000000 0.000000 
#    y 0.000000 1.652850 0.000000 
#    z 0.000000 0.000000 1.669000 
# 
# From -- ./inp_files/14835.got.cif
#   From: 2010.05.17/outbox.cif.g08.bks.cpg/sg22_8_cif.got.tgz:14835.got - 2010.06.03 23:40:54.
