data_PCOD9328222
_publ_section_title
;
Structure prediction by ZEFSAII (Michael W. Deem and Ramdas Pophale) SiO2 
 PCOD9328222
Probable space group: F 2 2 2
;
_chemical_formula_sum "Si O2"
_cell_formula_units_Z 60
_cell_length_a 11.653203
_cell_length_b 7.777706
_cell_length_c 25.676378
_cell_angle_alpha 90.000000
_cell_angle_beta 90.000000
_cell_angle_gamma 90.000000
_cell_volume 2327.183319
_symmetry_space_group_name_H-M "F 2 2 2"
_symmetry_group_IT_number 22
_symmetry_cell_setting 'orthorhombic'
loop_
_space_group_symop_operation_xyz
x,y,z
-x,-y,z
x,-y,-z
-x,y,-z
x,1/2+y,1/2+z
-x,1/2-y,1/2+z
x,1/2-y,1/2-z
-x,1/2+y,1/2-z
1/2+x,y,1/2+z
1/2-x,-y,1/2+z
1/2+x,-y,1/2-z
1/2-x,y,1/2-z
1/2+x,1/2+y,z
1/2-x,1/2-y,z
1/2+x,1/2-y,-z
1/2-x,1/2+y,-z
loop_
_atom_site_type_symbol
_atom_site_label
_atom_site_fract_x
_atom_site_fract_y
_atom_site_fract_z
Si Si1 0.360927 0.378456 0.100389
Si Si2 0.271092 0.939904 0.177034
Si Si3 0.738523 0.500000 0.500000
Si Si4 0.420961 0.161012 0.925063
Si Si5 0.750000 0.250000 0.750000
O O1 0.250000 0.250000 0.106066
O O2 0.347526 0.488986 0.152548
O O3 0.485841 0.303785 0.089740
O O4 0.320072 0.474688 0.048994
O O5 0.250000 0.750000 0.199624
O O6 0.348096 0.893049 0.126223
O O7 0.312437 0.103084 0.212872
O O8 0.654683 0.347674 0.477966
O O9 0.500000 0.000000 0.934431
#
# Coordination Sequence:
#
# PCOD9328222 Si02
#       5
#    16  16   8  16   4
#     4  11  22  43  72 104 155 211 256 320 392 455
#     4  11  25  46  79 113 152 199 251 330 400 467
#     4  10  23  38  68 117 156 213 272 325 372 452
#     4  11  21  44  72 104 155 212 261 318 389 461
#     4  12  22  52  88 110 148 202 254 328 416 468
#
# _framework density 25.782240000000002
#
# number of rings (size 3 to 8) (size 9 to 14) (size 15 to 20)
#    0.000    1.067    6.667    0.800    0.000    5.333 
#    0.000    2.667   35.200    0.000    0.000    0.000 
#    0.000    0.000    0.000    0.000    0.000    0.000 
#
# Total GULP energy -83554.884142 kJ/mol
# GULP energy per Si atom -5570.325609 kJ/mol
# Density = 2.572356 g / cm^3
# Si number density = 25.782240 Si / 1000 Ang^3
#
#
#
# Elastic Constant Matrix: (Units=GPa)
#
#
# Indices 1 2 3 4 5 6 
#
# 1 141.5999 51.5206 45.1976 0.0000 0.0000 0.0000
# 2 51.5206 189.8554 44.2423 0.0000 0.0000 0.0000
# 3 45.1976 44.2423 141.4457 0.0000 0.0000 0.0000
# 4 0.0000 0.0000 0.0000 27.2040 0.0000 0.0000
# 5 0.0000 0.0000 0.0000 0.0000 14.4600 0.0000
# 6 0.0000 0.0000 0.0000 0.0000 0.0000 63.2772
#
#
#
# Elastic Compliance Matrix: (Units=1/GPa)
#
#
# Indices 1 2 3 4 5 6 
#
# 1 0.008388 -0.001781 -0.002123 0.000000 0.000000 0.000000
# 2 -0.001781 0.006060 -0.001326 0.000000 0.000000 0.000000
# 3 -0.002123 -0.001326 0.008163 0.000000 0.000000 0.000000
# 4 0.000000 0.000000 0.000000 0.036759 0.000000 0.000000
# 5 0.000000 0.000000 0.000000 0.000000 0.069156 0.000000
# 6 0.000000 0.000000 0.000000 0.000000 0.000000 0.015803
#
#
# Mechanical properties :
#
#
# Convention : Reuss Voigt Hill
#
# Bulk Modulus (GPa) = 82.30910 83.86911 83.08910
# Shear Modulus (GPa) = 31.47800 43.11759 37.29780
#
# Velocity S-wave (km/s) = 3.49795 4.09391 3.80761
# Velocity P-wave (km/s) = 6.95042 7.41264 7.18524
#
# Compressibility (1/GPa) = 0.01214933
#
# Stress axis : x y z
#
# Youngs Moduli (GPa) = 119.21775 165.02651 122.50320
#
# Poissons Ratio (x) = 0.29399 0.26008
# Poissons Ratio (y) = 0.21239 0.16245
# Poissons Ratio (z) = 0.25311 0.21884
#
# Static dielectric constant tensor:
#      x y z
#    x 1.354450 0.000000 0.000000 
#    y 0.000000 2.301400 0.000000 
#    z 0.000000 0.000000 2.094060 
# 
# From -- ./inp_files/52378.got.cif
#   From: 2010.05.17/outbox.cif.g08.bks.cpg/sg22_27_cif.got.tgz:52378.got - 2010.06.03 23:40:54.
