data_PCOD9328144
_publ_section_title
;
Structure prediction by ZEFSAII (Michael W. Deem and Ramdas Pophale) SiO2 
 PCOD9328144
Probable space group: F 2 2 2
;
_chemical_formula_sum "Si O2"
_cell_formula_units_Z 104
_cell_length_a 17.734670
_cell_length_b 30.306077
_cell_length_c 9.620055
_cell_angle_alpha 90.000000
_cell_angle_beta 90.000000
_cell_angle_gamma 90.000000
_cell_volume 5170.474362
_symmetry_space_group_name_H-M "F 2 2 2"
_symmetry_group_IT_number 22
_symmetry_cell_setting 'orthorhombic'
loop_
_space_group_symop_operation_xyz
x,y,z
-x,-y,z
x,-y,-z
-x,y,-z
x,1/2+y,1/2+z
-x,1/2-y,1/2+z
x,1/2-y,1/2-z
-x,1/2+y,1/2-z
1/2+x,y,1/2+z
1/2-x,-y,1/2+z
1/2+x,-y,1/2-z
1/2-x,y,1/2-z
1/2+x,1/2+y,z
1/2-x,1/2-y,z
1/2+x,1/2-y,-z
1/2-x,1/2+y,-z
loop_
_atom_site_type_symbol
_atom_site_label
_atom_site_fract_x
_atom_site_fract_y
_atom_site_fract_z
Si Si1 0.946077 0.845555 0.782553
Si Si2 0.229086 0.458717 0.905689
Si Si3 0.415380 0.589018 0.469792
Si Si4 0.380180 0.646912 0.724011
Si Si5 0.887773 0.750000 0.750000
Si Si6 0.690331 0.367336 0.015162
Si Si7 0.698891 0.288491 0.516182
O O1 0.921639 0.870365 0.639805
O O2 0.935356 0.793270 0.781651
O O3 0.887649 0.862661 0.899030
O O4 0.035739 0.852228 0.788647
O O5 0.250000 0.469551 0.750000
O O6 0.140547 0.447448 0.913126
O O7 0.272182 0.413897 0.948824
O O8 0.248449 0.500000 0.000000
O O9 0.500000 0.573659 0.500000
O O10 0.380931 0.607698 0.612175
O O11 0.355776 0.689319 0.631198
O O12 0.325336 0.638508 0.851938
O O13 0.841221 0.764623 0.613866
O O14 0.748662 0.327605 0.046865
O O15 0.750000 0.250000 0.581104
#
# Coordination Sequence:
#
# PCOD9328144 Si02
#       7
#    16  16  16  16   8  16  16
#     4  11  23  44  68  94 137 192 232 284 342 421
#     4  12  27  45  75 107 140 176 230 288 356 426
#     4  10  22  44  73  99 134 182 230 281 347 423
#     4  11  25  43  66  98 140 180 233 291 353 400
#     4  12  23  40  64  94 133 182 244 278 343 410
#     4  12  25  44  70  98 138 181 228 288 352 417
#     4  12  25  39  67  98 135 185 238 292 345 406
#
# _framework density 20.114208999999999
#
# number of rings (size 3 to 8) (size 9 to 14) (size 15 to 20)
#    0.000    0.615    6.154    1.154    2.154    2.769 
#    2.769    0.000    0.000    1.846    0.000    0.000 
#    0.000    0.000    0.000    0.000    0.000    0.000 
#
# Total GULP energy -145328.193201 kJ/mol
# GULP energy per Si atom -5589.545892 kJ/mol
# Density = 2.006843 g / cm^3
# Si number density = 20.114209 Si / 1000 Ang^3
#
#
#
# Elastic Constant Matrix: (Units=GPa)
#
#
# Indices 1 2 3 4 5 6 
#
# 1 84.8506 28.8314 44.6677 0.0000 0.0000 0.0000
# 2 28.8314 109.7731 34.2575 0.0000 0.0000 0.0000
# 3 44.6677 34.2575 119.6259 0.0000 -0.0001 0.0000
# 4 0.0000 0.0000 0.0000 21.3200 0.0000 0.0000
# 5 0.0000 0.0000 -0.0001 0.0000 34.2021 0.0000
# 6 0.0000 0.0000 0.0000 0.0000 0.0000 23.4076
#
#
#
# Elastic Compliance Matrix: (Units=1/GPa)
#
#
# Indices 1 2 3 4 5 6 
#
# 1 0.015244 -0.002446 -0.004992 0.000000 0.000000 0.000000
# 2 -0.002446 0.010396 -0.002064 0.000000 0.000000 0.000000
# 3 -0.004992 -0.002064 0.010814 0.000000 0.000000 0.000000
# 4 0.000000 0.000000 0.000000 0.046904 0.000000 0.000000
# 5 0.000000 0.000000 0.000000 0.000000 0.029238 0.000000
# 6 0.000000 0.000000 0.000000 0.000000 0.000000 0.042721
#
#
# Mechanical properties :
#
#
# Convention : Reuss Voigt Hill
#
# Bulk Modulus (GPa) = 57.30109 58.86254 58.08181
# Shear Modulus (GPa) = 27.75640 29.55214 28.65427
#
# Velocity S-wave (km/s) = 3.71878 3.83720 3.77845
# Velocity P-wave (km/s) = 6.85484 6.99713 6.92635
#
# Compressibility (1/GPa) = 0.01745168
#
# Stress axis : x y z
#
# Youngs Moduli (GPa) = 65.59817 96.18880 92.47035
#
# Poissons Ratio (x) = 0.23529 0.46158
# Poissons Ratio (y) = 0.16046 0.19084
# Poissons Ratio (z) = 0.32744 0.19852
#
# Static dielectric constant tensor:
#      x y z
#    x 1.758370 0.000000 0.000000 
#    y 0.000000 1.672670 0.000000 
#    z 0.000000 0.000000 1.678400 
# 
# From -- ./inp_files/12939.got.cif
#   From: 2010.05.17/outbox.cif.g08.bks.cpg/sg22_7_cif.got.tgz:12939.got - 2010.06.03 23:40:54.
