data_PCOD9328195
_publ_section_title
;
Structure prediction by ZEFSAII (Michael W. Deem and Ramdas Pophale) SiO2 
 PCOD9328195
Probable space group: F 2 2 2
;
_chemical_formula_sum "Si O2"
_cell_formula_units_Z 88
_cell_length_a 11.768135
_cell_length_b 17.345885
_cell_length_c 16.567433
_cell_angle_alpha 90.000000
_cell_angle_beta 90.000000
_cell_angle_gamma 90.000000
_cell_volume 3381.888832
_symmetry_space_group_name_H-M "F 2 2 2"
_symmetry_group_IT_number 22
_symmetry_cell_setting 'orthorhombic'
loop_
_space_group_symop_operation_xyz
x,y,z
-x,-y,z
x,-y,-z
-x,y,-z
x,1/2+y,1/2+z
-x,1/2-y,1/2+z
x,1/2-y,1/2-z
-x,1/2+y,1/2-z
1/2+x,y,1/2+z
1/2-x,-y,1/2+z
1/2+x,-y,1/2-z
1/2-x,y,1/2-z
1/2+x,1/2+y,z
1/2-x,1/2-y,z
1/2+x,1/2-y,-z
1/2-x,1/2+y,-z
loop_
_atom_site_type_symbol
_atom_site_label
_atom_site_fract_x
_atom_site_fract_y
_atom_site_fract_z
Si Si1 0.068945 0.292813 0.082730
Si Si2 0.325228 0.861289 0.563867
Si Si3 0.795817 0.007439 0.404803
Si Si4 0.310172 0.331059 0.885127
Si Si5 0.010759 0.668303 0.248043
Si Si6 0.000000 0.000000 0.282435
O O1 0.193805 0.330686 0.071920
O O2 0.094681 0.202595 0.103386
O O3 0.993289 0.334619 0.150077
O O4 0.000000 0.298366 0.000000
O O5 0.309964 0.947323 0.596998
O O6 0.364852 0.855689 0.471034
O O7 0.831811 0.000000 0.500000
O O8 0.763656 0.092650 0.375830
O O9 0.893141 0.988218 0.341891
O O10 0.250000 0.250000 0.903050
O O11 0.118727 0.315608 0.695390
O O12 0.940660 0.750000 0.250000
O O13 0.993275 0.578534 0.269025
#
# Coordination Sequence:
#
# PCOD9328195 Si02
#       6
#    16  16  16  16  16   8
#     4  11  23  44  74 108 146 197 249 307 372 460
#     4  10  22  46  77 106 146 195 252 312 369 456
#     4  10  23  40  72 107 144 194 252 316 374 445
#     4  11  23  45  72 108 145 193 251 314 381 446
#     4  12  28  44  69 107 149 195 246 314 386 453
#     4  12  25  42  64 104 151 194 250 314 372 464
#
# _framework density 26.020962000000001
#
# number of rings (size 3 to 8) (size 9 to 14) (size 15 to 20)
#    0.000    1.091    3.636    2.455    5.091    4.000 
#    3.273    1.818    0.000    3.818    0.000    0.000 
#    0.000    0.000    0.000    0.000    0.000    0.000 
#
# Total GULP energy -122667.687231 kJ/mol
# GULP energy per Si atom -5575.803965 kJ/mol
# Density = 2.596174 g / cm^3
# Si number density = 26.020962 Si / 1000 Ang^3
#
#
#
# Elastic Constant Matrix: (Units=GPa)
#
#
# Indices 1 2 3 4 5 6 
#
# 1 66.2013 28.6342 40.4507 0.0000 0.0000 0.0000
# 2 28.6342 216.7167 30.0989 0.0000 0.0000 0.0000
# 3 40.4507 30.0989 87.9977 0.0000 0.0000 0.0000
# 4 0.0000 0.0000 0.0000 37.8919 0.0000 0.0000
# 5 0.0000 0.0000 0.0000 0.0000 30.1956 0.0000
# 6 0.0000 0.0000 0.0000 0.0000 0.0000 25.0836
#
#
#
# Elastic Compliance Matrix: (Units=1/GPa)
#
#
# Indices 1 2 3 4 5 6 
#
# 1 0.021484 -0.001540 -0.009349 0.000000 0.000000 0.000000
# 2 -0.001540 0.004955 -0.000987 0.000000 0.000000 0.000000
# 3 -0.009349 -0.000987 0.015999 0.000000 0.000000 0.000000
# 4 0.000000 0.000000 0.000000 0.026391 0.000000 0.000000
# 5 0.000000 0.000000 0.000000 0.000000 0.033117 0.000000
# 6 0.000000 0.000000 0.000000 0.000000 0.000000 0.039867
#
#
# Mechanical properties :
#
#
# Convention : Reuss Voigt Hill
#
# Bulk Modulus (GPa) = 53.51587 63.25370 58.38478
# Shear Modulus (GPa) = 29.10471 36.74969 32.92720
#
# Velocity S-wave (km/s) = 3.34804 3.76215 3.56112
# Velocity P-wave (km/s) = 5.96296 6.57520 6.27655
#
# Compressibility (1/GPa) = 0.01868605
#
# Stress axis : x y z
#
# Youngs Moduli (GPa) = 46.54600 201.82159 62.50395
#
# Poissons Ratio (x) = 0.31084 0.58435
# Poissons Ratio (y) = 0.07169 0.06168
# Poissons Ratio (z) = 0.43516 0.19915
#
# Static dielectric constant tensor:
#      x y z
#    x 2.500940 0.000000 0.000000 
#    y 0.000000 2.110550 0.000000 
#    z 0.000000 0.000000 2.137310 
# 
# From -- ./inp_files/37147.got.cif
#   From: 2010.05.17/outbox.cif.g08.bks.cpg/sg22_19_cif.got.tgz:37147.got - 2010.06.03 23:40:54.
