data_PCOD9328775
_publ_section_title
;
Structure prediction by ZEFSAII (Michael W. Deem and Ramdas Pophale) SiO2 
 PCOD9328775
Probable space group: F 2 2 2
;
_chemical_formula_sum "Si O2"
_cell_formula_units_Z 68
_cell_length_a 17.619606
_cell_length_b 20.266111
_cell_length_c 9.195225
_cell_angle_alpha 90.000000
_cell_angle_beta 90.000000
_cell_angle_gamma 90.000000
_cell_volume 3283.439136
_symmetry_space_group_name_H-M "F 2 2 2"
_symmetry_group_IT_number 22
_symmetry_cell_setting 'orthorhombic'
loop_
_space_group_symop_operation_xyz
x,y,z
-x,-y,z
x,-y,-z
-x,y,-z
x,1/2+y,1/2+z
-x,1/2-y,1/2+z
x,1/2-y,1/2-z
-x,1/2+y,1/2-z
1/2+x,y,1/2+z
1/2-x,-y,1/2+z
1/2+x,-y,1/2-z
1/2-x,y,1/2-z
1/2+x,1/2+y,z
1/2-x,1/2-y,z
1/2+x,1/2-y,-z
1/2-x,1/2+y,-z
loop_
_atom_site_type_symbol
_atom_site_label
_atom_site_fract_x
_atom_site_fract_y
_atom_site_fract_z
Si Si1 0.250000 0.617487 0.750000
Si Si2 0.370718 0.121619 0.701266
Si Si3 0.598830 0.466360 0.762714
Si Si4 0.000000 0.609715 0.500000
Si Si5 0.500000 0.000000 0.000000
Si Si6 0.775888 0.675593 0.945621
O O1 0.321557 0.570223 0.775468
O O2 0.276857 0.661945 0.615667
O O3 0.440080 0.148202 0.602589
O O4 0.292754 0.129961 0.612658
O O5 0.350751 0.156763 0.853998
O O6 0.387960 0.044571 0.723785
O O7 0.548617 0.435404 0.890628
O O8 0.554102 0.458750 0.609375
O O9 0.750000 0.750000 0.916349
#
# Coordination Sequence:
#
# PCOD9328775 Si02
#       6
#     8  16  16   8   4  16
#     4  12  25  40  68  96 137 170 232 282 324 400
#     4  11  21  41  69  95 131 170 217 271 338 411
#     4  12  24  40  65 105 134 172 210 278 353 411
#     4  12  23  42  68 103 143 170 202 275 370 405
#     4  12  24  38  60 102 150 164 208 268 352 424
#     4  11  25  44  69  92 130 184 237 272 323 385
#
# _framework density 20.709992
#
# number of rings (size 3 to 8) (size 9 to 14) (size 15 to 20)
#    0.000    0.471    4.706    6.000    0.000    1.882 
#    0.000    0.000   10.353    1.412    0.000    0.000 
#    0.000    0.000    0.000    0.000    0.000    0.000 
#
# Total GULP energy -94944.162544 kJ/mol
# GULP energy per Si atom -5584.950738 kJ/mol
# Density = 2.066286 g / cm^3
# Si number density = 20.709992 Si / 1000 Ang^3
#
#
#
# Elastic Constant Matrix: (Units=GPa)
#
#
# Indices 1 2 3 4 5 6 
#
# 1 145.2448 34.8373 64.7276 0.0000 0.0000 0.0000
# 2 34.8373 59.4667 29.7717 0.0000 0.0000 0.0000
# 3 64.7276 29.7717 166.4217 0.0000 0.0000 0.0000
# 4 0.0000 0.0000 0.0000 12.1110 0.0000 0.0000
# 5 0.0000 0.0000 0.0000 0.0000 51.1150 0.0000
# 6 0.0000 0.0000 0.0000 0.0000 0.0000 7.4566
#
#
#
# Elastic Compliance Matrix: (Units=1/GPa)
#
#
# Indices 1 2 3 4 5 6 
#
# 1 0.009084 -0.003903 -0.002835 0.000000 0.000000 0.000000
# 2 -0.003903 0.020147 -0.002086 0.000000 0.000000 0.000000
# 3 -0.002835 -0.002086 0.007485 0.000000 0.000000 0.000000
# 4 0.000000 0.000000 0.000000 0.082569 0.000000 0.000000
# 5 0.000000 0.000000 0.000000 0.000000 0.019564 0.000000
# 6 0.000000 0.000000 0.000000 0.000000 0.000000 0.134109
#
#
# Mechanical properties :
#
#
# Convention : Reuss Voigt Hill
#
# Bulk Modulus (GPa) = 52.44361 69.97849 61.21105
# Shear Modulus (GPa) = 16.83717 30.25630 23.54673
#
# Velocity S-wave (km/s) = 2.85440 3.82639 3.37556
# Velocity P-wave (km/s) = 6.02008 7.30648 6.69425
#
# Compressibility (1/GPa) = 0.01906810
#
# Stress axis : x y z
#
# Youngs Moduli (GPa) = 110.07860 49.63560 133.60505
#
# Poissons Ratio (x) = 0.19370 0.37879
# Poissons Ratio (y) = 0.42958 0.27874
# Poissons Ratio (z) = 0.31209 0.10355
#
# Static dielectric constant tensor:
#      x y z
#    x 1.757790 0.000000 0.000000 
#    y 0.000000 1.708250 0.000000 
#    z 0.000000 0.000000 1.823340 
# 
# From -- ./inp_files/11304.got.cif
#   From: 2010.05.17/outbox.cif.g08.bks.cpg/sg22_6_cif.got.tgz:11304.got - 2010.06.03 23:40:54.
