data_PCOD9328684
_publ_section_title
;
Structure prediction by ZEFSAII (Michael W. Deem and Ramdas Pophale) SiO2 
 PCOD9328684
Probable space group: F 2 2 2
;
_chemical_formula_sum "Si O2"
_cell_formula_units_Z 116
_cell_length_a 16.033919
_cell_length_b 27.396992
_cell_length_c 11.243325
_cell_angle_alpha 90.000000
_cell_angle_beta 90.000000
_cell_angle_gamma 90.000000
_cell_volume 4938.980742
_symmetry_space_group_name_H-M "F 2 2 2"
_symmetry_group_IT_number 22
_symmetry_cell_setting 'orthorhombic'
loop_
_space_group_symop_operation_xyz
x,y,z
-x,-y,z
x,-y,-z
-x,y,-z
x,1/2+y,1/2+z
-x,1/2-y,1/2+z
x,1/2-y,1/2-z
-x,1/2+y,1/2-z
1/2+x,y,1/2+z
1/2-x,-y,1/2+z
1/2+x,-y,1/2-z
1/2-x,y,1/2-z
1/2+x,1/2+y,z
1/2-x,1/2-y,z
1/2+x,1/2-y,-z
1/2-x,1/2+y,-z
loop_
_atom_site_type_symbol
_atom_site_label
_atom_site_fract_x
_atom_site_fract_y
_atom_site_fract_z
Si Si1 0.129925 0.425833 0.165360
Si Si2 0.570593 0.796336 0.676187
Si Si3 0.250000 0.250000 0.250000
Si Si4 0.304397 0.609490 0.898611
Si Si5 0.136292 0.035777 0.640280
Si Si6 0.665116 0.042446 0.408624
Si Si7 0.466070 0.870548 0.121645
Si Si8 0.878228 0.211601 0.906450
O O1 0.205790 0.398630 0.099778
O O2 0.164216 0.429024 0.300181
O O3 0.111626 0.479724 0.116374
O O4 0.049185 0.393494 0.174861
O O5 0.599646 0.750000 0.750000
O O6 0.576492 0.839565 0.774010
O O7 0.616368 0.795007 0.548817
O O8 0.472226 0.790208 0.642911
O O9 0.175999 0.255895 0.146550
O O10 0.328240 0.663653 0.860595
O O11 0.345074 0.593372 0.022012
O O12 0.235315 0.037110 0.614755
O O13 0.121993 0.041903 0.782054
O O14 0.089238 0.082310 0.585961
O O15 0.639585 0.000000 0.500000
O O16 0.500000 0.844532 0.000000
#
# Coordination Sequence:
#
# PCOD9328684 Si02
#       8
#    16  16   4  16  16  16  16  16
#     4  11  21  37  63  98 138 185 236 296 348 426
#     4  11  26  51  74 105 150 200 235 315 397 454
#     4  12  24  48  82 124 128 194 248 306 376 468
#     4  11  20  38  66  97 133 180 237 290 350 422
#     4  11  23  39  59 100 136 182 245 290 359 437
#     4  11  19  37  64  87 128 189 231 285 361 427
#     4  12  27  42  67 101 140 192 247 295 370 445
#     4  11  25  45  80 110 147 181 251 311 370 459
#
# _framework density 23.486626999999999
#
# number of rings (size 3 to 8) (size 9 to 14) (size 15 to 20)
#    0.000    0.828    4.828    3.724    1.931    0.552 
#    2.483    0.345    0.000    0.000    0.000    0.000 
#    0.000    0.000    0.000    0.000    0.000    0.000 
#
# Total GULP energy -161801.652080 kJ/mol
# GULP energy per Si atom -5579.367313 kJ/mol
# Density = 2.343317 g / cm^3
# Si number density = 23.486627 Si / 1000 Ang^3
#
#
#
# Elastic Constant Matrix: (Units=GPa)
#
#
# Indices 1 2 3 4 5 6 
#
# 1 55.9637 5.7839 14.3562 0.0000 0.0000 0.0000
# 2 5.7839 55.7544 21.1459 0.0000 0.0000 0.0000
# 3 14.3562 21.1459 125.0977 0.0000 0.0000 0.0000
# 4 0.0000 0.0000 0.0000 36.1876 0.0000 0.0000
# 5 0.0000 0.0000 0.0000 0.0000 36.1138 0.0000
# 6 0.0000 0.0000 0.0000 0.0000 0.0000 24.0219
#
#
#
# Elastic Compliance Matrix: (Units=1/GPa)
#
#
# Indices 1 2 3 4 5 6 
#
# 1 0.018484 -0.001189 -0.001920 0.000000 0.000000 0.000000
# 2 -0.001189 0.019241 -0.003116 0.000000 0.000000 0.000000
# 3 -0.001920 -0.003116 0.008741 0.000000 0.000000 0.000000
# 4 0.000000 0.000000 0.000000 0.027634 0.000000 0.000000
# 5 0.000000 0.000000 0.000000 0.000000 0.027690 0.000000
# 6 0.000000 0.000000 0.000000 0.000000 0.000000 0.041629
#
#
# Mechanical properties :
#
#
# Convention : Reuss Voigt Hill
#
# Bulk Modulus (GPa) = 29.39864 35.48754 32.44309
# Shear Modulus (GPa) = 29.90291 32.29999 31.10145
#
# Velocity S-wave (km/s) = 3.57205 3.71246 3.64293
# Velocity P-wave (km/s) = 5.43664 5.78956 5.61587
#
# Compressibility (1/GPa) = 0.03401518
#
# Stress axis : x y z
#
# Youngs Moduli (GPa) = 54.10021 51.97251 114.40580
#
# Poissons Ratio (x) = 0.06181 0.21968
# Poissons Ratio (y) = 0.06434 0.35648
# Poissons Ratio (z) = 0.10388 0.16194
#
# Static dielectric constant tensor:
#      x y z
#    x 1.832760 0.000000 0.000000 
#    y 0.000000 1.953420 0.000000 
#    z 0.000000 0.000000 1.987680 
# 
# From -- ./inp_files/21830.got.cif
#   From: 2010.05.17/outbox.cif.g08.bks.cpg/sg22_11_cif.got.tgz:21830.got - 2010.06.03 23:40:54.
