data_PCOD9328051
_publ_section_title
;
Structure prediction by ZEFSAII (Michael W. Deem and Ramdas Pophale) SiO2 
 PCOD9328051
Probable space group: F 2 2 2
;
_chemical_formula_sum "Si O2"
_cell_formula_units_Z 68
_cell_length_a 19.240610
_cell_length_b 16.206748
_cell_length_c 9.925172
_cell_angle_alpha 90.000000
_cell_angle_beta 90.000000
_cell_angle_gamma 90.000000
_cell_volume 3094.943732
_symmetry_space_group_name_H-M "F 2 2 2"
_symmetry_group_IT_number 22
_symmetry_cell_setting 'orthorhombic'
loop_
_space_group_symop_operation_xyz
x,y,z
-x,-y,z
x,-y,-z
-x,y,-z
x,1/2+y,1/2+z
-x,1/2-y,1/2+z
x,1/2-y,1/2-z
-x,1/2+y,1/2-z
1/2+x,y,1/2+z
1/2-x,-y,1/2+z
1/2+x,-y,1/2-z
1/2-x,y,1/2-z
1/2+x,1/2+y,z
1/2-x,1/2-y,z
1/2+x,1/2-y,-z
1/2-x,1/2+y,-z
loop_
_atom_site_type_symbol
_atom_site_label
_atom_site_fract_x
_atom_site_fract_y
_atom_site_fract_z
Si Si1 0.296601 0.490909 0.133613
Si Si2 0.005196 0.100384 0.660525
Si Si3 0.250000 0.750000 0.250000
Si Si4 0.122351 0.850633 0.135097
Si Si5 0.621439 0.828279 0.333122
O O1 0.250000 0.524016 0.250000
O O2 0.320658 0.399091 0.160205
O O3 0.251694 0.500000 0.000000
O O4 0.360524 0.447329 0.886447
O O5 0.070974 0.144330 0.736065
O O6 0.000000 0.117626 0.500000
O O7 0.940997 0.136867 0.743326
O O8 0.000000 0.000000 0.675047
O O9 0.195245 0.804967 0.165483
O O10 0.097802 0.815943 0.989537
O O11 0.647524 0.750000 0.250000
#
# Coordination Sequence:
#
# PCOD9328051 Si02
#       5
#    16  16   4  16  16
#     4  10  22  42  67  97 138 190 241 290 367 441
#     4  11  25  45  75 109 144 190 246 309 371 441
#     4  12  28  44  74 108 142 192 244 304 368 440
#     4  11  25  47  71 102 145 192 242 299 370 443
#     4  11  26  43  69 107 140 190 242 308 367 432
#
# _framework density 21.971319999999999
#
# number of rings (size 3 to 8) (size 9 to 14) (size 15 to 20)
#    0.000    1.176    3.529    0.706    4.941    7.059 
#    0.000    0.000    0.000    0.000    0.000    0.000 
#    0.000    0.000    0.000    0.000    0.000    0.000 
#
# Total GULP energy -94789.897786 kJ/mol
# GULP energy per Si atom -5575.876340 kJ/mol
# Density = 2.192131 g / cm^3
# Si number density = 21.971320 Si / 1000 Ang^3
#
#
#
# Elastic Constant Matrix: (Units=GPa)
#
#
# Indices 1 2 3 4 5 6 
#
# 1 72.1149 31.7630 68.2424 0.0000 0.0000 0.0000
# 2 31.7630 124.8536 56.1272 0.0000 0.0000 0.0000
# 3 68.2424 56.1272 231.7619 0.0000 0.0000 0.0000
# 4 0.0000 0.0000 0.0000 30.5345 0.0000 0.0000
# 5 0.0000 0.0000 0.0000 0.0000 27.8049 0.0000
# 6 0.0000 0.0000 0.0000 0.0000 0.0000 21.1107
#
#
#
# Elastic Compliance Matrix: (Units=1/GPa)
#
#
# Indices 1 2 3 4 5 6 
#
# 1 0.020026 -0.002742 -0.005233 0.000000 0.000000 0.000000
# 2 -0.002742 0.009363 -0.001460 0.000000 0.000000 0.000000
# 3 -0.005233 -0.001460 0.006209 0.000000 0.000000 0.000000
# 4 0.000000 0.000000 0.000000 0.032750 0.000000 0.000000
# 5 0.000000 0.000000 0.000000 0.000000 0.035965 0.000000
# 6 0.000000 0.000000 0.000000 0.000000 0.000000 0.047369
#
#
# Mechanical properties :
#
#
# Convention : Reuss Voigt Hill
#
# Bulk Modulus (GPa) = 59.77796 82.33284 71.05540
# Shear Modulus (GPa) = 28.38822 34.06320 31.22571
#
# Velocity S-wave (km/s) = 3.59842 3.94172 3.77397
# Velocity P-wave (km/s) = 6.67317 7.63351 7.16943
#
# Compressibility (1/GPa) = 0.01672857
#
# Stress axis : x y z
#
# Youngs Moduli (GPa) = 49.93441 106.79836 161.05370
#
# Poissons Ratio (x) = 0.29289 0.84273
# Poissons Ratio (y) = 0.13694 0.23515
# Poissons Ratio (z) = 0.26129 0.15593
#
# Static dielectric constant tensor:
#      x y z
#    x 1.796470 0.000000 0.000000 
#    y 0.000000 1.873120 0.000000 
#    z 0.000000 0.000000 1.942690 
# 
# From -- ./inp_files/11285.got.cif
#   From: 2010.05.17/outbox.cif.g08.bks.cpg/sg22_6_cif.got.tgz:11285.got - 2010.06.03 23:40:54.
