data_PCOD9328692
_publ_section_title
;
Structure prediction by ZEFSAII (Michael W. Deem and Ramdas Pophale) SiO2 
 PCOD9328692
Probable space group: F 2 2 2
;
_chemical_formula_sum "Si O2"
_cell_formula_units_Z 72
_cell_length_a 15.813704
_cell_length_b 15.308378
_cell_length_c 12.920284
_cell_angle_alpha 90.000000
_cell_angle_beta 90.000000
_cell_angle_gamma 90.000000
_cell_volume 3127.770238
_symmetry_space_group_name_H-M "F 2 2 2"
_symmetry_group_IT_number 22
_symmetry_cell_setting 'orthorhombic'
loop_
_space_group_symop_operation_xyz
x,y,z
-x,-y,z
x,-y,-z
-x,y,-z
x,1/2+y,1/2+z
-x,1/2-y,1/2+z
x,1/2-y,1/2-z
-x,1/2+y,1/2-z
1/2+x,y,1/2+z
1/2-x,-y,1/2+z
1/2+x,-y,1/2-z
1/2-x,y,1/2-z
1/2+x,1/2+y,z
1/2-x,1/2-y,z
1/2+x,1/2-y,-z
1/2-x,1/2+y,-z
loop_
_atom_site_type_symbol
_atom_site_label
_atom_site_fract_x
_atom_site_fract_y
_atom_site_fract_z
Si Si1 0.047043 0.904863 0.727138
Si Si2 0.327679 0.102789 0.036160
Si Si3 0.621326 0.179736 0.163210
Si Si4 0.353682 0.068540 0.415658
Si Si5 0.250000 0.457361 0.750000
O O1 0.125117 0.896582 0.647057
O O2 0.076345 0.885896 0.844939
O O3 0.975042 0.840828 0.688074
O O4 0.000000 0.000000 0.724733
O O5 0.226361 0.120542 0.038254
O O6 0.368093 0.176244 0.960912
O O7 0.339402 0.000000 0.000000
O O8 0.647300 0.250000 0.250000
O O9 0.683186 0.100435 0.190160
O O10 0.387956 0.000000 0.500000
O O11 0.304224 0.011313 0.330542
#
# Coordination Sequence:
#
# PCOD9328692 Si02
#       5
#    16  16  16  16   8
#     4  12  21  38  70 104 141 176 243 309 350 422
#     4  11  19  39  73  99 131 185 252 290 343 436
#     4  12  26  41  64 102 150 186 231 301 371 430
#     4  11  20  37  68 108 134 176 244 309 350 411
#     4  12  19  42  66  98 137 180 238 294 345 434
#
# _framework density 23.019594000000001
#
# number of rings (size 3 to 8) (size 9 to 14) (size 15 to 20)
#    0.000    0.444   11.111    1.000    0.000    0.444 
#    0.000    4.444    0.000    1.333    0.000    0.000 
#    0.000    0.000    0.000    0.000    0.000    0.000 
#
# Total GULP energy -100396.182656 kJ/mol
# GULP energy per Si atom -5577.565703 kJ/mol
# Density = 2.296720 g / cm^3
# Si number density = 23.019594 Si / 1000 Ang^3
#
#
#
# Elastic Constant Matrix: (Units=GPa)
#
#
# Indices 1 2 3 4 5 6 
#
# 1 89.0588 -5.6090 33.5272 0.0000 0.0000 0.0000
# 2 -5.6090 33.6196 22.7813 0.0000 0.0000 0.0000
# 3 33.5272 22.7813 154.4130 0.0000 0.0000 0.0000
# 4 0.0000 0.0000 0.0000 31.9985 0.0000 0.0000
# 5 0.0000 0.0000 0.0000 0.0000 58.4010 0.0000
# 6 0.0000 0.0000 0.0000 0.0000 0.0000 6.3833
#
#
#
# Elastic Compliance Matrix: (Units=1/GPa)
#
#
# Indices 1 2 3 4 5 6 
#
# 1 0.012805 0.004467 -0.003439 0.000000 0.000000 0.000000
# 2 0.004467 0.034607 -0.006076 0.000000 0.000000 0.000000
# 3 -0.003439 -0.006076 0.008119 0.000000 0.000000 0.000000
# 4 0.000000 0.000000 0.000000 0.031251 0.000000 0.000000
# 5 0.000000 0.000000 0.000000 0.000000 0.017123 0.000000
# 6 0.000000 0.000000 0.000000 0.000000 0.000000 0.156659
#
#
# Mechanical properties :
#
#
# Convention : Reuss Voigt Hill
#
# Bulk Modulus (GPa) = 22.00970 42.05450 32.03210
# Shear Modulus (GPa) = 17.49447 34.44936 25.97191
#
# Velocity S-wave (km/s) = 2.75977 3.87269 3.36259
# Velocity P-wave (km/s) = 4.44265 6.18915 5.38715
#
# Compressibility (1/GPa) = 0.04543451
#
# Stress axis : x y z
#
# Youngs Moduli (GPa) = 78.09700 28.89614 123.16422
#
# Poissons Ratio (x) = -0.12907 0.42359
# Poissons Ratio (y) = -0.34884 0.74829
# Poissons Ratio (z) = 0.26859 0.17556
#
# Static dielectric constant tensor:
#      x y z
#    x 1.895350 0.000000 0.000000 
#    y 0.000000 1.911470 0.000000 
#    z 0.000000 0.000000 2.098850 
# 
# From -- ./inp_files/21068.got.cif
#   From: 2010.05.17/outbox.cif.g08.bks.cpg/sg22_11_cif.got.tgz:21068.got - 2010.06.03 23:40:54.
