data_PCOD9328805
_publ_section_title
;
Structure prediction by ZEFSAII (Michael W. Deem and Ramdas Pophale) SiO2 
 PCOD9328805
Probable space group: F 2 2 2
;
_chemical_formula_sum "Si O2"
_cell_formula_units_Z 88
_cell_length_a 19.747177
_cell_length_b 24.081690
_cell_length_c 8.540040
_cell_angle_alpha 90.000000
_cell_angle_beta 90.000000
_cell_angle_gamma 90.000000
_cell_volume 4061.176694
_symmetry_space_group_name_H-M "F 2 2 2"
_symmetry_group_IT_number 22
_symmetry_cell_setting 'orthorhombic'
loop_
_space_group_symop_operation_xyz
x,y,z
-x,-y,z
x,-y,-z
-x,y,-z
x,1/2+y,1/2+z
-x,1/2-y,1/2+z
x,1/2-y,1/2-z
-x,1/2+y,1/2-z
1/2+x,y,1/2+z
1/2-x,-y,1/2+z
1/2+x,-y,1/2-z
1/2-x,y,1/2-z
1/2+x,1/2+y,z
1/2-x,1/2-y,z
1/2+x,1/2-y,-z
1/2-x,1/2+y,-z
loop_
_atom_site_type_symbol
_atom_site_label
_atom_site_fract_x
_atom_site_fract_y
_atom_site_fract_z
Si Si1 0.173048 0.993968 0.315358
Si Si2 0.250000 0.839215 0.750000
Si Si3 0.179100 0.723534 0.030579
Si Si4 0.666479 0.874628 0.740709
Si Si5 0.437650 0.295177 0.115807
Si Si6 0.868211 0.597739 0.386496
O O1 0.250000 0.994116 0.250000
O O2 0.144090 0.931877 0.317208
O O3 0.179110 0.000000 0.500000
O O4 0.132188 0.038190 0.203598
O O5 0.202251 0.805260 0.632858
O O6 0.206054 0.879526 0.852520
O O7 0.250000 0.750000 0.085723
O O8 0.149637 0.680167 0.157172
O O9 0.126573 0.770734 0.981025
O O10 0.750000 0.873466 0.750000
O O11 0.632283 0.888298 0.572133
O O12 0.450835 0.250000 0.250000
O O13 0.420252 0.356545 0.180766
O O14 0.500000 0.298909 0.000000
#
# Coordination Sequence:
#
# PCOD9328805 Si02
#       6
#    16   8  16  16  16  16
#     4  11  22  37  62  99 143 181 224 288 357 412
#     4  12  19  38  62 100 128 188 223 292 334 404
#     4  12  22  41  67 101 143 184 237 286 345 422
#     4  11  22  36  59 102 139 179 222 284 353 408
#     4  12  28  45  67  98 138 184 229 283 355 426
#     4  12  23  40  65  94 139 180 232 285 346 412
#
# _framework density 21.668596000000001
#
# number of rings (size 3 to 8) (size 9 to 14) (size 15 to 20)
#    0.000    0.364    6.364    4.091    2.545    1.818 
#    0.000    0.000    0.000    2.182    0.000    2.545 
#    0.000    0.364    0.000    0.000    0.000    0.000 
#
# Total GULP energy -122516.228860 kJ/mol
# GULP energy per Si atom -5568.919494 kJ/mol
# Density = 2.161928 g / cm^3
# Si number density = 21.668596 Si / 1000 Ang^3
#
#
#
# Elastic Constant Matrix: (Units=GPa)
#
#
# Indices 1 2 3 4 5 6 
#
# 1 43.4632 5.4452 -17.0628 0.0001 0.0000 0.0000
# 2 5.4452 122.6741 35.9767 0.0000 0.0000 0.0000
# 3 -17.0628 35.9767 111.1652 0.0001 -0.0001 0.0000
# 4 0.0001 0.0000 0.0001 40.8651 0.0000 0.0000
# 5 0.0000 0.0000 -0.0001 0.0000 15.1695 0.0000
# 6 0.0000 0.0000 0.0000 0.0000 0.0000 11.5948
#
#
#
# Elastic Compliance Matrix: (Units=1/GPa)
#
#
# Indices 1 2 3 4 5 6 
#
# 1 0.025150 -0.002484 0.004664 0.000000 0.000000 0.000000
# 2 -0.002484 0.009252 -0.003376 0.000000 0.000000 0.000000
# 3 0.004664 -0.003376 0.010804 0.000000 0.000000 0.000000
# 4 0.000000 0.000000 0.000000 0.024471 0.000000 0.000000
# 5 0.000000 0.000000 0.000000 0.000000 0.065922 0.000000
# 6 0.000000 0.000000 0.000000 0.000000 0.000000 0.086246
#
#
# Mechanical properties :
#
#
# Convention : Reuss Voigt Hill
#
# Bulk Modulus (GPa) = 23.35615 36.22451 29.79033
# Shear Modulus (GPa) = 20.96374 30.38877 25.67626
#
# Velocity S-wave (km/s) = 3.11379 3.74897 3.44605
# Velocity P-wave (km/s) = 4.87133 5.95764 5.44166
#
# Compressibility (1/GPa) = 0.04281528
#
# Stress axis : x y z
#
# Youngs Moduli (GPa) = 39.76092 108.08593 92.55842
#
# Poissons Ratio (x) = 0.26851 -0.43172
# Poissons Ratio (y) = 0.09878 0.31243
# Poissons Ratio (z) = -0.18546 0.36485
#
# Static dielectric constant tensor:
#      x y z
#    x 1.795560 0.000000 0.000000 
#    y 0.000000 1.891550 0.000000 
#    z 0.000000 0.000000 1.679950 
# 
# From -- ./inp_files/12677.got.cif
#   From: 2010.05.17/outbox.cif.g08.bks.cpg/sg22_7_cif.got.tgz:12677.got - 2010.06.03 23:40:54.
