data_PCOD9328213
_publ_section_title
;
Structure prediction by ZEFSAII (Michael W. Deem and Ramdas Pophale) SiO2 
 PCOD9328213
Probable space group: F 2 2 2
;
_chemical_formula_sum "Si O2"
_cell_formula_units_Z 88
_cell_length_a 11.837192
_cell_length_b 15.800604
_cell_length_c 23.554578
_cell_angle_alpha 90.000000
_cell_angle_beta 90.000000
_cell_angle_gamma 90.000000
_cell_volume 4405.525391
_symmetry_space_group_name_H-M "F 2 2 2"
_symmetry_group_IT_number 22
_symmetry_cell_setting 'orthorhombic'
loop_
_space_group_symop_operation_xyz
x,y,z
-x,-y,z
x,-y,-z
-x,y,-z
x,1/2+y,1/2+z
-x,1/2-y,1/2+z
x,1/2-y,1/2-z
-x,1/2+y,1/2-z
1/2+x,y,1/2+z
1/2-x,-y,1/2+z
1/2+x,-y,1/2-z
1/2-x,y,1/2-z
1/2+x,1/2+y,z
1/2-x,1/2-y,z
1/2+x,1/2-y,-z
1/2-x,1/2+y,-z
loop_
_atom_site_type_symbol
_atom_site_label
_atom_site_fract_x
_atom_site_fract_y
_atom_site_fract_z
Si Si1 0.693360 0.668693 0.348392
Si Si2 0.000000 0.000000 0.748342
Si Si3 0.623736 0.896214 0.569079
Si Si4 0.250000 0.541487 0.750000
Si Si5 0.636007 0.405670 0.933411
Si Si6 0.250000 0.750000 0.362514
Si Si7 0.028724 0.186792 0.697868
O O1 0.750000 0.750000 0.320791
O O2 0.708757 0.593746 0.304097
O O3 0.765447 0.646519 0.403539
O O4 0.562295 0.691870 0.353027
O O5 0.871266 0.005107 0.773844
O O6 0.019819 0.089526 0.716896
O O7 0.634030 0.888914 0.500819
O O8 0.491959 0.886001 0.586621
O O9 0.698513 0.826480 0.600273
O O10 0.655062 0.994596 0.579105
O O11 0.151085 0.787778 0.323752
O O12 0.998356 0.250000 0.750000
#
# Coordination Sequence:
#
# PCOD9328213 Si02
#       7
#    16   8  16   8  16   8  16
#     4  11  21  37  63  90 121 165 217 276 322 386
#     4  10  24  42  64  90 137 173 216 276 332 410
#     4   9  21  40  63  98 126 173 216 272 327 409
#     4  10  23  38  59  92 126 172 222 265 337 402
#     4   9  20  41  66  89 132 169 223 268 330 394
#     4  12  25  40  68  94 134 171 222 270 344 400
#     4  11  26  43  62  95 135 172 221 277 342 405
#
# _framework density 19.974917999999999
#
# number of rings (size 3 to 8) (size 9 to 14) (size 15 to 20)
#    0.000    1.818    0.000    4.909    8.909    1.455 
#    0.000    0.000    0.000    2.182    0.000    0.000 
#    0.000    0.000    0.000    0.000    0.000    0.000 
#
# Total GULP energy -122501.195068 kJ/mol
# GULP energy per Si atom -5568.236139 kJ/mol
# Density = 1.992945 g / cm^3
# Si number density = 19.974918 Si / 1000 Ang^3
#
#
#
# Elastic Constant Matrix: (Units=GPa)
#
#
# Indices 1 2 3 4 5 6 
#
# 1 191.7613 62.7119 46.3282 0.0000 0.0000 0.0000
# 2 62.7119 110.3876 38.1585 0.0000 0.0000 0.0000
# 3 46.3282 38.1585 56.0575 0.0000 0.0000 0.0000
# 4 0.0000 0.0000 0.0000 19.3304 0.0000 0.0000
# 5 0.0000 0.0000 0.0000 0.0000 38.7782 0.0000
# 6 0.0000 0.0000 0.0000 0.0000 0.0000 40.9179
#
#
#
# Elastic Compliance Matrix: (Units=1/GPa)
#
#
# Indices 1 2 3 4 5 6 
#
# 1 0.007044 -0.002602 -0.004051 0.000000 0.000000 0.000000
# 2 -0.002602 0.012807 -0.006568 0.000000 0.000000 0.000000
# 3 -0.004051 -0.006568 0.025657 0.000000 0.000000 0.000000
# 4 0.000000 0.000000 0.000000 0.051732 0.000000 0.000000
# 5 0.000000 0.000000 0.000000 0.000000 0.025788 0.000000
# 6 0.000000 0.000000 0.000000 0.000000 0.000000 0.024439
#
#
# Mechanical properties :
#
#
# Convention : Reuss Voigt Hill
#
# Bulk Modulus (GPa) = 52.44283 72.51152 62.47718
# Shear Modulus (GPa) = 27.73701 33.87249 30.80475
#
# Velocity S-wave (km/s) = 3.73042 4.12242 3.93131
# Velocity P-wave (km/s) = 6.69822 7.68370 7.20782
#
# Compressibility (1/GPa) = 0.01906838
#
# Stress axis : x y z
#
# Youngs Moduli (GPa) = 141.95951 78.07998 38.97525
#
# Poissons Ratio (x) = 0.20314 0.15788
# Poissons Ratio (y) = 0.36933 0.25599
# Poissons Ratio (z) = 0.57504 0.51282
#
# Static dielectric constant tensor:
#      x y z
#    x 1.798270 0.000000 0.000000 
#    y 0.000000 1.715080 0.000000 
#    z 0.000000 0.000000 1.715120 
# 
# From -- ./inp_files/52616.got.cif
#   From: 2010.05.17/outbox.cif.g08.bks.cpg/sg22_27_cif.got.tgz:52616.got - 2010.06.03 23:40:54.
