data_PCOD9328578
_publ_section_title
;
Structure prediction by ZEFSAII (Michael W. Deem and Ramdas Pophale) SiO2 
 PCOD9328578
Probable space group: F 2 2 2
;
_chemical_formula_sum "Si O2"
_cell_formula_units_Z 44
_cell_length_a 14.834853
_cell_length_b 28.677937
_cell_length_c 5.044419
_cell_angle_alpha 90.000000
_cell_angle_beta 90.000000
_cell_angle_gamma 90.000000
_cell_volume 2146.062206
_symmetry_space_group_name_H-M "F 2 2 2"
_symmetry_group_IT_number 22
_symmetry_cell_setting 'orthorhombic'
loop_
_space_group_symop_operation_xyz
x,y,z
-x,-y,z
x,-y,-z
-x,y,-z
x,1/2+y,1/2+z
-x,1/2-y,1/2+z
x,1/2-y,1/2-z
-x,1/2+y,1/2-z
1/2+x,y,1/2+z
1/2-x,-y,1/2+z
1/2+x,-y,1/2-z
1/2-x,y,1/2-z
1/2+x,1/2+y,z
1/2-x,1/2-y,z
1/2+x,1/2-y,-z
1/2-x,1/2+y,-z
loop_
_atom_site_type_symbol
_atom_site_label
_atom_site_fract_x
_atom_site_fract_y
_atom_site_fract_z
Si Si1 0.500000 0.716306 0.000000
Si Si2 0.250000 0.923585 0.750000
Si Si3 0.691969 0.831953 0.492331
Si Si4 0.376859 0.000000 0.000000
Si Si5 0.500000 0.500000 0.000000
O O1 0.497591 0.750000 0.750000
O O2 0.590843 0.685980 0.993692
O O3 0.304939 0.887520 0.564909
O O4 0.183059 0.956764 0.592598
O O5 0.750000 0.821589 0.750000
O O6 0.750000 0.811070 0.250000
O O7 0.430464 0.017460 0.733429
#
# Coordination Sequence:
#
# PCOD9328578 Si02
#       5
#     8   8  16   8   4
#     4  12  26  47  78 107 140 187 242 292 368 459
#     4  10  26  44  73  98 148 200 239 304 350 436
#     4  10  25  46  68 108 143 191 227 309 361 421
#     4  11  23  44  71  99 144 196 258 284 372 420
#     4  10  26  40  58 110 128 184 252 324 328 426
#
# _framework density 20.502668
#
# number of rings (size 3 to 8) (size 9 to 14) (size 15 to 20)
#    1.091    0.364    0.000    3.273    7.636    5.818 
#    6.545    0.000    0.000    0.000    0.000    0.000 
#    0.000    0.000    0.000    0.000    0.000    0.000 
#
# Total GULP energy -61242.684907 kJ/mol
# GULP energy per Si atom -5567.516810 kJ/mol
# Density = 2.045600 g / cm^3
# Si number density = 20.502668 Si / 1000 Ang^3
#
#
#
# Elastic Constant Matrix: (Units=GPa)
#
#
# Indices 1 2 3 4 5 6 
#
# 1 218.9194 89.7747 97.5990 -0.0012 -0.0046 -0.0004
# 2 89.7747 89.6752 50.2754 0.0002 0.0001 -0.0023
# 3 97.5990 50.2754 206.5875 0.0028 -0.0084 -0.0006
# 4 -0.0012 0.0002 0.0028 69.7463 -0.0014 0.0022
# 5 -0.0046 0.0001 -0.0084 -0.0014 40.7784 -0.0004
# 6 -0.0004 -0.0023 -0.0006 0.0022 -0.0004 -39.3495
#
#
#
# Elastic Compliance Matrix: (Units=1/GPa)
#
#
# Indices 1 2 3 4 5 6 
#
# 1 0.008582 -0.007317 -0.002274 0.000000 0.000001 0.000000
# 2 -0.007317 0.019151 -0.001204 0.000000 -0.000001 -0.000001
# 3 -0.002274 -0.001204 0.006208 0.000000 0.000001 0.000000
# 4 0.000000 0.000000 0.000000 0.014338 0.000000 0.000001
# 5 0.000001 -0.000001 0.000001 0.000000 0.024523 0.000000
# 6 0.000000 -0.000001 0.000000 0.000001 0.000000 -0.025413
#
#
# Mechanical properties :
#
#
# Convention : Reuss Voigt Hill
#
# Bulk Modulus (GPa) = 80.95900 110.05335 95.50618
# Shear Modulus (GPa) = 68.40413 32.73725 50.57069
#
# Velocity S-wave (km/s) = 5.78238 4.00025 4.97182
# Velocity P-wave (km/s) = 9.17355 8.66776 8.92424
#
# Compressibility (1/GPa) = 0.01235193
#
# Stress axis : x y z
#
# Youngs Moduli (GPa) = 116.52128 52.21577 161.08751
#
# Poissons Ratio (x) = 0.38205 0.36629
# Poissons Ratio (y) = 0.85257 0.19394
# Poissons Ratio (z) = 0.26495 0.06287
#
# Static dielectric constant tensor:
#      x y z
#    x 1.725360 0.000000 0.000000 
#    y 0.000000 1.724750 0.000000 
#    z 0.000000 0.000000 1.730530 
# 
# From -- ./inp_files/1588.got.cif
#   From: 2010.05.17/outbox.cif.g08.bks.cpg/sg22_1_cif.got.tgz:1588.got - 2010.06.03 23:40:54.
