data_PCOD9328480
_publ_section_title
;
Structure prediction by ZEFSAII (Michael W. Deem and Ramdas Pophale) SiO2 
 PCOD9328480
Probable space group: F 2 2 2
;
_chemical_formula_sum "Si O2"
_cell_formula_units_Z 88
_cell_length_a 27.058806
_cell_length_b 12.495086
_cell_length_c 12.897751
_cell_angle_alpha 90.000000
_cell_angle_beta 90.000000
_cell_angle_gamma 90.000000
_cell_volume 4360.756802
_symmetry_space_group_name_H-M "F 2 2 2"
_symmetry_group_IT_number 22
_symmetry_cell_setting 'orthorhombic'
loop_
_space_group_symop_operation_xyz
x,y,z
-x,-y,z
x,-y,-z
-x,y,-z
x,1/2+y,1/2+z
-x,1/2-y,1/2+z
x,1/2-y,1/2-z
-x,1/2+y,1/2-z
1/2+x,y,1/2+z
1/2-x,-y,1/2+z
1/2+x,-y,1/2-z
1/2-x,y,1/2-z
1/2+x,1/2+y,z
1/2-x,1/2-y,z
1/2+x,1/2-y,-z
1/2-x,1/2+y,-z
loop_
_atom_site_type_symbol
_atom_site_label
_atom_site_fract_x
_atom_site_fract_y
_atom_site_fract_z
Si Si1 0.742650 0.122044 0.866863
Si Si2 0.503536 0.250000 0.750000
Si Si3 0.848846 0.402290 0.566660
Si Si4 0.637396 0.154491 0.963482
Si Si5 0.411549 0.841387 0.177989
Si Si6 0.915746 0.921587 0.260388
O O1 0.750000 0.078411 0.750000
O O2 0.750000 0.250000 0.859299
O O3 0.790168 0.083764 0.928418
O O4 0.690025 0.108618 0.923144
O O5 0.464989 0.214529 0.840177
O O6 0.538296 0.150023 0.724185
O O7 0.870488 0.500000 0.500000
O O8 0.859245 0.283218 0.526979
O O9 0.870505 0.402265 0.682513
O O10 0.598953 0.122054 0.873973
O O11 0.618657 0.123423 0.077175
O O12 0.385746 0.750000 0.250000
O O13 0.423528 0.951547 0.236782
#
# Coordination Sequence:
#
# PCOD9328480 Si02
#       6
#    16   8  16  16  16  16
#     4   9  18  36  63  94 130 170 224 271 320 411
#     4  10  24  44  66  91 133 162 236 272 342 388
#     4  11  22  37  64  96 133 171 216 274 340 404
#     4  11  21  41  67  96 129 176 221 278 337 399
#     4  10  25  42  63  96 135 170 222 282 341 399
#     4  12  21  43  68  92 130 177 220 277 335 404
#
# _framework density 20.179983
#
# number of rings (size 3 to 8) (size 9 to 14) (size 15 to 20)
#    0.545    0.909    3.636    2.182    0.000    2.182 
#    0.000    1.818    0.000    3.818    0.000    0.000 
#    0.000    0.000    0.000    0.000    0.000    0.000 
#
# Total GULP energy -122575.354235 kJ/mol
# GULP energy per Si atom -5571.607011 kJ/mol
# Density = 2.013405 g / cm^3
# Si number density = 20.179983 Si / 1000 Ang^3
#
#
#
# Elastic Constant Matrix: (Units=GPa)
#
#
# Indices 1 2 3 4 5 6 
#
# 1 93.5193 15.6132 18.7641 0.0000 0.0000 0.0000
# 2 15.6132 89.7892 22.6908 0.0000 0.0000 0.0000
# 3 18.7641 22.6908 56.3279 0.0000 0.0000 0.0000
# 4 0.0000 0.0000 0.0000 18.9611 0.0000 0.0000
# 5 0.0000 0.0000 0.0000 0.0000 18.9886 0.0000
# 6 0.0000 0.0000 0.0000 0.0000 0.0000 16.3792
#
#
#
# Elastic Compliance Matrix: (Units=1/GPa)
#
#
# Indices 1 2 3 4 5 6 
#
# 1 0.011565 -0.001155 -0.003387 0.000000 0.000000 0.000000
# 2 -0.001155 0.012515 -0.004657 0.000000 0.000000 0.000000
# 3 -0.003387 -0.004657 0.020757 0.000000 0.000000 0.000000
# 4 0.000000 0.000000 0.000000 0.052740 0.000000 0.000000
# 5 0.000000 0.000000 0.000000 0.000000 0.052663 0.000000
# 6 0.000000 0.000000 0.000000 0.000000 0.000000 0.061053
#
#
# Mechanical properties :
#
#
# Convention : Reuss Voigt Hill
#
# Bulk Modulus (GPa) = 37.82208 39.30806 38.56507
# Shear Modulus (GPa) = 20.96392 23.03700 22.00046
#
# Velocity S-wave (km/s) = 3.22661 3.38239 3.30542
# Velocity P-wave (km/s) = 5.71528 5.89704 5.80687
#
# Compressibility (1/GPa) = 0.02643958
#
# Stress axis : x y z
#
# Youngs Moduli (GPa) = 86.46415 79.90521 48.17538
#
# Poissons Ratio (x) = 0.09229 0.16319
# Poissons Ratio (y) = 0.09987 0.22434
# Poissons Ratio (z) = 0.29289 0.37209
#
# Static dielectric constant tensor:
#      x y z
#    x 1.733070 0.000000 0.000000 
#    y 0.000000 1.766140 0.000000 
#    z 0.000000 0.000000 1.743240 
# 
# From -- ./inp_files/18424.got.cif
#   From: 2010.05.17/outbox.cif.g08.bks.cpg/sg22_10_cif.got.tgz:18424.got - 2010.06.03 23:40:54.
