data_PCOD9328585
_publ_section_title
;
Structure prediction by ZEFSAII (Michael W. Deem and Ramdas Pophale) SiO2 
 PCOD9328585
Probable space group: F 2 2 2
;
_chemical_formula_sum "Si O2"
_cell_formula_units_Z 60
_cell_length_a 11.202082
_cell_length_b 19.373395
_cell_length_c 11.177274
_cell_angle_alpha 90.000000
_cell_angle_beta 90.000000
_cell_angle_gamma 90.000000
_cell_volume 2425.718375
_symmetry_space_group_name_H-M "F 2 2 2"
_symmetry_group_IT_number 22
_symmetry_cell_setting 'orthorhombic'
loop_
_space_group_symop_operation_xyz
x,y,z
-x,-y,z
x,-y,-z
-x,y,-z
x,1/2+y,1/2+z
-x,1/2-y,1/2+z
x,1/2-y,1/2-z
-x,1/2+y,1/2-z
1/2+x,y,1/2+z
1/2-x,-y,1/2+z
1/2+x,-y,1/2-z
1/2-x,y,1/2-z
1/2+x,1/2+y,z
1/2-x,1/2-y,z
1/2+x,1/2-y,-z
1/2-x,1/2+y,-z
loop_
_atom_site_type_symbol
_atom_site_label
_atom_site_fract_x
_atom_site_fract_y
_atom_site_fract_z
Si Si1 0.500000 0.500000 0.500000
Si Si2 0.040226 0.750000 0.250000
Si Si3 0.166006 0.431850 0.570171
Si Si4 0.580293 0.400201 0.321669
Si Si5 0.178830 0.684233 0.626089
O O1 0.476263 0.438340 0.397025
O O2 0.097548 0.683700 0.182177
O O3 0.950740 0.711865 0.339714
O O4 0.138110 0.500000 0.500000
O O5 0.301807 0.433536 0.619451
O O6 0.081618 0.420960 0.683373
O O7 0.166915 0.371839 0.473884
O O8 0.250000 0.664169 0.750000
O O9 0.250000 0.750000 0.578011
#
# Coordination Sequence:
#
# PCOD9328585 Si02
#       5
#     4   8  16  16  16
#     4  12  28  48  70 108 148 192 240 310 368 432
#     4  10  25  47  70 112 134 186 242 301 359 422
#     4  11  26  46  71 103 144 190 236 291 362 441
#     4  11  28  44  74 104 143 189 243 300 362 427
#     4   9  23  44  75 100 144 189 231 291 369 431
#
# _framework density 24.734940999999999
#
# number of rings (size 3 to 8) (size 9 to 14) (size 15 to 20)
#    0.000    1.867    1.333    0.000   18.667    2.133 
#    0.000    0.000    0.000    0.000    0.000    0.000 
#    0.000    0.000    0.000    0.000    0.000    0.000 
#
# Total GULP energy -83653.021689 kJ/mol
# GULP energy per Si atom -5576.868113 kJ/mol
# Density = 2.467864 g / cm^3
# Si number density = 24.734941 Si / 1000 Ang^3
#
#
#
# Elastic Constant Matrix: (Units=GPa)
#
#
# Indices 1 2 3 4 5 6 
#
# 1 44.9013 24.2026 19.5671 0.0000 0.0000 0.0000
# 2 24.2026 165.7387 133.8443 0.0000 0.0000 0.0000
# 3 19.5671 133.8443 205.8642 0.0000 0.0000 0.0000
# 4 0.0000 0.0000 0.0000 71.4965 0.0000 0.0000
# 5 0.0000 0.0000 0.0000 0.0000 37.7052 0.0000
# 6 0.0000 0.0000 0.0000 0.0000 0.0000-1538.7126
#
#
#
# Elastic Compliance Matrix: (Units=1/GPa)
#
#
# Indices 1 2 3 4 5 6 
#
# 1 0.024174 -0.003526 -0.000005 0.000000 0.000000 0.000000
# 2 -0.003526 0.013218 -0.008258 0.000000 0.000000 0.000000
# 3 -0.000005 -0.008258 0.010227 0.000000 0.000000 0.000000
# 4 0.000000 0.000000 0.000000 0.013987 0.000000 0.000000
# 5 0.000000 0.000000 0.000000 0.000000 0.026522 0.000000
# 6 0.000000 0.000000 0.000000 0.000000 0.000000 -0.000650
#
#
# Mechanical properties :
#
#
# Convention : Reuss Voigt Hill
#
# Bulk Modulus (GPa) = 41.59781 85.74803 63.67292
# Shear Modulus (GPa) = 41.99226 -269.97616 -113.99195
#
# Velocity S-wave (km/s) = 4.12477 -10.45871 -6.79599
# Velocity P-wave (km/s) = 6.28800 10.54060 5.98186
#
# Compressibility (1/GPa) = 0.02403973
#
# Stress axis : x y z
#
# Youngs Moduli (GPa) = 41.36707 75.65641 97.77667
#
# Poissons Ratio (x) = 0.26674 0.00053
# Poissons Ratio (y) = 0.14585 0.80748
# Poissons Ratio (z) = 0.00023 0.62480
#
# Static dielectric constant tensor:
#      x y z
#    x 2.157870 0.000000 0.000000 
#    y 0.000000 2.047350 0.000000 
#    z 0.000000 0.000000 11.613430 
# 
# From -- ./inp_files/17790.got.cif
#   From: 2010.05.17/outbox.cif.g08.bks.cpg/sg22_9_cif.got.tgz:17790.got - 2010.06.03 23:40:54.
