data_PCOD9328205
_publ_section_title
;
Structure prediction by ZEFSAII (Michael W. Deem and Ramdas Pophale) SiO2 
 PCOD9328205
Probable space group: F 2 2 2
;
_chemical_formula_sum "Si O2"
_cell_formula_units_Z 88
_cell_length_a 15.752505
_cell_length_b 10.431383
_cell_length_c 21.709001
_cell_angle_alpha 90.000000
_cell_angle_beta 90.000000
_cell_angle_gamma 90.000000
_cell_volume 3567.232007
_symmetry_space_group_name_H-M "F 2 2 2"
_symmetry_group_IT_number 22
_symmetry_cell_setting 'orthorhombic'
loop_
_space_group_symop_operation_xyz
x,y,z
-x,-y,z
x,-y,-z
-x,y,-z
x,1/2+y,1/2+z
-x,1/2-y,1/2+z
x,1/2-y,1/2-z
-x,1/2+y,1/2-z
1/2+x,y,1/2+z
1/2-x,-y,1/2+z
1/2+x,-y,1/2-z
1/2-x,y,1/2-z
1/2+x,1/2+y,z
1/2-x,1/2-y,z
1/2+x,1/2-y,-z
1/2-x,1/2+y,-z
loop_
_atom_site_type_symbol
_atom_site_label
_atom_site_fract_x
_atom_site_fract_y
_atom_site_fract_z
Si Si1 0.174451 0.422219 0.205588
Si Si2 0.941434 0.757799 0.630387
Si Si3 0.290226 0.427985 0.876710
Si Si4 0.128952 0.205253 0.105743
Si Si5 0.163837 0.856581 0.480636
Si Si6 0.500000 0.000000 0.786977
O O1 0.250000 0.387432 0.250000
O O2 0.211031 0.546033 0.168790
O O3 0.155435 0.310145 0.157084
O O4 0.087606 0.451769 0.242560
O O5 0.863621 0.664469 0.649689
O O6 0.907423 0.813468 0.566768
O O7 0.028597 0.685199 0.615095
O O8 0.968308 0.876844 0.673661
O O9 0.326660 0.568916 0.888220
O O10 0.251201 0.375350 0.940825
O O11 0.155707 0.269069 0.041015
O O12 0.142792 0.000000 0.500000
#
# Coordination Sequence:
#
# PCOD9328205 Si02
#       6
#    16  16  16  16  16   8
#     4  11  25  48  80 106 150 200 256 319 388 453
#     4  11  24  45  73 107 150 193 245 312 385 454
#     4  12  26  43  75 108 150 197 254 312 381 464
#     4  11  26  45  69 111 151 196 253 313 382 463
#     4  12  24  41  71 104 144 200 243 302 380 451
#     4  10  22  50  75 114 148 189 256 318 376 470
#
# _framework density 24.668987999999999
#
# number of rings (size 3 to 8) (size 9 to 14) (size 15 to 20)
#    0.000    0.727    3.636    3.273    5.091    2.182 
#    3.273    3.636    0.000    0.000    4.727    0.000 
#    0.000    0.000    0.000    0.000    0.000    0.000 
#
# Total GULP energy -123183.013563 kJ/mol
# GULP energy per Si atom -5599.227889 kJ/mol
# Density = 2.461284 g / cm^3
# Si number density = 24.668988 Si / 1000 Ang^3
#
#
#
# Elastic Constant Matrix: (Units=GPa)
#
#
# Indices 1 2 3 4 5 6 
#
# 1 211.9108 52.4984 36.0511 0.0000 0.0000 0.0000
# 2 52.4984 139.8442 23.2089 0.0000 0.0000 0.0000
# 3 36.0511 23.2089 77.9910 0.0000 0.0000 0.0000
# 4 0.0000 0.0000 0.0000 13.7029 0.0000 0.0000
# 5 0.0000 0.0000 0.0000 0.0000 24.9399 0.0000
# 6 0.0000 0.0000 0.0000 0.0000 0.0000 47.0186
#
#
#
# Elastic Compliance Matrix: (Units=1/GPa)
#
#
# Indices 1 2 3 4 5 6 
#
# 1 0.005491 -0.001725 -0.002025 0.000000 0.000000 0.000000
# 2 -0.001725 0.008064 -0.001602 0.000000 0.000000 0.000000
# 3 -0.002025 -0.001602 0.014235 0.000000 0.000000 0.000000
# 4 0.000000 0.000000 0.000000 0.072977 0.000000 0.000000
# 5 0.000000 0.000000 0.000000 0.000000 0.040096 0.000000
# 6 0.000000 0.000000 0.000000 0.000000 0.000000 0.021268
#
#
# Mechanical properties :
#
#
# Convention : Reuss Voigt Hill
#
# Bulk Modulus (GPa) = 58.52968 72.58476 65.55722
# Shear Modulus (GPa) = 28.00626 38.33146 33.16886
#
# Velocity S-wave (km/s) = 3.37305 3.94614 3.67080
# Velocity P-wave (km/s) = 6.24079 7.08873 6.67823
#
# Compressibility (1/GPa) = 0.01708535
#
# Stress axis : x y z
#
# Youngs Moduli (GPa) = 182.12183 124.00148 70.25065
#
# Poissons Ratio (x) = 0.21394 0.14224
# Poissons Ratio (y) = 0.31421 0.11257
# Poissons Ratio (z) = 0.36874 0.19869
#
# Static dielectric constant tensor:
#      x y z
#    x 2.002870 0.000000 0.000000 
#    y 0.000000 2.015790 0.000000 
#    z 0.000000 0.000000 1.971330 
# 
# From -- ./inp_files/48806.got.cif
#   From: 2010.05.17/outbox.cif.g08.bks.cpg/sg22_25_cif.got.tgz:48806.got - 2010.06.03 23:40:54.
