data_PCOD9328372
_publ_section_title
;
Structure prediction by ZEFSAII (Michael W. Deem and Ramdas Pophale) SiO2 
 PCOD9328372
Probable space group: F 2 2 2
;
_chemical_formula_sum "Si O2"
_cell_formula_units_Z 52
_cell_length_a 26.384097
_cell_length_b 5.016567
_cell_length_c 18.545376
_cell_angle_alpha 90.000000
_cell_angle_beta 90.000000
_cell_angle_gamma 90.000000
_cell_volume 2454.621279
_symmetry_space_group_name_H-M "F 2 2 2"
_symmetry_group_IT_number 22
_symmetry_cell_setting 'orthorhombic'
loop_
_space_group_symop_operation_xyz
x,y,z
-x,-y,z
x,-y,-z
-x,y,-z
x,1/2+y,1/2+z
-x,1/2-y,1/2+z
x,1/2-y,1/2-z
-x,1/2+y,1/2-z
1/2+x,y,1/2+z
1/2-x,-y,1/2+z
1/2+x,-y,1/2-z
1/2-x,y,1/2-z
1/2+x,1/2+y,z
1/2-x,1/2-y,z
1/2+x,1/2-y,-z
1/2-x,1/2+y,-z
loop_
_atom_site_type_symbol
_atom_site_label
_atom_site_fract_x
_atom_site_fract_y
_atom_site_fract_z
Si Si1 0.500000 0.000000 0.699248
Si Si2 0.750000 0.250000 0.750000
Si Si3 0.163172 0.323053 0.148585
Si Si4 0.601715 0.301802 0.129093
Si Si5 0.359140 0.500000 0.500000
O O1 0.513257 0.250000 0.750000
O O2 0.452625 0.091074 0.650867
O O3 0.788945 0.394234 0.803307
O O4 0.117423 0.525127 0.167467
O O5 0.142976 0.022869 0.151820
O O6 0.173143 0.373711 0.064050
O O7 0.607808 0.216008 0.044812
#
# Coordination Sequence:
#
# PCOD9328372 Si02
#       5
#     8   4  16  16   8
#     4  12  26  42  73 109 144 198 242 302 380 443
#     4  12  28  46  76 110 144 200 236 314 368 460
#     4  10  24  44  72 102 145 184 248 299 367 426
#     4  10  23  45  72 100 142 191 239 301 358 435
#     4   8  22  48  71  98 146 188 234 315 350 432
#
# _framework density 21.184529000000001
#
# number of rings (size 3 to 8) (size 9 to 14) (size 15 to 20)
#    1.846    0.000    0.000    2.769    6.462    2.462 
#    5.538    4.615    0.000    0.000    0.000    0.000 
#    0.000    0.000    0.000    0.000    0.000    0.000 
#
# Total GULP energy -72395.445736 kJ/mol
# GULP energy per Si atom -5568.880441 kJ/mol
# Density = 2.113631 g / cm^3
# Si number density = 21.184529 Si / 1000 Ang^3
#
#
#
# Elastic Constant Matrix: (Units=GPa)
#
#
# Indices 1 2 3 4 5 6 
#
# 1 118.5035 28.9855 75.0666 0.0001 -0.0014 -0.0011
# 2 28.9855 121.0575 37.9518 0.0035 -0.0017 -0.0006
# 3 75.0666 37.9518 154.9547 0.0006 -0.0003 -0.0011
# 4 0.0001 0.0035 0.0006 13.2368 0.0002 -0.0009
# 5 -0.0014 -0.0017 -0.0003 0.0002 -9.5753 0.0035
# 6 -0.0011 -0.0006 -0.0011 -0.0009 0.0035 -0.7307
#
#
#
# Elastic Compliance Matrix: (Units=1/GPa)
#
#
# Indices 1 2 3 4 5 6 
#
# 1 0.012325 -0.001169 -0.005685 0.000000 -0.000001 -0.000009
# 2 -0.001169 0.009058 -0.001652 -0.000002 -0.000001 -0.000003
# 3 -0.005685 -0.001652 0.009612 0.000000 0.000001 -0.000005
# 4 0.000000 -0.000002 0.000000 0.075547 0.000002 -0.000091
# 5 -0.000001 -0.000001 0.000001 0.000002 -0.104435 -0.000498
# 6 -0.000009 -0.000003 -0.000005 -0.000091 -0.000498 -1.368557
#
#
# Mechanical properties :
#
#
# Convention : Reuss Voigt Hill
#
# Bulk Modulus (GPa) = 71.50998 75.39148 73.45073
# Shear Modulus (GPa) = -3.71809 17.42026 6.85108
#
# Velocity S-wave (km/s) = -1.32624 2.87071 1.80028
# Velocity P-wave (km/s) = 5.61105 6.83031 6.25048
#
# Compressibility (1/GPa) = 0.01398406
#
# Stress axis : x y z
#
# Youngs Moduli (GPa) = 81.13271 110.39431 104.03580
#
# Poissons Ratio (x) = 0.12905 0.59141
# Poissons Ratio (y) = 0.09484 0.17190
# Poissons Ratio (z) = 0.46121 0.18240
#
# Static dielectric constant tensor:
#      x y z
#    x 1.725380 0.000000 0.000000 
#    y 0.000000 1.793020 0.000000 
#    z 0.000000 0.000000 1.810240 
# 
# From -- ./inp_files/32812.got.cif
#   From: 2010.05.17/outbox.cif.g08.bks.cpg/sg22_17_cif.got.tgz:32812.got - 2010.06.03 23:40:54.
