data_PCOD9328744
_publ_section_title
;
Structure prediction by ZEFSAII (Michael W. Deem and Ramdas Pophale) SiO2 
 PCOD9328744
Probable space group: F 2 2 2
;
_chemical_formula_sum "Si O2"
_cell_formula_units_Z 120
_cell_length_a 12.015339
_cell_length_b 26.325510
_cell_length_c 20.676791
_cell_angle_alpha 90.000000
_cell_angle_beta 90.000000
_cell_angle_gamma 90.000000
_cell_volume 6540.274252
_symmetry_space_group_name_H-M "F 2 2 2"
_symmetry_group_IT_number 22
_symmetry_cell_setting 'orthorhombic'
loop_
_space_group_symop_operation_xyz
x,y,z
-x,-y,z
x,-y,-z
-x,y,-z
x,1/2+y,1/2+z
-x,1/2-y,1/2+z
x,1/2-y,1/2-z
-x,1/2+y,1/2-z
1/2+x,y,1/2+z
1/2-x,-y,1/2+z
1/2+x,-y,1/2-z
1/2-x,y,1/2-z
1/2+x,1/2+y,z
1/2-x,1/2-y,z
1/2+x,1/2-y,-z
1/2-x,1/2+y,-z
loop_
_atom_site_type_symbol
_atom_site_label
_atom_site_fract_x
_atom_site_fract_y
_atom_site_fract_z
Si Si1 0.100735 0.358640 0.638765
Si Si2 0.303757 0.963620 0.936835
Si Si3 0.648378 0.531051 0.287888
Si Si4 0.853474 0.143364 0.388646
Si Si5 0.614727 0.751526 0.823956
Si Si6 0.584014 0.920471 0.767344
Si Si7 0.500000 0.899388 0.000000
Si Si8 0.955594 0.445070 0.573060
O O1 0.220002 0.357417 0.602625
O O2 0.068827 0.299400 0.642869
O O3 0.115574 0.380697 0.711580
O O4 0.013705 0.397897 0.608450
O O5 0.332426 0.981467 0.863680
O O6 0.178425 0.941735 0.928014
O O7 0.412273 0.931178 0.956891
O O8 0.292091 0.000000 0.000000
O O9 0.750000 0.555280 0.250000
O O10 0.628246 0.476873 0.253364
O O11 0.545944 0.568692 0.277696
O O12 0.902999 0.195455 0.359528
O O13 0.872118 0.100617 0.334724
O O14 0.920428 0.131477 0.452741
O O15 0.575640 0.750000 0.750000
O O16 0.750000 0.750000 0.822228
O O17 0.000000 0.500000 0.599858
O O18 0.000000 0.443748 0.500000
#
# Coordination Sequence:
#
# PCOD9328744 Si02
#       8
#    16  16  16  16  16  16   8  16
#     4  11  22  38  66  90 122 163 203 266 326 376
#     4  12  24  41  61  86 128 175 218 253 309 389
#     4  11  24  37  53  87 129 167 206 257 315 382
#     4  11  21  39  62  93 123 162 212 265 321 377
#     4   9  18  36  62  93 121 153 205 269 327 379
#     4  11  22  35  56  91 121 156 207 256 316 373
#     4  12  25  40  64  90 128 170 215 262 314 382
#     4  11  24  41  58  87 121 163 212 253 303 376
#
# _framework density 18.347854000000002
#
# number of rings (size 3 to 8) (size 9 to 14) (size 15 to 20)
#    0.000    1.067    4.000    3.800    7.467    0.000 
#    1.200    0.000    0.000    0.000    0.000    1.867 
#    0.000    0.000    0.000    0.000    0.000    0.000 
#
# Total GULP energy -167268.703762 kJ/mol
# GULP energy per Si atom -5575.623459 kJ/mol
# Density = 1.830609 g / cm^3
# Si number density = 18.347854 Si / 1000 Ang^3
#
#
#
# Elastic Constant Matrix: (Units=GPa)
#
#
# Indices 1 2 3 4 5 6 
#
# 1 108.4653 29.9630 21.6777 0.0000 0.0000 0.0000
# 2 29.9630 91.4679 16.9991 0.0000 0.0000 0.0000
# 3 21.6777 16.9991 78.6457 0.0000 0.0000 0.0000
# 4 0.0000 0.0000 0.0000 19.9837 0.0000 0.0000
# 5 0.0000 0.0000 0.0000 0.0000 25.5794 0.0000
# 6 0.0000 0.0000 0.0000 0.0000 0.0000 20.4691
#
#
#
# Elastic Compliance Matrix: (Units=1/GPa)
#
#
# Indices 1 2 3 4 5 6 
#
# 1 0.010503 -0.003024 -0.002241 0.000000 0.000000 0.000000
# 2 -0.003024 0.012261 -0.001817 0.000000 0.000000 0.000000
# 3 -0.002241 -0.001817 0.013726 0.000000 0.000000 0.000000
# 4 0.000000 0.000000 0.000000 0.050041 0.000000 0.000000
# 5 0.000000 0.000000 0.000000 0.000000 0.039094 0.000000
# 6 0.000000 0.000000 0.000000 0.000000 0.000000 0.048854
#
#
# Mechanical properties :
#
#
# Convention : Reuss Voigt Hill
#
# Bulk Modulus (GPa) = 44.79162 46.20648 45.49905
# Shear Modulus (GPa) = 25.49922 27.20237 26.35079
#
# Velocity S-wave (km/s) = 3.73200 3.85462 3.79381
# Velocity P-wave (km/s) = 6.56017 6.71186 6.63645
#
# Compressibility (1/GPa) = 0.02232560
#
# Stress axis : x y z
#
# Youngs Moduli (GPa) = 95.21227 81.55938 72.85586
#
# Poissons Ratio (x) = 0.24663 0.16330
# Poissons Ratio (y) = 0.28792 0.13236
# Poissons Ratio (z) = 0.21340 0.14817
#
# Static dielectric constant tensor:
#      x y z
#    x 1.718490 0.000000 0.000000 
#    y 0.000000 1.635120 0.000000 
#    z 0.000000 0.000000 1.650650 
# 
# From -- ./inp_files/42948.got.cif
#   From: 2010.05.17/outbox.cif.g08.bks.cpg/sg22_22_cif.got.tgz:42948.got - 2010.06.03 23:40:54.
