data_PCOD9328214
_publ_section_title
;
Structure prediction by ZEFSAII (Michael W. Deem and Ramdas Pophale) SiO2 
 PCOD9328214
Probable space group: F 2 2 2
;
_chemical_formula_sum "Si O2"
_cell_formula_units_Z 72
_cell_length_a 6.854149
_cell_length_b 22.919932
_cell_length_c 19.518045
_cell_angle_alpha 90.000000
_cell_angle_beta 90.000000
_cell_angle_gamma 90.000000
_cell_volume 3066.219074
_symmetry_space_group_name_H-M "F 2 2 2"
_symmetry_group_IT_number 22
_symmetry_cell_setting 'orthorhombic'
loop_
_space_group_symop_operation_xyz
x,y,z
-x,-y,z
x,-y,-z
-x,y,-z
x,1/2+y,1/2+z
-x,1/2-y,1/2+z
x,1/2-y,1/2-z
-x,1/2+y,1/2-z
1/2+x,y,1/2+z
1/2-x,-y,1/2+z
1/2+x,-y,1/2-z
1/2-x,y,1/2-z
1/2+x,1/2+y,z
1/2-x,1/2-y,z
1/2+x,1/2-y,-z
1/2-x,1/2+y,-z
loop_
_atom_site_type_symbol
_atom_site_label
_atom_site_fract_x
_atom_site_fract_y
_atom_site_fract_z
Si Si1 0.483847 0.762039 0.828561
Si Si2 0.500000 0.000000 0.163024
Si Si3 0.704662 0.055171 0.040190
Si Si4 0.174532 0.623025 0.824045
Si Si5 0.981283 0.661310 0.574337
O O1 0.532688 0.750000 0.750000
O O2 0.250000 0.750000 0.839549
O O3 0.495041 0.831001 0.844363
O O4 0.580965 0.712200 0.874043
O O5 0.340869 0.970924 0.114090
O O6 0.598685 0.942016 0.192871
O O7 0.834785 0.110599 0.052088
O O8 0.500000 0.068565 0.000000
O O9 0.790024 0.000000 0.000000
O O10 0.250000 0.645050 0.750000
O O11 0.337515 0.629186 0.884449
O O12 0.000000 0.692247 0.500000
#
# Coordination Sequence:
#
# PCOD9328214 Si02
#       5
#    16   8  16  16  16
#     4   9  17  40  67  95 138 190 237 300 372 433
#     4  10  23  38  60  94 135 194 238 298 372 452
#     4   9  20  41  62  98 156 187 225 318 395 434
#     4  11  22  42  68  99 144 197 245 314 379 454
#     4  11  21  37  73 109 127 190 259 298 366 464
#
# _framework density 23.481688999999999
#
# number of rings (size 3 to 8) (size 9 to 14) (size 15 to 20)
#    0.000    2.222    4.444    2.667    0.000    4.889 
#    0.000   12.222    0.000    1.333    0.000    4.667 
#    0.000    0.000    0.000    0.000    0.000    0.000 
#
# Total GULP energy -100300.373555 kJ/mol
# GULP energy per Si atom -5572.242975 kJ/mol
# Density = 2.342824 g / cm^3
# Si number density = 23.481689 Si / 1000 Ang^3
#
#
#
# Elastic Constant Matrix: (Units=GPa)
#
#
# Indices 1 2 3 4 5 6 
#
# 1 93.8164 62.5033 30.9383 0.0000 0.0000 0.0000
# 2 62.5033 200.2874 57.4576 0.0000 0.0000 0.0000
# 3 30.9383 57.4576 128.4376 0.0000 0.0000 0.0000
# 4 0.0000 0.0000 0.0000 67.1982 0.0000 0.0000
# 5 0.0000 0.0000 0.0000 0.0000 -19.0202 0.0000
# 6 0.0000 0.0000 0.0000 0.0000 0.0000 40.3410
#
#
#
# Elastic Compliance Matrix: (Units=1/GPa)
#
#
# Indices 1 2 3 4 5 6 
#
# 1 0.013736 -0.003829 -0.001596 0.000000 0.000000 0.000000
# 2 -0.003829 0.006795 -0.002118 0.000000 0.000000 0.000000
# 3 -0.001596 -0.002118 0.009118 0.000000 0.000000 0.000000
# 4 0.000000 0.000000 0.000000 0.014881 0.000000 0.000000
# 5 0.000000 0.000000 0.000000 0.000000 -0.052576 0.000000
# 6 0.000000 0.000000 0.000000 0.000000 0.000000 0.024789
#
#
# Mechanical properties :
#
#
# Convention : Reuss Voigt Hill
#
# Bulk Modulus (GPa) = 68.66074 80.48218 74.57146
# Shear Modulus (GPa) = 136.30333 35.81329 86.05831
#
# Velocity S-wave (km/s) = 7.62710 3.90956 6.06042
# Velocity P-wave (km/s) = 10.33766 7.39787 8.98876
#
# Compressibility (1/GPa) = 0.01456436
#
# Stress axis : x y z
#
# Youngs Moduli (GPa) = 72.79984 147.16367 109.67751
#
# Poissons Ratio (x) = 0.56346 0.17504
# Poissons Ratio (y) = 0.27874 0.23225
# Poissons Ratio (z) = 0.11619 0.31163
#
# Static dielectric constant tensor:
#      x y z
#    x 1.940070 0.000000 0.000000 
#    y 0.000000 2.050880 0.000000 
#    z 0.000000 0.000000 1.889990 
# 
# From -- ./inp_files/34988.got.cif
#   From: 2010.05.17/outbox.cif.g08.bks.cpg/sg22_18_cif.got.tgz:34988.got - 2010.06.03 23:40:54.
