data_PCOD9328588
_publ_section_title
;
Structure prediction by ZEFSAII (Michael W. Deem and Ramdas Pophale) SiO2 
 PCOD9328588
Probable space group: F 2 2 2
;
_chemical_formula_sum "Si O2"
_cell_formula_units_Z 108
_cell_length_a 15.701948
_cell_length_b 23.399409
_cell_length_c 13.657089
_cell_angle_alpha 90.000000
_cell_angle_beta 90.000000
_cell_angle_gamma 90.000000
_cell_volume 5017.837155
_symmetry_space_group_name_H-M "F 2 2 2"
_symmetry_group_IT_number 22
_symmetry_cell_setting 'orthorhombic'
loop_
_space_group_symop_operation_xyz
x,y,z
-x,-y,z
x,-y,-z
-x,y,-z
x,1/2+y,1/2+z
-x,1/2-y,1/2+z
x,1/2-y,1/2-z
-x,1/2+y,1/2-z
1/2+x,y,1/2+z
1/2-x,-y,1/2+z
1/2+x,-y,1/2-z
1/2-x,y,1/2-z
1/2+x,1/2+y,z
1/2-x,1/2-y,z
1/2+x,1/2-y,-z
1/2-x,1/2+y,-z
loop_
_atom_site_type_symbol
_atom_site_label
_atom_site_fract_x
_atom_site_fract_y
_atom_site_fract_z
Si Si1 0.266581 0.621414 0.049874
Si Si2 0.654364 0.013520 0.784352
Si Si3 0.904232 0.329980 0.973394
Si Si4 0.500000 0.500000 0.000000
Si Si5 0.836159 0.784274 0.095399
Si Si6 0.086950 0.134814 0.249106
Si Si7 0.700779 0.500000 0.500000
Si Si8 0.419817 0.416196 0.835610
O O1 0.169133 0.645673 0.046099
O O2 0.313255 0.662054 0.972631
O O3 0.256492 0.556018 0.017751
O O4 0.331842 0.617048 0.140463
O O5 0.750000 0.999975 0.750000
O O6 0.631286 0.073352 0.733785
O O7 0.649498 0.013668 0.901525
O O8 0.595832 0.963057 0.747110
O O9 0.892971 0.261658 0.962398
O O10 0.895675 0.353573 0.863150
O O11 0.000000 0.345163 0.000000
O O12 0.449374 0.544704 0.071089
O O13 0.750000 0.750000 0.117343
O O14 0.875154 0.811999 0.191100
O O15 0.992522 0.125389 0.205858
#
# Coordination Sequence:
#
# PCOD9328588 Si02
#       8
#    16  16  16   4  16  16   8  16
#     4  11  24  45  72 103 141 193 234 300 370 446
#     4  12  25  42  68 105 153 192 243 287 376 454
#     4  11  27  47  70 101 141 191 254 300 362 442
#     4  12  22  40  64 104 150 184 232 298 364 452
#     4  10  25  47  75 103 135 182 250 308 373 427
#     4  12  25  43  70 108 142 187 239 318 362 438
#     4  12  23  44  73 106 144 202 238 293 364 463
#     4  12  26  42  69 108 153 191 243 302 379 459
#
# _framework density 21.523216000000001
#
# number of rings (size 3 to 8) (size 9 to 14) (size 15 to 20)
#    0.000    0.593    4.444    2.667    6.222    1.778 
#    0.000    1.111    0.000    0.000    0.000    0.000 
#    0.000    0.000    0.000    0.000    0.000    0.000 
#
# Total GULP energy -150820.550854 kJ/mol
# GULP energy per Si atom -5585.946328 kJ/mol
# Density = 2.147423 g / cm^3
# Si number density = 21.523216 Si / 1000 Ang^3
#
#
#
# Elastic Constant Matrix: (Units=GPa)
#
#
# Indices 1 2 3 4 5 6 
#
# 1 71.2377 13.5053 24.9524 0.0000 0.0000 0.0000
# 2 13.5053 116.9087 9.5662 0.0000 0.0000 0.0000
# 3 24.9524 9.5662 40.7544 0.0000 0.0000 0.0000
# 4 0.0000 0.0000 0.0000 26.4935 0.0000 0.0000
# 5 0.0000 0.0000 0.0000 0.0000 39.0807 0.0000
# 6 0.0000 0.0000 0.0000 0.0000 0.0000 4.9658
#
#
#
# Elastic Compliance Matrix: (Units=1/GPa)
#
#
# Indices 1 2 3 4 5 6 
#
# 1 0.018034 -0.001203 -0.010759 0.000000 0.000000 0.000000
# 2 -0.001203 0.008801 -0.001329 0.000000 0.000000 0.000000
# 3 -0.010759 -0.001329 0.031437 0.000000 0.000000 0.000000
# 4 0.000000 0.000000 0.000000 0.037745 0.000000 0.000000
# 5 0.000000 0.000000 0.000000 0.000000 0.025588 0.000000
# 6 0.000000 0.000000 0.000000 0.000000 0.000000 0.201378
#
#
# Mechanical properties :
#
#
# Convention : Reuss Voigt Hill
#
# Bulk Modulus (GPa) = 31.55657 36.10539 33.83098
# Shear Modulus (GPa) = 13.88387 26.16646 20.02517
#
# Velocity S-wave (km/s) = 2.54257 3.49052 3.05355
# Velocity P-wave (km/s) = 4.82835 5.74947 5.30893
#
# Compressibility (1/GPa) = 0.03168912
#
# Stress axis : x y z
#
# Youngs Moduli (GPa) = 55.45013 113.61794 31.80983
#
# Poissons Ratio (x) = 0.13667 0.34225
# Poissons Ratio (y) = 0.06670 0.04229
# Poissons Ratio (z) = 0.59661 0.15105
#
# Static dielectric constant tensor:
#      x y z
#    x 1.835340 0.000000 0.000000 
#    y 0.000000 1.753470 0.000000 
#    z 0.000000 0.000000 1.773480 
# 
# From -- ./inp_files/29661.got.cif
#   From: 2010.05.17/outbox.cif.g08.bks.cpg/sg22_15_cif.got.tgz:29661.got - 2010.06.03 23:40:54.
