data_PCOD9328419
_publ_section_title
;
Structure prediction by ZEFSAII (Michael W. Deem and Ramdas Pophale) SiO2 
 PCOD9328419
Probable space group: F 2 2 2
;
_chemical_formula_sum "Si O2"
_cell_formula_units_Z 112
_cell_length_a 15.292528
_cell_length_b 14.058841
_cell_length_c 26.808689
_cell_angle_alpha 90.000000
_cell_angle_beta 90.000000
_cell_angle_gamma 90.000000
_cell_volume 5763.739980
_symmetry_space_group_name_H-M "F 2 2 2"
_symmetry_group_IT_number 22
_symmetry_cell_setting 'orthorhombic'
loop_
_space_group_symop_operation_xyz
x,y,z
-x,-y,z
x,-y,-z
-x,y,-z
x,1/2+y,1/2+z
-x,1/2-y,1/2+z
x,1/2-y,1/2-z
-x,1/2+y,1/2-z
1/2+x,y,1/2+z
1/2-x,-y,1/2+z
1/2+x,-y,1/2-z
1/2-x,y,1/2-z
1/2+x,1/2+y,z
1/2-x,1/2-y,z
1/2+x,1/2-y,-z
1/2-x,1/2+y,-z
loop_
_atom_site_type_symbol
_atom_site_label
_atom_site_fract_x
_atom_site_fract_y
_atom_site_fract_z
Si Si1 0.767120 0.448903 0.148359
Si Si2 0.486286 0.341782 0.055029
Si Si3 0.054027 0.408924 0.818680
Si Si4 0.648221 0.489124 0.055041
Si Si5 0.634946 0.648244 0.777935
Si Si6 0.528033 0.713338 0.163791
Si Si7 0.281466 0.149475 0.307468
O O1 0.862895 0.402660 0.144668
O O2 0.715437 0.455837 0.096681
O O3 0.716170 0.388174 0.190529
O O4 0.762095 0.557902 0.167486
O O5 0.569279 0.412949 0.056558
O O6 0.401272 0.409877 0.061384
O O7 0.479387 0.278229 0.104103
O O8 0.500000 0.296765 0.000000
O O9 0.101360 0.421681 0.765156
O O10 0.000000 0.500000 0.832543
O O11 0.989490 0.318930 0.814898
O O12 0.688158 0.500000 0.000000
O O13 0.647599 0.750000 0.750000
O O14 0.556173 0.656886 0.816902
O O15 0.613949 0.659093 0.183880
O O16 0.250000 0.147317 0.250000
O O17 0.250000 0.250000 0.329631
#
# Coordination Sequence:
#
# PCOD9328419 Si02
#       7
#    16  16  16  16  16  16  16
#     4  12  22  40  65  88 127 166 203 264 324 381
#     4   9  17  35  63  96 122 149 202 269 326 376
#     4  11  26  39  57  84 127 170 209 249 308 382
#     4   9  18  34  63  98 123 150 201 269 327 382
#     4  10  24  38  61  91 125 160 204 250 314 387
#     4  11  22  39  62  89 126 164 202 267 319 375
#     4  11  25  37  60  89 125 166 220 252 301 376
#
# _framework density 19.431826999999998
#
# number of rings (size 3 to 8) (size 9 to 14) (size 15 to 20)
#    0.000    1.571    2.857    3.000   10.000    4.000 
#    0.000    0.000    6.286    0.000    0.000    0.000 
#    0.000    0.000    0.000    0.000    0.000    0.000 
#
# Total GULP energy -156127.130875 kJ/mol
# GULP energy per Si atom -5575.968960 kJ/mol
# Density = 1.938760 g / cm^3
# Si number density = 19.431827 Si / 1000 Ang^3
#
#
#
# Elastic Constant Matrix: (Units=GPa)
#
#
# Indices 1 2 3 4 5 6 
#
# 1 48.8631 -2.4472 23.4715 0.0000 0.0000 0.0000
# 2 -2.4472 28.5345 -4.7067 0.0000 0.0000 0.0000
# 3 23.4715 -4.7067 114.0435 0.0000 0.0000 0.0000
# 4 0.0000 0.0000 0.0000 14.1238 0.0000 0.0000
# 5 0.0000 0.0000 0.0000 0.0000 20.5358 0.0000
# 6 0.0000 0.0000 0.0000 0.0000 0.0000 26.3639
#
#
#
# Elastic Compliance Matrix: (Units=1/GPa)
#
#
# Indices 1 2 3 4 5 6 
#
# 1 0.022750 0.001187 -0.004633 0.000000 0.000000 0.000000
# 2 0.001187 0.035347 0.001215 0.000000 0.000000 0.000000
# 3 -0.004633 0.001215 0.009772 0.000000 0.000000 0.000000
# 4 0.000000 0.000000 0.000000 0.070803 0.000000 0.000000
# 5 0.000000 0.000000 0.000000 0.000000 0.048695 0.000000
# 6 0.000000 0.000000 0.000000 0.000000 0.000000 0.037931
#
#
# Mechanical properties :
#
#
# Convention : Reuss Voigt Hill
#
# Bulk Modulus (GPa) = 15.77127 24.89737 20.33432
# Shear Modulus (GPa) = 19.92841 23.87960 21.90400
#
# Velocity S-wave (km/s) = 3.20590 3.50936 3.36106
# Velocity P-wave (km/s) = 4.67307 5.40937 5.05464
#
# Compressibility (1/GPa) = 0.06340642
#
# Stress axis : x y z
#
# Youngs Moduli (GPa) = 43.95528 28.29056 102.33012
#
# Poissons Ratio (x) = -0.03358 0.47413
# Poissons Ratio (y) = -0.05217 -0.12428
# Poissons Ratio (z) = 0.20366 -0.03436
#
# Static dielectric constant tensor:
#      x y z
#    x 1.722210 0.000000 0.000000 
#    y 0.000000 1.701630 0.000000 
#    z 0.000000 0.000000 1.708810 
# 
# From -- ./inp_files/53218.got.cif
#   From: 2010.05.17/outbox.cif.g08.bks.cpg/sg22_27_cif.got.tgz:53218.got - 2010.06.03 23:40:54.
