data_PCOD9328948
_publ_section_title
;
Structure prediction by ZEFSAII (Michael W. Deem and Ramdas Pophale) SiO2 
 PCOD9328948
Probable space group: F 2 2 2
;
_chemical_formula_sum "Si O2"
_cell_formula_units_Z 108
_cell_length_a 14.189952
_cell_length_b 14.557205
_cell_length_c 23.578050
_cell_angle_alpha 90.000000
_cell_angle_beta 90.000000
_cell_angle_gamma 90.000000
_cell_volume 4870.424424
_symmetry_space_group_name_H-M "F 2 2 2"
_symmetry_group_IT_number 22
_symmetry_cell_setting 'orthorhombic'
loop_
_space_group_symop_operation_xyz
x,y,z
-x,-y,z
x,-y,-z
-x,y,-z
x,1/2+y,1/2+z
-x,1/2-y,1/2+z
x,1/2-y,1/2-z
-x,1/2+y,1/2-z
1/2+x,y,1/2+z
1/2-x,-y,1/2+z
1/2+x,-y,1/2-z
1/2-x,y,1/2-z
1/2+x,1/2+y,z
1/2-x,1/2-y,z
1/2+x,1/2-y,-z
1/2-x,1/2+y,-z
loop_
_atom_site_type_symbol
_atom_site_label
_atom_site_fract_x
_atom_site_fract_y
_atom_site_fract_z
Si Si1 0.750000 0.250000 0.250000
Si Si2 0.720224 0.355300 0.903963
Si Si3 0.000000 0.315079 0.000000
Si Si4 0.474643 0.719058 0.880686
Si Si5 0.964259 0.899898 0.687935
Si Si6 0.216364 0.644585 0.027058
Si Si7 0.772300 0.467851 0.141467
Si Si8 0.392754 0.384819 0.807929
O O1 0.680444 0.307874 0.211521
O O2 0.750000 0.250000 0.903055
O O3 0.617529 0.344427 0.877100
O O4 0.788730 0.424910 0.871174
O O5 0.727926 0.383332 0.970021
O O6 0.979574 0.255941 0.944312
O O7 0.102380 0.362467 0.986110
O O8 0.488753 0.810476 0.840928
O O9 0.558284 0.651933 0.863758
O O10 0.853941 0.910789 0.672259
O O11 0.965666 0.894912 0.756271
O O12 0.000000 0.000000 0.668375
O O13 0.250000 0.750000 0.038511
O O14 0.238927 0.583013 0.081297
O O15 0.676411 0.467442 0.177714
#
# Coordination Sequence:
#
# PCOD9328948 Si02
#       8
#     4  16   8  16  16  16  16  16
#     4  12  20  48  72 108 132 180 228 312 366 408
#     4  11  25  46  67  98 154 194 235 292 369 449
#     4  12  22  42  75 107 138 192 238 296 367 443
#     4  12  24  46  72 103 142 192 233 300 371 441
#     4  12  26  44  71 104 140 186 252 301 357 434
#     4  11  23  43  70 107 148 187 241 303 373 441
#     4  12  25  43  73 106 140 191 241 312 366 435
#     4  12  25  44  74 103 139 181 247 301 368 429
#
# _framework density 22.174658999999998
#
# number of rings (size 3 to 8) (size 9 to 14) (size 15 to 20)
#    0.000    0.296    7.407    2.222    3.111    0.000 
#    0.000    1.111    0.000    0.000    0.000    0.000 
#    0.000    0.000    0.000    0.000    0.000    0.000 
#
# Total GULP energy -150661.604407 kJ/mol
# GULP energy per Si atom -5580.059422 kJ/mol
# Density = 2.212419 g / cm^3
# Si number density = 22.174659 Si / 1000 Ang^3
#
#
#
# Elastic Constant Matrix: (Units=GPa)
#
#
# Indices 1 2 3 4 5 6 
#
# 1 96.1601 7.7816 13.8229 0.0000 0.0000 0.0000
# 2 7.7816 61.9351 11.6803 0.0000 0.0000 0.0000
# 3 13.8229 11.6803 68.5507 0.0000 0.0000 0.0000
# 4 0.0000 0.0000 0.0000 11.5372 0.0000 0.0000
# 5 0.0000 0.0000 0.0000 0.0000 36.4363 0.0000
# 6 0.0000 0.0000 0.0000 0.0000 0.0000 24.4050
#
#
#
# Elastic Compliance Matrix: (Units=1/GPa)
#
#
# Indices 1 2 3 4 5 6 
#
# 1 0.010766 -0.000975 -0.002005 0.000000 0.000000 0.000000
# 2 -0.000975 0.016770 -0.002661 0.000000 0.000000 0.000000
# 3 -0.002005 -0.002661 0.015445 0.000000 0.000000 0.000000
# 4 0.000000 0.000000 0.000000 0.086676 0.000000 0.000000
# 5 0.000000 0.000000 0.000000 0.000000 0.027445 0.000000
# 6 0.000000 0.000000 0.000000 0.000000 0.000000 0.040975
#
#
# Mechanical properties :
#
#
# Convention : Reuss Voigt Hill
#
# Bulk Modulus (GPa) = 31.54466 32.57951 32.06208
# Shear Modulus (GPa) = 22.73484 27.36644 25.05064
#
# Velocity S-wave (km/s) = 3.20545 3.51683 3.36474
# Velocity P-wave (km/s) = 5.28737 5.58703 5.43926
#
# Compressibility (1/GPa) = 0.03170109
#
# Stress axis : x y z
#
# Youngs Moduli (GPa) = 92.88164 59.62960 64.74412
#
# Poissons Ratio (x) = 0.05811 0.12981
# Poissons Ratio (y) = 0.09052 0.17228
# Poissons Ratio (z) = 0.18622 0.15867
#
# Static dielectric constant tensor:
#      x y z
#    x 2.367960 0.000000 0.000000 
#    y 0.000000 1.842940 0.000000 
#    z 0.000000 0.000000 1.829030 
# 
# From -- ./inp_files/49007.got.cif
#   From: 2010.05.17/outbox.cif.g08.bks.cpg/sg22_25_cif.got.tgz:49007.got - 2010.06.03 23:40:54.
