data_PCOD9328514
_publ_section_title
;
Structure prediction by ZEFSAII (Michael W. Deem and Ramdas Pophale) SiO2 
 PCOD9328514
Probable space group: F 2 2 2
;
_chemical_formula_sum "Si O2"
_cell_formula_units_Z 88
_cell_length_a 27.487636
_cell_length_b 8.961722
_cell_length_c 16.746468
_cell_angle_alpha 90.000000
_cell_angle_beta 90.000000
_cell_angle_gamma 90.000000
_cell_volume 4125.267190
_symmetry_space_group_name_H-M "F 2 2 2"
_symmetry_group_IT_number 22
_symmetry_cell_setting 'orthorhombic'
loop_
_space_group_symop_operation_xyz
x,y,z
-x,-y,z
x,-y,-z
-x,y,-z
x,1/2+y,1/2+z
-x,1/2-y,1/2+z
x,1/2-y,1/2-z
-x,1/2+y,1/2-z
1/2+x,y,1/2+z
1/2-x,-y,1/2+z
1/2+x,-y,1/2-z
1/2-x,y,1/2-z
1/2+x,1/2+y,z
1/2-x,1/2-y,z
1/2+x,1/2-y,-z
1/2-x,1/2+y,-z
loop_
_atom_site_type_symbol
_atom_site_label
_atom_site_fract_x
_atom_site_fract_y
_atom_site_fract_z
Si Si1 0.047569 0.422285 0.808717
Si Si2 0.369106 0.250000 0.750000
Si Si3 0.899362 0.204549 0.657333
Si Si4 0.303663 0.183707 0.415646
Si Si5 0.802396 0.670647 0.602778
Si Si6 0.990815 0.325522 0.589461
O O1 0.092425 0.384460 0.751884
O O2 0.074383 0.546821 0.862085
O O3 0.024436 0.279026 0.853421
O O4 0.000000 0.500000 0.771683
O O5 0.337464 0.261406 0.829758
O O6 0.904770 0.250000 0.750000
O O7 0.843962 0.223922 0.632202
O O8 0.933987 0.314039 0.609237
O O9 0.250000 0.250000 0.404797
O O10 0.316342 0.195880 0.510079
O O11 0.301983 0.009749 0.389473
O O12 0.750000 0.750000 0.613609
O O13 0.000000 0.500000 0.593363
O O14 0.000000 0.270695 0.500000
#
# Coordination Sequence:
#
# PCOD9328514 Si02
#       6
#    16   8  16  16  16  16
#     4  10  26  42  65  99 136 180 224 283 339 417
#     4  12  25  42  74 100 140 182 223 290 346 418
#     4  11  25  43  65 100 137 177 231 287 346 418
#     4  10  24  47  72  98 137 182 232 289 353 420
#     4  10  24  46  71 103 136 179 232 289 352 422
#     4  10  25  44  67  96 135 180 229 290 347 417
#
# _framework density 21.331952999999999
#
# number of rings (size 3 to 8) (size 9 to 14) (size 15 to 20)
#    0.000    1.636    0.000    1.364   15.273    5.091 
#    3.273    0.000    0.000    0.000    0.000    0.000 
#    0.000    0.000    0.000    0.000    0.000    0.000 
#
# Total GULP energy -122766.034896 kJ/mol
# GULP energy per Si atom -5580.274313 kJ/mol
# Density = 2.128340 g / cm^3
# Si number density = 21.331953 Si / 1000 Ang^3
#
#
#
# Elastic Constant Matrix: (Units=GPa)
#
#
# Indices 1 2 3 4 5 6 
#
# 1 138.7128 31.2244 63.6888 0.0000 0.0000 0.0000
# 2 31.2244 70.6195 7.1497 0.0000 0.0000 0.0000
# 3 63.6888 7.1497 92.5938 0.0000 0.0000 0.0000
# 4 0.0000 0.0000 0.0000 6.2591 0.0000 0.0000
# 5 0.0000 0.0000 0.0000 0.0000 -13.6599 0.0000
# 6 0.0000 0.0000 0.0000 0.0000 0.0000 16.1398
#
#
#
# Elastic Compliance Matrix: (Units=1/GPa)
#
#
# Indices 1 2 3 4 5 6 
#
# 1 0.011761 -0.004416 -0.007748 0.000000 0.000000 0.000000
# 2 -0.004416 0.015930 0.001807 0.000000 0.000000 0.000000
# 3 -0.007748 0.001807 0.015990 0.000000 0.000000 0.000000
# 4 0.000000 0.000000 0.000000 0.159767 0.000000 0.000000
# 5 0.000000 0.000000 0.000000 0.000000 -0.073207 0.000000
# 6 0.000000 0.000000 0.000000 0.000000 0.000000 0.061958
#
#
# Mechanical properties :
#
#
# Convention : Reuss Voigt Hill
#
# Bulk Modulus (GPa) = 43.54131 56.22800 49.88465
# Shear Modulus (GPa) = 22.66875 15.07203 18.87039
#
# Velocity S-wave (km/s) = 3.26339 2.66098 2.97746
# Velocity P-wave (km/s) = 5.88687 5.98806 5.93768
#
# Compressibility (1/GPa) = 0.02296670
#
# Stress axis : x y z
#
# Youngs Moduli (GPa) = 85.02897 62.77555 62.53947
#
# Poissons Ratio (x) = 0.27719 0.48458
# Poissons Ratio (y) = 0.37545 -0.11301
# Poissons Ratio (z) = 0.65884 -0.11344
#
# Static dielectric constant tensor:
#      x y z
#    x 1.728040 0.000000 0.000000 
#    y 0.000000 2.177230 0.000000 
#    z 0.000000 0.000000 1.796600 
# 
# From -- ./inp_files/45226.got.cif
#   From: 2010.05.17/outbox.cif.g08.bks.cpg/sg22_23_cif.got.tgz:45226.got - 2010.06.03 23:40:54.
