data_PCOD9328156
_publ_section_title
;
Structure prediction by ZEFSAII (Michael W. Deem and Ramdas Pophale) SiO2 
 PCOD9328156
Probable space group: F 2 2 2
;
_chemical_formula_sum "Si O2"
_cell_formula_units_Z 104
_cell_length_a 21.840766
_cell_length_b 8.381120
_cell_length_c 27.215821
_cell_angle_alpha 90.000000
_cell_angle_beta 90.000000
_cell_angle_gamma 90.000000
_cell_volume 4981.858231
_symmetry_space_group_name_H-M "F 2 2 2"
_symmetry_group_IT_number 22
_symmetry_cell_setting 'orthorhombic'
loop_
_space_group_symop_operation_xyz
x,y,z
-x,-y,z
x,-y,-z
-x,y,-z
x,1/2+y,1/2+z
-x,1/2-y,1/2+z
x,1/2-y,1/2-z
-x,1/2+y,1/2-z
1/2+x,y,1/2+z
1/2-x,-y,1/2+z
1/2+x,-y,1/2-z
1/2-x,y,1/2-z
1/2+x,1/2+y,z
1/2-x,1/2-y,z
1/2+x,1/2-y,-z
1/2-x,1/2+y,-z
loop_
_atom_site_type_symbol
_atom_site_label
_atom_site_fract_x
_atom_site_fract_y
_atom_site_fract_z
Si Si1 0.069356 0.325434 0.980465
Si Si2 0.711155 0.383697 0.332677
Si Si3 0.411900 0.770580 0.372031
Si Si4 0.839183 0.712165 0.191961
Si Si5 0.815482 0.530659 0.392271
Si Si6 0.353180 0.500000 0.000000
Si Si7 0.981017 0.684315 0.195020
O O1 0.070816 0.323154 0.921435
O O2 0.091920 0.500000 0.000000
O O3 0.000000 0.308430 0.000000
O O4 0.106754 0.163180 0.993453
O O5 0.750000 0.250000 0.304636
O O6 0.644270 0.320170 0.346063
O O7 0.698882 0.550246 0.307986
O O8 0.756836 0.423976 0.377760
O O9 0.471450 0.779802 0.338639
O O10 0.380121 0.939448 0.383420
O O11 0.837904 0.750000 0.250000
O O12 0.815782 0.826824 0.147761
O O13 0.910796 0.693345 0.179079
O O14 0.814622 0.544259 0.451121
O O15 0.986070 0.750000 0.250000
O O16 0.000000 0.500000 0.193624
#
# Coordination Sequence:
#
# PCOD9328156 Si02
#       7
#    16  16  16  16  16   8  16
#     4  10  23  38  64  97 134 174 228 280 345 416
#     4  10  22  45  67  96 130 177 228 277 342 410
#     4  10  23  42  66  95 136 172 225 281 343 415
#     4  11  25  43  68 102 136 176 234 284 352 425
#     4  10  24  43  68  95 138 179 228 285 341 417
#     4  10  23  44  62 102 134 179 232 280 356 408
#     4  11  25  41  67  96 134 174 224 276 353 419
#
# _framework density 20.875745999999999
#
# number of rings (size 3 to 8) (size 9 to 14) (size 15 to 20)
#    0.000    1.692    1.538    0.692   10.769    1.231 
#    1.385    9.231    0.000    0.000    0.000    0.000 
#    0.000    0.000    0.000    0.000    0.000    0.000 
#
# Total GULP energy -144903.163888 kJ/mol
# GULP energy per Si atom -5573.198611 kJ/mol
# Density = 2.082823 g / cm^3
# Si number density = 20.875746 Si / 1000 Ang^3
#
#
#
# Elastic Constant Matrix: (Units=GPa)
#
#
# Indices 1 2 3 4 5 6 
#
# 1 117.2406 32.3008 47.3931 0.0000 0.0000 -0.0001
# 2 32.3008 109.7548 48.1891 0.0000 0.0000 -0.0001
# 3 47.3931 48.1891 98.1881 0.0000 0.0000 0.0000
# 4 0.0000 0.0000 0.0000 8.0088 0.0000 0.0000
# 5 0.0000 0.0000 0.0000 0.0000 -23.1966 0.0000
# 6 -0.0001 -0.0001 0.0000 0.0000 0.0000 26.5488
#
#
#
# Elastic Compliance Matrix: (Units=1/GPa)
#
#
# Indices 1 2 3 4 5 6 
#
# 1 0.010705 -0.001124 -0.004615 0.000000 0.000000 0.000000
# 2 -0.001124 0.011732 -0.005215 0.000000 0.000000 0.000000
# 3 -0.004615 -0.005215 0.014972 0.000000 0.000000 0.000000
# 4 0.000000 0.000000 0.000000 0.124862 0.000000 0.000000
# 5 0.000000 0.000000 0.000000 0.000000 -0.043110 0.000000
# 6 0.000000 0.000000 0.000000 0.000000 0.000000 0.037667
#
#
# Mechanical properties :
#
#
# Convention : Reuss Voigt Hill
#
# Bulk Modulus (GPa) = 64.51912 64.54994 64.53453
# Shear Modulus (GPa) = 27.18824 15.42557 21.30691
#
# Velocity S-wave (km/s) = 3.61277 2.72126 3.19823
# Velocity P-wave (km/s) = 6.95530 6.39233 6.67975
#
# Compressibility (1/GPa) = 0.01549928
#
# Stress axis : x y z
#
# Youngs Moduli (GPa) = 93.41577 85.23816 66.79221
#
# Poissons Ratio (x) = 0.09581 0.30827
# Poissons Ratio (y) = 0.10500 0.34834
# Poissons Ratio (z) = 0.43114 0.44454
#
# Static dielectric constant tensor:
#      x y z
#    x 1.732540 0.000000 0.000000 
#    y 0.000000 1.816280 0.000000 
#    z 0.000000 0.000000 1.758820 
# 
# From -- ./inp_files/53906.got.cif
#   From: 2010.05.17/outbox.cif.g08.bks.cpg/sg22_27_cif.got.tgz:53906.got - 2010.06.03 23:40:54.
