data_PCOD9328307
_publ_section_title
;
Structure prediction by ZEFSAII (Michael W. Deem and Ramdas Pophale) SiO2 
 PCOD9328307
Probable space group: F 2 2 2
;
_chemical_formula_sum "Si O2"
_cell_formula_units_Z 100
_cell_length_a 8.130437
_cell_length_b 28.044617
_cell_length_c 21.039795
_cell_angle_alpha 90.000000
_cell_angle_beta 90.000000
_cell_angle_gamma 90.000000
_cell_volume 4797.388682
_symmetry_space_group_name_H-M "F 2 2 2"
_symmetry_group_IT_number 22
_symmetry_cell_setting 'orthorhombic'
loop_
_space_group_symop_operation_xyz
x,y,z
-x,-y,z
x,-y,-z
-x,y,-z
x,1/2+y,1/2+z
-x,1/2-y,1/2+z
x,1/2-y,1/2-z
-x,1/2+y,1/2-z
1/2+x,y,1/2+z
1/2-x,-y,1/2+z
1/2+x,-y,1/2-z
1/2-x,y,1/2-z
1/2+x,1/2+y,z
1/2-x,1/2-y,z
1/2+x,1/2-y,-z
1/2-x,1/2+y,-z
loop_
_atom_site_type_symbol
_atom_site_label
_atom_site_fract_x
_atom_site_fract_y
_atom_site_fract_z
Si Si1 0.000000 0.000000 0.642534
Si Si2 0.588196 0.396436 0.326792
Si Si3 0.433086 0.735205 0.176142
Si Si4 0.968792 0.123705 0.181430
Si Si5 0.381012 0.654595 0.558118
Si Si6 0.500000 0.500000 0.000000
Si Si7 0.250000 0.750000 0.599555
Si Si8 0.208323 0.934588 0.911100
O O1 0.853175 0.028203 0.607091
O O2 0.070963 0.046130 0.677591
O O3 0.782236 0.389667 0.337334
O O4 0.526459 0.379257 0.258013
O O5 0.485818 0.366482 0.380300
O O6 0.437552 0.750000 0.250000
O O7 0.250000 0.750000 0.153146
O O8 0.473289 0.679721 0.167252
O O9 0.585202 0.758352 0.140300
O O10 0.108756 0.091896 0.146679
O O11 0.500000 0.665841 0.500000
O O12 0.256746 0.699491 0.563745
O O13 0.276661 0.607461 0.544823
O O14 0.592086 0.534372 0.047162
#
# Coordination Sequence:
#
# PCOD9328307 Si02
#       8
#     8  16  16  16  16   4   8  16
#     4  10  24  42  64 100 129 191 218 302 348 424
#     4  10  23  42  72 100 144 181 231 295 362 419
#     4  11  22  40  70 108 145 190 242 293 363 439
#     4  11  22  43  68 107 143 183 232 302 351 428
#     4  11  26  47  68 101 139 187 238 296 353 441
#     4  12  28  44  72 104 126 198 230 300 344 440
#     4  12  23  48  68 102 138 199 236 294 372 424
#     4  11  26  45  70 101 141 179 249 285 362 424
#
# _framework density 20.844673
#
# number of rings (size 3 to 8) (size 9 to 14) (size 15 to 20)
#    0.000    1.120    1.600    5.040    6.720    5.760 
#    5.760    0.000    0.000    0.000    0.000    0.000 
#    0.000    0.000    0.000    0.000    0.000    0.000 
#
# Total GULP energy -139240.033560 kJ/mol
# GULP energy per Si atom -5569.601342 kJ/mol
# Density = 2.079723 g / cm^3
# Si number density = 20.844673 Si / 1000 Ang^3
#
#
#
# Elastic Constant Matrix: (Units=GPa)
#
#
# Indices 1 2 3 4 5 6 
#
# 1 86.6362 32.2511 22.9710 0.0000 0.0000 0.0000
# 2 32.2511 141.4480 19.2638 0.0000 0.0000 0.0000
# 3 22.9710 19.2638 30.9282 0.0000 0.0000 0.0000
# 4 0.0000 0.0000 0.0000 29.4088 0.0000 0.0000
# 5 0.0000 0.0000 0.0000 0.0000 38.8525 0.0000
# 6 0.0000 0.0000 0.0000 0.0000 0.0000 46.1933
#
#
#
# Elastic Compliance Matrix: (Units=1/GPa)
#
#
# Indices 1 2 3 4 5 6 
#
# 1 0.014906 -0.002066 -0.009784 0.000000 0.000000 0.000000
# 2 -0.002066 0.008011 -0.003455 0.000000 0.000000 0.000000
# 3 -0.009784 -0.003455 0.041752 0.000000 0.000000 0.000000
# 4 0.000000 0.000000 0.000000 0.034003 0.000000 0.000000
# 5 0.000000 0.000000 0.000000 0.000000 0.025738 0.000000
# 6 0.000000 0.000000 0.000000 0.000000 0.000000 0.021648
#
#
# Mechanical properties :
#
#
# Convention : Reuss Voigt Hill
#
# Bulk Modulus (GPa) = 29.36151 45.33159 37.34655
# Shear Modulus (GPa) = 26.59251 35.19267 30.89259
#
# Velocity S-wave (km/s) = 3.57563 4.11339 3.85390
# Velocity P-wave (km/s) = 5.58241 6.65991 6.14483
#
# Compressibility (1/GPa) = 0.03405819
#
# Stress axis : x y z
#
# Youngs Moduli (GPa) = 67.08799 124.82179 23.95099
#
# Poissons Ratio (x) = 0.25790 0.23433
# Poissons Ratio (y) = 0.13861 0.08276
# Poissons Ratio (z) = 0.65638 0.43131
#
# Static dielectric constant tensor:
#      x y z
#    x 1.817340 0.000000 0.000000 
#    y 0.000000 1.614250 0.000000 
#    z 0.000000 0.000000 1.746900 
# 
# From -- ./inp_files/42047.got.cif
#   From: 2010.05.17/outbox.cif.g08.bks.cpg/sg22_22_cif.got.tgz:42047.got - 2010.06.03 23:40:54.
