data_PCOD9328698
_publ_section_title
;
Structure prediction by ZEFSAII (Michael W. Deem and Ramdas Pophale) SiO2 
 PCOD9328698
Probable space group: F 2 2 2
;
_chemical_formula_sum "Si O2"
_cell_formula_units_Z 60
_cell_length_a 32.817360
_cell_length_b 5.017281
_cell_length_c 18.933258
_cell_angle_alpha 90.000000
_cell_angle_beta 90.000000
_cell_angle_gamma 90.000000
_cell_volume 3117.435087
_symmetry_space_group_name_H-M "F 2 2 2"
_symmetry_group_IT_number 22
_symmetry_cell_setting 'orthorhombic'
loop_
_space_group_symop_operation_xyz
x,y,z
-x,-y,z
x,-y,-z
-x,y,-z
x,1/2+y,1/2+z
-x,1/2-y,1/2+z
x,1/2-y,1/2-z
-x,1/2+y,1/2-z
1/2+x,y,1/2+z
1/2-x,-y,1/2+z
1/2+x,-y,1/2-z
1/2-x,y,1/2-z
1/2+x,1/2+y,z
1/2-x,1/2-y,z
1/2+x,1/2-y,-z
1/2-x,1/2+y,-z
loop_
_atom_site_type_symbol
_atom_site_label
_atom_site_fract_x
_atom_site_fract_y
_atom_site_fract_z
Si Si1 0.565707 0.350267 0.109737
Si Si2 0.023648 0.750000 0.250000
Si Si3 0.000000 0.500000 0.500000
Si Si4 0.618401 0.633959 0.422103
Si Si5 0.794126 0.748123 0.052412
O O1 0.547363 0.395351 0.186870
O O2 0.593140 0.595031 0.083020
O O3 0.593613 0.090291 0.118956
O O4 0.529322 0.329862 0.052046
O O5 0.000000 0.500000 0.215411
O O6 0.619774 0.500000 0.500000
O O7 0.665103 0.700824 0.402816
O O8 0.750000 0.750000 0.089994
O O9 0.790296 0.500000 0.000000
O O10 0.800520 0.000000 0.000000
#
# Coordination Sequence:
#
# PCOD9328698 Si02
#       5
#    16   8   4  16  16
#     4  12  25  38  60  83 118 156 200 251 303 359
#     4  12  26  44  60  84 119 164 211 254 308 364
#     4  12  24  42  60  90 112 160 204 254 308 350
#     4  11  20  36  56  87 115 149 195 250 297 356
#     4   9  17  30  51  81 119 153 183 234 309 372
#
# _framework density 19.246590000000001
#
# number of rings (size 3 to 8) (size 9 to 14) (size 15 to 20)
#    0.000    1.067    4.000    4.800    0.000    1.067 
#    0.000    0.000    0.000    0.000    0.000    5.600 
#    0.000    0.000    0.000    0.000    0.000    0.000 
#
# Total GULP energy -83609.486456 kJ/mol
# GULP energy per Si atom -5573.965764 kJ/mol
# Density = 1.920278 g / cm^3
# Si number density = 19.246590 Si / 1000 Ang^3
#
#
#
# Elastic Constant Matrix: (Units=GPa)
#
#
# Indices 1 2 3 4 5 6 
#
# 1 158.5261 45.8259 27.7531 -0.0003 0.0005 0.0002
# 2 45.8259 116.2252 -6.1424 0.0002 -0.0093 0.0020
# 3 27.7531 -6.1424 56.1864 -0.0003 -0.0018 0.0003
# 4 -0.0003 0.0002 -0.0003 19.5924 -0.0018 0.0006
# 5 0.0005 -0.0093 -0.0018 -0.0018 -15.8504 -0.0027
# 6 0.0002 0.0020 0.0003 0.0006 -0.0027 30.3063
#
#
#
# Elastic Compliance Matrix: (Units=1/GPa)
#
#
# Indices 1 2 3 4 5 6 
#
# 1 0.008054 -0.003406 -0.004351 0.000000 0.000003 0.000000
# 2 -0.003406 0.010094 0.002786 0.000000 -0.000006 -0.000001
# 3 -0.004351 0.002786 0.020251 0.000000 -0.000004 0.000000
# 4 0.000000 0.000000 0.000000 0.051040 -0.000006 -0.000001
# 5 0.000003 -0.000006 -0.000004 -0.000006 -0.063090 -0.000006
# 6 0.000000 -0.000001 0.000000 -0.000001 -0.000006 0.032996
#
#
# Mechanical properties :
#
#
# Convention : Reuss Voigt Hill
#
# Bulk Modulus (GPa) = 35.13895 51.75678 43.44786
# Shear Modulus (GPa) = 63.47283 24.37640 43.92462
#
# Velocity S-wave (km/s) = 5.74894 3.56270 4.78242
# Velocity P-wave (km/s) = 7.89709 6.62371 7.28826
#
# Compressibility (1/GPa) = 0.02845845
#
# Stress axis : x y z
#
# Youngs Moduli (GPa) = 124.15802 99.06896 49.37922
#
# Poissons Ratio (x) = 0.33739 0.21483
# Poissons Ratio (y) = 0.42283 -0.13755
# Poissons Ratio (z) = 0.54017 -0.27597
#
# Static dielectric constant tensor:
#      x y z
#    x 1.770770 0.000000 0.000000 
#    y 0.000000 1.792760 0.000010 
#    z 0.000000 0.000010 1.606570 
# 
# From -- ./inp_files/2807.got.cif
#   From: 2010.05.17/outbox.cif.g08.bks.cpg/sg22_2_cif.got.tgz:2807.got - 2010.06.03 23:40:54.
