data_PCOD9328560
_publ_section_title
;
Structure prediction by ZEFSAII (Michael W. Deem and Ramdas Pophale) SiO2 
 PCOD9328560
Probable space group: F 2 2 2
;
_chemical_formula_sum "Si O2"
_cell_formula_units_Z 100
_cell_length_a 7.640800
_cell_length_b 25.715027
_cell_length_c 21.430327
_cell_angle_alpha 90.000000
_cell_angle_beta 90.000000
_cell_angle_gamma 90.000000
_cell_volume 4210.703047
_symmetry_space_group_name_H-M "F 2 2 2"
_symmetry_group_IT_number 22
_symmetry_cell_setting 'orthorhombic'
loop_
_space_group_symop_operation_xyz
x,y,z
-x,-y,z
x,-y,-z
-x,y,-z
x,1/2+y,1/2+z
-x,1/2-y,1/2+z
x,1/2-y,1/2-z
-x,1/2+y,1/2-z
1/2+x,y,1/2+z
1/2-x,-y,1/2+z
1/2+x,-y,1/2-z
1/2-x,y,1/2-z
1/2+x,1/2+y,z
1/2-x,1/2-y,z
1/2+x,1/2-y,-z
1/2-x,1/2+y,-z
loop_
_atom_site_type_symbol
_atom_site_label
_atom_site_fract_x
_atom_site_fract_y
_atom_site_fract_z
Si Si1 0.500000 0.500000 0.117205
Si Si2 0.000000 0.000000 0.500000
Si Si3 0.459612 0.239764 0.609796
Si Si4 0.249120 0.083987 0.563311
Si Si5 0.540843 0.650084 0.367148
Si Si6 0.830102 0.915989 0.181440
Si Si7 0.000000 0.840152 0.000000
Si Si8 0.051245 0.328185 0.727984
O O1 0.416797 0.549194 0.082945
O O2 0.354081 0.474413 0.159928
O O3 0.879971 0.039541 0.461444
O O4 0.250000 0.250000 0.606719
O O5 0.547610 0.295419 0.597210
O O6 0.514602 0.197078 0.559842
O O7 0.495172 0.216879 0.679070
O O8 0.330252 0.124296 0.513749
O O9 0.133542 0.118408 0.612178
O O10 0.705626 0.612262 0.368351
O O11 0.542992 0.668080 0.294488
O O12 0.750000 0.917495 0.250000
O O13 0.004504 0.881349 0.191241
O O14 0.250000 0.323178 0.750000
#
# Coordination Sequence:
#
# PCOD9328560 Si02
#       8
#     8   4  16  16  16  16   8  16
#     4  12  24  47  71  98 139 190 254 301 386 434
#     4  12  28  48  78 104 138 200 264 310 392 444
#     4  12  24  45  72 111 145 204 242 296 380 457
#     4  12  26  48  73 104 144 195 253 324 373 451
#     4  11  24  45  72 110 150 187 251 307 383 449
#     4  10  25  42  67 111 147 190 241 309 373 453
#     4  12  26  48  70 108 154 188 254 298 378 452
#     4  11  21  42  75 106 147 191 243 302 374 457
#
# _framework density 23.749003999999999
#
# number of rings (size 3 to 8) (size 9 to 14) (size 15 to 20)
#    0.000    0.640    3.200    4.320    0.000    5.760 
#    5.760    2.400    0.000    0.000    0.000    0.000 
#    0.000    0.000    0.000    0.000    0.000    0.000 
#
# Total GULP energy -139777.886065 kJ/mol
# GULP energy per Si atom -5591.115443 kJ/mol
# Density = 2.369495 g / cm^3
# Si number density = 23.749004 Si / 1000 Ang^3
#
#
#
# Elastic Constant Matrix: (Units=GPa)
#
#
# Indices 1 2 3 4 5 6 
#
# 1 63.3656 40.0575 41.8672 0.0000 0.0000 0.0000
# 2 40.0575 165.9492 71.3018 0.0000 0.0000 0.0000
# 3 41.8672 71.3018 108.0617 0.0000 0.0000 0.0000
# 4 0.0000 0.0000 0.0000 -22.5901 0.0000 0.0000
# 5 0.0000 0.0000 0.0000 0.0000 26.0701 0.0000
# 6 0.0000 0.0000 0.0000 0.0000 0.0000 35.9730
#
#
#
# Elastic Compliance Matrix: (Units=1/GPa)
#
#
# Indices 1 2 3 4 5 6 
#
# 1 0.021813 -0.002281 -0.006946 0.000000 0.000000 0.000000
# 2 -0.002281 0.008649 -0.004823 0.000000 0.000000 0.000000
# 3 -0.006946 -0.004823 0.015128 0.000000 0.000000 0.000000
# 4 0.000000 0.000000 0.000000 -0.044267 0.000000 0.000000
# 5 0.000000 0.000000 0.000000 0.000000 0.038358 0.000000
# 6 0.000000 0.000000 0.000000 0.000000 0.000000 0.027799
#
#
# Mechanical properties :
#
#
# Convention : Reuss Voigt Hill
#
# Bulk Modulus (GPa) = 57.17835 71.53661 64.35748
# Shear Modulus (GPa) = 49.30569 20.16727 34.73648
#
# Velocity S-wave (km/s) = 4.56138 2.91724 3.82861
# Velocity P-wave (km/s) = 7.20208 6.44472 6.83390
#
# Compressibility (1/GPa) = 0.01748914
#
# Stress axis : x y z
#
# Youngs Moduli (GPa) = 45.84468 115.62396 66.10467
#
# Poissons Ratio (x) = 0.26371 0.45918
# Poissons Ratio (y) = 0.10456 0.31882
# Poissons Ratio (z) = 0.31845 0.55765
#
# Static dielectric constant tensor:
#      x y z
#    x 2.143770 0.000000 0.000000 
#    y 0.000000 1.875950 0.000000 
#    z 0.000000 0.000000 1.958500 
# 
# From -- ./inp_files/42048.got.cif
#   From: 2010.05.17/outbox.cif.g08.bks.cpg/sg22_22_cif.got.tgz:42048.got - 2010.06.03 23:40:54.
