data_PCOD9328979
_publ_section_title
;
Structure prediction by ZEFSAII (Michael W. Deem and Ramdas Pophale) SiO2 
 PCOD9328979
Probable space group: F 2 2 2
;
_chemical_formula_sum "Si O2"
_cell_formula_units_Z 56
_cell_length_a 7.174467
_cell_length_b 17.814483
_cell_length_c 18.547775
_cell_angle_alpha 90.000000
_cell_angle_beta 90.000000
_cell_angle_gamma 90.000000
_cell_volume 2370.580373
_symmetry_space_group_name_H-M "F 2 2 2"
_symmetry_group_IT_number 22
_symmetry_cell_setting 'orthorhombic'
loop_
_space_group_symop_operation_xyz
x,y,z
-x,-y,z
x,-y,-z
-x,y,-z
x,1/2+y,1/2+z
-x,1/2-y,1/2+z
x,1/2-y,1/2-z
-x,1/2+y,1/2-z
1/2+x,y,1/2+z
1/2-x,-y,1/2+z
1/2+x,-y,1/2-z
1/2-x,y,1/2-z
1/2+x,1/2+y,z
1/2-x,1/2-y,z
1/2+x,1/2-y,-z
1/2-x,1/2+y,-z
loop_
_atom_site_type_symbol
_atom_site_label
_atom_site_fract_x
_atom_site_fract_y
_atom_site_fract_z
Si Si1 0.535820 0.777611 0.325424
Si Si2 0.279272 0.585120 0.978685
Si Si3 0.250000 0.750000 0.048873
Si Si4 0.349853 0.559981 0.824190
O O1 0.456345 0.750000 0.250000
O O2 0.750000 0.750000 0.330830
O O3 0.425553 0.758668 0.397321
O O4 0.535279 0.865555 0.311516
O O5 0.229678 0.582635 0.893571
O O6 0.214124 0.500000 0.000000
O O7 0.500000 0.584680 0.000000
O O8 0.225216 0.668849 0.008509
O O9 0.500000 0.500000 0.848554
O O10 0.250000 0.537891 0.750000
#
# Coordination Sequence:
#
# PCOD9328979 Si02
#       4
#    16  16   8  16
#     4  11  24  46  73 113 157 194 259 326 377 471
#     4  11  23  47  75 109 155 197 258 330 384 463
#     4  12  25  42  89 106 146 222 260 302 421 454
#     4  12  25  47  77 105 156 201 248 321 402 453
#
# _framework density 23.622907000000001
#
# number of rings (size 3 to 8) (size 9 to 14) (size 15 to 20)
#    0.000    0.571    8.571    0.429    2.000    4.571 
#    0.000    0.000    6.286    1.714    0.000    0.000 
#    0.000    0.000    0.000    0.000    0.000    0.000 
#
# Total GULP energy -78036.086697 kJ/mol
# GULP energy per Si atom -5574.006193 kJ/mol
# Density = 2.356914 g / cm^3
# Si number density = 23.622907 Si / 1000 Ang^3
#
#
#
# Elastic Constant Matrix: (Units=GPa)
#
#
# Indices 1 2 3 4 5 6 
#
# 1 89.9878 0.3839 8.5284 0.0000 0.0000 0.0000
# 2 0.3839 149.8292 15.5260 0.0000 0.0000 0.0000
# 3 8.5284 15.5260 150.8821 0.0000 0.0000 0.0000
# 4 0.0000 0.0000 0.0000 51.3194 0.0000 0.0000
# 5 0.0000 0.0000 0.0000 0.0000 45.9026 0.0000
# 6 0.0000 0.0000 0.0000 0.0000 0.0000 17.8638
#
#
#
# Elastic Compliance Matrix: (Units=1/GPa)
#
#
# Indices 1 2 3 4 5 6 
#
# 1 0.011173 0.000037 -0.000635 0.000000 0.000000 0.000000
# 2 0.000037 0.006746 -0.000696 0.000000 0.000000 0.000000
# 3 -0.000635 -0.000696 0.006735 0.000000 0.000000 0.000000
# 4 0.000000 0.000000 0.000000 0.019486 0.000000 0.000000
# 5 0.000000 0.000000 0.000000 0.000000 0.021785 0.000000
# 6 0.000000 0.000000 0.000000 0.000000 0.000000 0.055979
#
#
# Mechanical properties :
#
#
# Convention : Reuss Voigt Hill
#
# Bulk Modulus (GPa) = 45.31991 48.84174 47.08082
# Shear Modulus (GPa) = 37.92231 47.43455 42.67843
#
# Velocity S-wave (km/s) = 4.01099 4.48592 4.25509
# Velocity P-wave (km/s) = 6.37786 6.89578 6.64187
#
# Compressibility (1/GPa) = 0.02206536
#
# Stress axis : x y z
#
# Youngs Moduli (GPa) = 89.50411 148.22884 148.47247
#
# Poissons Ratio (x) = -0.00552 0.09433
# Poissons Ratio (y) = -0.00333 0.10338
# Poissons Ratio (z) = 0.05687 0.10321
#
# Static dielectric constant tensor:
#      x y z
#    x 1.949000 0.000000 0.000000 
#    y 0.000000 1.831880 0.000000 
#    z 0.000000 0.000000 2.236210 
# 
# From -- ./inp_files/10916.got.cif
#   From: 2010.05.17/outbox.cif.g08.bks.cpg/sg22_6_cif.got.tgz:10916.got - 2010.06.03 23:40:54.
