data_PCOD9328988
_publ_section_title
;
Structure prediction by ZEFSAII (Michael W. Deem and Ramdas Pophale) SiO2 
 PCOD9328988
Probable space group: F 2 2 2
;
_chemical_formula_sum "Si O2"
_cell_formula_units_Z 56
_cell_length_a 22.237921
_cell_length_b 19.138759
_cell_length_c 5.562152
_cell_angle_alpha 90.000000
_cell_angle_beta 90.000000
_cell_angle_gamma 90.000000
_cell_volume 2367.286436
_symmetry_space_group_name_H-M "F 2 2 2"
_symmetry_group_IT_number 22
_symmetry_cell_setting 'orthorhombic'
loop_
_space_group_symop_operation_xyz
x,y,z
-x,-y,z
x,-y,-z
-x,y,-z
x,1/2+y,1/2+z
-x,1/2-y,1/2+z
x,1/2-y,1/2-z
-x,1/2+y,1/2-z
1/2+x,y,1/2+z
1/2-x,-y,1/2+z
1/2+x,-y,1/2-z
1/2-x,y,1/2-z
1/2+x,1/2+y,z
1/2-x,1/2-y,z
1/2+x,1/2-y,-z
1/2-x,1/2+y,-z
loop_
_atom_site_type_symbol
_atom_site_label
_atom_site_fract_x
_atom_site_fract_y
_atom_site_fract_z
Si Si1 0.898777 0.000000 0.500000
Si Si2 0.809266 0.071014 0.871542
Si Si3 0.000000 0.687589 0.500000
Si Si4 0.000000 0.892547 0.500000
Si Si5 0.862132 0.284796 0.493462
O O1 0.857544 0.961431 0.309307
O O2 0.944131 0.940132 0.582816
O O3 0.750000 0.102357 0.750000
O O4 0.842152 0.133863 0.009519
O O5 0.787238 0.000000 0.000000
O O6 0.065280 0.723271 0.478207
O O7 0.011465 0.647881 0.752839
O O8 0.837177 0.250000 0.250000
O O9 0.843980 0.250000 0.750000
#
# Coordination Sequence:
#
# PCOD9328988 Si02
#       5
#     8  16   8   8  16
#     4  11  24  44  70 116 150 195 246 324 388 451
#     4  12  27  49  80 109 151 202 264 321 380 459
#     4  12  22  46  73 108 150 203 246 310 380 471
#     4  11  24  39  77 112 157 187 247 318 393 449
#     4  12  28  49  77 113 156 200 253 317 388 462
#
# _framework density 23.655778000000002
#
# number of rings (size 3 to 8) (size 9 to 14) (size 15 to 20)
#    0.000    0.286    4.286    4.286    4.000    1.714 
#    0.000    1.429    0.000    0.000    0.000    0.000 
#    0.000    0.000    0.000    0.000    0.000    0.000 
#
# Total GULP energy -78181.742899 kJ/mol
# GULP energy per Si atom -5584.410207 kJ/mol
# Density = 2.360194 g / cm^3
# Si number density = 23.655778 Si / 1000 Ang^3
#
#
#
# Elastic Constant Matrix: (Units=GPa)
#
#
# Indices 1 2 3 4 5 6 
#
# 1 89.3100 19.6991 25.2091 -0.0050 -0.0002 0.0003
# 2 19.6991 118.1650 88.6017 -0.0010 0.0000 0.0000
# 3 25.2091 88.6017 166.4003 0.0350 0.0012 -0.0014
# 4 -0.0050 -0.0010 0.0350 185.4882 -0.0034 0.0090
# 5 -0.0002 0.0000 0.0012 -0.0034 24.4423 -0.0001
# 6 0.0003 0.0000 -0.0014 0.0090 -0.0001 -42.0504
#
#
#
# Elastic Compliance Matrix: (Units=1/GPa)
#
#
# Indices 1 2 3 4 5 6 
#
# 1 0.011774 -0.001041 -0.001229 0.000001 0.000000 0.000000
# 2 -0.001041 0.014179 -0.007392 0.000001 0.000000 0.000000
# 3 -0.001229 -0.007392 0.010132 -0.000002 -0.000001 0.000000
# 4 0.000001 0.000001 -0.000002 0.005391 0.000001 0.000001
# 5 0.000000 0.000000 -0.000001 0.000001 0.040913 0.000000
# 6 0.000000 0.000000 0.000000 0.000001 0.000000 -0.023781
#
#
# Mechanical properties :
#
#
# Convention : Reuss Voigt Hill
#
# Bulk Modulus (GPa) = 59.66733 71.21056 65.43895
# Shear Modulus (GPa) = 59.86710 49.60039 54.73374
#
# Velocity S-wave (km/s) = 5.03612 4.58400 4.81537
# Velocity P-wave (km/s) = 7.68730 7.62795 7.65768
#
# Compressibility (1/GPa) = 0.01675959
#
# Stress axis : x y z
#
# Youngs Moduli (GPa) = 84.93602 70.52727 98.69897
#
# Poissons Ratio (x) = 0.07341 0.12134
# Poissons Ratio (y) = 0.08841 0.72959
# Poissons Ratio (z) = 0.10442 0.52134
#
# Static dielectric constant tensor:
#      x y z
#    x 1.166710 -0.000020 0.000000 
#    y -0.000020 1.938230 0.000000 
#    z 0.000000 0.000000 2.015850 
# 
# From -- ./inp_files/4348.got.cif
#   From: 2010.05.17/outbox.cif.g08.bks.cpg/sg22_3_cif.got.tgz:4348.got - 2010.06.03 23:40:54.
