data_PCOD9328991
_publ_section_title
;
Structure prediction by ZEFSAII (Michael W. Deem and Ramdas Pophale) SiO2 
 PCOD9328991
Probable space group: F 2 2 2
;
_chemical_formula_sum "Si O2"
_cell_formula_units_Z 88
_cell_length_a 13.961626
_cell_length_b 14.633415
_cell_length_c 20.180120
_cell_angle_alpha 90.000000
_cell_angle_beta 90.000000
_cell_angle_gamma 90.000000
_cell_volume 4122.924992
_symmetry_space_group_name_H-M "F 2 2 2"
_symmetry_group_IT_number 22
_symmetry_cell_setting 'orthorhombic'
loop_
_space_group_symop_operation_xyz
x,y,z
-x,-y,z
x,-y,-z
-x,y,-z
x,1/2+y,1/2+z
-x,1/2-y,1/2+z
x,1/2-y,1/2-z
-x,1/2+y,1/2-z
1/2+x,y,1/2+z
1/2-x,-y,1/2+z
1/2+x,-y,1/2-z
1/2-x,y,1/2-z
1/2+x,1/2+y,z
1/2-x,1/2-y,z
1/2+x,1/2-y,-z
1/2-x,1/2+y,-z
loop_
_atom_site_type_symbol
_atom_site_label
_atom_site_fract_x
_atom_site_fract_y
_atom_site_fract_z
Si Si1 0.857307 0.247579 0.828444
Si Si2 0.652332 0.398326 0.289273
Si Si3 0.000000 0.627580 0.000000
Si Si4 0.639326 0.255223 0.406228
Si Si5 0.523648 0.897277 0.658193
Si Si6 0.592602 0.945299 0.126705
O O1 0.848319 0.250000 0.750000
O O2 0.750000 0.250000 0.858153
O O3 0.902547 0.343651 0.847517
O O4 0.926894 0.163708 0.844493
O O5 0.750000 0.383779 0.250000
O O6 0.635042 0.314023 0.338411
O O7 0.571111 0.401997 0.231872
O O8 0.668207 0.488109 0.337184
O O9 0.929589 0.690812 0.956493
O O10 0.070595 0.570719 0.950961
O O11 0.750000 0.250000 0.427969
O O12 0.597881 0.155894 0.388944
O O13 0.500000 0.000000 0.637891
O O14 0.500000 0.000000 0.150132
#
# Coordination Sequence:
#
# PCOD9328991 Si02
#       6
#    16  16   8  16  16  16
#     4  11  24  40  66 104 151 191 232 305 389 439
#     4  12  25  40  77 119 147 184 248 320 397 447
#     4  12  27  50  75 102 150 208 263 290 369 458
#     4  12  26  49  75 105 150 203 252 314 372 459
#     4  12  25  44  71 111 152 191 246 319 389 443
#     4  12  24  44  73 105 143 190 250 307 359 443
#
# _framework density 21.344071
#
# number of rings (size 3 to 8) (size 9 to 14) (size 15 to 20)
#    0.000    0.182    5.455    4.636    5.091    0.727 
#    0.000    0.455    4.000    0.000    0.000    0.000 
#    0.000    0.000    0.000    0.000    0.000    0.000 
#
# Total GULP energy -122839.294029 kJ/mol
# GULP energy per Si atom -5583.604274 kJ/mol
# Density = 2.129549 g / cm^3
# Si number density = 21.344071 Si / 1000 Ang^3
#
#
#
# Elastic Constant Matrix: (Units=GPa)
#
#
# Indices 1 2 3 4 5 6 
#
# 1 144.9443 67.3714 41.6470 0.0000 0.0000 0.0000
# 2 67.3714 177.8643 33.5421 0.0000 0.0000 0.0000
# 3 41.6470 33.5421 83.9118 0.0000 0.0000 0.0000
# 4 0.0000 0.0000 0.0000 117.9066 0.0000 0.0000
# 5 0.0000 0.0000 0.0000 0.0000 6.6723 0.0000
# 6 0.0000 0.0000 0.0000 0.0000 0.0000 35.3671
#
#
#
# Elastic Compliance Matrix: (Units=1/GPa)
#
#
# Indices 1 2 3 4 5 6 
#
# 1 0.009206 -0.002839 -0.003434 0.000000 0.000000 0.000000
# 2 -0.002839 0.006956 -0.001371 0.000000 0.000000 0.000000
# 3 -0.003434 -0.001371 0.014170 0.000000 0.000000 0.000000
# 4 0.000000 0.000000 0.000000 0.008481 0.000000 0.000000
# 5 0.000000 0.000000 0.000000 0.000000 0.149872 0.000000
# 6 0.000000 0.000000 0.000000 0.000000 0.000000 0.028275
#
#
# Mechanical properties :
#
#
# Convention : Reuss Voigt Hill
#
# Bulk Modulus (GPa) = 66.47904 76.87127 71.67516
# Shear Modulus (GPa) = 21.07358 49.59986 35.33672
#
# Velocity S-wave (km/s) = 3.14558 4.82584 4.07329
# Velocity P-wave (km/s) = 6.66385 8.19421 7.46833
#
# Compressibility (1/GPa) = 0.01504233
#
# Stress axis : x y z
#
# Youngs Moduli (GPa) = 108.62921 143.75295 70.57249
#
# Poissons Ratio (x) = 0.40816 0.24234
# Poissons Ratio (y) = 0.30843 0.09679
# Poissons Ratio (z) = 0.37303 0.19715
#
# Static dielectric constant tensor:
#      x y z
#    x -0.779660 0.000000 0.000000 
#    y 0.000000 1.840670 0.000000 
#    z 0.000000 0.000000 1.769660 
# 
# From -- ./inp_files/43412.got.cif
#   From: 2010.05.17/outbox.cif.g08.bks.cpg/sg22_22_cif.got.tgz:43412.got - 2010.06.03 23:40:54.
