data_PCOD9328148
_publ_section_title
;
Structure prediction by ZEFSAII (Michael W. Deem and Ramdas Pophale) SiO2 
 PCOD9328148
Probable space group: F 2 2 2
;
_chemical_formula_sum "Si O2"
_cell_formula_units_Z 64
_cell_length_a 19.318269
_cell_length_b 10.913794
_cell_length_c 12.037782
_cell_angle_alpha 90.000000
_cell_angle_beta 90.000000
_cell_angle_gamma 90.000000
_cell_volume 2537.993091
_symmetry_space_group_name_H-M "F 2 2 2"
_symmetry_group_IT_number 22
_symmetry_cell_setting 'orthorhombic'
loop_
_space_group_symop_operation_xyz
x,y,z
-x,-y,z
x,-y,-z
-x,y,-z
x,1/2+y,1/2+z
-x,1/2-y,1/2+z
x,1/2-y,1/2-z
-x,1/2+y,1/2-z
1/2+x,y,1/2+z
1/2-x,-y,1/2+z
1/2+x,-y,1/2-z
1/2-x,y,1/2-z
1/2+x,1/2+y,z
1/2-x,1/2-y,z
1/2+x,1/2-y,-z
1/2-x,1/2+y,-z
loop_
_atom_site_type_symbol
_atom_site_label
_atom_site_fract_x
_atom_site_fract_y
_atom_site_fract_z
Si Si1 0.250000 0.250000 0.064804
Si Si2 0.372857 0.125463 0.197374
Si Si3 0.074190 0.457424 0.626081
Si Si4 0.344857 0.261724 0.623743
Si Si5 0.610003 0.000000 0.000000
O O1 0.301715 0.308840 0.972867
O O2 0.298823 0.163756 0.140704
O O3 0.399412 0.250000 0.250000
O O4 0.421703 0.082337 0.096130
O O5 0.370727 0.025315 0.294425
O O6 0.079476 0.500000 0.500000
O O7 0.083575 0.312092 0.628042
O O8 0.000000 0.500000 0.669250
O O9 0.319608 0.250000 0.750000
O O10 0.350374 0.399447 0.577143
#
# Coordination Sequence:
#
# PCOD9328148 Si02
#       5
#     8  16  16  16   8
#     4  10  24  44  72 116 152 197 259 330 400 494
#     4  11  23  47  69 109 156 197 260 318 400 469
#     4  11  25  47  77 108 154 215 264 329 391 483
#     4  11  22  47  73 115 160 203 261 323 415 473
#     4  10  22  44  77 114 148 196 265 316 396 480
#
# _framework density 25.216774999999998
#
# number of rings (size 3 to 8) (size 9 to 14) (size 15 to 20)
#    0.000    1.250    2.500    3.750    0.000    1.000 
#   36.000    0.625    0.000    0.000    0.000    0.000 
#    0.000    0.000    0.000    0.000    0.000    0.000 
#
# Total GULP energy -89164.226132 kJ/mol
# GULP energy per Si atom -5572.764133 kJ/mol
# Density = 2.515938 g / cm^3
# Si number density = 25.216775 Si / 1000 Ang^3
#
#
#
# Elastic Constant Matrix: (Units=GPa)
#
#
# Indices 1 2 3 4 5 6 
#
# 1 79.2972 36.8716 30.3455 0.0000 0.0000 0.0000
# 2 36.8716 129.3997 63.3259 0.0000 0.0000 0.0000
# 3 30.3455 63.3259 234.7770 0.0000 0.0000 0.0000
# 4 0.0000 0.0000 0.0000 60.3675 0.0000 0.0000
# 5 0.0000 0.0000 0.0000 0.0000 10.8759 0.0000
# 6 0.0000 0.0000 0.0000 0.0000 0.0000 18.5996
#
#
#
# Elastic Compliance Matrix: (Units=1/GPa)
#
#
# Indices 1 2 3 4 5 6 
#
# 1 0.014695 -0.003753 -0.000887 0.000000 0.000000 0.000000
# 2 -0.003753 0.009862 -0.002175 0.000000 0.000000 0.000000
# 3 -0.000887 -0.002175 0.004961 0.000000 0.000000 0.000000
# 4 0.000000 0.000000 0.000000 0.016565 0.000000 0.000000
# 5 0.000000 0.000000 0.000000 0.000000 0.091946 0.000000
# 6 0.000000 0.000000 0.000000 0.000000 0.000000 0.053765
#
#
# Mechanical properties :
#
#
# Convention : Reuss Voigt Hill
#
# Bulk Modulus (GPa) = 62.94264 78.28442 70.61353
# Shear Modulus (GPa) = 23.72812 38.83065 31.27939
#
# Velocity S-wave (km/s) = 3.07084 3.92838 3.52578
# Velocity P-wave (km/s) = 6.13093 7.18945 6.68118
#
# Compressibility (1/GPa) = 0.01588748
#
# Stress axis : x y z
#
# Youngs Moduli (GPa) = 68.04835 101.40125 201.58666
#
# Poissons Ratio (x) = 0.38058 0.17882
# Poissons Ratio (y) = 0.25540 0.43843
# Poissons Ratio (z) = 0.06036 0.22054
#
# Static dielectric constant tensor:
#      x y z
#    x 2.113060 0.000000 0.000000 
#    y 0.000000 2.113620 0.000000 
#    z 0.000000 0.000000 2.006500 
# 
# From -- ./inp_files/23412.got.cif
#   From: 2010.05.17/outbox.cif.g08.bks.cpg/sg22_12_cif.got.tgz:23412.got - 2010.06.03 23:40:54.
