data_PCOD9328926
_publ_section_title
;
Structure prediction by ZEFSAII (Michael W. Deem and Ramdas Pophale) SiO2 
 PCOD9328926
Probable space group: F 2 2 2
;
_chemical_formula_sum "Si O2"
_cell_formula_units_Z 100
_cell_length_a 14.077969
_cell_length_b 19.363957
_cell_length_c 20.012100
_cell_angle_alpha 90.000000
_cell_angle_beta 90.000000
_cell_angle_gamma 90.000000
_cell_volume 5455.402250
_symmetry_space_group_name_H-M "F 2 2 2"
_symmetry_group_IT_number 22
_symmetry_cell_setting 'orthorhombic'
loop_
_space_group_symop_operation_xyz
x,y,z
-x,-y,z
x,-y,-z
-x,y,-z
x,1/2+y,1/2+z
-x,1/2-y,1/2+z
x,1/2-y,1/2-z
-x,1/2+y,1/2-z
1/2+x,y,1/2+z
1/2-x,-y,1/2+z
1/2+x,-y,1/2-z
1/2-x,y,1/2-z
1/2+x,1/2+y,z
1/2-x,1/2-y,z
1/2+x,1/2-y,-z
1/2-x,1/2+y,-z
loop_
_atom_site_type_symbol
_atom_site_label
_atom_site_fract_x
_atom_site_fract_y
_atom_site_fract_z
Si Si1 0.731665 0.050425 0.601470
Si Si2 0.040154 0.077582 0.178685
Si Si3 0.883089 0.810967 0.863192
Si Si4 0.434243 0.432160 0.334325
Si Si5 0.250000 0.750000 0.250000
Si Si6 0.252486 0.897134 0.046369
Si Si7 0.545119 0.829597 0.927667
O O1 0.639317 0.077667 0.639468
O O2 0.825547 0.054232 0.646551
O O3 0.744059 0.092839 0.532873
O O4 0.724301 0.970169 0.579791
O O5 0.056543 0.088992 0.257314
O O6 0.964324 0.133320 0.153018
O O7 0.000000 0.000000 0.170573
O O8 0.817071 0.795513 0.798531
O O9 0.816372 0.840528 0.921756
O O10 0.927565 0.739736 0.888751
O O11 0.500000 0.500000 0.344117
O O12 0.473206 0.373735 0.383296
O O13 0.359809 0.875247 0.063011
O O14 0.500000 0.814946 0.000000
#
# Coordination Sequence:
#
# PCOD9328926 Si02
#       7
#    16  16  16  16   4  16  16
#     4  11  23  42  68  98 132 171 217 278 331 402
#     4  11  25  43  65  97 133 176 214 267 338 399
#     4  12  26  44  66 101 132 177 222 278 331 402
#     4  11  23  41  70  97 131 170 221 273 331 397
#     4  12  24  44  76  92 142 168 230 290 336 396
#     4  11  23  42  68  96 130 171 224 272 335 383
#     4  12  24  43  69  98 133 174 222 283 329 389
#
# _framework density 18.330454
#
# number of rings (size 3 to 8) (size 9 to 14) (size 15 to 20)
#    0.000    0.640    6.400    1.440    2.240    0.320 
#    0.000    0.800    0.000    1.920    0.000    0.000 
#    0.000    0.000    0.000    0.000    0.000    0.000 
#
# Total GULP energy -139766.931876 kJ/mol
# GULP energy per Si atom -5590.677275 kJ/mol
# Density = 1.828873 g / cm^3
# Si number density = 18.330454 Si / 1000 Ang^3
#
#
#
# Elastic Constant Matrix: (Units=GPa)
#
#
# Indices 1 2 3 4 5 6 
#
# 1 122.2246 22.8727 43.6038 0.0000 0.0000 0.0000
# 2 22.8727 61.0991 34.2955 0.0000 0.0000 0.0000
# 3 43.6038 34.2955 84.1625 0.0000 0.0000 0.0000
# 4 0.0000 0.0000 0.0000 18.7445 0.0000 0.0000
# 5 0.0000 0.0000 0.0000 0.0000 28.3426 0.0000
# 6 0.0000 0.0000 0.0000 0.0000 0.0000 33.0880
#
#
#
# Elastic Compliance Matrix: (Units=1/GPa)
#
#
# Indices 1 2 3 4 5 6 
#
# 1 0.010093 -0.001093 -0.004783 0.000000 0.000000 0.000000
# 2 -0.001093 0.021339 -0.008129 0.000000 0.000000 0.000000
# 3 -0.004783 -0.008129 0.017673 0.000000 0.000000 0.000000
# 4 0.000000 0.000000 0.000000 0.053349 0.000000 0.000000
# 5 0.000000 0.000000 0.000000 0.000000 0.035283 0.000000
# 6 0.000000 0.000000 0.000000 0.000000 0.000000 0.030222
#
#
# Mechanical properties :
#
#
# Convention : Reuss Voigt Hill
#
# Bulk Modulus (GPa) = 47.40958 52.11445 49.76201
# Shear Modulus (GPa) = 24.63044 27.14930 25.88987
#
# Velocity S-wave (km/s) = 3.66961 3.85269 3.76226
# Velocity P-wave (km/s) = 6.62380 6.94861 6.78815
#
# Compressibility (1/GPa) = 0.02109279
#
# Stress axis : x y z
#
# Youngs Moduli (GPa) = 99.08102 46.86245 56.58488
#
# Poissons Ratio (x) = 0.05123 0.27067
# Poissons Ratio (y) = 0.10832 0.45998
# Poissons Ratio (z) = 0.47395 0.38095
#
# Static dielectric constant tensor:
#      x y z
#    x 1.607650 0.000000 0.000000 
#    y 0.000000 1.610940 0.000000 
#    z 0.000000 0.000000 1.604130 
# 
# From -- ./inp_files/37269.got.cif
#   From: 2010.05.17/outbox.cif.g08.bks.cpg/sg22_19_cif.got.tgz:37269.got - 2010.06.03 23:40:54.
