data_PCOD9328863
_publ_section_title
;
Structure prediction by ZEFSAII (Michael W. Deem and Ramdas Pophale) SiO2 
 PCOD9328863
Probable space group: F 2 2 2
;
_chemical_formula_sum "Si O2"
_cell_formula_units_Z 88
_cell_length_a 9.443962
_cell_length_b 22.710337
_cell_length_c 19.372827
_cell_angle_alpha 90.000000
_cell_angle_beta 90.000000
_cell_angle_gamma 90.000000
_cell_volume 4154.997913
_symmetry_space_group_name_H-M "F 2 2 2"
_symmetry_group_IT_number 22
_symmetry_cell_setting 'orthorhombic'
loop_
_space_group_symop_operation_xyz
x,y,z
-x,-y,z
x,-y,-z
-x,y,-z
x,1/2+y,1/2+z
-x,1/2-y,1/2+z
x,1/2-y,1/2-z
-x,1/2+y,1/2-z
1/2+x,y,1/2+z
1/2-x,-y,1/2+z
1/2+x,-y,1/2-z
1/2-x,y,1/2-z
1/2+x,1/2+y,z
1/2-x,1/2-y,z
1/2+x,1/2-y,-z
1/2-x,1/2+y,-z
loop_
_atom_site_type_symbol
_atom_site_label
_atom_site_fract_x
_atom_site_fract_y
_atom_site_fract_z
Si Si1 0.856399 0.080734 0.956490
Si Si2 0.797506 0.102843 0.175737
Si Si3 0.402543 0.560086 0.443790
Si Si4 0.616452 0.713293 0.059571
Si Si5 0.500000 0.000000 0.348564
Si Si6 0.406097 0.772626 0.329224
O O1 0.830484 0.146349 0.929258
O O2 0.888631 0.036354 0.894879
O O3 0.738415 0.058594 0.009257
O O4 0.000000 0.081598 0.000000
O O5 0.750000 0.124625 0.250000
O O6 0.664029 0.087126 0.126298
O O7 0.891437 0.157760 0.151355
O O8 0.900217 0.047326 0.187961
O O9 0.500000 0.500000 0.430001
O O10 0.500000 0.594781 0.500000
O O11 0.750000 0.750000 0.035961
O O12 0.541051 0.744190 0.125063
O O13 0.500000 0.711650 0.000000
O O14 0.425402 0.750000 0.250000
O O15 0.250000 0.750000 0.349967
#
# Coordination Sequence:
#
# PCOD9328863 Si02
#       6
#    16  16  16  16   8  16
#     4  11  22  42  72 100 136 192 225 282 365 438
#     4  12  25  44  68 103 140 193 236 290 362 443
#     4  11  24  42  67 106 147 180 237 297 363 421
#     4  11  24  44  70 109 142 179 241 304 360 425
#     4  12  21  40  72  98 135 172 244 278 343 446
#     4  11  23  48  76  95 136 198 245 290 368 442
#
# _framework density 21.179311999999999
#
# number of rings (size 3 to 8) (size 9 to 14) (size 15 to 20)
#    0.000    0.727    5.455    4.091    1.273    2.545 
#    0.000    0.000    0.000    0.000    0.000    0.000 
#    0.000    0.000    0.000    0.000    0.000    0.000 
#
# Total GULP energy -122529.442589 kJ/mol
# GULP energy per Si atom -5569.520118 kJ/mol
# Density = 2.113111 g / cm^3
# Si number density = 21.179312 Si / 1000 Ang^3
#
#
#
# Elastic Constant Matrix: (Units=GPa)
#
#
# Indices 1 2 3 4 5 6 
#
# 1 97.5140 18.8781 21.4249 0.0000 0.0000 0.0000
# 2 18.8781 82.2177 -3.6301 0.0000 0.0000 0.0000
# 3 21.4249 -3.6301 69.9969 0.0000 0.0000 0.0000
# 4 0.0000 0.0000 0.0000 15.9019 0.0000 0.0000
# 5 0.0000 0.0000 0.0000 0.0000 23.5750 0.0000
# 6 0.0000 0.0000 0.0000 0.0000 0.0000 24.1872
#
#
#
# Elastic Compliance Matrix: (Units=1/GPa)
#
#
# Indices 1 2 3 4 5 6 
#
# 1 0.011616 -0.002831 -0.003702 0.000000 0.000000 0.000000
# 2 -0.002831 0.012881 0.001534 0.000000 0.000000 0.000000
# 3 -0.003702 0.001534 0.015499 0.000000 0.000000 0.000000
# 4 0.000000 0.000000 0.000000 0.062886 0.000000 0.000000
# 5 0.000000 0.000000 0.000000 0.000000 0.042418 0.000000
# 6 0.000000 0.000000 0.000000 0.000000 0.000000 0.041344
#
#
# Mechanical properties :
#
#
# Convention : Reuss Voigt Hill
#
# Bulk Modulus (GPa) = 33.33475 35.89717 34.61596
# Shear Modulus (GPa) = 24.19659 26.93653 25.56656
#
# Velocity S-wave (km/s) = 3.38370 3.57014 3.47817
# Velocity P-wave (km/s) = 5.57130 5.82928 5.70175
#
# Compressibility (1/GPa) = 0.02999873
#
# Stress axis : x y z
#
# Youngs Moduli (GPa) = 86.08515 77.63651 64.51965
#
# Poissons Ratio (x) = 0.21977 0.23888
# Poissons Ratio (y) = 0.24368 -0.09900
# Poissons Ratio (z) = 0.31872 -0.11913
#
# Static dielectric constant tensor:
#      x y z
#    x 1.780980 0.000000 0.000000 
#    y 0.000000 1.866780 0.000000 
#    z 0.000000 0.000000 1.779330 
# 
# From -- ./inp_files/41854.got.cif
#   From: 2010.05.17/outbox.cif.g08.bks.cpg/sg22_21_cif.got.tgz:41854.got - 2010.06.03 23:40:54.
