data_PCOD9328596
_publ_section_title
;
Structure prediction by ZEFSAII (Michael W. Deem and Ramdas Pophale) SiO2 
 PCOD9328596
Probable space group: F 2 2 2
;
_chemical_formula_sum "Si O2"
_cell_formula_units_Z 56
_cell_length_a 14.447586
_cell_length_b 30.945998
_cell_length_c 4.945213
_cell_angle_alpha 90.000000
_cell_angle_beta 90.000000
_cell_angle_gamma 90.000000
_cell_volume 2210.979845
_symmetry_space_group_name_H-M "F 2 2 2"
_symmetry_group_IT_number 22
_symmetry_cell_setting 'orthorhombic'
loop_
_space_group_symop_operation_xyz
x,y,z
-x,-y,z
x,-y,-z
-x,y,-z
x,1/2+y,1/2+z
-x,1/2-y,1/2+z
x,1/2-y,1/2-z
-x,1/2+y,1/2-z
1/2+x,y,1/2+z
1/2-x,-y,1/2+z
1/2+x,-y,1/2-z
1/2-x,y,1/2-z
1/2+x,1/2+y,z
1/2-x,1/2-y,z
1/2+x,1/2-y,-z
1/2-x,1/2+y,-z
loop_
_atom_site_type_symbol
_atom_site_label
_atom_site_fract_x
_atom_site_fract_y
_atom_site_fract_z
Si Si1 0.590612 0.097421 0.381244
Si Si2 0.897396 0.782191 0.499236
Si Si3 0.750000 0.843243 0.750000
Si Si4 0.355927 0.545636 0.644429
O O1 0.500000 0.121153 0.500000
O O2 0.679540 0.127671 0.422671
O O3 0.593187 0.056130 0.578703
O O4 0.607519 0.080656 0.075615
O O5 0.898929 0.750000 0.750000
O O6 0.815045 0.815066 0.555441
O O7 0.000000 0.803426 0.500000
O O8 0.883758 0.750000 0.250000
O O9 0.369932 0.500000 0.500000
O O10 0.250000 0.547577 0.750000
#
# Coordination Sequence:
#
# PCOD9328596 Si02
#       4
#    16  16   8  16
#     4  12  28  47  74 116 156 208 268 328 411 481
#     4  10  25  49  80 115 149 201 264 318 382 475
#     4  12  27  52  78 112 166 210 250 334 410 480
#     4  12  24  48  78 108 152 210 274 333 395 476
#
# _framework density 25.328137000000002
#
# number of rings (size 3 to 8) (size 9 to 14) (size 15 to 20)
#    0.000    0.571    2.857    3.857    0.000   16.000 
#    0.000    2.857    0.000    0.000    0.000    0.000 
#    0.000    0.000    0.000    0.000    0.000    0.000 
#
# Total GULP energy -78328.834686 kJ/mol
# GULP energy per Si atom -5594.916763 kJ/mol
# Density = 2.527049 g / cm^3
# Si number density = 25.328137 Si / 1000 Ang^3
#
#
#
# Elastic Constant Matrix: (Units=GPa)
#
#
# Indices 1 2 3 4 5 6 
#
# 1 237.2738 83.0904 54.1844 -0.0009 -0.0039 -0.0005
# 2 83.0904 93.7524 34.5894 -0.0002 0.0003 -0.0004
# 3 54.1844 34.5894 153.7554 -0.0040 -0.0081 -0.0042
# 4 -0.0009 -0.0002 -0.0040 41.1754 0.0014 0.0007
# 5 -0.0039 0.0003 -0.0081 0.0014 45.3232 0.0014
# 6 -0.0005 -0.0004 -0.0042 0.0007 0.0014 40.2972
#
#
#
# Elastic Compliance Matrix: (Units=1/GPa)
#
#
# Indices 1 2 3 4 5 6 
#
# 1 0.006261 -0.005164 -0.001045 0.000000 0.000000 0.000000
# 2 -0.005164 0.015891 -0.001755 0.000000 -0.000001 0.000000
# 3 -0.001045 -0.001755 0.007267 0.000001 0.000001 0.000001
# 4 0.000000 0.000000 0.000001 0.024286 -0.000001 0.000000
# 5 0.000000 -0.000001 0.000001 -0.000001 0.022064 -0.000001
# 6 0.000000 0.000000 0.000001 0.000000 -0.000001 0.024816
#
#
# Mechanical properties :
#
#
# Convention : Reuss Voigt Hill
#
# Bulk Modulus (GPa) = 74.12184 92.05667 83.08925
# Shear Modulus (GPa) = 41.31914 46.22032 43.76973
#
# Velocity S-wave (km/s) = 4.04338 4.27647 4.16156
# Velocity P-wave (km/s) = 7.15030 7.79800 7.48116
#
# Compressibility (1/GPa) = 0.01349130
#
# Stress axis : x y z
#
# Youngs Moduli (GPa) = 159.70646 62.93062 137.61070
#
# Poissons Ratio (x) = 0.32497 0.14379
# Poissons Ratio (y) = 0.82471 0.24151
# Poissons Ratio (z) = 0.16688 0.11044
#
# Static dielectric constant tensor:
#      x y z
#    x 2.464830 0.000000 0.000000 
#    y 0.000000 2.019000 0.000000 
#    z 0.000000 0.000000 1.904010 
# 
# From -- ./inp_files/1860.got.cif
#   From: 2010.05.17/outbox.cif.g08.bks.cpg/sg22_1_cif.got.tgz:1860.got - 2010.06.03 23:40:54.
