data_PCOD9328985
_publ_section_title
;
Structure prediction by ZEFSAII (Michael W. Deem and Ramdas Pophale) SiO2 
 PCOD9328985
Probable space group: F 2 2 2
;
_chemical_formula_sum "Si O2"
_cell_formula_units_Z 112
_cell_length_a 13.985839
_cell_length_b 26.298123
_cell_length_c 15.443227
_cell_angle_alpha 90.000000
_cell_angle_beta 90.000000
_cell_angle_gamma 90.000000
_cell_volume 5680.039187
_symmetry_space_group_name_H-M "F 2 2 2"
_symmetry_group_IT_number 22
_symmetry_cell_setting 'orthorhombic'
loop_
_space_group_symop_operation_xyz
x,y,z
-x,-y,z
x,-y,-z
-x,y,-z
x,1/2+y,1/2+z
-x,1/2-y,1/2+z
x,1/2-y,1/2-z
-x,1/2+y,1/2-z
1/2+x,y,1/2+z
1/2-x,-y,1/2+z
1/2+x,-y,1/2-z
1/2-x,y,1/2-z
1/2+x,1/2+y,z
1/2-x,1/2-y,z
1/2+x,1/2-y,-z
1/2-x,1/2+y,-z
loop_
_atom_site_type_symbol
_atom_site_label
_atom_site_fract_x
_atom_site_fract_y
_atom_site_fract_z
Si Si1 0.019583 0.172629 0.095193
Si Si2 0.100802 0.163718 0.543570
Si Si3 0.363405 0.357218 0.257202
Si Si4 0.352852 0.727386 0.614925
Si Si5 0.109406 0.951009 0.613962
Si Si6 0.640613 0.742438 0.851567
Si Si7 0.881050 0.941163 0.587359
O O1 0.077347 0.140682 0.167612
O O2 0.083525 0.224427 0.086056
O O3 0.915417 0.190969 0.127702
O O4 0.000000 0.150094 0.000000
O O5 0.159774 0.186259 0.462719
O O6 0.084470 0.211938 0.603172
O O7 0.141008 0.118076 0.602749
O O8 0.000000 0.147688 0.500000
O O9 0.250000 0.350588 0.250000
O O10 0.395665 0.305742 0.306684
O O11 0.372433 0.407125 0.316998
O O12 0.250000 0.750000 0.638135
O O13 0.144088 0.942862 0.515123
O O14 0.994618 0.948322 0.601938
O O15 0.152256 0.007227 0.634814
O O16 0.640785 0.750000 0.750000
O O17 0.750000 0.750000 0.882555
#
# Coordination Sequence:
#
# PCOD9328985 Si02
#       7
#    16  16  16  16  16  16  16
#     4  12  25  39  55  86 130 173 208 256 310 383
#     4  12  19  33  58  88 119 158 197 256 324 382
#     4  12  24  37  62  92 126 168 220 271 330 385
#     4  12  21  36  55  90 129 166 212 261 316 379
#     4   9  18  34  56  91 116 139 191 266 323 383
#     4  11  24  38  54  78 123 173 211 239 291 387
#     4   9  17  32  58  88 116 139 188 259 339 366
#
# _framework density 19.718174000000001
#
# number of rings (size 3 to 8) (size 9 to 14) (size 15 to 20)
#    0.000    1.000    7.143    2.571    2.000    0.000 
#    0.000    0.000    3.143    0.000    0.000    0.000 
#    0.000    0.000    0.000    0.000    0.000    0.000 
#
# Total GULP energy -155884.908371 kJ/mol
# GULP energy per Si atom -5567.318156 kJ/mol
# Density = 1.967330 g / cm^3
# Si number density = 19.718174 Si / 1000 Ang^3
#
#
#
# Elastic Constant Matrix: (Units=GPa)
#
#
# Indices 1 2 3 4 5 6 
#
# 1 68.5331 4.1250 24.5860 0.0000 0.0000 0.0000
# 2 4.1250 104.2326 40.6576 0.0000 0.0000 0.0000
# 3 24.5860 40.6576 99.0365 0.0000 0.0000 0.0000
# 4 0.0000 0.0000 0.0000 29.5139 0.0000 0.0000
# 5 0.0000 0.0000 0.0000 0.0000 15.2560 0.0000
# 6 0.0000 0.0000 0.0000 0.0000 0.0000 8.1225
#
#
#
# Elastic Compliance Matrix: (Units=1/GPa)
#
#
# Indices 1 2 3 4 5 6 
#
# 1 0.016123 0.001099 -0.004454 0.000000 0.000000 0.000000
# 2 0.001099 0.011498 -0.004993 0.000000 0.000000 0.000000
# 3 -0.004454 -0.004993 0.013253 0.000000 0.000000 0.000000
# 4 0.000000 0.000000 0.000000 0.033882 0.000000 0.000000
# 5 0.000000 0.000000 0.000000 0.000000 0.065548 0.000000
# 6 0.000000 0.000000 0.000000 0.000000 0.000000 0.123114
#
#
# Mechanical properties :
#
#
# Convention : Reuss Voigt Hill
#
# Bulk Modulus (GPa) = 41.35929 45.61549 43.48739
# Shear Modulus (GPa) = 17.35066 24.07407 20.71236
#
# Velocity S-wave (km/s) = 2.96958 3.49794 3.24453
# Velocity P-wave (km/s) = 5.72526 6.28475 6.01152
#
# Compressibility (1/GPa) = 0.02417836
#
# Stress axis : x y z
#
# Youngs Moduli (GPa) = 62.02269 86.97083 75.45554
#
# Poissons Ratio (x) = -0.09560 0.33607
# Poissons Ratio (y) = -0.06818 0.37677
# Poissons Ratio (z) = 0.27624 0.43426
#
# Static dielectric constant tensor:
#      x y z
#    x 1.787850 0.000000 0.000000 
#    y 0.000000 1.812570 0.000000 
#    z 0.000000 0.000000 1.798310 
# 
# From -- ./inp_files/29761.got.cif
#   From: 2010.05.17/outbox.cif.g08.bks.cpg/sg22_15_cif.got.tgz:29761.got - 2010.06.03 23:40:54.
