data_PCOD9328428
_publ_section_title
;
Structure prediction by ZEFSAII (Michael W. Deem and Ramdas Pophale) SiO2 
 PCOD9328428
Probable space group: F 2 2 2
;
_chemical_formula_sum "Si O2"
_cell_formula_units_Z 80
_cell_length_a 10.917407
_cell_length_b 12.444824
_cell_length_c 29.789348
_cell_angle_alpha 90.000000
_cell_angle_beta 90.000000
_cell_angle_gamma 90.000000
_cell_volume 4047.335982
_symmetry_space_group_name_H-M "F 2 2 2"
_symmetry_group_IT_number 22
_symmetry_cell_setting 'orthorhombic'
loop_
_space_group_symop_operation_xyz
x,y,z
-x,-y,z
x,-y,-z
-x,y,-z
x,1/2+y,1/2+z
-x,1/2-y,1/2+z
x,1/2-y,1/2-z
-x,1/2+y,1/2-z
1/2+x,y,1/2+z
1/2-x,-y,1/2+z
1/2+x,-y,1/2-z
1/2-x,y,1/2-z
1/2+x,1/2+y,z
1/2-x,1/2-y,z
1/2+x,1/2-y,-z
1/2-x,1/2+y,-z
loop_
_atom_site_type_symbol
_atom_site_label
_atom_site_fract_x
_atom_site_fract_y
_atom_site_fract_z
Si Si1 0.885971 0.076185 0.749210
Si Si2 0.551161 0.229381 0.086187
Si Si3 0.113093 0.247039 0.172107
Si Si4 0.312846 0.138038 0.042643
Si Si5 0.264351 0.905681 0.439881
O O1 0.750000 0.025857 0.750000
O O2 0.895869 0.147537 0.794050
O O3 0.895095 0.151737 0.705513
O O4 0.000000 0.000000 0.748143
O O5 0.484314 0.253559 0.132689
O O6 0.453601 0.161485 0.056126
O O7 0.607429 0.340602 0.065336
O O8 0.667798 0.152090 0.092671
O O9 0.250000 0.250000 0.152698
O O10 0.250000 0.250000 0.053812
O O11 0.248748 0.033994 0.065435
O O12 0.288459 0.119430 0.989704
#
# Coordination Sequence:
#
# PCOD9328428 Si02
#       5
#    16  16  16  16  16
#     4   9  19  41  66  93 127 167 210 258 325 400
#     4  11  21  41  62  93 128 165 222 271 328 390
#     4   9  20  41  64  90 127 165 206 259 327 392
#     4  11  22  41  63  86 123 175 219 265 346 376
#     4  10  24  40  61  92 125 171 219 283 323 400
#
# _framework density 19.766088
#
# number of rings (size 3 to 8) (size 9 to 14) (size 15 to 20)
#    0.000    2.000    2.000    3.000    0.000    4.000 
#   18.000    3.000    0.000    0.000    0.000    0.000 
#    0.000    0.000    0.000    0.000    0.000    0.000 
#
# Total GULP energy -111504.593792 kJ/mol
# GULP energy per Si atom -5575.229690 kJ/mol
# Density = 1.972110 g / cm^3
# Si number density = 19.766088 Si / 1000 Ang^3
#
#
#
# Elastic Constant Matrix: (Units=GPa)
#
#
# Indices 1 2 3 4 5 6 
#
# 1 124.8551 68.2103 49.8797 0.0000 0.0000 0.0000
# 2 68.2103 147.9528 20.3033 0.0000 0.0000 0.0000
# 3 49.8797 20.3033 101.3784 0.0000 0.0000 0.0000
# 4 0.0000 0.0000 0.0000 -40.0287 0.0000 0.0000
# 5 0.0000 0.0000 0.0000 0.0000 37.3834 0.0000
# 6 0.0000 0.0000 0.0000 0.0000 0.0000 37.5074
#
#
#
# Elastic Compliance Matrix: (Units=1/GPa)
#
#
# Indices 1 2 3 4 5 6 
#
# 1 0.013028 -0.005272 -0.005354 0.000000 0.000000 0.000000
# 2 -0.005272 0.009083 0.000775 0.000000 0.000000 0.000000
# 3 -0.005354 0.000775 0.012343 0.000000 0.000000 0.000000
# 4 0.000000 0.000000 0.000000 -0.024982 0.000000 0.000000
# 5 0.000000 0.000000 0.000000 0.000000 0.026750 0.000000
# 6 0.000000 0.000000 0.000000 0.000000 0.000000 0.026661
#
#
# Mechanical properties :
#
#
# Convention : Reuss Voigt Hill
#
# Bulk Modulus (GPa) = 67.78778 72.33032 70.05905
# Shear Modulus (GPa) = 57.14034 22.69196 39.91615
#
# Velocity S-wave (km/s) = 5.38247 3.39193 4.49868
# Velocity P-wave (km/s) = 8.54386 7.21199 7.90602
#
# Compressibility (1/GPa) = 0.01475192
#
# Stress axis : x y z
#
# Youngs Moduli (GPa) = 76.75572 110.09605 81.01540
#
# Poissons Ratio (x) = 0.58039 0.43379
# Poissons Ratio (y) = 0.40463 -0.06276
# Poissons Ratio (z) = 0.41098 -0.08529
#
# Static dielectric constant tensor:
#      x y z
#    x 1.750050 0.000000 0.000000 
#    y 0.000000 1.758620 0.000000 
#    z 0.000000 0.000000 1.708890 
# 
# From -- ./inp_files/18286.got.cif
#   From: 2010.05.17/outbox.cif.g08.bks.cpg/sg22_10_cif.got.tgz:18286.got - 2010.06.03 23:40:54.
