data_PCOD9328015
_publ_section_title
;
Structure prediction by ZEFSAII (Michael W. Deem and Ramdas Pophale) SiO2 
 PCOD9328015
Probable space group: F 2 2 2
;
_chemical_formula_sum "Si O2"
_cell_formula_units_Z 80
_cell_length_a 27.972838
_cell_length_b 10.493016
_cell_length_c 11.472860
_cell_angle_alpha 90.000000
_cell_angle_beta 90.000000
_cell_angle_gamma 90.000000
_cell_volume 3367.507405
_symmetry_space_group_name_H-M "F 2 2 2"
_symmetry_group_IT_number 22
_symmetry_cell_setting 'orthorhombic'
loop_
_space_group_symop_operation_xyz
x,y,z
-x,-y,z
x,-y,-z
-x,y,-z
x,1/2+y,1/2+z
-x,1/2-y,1/2+z
x,1/2-y,1/2-z
-x,1/2+y,1/2-z
1/2+x,y,1/2+z
1/2-x,-y,1/2+z
1/2+x,-y,1/2-z
1/2-x,y,1/2-z
1/2+x,1/2+y,z
1/2-x,1/2-y,z
1/2+x,1/2-y,-z
1/2-x,1/2+y,-z
loop_
_atom_site_type_symbol
_atom_site_label
_atom_site_fract_x
_atom_site_fract_y
_atom_site_fract_z
Si Si1 0.301235 0.303187 0.927388
Si Si2 0.198009 0.081798 0.183722
Si Si3 0.550735 0.279417 0.938806
Si Si4 0.909423 0.924547 0.255381
Si Si5 0.616154 0.377793 0.411432
O O1 0.250000 0.250000 0.901285
O O2 0.333825 0.185662 0.888866
O O3 0.303946 0.331298 0.067074
O O4 0.432271 0.403316 0.130030
O O5 0.250000 0.095481 0.250000
O O6 0.147978 0.107263 0.253646
O O7 0.192160 0.937365 0.137060
O O8 0.587933 0.239429 0.035664
O O9 0.500000 0.283401 0.000000
O O10 0.560467 0.165365 0.843959
O O11 0.911339 0.066633 0.301650
O O12 0.619781 0.500000 0.500000
#
# Coordination Sequence:
#
# PCOD9328015 Si02
#       5
#    16  16  16  16  16
#     4  11  25  41  68 107 156 198 244 312 368 442
#     4  11  25  43  70 110 151 198 252 297 374 467
#     4  10  22  44  71 107 142 184 253 317 377 454
#     4  10  22  42  75 106 142 199 249 299 386 442
#     4  10  22  41  71 101 144 194 249 308 374 450
#
# _framework density 23.756443000000001
#
# number of rings (size 3 to 8) (size 9 to 14) (size 15 to 20)
#    0.000    1.600    2.000    1.200    8.400    6.800 
#    0.000    6.000    0.000    1.200    0.000    1.400 
#    0.000    0.000    0.000    0.000    0.000    0.000 
#
# Total GULP energy -111749.301829 kJ/mol
# GULP energy per Si atom -5587.465091 kJ/mol
# Density = 2.370237 g / cm^3
# Si number density = 23.756443 Si / 1000 Ang^3
#
#
#
# Elastic Constant Matrix: (Units=GPa)
#
#
# Indices 1 2 3 4 5 6 
#
# 1 132.7128 -0.3286 54.8718 0.0000 0.0000 0.0000
# 2 -0.3286 80.1567 47.3147 0.0000 0.0000 0.0000
# 3 54.8718 47.3147 120.5193 0.0000 0.0000 0.0000
# 4 0.0000 0.0000 0.0000 81.6316 0.0000 0.0000
# 5 0.0000 0.0000 0.0000 0.0000 45.5933 0.0000
# 6 0.0000 0.0000 0.0000 0.0000 0.0000 28.5986
#
#
#
# Elastic Compliance Matrix: (Units=1/GPa)
#
#
# Indices 1 2 3 4 5 6 
#
# 1 0.010004 0.003553 -0.005949 0.000000 0.000000 0.000000
# 2 0.003553 0.017500 -0.008488 0.000000 0.000000 0.000000
# 3 -0.005949 -0.008488 0.014339 0.000000 0.000000 0.000000
# 4 0.000000 0.000000 0.000000 0.012250 0.000000 0.000000
# 5 0.000000 0.000000 0.000000 0.000000 0.021933 0.000000
# 6 0.000000 0.000000 0.000000 0.000000 0.000000 0.034967
#
#
# Mechanical properties :
#
#
# Convention : Reuss Voigt Hill
#
# Bulk Modulus (GPa) = 49.81743 59.67830 54.74786
# Shear Modulus (GPa) = 35.85431 46.60009 41.22720
#
# Velocity S-wave (km/s) = 3.88912 4.43377 4.17035
# Velocity P-wave (km/s) = 6.41736 7.16844 6.80328
#
# Compressibility (1/GPa) = 0.02007330
#
# Stress axis : x y z
#
# Youngs Moduli (GPa) = 99.96259 57.14130 69.74212
#
# Poissons Ratio (x) = -0.20301 0.41493
# Poissons Ratio (y) = -0.35515 0.59198
# Poissons Ratio (z) = 0.59472 0.48502
#
# Static dielectric constant tensor:
#      x y z
#    x 1.761190 0.000000 0.000000 
#    y 0.000000 1.917070 0.000000 
#    z 0.000000 0.000000 2.010270 
# 
# From -- ./inp_files/23526.got.cif
#   From: 2010.05.17/outbox.cif.g08.bks.cpg/sg22_12_cif.got.tgz:23526.got - 2010.06.03 23:40:54.
