data_PCOD9328731
_publ_section_title
;
Structure prediction by ZEFSAII (Michael W. Deem and Ramdas Pophale) SiO2 
 PCOD9328731
Probable space group: F 2 2 2
;
_chemical_formula_sum "Si O2"
_cell_formula_units_Z 116
_cell_length_a 18.534250
_cell_length_b 14.672772
_cell_length_c 19.755540
_cell_angle_alpha 90.000000
_cell_angle_beta 90.000000
_cell_angle_gamma 90.000000
_cell_volume 5372.495879
_symmetry_space_group_name_H-M "F 2 2 2"
_symmetry_group_IT_number 22
_symmetry_cell_setting 'orthorhombic'
loop_
_space_group_symop_operation_xyz
x,y,z
-x,-y,z
x,-y,-z
-x,y,-z
x,1/2+y,1/2+z
-x,1/2-y,1/2+z
x,1/2-y,1/2-z
-x,1/2+y,1/2-z
1/2+x,y,1/2+z
1/2-x,-y,1/2+z
1/2+x,-y,1/2-z
1/2-x,y,1/2-z
1/2+x,1/2+y,z
1/2-x,1/2-y,z
1/2+x,1/2-y,-z
1/2-x,1/2+y,-z
loop_
_atom_site_type_symbol
_atom_site_label
_atom_site_fract_x
_atom_site_fract_y
_atom_site_fract_z
Si Si1 0.500000 0.500000 0.000000
Si Si2 0.927361 0.562371 0.319255
Si Si3 0.424310 0.446819 0.333563
Si Si4 0.886915 0.754924 0.530991
Si Si5 0.880303 0.417697 0.406222
Si Si6 0.036320 0.749550 0.888072
Si Si7 0.721592 0.352639 0.176715
Si Si8 0.184923 0.052980 0.567725
O O1 0.450813 0.564145 0.046790
O O2 0.896103 0.552739 0.243804
O O3 0.875565 0.520998 0.377427
O O4 0.949671 0.663581 0.340819
O O5 0.000000 0.500000 0.320470
O O6 0.500000 0.500000 0.335082
O O7 0.442801 0.343185 0.351187
O O8 0.372913 0.493311 0.389625
O O9 0.843956 0.661759 0.547251
O O10 0.914833 0.747626 0.455166
O O11 0.847793 0.850114 0.544374
O O12 0.955004 0.754517 0.582764
O O13 0.864036 0.365248 0.334236
O O14 0.750000 0.377886 0.250000
O O15 0.750000 0.250000 0.165199
O O16 0.753594 0.421869 0.121570
O O17 0.208368 0.000000 0.500000
#
# Coordination Sequence:
#
# PCOD9328731 Si02
#       8
#     4  16  16  16  16  16  16  16
#     4  12  24  40  72 112 138 188 232 312 380 404
#     4  11  22  37  58  93 128 173 223 284 352 411
#     4  11  23  37  60  90 132 179 225 279 345 424
#     4  11  21  35  64  92 129 172 221 281 338 415
#     4  12  22  44  67  99 142 172 236 293 364 432
#     4  11  21  38  58  92 133 176 222 280 352 416
#     4  11  26  47  72 101 139 190 236 293 359 438
#     4  12  24  44  65  97 130 176 237 277 350 427
#
# _framework density 21.591455
#
# number of rings (size 3 to 8) (size 9 to 14) (size 15 to 20)
#    0.000    0.690    6.207    2.897    0.966    0.276 
#    0.000    0.000    0.000    0.000    0.000    2.897 
#    0.000    0.000    0.000    0.000    0.000    0.000 
#
# Total GULP energy -161544.447862 kJ/mol
# GULP energy per Si atom -5570.498202 kJ/mol
# Density = 2.154231 g / cm^3
# Si number density = 21.591455 Si / 1000 Ang^3
#
#
#
# Elastic Constant Matrix: (Units=GPa)
#
#
# Indices 1 2 3 4 5 6 
#
# 1 51.8161 35.1548 35.3528 0.0000 0.0000 0.0000
# 2 35.1548 165.2135 55.9738 0.0000 0.0000 0.0000
# 3 35.3528 55.9738 149.7685 0.0000 0.0000 0.0000
# 4 0.0000 0.0000 0.0000 40.5716 0.0000 0.0000
# 5 0.0000 0.0000 0.0000 0.0000 31.1933 0.0000
# 6 0.0000 0.0000 0.0000 0.0000 0.0000 32.3085
#
#
#
# Elastic Compliance Matrix: (Units=1/GPa)
#
#
# Indices 1 2 3 4 5 6 
#
# 1 0.024916 -0.003789 -0.004465 0.000000 0.000000 0.000000
# 2 -0.003789 0.007506 -0.001911 0.000000 0.000000 0.000000
# 3 -0.004465 -0.001911 0.008445 0.000000 0.000000 0.000000
# 4 0.000000 0.000000 0.000000 0.024648 0.000000 0.000000
# 5 0.000000 0.000000 0.000000 0.000000 0.032058 0.000000
# 6 0.000000 0.000000 0.000000 0.000000 0.000000 0.030952
#
#
# Mechanical properties :
#
#
# Convention : Reuss Voigt Hill
#
# Bulk Modulus (GPa) = 48.69215 68.86232 58.77723
# Shear Modulus (GPa) = 32.11260 36.83577 34.47418
#
# Velocity S-wave (km/s) = 3.86071 4.13490 4.00016
# Velocity P-wave (km/s) = 6.51721 7.39994 6.97256
#
# Compressibility (1/GPa) = 0.02053719
#
# Stress axis : x y z
#
# Youngs Moduli (GPa) = 40.13444 133.21875 118.40956
#
# Poissons Ratio (x) = 0.50475 0.52875
# Poissons Ratio (y) = 0.15207 0.22629
# Poissons Ratio (z) = 0.17922 0.25459
#
# Static dielectric constant tensor:
#      x y z
#    x 2.804470 0.000000 0.000000 
#    y 0.000000 1.788790 0.000000 
#    z 0.000000 0.000000 1.812270 
# 
# From -- ./inp_files/39609.got.cif
#   From: 2010.05.17/outbox.cif.g08.bks.cpg/sg22_20_cif.got.tgz:39609.got - 2010.06.03 23:40:54.
