data_PCOD9328449
_publ_section_title
;
Structure prediction by ZEFSAII (Michael W. Deem and Ramdas Pophale) SiO2 
 PCOD9328449
Probable space group: F 2 2 2
;
_chemical_formula_sum "Si O2"
_cell_formula_units_Z 72
_cell_length_a 30.998348
_cell_length_b 15.078366
_cell_length_c 7.344135
_cell_angle_alpha 90.000000
_cell_angle_beta 90.000000
_cell_angle_gamma 90.000000
_cell_volume 3432.681282
_symmetry_space_group_name_H-M "F 2 2 2"
_symmetry_group_IT_number 22
_symmetry_cell_setting 'orthorhombic'
loop_
_space_group_symop_operation_xyz
x,y,z
-x,-y,z
x,-y,-z
-x,y,-z
x,1/2+y,1/2+z
-x,1/2-y,1/2+z
x,1/2-y,1/2-z
-x,1/2+y,1/2-z
1/2+x,y,1/2+z
1/2-x,-y,1/2+z
1/2+x,-y,1/2-z
1/2-x,y,1/2-z
1/2+x,1/2+y,z
1/2-x,1/2-y,z
1/2+x,1/2-y,-z
1/2-x,1/2+y,-z
loop_
_atom_site_type_symbol
_atom_site_label
_atom_site_fract_x
_atom_site_fract_y
_atom_site_fract_z
Si Si1 0.548811 0.750000 0.250000
Si Si2 0.298195 0.442546 0.681290
Si Si3 0.826345 0.750000 0.750000
Si Si4 0.136595 0.000000 0.000000
Si Si5 0.513973 0.901907 0.785328
Si Si6 0.906530 0.169015 0.054621
O O1 0.518794 0.831893 0.296018
O O2 0.576044 0.750054 0.433343
O O3 0.306109 0.500000 0.500000
O O4 0.250000 0.462604 0.750000
O O5 0.301536 0.334537 0.664091
O O6 0.332906 0.473626 0.831887
O O7 0.860129 0.795968 0.884632
O O8 0.105508 0.919147 0.942672
O O9 0.560754 0.866740 0.713400
O O10 0.500000 0.000000 0.725213
O O11 0.500000 0.898029 0.000000
#
# Coordination Sequence:
#
# PCOD9328449 Si02
#       6
#     8  16   8   8  16  16
#     4  12  23  36  64  85 131 174 229 285 344 400
#     4  11  23  45  75 101 142 184 235 290 361 445
#     4  10  24  42  66  99 140 178 230 289 364 422
#     4  10  24  44  67 104 136 180 220 296 357 422
#     4  11  23  40  62  90 127 183 236 281 346 412
#     4  11  23  41  61  95 136 170 230 292 344 417
#
# _framework density 20.974858000000001
#
# number of rings (size 3 to 8) (size 9 to 14) (size 15 to 20)
#    0.000    1.111    1.111    5.667    3.111    0.889 
#   16.000    0.000    0.000    0.000    0.000    0.000 
#    0.000    0.000    0.000    0.000    0.000    0.000 
#
# Total GULP energy -100214.682650 kJ/mol
# GULP energy per Si atom -5567.482369 kJ/mol
# Density = 2.092712 g / cm^3
# Si number density = 20.974858 Si / 1000 Ang^3
#
#
#
# Elastic Constant Matrix: (Units=GPa)
#
#
# Indices 1 2 3 4 5 6 
#
# 1 84.1203 27.0136 36.7656 0.0000 0.0000 0.0000
# 2 27.0136 118.6484 50.3625 0.0000 0.0000 0.0000
# 3 36.7656 50.3625 100.1228 0.0000 0.0000 0.0000
# 4 0.0000 0.0000 0.0000 29.5173 0.0000 0.0000
# 5 0.0000 0.0000 0.0000 0.0000 26.6466 0.0000
# 6 0.0000 0.0000 0.0000 0.0000 0.0000 48.1509
#
#
#
# Elastic Compliance Matrix: (Units=1/GPa)
#
#
# Indices 1 2 3 4 5 6 
#
# 1 0.014318 -0.001307 -0.004600 0.000000 0.000000 0.000000
# 2 -0.001307 0.010836 -0.004970 0.000000 0.000000 0.000000
# 3 -0.004600 -0.004970 0.014177 0.000000 0.000000 0.000000
# 4 0.000000 0.000000 0.000000 0.033878 0.000000 0.000000
# 5 0.000000 0.000000 0.000000 0.000000 0.037528 0.000000
# 6 0.000000 0.000000 0.000000 0.000000 0.000000 0.020768
#
#
# Mechanical properties :
#
#
# Convention : Reuss Voigt Hill
#
# Bulk Modulus (GPa) = 56.89818 59.01942 57.95880
# Shear Modulus (GPa) = 31.42294 33.44628 32.43461
#
# Velocity S-wave (km/s) = 3.87476 3.99756 3.93664
# Velocity P-wave (km/s) = 6.87052 7.03609 6.95380
#
# Compressibility (1/GPa) = 0.01757526
#
# Stress axis : x y z
#
# Youngs Moduli (GPa) = 69.84185 92.28778 70.53663
#
# Poissons Ratio (x) = 0.12065 0.32447
# Poissons Ratio (y) = 0.09131 0.35059
# Poissons Ratio (z) = 0.32128 0.45870
#
# Static dielectric constant tensor:
#      x y z
#    x 1.751410 0.000000 0.000000 
#    y 0.000000 1.747890 0.000000 
#    z 0.000000 0.000000 1.815230 
# 
# From -- ./inp_files/10280.got.cif
#   From: 2010.05.17/outbox.cif.g08.bks.cpg/sg22_6_cif.got.tgz:10280.got - 2010.06.03 23:40:54.
