data_PCOD9328373
_publ_section_title
;
Structure prediction by ZEFSAII (Michael W. Deem and Ramdas Pophale) SiO2 
 PCOD9328373
Probable space group: F 2 2 2
;
_chemical_formula_sum "Si O2"
_cell_formula_units_Z 92
_cell_length_a 20.456315
_cell_length_b 17.790432
_cell_length_c 12.116860
_cell_angle_alpha 90.000000
_cell_angle_beta 90.000000
_cell_angle_gamma 90.000000
_cell_volume 4409.648644
_symmetry_space_group_name_H-M "F 2 2 2"
_symmetry_group_IT_number 22
_symmetry_cell_setting 'orthorhombic'
loop_
_space_group_symop_operation_xyz
x,y,z
-x,-y,z
x,-y,-z
-x,y,-z
x,1/2+y,1/2+z
-x,1/2-y,1/2+z
x,1/2-y,1/2-z
-x,1/2+y,1/2-z
1/2+x,y,1/2+z
1/2-x,-y,1/2+z
1/2+x,-y,1/2-z
1/2-x,y,1/2-z
1/2+x,1/2+y,z
1/2-x,1/2-y,z
1/2+x,1/2-y,-z
1/2-x,1/2+y,-z
loop_
_atom_site_type_symbol
_atom_site_label
_atom_site_fract_x
_atom_site_fract_y
_atom_site_fract_z
Si Si1 0.294389 0.630470 0.145737
Si Si2 0.500000 0.500000 0.500000
Si Si3 0.750000 0.750000 0.479703
Si Si4 0.895613 0.250000 0.250000
Si Si5 0.893201 0.236839 0.619371
Si Si6 0.454084 0.606189 0.899685
Si Si7 0.507852 0.131335 0.155660
Si Si8 0.854630 0.500000 0.500000
O O1 0.250000 0.609990 0.250000
O O2 0.253679 0.679180 0.059758
O O3 0.351122 0.687989 0.187998
O O4 0.317991 0.559719 0.076313
O O5 0.532394 0.559609 0.586040
O O6 0.817639 0.761814 0.414767
O O7 0.941691 0.200573 0.330683
O O8 0.895110 0.250000 0.750000
O O9 0.927108 0.311100 0.571945
O O10 0.940837 0.165419 0.602289
O O11 0.489119 0.607491 0.781207
O O12 0.395588 0.547888 0.910643
O O13 0.500000 0.584916 0.000000
#
# Coordination Sequence:
#
# PCOD9328373 Si02
#       8
#    16   4   8   8  16  16  16   8
#     4  12  27  48  73 110 140 199 252 307 362 448
#     4  12  32  40  64 112 170 186 224 306 414 428
#     4  12  22  46  76  98 138 196 256 296 354 450
#     4  12  23  48  86  97 150 190 260 298 350 461
#     4  10  23  45  72 104 139 190 249 293 365 444
#     4  11  23  43  74 108 141 187 246 310 368 443
#     4  11  27  46  69 115 145 197 235 309 381 449
#     4  12  27  44  73 106 147 185 244 314 380 422
#
# _framework density 20.863339
#
# number of rings (size 3 to 8) (size 9 to 14) (size 15 to 20)
#    0.000    0.696    6.087    1.565    8.522    0.000 
#    6.261    0.870    0.000    0.000    0.000    0.000 
#    0.000    0.000    0.000    0.000    0.000    0.000 
#
# Total GULP energy -128440.350545 kJ/mol
# GULP energy per Si atom -5584.363067 kJ/mol
# Density = 2.081585 g / cm^3
# Si number density = 20.863339 Si / 1000 Ang^3
#
#
#
# Elastic Constant Matrix: (Units=GPa)
#
#
# Indices 1 2 3 4 5 6 
#
# 1 83.2230 48.9737 43.1373 0.0000 0.0000 0.0000
# 2 48.9737 146.9976 70.3122 0.0000 0.0000 0.0000
# 3 43.1373 70.3122 94.2260 0.0000 0.0000 0.0000
# 4 0.0000 0.0000 0.0000 42.5036 0.0000 0.0000
# 5 0.0000 0.0000 0.0000 0.0000 -4.6551 0.0000
# 6 0.0000 0.0000 0.0000 0.0000 0.0000 -199.0143
#
#
#
# Elastic Compliance Matrix: (Units=1/GPa)
#
#
# Indices 1 2 3 4 5 6 
#
# 1 0.016530 -0.002935 -0.005378 0.000000 0.000000 0.000000
# 2 -0.002935 0.011100 -0.006939 0.000000 0.000000 0.000000
# 3 -0.005378 -0.006939 0.018253 0.000000 0.000000 0.000000
# 4 0.000000 0.000000 0.000000 0.023527 0.000000 0.000000
# 5 0.000000 0.000000 0.000000 0.000000 -0.214820 0.000000
# 6 0.000000 0.000000 0.000000 0.000000 0.000000 -0.005025
#
#
# Mechanical properties :
#
#
# Convention : Reuss Voigt Hill
#
# Bulk Modulus (GPa) = 65.02166 72.14367 68.58267
# Shear Modulus (GPa) = -43.55227 -21.43158 -32.49193
#
# Velocity S-wave (km/s) = -4.57388 -3.20853 -3.95063
# Velocity P-wave (km/s) = 1.82740 4.57471 3.48335
#
# Compressibility (1/GPa) = 0.01537949
#
# Stress axis : x y z
#
# Youngs Moduli (GPa) = 60.49435 90.09190 54.78663
#
# Poissons Ratio (x) = 0.26443 0.29462
# Poissons Ratio (y) = 0.17756 0.38017
# Poissons Ratio (z) = 0.32531 0.62515
#
# Static dielectric constant tensor:
#      x y z
#    x 1.800080 0.000000 0.000000 
#    y 0.000000 1.830090 0.000000 
#    z 0.000000 0.000000 1.962370 
# 
# From -- ./inp_files/22672.got.cif
#   From: 2010.05.17/outbox.cif.g08.bks.cpg/sg22_12_cif.got.tgz:22672.got - 2010.06.03 23:40:54.
