data_PCOD9328182
_publ_section_title
;
Structure prediction by ZEFSAII (Michael W. Deem and Ramdas Pophale) SiO2 
 PCOD9328182
Probable space group: F 2 2 2
;
_chemical_formula_sum "Si O2"
_cell_formula_units_Z 80
_cell_length_a 21.574425
_cell_length_b 12.653330
_cell_length_c 13.041345
_cell_angle_alpha 90.000000
_cell_angle_beta 90.000000
_cell_angle_gamma 90.000000
_cell_volume 3560.134850
_symmetry_space_group_name_H-M "F 2 2 2"
_symmetry_group_IT_number 22
_symmetry_cell_setting 'orthorhombic'
loop_
_space_group_symop_operation_xyz
x,y,z
-x,-y,z
x,-y,-z
-x,y,-z
x,1/2+y,1/2+z
-x,1/2-y,1/2+z
x,1/2-y,1/2-z
-x,1/2+y,1/2-z
1/2+x,y,1/2+z
1/2-x,-y,1/2+z
1/2+x,-y,1/2-z
1/2-x,y,1/2-z
1/2+x,1/2+y,z
1/2-x,1/2-y,z
1/2+x,1/2-y,-z
1/2-x,1/2+y,-z
loop_
_atom_site_type_symbol
_atom_site_label
_atom_site_fract_x
_atom_site_fract_y
_atom_site_fract_z
Si Si1 0.828042 0.095538 0.067483
Si Si2 0.500000 0.212739 0.500000
Si Si3 0.096597 0.419737 0.771799
Si Si4 0.208014 0.000000 0.500000
Si Si5 0.131715 0.318815 0.981797
Si Si6 0.962735 0.360867 0.718670
O O1 0.864668 0.112574 0.172047
O O2 0.832026 0.208449 0.012615
O O3 0.757392 0.056295 0.076473
O O4 0.857683 0.000000 0.000000
O O5 0.560663 0.286654 0.498227
O O6 0.514087 0.142071 0.600516
O O7 0.131300 0.377325 0.871352
O O8 0.079909 0.542300 0.751609
O O9 0.028140 0.368653 0.777686
O O10 0.165420 0.091523 0.451970
O O11 0.932855 0.250000 0.750000
#
# Coordination Sequence:
#
# PCOD9328182 Si02
#       6
#    16   8  16   8  16  16
#     4  10  22  46  69  96 131 187 238 296 347 423
#     4  12  24  40  76  98 148 190 223 309 366 444
#     4  11  23  40  70  99 145 181 241 298 363 434
#     4  10  28  41  66  99 136 186 240 296 352 428
#     4  12  24  45  69 105 140 184 239 295 371 436
#     4  11  23  41  62 110 146 185 238 295 376 443
#
# _framework density 22.471057999999999
#
# number of rings (size 3 to 8) (size 9 to 14) (size 15 to 20)
#    0.600    0.400    4.000    2.400    2.800    2.000 
#    0.000    2.000    0.000    0.000    5.200    0.000 
#    0.000    0.000    0.000    0.000    0.000    0.000 
#
# Total GULP energy -111584.636356 kJ/mol
# GULP energy per Si atom -5579.231818 kJ/mol
# Density = 2.241991 g / cm^3
# Si number density = 22.471058 Si / 1000 Ang^3
#
#
#
# Elastic Constant Matrix: (Units=GPa)
#
#
# Indices 1 2 3 4 5 6 
#
# 1 105.7672 38.5107 4.3813 0.0000 0.0000 0.0000
# 2 38.5107 183.5138 -0.8017 0.0000 0.0000 0.0000
# 3 4.3813 -0.8017 48.0424 0.0000 0.0000 0.0000
# 4 0.0000 0.0000 0.0000 28.2439 0.0000 0.0000
# 5 0.0000 0.0000 0.0000 0.0000 15.9404 0.0000
# 6 0.0000 0.0000 0.0000 0.0000 0.0000 29.9441
#
#
#
# Elastic Compliance Matrix: (Units=1/GPa)
#
#
# Indices 1 2 3 4 5 6 
#
# 1 0.010282 -0.002162 -0.000974 0.000000 0.000000 0.000000
# 2 -0.002162 0.005904 0.000296 0.000000 0.000000 0.000000
# 3 -0.000974 0.000296 0.020909 0.000000 0.000000 0.000000
# 4 0.000000 0.000000 0.000000 0.035406 0.000000 0.000000
# 5 0.000000 0.000000 0.000000 0.000000 0.062734 0.000000
# 6 0.000000 0.000000 0.000000 0.000000 0.000000 0.033396
#
#
# Mechanical properties :
#
#
# Convention : Reuss Voigt Hill
#
# Bulk Modulus (GPa) = 31.83199 46.83378 39.33288
# Shear Modulus (GPa) = 27.05887 34.50786 30.78337
#
# Velocity S-wave (km/s) = 3.47387 3.92300 3.70525
# Velocity P-wave (km/s) = 5.50336 6.43482 5.98723
#
# Compressibility (1/GPa) = 0.03141494
#
# Stress axis : x y z
#
# Youngs Moduli (GPa) = 97.25484 169.37166 47.82698
#
# Poissons Ratio (x) = 0.36618 0.04657
# Poissons Ratio (y) = 0.21027 -0.01414
# Poissons Ratio (z) = 0.09471 -0.05008
#
# Static dielectric constant tensor:
#      x y z
#    x 1.841480 0.000000 0.000000 
#    y 0.000000 1.891340 0.000000 
#    z 0.000000 0.000000 1.954080 
# 
# From -- ./inp_files/32283.got.cif
#   From: 2010.05.17/outbox.cif.g08.bks.cpg/sg22_17_cif.got.tgz:32283.got - 2010.06.03 23:40:54.
