data_PCOD9328102
_publ_section_title
;
Structure prediction by ZEFSAII (Michael W. Deem and Ramdas Pophale) SiO2 
 PCOD9328102
Probable space group: F 2 2 2
;
_chemical_formula_sum "Si O2"
_cell_formula_units_Z 116
_cell_length_a 14.033523
_cell_length_b 18.544166
_cell_length_c 25.031305
_cell_angle_alpha 90.000000
_cell_angle_beta 90.000000
_cell_angle_gamma 90.000000
_cell_volume 6514.146314
_symmetry_space_group_name_H-M "F 2 2 2"
_symmetry_group_IT_number 22
_symmetry_cell_setting 'orthorhombic'
loop_
_space_group_symop_operation_xyz
x,y,z
-x,-y,z
x,-y,-z
-x,y,-z
x,1/2+y,1/2+z
-x,1/2-y,1/2+z
x,1/2-y,1/2-z
-x,1/2+y,1/2-z
1/2+x,y,1/2+z
1/2-x,-y,1/2+z
1/2+x,-y,1/2-z
1/2-x,y,1/2-z
1/2+x,1/2+y,z
1/2-x,1/2-y,z
1/2+x,1/2-y,-z
1/2-x,1/2+y,-z
loop_
_atom_site_type_symbol
_atom_site_label
_atom_site_fract_x
_atom_site_fract_y
_atom_site_fract_z
Si Si1 0.501870 0.149609 0.558029
Si Si2 0.199207 0.327637 0.933370
Si Si3 0.478398 0.217816 0.880970
Si Si4 0.852115 0.774288 0.188599
Si Si5 0.658410 0.038417 0.442155
Si Si6 0.000000 0.000000 0.500000
Si Si7 0.187048 0.604687 0.613704
Si Si8 0.879788 0.627501 0.047983
O O1 0.500000 0.183184 0.500000
O O2 0.452096 0.202345 0.599248
O O3 0.445334 0.074980 0.555627
O O4 0.610956 0.141541 0.574081
O O5 0.250000 0.250000 0.933207
O O6 0.120084 0.326321 0.885713
O O7 0.269641 0.395866 0.931361
O O8 0.151329 0.338945 0.991539
O O9 0.553080 0.234836 0.833540
O O10 0.545303 0.179507 0.924159
O O11 0.848983 0.750000 0.250000
O O12 0.750000 0.750000 0.163896
O O13 0.843915 0.858515 0.170116
O O14 0.677909 0.000000 0.500000
O O15 0.667752 0.979740 0.395392
O O16 0.068023 0.051796 0.465067
O O17 0.291430 0.617983 0.588876
#
# Coordination Sequence:
#
# PCOD9328102 Si02
#       8
#    16  16  16  16  16   4  16  16
#     4  11  20  33  51  84 127 163 205 238 291 361
#     4  12  23  36  54  84 130 170 209 239 289 373
#     4  11  23  36  57  88 113 159 208 263 297 362
#     4  10  22  43  68  93 110 145 206 275 325 352
#     4  12  22  35  52  85 132 174 204 240 285 370
#     4  12  24  36  48  76 138 184 206 224 280 372
#     4  11  23  34  58  88 122 158 204 255 311 362
#     4  12  22  35  51  83 126 169 208 238 292 371
#
# _framework density 17.807399
#
# number of rings (size 3 to 8) (size 9 to 14) (size 15 to 20)
#    0.000    0.690    6.897    2.069    3.862    0.000 
#    0.000    0.000    0.000    0.414   35.862    0.000 
#    0.000    0.000    0.000    0.000    0.000    0.000 
#
# Total GULP energy -161484.546814 kJ/mol
# GULP energy per Si atom -5568.432649 kJ/mol
# Density = 1.776687 g / cm^3
# Si number density = 17.807399 Si / 1000 Ang^3
#
#
#
# Elastic Constant Matrix: (Units=GPa)
#
#
# Indices 1 2 3 4 5 6 
#
# 1 84.1723 27.1763 27.8294 0.0000 0.0000 0.0000
# 2 27.1763 98.0727 38.6263 0.0000 0.0000 0.0000
# 3 27.8294 38.6263 70.0748 0.0000 0.0000 0.0000
# 4 0.0000 0.0000 0.0000 1434.8022 0.0000 0.0000
# 5 0.0000 0.0000 0.0000 0.0000 21.7131 0.0000
# 6 0.0000 0.0000 0.0000 0.0000 0.0000 426.3870
#
#
#
# Elastic Compliance Matrix: (Units=1/GPa)
#
#
# Indices 1 2 3 4 5 6 
#
# 1 0.014026 -0.002162 -0.004378 0.000000 0.000000 0.000000
# 2 -0.002162 0.013357 -0.006504 0.000000 0.000000 0.000000
# 3 -0.004378 -0.006504 0.019594 0.000000 0.000000 0.000000
# 4 0.000000 0.000000 0.000000 0.000697 0.000000 0.000000
# 5 0.000000 0.000000 0.000000 0.000000 0.046055 0.000000
# 6 0.000000 0.000000 0.000000 0.000000 0.000000 0.002345
#
#
# Mechanical properties :
#
#
# Convention : Reuss Voigt Hill
#
# Bulk Modulus (GPa) = 47.87341 48.84265 48.35803
# Shear Modulus (GPa) = 38.72135 387.15964 212.94050
#
# Velocity S-wave (km/s) = 4.66816 14.76100 10.94712
# Velocity P-wave (km/s) = 7.48318 17.83266 13.67483
#
# Compressibility (1/GPa) = 0.02088842
#
# Stress axis : x y z
#
# Youngs Moduli (GPa) = 71.29557 74.86527 51.03476
#
# Poissons Ratio (x) = 0.16187 0.22345
# Poissons Ratio (y) = 0.15416 0.33193
# Poissons Ratio (z) = 0.31217 0.48693
#
# Static dielectric constant tensor:
#      x y z
#    x -1.006370 0.000000 0.000000 
#    y 0.000000 1.673170 0.000000 
#    z 0.000000 0.000000 1.587740 
# 
# From -- ./inp_files/37375.got.cif
#   From: 2010.05.17/outbox.cif.g08.bks.cpg/sg22_19_cif.got.tgz:37375.got - 2010.06.03 23:40:54.
