data_PCOD9328956
_publ_section_title
;
Structure prediction by ZEFSAII (Michael W. Deem and Ramdas Pophale) SiO2 
 PCOD9328956
Probable space group: F 2 2 2
;
_chemical_formula_sum "Si O2"
_cell_formula_units_Z 44
_cell_length_a 7.329207
_cell_length_b 16.679557
_cell_length_c 14.506757
_cell_angle_alpha 90.000000
_cell_angle_beta 90.000000
_cell_angle_gamma 90.000000
_cell_volume 1773.420955
_symmetry_space_group_name_H-M "F 2 2 2"
_symmetry_group_IT_number 22
_symmetry_cell_setting 'orthorhombic'
loop_
_space_group_symop_operation_xyz
x,y,z
-x,-y,z
x,-y,-z
-x,y,-z
x,1/2+y,1/2+z
-x,1/2-y,1/2+z
x,1/2-y,1/2-z
-x,1/2+y,1/2-z
1/2+x,y,1/2+z
1/2-x,-y,1/2+z
1/2+x,-y,1/2-z
1/2-x,y,1/2-z
1/2+x,1/2+y,z
1/2-x,1/2-y,z
1/2+x,1/2-y,-z
1/2-x,1/2+y,-z
loop_
_atom_site_type_symbol
_atom_site_label
_atom_site_fract_x
_atom_site_fract_y
_atom_site_fract_z
Si Si1 0.734883 0.941479 0.857830
Si Si2 0.250000 0.250000 0.250000
Si Si3 0.000000 0.627311 0.500000
Si Si4 0.643259 0.373003 0.606640
O O1 0.750000 0.920672 0.750000
O O2 0.912842 0.919301 0.914444
O O3 0.570430 0.894545 0.910589
O O4 0.703900 0.036727 0.865416
O O5 0.369172 0.309682 0.310999
O O6 0.186408 0.662101 0.545988
#
# Coordination Sequence:
#
# PCOD9328956 Si02
#       4
#    16   4   8  16
#     4  11  23  43  77 110 141 190 256 312 364 450
#     4  12  24  48  74 108 154 196 236 308 394 448
#     4  12  25  46  78 110 146 201 256 315 372 448
#     4  11  24  43  72 108 148 191 247 305 378 449
#
# _framework density 24.810805999999999
#
# number of rings (size 3 to 8) (size 9 to 14) (size 15 to 20)
#    0.000    0.727    1.818    6.545    5.091    2.909 
#    6.545    6.364    0.000    0.000    0.000    0.000 
#    0.000    0.000    0.000    0.000    0.000    0.000 
#
# Total GULP energy -61262.562553 kJ/mol
# GULP energy per Si atom -5569.323868 kJ/mol
# Density = 2.475434 g / cm^3
# Si number density = 24.810806 Si / 1000 Ang^3
#
#
#
# Elastic Constant Matrix: (Units=GPa)
#
#
# Indices 1 2 3 4 5 6 
#
# 1 212.3966 53.6376 72.6408 0.0000 0.0000 0.0000
# 2 53.6376 101.6621 13.5581 0.0000 0.0000 0.0000
# 3 72.6408 13.5581 104.4417 0.0000 0.0000 0.0000
# 4 0.0000 0.0000 0.0000 115.4787 0.0000 0.0000
# 5 0.0000 0.0000 0.0000 0.0000 33.9979 0.0000
# 6 0.0000 0.0000 0.0000 0.0000 0.0000 -12.7132
#
#
#
# Elastic Compliance Matrix: (Units=1/GPa)
#
#
# Indices 1 2 3 4 5 6 
#
# 1 0.007027 -0.003109 -0.004484 0.000000 0.000000 0.000000
# 2 -0.003109 0.011386 0.000685 0.000000 0.000000 0.000000
# 3 -0.004484 0.000685 0.012604 0.000000 0.000000 0.000000
# 4 0.000000 0.000000 0.000000 0.008660 0.000000 0.000000
# 5 0.000000 0.000000 0.000000 0.000000 0.029414 0.000000
# 6 0.000000 0.000000 0.000000 0.000000 0.000000 -0.078658
#
#
# Mechanical properties :
#
#
# Convention : Reuss Voigt Hill
#
# Bulk Modulus (GPa) = 58.13956 77.57483 67.85720
# Shear Modulus (GPa) = 500.90126 45.93028 273.41577
#
# Velocity S-wave (km/s) = 14.22416 4.30725 10.50902
# Velocity P-wave (km/s) = 17.12463 7.48805 13.21597
#
# Compressibility (1/GPa) = 0.01719999
#
# Stress axis : x y z
#
# Youngs Moduli (GPa) = 142.31144 87.82897 79.33819
#
# Poissons Ratio (x) = 0.27310 0.35572
# Poissons Ratio (y) = 0.44251 -0.05432
# Poissons Ratio (z) = 0.63807 -0.06013
#
# Static dielectric constant tensor:
#      x y z
#    x 2.503000 0.000000 0.000000 
#    y 0.000000 1.909420 0.000000 
#    z 0.000000 0.000000 2.076830 
# 
# From -- ./inp_files/26508.got.cif
#   From: 2010.05.17/outbox.cif.g08.bks.cpg/sg22_14_cif.got.tgz:26508.got - 2010.06.03 23:40:54.
