data_PCOD9328904
_publ_section_title
;
Structure prediction by ZEFSAII (Michael W. Deem and Ramdas Pophale) SiO2 
 PCOD9328904
Probable space group: F 2 2 2
;
_chemical_formula_sum "Si O2"
_cell_formula_units_Z 96
_cell_length_a 26.725826
_cell_length_b 7.516698
_cell_length_c 18.777391
_cell_angle_alpha 90.000000
_cell_angle_beta 90.000000
_cell_angle_gamma 90.000000
_cell_volume 3772.189380
_symmetry_space_group_name_H-M "F 2 2 2"
_symmetry_group_IT_number 22
_symmetry_cell_setting 'orthorhombic'
loop_
_space_group_symop_operation_xyz
x,y,z
-x,-y,z
x,-y,-z
-x,y,-z
x,1/2+y,1/2+z
-x,1/2-y,1/2+z
x,1/2-y,1/2-z
-x,1/2+y,1/2-z
1/2+x,y,1/2+z
1/2-x,-y,1/2+z
1/2+x,-y,1/2-z
1/2-x,y,1/2-z
1/2+x,1/2+y,z
1/2-x,1/2-y,z
1/2+x,1/2-y,-z
1/2-x,1/2+y,-z
loop_
_atom_site_type_symbol
_atom_site_label
_atom_site_fract_x
_atom_site_fract_y
_atom_site_fract_z
Si Si1 0.054886 0.964085 0.330679
Si Si2 0.780817 0.426329 0.073362
Si Si3 0.687230 0.931063 0.348016
Si Si4 0.410997 0.616669 0.094505
Si Si5 0.838907 0.968230 0.302636
Si Si6 0.051453 0.246921 0.044150
O O1 0.064111 0.760117 0.353021
O O2 0.942111 0.908573 0.401199
O O3 0.102750 0.015914 0.283959
O O4 0.000000 0.000000 0.300031
O O5 0.750000 0.250000 0.058089
O O6 0.737861 0.550033 0.108328
O O7 0.823006 0.404866 0.133118
O O8 0.801439 0.500000 0.000000
O O9 0.692464 0.004715 0.267791
O O10 0.671216 0.728032 0.333437
O O11 0.642080 0.034827 0.384649
O O12 0.445446 0.441282 0.084771
O O13 0.407921 0.718395 0.018322
O O14 0.000000 0.267825 0.000000
#
# Coordination Sequence:
#
# PCOD9328904 Si02
#       6
#    16  16  16  16  16  16
#     4  12  25  42  67 105 144 196 249 302 362 434
#     4  12  27  47  77 113 146 183 240 303 367 439
#     4  11  25  49  76 103 146 197 238 294 378 440
#     4  11  23  38  69  99 140 189 243 301 355 439
#     4  11  26  50  73 106 147 194 244 302 361 443
#     4  11  23  40  63 102 144 190 242 304 372 418
#
# _framework density 25.449408999999999
#
# number of rings (size 3 to 8) (size 9 to 14) (size 15 to 20)
#    0.000    0.667    3.333    4.500    2.333    7.333 
#    0.000    5.000    0.000    0.000    0.000    0.000 
#    0.000    0.000    0.000    0.000    0.000    0.000 
#
# Total GULP energy -134522.800107 kJ/mol
# GULP energy per Si atom -5605.116671 kJ/mol
# Density = 2.539149 g / cm^3
# Si number density = 25.449409 Si / 1000 Ang^3
#
#
#
# Elastic Constant Matrix: (Units=GPa)
#
#
# Indices 1 2 3 4 5 6 
#
# 1 130.7453 5.5944 21.2136 0.0000 0.0000 0.0000
# 2 5.5944 102.2234 5.4549 0.0000 -0.0003 0.0000
# 3 21.2136 5.4549 77.2948 0.0000 0.0000 0.0000
# 4 0.0000 0.0000 0.0000 28.3405 -0.0001 0.0000
# 5 0.0000 -0.0003 0.0000 -0.0001 380.0179 0.0001
# 6 0.0000 0.0000 0.0000 0.0000 0.0001 38.7209
#
#
#
# Elastic Compliance Matrix: (Units=1/GPa)
#
#
# Indices 1 2 3 4 5 6 
#
# 1 0.008015 -0.000322 -0.002177 0.000000 0.000000 0.000000
# 2 -0.000322 0.009832 -0.000605 0.000000 0.000000 0.000000
# 3 -0.002177 -0.000605 0.013578 0.000000 0.000000 0.000000
# 4 0.000000 0.000000 0.000000 0.035285 0.000000 0.000000
# 5 0.000000 0.000000 0.000000 0.000000 0.002631 0.000000
# 6 0.000000 0.000000 0.000000 0.000000 0.000000 0.025826
#
#
# Mechanical properties :
#
#
# Convention : Reuss Voigt Hill
#
# Bulk Modulus (GPa) = 39.65785 41.64326 40.65056
# Shear Modulus (GPa) = 45.54426 107.94923 76.74675
#
# Velocity S-wave (km/s) = 4.23496 6.51991 5.49746
# Velocity P-wave (km/s) = 6.28729 8.54855 7.50359
#
# Compressibility (1/GPa) = 0.02521569
#
# Stress axis : x y z
#
# Youngs Moduli (GPa) = 124.75837 101.70402 73.65009
#
# Poissons Ratio (x) = 0.03280 0.16034
# Poissons Ratio (y) = 0.04023 0.04459
# Poissons Ratio (z) = 0.27161 0.06157
#
# Static dielectric constant tensor:
#      x y z
#    x 1.995790 0.000000 0.000000 
#    y 0.000000 1.908630 0.000000 
#    z 0.000000 0.000000 2.020900 
# 
# From -- ./inp_files/45689.got.cif
#   From: 2010.05.17/outbox.cif.g08.bks.cpg/sg22_23_cif.got.tgz:45689.got - 2010.06.03 23:40:54.
