data_PCOD9328732
_publ_section_title
;
Structure prediction by ZEFSAII (Michael W. Deem and Ramdas Pophale) SiO2 
 PCOD9328732
Probable space group: F 2 2 2
;
_chemical_formula_sum "Si O2"
_cell_formula_units_Z 112
_cell_length_a 21.995498
_cell_length_b 23.988609
_cell_length_c 10.979561
_cell_angle_alpha 90.000000
_cell_angle_beta 90.000000
_cell_angle_gamma 90.000000
_cell_volume 5793.270952
_symmetry_space_group_name_H-M "F 2 2 2"
_symmetry_group_IT_number 22
_symmetry_cell_setting 'orthorhombic'
loop_
_space_group_symop_operation_xyz
x,y,z
-x,-y,z
x,-y,-z
-x,y,-z
x,1/2+y,1/2+z
-x,1/2-y,1/2+z
x,1/2-y,1/2-z
-x,1/2+y,1/2-z
1/2+x,y,1/2+z
1/2-x,-y,1/2+z
1/2+x,-y,1/2-z
1/2-x,y,1/2-z
1/2+x,1/2+y,z
1/2-x,1/2-y,z
1/2+x,1/2-y,-z
1/2-x,1/2+y,-z
loop_
_atom_site_type_symbol
_atom_site_label
_atom_site_fract_x
_atom_site_fract_y
_atom_site_fract_z
Si Si1 0.116082 0.060329 0.936895
Si Si2 0.563552 0.777540 0.879999
Si Si3 0.873599 0.115085 0.461234
Si Si4 0.569507 0.824402 0.455627
Si Si5 0.744219 0.546414 0.605403
Si Si6 0.555639 0.341071 0.682702
Si Si7 0.964097 0.943057 0.693805
O O1 0.187951 0.066829 0.920557
O O2 0.081226 0.058640 0.808528
O O3 0.095884 0.115352 0.009188
O O4 0.104332 0.000000 0.000000
O O5 0.567717 0.750000 0.750000
O O6 0.605483 0.831874 0.882885
O O7 0.492546 0.799135 0.882084
O O8 0.589279 0.731119 0.972840
O O9 0.808504 0.091685 0.421390
O O10 0.889849 0.137285 0.596690
O O11 0.923704 0.068548 0.425693
O O12 0.500000 0.827947 0.500000
O O13 0.575873 0.817114 0.311463
O O14 0.731978 0.500000 0.500000
O O15 0.750000 0.528813 0.750000
O O16 0.513167 0.394272 0.709528
O O17 0.000000 0.000000 0.688540
#
# Coordination Sequence:
#
# PCOD9328732 Si02
#       7
#    16  16  16  16  16  16  16
#     4  11  24  41  65  98 131 176 237 284 347 422
#     4  11  22  38  65  99 137 175 225 275 346 430
#     4  11  25  42  62  95 138 178 234 284 342 424
#     4  12  21  38  65  96 138 181 219 279 358 427
#     4  11  26  48  73  94 136 191 247 299 353 426
#     4  11  24  36  60 101 133 179 218 279 349 419
#     4  11  21  36  62  95 136 167 212 277 352 418
#
# _framework density 19.332774000000001
#
# number of rings (size 3 to 8) (size 9 to 14) (size 15 to 20)
#    0.000    0.857    4.286    4.286    2.000    2.857 
#    0.000    0.714    0.000    0.000    0.000    2.000 
#    0.000    0.000    0.000    0.000    0.000    0.000 
#
# Total GULP energy -156183.252029 kJ/mol
# GULP energy per Si atom -5577.973287 kJ/mol
# Density = 1.928877 g / cm^3
# Si number density = 19.332774 Si / 1000 Ang^3
#
#
#
# Elastic Constant Matrix: (Units=GPa)
#
#
# Indices 1 2 3 4 5 6 
#
# 1 58.0690 47.1449 20.5060 0.0000 0.0000 0.0000
# 2 47.1449 125.9606 50.2998 0.0000 0.0000 0.0000
# 3 20.5060 50.2998 148.7386 0.0000 0.0000 0.0000
# 4 0.0000 0.0000 0.0000 58.5388 0.0000 0.0000
# 5 0.0000 0.0000 0.0000 0.0000 20.6531 0.0000
# 6 0.0000 0.0000 0.0000 0.0000 0.0000 24.3575
#
#
#
# Elastic Compliance Matrix: (Units=1/GPa)
#
#
# Indices 1 2 3 4 5 6 
#
# 1 0.024752 -0.009135 -0.000323 0.000000 0.000000 0.000000
# 2 -0.009135 0.012550 -0.002985 0.000000 0.000000 0.000000
# 3 -0.000323 -0.002985 0.007777 0.000000 0.000000 0.000000
# 4 0.000000 0.000000 0.000000 0.017083 0.000000 0.000000
# 5 0.000000 0.000000 0.000000 0.000000 0.048419 0.000000
# 6 0.000000 0.000000 0.000000 0.000000 0.000000 0.041055
#
#
# Mechanical properties :
#
#
# Convention : Reuss Voigt Hill
#
# Bulk Modulus (GPa) = 49.52248 63.18552 56.35400
# Shear Modulus (GPa) = 27.28486 35.03105 31.15795
#
# Velocity S-wave (km/s) = 3.76084 4.26138 4.01891
# Velocity P-wave (km/s) = 6.67308 7.54762 7.12378
#
# Compressibility (1/GPa) = 0.02019285
#
# Stress axis : x y z
#
# Youngs Moduli (GPa) = 40.40158 79.68160 128.58255
#
# Poissons Ratio (x) = 0.72789 0.04155
# Poissons Ratio (y) = 0.36907 0.38378
# Poissons Ratio (z) = 0.01306 0.23782
#
# Static dielectric constant tensor:
#      x y z
#    x 1.484960 0.000000 0.000000 
#    y 0.000000 1.698340 0.000000 
#    z 0.000000 0.000000 1.748200 
# 
# From -- ./inp_files/22960.got.cif
#   From: 2010.05.17/outbox.cif.g08.bks.cpg/sg22_12_cif.got.tgz:22960.got - 2010.06.03 23:40:54.
