data_PCOD9328763
_publ_section_title
;
Structure prediction by ZEFSAII (Michael W. Deem and Ramdas Pophale) SiO2 
 PCOD9328763
Probable space group: F 2 2 2
;
_chemical_formula_sum "Si O2"
_cell_formula_units_Z 112
_cell_length_a 14.150566
_cell_length_b 31.331228
_cell_length_c 12.006616
_cell_angle_alpha 90.000000
_cell_angle_beta 90.000000
_cell_angle_gamma 90.000000
_cell_volume 5323.188550
_symmetry_space_group_name_H-M "F 2 2 2"
_symmetry_group_IT_number 22
_symmetry_cell_setting 'orthorhombic'
loop_
_space_group_symop_operation_xyz
x,y,z
-x,-y,z
x,-y,-z
-x,y,-z
x,1/2+y,1/2+z
-x,1/2-y,1/2+z
x,1/2-y,1/2-z
-x,1/2+y,1/2-z
1/2+x,y,1/2+z
1/2-x,-y,1/2+z
1/2+x,-y,1/2-z
1/2-x,y,1/2-z
1/2+x,1/2+y,z
1/2-x,1/2-y,z
1/2+x,1/2-y,-z
1/2-x,1/2+y,-z
loop_
_atom_site_type_symbol
_atom_site_label
_atom_site_fract_x
_atom_site_fract_y
_atom_site_fract_z
Si Si1 0.474296 0.711272 0.822512
Si Si2 0.113318 0.494924 0.128722
Si Si3 0.970499 0.854436 0.381065
Si Si4 0.202425 0.618297 0.420599
Si Si5 0.289265 0.404981 0.365149
Si Si6 0.119200 0.085344 0.713712
Si Si7 0.662081 0.715581 0.964924
O O1 0.438195 0.750000 0.750000
O O2 0.481840 0.673454 0.730855
O O3 0.577013 0.723603 0.875277
O O4 0.397597 0.707566 0.921136
O O5 0.159131 0.449910 0.159799
O O6 0.140975 0.535346 0.203206
O O7 0.000000 0.500000 0.130961
O O8 0.142606 0.500000 0.000000
O O9 0.865221 0.870202 0.402144
O O10 0.000000 0.834038 0.500000
O O11 0.029019 0.897777 0.354340
O O12 0.211332 0.594149 0.538121
O O13 0.119070 0.601267 0.340759
O O14 0.296127 0.607467 0.352290
O O15 0.199742 0.668783 0.434761
O O16 0.250000 0.388787 0.250000
O O17 0.750000 0.750000 0.968443
#
# Coordination Sequence:
#
# PCOD9328763 Si02
#       7
#    16  16  16  16  16  16  16
#     4  11  28  46  71 106 138 183 238 296 353 434
#     4  11  21  40  66  99 135 178 233 284 351 411
#     4  12  23  46  70  97 139 185 236 285 349 425
#     4  11  24  44  67 102 137 182 233 288 352 411
#     4  12  26  40  69 102 139 182 232 295 351 424
#     4  11  23  41  69 100 133 184 234 287 339 419
#     4  11  27  49  73 101 144 188 235 297 362 428
#
# _framework density 21.040022
#
# number of rings (size 3 to 8) (size 9 to 14) (size 15 to 20)
#    0.000    0.714    5.714    0.857    8.000    0.571 
#    0.000    0.000    0.000    0.857    0.000    0.000 
#    0.000    0.000    0.000    0.000    0.000    0.000 
#
# Total GULP energy -156130.558625 kJ/mol
# GULP energy per Si atom -5576.091379 kJ/mol
# Density = 2.099213 g / cm^3
# Si number density = 21.040022 Si / 1000 Ang^3
#
#
#
# Elastic Constant Matrix: (Units=GPa)
#
#
# Indices 1 2 3 4 5 6 
#
# 1 47.5130 7.4332 25.9477 0.0000 0.0000 0.0000
# 2 7.4332 100.1341 30.8116 0.0000 0.0000 0.0000
# 3 25.9477 30.8116 141.7955 0.0000 0.0000 0.0000
# 4 0.0000 0.0000 0.0000 22.1345 0.0000 0.0000
# 5 0.0000 0.0000 0.0000 0.0000 12.3545 0.0000
# 6 0.0000 0.0000 0.0000 0.0000 0.0000 25.4828
#
#
#
# Elastic Compliance Matrix: (Units=1/GPa)
#
#
# Indices 1 2 3 4 5 6 
#
# 1 0.023403 -0.000450 -0.004185 0.000000 0.000000 0.000000
# 2 -0.000450 0.010711 -0.002245 0.000000 0.000000 0.000000
# 3 -0.004185 -0.002245 0.008306 0.000000 0.000000 0.000000
# 4 0.000000 0.000000 0.000000 0.045178 0.000000 0.000000
# 5 0.000000 0.000000 0.000000 0.000000 0.080942 0.000000
# 6 0.000000 0.000000 0.000000 0.000000 0.000000 0.039242
#
#
# Mechanical properties :
#
#
# Convention : Reuss Voigt Hill
#
# Bulk Modulus (GPa) = 34.89131 46.42528 40.65829
# Shear Modulus (GPa) = 21.63612 27.01103 24.32358
#
# Velocity S-wave (km/s) = 3.21024 3.58689 3.40378
# Velocity P-wave (km/s) = 5.51001 6.26638 5.90033
#
# Compressibility (1/GPa) = 0.02866043
#
# Stress axis : x y z
#
# Youngs Moduli (GPa) = 42.73023 93.36351 120.39379
#
# Poissons Ratio (x) = 0.04197 0.50383
# Poissons Ratio (y) = 0.01921 0.27030
# Poissons Ratio (z) = 0.17882 0.20962
#
# Static dielectric constant tensor:
#      x y z
#    x 1.796680 0.000000 0.000000 
#    y 0.000000 1.804380 0.000000 
#    z 0.000000 0.000000 1.820670 
# 
# From -- ./inp_files/20294.got.cif
#   From: 2010.05.17/outbox.cif.g08.bks.cpg/sg22_11_cif.got.tgz:20294.got - 2010.06.03 23:40:54.
