data_PCOD9328274
_publ_section_title
;
Structure prediction by ZEFSAII (Michael W. Deem and Ramdas Pophale) SiO2 
 PCOD9328274
Probable space group: F 2 2 2
;
_chemical_formula_sum "Si O2"
_cell_formula_units_Z 116
_cell_length_a 26.204681
_cell_length_b 11.650940
_cell_length_c 19.400925
_cell_angle_alpha 90.000000
_cell_angle_beta 90.000000
_cell_angle_gamma 90.000000
_cell_volume 5923.280232
_symmetry_space_group_name_H-M "F 2 2 2"
_symmetry_group_IT_number 22
_symmetry_cell_setting 'orthorhombic'
loop_
_space_group_symop_operation_xyz
x,y,z
-x,-y,z
x,-y,-z
-x,y,-z
x,1/2+y,1/2+z
-x,1/2-y,1/2+z
x,1/2-y,1/2-z
-x,1/2+y,1/2-z
1/2+x,y,1/2+z
1/2-x,-y,1/2+z
1/2+x,-y,1/2-z
1/2-x,y,1/2-z
1/2+x,1/2+y,z
1/2-x,1/2-y,z
1/2+x,1/2-y,-z
1/2-x,1/2+y,-z
loop_
_atom_site_type_symbol
_atom_site_label
_atom_site_fract_x
_atom_site_fract_y
_atom_site_fract_z
Si Si1 0.068197 0.713847 0.670057
Si Si2 0.635633 0.614998 0.411744
Si Si3 0.127385 0.485347 0.683656
Si Si4 0.378277 0.349200 0.566690
Si Si5 0.305409 0.121740 0.218859
Si Si6 0.190910 0.220726 0.827696
Si Si7 0.000000 0.500000 0.500000
Si Si8 0.543877 0.336740 0.114742
O O1 0.068722 0.750000 0.750000
O O2 0.091636 0.817319 0.627619
O O3 0.104304 0.603745 0.654475
O O4 0.010974 0.686468 0.647363
O O5 0.639427 0.666965 0.487985
O O6 0.618411 0.484122 0.420474
O O7 0.685929 0.625446 0.363196
O O8 0.151851 0.532109 0.754659
O O9 0.174434 0.409888 0.654402
O O10 0.080567 0.397084 0.671765
O O11 0.336323 0.300802 0.618060
O O12 0.428743 0.276841 0.585539
O O13 0.314567 0.250000 0.250000
O O14 0.250000 0.088457 0.250000
O O15 0.172304 0.250000 0.750000
O O16 0.250000 0.250000 0.828722
O O17 0.965579 0.578106 0.550296
#
# Coordination Sequence:
#
# PCOD9328274 Si02
#       8
#    16  16  16  16  16  16   4  16
#     4  12  23  42  67  99 131 175 225 283 337 405
#     4  11  22  44  68  90 141 173 222 274 333 410
#     4  11  21  42  63  98 129 165 226 273 331 393
#     4  10  25  43  64  97 132 182 215 273 343 401
#     4  11  23  40  70 101 126 172 225 274 337 390
#     4  10  23  41  67  96 129 171 221 274 332 400
#     4  12  20  40  72  86 132 176 220 278 338 412
#     4  11  25  41  65  98 132 171 226 277 342 403
#
# _framework density 19.583743999999999
#
# number of rings (size 3 to 8) (size 9 to 14) (size 15 to 20)
#    0.000    1.103    4.138    1.655    3.862    3.862 
#    4.966    1.379    0.000    0.000    0.000    0.000 
#    0.000    0.000    0.000    0.000    0.000    0.000 
#
# Total GULP energy -161699.151409 kJ/mol
# GULP energy per Si atom -5575.832807 kJ/mol
# Density = 1.953917 g / cm^3
# Si number density = 19.583744 Si / 1000 Ang^3
#
#
#
# Elastic Constant Matrix: (Units=GPa)
#
#
# Indices 1 2 3 4 5 6 
#
# 1 119.2363 43.8202 67.4634 0.0000 0.0000 0.0000
# 2 43.8202 102.1840 59.3005 0.0000 0.0000 0.0000
# 3 67.4634 59.3005 146.1788 0.0000 0.0000 0.0000
# 4 0.0000 0.0000 0.0000 32.2948 0.0000 0.0000
# 5 0.0000 0.0000 0.0000 0.0000 17.8348 0.0000
# 6 0.0000 0.0000 0.0000 0.0000 0.0000 22.0997
#
#
#
# Elastic Compliance Matrix: (Units=1/GPa)
#
#
# Indices 1 2 3 4 5 6 
#
# 1 0.011815 -0.002488 -0.004444 0.000000 0.000000 0.000000
# 2 -0.002488 0.013324 -0.004257 0.000000 0.000000 0.000000
# 3 -0.004444 -0.004257 0.010619 0.000000 0.000000 0.000000
# 4 0.000000 0.000000 0.000000 0.030965 0.000000 0.000000
# 5 0.000000 0.000000 0.000000 0.000000 0.056070 0.000000
# 6 0.000000 0.000000 0.000000 0.000000 0.000000 0.045250
#
#
# Mechanical properties :
#
#
# Convention : Reuss Voigt Hill
#
# Bulk Modulus (GPa) = 74.73478 78.75192 76.74335
# Shear Modulus (GPa) = 25.65703 27.58021 26.61862
#
# Velocity S-wave (km/s) = 3.62348 3.75683 3.69076
# Velocity P-wave (km/s) = 7.46664 7.68886 7.57856
#
# Compressibility (1/GPa) = 0.01338065
#
# Stress axis : x y z
#
# Youngs Moduli (GPa) = 84.63656 75.05514 94.17518
#
# Poissons Ratio (x) = 0.18674 0.41847
# Poissons Ratio (y) = 0.21058 0.40088
# Poissons Ratio (z) = 0.37609 0.31949
#
# Static dielectric constant tensor:
#      x y z
#    x 1.693440 0.000000 0.000000 
#    y 0.000000 1.729710 0.000000 
#    z 0.000000 0.000000 1.693890 
# 
# From -- ./inp_files/40079.got.cif
#   From: 2010.05.17/outbox.cif.g08.bks.cpg/sg22_21_cif.got.tgz:40079.got - 2010.06.03 23:40:54.
