data_PCOD9328370
_publ_section_title
;
Structure prediction by ZEFSAII (Michael W. Deem and Ramdas Pophale) SiO2 
 PCOD9328370
Probable space group: F 2 2 2
;
_chemical_formula_sum "Si O2"
_cell_formula_units_Z 64
_cell_length_a 22.268784
_cell_length_b 14.313146
_cell_length_c 8.374095
_cell_angle_alpha 90.000000
_cell_angle_beta 90.000000
_cell_angle_gamma 90.000000
_cell_volume 2669.128530
_symmetry_space_group_name_H-M "F 2 2 2"
_symmetry_group_IT_number 22
_symmetry_cell_setting 'orthorhombic'
loop_
_space_group_symop_operation_xyz
x,y,z
-x,-y,z
x,-y,-z
-x,y,-z
x,1/2+y,1/2+z
-x,1/2-y,1/2+z
x,1/2-y,1/2-z
-x,1/2+y,1/2-z
1/2+x,y,1/2+z
1/2-x,-y,1/2+z
1/2+x,-y,1/2-z
1/2-x,y,1/2-z
1/2+x,1/2+y,z
1/2-x,1/2-y,z
1/2+x,1/2-y,-z
1/2-x,1/2+y,-z
loop_
_atom_site_type_symbol
_atom_site_label
_atom_site_fract_x
_atom_site_fract_y
_atom_site_fract_z
Si Si1 0.404468 0.149147 0.786788
Si Si2 0.160282 0.890322 0.963887
Si Si3 0.911727 0.250000 0.750000
Si Si4 0.500000 0.648533 0.500000
Si Si5 0.218293 0.598964 0.077524
O O1 0.430807 0.250000 0.750000
O O2 0.384034 0.120602 0.613058
O O3 0.342935 0.154516 0.889072
O O4 0.455851 0.094275 0.879316
O O5 0.128231 0.837098 0.817904
O O6 0.228545 0.853061 0.978213
O O7 0.173184 0.000000 0.000000
O O8 0.953125 0.209146 0.606947
O O9 0.250000 0.583838 0.250000
O O10 0.200146 0.500000 0.000000
#
# Coordination Sequence:
#
# PCOD9328370 Si02
#       5
#    16  16   8   8  16
#     4  11  22  44  70  92 136 182 225 283 355 412
#     4  10  23  45  71 101 139 180 223 290 362 421
#     4  12  22  46  71  98 139 186 234 292 348 418
#     4  12  24  42  68  96 136 182 238 288 337 415
#     4   9  21  41  68  98 138 174 220 288 350 422
#
# _framework density 23.977864
#
# number of rings (size 3 to 8) (size 9 to 14) (size 15 to 20)
#    0.000    1.500    3.750    0.000    0.000   10.500 
#    0.000   11.250    0.000    0.000    0.000    0.000 
#    0.000    0.000    0.000    0.000    0.000    0.000 
#
# Total GULP energy -89126.352884 kJ/mol
# GULP energy per Si atom -5570.397055 kJ/mol
# Density = 2.392329 g / cm^3
# Si number density = 23.977864 Si / 1000 Ang^3
#
#
#
# Elastic Constant Matrix: (Units=GPa)
#
#
# Indices 1 2 3 4 5 6 
#
# 1 152.6271 34.0730 72.7323 0.0000 0.0000 0.0000
# 2 34.0730 63.5502 21.7456 0.0000 0.0000 0.0000
# 3 72.7323 21.7456 91.4914 0.0000 0.0000 0.0000
# 4 0.0000 0.0000 0.0000 29.8182 0.0000 0.0000
# 5 0.0000 0.0000 0.0000 0.0000 52.7427 0.0000
# 6 0.0000 0.0000 0.0000 0.0000 0.0000 -8.1731
#
#
#
# Elastic Compliance Matrix: (Units=1/GPa)
#
#
# Indices 1 2 3 4 5 6 
#
# 1 0.011113 -0.003195 -0.008075 0.000000 0.000000 0.000000
# 2 -0.003195 0.018047 -0.001749 0.000000 0.000000 0.000000
# 3 -0.008075 -0.001749 0.017765 0.000000 0.000000 0.000000
# 4 0.000000 0.000000 0.000000 0.033537 0.000000 0.000000
# 5 0.000000 0.000000 0.000000 0.000000 0.018960 0.000000
# 6 0.000000 0.000000 0.000000 0.000000 0.000000 -0.122352
#
#
# Mechanical properties :
#
#
# Convention : Reuss Voigt Hill
#
# Bulk Modulus (GPa) = 47.87841 62.75227 55.31534
# Shear Modulus (GPa) = 496.41250 26.81874 261.61562
#
# Velocity S-wave (km/s) = 14.40413 3.34800 10.45677
# Velocity P-wave (km/s) = 17.22352 6.41663 12.99659
#
# Compressibility (1/GPa) = 0.02088624
#
# Stress axis : x y z
#
# Youngs Moduli (GPa) = 89.98125 55.40965 56.28946
#
# Poissons Ratio (x) = 0.17705 0.45455
# Poissons Ratio (y) = 0.28752 0.09847
# Poissons Ratio (z) = 0.72662 0.09693
#
# Static dielectric constant tensor:
#      x y z
#    x 1.952270 0.000000 0.000000 
#    y 0.000000 1.301900 0.000000 
#    z 0.000000 0.000000 2.017990 
# 
# From -- ./inp_files/9833.got.cif
#   From: 2010.05.17/outbox.cif.g08.bks.cpg/sg22_5_cif.got.tgz:9833.got - 2010.06.03 23:40:54.
