data_PCOD9328758
_publ_section_title
;
Structure prediction by ZEFSAII (Michael W. Deem and Ramdas Pophale) SiO2 
 PCOD9328758
Probable space group: F 2 2 2
;
_chemical_formula_sum "Si O2"
_cell_formula_units_Z 68
_cell_length_a 14.357869
_cell_length_b 30.552145
_cell_length_c 7.260893
_cell_angle_alpha 90.000000
_cell_angle_beta 90.000000
_cell_angle_gamma 90.000000
_cell_volume 3185.090157
_symmetry_space_group_name_H-M "F 2 2 2"
_symmetry_group_IT_number 22
_symmetry_cell_setting 'orthorhombic'
loop_
_space_group_symop_operation_xyz
x,y,z
-x,-y,z
x,-y,-z
-x,y,-z
x,1/2+y,1/2+z
-x,1/2-y,1/2+z
x,1/2-y,1/2-z
-x,1/2+y,1/2-z
1/2+x,y,1/2+z
1/2-x,-y,1/2+z
1/2+x,-y,1/2-z
1/2-x,y,1/2-z
1/2+x,1/2+y,z
1/2-x,1/2-y,z
1/2+x,1/2-y,-z
1/2-x,1/2+y,-z
loop_
_atom_site_type_symbol
_atom_site_label
_atom_site_fract_x
_atom_site_fract_y
_atom_site_fract_z
Si Si1 0.250000 0.750000 0.250000
Si Si2 0.142273 0.878637 0.198398
Si Si3 0.356939 0.378473 0.233145
Si Si4 0.507402 0.450589 0.222623
Si Si5 0.400093 0.806495 0.031658
O O1 0.318253 0.722881 0.384629
O O2 0.250000 0.873640 0.250000
O O3 0.104895 0.926210 0.254835
O O4 0.127077 0.870345 0.983162
O O5 0.415721 0.843418 0.187337
O O6 0.250000 0.393314 0.250000
O O7 0.426932 0.417456 0.290087
O O8 0.368993 0.334753 0.354376
O O9 0.500000 0.500000 0.290664
O O10 0.500000 0.452303 0.000000
O O11 0.500000 0.783822 0.000000
#
# Coordination Sequence:
#
# PCOD9328758 Si02
#       5
#     4  16  16  16  16
#     4  12  28  56  70 110 154 164 244 318 348 446
#     4  11  21  41  69  95 139 184 230 289 341 413
#     4  11  21  39  70  96 133 188 230 279 350 414
#     4   9  20  37  61  99 142 185 235 284 332 404
#     4  12  25  49  74 102 134 181 232 288 370 424
#
# _framework density 21.349474000000001
#
# number of rings (size 3 to 8) (size 9 to 14) (size 15 to 20)
#    0.000    1.176    5.882    0.000    0.000    0.941 
#    8.471    3.529    0.000    0.000    0.000    0.000 
#    0.000    0.000    0.000    0.000    0.000    0.000 
#
# Total GULP energy -94977.096819 kJ/mol
# GULP energy per Si atom -5586.888048 kJ/mol
# Density = 2.130088 g / cm^3
# Si number density = 21.349474 Si / 1000 Ang^3
#
#
#
# Elastic Constant Matrix: (Units=GPa)
#
#
# Indices 1 2 3 4 5 6 
#
# 1 149.2920 59.4873 23.1205 0.0000 0.0000 0.0000
# 2 59.4873 111.6023 40.9825 0.0000 0.0000 0.0000
# 3 23.1205 40.9825 132.5785 0.0000 -0.0001 0.0000
# 4 0.0000 0.0000 0.0000 -71.0765 0.0000 0.0000
# 5 0.0000 0.0000 -0.0001 0.0000 -16.1208 0.0000
# 6 0.0000 0.0000 0.0000 0.0000 0.0000 31.6706
#
#
#
# Elastic Compliance Matrix: (Units=1/GPa)
#
#
# Indices 1 2 3 4 5 6 
#
# 1 0.008506 -0.004500 -0.000092 0.000000 0.000000 0.000000
# 2 -0.004500 0.012488 -0.003076 0.000000 0.000000 0.000000
# 3 -0.000092 -0.003076 0.008510 0.000000 0.000000 0.000000
# 4 0.000000 0.000000 0.000000 -0.014069 0.000000 0.000000
# 5 0.000000 0.000000 0.000000 0.000000 -0.062032 0.000000
# 6 0.000000 0.000000 0.000000 0.000000 0.000000 0.031575
#
#
# Mechanical properties :
#
#
# Convention : Reuss Voigt Hill
#
# Bulk Modulus (GPa) = 70.58213 71.18373 70.88293
# Shear Modulus (GPa) = 992.90595 6.88682 499.89639
#
# Velocity S-wave (km/s) = 21.58894 1.79799 15.31854
# Velocity P-wave (km/s) = 25.58467 6.14206 18.60511
#
# Compressibility (1/GPa) = 0.01416789
#
# Stress axis : x y z
#
# Youngs Moduli (GPa) = 117.56969 80.07453 117.51516
#
# Poissons Ratio (x) = 0.36032 0.01085
# Poissons Ratio (y) = 0.52904 0.36144
# Poissons Ratio (z) = 0.01085 0.24628
#
# Static dielectric constant tensor:
#      x y z
#    x 1.931360 0.000000 0.000000 
#    y 0.000000 1.758150 0.000000 
#    z 0.000000 0.000000 1.816470 
# 
# From -- ./inp_files/10023.got.cif
#   From: 2010.05.17/outbox.cif.g08.bks.cpg/sg22_6_cif.got.tgz:10023.got - 2010.06.03 23:40:54.
