data_PCOD9328570
_publ_section_title
;
Structure prediction by ZEFSAII (Michael W. Deem and Ramdas Pophale) SiO2 
 PCOD9328570
Probable space group: F 2 2 2
;
_chemical_formula_sum "Si O2"
_cell_formula_units_Z 68
_cell_length_a 8.197169
_cell_length_b 19.271562
_cell_length_c 18.011719
_cell_angle_alpha 90.000000
_cell_angle_beta 90.000000
_cell_angle_gamma 90.000000
_cell_volume 2845.351788
_symmetry_space_group_name_H-M "F 2 2 2"
_symmetry_group_IT_number 22
_symmetry_cell_setting 'orthorhombic'
loop_
_space_group_symop_operation_xyz
x,y,z
-x,-y,z
x,-y,-z
-x,y,-z
x,1/2+y,1/2+z
-x,1/2-y,1/2+z
x,1/2-y,1/2-z
-x,1/2+y,1/2-z
1/2+x,y,1/2+z
1/2-x,-y,1/2+z
1/2+x,-y,1/2-z
1/2-x,y,1/2-z
1/2+x,1/2+y,z
1/2-x,1/2-y,z
1/2+x,1/2-y,-z
1/2-x,1/2+y,-z
loop_
_atom_site_type_symbol
_atom_site_label
_atom_site_fract_x
_atom_site_fract_y
_atom_site_fract_z
Si Si1 0.485353 0.582145 0.347414
Si Si2 0.143578 0.625221 0.412884
Si Si3 0.165372 0.686138 0.953586
Si Si4 0.563395 0.823912 0.279719
Si Si5 0.000000 0.000000 0.000000
O O1 0.500000 0.500000 0.357712
O O2 0.309587 0.612076 0.368757
O O3 0.615666 0.623009 0.399675
O O4 0.506794 0.607183 0.263840
O O5 0.199819 0.667737 0.485069
O O6 0.095183 0.551065 0.445716
O O7 0.007261 0.661439 0.361972
O O8 0.250000 0.750000 0.910532
O O9 0.000000 0.701112 0.000000
O O10 0.492437 0.750000 0.250000
O O11 0.750000 0.821334 0.250000
#
# Coordination Sequence:
#
# PCOD9328570 Si02
#       5
#    16  16  16  16   4
#     4  11  26  48  78 111 155 202 260 328 406 475
#     4  11  27  47  74 110 151 205 254 328 396 476
#     4  10  25  44  77 110 151 200 263 322 394 468
#     4  11  29  48  78 112 155 203 269 330 402 481
#     4  12  28  44  78 112 156 196 274 308 412 484
#
# _framework density 23.898624999999999
#
# number of rings (size 3 to 8) (size 9 to 14) (size 15 to 20)
#    0.000    1.176    0.000    2.118   19.765    4.235 
#    0.000    0.000    0.000    0.000    0.000    0.000 
#    0.000    0.000    0.000    0.000    0.000    0.000 
#
# Total GULP energy -95023.476652 kJ/mol
# GULP energy per Si atom -5589.616274 kJ/mol
# Density = 2.384423 g / cm^3
# Si number density = 23.898625 Si / 1000 Ang^3
#
#
#
# Elastic Constant Matrix: (Units=GPa)
#
#
# Indices 1 2 3 4 5 6 
#
# 1 114.6291 61.1662 73.9243 0.0000 0.0000 0.0000
# 2 61.1662 168.6707 52.6941 0.0000 0.0000 0.0000
# 3 73.9243 52.6941 137.3732 0.0000 0.0000 0.0000
# 4 0.0000 0.0000 0.0000 48.4432 0.0000 0.0000
# 5 0.0000 0.0000 0.0000 0.0000 -6.9505 0.0000
# 6 0.0000 0.0000 0.0000 0.0000 0.0000 54.8954
#
#
#
# Elastic Compliance Matrix: (Units=1/GPa)
#
#
# Indices 1 2 3 4 5 6 
#
# 1 0.014793 -0.003269 -0.006707 0.000000 0.000000 0.000000
# 2 -0.003269 0.007458 -0.001102 0.000000 0.000000 0.000000
# 3 -0.006707 -0.001102 0.011311 0.000000 0.000000 0.000000
# 4 0.000000 0.000000 0.000000 0.020643 0.000000 0.000000
# 5 0.000000 0.000000 0.000000 0.000000 -0.143874 0.000000
# 6 0.000000 0.000000 0.000000 0.000000 0.000000 0.018216
#
#
# Mechanical properties :
#
#
# Convention : Reuss Voigt Hill
#
# Bulk Modulus (GPa) = 87.66078 88.47137 88.06607
# Shear Modulus (GPa) = -109.90566 34.80351 -37.55108
#
# Velocity S-wave (km/s) = -6.78882 3.82029 -3.96822
# Velocity P-wave (km/s) = 4.96900 7.52059 3.99176
#
# Compressibility (1/GPa) = 0.01140761
#
# Stress axis : x y z
#
# Youngs Moduli (GPa) = 67.59726 134.07564 88.40929
#
# Poissons Ratio (x) = 0.43835 0.59293
# Poissons Ratio (y) = 0.22101 0.09739
# Poissons Ratio (z) = 0.45335 0.14769
#
# Static dielectric constant tensor:
#      x y z
#    x 2.066200 0.000000 0.000000 
#    y 0.000000 2.373640 0.000000 
#    z 0.000000 0.000000 2.110330 
# 
# From -- ./inp_files/41566.got.cif
#   From: 2010.05.17/outbox.cif.g08.bks.cpg/sg22_21_cif.got.tgz:41566.got - 2010.06.03 23:40:54.
