data_PCOD9328120
_publ_section_title
;
Structure prediction by ZEFSAII (Michael W. Deem and Ramdas Pophale) SiO2 
 PCOD9328120
Probable space group: F 2 2 2
;
_chemical_formula_sum "Si O2"
_cell_formula_units_Z 64
_cell_length_a 7.641754
_cell_length_b 13.638458
_cell_length_c 25.940706
_cell_angle_alpha 90.000000
_cell_angle_beta 90.000000
_cell_angle_gamma 90.000000
_cell_volume 2703.585541
_symmetry_space_group_name_H-M "F 2 2 2"
_symmetry_group_IT_number 22
_symmetry_cell_setting 'orthorhombic'
loop_
_space_group_symop_operation_xyz
x,y,z
-x,-y,z
x,-y,-z
-x,y,-z
x,1/2+y,1/2+z
-x,1/2-y,1/2+z
x,1/2-y,1/2-z
-x,1/2+y,1/2-z
1/2+x,y,1/2+z
1/2-x,-y,1/2+z
1/2+x,-y,1/2-z
1/2-x,y,1/2-z
1/2+x,1/2+y,z
1/2-x,1/2-y,z
1/2+x,1/2-y,-z
1/2-x,1/2+y,-z
loop_
_atom_site_type_symbol
_atom_site_label
_atom_site_fract_x
_atom_site_fract_y
_atom_site_fract_z
Si Si1 0.885067 0.581612 0.290395
Si Si2 0.329721 0.944510 0.130300
Si Si3 0.960058 0.253438 0.852262
Si Si4 0.386966 0.331828 0.953186
O O1 0.750000 0.625318 0.250000
O O2 0.780104 0.519725 0.334047
O O3 0.009150 0.662741 0.315515
O O4 0.000000 0.500000 0.261811
O O5 0.420191 0.848655 0.157253
O O6 0.213117 0.909772 0.082376
O O7 0.500000 0.000000 0.109785
O O8 0.750000 0.250000 0.845354
O O9 0.995013 0.224919 0.911247
O O10 0.250000 0.250000 0.972854
O O11 0.500000 0.371369 0.000000
#
# Coordination Sequence:
#
# PCOD9328120 Si02
#       4
#    16  16  16  16
#     4  12  26  47  71 105 145 188 247 303 363 431
#     4  11  23  46  73 104 145 191 241 298 359 434
#     4  11  23  43  75  99 141 188 231 295 364 426
#     4  10  22  43  77 104 140 185 236 295 362 435
#
# _framework density 23.672269
#
# number of rings (size 3 to 8) (size 9 to 14) (size 15 to 20)
#    0.000    1.000    5.000    1.500    0.000    0.500 
#    0.000    3.750   27.500    0.000    0.000    0.000 
#    0.000    0.000    0.000    0.000    0.000    0.000 
#
# Total GULP energy -89435.105147 kJ/mol
# GULP energy per Si atom -5589.694072 kJ/mol
# Density = 2.361839 g / cm^3
# Si number density = 23.672269 Si / 1000 Ang^3
#
#
#
# Elastic Constant Matrix: (Units=GPa)
#
#
# Indices 1 2 3 4 5 6 
#
# 1 101.1624 45.3490 41.8861 0.0000 0.0000 0.0000
# 2 45.3490 133.0576 56.7406 0.0000 0.0000 0.0000
# 3 41.8861 56.7406 93.4464 0.0000 0.0000 0.0000
# 4 0.0000 0.0000 0.0000 10.4165 0.0000 0.0000
# 5 0.0000 0.0000 0.0000 0.0000 41.3888 0.0000
# 6 0.0000 0.0000 0.0000 0.0000 0.0000 39.8178
#
#
#
# Elastic Compliance Matrix: (Units=1/GPa)
#
#
# Indices 1 2 3 4 5 6 
#
# 1 0.012761 -0.002577 -0.004155 0.000000 0.000000 0.000000
# 2 -0.002577 0.010662 -0.005319 0.000000 0.000000 0.000000
# 3 -0.004155 -0.005319 0.015793 0.000000 0.000000 0.000000
# 4 0.000000 0.000000 0.000000 0.096002 0.000000 0.000000
# 5 0.000000 0.000000 0.000000 0.000000 0.024161 0.000000
# 6 0.000000 0.000000 0.000000 0.000000 0.000000 0.025114
#
#
# Mechanical properties :
#
#
# Convention : Reuss Voigt Hill
#
# Bulk Modulus (GPa) = 66.16328 68.40199 67.28264
# Shear Modulus (GPa) = 23.40456 30.57065 26.98761
#
# Velocity S-wave (km/s) = 3.14776 3.59752 3.38013
# Velocity P-wave (km/s) = 6.42040 6.79811 6.61195
#
# Compressibility (1/GPa) = 0.01511412
#
# Stress axis : x y z
#
# Youngs Moduli (GPa) = 78.36500 93.79037 63.31823
#
# Poissons Ratio (x) = 0.24173 0.26308
# Poissons Ratio (y) = 0.20198 0.33677
# Poissons Ratio (z) = 0.32560 0.49885
#
# Static dielectric constant tensor:
#      x y z
#    x 2.000980 0.000000 0.000000 
#    y 0.000000 2.008770 0.000000 
#    z 0.000000 0.000000 1.815370 
# 
# From -- ./inp_files/9810.got.cif
#   From: 2010.05.17/outbox.cif.g08.bks.cpg/sg22_5_cif.got.tgz:9810.got - 2010.06.03 23:40:54.
