data_PCOD9328302
_publ_section_title
;
Structure prediction by ZEFSAII (Michael W. Deem and Ramdas Pophale) SiO2 
 PCOD9328302
Probable space group: F 2 2 2
;
_chemical_formula_sum "Si O2"
_cell_formula_units_Z 120
_cell_length_a 23.716542
_cell_length_b 11.427049
_cell_length_c 22.153312
_cell_angle_alpha 90.000000
_cell_angle_beta 90.000000
_cell_angle_gamma 90.000000
_cell_volume 6003.771025
_symmetry_space_group_name_H-M "F 2 2 2"
_symmetry_group_IT_number 22
_symmetry_cell_setting 'orthorhombic'
loop_
_space_group_symop_operation_xyz
x,y,z
-x,-y,z
x,-y,-z
-x,y,-z
x,1/2+y,1/2+z
-x,1/2-y,1/2+z
x,1/2-y,1/2-z
-x,1/2+y,1/2-z
1/2+x,y,1/2+z
1/2-x,-y,1/2+z
1/2+x,-y,1/2-z
1/2-x,y,1/2-z
1/2+x,1/2+y,z
1/2-x,1/2-y,z
1/2+x,1/2-y,-z
1/2-x,1/2+y,-z
loop_
_atom_site_type_symbol
_atom_site_label
_atom_site_fract_x
_atom_site_fract_y
_atom_site_fract_z
Si Si1 0.763183 0.612095 0.867141
Si Si2 0.158118 0.942444 0.061044
Si Si3 0.063364 0.508992 0.154629
Si Si4 0.443931 0.921062 0.613530
Si Si5 0.250000 0.474456 0.250000
Si Si6 0.126591 0.885803 0.763542
Si Si7 0.127206 0.830890 0.431430
Si Si8 0.947054 0.828299 0.455035
O O1 0.750000 0.750000 0.861435
O O2 0.708431 0.546567 0.891804
O O3 0.773702 0.556937 0.802647
O O4 0.815873 0.602461 0.912273
O O5 0.141661 0.806421 0.065438
O O6 0.101262 0.010767 0.073693
O O7 0.180684 0.000000 0.000000
O O8 0.104400 0.463542 0.207162
O O9 0.083484 0.629819 0.121969
O O10 0.060012 0.421332 0.097876
O O11 0.000000 0.500000 0.180430
O O12 0.411938 0.910554 0.677788
O O13 0.452320 0.797009 0.579056
O O14 0.500000 0.000000 0.618496
O O15 0.194119 0.404765 0.271273
O O16 0.117536 0.750000 0.750000
O O17 0.103892 0.850369 0.498336
O O18 0.000000 0.842929 0.500000
#
# Coordination Sequence:
#
# PCOD9328302 Si02
#       8
#    16  16  16  16   8  16  16  16
#     4  10  23  42  68  97 133 175 233 285 349 419
#     4  11  23  42  67  98 138 173 227 290 347 424
#     4  12  25  43  68  98 141 183 229 285 344 426
#     4  12  26  44  70 104 138 186 233 289 367 424
#     4  12  22  46  72  94 130 186 238 292 356 418
#     4  12  26  48  69  99 138 183 244 300 351 423
#     4  11  23  41  66 104 131 182 225 284 350 420
#     4  12  24  42  70 102 140 179 232 282 355 438
#
# _framework density 19.987437
#
# number of rings (size 3 to 8) (size 9 to 14) (size 15 to 20)
#    0.000    0.533    6.667    2.000    0.000    1.067 
#    0.000    0.667    0.000    0.000    0.000    0.000 
#    0.000    0.000    0.000    0.000    0.000    0.000 
#
# Total GULP energy -167340.309349 kJ/mol
# GULP energy per Si atom -5578.010312 kJ/mol
# Density = 1.994194 g / cm^3
# Si number density = 19.987437 Si / 1000 Ang^3
#
#
#
# Elastic Constant Matrix: (Units=GPa)
#
#
# Indices 1 2 3 4 5 6 
#
# 1 80.9095 8.1052 15.9037 0.0000 0.0000 0.0000
# 2 8.1052 59.3834 30.9325 0.0000 0.0000 0.0000
# 3 15.9037 30.9325 100.4368 0.0000 0.0000 0.0000
# 4 0.0000 0.0000 0.0000 24.0916 0.0000 0.0000
# 5 0.0000 0.0000 0.0000 0.0000 42.2577 0.0000
# 6 0.0000 0.0000 0.0000 0.0000 0.0000 20.4374
#
#
#
# Elastic Compliance Matrix: (Units=1/GPa)
#
#
# Indices 1 2 3 4 5 6 
#
# 1 0.012790 -0.000823 -0.001772 0.000000 0.000000 0.000000
# 2 -0.000823 0.020110 -0.006063 0.000000 0.000000 0.000000
# 3 -0.001772 -0.006063 0.012104 0.000000 0.000000 0.000000
# 4 0.000000 0.000000 0.000000 0.041508 0.000000 0.000000
# 5 0.000000 0.000000 0.000000 0.000000 0.023664 0.000000
# 6 0.000000 0.000000 0.000000 0.000000 0.000000 0.048930
#
#
# Mechanical properties :
#
#
# Convention : Reuss Voigt Hill
#
# Bulk Modulus (GPa) = 36.11527 38.95696 37.53612
# Shear Modulus (GPa) = 26.93196 29.74323 28.33759
#
# Velocity S-wave (km/s) = 3.67474 3.86177 3.76941
# Velocity P-wave (km/s) = 6.00942 6.27833 6.14534
#
# Compressibility (1/GPa) = 0.02768912
#
# Stress axis : x y z
#
# Youngs Moduli (GPa) = 78.18492 49.72558 82.61416
#
# Poissons Ratio (x) = 0.04091 0.14638
# Poissons Ratio (y) = 0.06433 0.50092
# Poissons Ratio (z) = 0.13853 0.30150
#
# Static dielectric constant tensor:
#      x y z
#    x 1.843100 0.000000 0.000000 
#    y 0.000000 1.774830 0.000000 
#    z 0.000000 0.000000 1.734260 
# 
# From -- ./inp_files/45417.got.cif
#   From: 2010.05.17/outbox.cif.g08.bks.cpg/sg22_23_cif.got.tgz:45417.got - 2010.06.03 23:40:54.
