data_PCOD9328038
_publ_section_title
;
Structure prediction by ZEFSAII (Michael W. Deem and Ramdas Pophale) SiO2 
 PCOD9328038
Probable space group: F 2 2 2
;
_chemical_formula_sum "Si O2"
_cell_formula_units_Z 88
_cell_length_a 11.208745
_cell_length_b 21.080591
_cell_length_c 18.579038
_cell_angle_alpha 90.000000
_cell_angle_beta 90.000000
_cell_angle_gamma 90.000000
_cell_volume 4389.984575
_symmetry_space_group_name_H-M "F 2 2 2"
_symmetry_group_IT_number 22
_symmetry_cell_setting 'orthorhombic'
loop_
_space_group_symop_operation_xyz
x,y,z
-x,-y,z
x,-y,-z
-x,y,-z
x,1/2+y,1/2+z
-x,1/2-y,1/2+z
x,1/2-y,1/2-z
-x,1/2+y,1/2-z
1/2+x,y,1/2+z
1/2-x,-y,1/2+z
1/2+x,-y,1/2-z
1/2-x,y,1/2-z
1/2+x,1/2+y,z
1/2-x,1/2-y,z
1/2+x,1/2-y,-z
1/2-x,1/2+y,-z
loop_
_atom_site_type_symbol
_atom_site_label
_atom_site_fract_x
_atom_site_fract_y
_atom_site_fract_z
Si Si1 0.635968 0.203571 0.852913
Si Si2 0.750000 0.390905 0.750000
Si Si3 0.635488 0.375914 0.500000
Si Si4 0.364032 0.796429 0.147087
Si Si5 0.367374 0.500000 0.160234
Si Si6 0.798642 0.500000 0.500000
Si Si7 0.250000 0.609095 0.250000
O O1 0.750000 0.250000 0.846993
O O2 0.652835 0.153538 0.788224
O O3 0.649671 0.166941 0.928846
O O4 0.500000 0.230543 0.850571
O O5 0.697771 0.437598 0.810338
O O6 0.500000 0.400160 0.500000
O O7 0.649671 0.333059 0.428846
O O8 0.720634 0.436083 0.500000
O O9 0.250000 0.750000 0.153008
O O10 0.347165 0.846462 0.211776
O O11 0.500000 0.500000 0.190628
O O12 0.302229 0.562402 0.189662
O O13 0.368439 0.500000 0.074569
#
# Coordination Sequence:
#
# PCOD9328038 Si02
#       7
#    16   8  16  16  16   8   8
#     4  11  24  43  67  94 128 171 216 265 315 376
#     4  11  23  42  64  92 133 165 214 258 320 387
#     4  10  22  42  66  94 124 162 217 262 316 380
#     4  11  24  43  67  94 128 171 216 265 315 376
#     4  11  24  40  63  96 130 166 209 264 322 377
#     4  12  20  44  66  92 122 168 208 264 316 384
#     4  11  23  42  64  92 133 165 214 258 320 387
#
# _framework density 20.045629000000002
#
# number of rings (size 3 to 8) (size 9 to 14) (size 15 to 20)
#    0.000    1.091    3.636    2.727    0.000    4.364 
#    0.000    0.000    0.000    0.000    0.000    0.000 
#    0.000    0.000    0.000    0.000    0.000    0.000 
#
# Total GULP energy -122860.285924 kJ/mol
# GULP energy per Si atom -5584.558451 kJ/mol
# Density = 2.000000 g / cm^3
# Si number density = 20.045629 Si / 1000 Ang^3
#
#
#
# Elastic Constant Matrix: (Units=GPa)
#
#
# Indices 1 2 3 4 5 6 
#
# 1 149.2000 66.6088 23.4662 0.0000 0.0000 0.0000
# 2 66.6088 78.2781 23.8600 0.0000 0.0000 0.0000
# 3 23.4662 23.8600 120.6021 0.0000 0.0000 0.0000
# 4 0.0000 0.0000 0.0000 45.4917 0.0000 0.0000
# 5 0.0000 0.0000 0.0000 0.0000 14.9200 0.0000
# 6 0.0000 0.0000 0.0000 0.0000 0.0000 60.5887
#
#
#
# Elastic Compliance Matrix: (Units=1/GPa)
#
#
# Indices 1 2 3 4 5 6 
#
# 1 0.010819 -0.009114 -0.000302 0.000000 0.000000 0.000000
# 2 -0.009114 0.021272 -0.002435 0.000000 0.000000 0.000000
# 3 -0.000302 -0.002435 0.008832 0.000000 0.000000 0.000000
# 4 0.000000 0.000000 0.000000 0.021982 0.000000 0.000000
# 5 0.000000 0.000000 0.000000 0.000000 0.067024 0.000000
# 6 0.000000 0.000000 0.000000 0.000000 0.000000 0.016505
#
#
# Mechanical properties :
#
#
# Convention : Reuss Voigt Hill
#
# Bulk Modulus (GPa) = 58.06752 63.99447 61.03099
# Shear Modulus (GPa) = 28.42902 39.80978 34.11940
#
# Velocity S-wave (km/s) = 3.77001 4.46124 4.13011
# Velocity P-wave (km/s) = 6.92684 7.65053 7.29766
#
# Compressibility (1/GPa) = 0.01722133
#
# Stress axis : x y z
#
# Youngs Moduli (GPa) = 92.43273 47.00918 113.22119
#
# Poissons Ratio (x) = 0.42843 0.03419
# Poissons Ratio (y) = 0.84242 0.27572
# Poissons Ratio (z) = 0.02791 0.11448
#
# Static dielectric constant tensor:
#      x y z
#    x 1.678500 0.000000 0.000000 
#    y 0.000000 1.694180 0.000000 
#    z 0.000000 0.000000 1.697450 
# 
# From -- ./inp_files/36103.got.cif
#   From: 2010.05.17/outbox.cif.g08.bks.cpg/sg22_19_cif.got.tgz:36103.got - 2010.06.03 23:40:54.
