data_PCOD9328096
_publ_section_title
;
Structure prediction by ZEFSAII (Michael W. Deem and Ramdas Pophale) SiO2 
 PCOD9328096
Probable space group: F 2 2 2
;
_chemical_formula_sum "Si O2"
_cell_formula_units_Z 128
_cell_length_a 11.233081
_cell_length_b 23.032395
_cell_length_c 25.369823
_cell_angle_alpha 90.000000
_cell_angle_beta 90.000000
_cell_angle_gamma 90.000000
_cell_volume 6563.801333
_symmetry_space_group_name_H-M "F 2 2 2"
_symmetry_group_IT_number 22
_symmetry_cell_setting 'orthorhombic'
loop_
_space_group_symop_operation_xyz
x,y,z
-x,-y,z
x,-y,-z
-x,y,-z
x,1/2+y,1/2+z
-x,1/2-y,1/2+z
x,1/2-y,1/2-z
-x,1/2+y,1/2-z
1/2+x,y,1/2+z
1/2-x,-y,1/2+z
1/2+x,-y,1/2-z
1/2-x,y,1/2-z
1/2+x,1/2+y,z
1/2-x,1/2-y,z
1/2+x,1/2-y,-z
1/2-x,1/2+y,-z
loop_
_atom_site_type_symbol
_atom_site_label
_atom_site_fract_x
_atom_site_fract_y
_atom_site_fract_z
Si Si1 0.887187 0.259759 0.186959
Si Si2 0.420999 0.554451 0.207440
Si Si3 0.888951 0.320001 0.960219
Si Si4 0.333673 0.468387 0.672685
Si Si5 0.788568 0.596074 0.192923
Si Si6 0.562722 0.658376 0.156751
Si Si7 0.993142 0.872733 0.642396
Si Si8 0.389582 0.820009 0.539329
O O1 0.894880 0.250000 0.250000
O O2 0.750000 0.250000 0.172445
O O3 0.907624 0.322459 0.161790
O O4 0.990893 0.217957 0.164600
O O5 0.500000 0.500000 0.189395
O O6 0.391182 0.541532 0.268868
O O7 0.296279 0.558469 0.177526
O O8 0.490603 0.611406 0.190642
O O9 0.749949 0.334531 0.975223
O O10 0.889654 0.250099 0.952340
O O11 0.927261 0.352982 0.906872
O O12 0.000000 0.332201 0.000000
O O13 0.308402 0.536121 0.660738
O O14 0.420101 0.432142 0.635043
O O15 0.750000 0.574536 0.250000
O O16 0.697128 0.645960 0.176179
O O17 0.917922 0.622406 0.191717
O O18 0.575703 0.649691 0.094239
O O19 0.500000 0.832396 0.500000
#
# Coordination Sequence:
#
# PCOD9328096 Si02
#       8
#    16  16  16  16  16  16  16  16
#     4  11  24  40  55  89 140 179 211 257 329 408
#     4  11  20  37  58  87 125 172 225 265 308 377
#     4  10  22  43  67  95 128 167 219 281 344 413
#     4  11  22  37  59  90 129 175 226 267 308 381
#     4  12  22  38  63  95 132 172 222 266 315 388
#     4  12  22  38  64  93 129 171 216 272 332 392
#     4  12  23  38  62  94 131 171 216 271 332 396
#     4  10  22  43  67  95 129 166 219 283 340 414
#
# _framework density 19.500895
#
# number of rings (size 3 to 8) (size 9 to 14) (size 15 to 20)
#    0.000    0.875    5.000    4.125    0.000    4.500 
#    0.000    1.250    0.000    1.875    0.000    0.000 
#    0.000    0.000    0.000    0.000    0.000    0.000 
#
# Total GULP energy -178236.642818 kJ/mol
# GULP energy per Si atom -5569.895088 kJ/mol
# Density = 1.945651 g / cm^3
# Si number density = 19.500895 Si / 1000 Ang^3
#
#
#
# Elastic Constant Matrix: (Units=GPa)
#
#
# Indices 1 2 3 4 5 6 
#
# 1 168.7790 30.6049 39.0756 0.0000 0.0000 0.0000
# 2 30.6049 47.0803 10.5093 0.0000 0.0000 0.0000
# 3 39.0756 10.5093 50.6807 0.0000 0.0000 0.0000
# 4 0.0000 0.0000 0.0000 12.9835 0.0000 0.0000
# 5 0.0000 0.0000 0.0000 0.0000 25.6867 0.0000
# 6 0.0000 0.0000 0.0000 0.0000 0.0000 34.9114
#
#
#
# Elastic Compliance Matrix: (Units=1/GPa)
#
#
# Indices 1 2 3 4 5 6 
#
# 1 0.007851 -0.003934 -0.005237 0.000000 0.000000 0.000000
# 2 -0.003934 0.024243 -0.001994 0.000000 0.000000 0.000000
# 3 -0.005237 -0.001994 0.024183 0.000000 0.000000 0.000000
# 4 0.000000 0.000000 0.000000 0.077021 0.000000 0.000000
# 5 0.000000 0.000000 0.000000 0.000000 0.038931 0.000000
# 6 0.000000 0.000000 0.000000 0.000000 0.000000 0.028644
#
#
# Mechanical properties :
#
#
# Convention : Reuss Voigt Hill
#
# Bulk Modulus (GPa) = 29.45854 47.43552 38.44703
# Shear Modulus (GPa) = 21.32033 27.13967 24.23000
#
# Velocity S-wave (km/s) = 3.31010 3.73462 3.52875
# Velocity P-wave (km/s) = 5.45418 6.55546 6.03001
#
# Compressibility (1/GPa) = 0.03394601
#
# Stress axis : x y z
#
# Youngs Moduli (GPa) = 127.37422 41.24909 41.35168
#
# Poissons Ratio (x) = 0.16229 0.21657
# Poissons Ratio (y) = 0.50115 0.08244
# Poissons Ratio (z) = 0.66710 0.08223
#
# Static dielectric constant tensor:
#      x y z
#    x 1.586030 0.000000 0.000000 
#    y 0.000000 1.689490 0.000000 
#    z 0.000000 0.000000 1.698290 
# 
# From -- ./inp_files/48394.got.cif
#   From: 2010.05.17/outbox.cif.g08.bks.cpg/sg22_25_cif.got.tgz:48394.got - 2010.06.03 23:40:54.
