data_PCOD9328243
_publ_section_title
;
Structure prediction by ZEFSAII (Michael W. Deem and Ramdas Pophale) SiO2 
 PCOD9328243
Probable space group: F 2 2 2
;
_chemical_formula_sum "Si O2"
_cell_formula_units_Z 56
_cell_length_a 8.346936
_cell_length_b 13.327467
_cell_length_c 21.941778
_cell_angle_alpha 90.000000
_cell_angle_beta 90.000000
_cell_angle_gamma 90.000000
_cell_volume 2440.880490
_symmetry_space_group_name_H-M "F 2 2 2"
_symmetry_group_IT_number 22
_symmetry_cell_setting 'orthorhombic'
loop_
_space_group_symop_operation_xyz
x,y,z
-x,-y,z
x,-y,-z
-x,y,-z
x,1/2+y,1/2+z
-x,1/2-y,1/2+z
x,1/2-y,1/2-z
-x,1/2+y,1/2-z
1/2+x,y,1/2+z
1/2-x,-y,1/2+z
1/2+x,-y,1/2-z
1/2-x,y,1/2-z
1/2+x,1/2+y,z
1/2-x,1/2-y,z
1/2+x,1/2-y,-z
1/2-x,1/2+y,-z
loop_
_atom_site_type_symbol
_atom_site_label
_atom_site_fract_x
_atom_site_fract_y
_atom_site_fract_z
Si Si1 0.750000 0.750000 0.250000
Si Si2 0.000000 0.377770 0.569543
Si Si3 0.672038 0.380197 0.637972
Si Si4 0.750000 0.250000 0.250000
Si Si5 0.827962 0.119803 0.362028
O O1 0.666565 0.675090 0.297335
O O2 0.835527 0.349391 0.603766
O O3 0.000000 0.500000 0.568133
O O4 0.000000 0.342251 0.500000
O O5 0.164473 0.349391 0.603766
O O6 0.500000 0.361679 0.605873
O O7 0.683513 0.500000 0.647059
O O8 0.833435 0.175090 0.297335
#
# Coordination Sequence:
#
# PCOD9328243 Si02
#       5
#     4  16  16   4  16
#     4  12  24  40  64  92 132 162 204 254 310 368
#     4   9  20  41  66  90 121 162 208 256 305 361
#     4  10  23  40  62  94 126 162 205 252 308 368
#     4  12  24  40  64  92 132 162 204 254 310 368
#     4  10  23  40  62  94 126 162 205 252 308 368
#
# _framework density 22.942539
#
# number of rings (size 3 to 8) (size 9 to 14) (size 15 to 20)
#    0.000    2.000    0.000    1.714    8.000    1.143 
#    0.000    7.143    0.000    0.000    0.000    0.000 
#    0.000    0.000    0.000    0.000    0.000    0.000 
#
# Total GULP energy -78127.962990 kJ/mol
# GULP energy per Si atom -5580.568785 kJ/mol
# Density = 2.289032 g / cm^3
# Si number density = 22.942539 Si / 1000 Ang^3
#
#
#
# Elastic Constant Matrix: (Units=GPa)
#
#
# Indices 1 2 3 4 5 6 
#
# 1 276.8967 69.1398 121.3912 0.0000 0.0000 0.0000
# 2 69.1398 97.4448 29.4854 0.0000 0.0000 0.0000
# 3 121.3912 29.4854 144.1030 0.0000 0.0000 0.0000
# 4 0.0000 0.0000 0.0000 29.5190 0.0000 0.0000
# 5 0.0000 0.0000 0.0000 0.0000 -15.7610 0.0000
# 6 0.0000 0.0000 0.0000 0.0000 0.0000 17.2965
#
#
#
# Elastic Compliance Matrix: (Units=1/GPa)
#
#
# Indices 1 2 3 4 5 6 
#
# 1 0.006529 -0.003164 -0.004852 0.000000 0.000000 0.000000
# 2 -0.003164 0.012473 0.000113 0.000000 0.000000 0.000000
# 3 -0.004852 0.000113 0.011004 0.000000 0.000000 0.000000
# 4 0.000000 0.000000 0.000000 0.033876 0.000000 0.000000
# 5 0.000000 0.000000 0.000000 0.000000 -0.063448 0.000000
# 6 0.000000 0.000000 0.000000 0.000000 0.000000 0.057815
#
#
# Mechanical properties :
#
#
# Convention : Reuss Voigt Hill
#
# Bulk Modulus (GPa) = 70.42627 106.49749 88.46188
# Shear Modulus (GPa) = 63.46041 26.10610 44.78325
#
# Velocity S-wave (km/s) = 5.26504 3.37692 4.42291
# Velocity P-wave (km/s) = 8.22948 7.85651 8.04516
#
# Compressibility (1/GPa) = 0.01419925
#
# Stress axis : x y z
#
# Youngs Moduli (GPa) = 153.16761 80.17340 90.87679
#
# Poissons Ratio (x) = 0.25368 0.44097
# Poissons Ratio (y) = 0.48464 -0.01029
# Poissons Ratio (z) = 0.74323 -0.00908
#
# Static dielectric constant tensor:
#      x y z
#    x 1.933320 0.000000 0.000000 
#    y 0.000000 1.890480 0.000000 
#    z 0.000000 0.000000 1.764320 
# 
# From -- ./inp_files/46950.got.cif
#   From: 2010.05.17/outbox.cif.g08.bks.cpg/sg22_24_cif.got.tgz:46950.got - 2010.06.03 23:40:54.
