data_PCOD9328733
_publ_section_title
;
Structure prediction by ZEFSAII (Michael W. Deem and Ramdas Pophale) SiO2 
 PCOD9328733
Probable space group: F 2 2 2
;
_chemical_formula_sum "Si O2"
_cell_formula_units_Z 88
_cell_length_a 13.763609
_cell_length_b 12.698591
_cell_length_c 23.413231
_cell_angle_alpha 90.000000
_cell_angle_beta 90.000000
_cell_angle_gamma 90.000000
_cell_volume 4092.128022
_symmetry_space_group_name_H-M "F 2 2 2"
_symmetry_group_IT_number 22
_symmetry_cell_setting 'orthorhombic'
loop_
_space_group_symop_operation_xyz
x,y,z
-x,-y,z
x,-y,-z
-x,y,-z
x,1/2+y,1/2+z
-x,1/2-y,1/2+z
x,1/2-y,1/2-z
-x,1/2+y,1/2-z
1/2+x,y,1/2+z
1/2-x,-y,1/2+z
1/2+x,-y,1/2-z
1/2-x,y,1/2-z
1/2+x,1/2+y,z
1/2-x,1/2-y,z
1/2+x,1/2-y,-z
1/2-x,1/2+y,-z
loop_
_atom_site_type_symbol
_atom_site_label
_atom_site_fract_x
_atom_site_fract_y
_atom_site_fract_z
Si Si1 0.549874 0.743964 0.872902
Si Si2 0.816254 0.054021 0.374449
Si Si3 0.750000 0.077096 0.250000
Si Si4 0.085712 0.750000 0.250000
Si Si5 0.578301 0.886865 0.052236
Si Si6 0.250000 0.750000 0.992049
Si Si7 0.871030 0.078077 0.052209
O O1 0.645077 0.823812 0.874839
O O2 0.523381 0.754536 0.806730
O O3 0.468179 0.797449 0.909689
O O4 0.559786 0.626354 0.898545
O O5 0.786053 0.024343 0.309359
O O6 0.721471 0.038490 0.412782
O O7 0.897773 0.986671 0.407277
O O8 0.841442 0.153068 0.236782
O O9 0.684138 0.842959 0.034425
O O10 0.500000 0.897588 0.000000
O O11 0.166119 0.814127 0.023823
O O12 0.897746 0.000000 0.000000
#
# Coordination Sequence:
#
# PCOD9328733 Si02
#       7
#    16  16   8   8  16   8  16
#     4  11  22  39  63  98 132 175 227 287 337 411
#     4  11  21  36  66  99 135 174 226 287 346 419
#     4   9  18  34  60  97 130 174 226 285 348 405
#     4   9  18  36  64  89 132 176 226 287 338 401
#     4  12  25  42  66 100 137 177 233 291 356 425
#     4  12  24  40  58  98 136 176 212 286 350 416
#     4  12  21  37  65  96 138 174 218 269 356 417
#
# _framework density 21.504702999999999
#
# number of rings (size 3 to 8) (size 9 to 14) (size 15 to 20)
#    0.000    0.909    7.273    0.545    0.000    2.182 
#    0.000    3.636    0.000    2.182    0.000    0.000 
#    0.000    0.000    0.000    0.000    0.000    0.000 
#
# Total GULP energy -122479.707602 kJ/mol
# GULP energy per Si atom -5567.259436 kJ/mol
# Density = 2.145576 g / cm^3
# Si number density = 21.504703 Si / 1000 Ang^3
#
#
#
# Elastic Constant Matrix: (Units=GPa)
#
#
# Indices 1 2 3 4 5 6 
#
# 1 45.3017 7.2514 30.8917 0.0000 0.0000 0.0000
# 2 7.2514 72.6543 49.0023 0.0000 0.0000 0.0000
# 3 30.8917 49.0023 171.0916 0.0000 0.0000 0.0000
# 4 0.0000 0.0000 0.0000 38.2987 0.0000 0.0000
# 5 0.0000 0.0000 0.0000 0.0000 36.2482 0.0000
# 6 0.0000 0.0000 0.0000 0.0000 0.0000 18.9680
#
#
#
# Elastic Compliance Matrix: (Units=1/GPa)
#
#
# Indices 1 2 3 4 5 6 
#
# 1 0.025201 0.000686 -0.004747 0.000000 0.000000 0.000000
# 2 0.000686 0.017078 -0.005015 0.000000 0.000000 0.000000
# 3 -0.004747 -0.005015 0.008138 0.000000 0.000000 0.000000
# 4 0.000000 0.000000 0.000000 0.026111 0.000000 0.000000
# 5 0.000000 0.000000 0.000000 0.000000 0.027588 0.000000
# 6 0.000000 0.000000 0.000000 0.000000 0.000000 0.052720
#
#
# Mechanical properties :
#
#
# Convention : Reuss Voigt Hill
#
# Bulk Modulus (GPa) = 30.99242 51.48205 41.23724
# Shear Modulus (GPa) = 26.91898 32.16314 29.54106
#
# Velocity S-wave (km/s) = 3.54188 3.87154 3.71037
# Velocity P-wave (km/s) = 5.58299 6.63151 6.12971
#
# Compressibility (1/GPa) = 0.03226595
#
# Stress axis : x y z
#
# Youngs Moduli (GPa) = 39.68052 58.55546 122.87616
#
# Poissons Ratio (x) = -0.04018 0.58327
# Poissons Ratio (y) = -0.02723 0.61624
# Poissons Ratio (z) = 0.18836 0.29367
#
# Static dielectric constant tensor:
#      x y z
#    x 1.031060 0.000000 0.000000 
#    y 0.000000 1.794810 0.000000 
#    z 0.000000 0.000000 1.879180 
# 
# From -- ./inp_files/28243.got.cif
#   From: 2010.05.17/outbox.cif.g08.bks.cpg/sg22_15_cif.got.tgz:28243.got - 2010.06.03 23:40:54.
