data_PCOD9328831
_publ_section_title
;
Structure prediction by ZEFSAII (Michael W. Deem and Ramdas Pophale) SiO2 
 PCOD9328831
Probable space group: F 2 2 2
;
_chemical_formula_sum "Si O2"
_cell_formula_units_Z 64
_cell_length_a 15.859860
_cell_length_b 8.906172
_cell_length_c 21.519919
_cell_angle_alpha 90.000000
_cell_angle_beta 90.000000
_cell_angle_gamma 90.000000
_cell_volume 3039.702354
_symmetry_space_group_name_H-M "F 2 2 2"
_symmetry_group_IT_number 22
_symmetry_cell_setting 'orthorhombic'
loop_
_space_group_symop_operation_xyz
x,y,z
-x,-y,z
x,-y,-z
-x,y,-z
x,1/2+y,1/2+z
-x,1/2-y,1/2+z
x,1/2-y,1/2-z
-x,1/2+y,1/2-z
1/2+x,y,1/2+z
1/2-x,-y,1/2+z
1/2+x,-y,1/2-z
1/2-x,y,1/2-z
1/2+x,1/2+y,z
1/2-x,1/2-y,z
1/2+x,1/2-y,-z
1/2-x,1/2+y,-z
loop_
_atom_site_type_symbol
_atom_site_label
_atom_site_fract_x
_atom_site_fract_y
_atom_site_fract_z
Si Si1 0.492059 0.331522 0.634779
Si Si2 0.835836 0.186977 0.819482
Si Si3 0.000000 0.749563 0.000000
Si Si4 0.863438 0.000000 0.000000
Si Si5 0.326649 0.864252 0.365376
O O1 0.500000 0.500000 0.661430
O O2 0.578030 0.244221 0.649921
O O3 0.479925 0.343095 0.560608
O O4 0.411544 0.228874 0.650390
O O5 0.838309 0.250000 0.750000
O O6 0.750000 0.250000 0.850412
O O7 0.672755 0.491430 0.821450
O O8 0.923653 0.860967 0.017391
O O9 0.822192 0.937191 0.935968
O O10 0.250000 0.750000 0.358170
#
# Coordination Sequence:
#
# PCOD9328831 Si02
#       5
#    16  16   8   8  16
#     4  11  22  40  65 100 137 181 228 283 350 409
#     4  11  25  46  69  97 134 184 239 294 344 410
#     4   9  17  36  62  94 136 178 220 274 340 412
#     4   9  18  36  64  96 137 182 216 285 342 414
#     4  11  23  43  68 102 141 182 236 288 355 420
#
# _framework density 21.054693
#
# number of rings (size 3 to 8) (size 9 to 14) (size 15 to 20)
#    0.000    1.500    2.500    2.625    0.000    3.000 
#    9.000    7.500    0.000    0.000    0.000    0.000 
#    0.000    0.000    0.000    0.000    0.000    0.000 
#
# Total GULP energy -89210.534919 kJ/mol
# GULP energy per Si atom -5575.658432 kJ/mol
# Density = 2.100677 g / cm^3
# Si number density = 21.054693 Si / 1000 Ang^3
#
#
#
# Elastic Constant Matrix: (Units=GPa)
#
#
# Indices 1 2 3 4 5 6 
#
# 1 178.6883 88.2044 24.6673 0.0000 0.0000 0.0000
# 2 88.2044 204.8352 40.4024 0.0000 0.0000 0.0000
# 3 24.6673 40.4024 61.3127 0.0000 0.0000 0.0000
# 4 0.0000 0.0000 0.0000 34.5876 0.0000 0.0000
# 5 0.0000 0.0000 0.0000 0.0000 9.3327 0.0000
# 6 0.0000 0.0000 0.0000 0.0000 0.0000 2.3939
#
#
#
# Elastic Compliance Matrix: (Units=1/GPa)
#
#
# Indices 1 2 3 4 5 6 
#
# 1 0.007157 -0.002890 -0.000975 0.000000 0.000000 0.000000
# 2 -0.002890 0.006778 -0.003304 0.000000 0.000000 0.000000
# 3 -0.000975 -0.003304 0.018879 0.000000 0.000000 0.000000
# 4 0.000000 0.000000 0.000000 0.028912 0.000000 0.000000
# 5 0.000000 0.000000 0.000000 0.000000 0.107150 0.000000
# 6 0.000000 0.000000 0.000000 0.000000 0.000000 0.417732
#
#
# Mechanical properties :
#
#
# Convention : Reuss Voigt Hill
#
# Bulk Modulus (GPa) = 54.12157 83.48716 68.80437
# Shear Modulus (GPa) = 8.23580 28.70032 18.46806
#
# Velocity S-wave (km/s) = 1.97993 3.69607 2.96488
# Velocity P-wave (km/s) = 5.56667 7.61270 6.66862
#
# Compressibility (1/GPa) = 0.01847692
#
# Stress axis : x y z
#
# Youngs Moduli (GPa) = 139.71579 147.53725 52.96804
#
# Poissons Ratio (x) = 0.42633 0.05166
# Poissons Ratio (y) = 0.40373 0.17500
# Poissons Ratio (z) = 0.13628 0.48743
#
# Static dielectric constant tensor:
#      x y z
#    x 1.794460 0.000000 0.000000 
#    y 0.000000 1.782650 0.000000 
#    z 0.000000 0.000000 1.874290 
# 
# From -- ./inp_files/48636.got.cif
#   From: 2010.05.17/outbox.cif.g08.bks.cpg/sg22_25_cif.got.tgz:48636.got - 2010.06.03 23:40:54.
