data_PCOD9328396
_publ_section_title
;
Structure prediction by ZEFSAII (Michael W. Deem and Ramdas Pophale) SiO2 
 PCOD9328396
Probable space group: F 2 2 2
;
_chemical_formula_sum "Si O2"
_cell_formula_units_Z 60
_cell_length_a 9.493062
_cell_length_b 11.825398
_cell_length_c 24.861923
_cell_angle_alpha 90.000000
_cell_angle_beta 90.000000
_cell_angle_gamma 90.000000
_cell_volume 2790.980491
_symmetry_space_group_name_H-M "F 2 2 2"
_symmetry_group_IT_number 22
_symmetry_cell_setting 'orthorhombic'
loop_
_space_group_symop_operation_xyz
x,y,z
-x,-y,z
x,-y,-z
-x,y,-z
x,1/2+y,1/2+z
-x,1/2-y,1/2+z
x,1/2-y,1/2-z
-x,1/2+y,1/2-z
1/2+x,y,1/2+z
1/2-x,-y,1/2+z
1/2+x,-y,1/2-z
1/2-x,y,1/2-z
1/2+x,1/2+y,z
1/2-x,1/2-y,z
1/2+x,1/2-y,-z
1/2-x,1/2+y,-z
loop_
_atom_site_type_symbol
_atom_site_label
_atom_site_fract_x
_atom_site_fract_y
_atom_site_fract_z
Si Si1 0.624351 0.843930 0.411198
Si Si2 0.235378 0.385361 0.190066
Si Si3 0.602908 0.189211 0.051875
Si Si4 0.500000 0.000000 0.876906
Si Si5 0.000000 0.500000 0.500000
O O1 0.750000 0.750000 0.417916
O O2 0.652368 0.912569 0.356716
O O3 0.480641 0.774239 0.409026
O O4 0.600222 0.924743 0.462104
O O5 0.250000 0.433816 0.250000
O O6 0.250000 0.250000 0.194904
O O7 0.090421 0.420911 0.162069
O O8 0.750000 0.250000 0.039813
O O9 0.602585 0.071021 0.083609
O O10 0.500000 0.177328 0.000000
#
# Coordination Sequence:
#
# PCOD9328396 Si02
#       5
#    16  16  16   8   4
#     4  11  24  46  67 101 143 185 233 286 362 423
#     4  10  23  47  73  98 141 192 238 300 356 421
#     4  12  27  45  70 106 147 186 234 290 359 444
#     4  12  25  47  74 104 141 193 236 294 366 418
#     4  12  28  38  72 108 142 180 234 290 360 422
#
# _framework density 21.497820999999998
#
# number of rings (size 3 to 8) (size 9 to 14) (size 15 to 20)
#    0.000    0.800    6.667    1.200    3.733    1.067 
#    0.000    0.000    0.000    0.000    0.000    0.000 
#    0.000    0.000    0.000    0.000    0.000    0.000 
#
# Total GULP energy -83700.382162 kJ/mol
# GULP energy per Si atom -5580.025477 kJ/mol
# Density = 2.144889 g / cm^3
# Si number density = 21.497821 Si / 1000 Ang^3
#
#
#
# Elastic Constant Matrix: (Units=GPa)
#
#
# Indices 1 2 3 4 5 6 
#
# 1 118.2590 36.9026 63.0205 0.0000 0.0000 0.0000
# 2 36.9026 83.9316 52.1111 0.0000 0.0000 0.0000
# 3 63.0205 52.1111 201.2009 0.0000 0.0000 0.0000
# 4 0.0000 0.0000 0.0000 4.5320 0.0000 0.0000
# 5 0.0000 0.0000 0.0000 0.0000 5.4741 0.0000
# 6 0.0000 0.0000 0.0000 0.0000 0.0000 32.8220
#
#
#
# Elastic Compliance Matrix: (Units=1/GPa)
#
#
# Indices 1 2 3 4 5 6 
#
# 1 0.010810 -0.003159 -0.002568 0.000000 0.000000 0.000000
# 2 -0.003159 0.015120 -0.002927 0.000000 0.000000 0.000000
# 3 -0.002568 -0.002927 0.006533 0.000000 0.000000 0.000000
# 4 0.000000 0.000000 0.000000 0.220653 0.000000 0.000000
# 5 0.000000 0.000000 0.000000 0.000000 0.182677 0.000000
# 6 0.000000 0.000000 0.000000 0.000000 0.000000 0.030467
#
#
# Mechanical properties :
#
#
# Convention : Reuss Voigt Hill
#
# Bulk Modulus (GPa) = 65.97875 78.60665 72.29270
# Shear Modulus (GPa) = 10.23291 25.32277 17.77784
#
# Velocity S-wave (km/s) = 2.18410 3.43581 2.87881
# Velocity P-wave (km/s) = 6.09245 7.23768 6.68962
#
# Compressibility (1/GPa) = 0.01515639
#
# Stress axis : x y z
#
# Youngs Moduli (GPa) = 92.50624 66.13565 153.08008
#
# Poissons Ratio (x) = 0.20890 0.39309
# Poissons Ratio (y) = 0.29219 0.44804
# Poissons Ratio (z) = 0.23754 0.19357
#
# Static dielectric constant tensor:
#      x y z
#    x 1.836030 0.000000 0.000000 
#    y 0.000000 1.859640 0.000000 
#    z 0.000000 0.000000 1.856380 
# 
# From -- ./inp_files/8384.got.cif
#   From: 2010.05.17/outbox.cif.g08.bks.cpg/sg22_5_cif.got.tgz:8384.got - 2010.06.03 23:40:54.
