data_PCOD9328316
_publ_section_title
;
Structure prediction by ZEFSAII (Michael W. Deem and Ramdas Pophale) SiO2 
 PCOD9328316
Probable space group: F 2 2 2
;
_chemical_formula_sum "Si O2"
_cell_formula_units_Z 112
_cell_length_a 26.095601
_cell_length_b 14.548767
_cell_length_c 13.580739
_cell_angle_alpha 90.000000
_cell_angle_beta 90.000000
_cell_angle_gamma 90.000000
_cell_volume 5156.047325
_symmetry_space_group_name_H-M "F 2 2 2"
_symmetry_group_IT_number 22
_symmetry_cell_setting 'orthorhombic'
loop_
_space_group_symop_operation_xyz
x,y,z
-x,-y,z
x,-y,-z
-x,y,-z
x,1/2+y,1/2+z
-x,1/2-y,1/2+z
x,1/2-y,1/2-z
-x,1/2+y,1/2-z
1/2+x,y,1/2+z
1/2-x,-y,1/2+z
1/2+x,-y,1/2-z
1/2-x,y,1/2-z
1/2+x,1/2+y,z
1/2-x,1/2-y,z
1/2+x,1/2-y,-z
1/2-x,1/2+y,-z
loop_
_atom_site_type_symbol
_atom_site_label
_atom_site_fract_x
_atom_site_fract_y
_atom_site_fract_z
Si Si1 0.090241 0.792138 0.453909
Si Si2 0.455979 0.565004 0.305231
Si Si3 0.044483 0.595477 0.419224
Si Si4 0.120126 0.563129 0.904329
Si Si5 0.810750 0.355369 0.755358
Si Si6 0.692953 0.778976 0.636952
Si Si7 0.844588 0.985642 0.891751
O O1 0.059773 0.848068 0.370072
O O2 0.067433 0.691553 0.454709
O O3 0.087628 0.850860 0.553861
O O4 0.149523 0.775797 0.423659
O O5 0.500000 0.500000 0.349050
O O6 0.473172 0.595209 0.195593
O O7 0.406943 0.497979 0.320038
O O8 0.094063 0.529257 0.405024
O O9 0.000000 0.581571 0.500000
O O10 0.171357 0.602271 0.858392
O O11 0.127420 0.500000 0.000000
O O12 0.830097 0.250000 0.750000
O O13 0.750000 0.353662 0.750000
O O14 0.831621 0.425032 0.672380
O O15 0.688329 0.750000 0.750000
O O16 0.750000 0.750000 0.603075
O O17 0.679477 0.887705 0.640031
O O18 0.822653 0.000000 0.000000
#
# Coordination Sequence:
#
# PCOD9328316 Si02
#       7
#    16  16  16  16  16  16  16
#     4  10  23  44  70 104 145 181 245 303 358 442
#     4  11  24  43  70 102 141 189 239 302 364 429
#     4  11  25  43  71 102 140 188 242 298 372 437
#     4  10  24  45  75 101 141 189 243 299 358 428
#     4  11  27  48  72 106 149 195 239 297 374 445
#     4  10  23  42  75 107 142 189 245 301 368 429
#     4  11  26  46  71 103 147 189 239 306 361 435
#
# _framework density 21.722066000000002
#
# number of rings (size 3 to 8) (size 9 to 14) (size 15 to 20)
#    0.000    1.429    1.429    2.143   12.000    3.714 
#    0.000    0.000    0.000    0.000    0.000    0.000 
#    0.000    0.000    0.000    0.000    0.000    0.000 
#
# Total GULP energy -156215.266796 kJ/mol
# GULP energy per Si atom -5579.116671 kJ/mol
# Density = 2.167263 g / cm^3
# Si number density = 21.722066 Si / 1000 Ang^3
#
#
#
# Elastic Constant Matrix: (Units=GPa)
#
#
# Indices 1 2 3 4 5 6 
#
# 1 111.4067 48.5983 34.4707 0.0000 0.0000 0.0000
# 2 48.5983 124.0895 57.3122 0.0000 0.0000 0.0000
# 3 34.4707 57.3122 119.4573 0.0000 0.0000 0.0000
# 4 0.0000 0.0000 0.0000 16.7414 0.0000 0.0000
# 5 0.0000 0.0000 0.0000 0.0000 25.3474 0.0000
# 6 0.0000 0.0000 0.0000 0.0000 0.0000 18.8592
#
#
#
# Elastic Compliance Matrix: (Units=1/GPa)
#
#
# Indices 1 2 3 4 5 6 
#
# 1 0.011011 -0.003655 -0.001424 0.000000 0.000000 0.000000
# 2 -0.003655 0.011566 -0.004494 0.000000 0.000000 0.000000
# 3 -0.001424 -0.004494 0.010938 0.000000 0.000000 0.000000
# 4 0.000000 0.000000 0.000000 0.059732 0.000000 0.000000
# 5 0.000000 0.000000 0.000000 0.000000 0.039452 0.000000
# 6 0.000000 0.000000 0.000000 0.000000 0.000000 0.053025
#
#
# Mechanical properties :
#
#
# Convention : Reuss Voigt Hill
#
# Bulk Modulus (GPa) = 69.59325 70.63511 70.11418
# Shear Modulus (GPa) = 23.84823 26.49441 25.17132
#
# Velocity S-wave (km/s) = 3.31702 3.49621 3.40779
# Velocity P-wave (km/s) = 6.83943 6.99187 6.91607
#
# Compressibility (1/GPa) = 0.01436921
#
# Stress axis : x y z
#
# Youngs Moduli (GPa) = 90.81860 86.46208 91.42161
#
# Poissons Ratio (x) = 0.31599 0.13018
# Poissons Ratio (y) = 0.33191 0.41088
# Poissons Ratio (z) = 0.12932 0.38859
#
# Static dielectric constant tensor:
#      x y z
#    x 1.809580 0.000000 0.000000 
#    y 0.000000 1.897750 0.000000 
#    z 0.000000 0.000000 1.808330 
# 
# From -- ./inp_files/33152.got.cif
#   From: 2010.05.17/outbox.cif.g08.bks.cpg/sg22_17_cif.got.tgz:33152.got - 2010.06.03 23:40:54.
