data_PCOD9328450
_publ_section_title
;
Structure prediction by ZEFSAII (Michael W. Deem and Ramdas Pophale) SiO2 
 PCOD9328450
Probable space group: F 2 2 2
;
_chemical_formula_sum "Si O2"
_cell_formula_units_Z 64
_cell_length_a 25.407532
_cell_length_b 11.921064
_cell_length_c 10.482525
_cell_angle_alpha 90.000000
_cell_angle_beta 90.000000
_cell_angle_gamma 90.000000
_cell_volume 3174.997646
_symmetry_space_group_name_H-M "F 2 2 2"
_symmetry_group_IT_number 22
_symmetry_cell_setting 'orthorhombic'
loop_
_space_group_symop_operation_xyz
x,y,z
-x,-y,z
x,-y,-z
-x,y,-z
x,1/2+y,1/2+z
-x,1/2-y,1/2+z
x,1/2-y,1/2-z
-x,1/2+y,1/2-z
1/2+x,y,1/2+z
1/2-x,-y,1/2+z
1/2+x,-y,1/2-z
1/2-x,y,1/2-z
1/2+x,1/2+y,z
1/2-x,1/2-y,z
1/2+x,1/2-y,-z
1/2-x,1/2+y,-z
loop_
_atom_site_type_symbol
_atom_site_label
_atom_site_fract_x
_atom_site_fract_y
_atom_site_fract_z
Si Si1 0.978017 0.250000 0.250000
Si Si2 0.365131 0.500000 0.000000
Si Si3 0.094791 0.600812 0.088955
Si Si4 0.581066 0.208340 0.614341
Si Si5 0.810972 0.385012 0.263883
O O1 0.943082 0.353519 0.201241
O O2 0.018454 0.215467 0.138762
O O3 0.400458 0.585520 0.920080
O O4 0.331047 0.428680 0.899897
O O5 0.149788 0.568389 0.154934
O O6 0.074339 0.500000 0.000000
O O7 0.098849 0.707242 0.995621
O O8 0.603905 0.250000 0.750000
O O9 0.815544 0.250000 0.250000
O O10 0.750000 0.415925 0.250000
#
# Coordination Sequence:
#
# PCOD9328450 Si02
#       5
#     8   8  16  16  16
#     4  10  24  44  59 108 137 180 244 270 350 414
#     4  12  22  50  69  98 144 176 233 290 350 422
#     4  12  23  46  71  99 144 185 233 293 350 419
#     4  10  24  42  66  99 140 181 230 281 344 411
#     4  11  25  46  74 102 136 185 234 298 359 415
#
# _framework density 20.157495999999998
#
# number of rings (size 3 to 8) (size 9 to 14) (size 15 to 20)
#    0.750    0.250    3.750    2.250    1.750    2.000 
#    4.500    5.000    0.000    0.000    0.000    0.000 
#    0.000    0.000    0.000    0.000    0.000    0.000 
#
# Total GULP energy -89360.677988 kJ/mol
# GULP energy per Si atom -5585.042374 kJ/mol
# Density = 2.011162 g / cm^3
# Si number density = 20.157496 Si / 1000 Ang^3
#
#
#
# Elastic Constant Matrix: (Units=GPa)
#
#
# Indices 1 2 3 4 5 6 
#
# 1 126.0778 39.8758 54.0944 0.0000 0.0000 0.0000
# 2 39.8758 105.5356 37.1288 0.0000 0.0000 0.0000
# 3 54.0944 37.1288 121.0315 0.0000 0.0000 0.0000
# 4 0.0000 0.0000 0.0000 56.8421 0.0000 0.0000
# 5 0.0000 0.0000 0.0000 0.0000 23.8862 0.0000
# 6 0.0000 0.0000 0.0000 0.0000 0.0000 7.6389
#
#
#
# Elastic Compliance Matrix: (Units=1/GPa)
#
#
# Indices 1 2 3 4 5 6 
#
# 1 0.010401 -0.002572 -0.003860 0.000000 0.000000 0.000000
# 2 -0.002572 0.011258 -0.002304 0.000000 0.000000 0.000000
# 3 -0.003860 -0.002304 0.010694 0.000000 0.000000 0.000000
# 4 0.000000 0.000000 0.000000 0.017593 0.000000 0.000000
# 5 0.000000 0.000000 0.000000 0.000000 0.041865 0.000000
# 6 0.000000 0.000000 0.000000 0.000000 0.000000 0.130908
#
#
# Mechanical properties :
#
#
# Convention : Reuss Voigt Hill
#
# Bulk Modulus (GPa) = 67.19689 68.31587 67.75638
# Shear Modulus (GPa) = 20.39555 32.44317 26.41936
#
# Velocity S-wave (km/s) = 3.18435 4.01619 3.62421
# Velocity P-wave (km/s) = 6.85043 7.44789 7.15540
#
# Compressibility (1/GPa) = 0.01488164
#
# Stress axis : x y z
#
# Youngs Moduli (GPa) = 96.14334 88.82652 93.50882
#
# Poissons Ratio (x) = 0.22847 0.36092
# Poissons Ratio (y) = 0.24729 0.21544
# Poissons Ratio (z) = 0.37108 0.20466
#
# Static dielectric constant tensor:
#      x y z
#    x 1.713510 0.000000 0.000000 
#    y 0.000000 1.705520 0.000000 
#    z 0.000000 0.000000 1.751300 
# 
# From -- ./inp_files/24344.got.cif
#   From: 2010.05.17/outbox.cif.g08.bks.cpg/sg22_13_cif.got.tgz:24344.got - 2010.06.03 23:40:54.
