data_PCOD9328363
_publ_section_title
;
Structure prediction by ZEFSAII (Michael W. Deem and Ramdas Pophale) SiO2 
 PCOD9328363
Probable space group: F 2 2 2
;
_chemical_formula_sum "Si O2"
_cell_formula_units_Z 72
_cell_length_a 13.967200
_cell_length_b 16.357597
_cell_length_c 15.127394
_cell_angle_alpha 90.000000
_cell_angle_beta 90.000000
_cell_angle_gamma 90.000000
_cell_volume 3456.153118
_symmetry_space_group_name_H-M "F 2 2 2"
_symmetry_group_IT_number 22
_symmetry_cell_setting 'orthorhombic'
loop_
_space_group_symop_operation_xyz
x,y,z
-x,-y,z
x,-y,-z
-x,y,-z
x,1/2+y,1/2+z
-x,1/2-y,1/2+z
x,1/2-y,1/2-z
-x,1/2+y,1/2-z
1/2+x,y,1/2+z
1/2-x,-y,1/2+z
1/2+x,-y,1/2-z
1/2-x,y,1/2-z
1/2+x,1/2+y,z
1/2-x,1/2-y,z
1/2+x,1/2-y,-z
1/2-x,1/2+y,-z
loop_
_atom_site_type_symbol
_atom_site_label
_atom_site_fract_x
_atom_site_fract_y
_atom_site_fract_z
Si Si1 0.500000 0.693325 0.000000
Si Si2 0.717151 0.162000 0.492780
Si Si3 0.675223 0.372378 0.674783
Si Si4 0.352508 0.457680 0.592908
Si Si5 0.531282 0.195112 0.170613
O O1 0.395667 0.651874 0.988564
O O2 0.517365 0.748213 0.914258
O O3 0.750000 0.250000 0.452905
O O4 0.780704 0.157906 0.581990
O O5 0.754372 0.087957 0.432889
O O6 0.750000 0.354164 0.750000
O O7 0.660486 0.468943 0.660603
O O8 0.574362 0.333175 0.698142
O O9 0.387718 0.500000 0.500000
O O10 0.416304 0.386357 0.635436
O O11 0.574687 0.250000 0.250000
#
# Coordination Sequence:
#
# PCOD9328363 Si02
#       5
#     8  16  16  16  16
#     4  12  22  40  64 102 134 170 220 286 342 386
#     4  11  21  40  68  95 125 173 224 273 337 408
#     4  11  24  41  63  92 133 173 223 280 339 407
#     4  10  23  45  67  95 133 183 223 276 349 417
#     4  12  24  39  71 104 132 177 234 288 341 409
#
# _framework density 20.832409999999999
#
# number of rings (size 3 to 8) (size 9 to 14) (size 15 to 20)
#    0.000    0.889    4.444    3.333    0.000    4.444 
#    0.000    8.333    0.000    0.000    0.000    0.000 
#    0.000    0.000    0.000    0.000    0.000    0.000 
#
# Total GULP energy -100538.922119 kJ/mol
# GULP energy per Si atom -5585.495673 kJ/mol
# Density = 2.078499 g / cm^3
# Si number density = 20.832410 Si / 1000 Ang^3
#
#
#
# Elastic Constant Matrix: (Units=GPa)
#
#
# Indices 1 2 3 4 5 6 
#
# 1 112.5425 39.6220 -6.8485 0.0000 0.0000 0.0000
# 2 39.6220 111.1344 34.0747 0.0000 0.0000 0.0000
# 3 -6.8485 34.0747 62.6117 0.0000 0.0000 0.0000
# 4 0.0000 0.0000 0.0000 27.9375 0.0000 0.0000
# 5 0.0000 0.0000 0.0000 0.0000 18.2595 0.0000
# 6 0.0000 0.0000 0.0000 0.0000 0.0000 62.1630
#
#
#
# Elastic Compliance Matrix: (Units=1/GPa)
#
#
# Indices 1 2 3 4 5 6 
#
# 1 0.010929 -0.005117 0.003980 0.000000 0.000000 0.000000
# 2 -0.005117 0.013196 -0.007741 0.000000 0.000000 0.000000
# 3 0.003980 -0.007741 0.020620 0.000000 0.000000 0.000000
# 4 0.000000 0.000000 0.000000 0.035794 0.000000 0.000000
# 5 0.000000 0.000000 0.000000 0.000000 0.054766 0.000000
# 6 0.000000 0.000000 0.000000 0.000000 0.000000 0.016087
#
#
# Mechanical properties :
#
#
# Convention : Reuss Voigt Hill
#
# Bulk Modulus (GPa) = 37.05211 46.66502 41.85857
# Shear Modulus (GPa) = 28.06719 36.30135 32.18427
#
# Velocity S-wave (km/s) = 3.67452 4.17891 3.93480
# Velocity P-wave (km/s) = 5.98558 6.76263 6.38594
#
# Compressibility (1/GPa) = 0.02698902
#
# Stress axis : x y z
#
# Youngs Moduli (GPa) = 91.49812 75.78108 48.49722
#
# Poissons Ratio (x) = 0.38776 -0.19303
# Poissons Ratio (y) = 0.46818 0.37543
# Poissons Ratio (z) = -0.36418 0.58664
#
# Static dielectric constant tensor:
#      x y z
#    x 1.809640 0.000000 0.000000 
#    y 0.000000 1.855990 0.000000 
#    z 0.000000 0.000000 1.736660 
# 
# From -- ./inp_files/29067.got.cif
#   From: 2010.05.17/outbox.cif.g08.bks.cpg/sg22_15_cif.got.tgz:29067.got - 2010.06.03 23:40:54.
