data_PCOD9328648
_publ_section_title
;
Structure prediction by ZEFSAII (Michael W. Deem and Ramdas Pophale) SiO2 
 PCOD9328648
Probable space group: F 2 2 2
;
_chemical_formula_sum "Si O2"
_cell_formula_units_Z 44
_cell_length_a 13.423567
_cell_length_b 16.262243
_cell_length_c 8.683257
_cell_angle_alpha 90.000000
_cell_angle_beta 90.000000
_cell_angle_gamma 90.000000
_cell_volume 1895.531632
_symmetry_space_group_name_H-M "F 2 2 2"
_symmetry_group_IT_number 22
_symmetry_cell_setting 'orthorhombic'
loop_
_space_group_symop_operation_xyz
x,y,z
-x,-y,z
x,-y,-z
-x,y,-z
x,1/2+y,1/2+z
-x,1/2-y,1/2+z
x,1/2-y,1/2-z
-x,1/2+y,1/2-z
1/2+x,y,1/2+z
1/2-x,-y,1/2+z
1/2+x,-y,1/2-z
1/2-x,y,1/2-z
1/2+x,1/2+y,z
1/2-x,1/2-y,z
1/2+x,1/2-y,-z
1/2-x,1/2+y,-z
loop_
_atom_site_type_symbol
_atom_site_label
_atom_site_fract_x
_atom_site_fract_y
_atom_site_fract_z
Si Si1 0.859524 0.053013 0.728611
Si Si2 0.500000 0.000000 0.500000
Si Si3 0.750000 0.392476 0.250000
Si Si4 0.620687 0.750000 0.750000
Si Si5 0.000000 0.649485 0.000000
O O1 0.750000 0.092915 0.750000
O O2 0.925707 0.095848 0.602558
O O3 0.924953 0.047736 0.884645
O O4 0.827859 0.958966 0.683447
O O5 0.682650 0.324170 0.166114
O O6 0.558877 0.706003 0.619334
#
# Coordination Sequence:
#
# PCOD9328648 Si02
#       5
#    16   4   8   8   8
#     4  10  27  49  86 118 156 209 282 321 388 487
#     4  12  24  40  84 128 148 194 272 338 392 442
#     4   9  24  48  76 115 156 204 260 333 394 460
#     4  11  26  48  77 116 170 206 253 344 415 460
#     4  12  28  56  80 116 166 214 270 327 408 479
#
# _framework density 23.212484
#
# number of rings (size 3 to 8) (size 9 to 14) (size 15 to 20)
#    1.091    0.364    0.000    2.182    5.091   12.364 
#    6.545    0.000    0.000    0.000    0.000    0.000 
#    0.000    0.000    0.000    0.000    0.000    0.000 
#
# Total GULP energy -61323.030176 kJ/mol
# GULP energy per Si atom -5574.820925 kJ/mol
# Density = 2.315965 g / cm^3
# Si number density = 23.212484 Si / 1000 Ang^3
#
#
#
# Elastic Constant Matrix: (Units=GPa)
#
#
# Indices 1 2 3 4 5 6 
#
# 1 209.5180 91.9885 110.1368 0.0000 0.0000 0.0000
# 2 91.9885 180.2949 73.8061 0.0000 0.0000 0.0000
# 3 110.1368 73.8061 177.3153 0.0000 0.0000 0.0000
# 4 0.0000 0.0000 0.0000 19.2922 0.0000 0.0000
# 5 0.0000 0.0000 0.0000 0.0000 5.0285 0.0000
# 6 0.0000 0.0000 0.0000 0.0000 0.0000 907.0562
#
#
#
# Elastic Compliance Matrix: (Units=1/GPa)
#
#
# Indices 1 2 3 4 5 6 
#
# 1 0.007882 -0.002432 -0.003884 0.000000 0.000000 0.000000
# 2 -0.002432 0.007436 -0.001585 0.000000 0.000000 0.000000
# 3 -0.003884 -0.001585 0.008712 0.000000 0.000000 0.000000
# 4 0.000000 0.000000 0.000000 0.051834 0.000000 0.000000
# 5 0.000000 0.000000 0.000000 0.000000 0.198866 0.000000
# 6 0.000000 0.000000 0.000000 0.000000 0.000000 0.001102
#
#
# Mechanical properties :
#
#
# Convention : Reuss Voigt Hill
#
# Bulk Modulus (GPa) = 121.51585 124.33234 122.92409
# Shear Modulus (GPa) = 16.98510 205.68850 111.33680
#
# Velocity S-wave (km/s) = 2.70797 9.42356 6.93313
# Velocity P-wave (km/s) = 7.88926 13.11807 10.82414
#
# Compressibility (1/GPa) = 0.00822938
#
# Stress axis : x y z
#
# Youngs Moduli (GPa) = 126.87197 134.48352 114.79013
#
# Poissons Ratio (x) = 0.32702 0.44580
# Poissons Ratio (y) = 0.30851 0.18191
# Poissons Ratio (z) = 0.49272 0.21312
#
# Static dielectric constant tensor:
#      x y z
#    x 2.008990 0.000000 0.000000 
#    y 0.000000 1.848530 0.000000 
#    z 0.000000 0.000000 1.507160 
# 
# From -- ./inp_files/9164.got.cif
#   From: 2010.05.17/outbox.cif.g08.bks.cpg/sg22_5_cif.got.tgz:9164.got - 2010.06.03 23:40:54.
