data_PCOD9328568
_publ_section_title
;
Structure prediction by ZEFSAII (Michael W. Deem and Ramdas Pophale) SiO2 
 PCOD9328568
Probable space group: F 2 2 2
;
_chemical_formula_sum "Si O2"
_cell_formula_units_Z 104
_cell_length_a 28.089011
_cell_length_b 8.696111
_cell_length_c 20.710694
_cell_angle_alpha 90.000000
_cell_angle_beta 90.000000
_cell_angle_gamma 90.000000
_cell_volume 5058.900933
_symmetry_space_group_name_H-M "F 2 2 2"
_symmetry_group_IT_number 22
_symmetry_cell_setting 'orthorhombic'
loop_
_space_group_symop_operation_xyz
x,y,z
-x,-y,z
x,-y,-z
-x,y,-z
x,1/2+y,1/2+z
-x,1/2-y,1/2+z
x,1/2-y,1/2-z
-x,1/2+y,1/2-z
1/2+x,y,1/2+z
1/2-x,-y,1/2+z
1/2+x,-y,1/2-z
1/2-x,y,1/2-z
1/2+x,1/2+y,z
1/2-x,1/2-y,z
1/2+x,1/2-y,-z
1/2-x,1/2+y,-z
loop_
_atom_site_type_symbol
_atom_site_label
_atom_site_fract_x
_atom_site_fract_y
_atom_site_fract_z
Si Si1 0.630678 0.000000 0.000000
Si Si2 0.262665 0.925512 0.673671
Si Si3 0.389388 0.416086 0.284650
Si Si4 0.550527 0.047488 0.574795
Si Si5 0.822263 0.902708 0.622314
Si Si6 0.863532 0.926583 0.839316
Si Si7 0.548078 0.406210 0.598039
O O1 0.665592 0.901527 0.954015
O O2 0.592585 0.041816 0.944868
O O3 0.250000 0.942132 0.750000
O O4 0.250000 0.750000 0.655138
O O5 0.232261 0.053778 0.635616
O O6 0.317956 0.960352 0.661371
O O7 0.383661 0.250000 0.250000
O O8 0.347885 0.461217 0.335372
O O9 0.387778 0.544747 0.229711
O O10 0.436925 0.420111 0.327276
O O11 0.546559 0.229031 0.580312
O O12 0.500000 0.000000 0.604734
O O13 0.552085 0.000000 0.500000
O O14 0.596547 0.975946 0.609172
O O15 0.842849 0.743392 0.649969
O O16 0.500000 0.500000 0.584297
#
# Coordination Sequence:
#
# PCOD9328568 Si02
#       7
#     8  16  16  16  16  16  16
#     4  10  25  44  74  94 140 182 235 276 354 408
#     4  11  24  42  70 103 141 183 227 278 350 421
#     4  11  22  42  66  99 140 180 226 286 355 418
#     4  11  27  45  68 100 137 183 238 288 349 417
#     4  11  24  43  70 106 137 184 233 284 351 427
#     4  12  24  44  72 102 142 177 232 293 350 420
#     4  11  25  44  70  98 137 185 238 291 351 423
#
# _framework density 20.557825999999999
#
# number of rings (size 3 to 8) (size 9 to 14) (size 15 to 20)
#    0.000    0.923    3.077    3.000   10.769    1.231 
#    1.385    0.000    0.000    0.000    0.000    0.000 
#    0.000    0.000    0.000    0.000    0.000    0.000 
#
# Total GULP energy -144988.266367 kJ/mol
# GULP energy per Si atom -5576.471783 kJ/mol
# Density = 2.051104 g / cm^3
# Si number density = 20.557826 Si / 1000 Ang^3
#
#
#
# Elastic Constant Matrix: (Units=GPa)
#
#
# Indices 1 2 3 4 5 6 
#
# 1 131.8228 54.8110 47.9648 0.0000 0.0000 0.0000
# 2 54.8110 110.6541 49.4346 0.0000 0.0000 0.0000
# 3 47.9648 49.4346 116.2419 0.0000 0.0000 0.0000
# 4 0.0000 0.0000 0.0000 47.5469 0.0000 0.0000
# 5 0.0000 0.0000 0.0000 0.0000 46.9742 0.0000
# 6 0.0000 0.0000 0.0000 0.0000 0.0000 54.0440
#
#
#
# Elastic Compliance Matrix: (Units=1/GPa)
#
#
# Indices 1 2 3 4 5 6 
#
# 1 0.010120 -0.003885 -0.002523 0.000000 0.000000 0.000000
# 2 -0.003885 0.012649 -0.003776 0.000000 0.000000 0.000000
# 3 -0.002523 -0.003776 0.011250 0.000000 0.000000 0.000000
# 4 0.000000 0.000000 0.000000 0.021032 0.000000 0.000000
# 5 0.000000 0.000000 0.000000 0.000000 0.021288 0.000000
# 6 0.000000 0.000000 0.000000 0.000000 0.000000 0.018503
#
#
# Mechanical properties :
#
#
# Convention : Reuss Voigt Hill
#
# Bulk Modulus (GPa) = 73.26637 73.68217 73.47427
# Shear Modulus (GPa) = 41.75012 43.48025 42.61518
#
# Velocity S-wave (km/s) = 4.51140 4.60393 4.55790
# Velocity P-wave (km/s) = 7.92802 8.01129 7.96976
#
# Compressibility (1/GPa) = 0.01364883
#
# Stress axis : x y z
#
# Youngs Moduli (GPa) = 98.81864 79.06015 88.89090
#
# Poissons Ratio (x) = 0.30717 0.22430
# Poissons Ratio (y) = 0.38394 0.33565
# Poissons Ratio (z) = 0.24935 0.29853
#
# Static dielectric constant tensor:
#      x y z
#    x 1.721860 0.000000 0.000000 
#    y 0.000000 1.695660 0.000000 
#    z 0.000000 0.000000 1.751140 
# 
# From -- ./inp_files/45788.got.cif
#   From: 2010.05.17/outbox.cif.g08.bks.cpg/sg22_23_cif.got.tgz:45788.got - 2010.06.03 23:40:54.
