data_PCOD9328893
_publ_section_title
;
Structure prediction by ZEFSAII (Michael W. Deem and Ramdas Pophale) SiO2 
 PCOD9328893
Probable space group: F 2 2 2
;
_chemical_formula_sum "Si O2"
_cell_formula_units_Z 56
_cell_length_a 10.610499
_cell_length_b 15.101502
_cell_length_c 14.161587
_cell_angle_alpha 90.000000
_cell_angle_beta 90.000000
_cell_angle_gamma 90.000000
_cell_volume 2269.174414
_symmetry_space_group_name_H-M "F 2 2 2"
_symmetry_group_IT_number 22
_symmetry_cell_setting 'orthorhombic'
loop_
_space_group_symop_operation_xyz
x,y,z
-x,-y,z
x,-y,-z
-x,y,-z
x,1/2+y,1/2+z
-x,1/2-y,1/2+z
x,1/2-y,1/2-z
-x,1/2+y,1/2-z
1/2+x,y,1/2+z
1/2-x,-y,1/2+z
1/2+x,-y,1/2-z
1/2-x,y,1/2-z
1/2+x,1/2+y,z
1/2-x,1/2-y,z
1/2+x,1/2-y,-z
1/2-x,1/2+y,-z
loop_
_atom_site_type_symbol
_atom_site_label
_atom_site_fract_x
_atom_site_fract_y
_atom_site_fract_z
Si Si1 0.561769 0.128290 0.902310
Si Si2 0.564074 0.250000 0.750000
Si Si3 0.045780 0.602353 0.394056
Si Si4 0.694078 0.960791 0.852748
O O1 0.629560 0.193497 0.830896
O O2 0.657175 0.047255 0.911788
O O3 0.436856 0.091809 0.848623
O O4 0.500000 0.159835 0.000000
O O5 0.493760 0.322064 0.819103
O O6 0.196621 0.597728 0.396536
O O7 0.000000 0.500000 0.371049
O O8 0.000000 0.621509 0.500000
O O9 0.750000 0.985342 0.750000
#
# Coordination Sequence:
#
# PCOD9328893 Si02
#       4
#    16   8  16  16
#     4  11  26  44  74 110 152 199 249 318 379 460
#     4  12  24  51  73 114 154 200 261 313 388 462
#     4  11  26  45  79 109 150 198 257 318 381 457
#     4  11  22  46  75 106 147 196 251 303 386 448
#
# _framework density 24.678578000000002
#
# number of rings (size 3 to 8) (size 9 to 14) (size 15 to 20)
#    0.000    0.857    2.857    4.286    8.000    2.286 
#    0.000    6.429    0.000    0.000    0.000    0.000 
#    0.000    0.000    0.000    0.000    0.000    0.000 
#
# Total GULP energy -78142.360496 kJ/mol
# GULP energy per Si atom -5581.597178 kJ/mol
# Density = 2.462241 g / cm^3
# Si number density = 24.678578 Si / 1000 Ang^3
#
#
#
# Elastic Constant Matrix: (Units=GPa)
#
#
# Indices 1 2 3 4 5 6 
#
# 1 68.0690 20.6078 19.9907 0.0000 0.0000 0.0000
# 2 20.6078 120.7634 73.1422 0.0000 0.0000 0.0000
# 3 19.9907 73.1422 193.8082 0.0000 0.0000 0.0000
# 4 0.0000 0.0000 0.0000 47.5277 0.0000 0.0000
# 5 0.0000 0.0000 0.0000 0.0000 34.9516 0.0000
# 6 0.0000 0.0000 0.0000 0.0000 0.0000 15.3337
#
#
#
# Elastic Compliance Matrix: (Units=1/GPa)
#
#
# Indices 1 2 3 4 5 6 
#
# 1 0.015582 -0.002185 -0.000783 0.000000 0.000000 0.000000
# 2 -0.002185 0.011041 -0.003941 0.000000 0.000000 0.000000
# 3 -0.000783 -0.003941 0.006728 0.000000 0.000000 0.000000
# 4 0.000000 0.000000 0.000000 0.021040 0.000000 0.000000
# 5 0.000000 0.000000 0.000000 0.000000 0.028611 0.000000
# 6 0.000000 0.000000 0.000000 0.000000 0.000000 0.065216
#
#
# Mechanical properties :
#
#
# Convention : Reuss Voigt Hill
#
# Bulk Modulus (GPa) = 51.19566 67.79132 59.49349
# Shear Modulus (GPa) = 29.66529 37.48925 33.57727
#
# Velocity S-wave (km/s) = 3.47084 3.90179 3.69261
# Velocity P-wave (km/s) = 6.07061 6.91578 6.50693
#
# Compressibility (1/GPa) = 0.01953291
#
# Stress axis : x y z
#
# Youngs Moduli (GPa) = 64.17516 90.57457 148.63503
#
# Poissons Ratio (x) = 0.19791 0.11633
# Poissons Ratio (y) = 0.14023 0.58581
# Poissons Ratio (z) = 0.05023 0.35698
#
# Static dielectric constant tensor:
#      x y z
#    x 1.944450 0.000000 0.000000 
#    y 0.000000 2.002620 0.000000 
#    z 0.000000 0.000000 2.007720 
# 
# From -- ./inp_files/19067.got.cif
#   From: 2010.05.17/outbox.cif.g08.bks.cpg/sg22_10_cif.got.tgz:19067.got - 2010.06.03 23:40:54.
