data_PCOD9328861
_publ_section_title
;
Structure prediction by ZEFSAII (Michael W. Deem and Ramdas Pophale) SiO2 
 PCOD9328861
Probable space group: F 2 2 2
;
_chemical_formula_sum "Si O2"
_cell_formula_units_Z 72
_cell_length_a 15.848759
_cell_length_b 11.538252
_cell_length_c 19.296349
_cell_angle_alpha 90.000000
_cell_angle_beta 90.000000
_cell_angle_gamma 90.000000
_cell_volume 3528.664975
_symmetry_space_group_name_H-M "F 2 2 2"
_symmetry_group_IT_number 22
_symmetry_cell_setting 'orthorhombic'
loop_
_space_group_symop_operation_xyz
x,y,z
-x,-y,z
x,-y,-z
-x,y,-z
x,1/2+y,1/2+z
-x,1/2-y,1/2+z
x,1/2-y,1/2-z
-x,1/2+y,1/2-z
1/2+x,y,1/2+z
1/2-x,-y,1/2+z
1/2+x,-y,1/2-z
1/2-x,y,1/2-z
1/2+x,1/2+y,z
1/2-x,1/2-y,z
1/2+x,1/2-y,-z
1/2-x,1/2+y,-z
loop_
_atom_site_type_symbol
_atom_site_label
_atom_site_fract_x
_atom_site_fract_y
_atom_site_fract_z
Si Si1 0.985505 0.813680 0.074514
Si Si2 0.350229 0.886005 0.748068
Si Si3 0.418761 0.078561 0.107455
Si Si4 0.130994 0.519019 0.397554
Si Si5 0.217943 0.000000 0.500000
O O1 0.069945 0.870490 0.104015
O O2 0.948513 0.709909 0.117325
O O3 0.918924 0.916758 0.062116
O O4 0.000000 0.758468 0.000000
O O5 0.378109 0.750000 0.750000
O O6 0.250000 0.880066 0.750000
O O7 0.382282 0.952257 0.816772
O O8 0.367318 0.959924 0.678466
O O9 0.500000 0.000000 0.090603
O O10 0.346953 0.074424 0.047624
O O11 0.217129 0.544784 0.439714
#
# Coordination Sequence:
#
# PCOD9328861 Si02
#       5
#    16  16  16  16   8
#     4  11  22  42  68 103 138 176 241 292 361 412
#     4  11  23  42  70 102 133 182 240 293 349 427
#     4  12  27  44  66 102 148 188 230 298 369 424
#     4  11  22  42  71 103 131 182 239 295 348 421
#     4  12  23  45  68 100 140 180 242 289 343 432
#
# _framework density 20.404316999999999
#
# number of rings (size 3 to 8) (size 9 to 14) (size 15 to 20)
#    0.000    0.667    6.667    2.333    3.111    0.889 
#    4.000    0.000    0.000    1.333    0.000    0.000 
#    0.000    0.000    0.000    0.000    0.000    0.000 
#
# Total GULP energy -100225.302984 kJ/mol
# GULP energy per Si atom -5568.072388 kJ/mol
# Density = 2.035788 g / cm^3
# Si number density = 20.404317 Si / 1000 Ang^3
#
#
#
# Elastic Constant Matrix: (Units=GPa)
#
#
# Indices 1 2 3 4 5 6 
#
# 1 125.0923 56.0872 50.1435 0.0000 0.0000 0.0000
# 2 56.0872 79.5429 35.9435 0.0000 0.0000 0.0000
# 3 50.1435 35.9435 151.9716 0.0000 0.0000 0.0000
# 4 0.0000 0.0000 0.0000 24.6778 0.0000 0.0000
# 5 0.0000 0.0000 0.0000 0.0000 10.4213 0.0000
# 6 0.0000 0.0000 0.0000 0.0000 0.0000 20.2137
#
#
#
# Elastic Compliance Matrix: (Units=1/GPa)
#
#
# Indices 1 2 3 4 5 6 
#
# 1 0.012344 -0.007685 -0.002255 0.000000 0.000000 0.000000
# 2 -0.007685 0.018860 -0.001925 0.000000 0.000000 0.000000
# 3 -0.002255 -0.001925 0.007780 0.000000 0.000000 0.000000
# 4 0.000000 0.000000 0.000000 0.040522 0.000000 0.000000
# 5 0.000000 0.000000 0.000000 0.000000 0.095957 0.000000
# 6 0.000000 0.000000 0.000000 0.000000 0.000000 0.049471
#
#
# Mechanical properties :
#
#
# Convention : Reuss Voigt Hill
#
# Bulk Modulus (GPa) = 65.55899 71.21726 68.38813
# Shear Modulus (GPa) = 19.70451 25.35808 22.53129
#
# Velocity S-wave (km/s) = 3.11095 3.52913 3.32662
# Velocity P-wave (km/s) = 6.71593 7.18228 6.95302
#
# Compressibility (1/GPa) = 0.01525344
#
# Stress axis : x y z
#
# Youngs Moduli (GPa) = 81.01302 53.02122 128.54037
#
# Poissons Ratio (x) = 0.40745 0.28990
# Poissons Ratio (y) = 0.62256 0.24746
# Poissons Ratio (z) = 0.18271 0.10208
#
# Static dielectric constant tensor:
#      x y z
#    x 1.715840 0.000000 0.000000 
#    y 0.000000 1.722330 0.000000 
#    z 0.000000 0.000000 1.873020 
# 
# From -- ./inp_files/37777.got.cif
#   From: 2010.05.17/outbox.cif.g08.bks.cpg/sg22_19_cif.got.tgz:37777.got - 2010.06.03 23:40:54.
