data_PCOD9328630
_publ_section_title
;
Structure prediction by ZEFSAII (Michael W. Deem and Ramdas Pophale) SiO2 
 PCOD9328630
Probable space group: F 2 2 2
;
_chemical_formula_sum "Si O2"
_cell_formula_units_Z 60
_cell_length_a 9.083163
_cell_length_b 12.716988
_cell_length_c 25.116759
_cell_angle_alpha 90.000000
_cell_angle_beta 90.000000
_cell_angle_gamma 90.000000
_cell_volume 2901.248759
_symmetry_space_group_name_H-M "F 2 2 2"
_symmetry_group_IT_number 22
_symmetry_cell_setting 'orthorhombic'
loop_
_space_group_symop_operation_xyz
x,y,z
-x,-y,z
x,-y,-z
-x,y,-z
x,1/2+y,1/2+z
-x,1/2-y,1/2+z
x,1/2-y,1/2-z
-x,1/2+y,1/2-z
1/2+x,y,1/2+z
1/2-x,-y,1/2+z
1/2+x,-y,1/2-z
1/2-x,y,1/2-z
1/2+x,1/2+y,z
1/2-x,1/2-y,z
1/2+x,1/2-y,-z
1/2-x,1/2+y,-z
loop_
_atom_site_type_symbol
_atom_site_label
_atom_site_fract_x
_atom_site_fract_y
_atom_site_fract_z
Si Si1 0.157463 0.536195 0.586709
Si Si2 0.250000 0.250000 0.250000
Si Si3 0.849638 0.667690 0.915003
Si Si4 0.905210 0.399711 0.832271
Si Si5 0.000000 0.684329 0.500000
O O1 0.256039 0.435330 0.569036
O O2 0.255314 0.579994 0.634482
O O3 0.104494 0.613121 0.538615
O O4 0.000000 0.500000 0.608681
O O5 0.143935 0.321620 0.213660
O O6 0.750000 0.750000 0.882660
O O7 0.986594 0.640552 0.878517
O O8 0.593843 0.762926 0.963806
O O9 0.000000 0.500000 0.811415
#
# Coordination Sequence:
#
# PCOD9328630 Si02
#       5
#    16   4  16  16   8
#     4  11  24  42  66  97 143 181 229 279 335 399
#     4  12  24  48  86  98 120 184 226 292 368 424
#     4  11  25  42  64  99 141 184 228 278 339 398
#     4  10  26  49  68 104 136 173 228 296 348 413
#     4  12  25  40  67 102 138 197 236 270 315 410
#
# _framework density 20.68075
#
# number of rings (size 3 to 8) (size 9 to 14) (size 15 to 20)
#    0.000    1.067    2.667    2.000    3.733    1.067 
#    9.600    0.000    0.000    0.000    0.000    0.000 
#    0.000    0.000    0.000    0.000    0.000    0.000 
#
# Total GULP energy -83680.860696 kJ/mol
# GULP energy per Si atom -5578.724046 kJ/mol
# Density = 2.063368 g / cm^3
# Si number density = 20.680750 Si / 1000 Ang^3
#
#
#
# Elastic Constant Matrix: (Units=GPa)
#
#
# Indices 1 2 3 4 5 6 
#
# 1 189.3465 90.8002 87.7933 0.0000 0.0000 0.0000
# 2 90.8002 157.9632 95.3504 0.0000 0.0000 0.0000
# 3 87.7933 95.3504 103.4483 0.0000 0.0000 0.0000
# 4 0.0000 0.0000 0.0000 49.9764 0.0000 0.0000
# 5 0.0000 0.0000 0.0000 0.0000 -0.6695 0.0000
# 6 0.0000 0.0000 0.0000 0.0000 0.0000 36.8377
#
#
#
# Elastic Compliance Matrix: (Units=1/GPa)
#
#
# Indices 1 2 3 4 5 6 
#
# 1 0.008815 -0.001243 -0.006335 0.000000 0.000000 0.000000
# 2 -0.001243 0.014445 -0.012260 0.000000 0.000000 0.000000
# 3 -0.006335 -0.012260 0.026343 0.000000 0.000000 0.000000
# 4 0.000000 0.000000 0.000000 0.020009 0.000000 0.000000
# 5 0.000000 0.000000 0.000000 0.000000 -1.493567 0.000000
# 6 0.000000 0.000000 0.000000 0.000000 0.000000 0.027146
#
#
# Mechanical properties :
#
#
# Convention : Reuss Voigt Hill
#
# Bulk Modulus (GPa) = 100.72922 110.96066 105.84494
# Shear Modulus (GPa) = -3.69325 29.01652 12.66164
#
# Velocity S-wave (km/s) = -1.33780 3.74982 2.47704
# Velocity P-wave (km/s) = 6.81368 8.51579 7.71184
#
# Compressibility (1/GPa) = 0.00992761
#
# Stress axis : x y z
#
# Youngs Moduli (GPa) = 113.44630 69.22689 37.96010
#
# Poissons Ratio (x) = 0.08603 0.24049
# Poissons Ratio (y) = 0.14098 0.46539
# Poissons Ratio (z) = 0.71873 0.84871
#
# Static dielectric constant tensor:
#      x y z
#    x 1.793060 0.000000 0.000000 
#    y 0.000000 1.841680 0.000000 
#    z 0.000000 0.000000 1.709730 
# 
# From -- ./inp_files/46959.got.cif
#   From: 2010.05.17/outbox.cif.g08.bks.cpg/sg22_24_cif.got.tgz:46959.got - 2010.06.03 23:40:54.
