data_PCOD9328509
_publ_section_title
;
Structure prediction by ZEFSAII (Michael W. Deem and Ramdas Pophale) SiO2 
 PCOD9328509
Probable space group: F 2 2 2
;
_chemical_formula_sum "Si O2"
_cell_formula_units_Z 56
_cell_length_a 14.081831
_cell_length_b 5.720659
_cell_length_c 29.177896
_cell_angle_alpha 90.000000
_cell_angle_beta 90.000000
_cell_angle_gamma 90.000000
_cell_volume 2350.494075
_symmetry_space_group_name_H-M "F 2 2 2"
_symmetry_group_IT_number 22
_symmetry_cell_setting 'orthorhombic'
loop_
_space_group_symop_operation_xyz
x,y,z
-x,-y,z
x,-y,-z
-x,y,-z
x,1/2+y,1/2+z
-x,1/2-y,1/2+z
x,1/2-y,1/2-z
-x,1/2+y,1/2-z
1/2+x,y,1/2+z
1/2-x,-y,1/2+z
1/2+x,-y,1/2-z
1/2-x,y,1/2-z
1/2+x,1/2+y,z
1/2-x,1/2-y,z
1/2+x,1/2-y,-z
1/2-x,1/2+y,-z
loop_
_atom_site_type_symbol
_atom_site_label
_atom_site_fract_x
_atom_site_fract_y
_atom_site_fract_z
Si Si1 0.750000 0.250000 0.838051
Si Si2 0.104968 0.588180 0.208904
Si Si3 0.139752 0.751902 0.482059
Si Si4 0.604061 0.604995 0.882178
O O1 0.822414 0.387514 0.805261
O O2 0.684935 0.415769 0.869868
O O3 0.139818 0.750000 0.250000
O O4 0.095520 0.737622 0.162733
O O5 0.000000 0.500000 0.221805
O O6 0.101997 0.500000 0.500000
O O7 0.250000 0.750000 0.496511
O O8 0.131943 0.746379 0.427279
O O9 0.101094 0.000000 0.500000
O O10 0.500000 0.500000 0.890531
#
# Coordination Sequence:
#
# PCOD9328509 Si02
#       4
#     8  16  16  16
#     4  12  28  51  84 110 162 216 260 338 409 486
#     4  12  28  52  78 116 160 207 270 331 407 489
#     4  10  24  45  79 114 157 211 269 335 407 484
#     4  12  27  50  80 117 157 211 269 337 403 492
#
# _framework density 23.824778999999999
#
# number of rings (size 3 to 8) (size 9 to 14) (size 15 to 20)
#    0.000    0.571    2.857    3.429   10.000    4.000 
#    0.000    1.429    0.000    0.000    0.000    0.000 
#    0.000    0.000    0.000    0.000    0.000    0.000 
#
# Total GULP energy -78471.010241 kJ/mol
# GULP energy per Si atom -5605.072160 kJ/mol
# Density = 2.377055 g / cm^3
# Si number density = 23.824779 Si / 1000 Ang^3
#
#
#
# Elastic Constant Matrix: (Units=GPa)
#
#
# Indices 1 2 3 4 5 6 
#
# 1 174.3049 59.6531 6.5731 0.0000 0.0000 0.0000
# 2 59.6531 162.2839 76.3908 0.0000 0.0000 0.0000
# 3 6.5731 76.3908 142.3035 0.0000 0.0000 0.0000
# 4 0.0000 0.0000 0.0000 48.3378 0.0000 0.0000
# 5 0.0000 0.0000 0.0000 0.0000 13.0581 0.0000
# 6 0.0000 0.0000 0.0000 0.0000 0.0000 -21.5611
#
#
#
# Elastic Compliance Matrix: (Units=1/GPa)
#
#
# Indices 1 2 3 4 5 6 
#
# 1 0.006755 -0.003126 0.001366 0.000000 0.000000 0.000000
# 2 -0.003126 0.009692 -0.005059 0.000000 0.000000 0.000000
# 3 0.001366 -0.005059 0.009680 0.000000 0.000000 0.000000
# 4 0.000000 0.000000 0.000000 0.020688 0.000000 0.000000
# 5 0.000000 0.000000 0.000000 0.000000 0.076581 0.000000
# 6 0.000000 0.000000 0.000000 0.000000 0.000000 -0.046380
#
#
# Mechanical properties :
#
#
# Convention : Reuss Voigt Hill
#
# Bulk Modulus (GPa) = 80.06333 84.90294 82.48314
# Shear Modulus (GPa) = 52.73285 30.38530 41.55907
#
# Velocity S-wave (km/s) = 4.70974 3.57510 4.18109
# Velocity P-wave (km/s) = 7.95321 7.26330 7.61607
#
# Compressibility (1/GPa) = 0.01249011
#
# Stress axis : x y z
#
# Youngs Moduli (GPa) = 148.02778 103.17294 103.30893
#
# Poissons Ratio (x) = 0.32255 -0.14114
# Poissons Ratio (y) = 0.46278 0.52261
# Poissons Ratio (z) = -0.20224 0.52192
#
# Static dielectric constant tensor:
#      x y z
#    x 1.951090 0.000000 0.000000 
#    y 0.000000 1.946800 0.000000 
#    z 0.000000 0.000000 1.830490 
# 
# From -- ./inp_files/1859.got.cif
#   From: 2010.05.17/outbox.cif.g08.bks.cpg/sg22_1_cif.got.tgz:1859.got - 2010.06.03 23:40:54.
