data_PCOD9328650
_publ_section_title
;
Structure prediction by ZEFSAII (Michael W. Deem and Ramdas Pophale) SiO2 
 PCOD9328650
Probable space group: F 2 2 2
;
_chemical_formula_sum "Si O2"
_cell_formula_units_Z 60
_cell_length_a 7.778445
_cell_length_b 19.136248
_cell_length_c 16.843139
_cell_angle_alpha 90.000000
_cell_angle_beta 90.000000
_cell_angle_gamma 90.000000
_cell_volume 2507.105494
_symmetry_space_group_name_H-M "F 2 2 2"
_symmetry_group_IT_number 22
_symmetry_cell_setting 'orthorhombic'
loop_
_space_group_symop_operation_xyz
x,y,z
-x,-y,z
x,-y,-z
-x,y,-z
x,1/2+y,1/2+z
-x,1/2-y,1/2+z
x,1/2-y,1/2-z
-x,1/2+y,1/2-z
1/2+x,y,1/2+z
1/2-x,-y,1/2+z
1/2+x,-y,1/2-z
1/2-x,y,1/2-z
1/2+x,1/2+y,z
1/2-x,1/2-y,z
1/2+x,1/2-y,-z
1/2-x,1/2+y,-z
loop_
_atom_site_type_symbol
_atom_site_label
_atom_site_fract_x
_atom_site_fract_y
_atom_site_fract_z
Si Si1 0.293827 0.001608 0.907602
Si Si2 0.683189 0.343209 0.120476
Si Si3 0.711054 0.851722 0.340964
Si Si4 0.750000 0.250000 0.531292
Si Si5 0.750000 0.750000 0.750000
O O1 0.225175 0.075447 0.877755
O O2 0.500000 0.000000 0.903073
O O3 0.229038 0.933172 0.862609
O O4 0.242615 0.000000 0.000000
O O5 0.487948 0.331891 0.147307
O O6 0.810896 0.305681 0.183017
O O7 0.687576 0.307376 0.033739
O O8 0.750000 0.838152 0.250000
O O9 0.822317 0.805929 0.403811
#
# Coordination Sequence:
#
# PCOD9328650 Si02
#       5
#    16  16  16   8   4
#     4  11  26  47  76 107 145 200 260 311 371 453
#     4  11  26  50  76 106 147 202 250 307 383 450
#     4  12  28  45  77 114 152 194 254 326 377 445
#     4  11  25  47  75 108 148 198 249 301 375 467
#     4  10  28  44  76 104 150 182 244 316 368 458
#
# _framework density 23.931978999999998
#
# number of rings (size 3 to 8) (size 9 to 14) (size 15 to 20)
#    0.000    0.800    2.667    2.000    9.333    5.333 
#    0.000    0.000    0.000    0.000    0.000    0.000 
#    0.000    0.000    0.000    0.000    0.000    0.000 
#
# Total GULP energy -83627.127676 kJ/mol
# GULP energy per Si atom -5575.141845 kJ/mol
# Density = 2.387751 g / cm^3
# Si number density = 23.931979 Si / 1000 Ang^3
#
#
#
# Elastic Constant Matrix: (Units=GPa)
#
#
# Indices 1 2 3 4 5 6 
#
# 1 67.3922 33.0487 49.7147 0.0000 0.0000 0.0000
# 2 33.0487 226.8860 82.2525 0.0000 0.0000 0.0000
# 3 49.7147 82.2525 234.2852 0.0000 0.0000 0.0000
# 4 0.0000 0.0000 0.0000 24.8872 0.0000 0.0000
# 5 0.0000 0.0000 0.0000 0.0000 124.0274 0.0000
# 6 0.0000 0.0000 0.0000 0.0000 0.0000 15.4764
#
#
#
# Elastic Compliance Matrix: (Units=1/GPa)
#
#
# Indices 1 2 3 4 5 6 
#
# 1 0.017981 -0.001416 -0.003318 0.000000 0.000000 0.000000
# 2 -0.001416 0.005162 -0.001512 0.000000 0.000000 0.000000
# 3 -0.003318 -0.001512 0.005503 0.000000 0.000000 0.000000
# 4 0.000000 0.000000 0.000000 0.040181 0.000000 0.000000
# 5 0.000000 0.000000 0.000000 0.000000 0.008063 0.000000
# 6 0.000000 0.000000 0.000000 0.000000 0.000000 0.064615
#
#
# Mechanical properties :
#
#
# Convention : Reuss Voigt Hill
#
# Bulk Modulus (GPa) = 61.90596 95.39947 78.65271
# Shear Modulus (GPa) = 31.37128 57.11469 44.24299
#
# Velocity S-wave (km/s) = 3.62450 4.89053 4.30431
# Velocity P-wave (km/s) = 6.59087 8.47579 7.59205
#
# Compressibility (1/GPa) = 0.01615353
#
# Stress axis : x y z
#
# Youngs Moduli (GPa) = 55.61463 193.73047 181.71364
#
# Poissons Ratio (x) = 0.27435 0.60298
# Poissons Ratio (y) = 0.07876 0.27470
# Poissons Ratio (z) = 0.18455 0.29286
#
# Static dielectric constant tensor:
#      x y z
#    x 2.067390 0.000000 0.000000 
#    y 0.000000 1.665230 0.000000 
#    z 0.000000 0.000000 1.877130 
# 
# From -- ./inp_files/34722.got.cif
#   From: 2010.05.17/outbox.cif.g08.bks.cpg/sg22_18_cif.got.tgz:34722.got - 2010.06.03 23:40:54.
