data_PCOD9328573
_publ_section_title
;
Structure prediction by ZEFSAII (Michael W. Deem and Ramdas Pophale) SiO2 
 PCOD9328573
Probable space group: F 2 2 2
;
_chemical_formula_sum "Si O2"
_cell_formula_units_Z 84
_cell_length_a 11.223974
_cell_length_b 20.913691
_cell_length_c 18.923505
_cell_angle_alpha 90.000000
_cell_angle_beta 90.000000
_cell_angle_gamma 90.000000
_cell_volume 4442.003724
_symmetry_space_group_name_H-M "F 2 2 2"
_symmetry_group_IT_number 22
_symmetry_cell_setting 'orthorhombic'
loop_
_space_group_symop_operation_xyz
x,y,z
-x,-y,z
x,-y,-z
-x,y,-z
x,1/2+y,1/2+z
-x,1/2-y,1/2+z
x,1/2-y,1/2-z
-x,1/2+y,1/2-z
1/2+x,y,1/2+z
1/2-x,-y,1/2+z
1/2+x,-y,1/2-z
1/2-x,y,1/2-z
1/2+x,1/2+y,z
1/2-x,1/2-y,z
1/2+x,1/2-y,-z
1/2-x,1/2+y,-z
loop_
_atom_site_type_symbol
_atom_site_label
_atom_site_fract_x
_atom_site_fract_y
_atom_site_fract_z
Si Si1 0.742548 0.823277 0.989775
Si Si2 0.500000 0.110000 0.000000
Si Si3 0.254162 0.500412 0.831022
Si Si4 0.336349 0.142986 0.355438
Si Si5 0.750000 0.250000 0.750000
Si Si6 0.434040 0.083281 0.575482
Si Si7 0.500000 0.000000 0.894065
O O1 0.750000 0.750000 0.970156
O O2 0.610278 0.848030 0.977513
O O3 0.776622 0.832396 0.072068
O O4 0.834190 0.866265 0.946969
O O5 0.461203 0.061067 0.060424
O O6 0.250000 0.478586 0.750000
O O7 0.270921 0.577347 0.832422
O O8 0.359859 0.471030 0.880924
O O9 0.122467 0.481894 0.856882
O O10 0.325172 0.200694 0.299297
O O11 0.468631 0.118334 0.375525
O O12 0.500000 0.066397 0.500000
#
# Coordination Sequence:
#
# PCOD9328573 Si02
#       7
#    16   8  16  16   4  16   8
#     4  11  23  40  64  97 127 172 225 270 330 396
#     4  11  22  40  68  94 134 163 218 282 330 389
#     4  12  25  43  66 101 132 174 224 271 343 398
#     4  11  24  41  66  95 130 177 216 271 323 402
#     4  12  24  44  64 104 138 168 224 264 322 408
#     4  10  25  45  67  97 134 176 224 278 334 396
#     4  11  24  42  66  98 133 168 214 286 339 388
#
# _framework density 18.910384000000001
#
# number of rings (size 3 to 8) (size 9 to 14) (size 15 to 20)
#    0.000    0.952    5.714    0.571    6.667    5.333 
#    0.000    1.905    0.000    0.000    0.000    0.000 
#    0.000    0.000    0.000    0.000    0.000    0.000 
#
# Total GULP energy -117133.614757 kJ/mol
# GULP energy per Si atom -5577.791179 kJ/mol
# Density = 1.886734 g / cm^3
# Si number density = 18.910384 Si / 1000 Ang^3
#
#
#
# Elastic Constant Matrix: (Units=GPa)
#
#
# Indices 1 2 3 4 5 6 
#
# 1 95.3340 29.6391 23.7969 0.0000 0.0000 0.0000
# 2 29.6391 137.4620 34.7582 0.0000 0.0000 0.0000
# 3 23.7969 34.7582 84.5992 0.0000 0.0000 0.0000
# 4 0.0000 0.0000 0.0000 65.8658 0.0000 0.0000
# 5 0.0000 0.0000 0.0000 0.0000 17.8484 0.0000
# 6 0.0000 0.0000 0.0000 0.0000 0.0000 -4.1241
#
#
#
# Elastic Compliance Matrix: (Units=1/GPa)
#
#
# Indices 1 2 3 4 5 6 
#
# 1 0.011704 -0.001887 -0.002517 0.000000 0.000000 0.000000
# 2 -0.001887 0.008422 -0.002930 0.000000 0.000000 0.000000
# 3 -0.002517 -0.002930 0.013732 0.000000 0.000000 0.000000
# 4 0.000000 0.000000 0.000000 0.015182 0.000000 0.000000
# 5 0.000000 0.000000 0.000000 0.000000 0.056027 0.000000
# 6 0.000000 0.000000 0.000000 0.000000 0.000000 -0.242475
#
#
# Mechanical properties :
#
#
# Convention : Reuss Voigt Hill
#
# Bulk Modulus (GPa) = 52.10658 54.86484 53.48571
# Shear Modulus (GPa) = -42.97681 31.19808 -5.88936
#
# Velocity S-wave (km/s) = -4.77241 4.06616 -1.76667
# Velocity P-wave (km/s) = 1.65939 7.14989 4.91769
#
# Compressibility (1/GPa) = 0.01919143
#
# Stress axis : x y z
#
# Youngs Moduli (GPa) = 85.43755 118.73081 72.82224
#
# Poissons Ratio (x) = 0.22407 0.18329
# Poissons Ratio (y) = 0.16124 0.21334
# Poissons Ratio (z) = 0.21504 0.34783
#
# Static dielectric constant tensor:
#      x y z
#    x 1.697350 0.000000 0.000000 
#    y 0.000000 1.630160 0.000000 
#    z 0.000000 0.000000 1.695340 
# 
# From -- ./inp_files/36061.got.cif
#   From: 2010.05.17/outbox.cif.g08.bks.cpg/sg22_19_cif.got.tgz:36061.got - 2010.06.03 23:40:54.
