data_PCOD9328204
_publ_section_title
;
Structure prediction by ZEFSAII (Michael W. Deem and Ramdas Pophale) SiO2 
 PCOD9328204
Probable space group: F 2 2 2
;
_chemical_formula_sum "Si O2"
_cell_formula_units_Z 48
_cell_length_a 25.976112
_cell_length_b 13.096600
_cell_length_c 5.923978
_cell_angle_alpha 90.000000
_cell_angle_beta 90.000000
_cell_angle_gamma 90.000000
_cell_volume 2015.329901
_symmetry_space_group_name_H-M "F 2 2 2"
_symmetry_group_IT_number 22
_symmetry_cell_setting 'orthorhombic'
loop_
_space_group_symop_operation_xyz
x,y,z
-x,-y,z
x,-y,-z
-x,y,-z
x,1/2+y,1/2+z
-x,1/2-y,1/2+z
x,1/2-y,1/2-z
-x,1/2+y,1/2-z
1/2+x,y,1/2+z
1/2-x,-y,1/2+z
1/2+x,-y,1/2-z
1/2-x,y,1/2-z
1/2+x,1/2+y,z
1/2-x,1/2-y,z
1/2+x,1/2-y,-z
1/2-x,1/2+y,-z
loop_
_atom_site_type_symbol
_atom_site_label
_atom_site_fract_x
_atom_site_fract_y
_atom_site_fract_z
Si Si1 0.685795 0.110978 0.906576
Si Si2 0.000000 0.000000 0.500000
Si Si3 0.909561 0.865571 0.671008
Si Si4 0.750000 0.250000 0.250000
Si Si5 0.338088 0.000000 0.500000
O O1 0.625006 0.134452 0.942424
O O2 0.714332 0.187491 0.074284
O O3 0.806712 0.086561 0.858771
O O4 0.697996 0.000000 0.000000
O O5 0.962327 0.926030 0.639101
O O6 0.916740 0.750000 0.750000
O O7 0.874083 0.932220 0.838751
#
# Coordination Sequence:
#
# PCOD9328204 Si02
#       5
#    16   4  16   4   8
#     4  10  23  51  76 114 156 206 275 338 401 487
#     4  12  24  46  72 116 162 206 268 326 416 478
#     4  11  24  47  74 109 154 207 265 329 403 484
#     4  12  24  52  86 114 166 230 264 332 434 484
#     4  10  22  49  78 105 166 199 262 361 384 472
#
# _framework density 23.817442
#
# number of rings (size 3 to 8) (size 9 to 14) (size 15 to 20)
#    0.000    1.333    6.667    0.000    0.000    4.667 
#   12.000   10.000    0.000    0.000    0.000    0.000 
#    0.000    0.000    0.000    0.000    0.000    0.000 
#
# Total GULP energy -67040.852812 kJ/mol
# GULP energy per Si atom -5586.737734 kJ/mol
# Density = 2.376323 g / cm^3
# Si number density = 23.817442 Si / 1000 Ang^3
#
#
#
# Elastic Constant Matrix: (Units=GPa)
#
#
# Indices 1 2 3 4 5 6 
#
# 1 137.1943 73.8025 60.1167 0.0000 0.0000 0.0000
# 2 73.8025 207.5387 67.1547 0.0000 0.0000 0.0000
# 3 60.1167 67.1547 125.8460 0.0000 0.0000 0.0000
# 4 0.0000 0.0000 0.0000 53.3525 0.0000 0.0000
# 5 0.0000 0.0000 0.0000 0.0000 34.6660 0.0000
# 6 0.0000 0.0000 0.0000 0.0000 0.0000 32.9449
#
#
#
# Elastic Compliance Matrix: (Units=1/GPa)
#
#
# Indices 1 2 3 4 5 6 
#
# 1 0.010169 -0.002471 -0.003539 0.000000 0.000000 0.000000
# 2 -0.002471 0.006424 -0.002248 0.000000 0.000000 0.000000
# 3 -0.003539 -0.002248 0.010836 0.000000 0.000000 0.000000
# 4 0.000000 0.000000 0.000000 0.018743 0.000000 0.000000
# 5 0.000000 0.000000 0.000000 0.000000 0.028847 0.000000
# 6 0.000000 0.000000 0.000000 0.000000 0.000000 0.030354
#
#
# Mechanical properties :
#
#
# Convention : Reuss Voigt Hill
#
# Bulk Modulus (GPa) = 91.62687 96.96965 94.29826
# Shear Modulus (GPa) = 39.83195 42.15970 40.99583
#
# Velocity S-wave (km/s) = 4.09392 4.21184 4.15330
# Velocity P-wave (km/s) = 7.80390 8.02838 7.91694
#
# Compressibility (1/GPa) = 0.01091383
#
# Stress axis : x y z
#
# Youngs Moduli (GPa) = 98.33822 155.65572 92.28180
#
# Poissons Ratio (x) = 0.38462 0.32660
# Poissons Ratio (y) = 0.24299 0.20744
# Poissons Ratio (z) = 0.34803 0.34989
#
# Static dielectric constant tensor:
#      x y z
#    x 1.939610 0.000000 0.000000 
#    y 0.000000 1.888800 0.000000 
#    z 0.000000 0.000000 2.104750 
# 
# From -- ./inp_files/12039.got.cif
#   From: 2010.05.17/outbox.cif.g08.bks.cpg/sg22_7_cif.got.tgz:12039.got - 2010.06.03 23:40:54.
