data_PCOD9328260
_publ_section_title
;
Structure prediction by ZEFSAII (Michael W. Deem and Ramdas Pophale) SiO2 
 PCOD9328260
Probable space group: F 2 2 2
;
_chemical_formula_sum "Si O2"
_cell_formula_units_Z 104
_cell_length_a 20.206404
_cell_length_b 8.355678
_cell_length_c 28.321780
_cell_angle_alpha 90.000000
_cell_angle_beta 90.000000
_cell_angle_gamma 90.000000
_cell_volume 4781.798508
_symmetry_space_group_name_H-M "F 2 2 2"
_symmetry_group_IT_number 22
_symmetry_cell_setting 'orthorhombic'
loop_
_space_group_symop_operation_xyz
x,y,z
-x,-y,z
x,-y,-z
-x,y,-z
x,1/2+y,1/2+z
-x,1/2-y,1/2+z
x,1/2-y,1/2-z
-x,1/2+y,1/2-z
1/2+x,y,1/2+z
1/2-x,-y,1/2+z
1/2+x,-y,1/2-z
1/2-x,y,1/2-z
1/2+x,1/2+y,z
1/2-x,1/2-y,z
1/2+x,1/2-y,-z
1/2-x,1/2+y,-z
loop_
_atom_site_type_symbol
_atom_site_label
_atom_site_fract_x
_atom_site_fract_y
_atom_site_fract_z
Si Si1 0.884448 0.415548 0.050673
Si Si2 0.849096 0.439015 0.646352
Si Si3 0.931586 0.422178 0.275848
Si Si4 0.922392 0.544026 0.552695
Si Si5 0.602116 0.393425 0.683222
Si Si6 0.000000 0.000000 0.380602
Si Si7 0.213281 0.581624 0.130239
O O1 0.909152 0.233060 0.053439
O O2 0.814065 0.422510 0.076834
O O3 0.938833 0.497841 0.083795
O O4 0.883907 0.500000 0.000000
O O5 0.880348 0.574269 0.680829
O O6 0.883724 0.459286 0.595347
O O7 0.863638 0.272488 0.671735
O O8 0.771398 0.457391 0.639392
O O9 0.938002 0.250000 0.250000
O O10 0.908448 0.549220 0.236116
O O11 0.000000 0.500000 0.293824
O O12 0.899970 0.500000 0.500000
O O13 0.000000 0.500000 0.557029
O O14 0.530052 0.376311 0.657687
O O15 0.649282 0.532650 0.661002
O O16 0.250000 0.750000 0.139308
#
# Coordination Sequence:
#
# PCOD9328260 Si02
#       7
#    16  16  16  16  16   8  16
#     4  11  25  44  71 102 142 195 247 302 367 440
#     4  12  25  46  71 102 146 190 245 305 364 437
#     4  12  26  44  73 110 148 191 242 301 372 441
#     4  11  26  42  68 106 145 184 240 300 371 432
#     4  11  24  44  74 107 142 190 241 298 374 445
#     4  10  23  40  74 100 144 178 239 294 372 424
#     4  11  24  47  68  99 144 192 244 297 362 438
#
# _framework density 21.749137999999999
#
# number of rings (size 3 to 8) (size 9 to 14) (size 15 to 20)
#    0.000    0.769    2.308    4.385   10.769    1.231 
#    0.000    3.077    0.000    0.000    0.000    0.000 
#    0.000    0.000    0.000    0.000    0.000    0.000 
#
# Total GULP energy -145132.191301 kJ/mol
# GULP energy per Si atom -5582.007358 kJ/mol
# Density = 2.169964 g / cm^3
# Si number density = 21.749138 Si / 1000 Ang^3
#
#
#
# Elastic Constant Matrix: (Units=GPa)
#
#
# Indices 1 2 3 4 5 6 
#
# 1 81.2093 10.1953 27.3099 0.0000 0.0000 0.0000
# 2 10.1953 86.8156 9.6011 0.0000 0.0000 -0.0001
# 3 27.3099 9.6011 114.6755 0.0000 0.0000 0.0000
# 4 0.0000 0.0000 0.0000 14.8336 0.0000 0.0000
# 5 0.0000 0.0000 0.0000 0.0000 16.8044 0.0000
# 6 0.0000 -0.0001 0.0000 0.0000 0.0000 36.4714
#
#
#
# Elastic Compliance Matrix: (Units=1/GPa)
#
#
# Indices 1 2 3 4 5 6 
#
# 1 0.013517 -0.001243 -0.003115 0.000000 0.000000 0.000000
# 2 -0.001243 0.011741 -0.000687 0.000000 0.000000 0.000000
# 3 -0.003115 -0.000687 0.009520 0.000000 0.000000 0.000000
# 4 0.000000 0.000000 0.000000 0.067415 0.000000 0.000000
# 5 0.000000 0.000000 0.000000 0.000000 0.059508 0.000000
# 6 0.000000 0.000000 0.000000 0.000000 0.000000 0.027419
#
#
# Mechanical properties :
#
#
# Convention : Reuss Voigt Hill
#
# Bulk Modulus (GPa) = 40.50604 41.87924 41.19264
# Shear Modulus (GPa) = 24.10354 29.32815 26.71585
#
# Velocity S-wave (km/s) = 3.33265 3.67614 3.50860
# Velocity P-wave (km/s) = 5.78562 6.10869 5.94935
#
# Compressibility (1/GPa) = 0.02468768
#
# Stress axis : x y z
#
# Youngs Moduli (GPa) = 73.97821 85.17449 105.04601
#
# Poissons Ratio (x) = 0.10587 0.32723
# Poissons Ratio (y) = 0.09195 0.07216
# Poissons Ratio (z) = 0.23045 0.05851
#
# Static dielectric constant tensor:
#      x y z
#    x 1.872200 0.000000 0.000000 
#    y 0.000000 1.817000 0.000000 
#    z 0.000000 0.000000 1.766740 
# 
# From -- ./inp_files/53919.got.cif
#   From: 2010.05.17/outbox.cif.g08.bks.cpg/sg22_27_cif.got.tgz:53919.got - 2010.06.03 23:40:54.
