data_PCOD9328736
_publ_section_title
;
Structure prediction by ZEFSAII (Michael W. Deem and Ramdas Pophale) SiO2 
 PCOD9328736
Probable space group: F 2 2 2
;
_chemical_formula_sum "Si O2"
_cell_formula_units_Z 116
_cell_length_a 14.045056
_cell_length_b 15.835207
_cell_length_c 26.759739
_cell_angle_alpha 90.000000
_cell_angle_beta 90.000000
_cell_angle_gamma 90.000000
_cell_volume 5951.536389
_symmetry_space_group_name_H-M "F 2 2 2"
_symmetry_group_IT_number 22
_symmetry_cell_setting 'orthorhombic'
loop_
_space_group_symop_operation_xyz
x,y,z
-x,-y,z
x,-y,-z
-x,y,-z
x,1/2+y,1/2+z
-x,1/2-y,1/2+z
x,1/2-y,1/2-z
-x,1/2+y,1/2-z
1/2+x,y,1/2+z
1/2-x,-y,1/2+z
1/2+x,-y,1/2-z
1/2-x,y,1/2-z
1/2+x,1/2+y,z
1/2-x,1/2-y,z
1/2+x,1/2-y,-z
1/2-x,1/2+y,-z
loop_
_atom_site_type_symbol
_atom_site_label
_atom_site_fract_x
_atom_site_fract_y
_atom_site_fract_z
Si Si1 0.334812 0.895101 0.890623
Si Si2 0.992767 0.591760 0.264542
Si Si3 0.888265 0.102927 0.500513
Si Si4 0.708385 0.653994 0.199328
Si Si5 0.869331 0.652703 0.665829
Si Si6 0.750000 0.250000 0.250000
Si Si7 0.691602 0.595568 0.605150
Si Si8 0.476887 0.819240 0.162528
O O1 0.247875 0.874491 0.853946
O O2 0.429247 0.855594 0.864678
O O3 0.330543 0.996272 0.893573
O O4 0.338801 0.866695 0.948391
O O5 0.901008 0.630574 0.292426
O O6 0.000000 0.500000 0.238156
O O7 0.072640 0.579680 0.307040
O O8 0.011613 0.659850 0.220895
O O9 0.834657 0.128971 0.450010
O O10 0.000000 0.127956 0.500000
O O11 0.887872 0.000000 0.500000
O O12 0.750000 0.611564 0.250000
O O13 0.750000 0.750000 0.201117
O O14 0.810875 0.694044 0.711759
O O15 0.796045 0.622382 0.623922
O O16 0.947548 0.722973 0.650837
O O17 0.616098 0.632979 0.643561
#
# Coordination Sequence:
#
# PCOD9328736 Si02
#       8
#    16  16  16  16  16   4  16  16
#     4  11  21  38  62  90 120 157 208 267 308 366
#     4  12  24  39  59  89 122 167 211 256 301 375
#     4   9  18  34  61  91 119 152 203 266 323 357
#     4  11  24  40  59  85 121 166 208 251 309 372
#     4  12  23  39  57  86 130 166 200 245 320 378
#     4  12  20  36  56  84 114 164 182 232 306 384
#     4  11  21  37  60  93 123 160 204 259 316 376
#     4  12  21  34  59  89 124 163 199 251 313 379
#
# _framework density 19.490766000000001
#
# number of rings (size 3 to 8) (size 9 to 14) (size 15 to 20)
#    0.000    0.828    5.517    2.897    1.931    0.000 
#    2.483    1.379    0.000    0.828    0.000    3.862 
#    0.000    0.000    0.000    0.000    0.000    0.000 
#
# Total GULP energy -161572.985250 kJ/mol
# GULP energy per Si atom -5571.482250 kJ/mol
# Density = 1.944640 g / cm^3
# Si number density = 19.490766 Si / 1000 Ang^3
#
#
#
# Elastic Constant Matrix: (Units=GPa)
#
#
# Indices 1 2 3 4 5 6 
#
# 1 103.4332 4.9550 68.9994 0.0000 0.0000 0.0000
# 2 4.9550 41.6116 9.8441 0.0000 0.0000 0.0000
# 3 68.9994 9.8441 147.6383 0.0000 0.0000 0.0000
# 4 0.0000 0.0000 0.0000 8.0019 0.0000 0.0000
# 5 0.0000 0.0000 0.0000 0.0000 37.0382 0.0000
# 6 0.0000 0.0000 0.0000 0.0000 0.0000 28.0443
#
#
#
# Elastic Compliance Matrix: (Units=1/GPa)
#
#
# Indices 1 2 3 4 5 6 
#
# 1 0.014048 -0.000122 -0.006557 0.000000 0.000000 0.000000
# 2 -0.000122 0.024418 -0.001571 0.000000 0.000000 0.000000
# 3 -0.006557 -0.001571 0.009943 0.000000 0.000000 0.000000
# 4 0.000000 0.000000 0.000000 0.124971 0.000000 0.000000
# 5 0.000000 0.000000 0.000000 0.000000 0.026999 0.000000
# 6 0.000000 0.000000 0.000000 0.000000 0.000000 0.035658
#
#
# Mechanical properties :
#
#
# Convention : Reuss Voigt Hill
#
# Bulk Modulus (GPa) = 31.33971 51.14224 41.24097
# Shear Modulus (GPa) = 18.99886 28.54253 23.77070
#
# Velocity S-wave (km/s) = 3.12551 3.83092 3.49605
# Velocity P-wave (km/s) = 5.39807 6.77230 6.12386
#
# Compressibility (1/GPa) = 0.03190840
#
# Stress axis : x y z
#
# Youngs Moduli (GPa) = 71.18300 40.95347 100.57609
#
# Poissons Ratio (x) = 0.00498 0.65952
# Poissons Ratio (y) = 0.00865 0.15804
# Poissons Ratio (z) = 0.46678 0.06435
#
# Static dielectric constant tensor:
#      x y z
#    x 1.727040 0.000000 0.000000 
#    y 0.000000 1.870360 0.000000 
#    z 0.000000 0.000000 1.686410 
# 
# From -- ./inp_files/52724.got.cif
#   From: 2010.05.17/outbox.cif.g08.bks.cpg/sg22_27_cif.got.tgz:52724.got - 2010.06.03 23:40:54.
