data_PCOD9328125
_publ_section_title
;
Structure prediction by ZEFSAII (Michael W. Deem and Ramdas Pophale) SiO2 
 PCOD9328125
Probable space group: F 2 2 2
;
_chemical_formula_sum "Si O2"
_cell_formula_units_Z 100
_cell_length_a 20.520833
_cell_length_b 8.557838
_cell_length_c 24.910057
_cell_angle_alpha 90.000000
_cell_angle_beta 90.000000
_cell_angle_gamma 90.000000
_cell_volume 4374.553864
_symmetry_space_group_name_H-M "F 2 2 2"
_symmetry_group_IT_number 22
_symmetry_cell_setting 'orthorhombic'
loop_
_space_group_symop_operation_xyz
x,y,z
-x,-y,z
x,-y,-z
-x,y,-z
x,1/2+y,1/2+z
-x,1/2-y,1/2+z
x,1/2-y,1/2-z
-x,1/2+y,1/2-z
1/2+x,y,1/2+z
1/2-x,-y,1/2+z
1/2+x,-y,1/2-z
1/2-x,y,1/2-z
1/2+x,1/2+y,z
1/2-x,1/2-y,z
1/2+x,1/2-y,-z
1/2-x,1/2+y,-z
loop_
_atom_site_type_symbol
_atom_site_label
_atom_site_fract_x
_atom_site_fract_y
_atom_site_fract_z
Si Si1 0.574227 0.697105 0.884510
Si Si2 0.394754 0.476347 0.332625
Si Si3 0.826849 0.497752 0.558693
Si Si4 0.500000 0.000000 0.000000
Si Si5 0.437032 0.747650 0.576609
Si Si6 0.620596 0.423221 0.224004
Si Si7 0.755134 0.932721 0.167985
O O1 0.635309 0.654510 0.922361
O O2 0.506680 0.673864 0.913985
O O3 0.581730 0.591499 0.831498
O O4 0.575555 0.874831 0.863148
O O5 0.411783 0.325313 0.367223
O O6 0.413166 0.473104 0.269991
O O7 0.316983 0.501931 0.329603
O O8 0.795687 0.500000 0.500000
O O9 0.883663 0.367734 0.556184
O O10 0.779259 0.452716 0.606860
O O11 0.453458 0.108117 0.035973
O O12 0.626095 0.250000 0.250000
O O13 0.691115 0.487645 0.205917
O O14 0.750000 0.750000 0.181389
#
# Coordination Sequence:
#
# PCOD9328125 Si02
#       7
#    16  16  16   4  16  16  16
#     4  10  22  44  66  98 128 174 222 271 326 400
#     4  11  22  42  67  97 136 172 218 271 329 402
#     4  11  25  45  66  95 131 172 225 280 336 389
#     4  12  24  40  74  96 124 188 218 272 340 400
#     4  12  23  43  68  98 134 170 226 274 332 403
#     4   9  22  41  70  96 133 180 217 266 332 400
#     4  11  23  45  67 101 134 172 226 274 333 400
#
# _framework density 22.859472
#
# number of rings (size 3 to 8) (size 9 to 14) (size 15 to 20)
#    0.000    1.280    3.200    1.920    0.000    9.600 
#    4.320   17.600    0.000    0.000    0.000    0.000 
#    0.000    0.000    0.000    0.000    0.000    0.000 
#
# Total GULP energy -139940.104646 kJ/mol
# GULP energy per Si atom -5597.604186 kJ/mol
# Density = 2.280744 g / cm^3
# Si number density = 22.859472 Si / 1000 Ang^3
#
#
#
# Elastic Constant Matrix: (Units=GPa)
#
#
# Indices 1 2 3 4 5 6 
#
# 1 44.2812 -5.9082 -2.0734 0.0000 0.0000 0.0000
# 2 -5.9082 39.4193 2.2418 0.0000 0.0000 0.0000
# 3 -2.0734 2.2418 115.0351 0.0000 0.0000 0.0000
# 4 0.0000 0.0000 0.0000 15.5736 0.0000 0.0000
# 5 0.0000 0.0000 0.0000 0.0000 23.8887 0.0000
# 6 0.0000 0.0000 0.0000 0.0000 0.0000 27.4374
#
#
#
# Elastic Compliance Matrix: (Units=1/GPa)
#
#
# Indices 1 2 3 4 5 6 
#
# 1 0.023058 0.003436 0.000349 0.000000 0.000000 0.000000
# 2 0.003436 0.025908 -0.000443 0.000000 0.000000 0.000000
# 3 0.000349 -0.000443 0.008708 0.000000 0.000000 0.000000
# 4 0.000000 0.000000 0.000000 0.064211 0.000000 0.000000
# 5 0.000000 0.000000 0.000000 0.000000 0.041861 0.000000
# 6 0.000000 0.000000 0.000000 0.000000 0.000000 0.036447
#
#
# Mechanical properties :
#
#
# Convention : Reuss Voigt Hill
#
# Bulk Modulus (GPa) = 15.53819 20.80623 18.17221
# Shear Modulus (GPa) = 23.25993 27.01162 25.13578
#
# Velocity S-wave (km/s) = 3.19332 3.44123 3.31959
# Velocity P-wave (km/s) = 4.51756 4.99109 4.76022
#
# Compressibility (1/GPa) = 0.06435757
#
# Stress axis : x y z
#
# Youngs Moduli (GPa) = 43.36945 38.59738 114.83804
#
# Poissons Ratio (x) = -0.13262 -0.04004
# Poissons Ratio (y) = -0.14902 0.05087
# Poissons Ratio (z) = -0.01512 0.01710
#
# Static dielectric constant tensor:
#      x y z
#    x 1.810570 0.000000 0.000000 
#    y 0.000000 1.880190 0.000000 
#    z 0.000000 0.000000 1.883080 
# 
# From -- ./inp_files/53940.got.cif
#   From: 2010.05.17/outbox.cif.g08.bks.cpg/sg22_27_cif.got.tgz:53940.got - 2010.06.03 23:40:54.
