data_PCOD9328483
_publ_section_title
;
Structure prediction by ZEFSAII (Michael W. Deem and Ramdas Pophale) SiO2 
 PCOD9328483
Probable space group: F 2 2 2
;
_chemical_formula_sum "Si O2"
_cell_formula_units_Z 80
_cell_length_a 10.200630
_cell_length_b 21.370181
_cell_length_c 16.413727
_cell_angle_alpha 90.000000
_cell_angle_beta 90.000000
_cell_angle_gamma 90.000000
_cell_volume 3578.017014
_symmetry_space_group_name_H-M "F 2 2 2"
_symmetry_group_IT_number 22
_symmetry_cell_setting 'orthorhombic'
loop_
_space_group_symop_operation_xyz
x,y,z
-x,-y,z
x,-y,-z
-x,y,-z
x,1/2+y,1/2+z
-x,1/2-y,1/2+z
x,1/2-y,1/2-z
-x,1/2+y,1/2-z
1/2+x,y,1/2+z
1/2-x,-y,1/2+z
1/2+x,-y,1/2-z
1/2-x,y,1/2-z
1/2+x,1/2+y,z
1/2-x,1/2-y,z
1/2+x,1/2-y,-z
1/2-x,1/2+y,-z
loop_
_atom_site_type_symbol
_atom_site_label
_atom_site_fract_x
_atom_site_fract_y
_atom_site_fract_z
Si Si1 0.622233 0.932165 0.953042
Si Si2 0.982934 0.929703 0.737150
Si Si3 0.250000 0.352601 0.250000
Si Si4 0.638162 0.838720 0.514091
Si Si5 0.750000 0.250000 0.362546
Si Si6 0.250000 0.853240 0.250000
Si Si7 0.750000 0.750000 0.379753
O O1 0.574389 0.934596 0.857681
O O2 0.500000 0.901694 0.000000
O O3 0.747002 0.888545 0.969881
O O4 0.640431 0.000000 0.000000
O O5 0.120500 0.895749 0.755681
O O6 0.865111 0.895526 0.784094
O O7 0.000000 0.000000 0.765105
O O8 0.297206 0.305102 0.320700
O O9 0.500000 0.870874 0.500000
O O10 0.645501 0.788703 0.586968
O O11 0.660258 0.791655 0.438554
O O12 0.818129 0.195773 0.310616
#
# Coordination Sequence:
#
# PCOD9328483 Si02
#       7
#    16  16   8  16   8   8   8
#     4  11  23  46  75 101 143 196 244 292 363 436
#     4  12  25  47  73 100 140 193 241 299 360 434
#     4  11  27  44  70 104 141 187 240 298 364 433
#     4  11  25  44  73 110 142 186 247 301 362 432
#     4  10  24  44  68 104 144 188 232 292 370 436
#     4  11  25  44  74 100 143 191 240 296 366 437
#     4  10  26  42  66 102 148 180 228 298 362 426
#
# _framework density 22.358753
#
# number of rings (size 3 to 8) (size 9 to 14) (size 15 to 20)
#    0.000    1.000    4.000    1.800    5.600    5.200 
#    0.000    0.000    0.000    0.000    0.000    0.000 
#    0.000    0.000    0.000    0.000    0.000    0.000 
#
# Total GULP energy -111359.716918 kJ/mol
# GULP energy per Si atom -5567.985846 kJ/mol
# Density = 2.230786 g / cm^3
# Si number density = 22.358753 Si / 1000 Ang^3
#
#
#
# Elastic Constant Matrix: (Units=GPa)
#
#
# Indices 1 2 3 4 5 6 
#
# 1 178.3973 79.7534 7.1883 0.0000 0.0000 0.0000
# 2 79.7534 162.0293 27.3779 0.0000 0.0000 0.0000
# 3 7.1883 27.3779 54.2677 0.0000 0.0000 0.0000
# 4 0.0000 0.0000 0.0000 6.0941 0.0000 0.0000
# 5 0.0000 0.0000 0.0000 0.0000 384.0957 0.0000
# 6 0.0000 0.0000 0.0000 0.0000 0.0000 6.1620
#
#
#
# Elastic Compliance Matrix: (Units=1/GPa)
#
#
# Indices 1 2 3 4 5 6 
#
# 1 0.007228 -0.003713 0.000916 0.000000 0.000000 0.000000
# 2 -0.003713 0.008654 -0.003874 0.000000 0.000000 0.000000
# 3 0.000916 -0.003874 0.020260 0.000000 0.000000 0.000000
# 4 0.000000 0.000000 0.000000 0.164092 0.000000 0.000000
# 5 0.000000 0.000000 0.000000 0.000000 0.002604 0.000000
# 6 0.000000 0.000000 0.000000 0.000000 0.000000 0.162285
#
#
# Mechanical properties :
#
#
# Convention : Reuss Voigt Hill
#
# Bulk Modulus (GPa) = 43.85927 69.25929 56.55928
# Shear Modulus (GPa) = 12.95119 97.96200 55.45660
#
# Velocity S-wave (km/s) = 2.40936 6.62637 4.98567
# Velocity P-wave (km/s) = 5.23438 9.46513 7.64812
#
# Compressibility (1/GPa) = 0.02280020
#
# Stress axis : x y z
#
# Youngs Moduli (GPa) = 138.34499 115.55752 49.35761
#
# Poissons Ratio (x) = 0.42902 -0.04519
# Poissons Ratio (y) = 0.51362 0.19121
# Poissons Ratio (z) = -0.12666 0.44767
#
# Static dielectric constant tensor:
#      x y z
#    x 1.784960 0.000000 0.000000 
#    y 0.000000 1.739070 0.000000 
#    z 0.000000 0.000000 2.047440 
# 
# From -- ./inp_files/36062.got.cif
#   From: 2010.05.17/outbox.cif.g08.bks.cpg/sg22_19_cif.got.tgz:36062.got - 2010.06.03 23:40:54.
