data_PCOD9328515
_publ_section_title
;
Structure prediction by ZEFSAII (Michael W. Deem and Ramdas Pophale) SiO2 
 PCOD9328515
Probable space group: F 2 2 2
;
_chemical_formula_sum "Si O2"
_cell_formula_units_Z 64
_cell_length_a 11.052384
_cell_length_b 8.174126
_cell_length_c 30.788149
_cell_angle_alpha 90.000000
_cell_angle_beta 90.000000
_cell_angle_gamma 90.000000
_cell_volume 2781.511584
_symmetry_space_group_name_H-M "F 2 2 2"
_symmetry_group_IT_number 22
_symmetry_cell_setting 'orthorhombic'
loop_
_space_group_symop_operation_xyz
x,y,z
-x,-y,z
x,-y,-z
-x,y,-z
x,1/2+y,1/2+z
-x,1/2-y,1/2+z
x,1/2-y,1/2-z
-x,1/2+y,1/2-z
1/2+x,y,1/2+z
1/2-x,-y,1/2+z
1/2+x,-y,1/2-z
1/2-x,y,1/2-z
1/2+x,1/2+y,z
1/2-x,1/2-y,z
1/2+x,1/2-y,-z
1/2-x,1/2+y,-z
loop_
_atom_site_type_symbol
_atom_site_label
_atom_site_fract_x
_atom_site_fract_y
_atom_site_fract_z
Si Si1 0.779217 0.500000 0.000000
Si Si2 0.000000 0.000000 0.555895
Si Si3 0.101141 0.139693 0.071305
Si Si4 0.868057 0.340373 0.669738
Si Si5 0.119401 0.802780 0.200234
O O1 0.881732 0.420770 0.031379
O O2 0.692409 0.602167 0.031819
O O3 0.056781 0.829384 0.573457
O O4 0.152458 0.110378 0.119588
O O5 0.000000 0.000000 0.065892
O O6 0.750000 0.250000 0.685282
O O7 0.877442 0.502932 0.697565
O O8 0.997412 0.249966 0.675042
O O9 0.110597 0.750000 0.250000
O O10 0.250000 0.750000 0.181886
#
# Coordination Sequence:
#
# PCOD9328515 Si02
#       5
#     8   8  16  16  16
#     4  11  27  46  72 110 149 201 266 308 368 447
#     4  11  28  46  72 110 146 212 256 318 384 418
#     4  12  27  50  75 108 156 202 258 316 372 452
#     4  11  25  49  75 109 149 194 249 311 378 450
#     4  10  24  46  72 108 143 185 241 300 380 456
#
# _framework density 23.009072
#
# number of rings (size 3 to 8) (size 9 to 14) (size 15 to 20)
#    0.000    1.000    2.500    2.625   10.500   13.500 
#    0.000    0.000    0.000    0.000    0.000    0.000 
#    0.000    0.000    0.000    0.000    0.000    0.000 
#
# Total GULP energy -89110.124364 kJ/mol
# GULP energy per Si atom -5569.382773 kJ/mol
# Density = 2.295670 g / cm^3
# Si number density = 23.009072 Si / 1000 Ang^3
#
#
#
# Elastic Constant Matrix: (Units=GPa)
#
#
# Indices 1 2 3 4 5 6 
#
# 1 191.8414 65.7205 27.7285 0.0000 0.0000 0.0000
# 2 65.7205 111.5994 55.6088 0.0000 0.0000 0.0000
# 3 27.7285 55.6088 107.2659 0.0000 0.0000 0.0000
# 4 0.0000 0.0000 0.0000 32.8249 0.0000 0.0000
# 5 0.0000 0.0000 0.0000 0.0000 28.9710 0.0000
# 6 0.0000 0.0000 0.0000 0.0000 0.0000 38.3469
#
#
#
# Elastic Compliance Matrix: (Units=1/GPa)
#
#
# Indices 1 2 3 4 5 6 
#
# 1 0.006544 -0.004059 0.000413 0.000000 0.000000 0.000000
# 2 -0.004059 0.014600 -0.006519 0.000000 0.000000 0.000000
# 3 0.000413 -0.006519 0.012596 0.000000 0.000000 0.000000
# 4 0.000000 0.000000 0.000000 0.030465 0.000000 0.000000
# 5 0.000000 0.000000 0.000000 0.000000 0.034517 0.000000
# 6 0.000000 0.000000 0.000000 0.000000 0.000000 0.026078
#
#
# Mechanical properties :
#
#
# Convention : Reuss Voigt Hill
#
# Bulk Modulus (GPa) = 74.58603 78.75802 76.67203
# Shear Modulus (GPa) = 33.42267 37.47185 35.44726
#
# Velocity S-wave (km/s) = 3.81542 4.03993 3.92928
# Velocity P-wave (km/s) = 7.20390 7.48764 7.34714
#
# Compressibility (1/GPa) = 0.01340734
#
# Stress axis : x y z
#
# Youngs Moduli (GPa) = 152.82217 68.49497 79.39216
#
# Poissons Ratio (x) = 0.27803 -0.03278
# Poissons Ratio (y) = 0.62033 0.51759
# Poissons Ratio (z) = -0.06309 0.44655
#
# Static dielectric constant tensor:
#      x y z
#    x 1.914490 0.000000 0.000000 
#    y 0.000000 1.965190 0.000000 
#    z 0.000000 0.000000 1.883220 
# 
# From -- ./inp_files/55825.got.cif
#   From: 2010.05.17/outbox.cif.g08.bks.cpg/sg22_28_cif.got.tgz:55825.got - 2010.06.03 23:40:54.
