data_PCOD9328273
_publ_section_title
;
Structure prediction by ZEFSAII (Michael W. Deem and Ramdas Pophale) SiO2 
 PCOD9328273
Probable space group: F 2 2 2
;
_chemical_formula_sum "Si O2"
_cell_formula_units_Z 48
_cell_length_a 5.135329
_cell_length_b 15.432562
_cell_length_c 25.028277
_cell_angle_alpha 90.000000
_cell_angle_beta 90.000000
_cell_angle_gamma 90.000000
_cell_volume 1983.523068
_symmetry_space_group_name_H-M "F 2 2 2"
_symmetry_group_IT_number 22
_symmetry_cell_setting 'orthorhombic'
loop_
_space_group_symop_operation_xyz
x,y,z
-x,-y,z
x,-y,-z
-x,y,-z
x,1/2+y,1/2+z
-x,1/2-y,1/2+z
x,1/2-y,1/2-z
-x,1/2+y,1/2-z
1/2+x,y,1/2+z
1/2-x,-y,1/2+z
1/2+x,-y,1/2-z
1/2-x,y,1/2-z
1/2+x,1/2+y,z
1/2-x,1/2-y,z
1/2+x,1/2-y,-z
1/2-x,1/2+y,-z
loop_
_atom_site_type_symbol
_atom_site_label
_atom_site_fract_x
_atom_site_fract_y
_atom_site_fract_z
Si Si1 0.499525 0.653070 0.725572
Si Si2 0.911081 0.092632 0.613621
Si Si3 0.379303 0.843778 0.441071
O O1 0.499998 0.750000 0.750000
O O2 0.750000 0.609333 0.750000
O O3 0.483025 0.656742 0.662120
O O4 0.250000 0.608045 0.750000
O O5 0.618153 0.117544 0.594869
O O6 0.120645 0.099062 0.565635
O O7 0.000000 0.000000 0.637225
O O8 0.500000 0.839491 0.500000
O O9 0.250000 0.750000 0.428706
#
# Coordination Sequence:
#
# PCOD9328273 Si02
#       3
#    16  16  16
#     4  10  23  41  67 103 140 196 245 310 371 450
#     4  12  27  45  74 112 153 197 250 318 389 454
#     4  12  27  48  75 109 147 198 257 312 374 462
#
# _framework density 24.199363999999999
#
# number of rings (size 3 to 8) (size 9 to 14) (size 15 to 20)
#    0.000    0.667    0.000    7.000   14.000    5.333 
#    0.000    0.000    0.000    0.000    0.000    0.000 
#    0.000    0.000    0.000    0.000    0.000    0.000 
#
# Total GULP energy -66893.605077 kJ/mol
# GULP energy per Si atom -5574.467090 kJ/mol
# Density = 2.414429 g / cm^3
# Si number density = 24.199364 Si / 1000 Ang^3
#
#
#
# Elastic Constant Matrix: (Units=GPa)
#
#
# Indices 1 2 3 4 5 6 
#
# 1 233.5861 16.5810 42.3651 0.0000 0.0000 0.0000
# 2 16.5810 90.6232 24.3618 0.0000 0.0000 0.0000
# 3 42.3651 24.3618 111.3356 0.0000 0.0000 0.0000
# 4 0.0000 0.0000 0.0000 4.5196 0.0000 0.0000
# 5 0.0000 0.0000 0.0000 0.0000 38.4357 0.0000
# 6 0.0000 0.0000 0.0000 0.0000 0.0000 27.3893
#
#
#
# Elastic Compliance Matrix: (Units=1/GPa)
#
#
# Indices 1 2 3 4 5 6 
#
# 1 0.004612 -0.000395 -0.001668 0.000000 0.000000 0.000000
# 2 -0.000395 0.011758 -0.002422 0.000000 0.000000 0.000000
# 3 -0.001668 -0.002422 0.010147 0.000000 0.000000 0.000000
# 4 0.000000 0.000000 0.000000 0.221259 0.000000 0.000000
# 5 0.000000 0.000000 0.000000 0.000000 0.026017 0.000000
# 6 0.000000 0.000000 0.000000 0.000000 0.000000 0.036511
#
#
# Mechanical properties :
#
#
# Convention : Reuss Voigt Hill
#
# Bulk Modulus (GPa) = 56.99780 66.90673 61.95227
# Shear Modulus (GPa) = 15.37872 37.55138 26.46505
#
# Velocity S-wave (km/s) = 2.52365 3.94350 3.31059
# Velocity P-wave (km/s) = 5.66536 6.96011 6.34584
#
# Compressibility (1/GPa) = 0.01754454
#
# Stress axis : x y z
#
# Youngs Moduli (GPa) = 216.83878 85.04670 98.55375
#
# Poissons Ratio (x) = 0.03362 0.16442
# Poissons Ratio (y) = 0.08572 0.23874
# Poissons Ratio (z) = 0.36176 0.20602
#
# Static dielectric constant tensor:
#      x y z
#    x 1.955440 0.000000 0.000000 
#    y 0.000000 2.131330 0.000000 
#    z 0.000000 0.000000 1.918880 
# 
# From -- ./inp_files/2394.got.cif
#   From: 2010.05.17/outbox.cif.g08.bks.cpg/sg22_2_cif.got.tgz:2394.got - 2010.06.03 23:40:54.
