data_PCOD9328929
_publ_section_title
;
Structure prediction by ZEFSAII (Michael W. Deem and Ramdas Pophale) SiO2 
 PCOD9328929
Probable space group: F 2 2 2
;
_chemical_formula_sum "Si O2"
_cell_formula_units_Z 88
_cell_length_a 12.888107
_cell_length_b 27.144393
_cell_length_c 12.749938
_cell_angle_alpha 90.000000
_cell_angle_beta 90.000000
_cell_angle_gamma 90.000000
_cell_volume 4460.436288
_symmetry_space_group_name_H-M "F 2 2 2"
_symmetry_group_IT_number 22
_symmetry_cell_setting 'orthorhombic'
loop_
_space_group_symop_operation_xyz
x,y,z
-x,-y,z
x,-y,-z
-x,y,-z
x,1/2+y,1/2+z
-x,1/2-y,1/2+z
x,1/2-y,1/2-z
-x,1/2+y,1/2-z
1/2+x,y,1/2+z
1/2-x,-y,1/2+z
1/2+x,-y,1/2-z
1/2-x,y,1/2-z
1/2+x,1/2+y,z
1/2-x,1/2-y,z
1/2+x,1/2-y,-z
1/2-x,1/2+y,-z
loop_
_atom_site_type_symbol
_atom_site_label
_atom_site_fract_x
_atom_site_fract_y
_atom_site_fract_z
Si Si1 0.277721 0.571253 0.587304
Si Si2 0.433583 0.130139 0.397423
Si Si3 0.311581 0.958125 0.147103
Si Si4 0.501512 0.394861 0.670559
Si Si5 0.000000 0.181045 0.500000
Si Si6 0.872549 0.742201 0.369158
O O1 0.171266 0.598156 0.616160
O O2 0.288090 0.515828 0.631421
O O3 0.278220 0.567131 0.461402
O O4 0.380588 0.598031 0.630231
O O5 0.500000 0.115936 0.500000
O O6 0.497082 0.121964 0.290423
O O7 0.401748 0.187349 0.404742
O O8 0.250000 0.940829 0.250000
O O9 0.432431 0.943912 0.159847
O O10 0.456055 0.353980 0.591684
O O11 0.081587 0.216693 0.444967
O O12 0.911884 0.750000 0.250000
O O13 0.750000 0.750000 0.366980
#
# Coordination Sequence:
#
# PCOD9328929 Si02
#       6
#    16  16  16  16   8  16
#     4  11  24  42  67  98 129 177 228 273 339 411
#     4  12  25  43  67  98 137 179 223 285 348 404
#     4  11  23  42  64  97 136 172 221 282 342 403
#     4  12  23  41  69  95 134 175 226 279 335 406
#     4  12  22  42  65 102 126 167 226 274 328 396
#     4  11  24  41  67  96 134 175 225 276 332 404
#
# _framework density 19.729011
#
# number of rings (size 3 to 8) (size 9 to 14) (size 15 to 20)
#    0.000    0.545    4.545    4.364    2.545    1.455 
#    0.000    5.455    0.000    1.091    0.000    0.000 
#    0.000    0.000    0.000    0.000    0.000    0.000 
#
# Total GULP energy -122957.202769 kJ/mol
# GULP energy per Si atom -5588.963762 kJ/mol
# Density = 1.968411 g / cm^3
# Si number density = 19.729011 Si / 1000 Ang^3
#
#
#
# Elastic Constant Matrix: (Units=GPa)
#
#
# Indices 1 2 3 4 5 6 
#
# 1 91.6567 45.8559 43.8274 0.0000 0.0000 0.0000
# 2 45.8559 111.0050 38.0356 0.0000 0.0000 0.0000
# 3 43.8274 38.0356 171.3150 0.0000 0.0000 0.0000
# 4 0.0000 0.0000 0.0000 17.5449 0.0000 0.0000
# 5 0.0000 0.0000 0.0000 0.0000 24.7078 0.0000
# 6 0.0000 0.0000 0.0000 0.0000 0.0000 34.8189
#
#
#
# Elastic Compliance Matrix: (Units=1/GPa)
#
#
# Indices 1 2 3 4 5 6 
#
# 1 0.014767 -0.005201 -0.002623 0.000000 0.000000 0.000000
# 2 -0.005201 0.011582 -0.001241 0.000000 0.000000 0.000000
# 3 -0.002623 -0.001241 0.006784 0.000000 0.000000 0.000000
# 4 0.000000 0.000000 0.000000 0.056997 0.000000 0.000000
# 5 0.000000 0.000000 0.000000 0.000000 0.040473 0.000000
# 6 0.000000 0.000000 0.000000 0.000000 0.000000 0.028720
#
#
# Mechanical properties :
#
#
# Convention : Reuss Voigt Hill
#
# Bulk Modulus (GPa) = 66.65548 69.93497 68.29522
# Shear Modulus (GPa) = 27.40418 31.83149 29.61784
#
# Velocity S-wave (km/s) = 3.73101 4.02112 3.87878
# Velocity P-wave (km/s) = 7.24013 7.55539 7.39944
#
# Compressibility (1/GPa) = 0.01500252
#
# Stress axis : x y z
#
# Youngs Moduli (GPa) = 67.71978 86.33737 147.41142
#
# Poissons Ratio (x) = 0.44907 0.38665
# Poissons Ratio (y) = 0.35224 0.18292
# Poissons Ratio (z) = 0.17763 0.10714
#
# Static dielectric constant tensor:
#      x y z
#    x 1.667060 0.000000 0.000000 
#    y 0.000000 1.690770 0.000000 
#    z 0.000000 0.000000 1.699890 
# 
# From -- ./inp_files/18407.got.cif
#   From: 2010.05.17/outbox.cif.g08.bks.cpg/sg22_10_cif.got.tgz:18407.got - 2010.06.03 23:40:54.
