data_PCOD9328113
_publ_section_title
;
Structure prediction by ZEFSAII (Michael W. Deem and Ramdas Pophale) SiO2 
 PCOD9328113
Probable space group: F 2 2 2
;
_chemical_formula_sum "Si O2"
_cell_formula_units_Z 52
_cell_length_a 30.534486
_cell_length_b 5.841467
_cell_length_c 13.625702
_cell_angle_alpha 90.000000
_cell_angle_beta 90.000000
_cell_angle_gamma 90.000000
_cell_volume 2430.364584
_symmetry_space_group_name_H-M "F 2 2 2"
_symmetry_group_IT_number 22
_symmetry_cell_setting 'orthorhombic'
loop_
_space_group_symop_operation_xyz
x,y,z
-x,-y,z
x,-y,-z
-x,y,-z
x,1/2+y,1/2+z
-x,1/2-y,1/2+z
x,1/2-y,1/2-z
-x,1/2+y,1/2-z
1/2+x,y,1/2+z
1/2-x,-y,1/2+z
1/2+x,-y,1/2-z
1/2-x,y,1/2-z
1/2+x,1/2+y,z
1/2-x,1/2-y,z
1/2+x,1/2-y,-z
1/2-x,1/2+y,-z
loop_
_atom_site_type_symbol
_atom_site_label
_atom_site_fract_x
_atom_site_fract_y
_atom_site_fract_z
Si Si1 0.179453 0.376357 0.897211
Si Si2 0.000000 0.500000 0.808189
Si Si3 0.633174 0.500000 0.000000
Si Si4 0.750000 0.250000 0.250000
Si Si5 0.592028 0.639545 0.357424
O O1 0.165862 0.117864 0.922755
O O2 0.218192 0.393100 0.820442
O O3 0.133974 0.477225 0.858531
O O4 0.190294 0.500000 0.000000
O O5 0.003425 0.250000 0.750000
O O6 0.045072 0.520282 0.868491
O O7 0.602917 0.320401 0.942788
O O8 0.590756 0.750000 0.250000
#
# Coordination Sequence:
#
# PCOD9328113 Si02
#       5
#    16   8   8   4  16
#     4  10  24  43  64 101 136 180 239 293 352 443
#     4  10  24  40  73 105 142 192 250 296 361 446
#     4  10  22  44  69  96 142 178 236 301 346 440
#     4  12  24  40  74  94 140 190 228 288 386 412
#     4  10  22  43  71  97 139 185 234 296 364 423
#
# _framework density 21.395965
#
# number of rings (size 3 to 8) (size 9 to 14) (size 15 to 20)
#    0.000    1.846    0.000    1.846   12.923    0.000 
#    0.000   14.615    0.000    0.000    0.000    0.000 
#    0.000    0.000    0.000    0.000    0.000    0.000 
#
# Total GULP energy -72553.514095 kJ/mol
# GULP energy per Si atom -5581.039546 kJ/mol
# Density = 2.134727 g / cm^3
# Si number density = 21.395965 Si / 1000 Ang^3
#
#
#
# Elastic Constant Matrix: (Units=GPa)
#
#
# Indices 1 2 3 4 5 6 
#
# 1 208.0476 55.9720 80.7871 0.0000 0.0000 0.0000
# 2 55.9720 76.0878 13.1753 -0.0001 -0.0002 0.0000
# 3 80.7871 13.1753 87.4594 0.0000 0.0000 0.0001
# 4 0.0000 -0.0001 0.0000 17.1249 -0.0001 0.0000
# 5 0.0000 -0.0002 0.0000 -0.0001 -99.4361 0.0000
# 6 0.0000 0.0000 0.0001 0.0000 0.0000 -15.5412
#
#
#
# Elastic Compliance Matrix: (Units=1/GPa)
#
#
# Indices 1 2 3 4 5 6 
#
# 1 0.009299 -0.005497 -0.007762 0.000000 0.000000 0.000000
# 2 -0.005497 0.016744 0.002555 0.000000 0.000000 0.000000
# 3 -0.007762 0.002555 0.018219 0.000000 0.000000 0.000000
# 4 0.000000 0.000000 0.000000 0.058395 0.000000 0.000000
# 5 0.000000 0.000000 0.000000 0.000000 -0.010057 0.000000
# 6 0.000000 0.000000 0.000000 0.000000 0.000000 -0.064345
#
#
# Mechanical properties :
#
#
# Convention : Reuss Voigt Hill
#
# Bulk Modulus (GPa) = 43.75458 74.60706 59.18082
# Shear Modulus (GPa) = 87.28951 -4.79313 41.24819
#
# Velocity S-wave (km/s) = 6.39420 -1.49835 4.39549
# Velocity P-wave (km/s) = 8.66075 5.65261 7.31302
#
# Compressibility (1/GPa) = 0.02285475
#
# Stress axis : x y z
#
# Youngs Moduli (GPa) = 107.53281 59.72321 54.88856
#
# Poissons Ratio (x) = 0.32829 0.42604
# Poissons Ratio (y) = 0.59109 -0.14025
# Poissons Ratio (z) = 0.83466 -0.15260
#
# Static dielectric constant tensor:
#      x y z
#    x 1.745550 0.000000 0.000000 
#    y 0.000000 1.954960 0.000000 
#    z 0.000000 0.000000 2.032370 
# 
# From -- ./inp_files/5214.got.cif
#   From: 2010.05.17/outbox.cif.g08.bks.cpg/sg22_3_cif.got.tgz:5214.got - 2010.06.03 23:40:54.
