data_PCOD9328353
_publ_section_title
;
Structure prediction by ZEFSAII (Michael W. Deem and Ramdas Pophale) SiO2 
 PCOD9328353
Probable space group: F 2 2 2
;
_chemical_formula_sum "Si O2"
_cell_formula_units_Z 60
_cell_length_a 4.985080
_cell_length_b 17.624533
_cell_length_c 29.784670
_cell_angle_alpha 90.000000
_cell_angle_beta 90.000000
_cell_angle_gamma 90.000000
_cell_volume 2616.872378
_symmetry_space_group_name_H-M "F 2 2 2"
_symmetry_group_IT_number 22
_symmetry_cell_setting 'orthorhombic'
loop_
_space_group_symop_operation_xyz
x,y,z
-x,-y,z
x,-y,-z
-x,y,-z
x,1/2+y,1/2+z
-x,1/2-y,1/2+z
x,1/2-y,1/2-z
-x,1/2+y,1/2-z
1/2+x,y,1/2+z
1/2-x,-y,1/2+z
1/2+x,-y,1/2-z
1/2-x,y,1/2-z
1/2+x,1/2+y,z
1/2-x,1/2-y,z
1/2+x,1/2-y,-z
1/2-x,1/2+y,-z
loop_
_atom_site_type_symbol
_atom_site_label
_atom_site_fract_x
_atom_site_fract_y
_atom_site_fract_z
Si Si1 0.751467 0.662748 0.532742
Si Si2 0.250000 0.250000 0.250000
Si Si3 0.429579 0.638511 0.674526
Si Si4 0.052240 0.409222 0.622210
Si Si5 0.000000 0.000000 0.272814
O O1 0.500000 0.648225 0.500000
O O2 0.750000 0.750000 0.550022
O O3 0.812194 0.608324 0.574255
O O4 0.000000 0.657049 0.500000
O O5 0.415061 0.300012 0.286066
O O6 0.725248 0.621879 0.656749
O O7 0.339584 0.561367 0.698936
O O8 0.216437 0.640203 0.633310
O O9 0.000000 0.500000 0.624769
O O10 0.250000 0.957886 0.250000
#
# Coordination Sequence:
#
# PCOD9328353 Si02
#       5
#    16   4  16  16   8
#     4  10  23  44  71 105 146 188 232 294 371 440
#     4  12  32  46  72 110 148 200 256 306 388 434
#     4  12  27  44  68 102 144 188 247 307 363 440
#     4  12  25  46  73 106 142 191 248 305 365 436
#     4  12  22  44  68  92 135 190 237 296 374 422
#
# _framework density 22.928134
#
# number of rings (size 3 to 8) (size 9 to 14) (size 15 to 20)
#    0.000    0.533    4.000    3.200    3.733    1.600 
#    0.000    1.333    0.000    0.000    0.000    0.000 
#    0.000    0.000    0.000    0.000    0.000    0.000 
#
# Total GULP energy -83702.255346 kJ/mol
# GULP energy per Si atom -5580.150356 kJ/mol
# Density = 2.287595 g / cm^3
# Si number density = 22.928134 Si / 1000 Ang^3
#
#
#
# Elastic Constant Matrix: (Units=GPa)
#
#
# Indices 1 2 3 4 5 6 
#
# 1 143.0181 30.5722 21.6312 0.0000 0.0000 0.0000
# 2 30.5722 101.1889 60.1053 0.0000 0.0000 0.0000
# 3 21.6312 60.1053 81.4984 0.0000 0.0000 0.0000
# 4 0.0000 0.0000 0.0000 -292.2584 0.0000 0.0000
# 5 0.0000 0.0000 0.0000 0.0000 3155.0981 0.0000
# 6 0.0000 0.0000 0.0000 0.0000 0.0000 23.4547
#
#
#
# Elastic Compliance Matrix: (Units=1/GPa)
#
#
# Indices 1 2 3 4 5 6 
#
# 1 0.007490 -0.001926 -0.000568 0.000000 0.000000 0.000000
# 2 -0.001926 0.018082 -0.012824 0.000000 0.000000 0.000000
# 3 -0.000568 -0.012824 0.021879 0.000000 0.000000 0.000000
# 4 0.000000 0.000000 0.000000 -0.003422 0.000000 0.000000
# 5 0.000000 0.000000 0.000000 0.000000 0.000317 0.000000
# 6 0.000000 0.000000 0.000000 0.000000 0.000000 0.042635
#
#
# Mechanical properties :
#
#
# Convention : Reuss Voigt Hill
#
# Bulk Modulus (GPa) = 59.47082 61.14696 60.30889
# Shear Modulus (GPa) = 40.57741 591.48533 316.03137
#
# Velocity S-wave (km/s) = 4.21142 16.07898 11.75308
# Velocity P-wave (km/s) = 7.04573 19.27274 14.51001
#
# Compressibility (1/GPa) = 0.01681497
#
# Stress axis : x y z
#
# Youngs Moduli (GPa) = 133.51813 55.30423 45.70629
#
# Poissons Ratio (x) = 0.10649 0.02595
# Poissons Ratio (y) = 0.25710 0.58615
# Poissons Ratio (z) = 0.07580 0.70924
#
# Static dielectric constant tensor:
#      x y z
#    x 2.362150 0.000000 0.000000 
#    y 0.000000 -16.133900 0.000000 
#    z 0.000000 0.000000 1.920390 
# 
# From -- ./inp_files/2633.got.cif
#   From: 2010.05.17/outbox.cif.g08.bks.cpg/sg22_2_cif.got.tgz:2633.got - 2010.06.03 23:40:54.
