data_PCOD9328167
_publ_section_title
;
Structure prediction by ZEFSAII (Michael W. Deem and Ramdas Pophale) SiO2 
 PCOD9328167
Probable space group: F 2 2 2
;
_chemical_formula_sum "Si O2"
_cell_formula_units_Z 96
_cell_length_a 24.771042
_cell_length_b 9.741313
_cell_length_c 20.687851
_cell_angle_alpha 90.000000
_cell_angle_beta 90.000000
_cell_angle_gamma 90.000000
_cell_volume 4992.029617
_symmetry_space_group_name_H-M "F 2 2 2"
_symmetry_group_IT_number 22
_symmetry_cell_setting 'orthorhombic'
loop_
_space_group_symop_operation_xyz
x,y,z
-x,-y,z
x,-y,-z
-x,y,-z
x,1/2+y,1/2+z
-x,1/2-y,1/2+z
x,1/2-y,1/2-z
-x,1/2+y,1/2-z
1/2+x,y,1/2+z
1/2-x,-y,1/2+z
1/2+x,-y,1/2-z
1/2-x,y,1/2-z
1/2+x,1/2+y,z
1/2-x,1/2-y,z
1/2+x,1/2-y,-z
1/2-x,1/2+y,-z
loop_
_atom_site_type_symbol
_atom_site_label
_atom_site_fract_x
_atom_site_fract_y
_atom_site_fract_z
Si Si1 0.392392 0.345502 0.483139
Si Si2 0.354697 0.022893 0.337061
Si Si3 0.305108 0.431952 0.712555
Si Si4 0.311946 0.231848 0.592481
Si Si5 0.442334 0.425241 0.061262
Si Si6 0.305384 0.303110 0.373002
O O1 0.411080 0.500000 0.500000
O O2 0.357325 0.283496 0.542608
O O3 0.437271 0.235244 0.458781
O O4 0.348931 0.351358 0.425143
O O5 0.350924 0.955536 0.266600
O O6 0.321754 0.924497 0.385969
O O7 0.411494 0.045407 0.372360
O O8 0.328352 0.172380 0.334984
O O9 0.250000 0.398724 0.750000
O O10 0.317557 0.320583 0.658179
O O11 0.294919 0.573449 0.675298
O O12 0.250000 0.250000 0.569540
O O13 0.500000 0.500000 0.065861
O O14 0.414142 0.500000 0.000000
O O15 0.250000 0.250000 0.404466
#
# Coordination Sequence:
#
# PCOD9328167 Si02
#       6
#    16  16  16  16  16  16
#     4  11  23  40  61  97 128 161 211 271 323 369
#     4  11  23  35  61  90 121 168 219 256 300 378
#     4  12  22  36  56  85 135 183 215 242 302 378
#     4  12  22  37  56  90 137 176 209 249 303 376
#     4  10  22  45  71  90 112 158 217 270 331 372
#     4  11  21  36  56  86 133 180 216 249 297 369
#
# _framework density 19.230654999999999
#
# number of rings (size 3 to 8) (size 9 to 14) (size 15 to 20)
#    0.000    0.833    6.667    1.500    0.000    0.000 
#    0.000    1.667    0.000    8.000    0.000    0.000 
#    0.000    0.000    0.000    0.000    0.000    0.000 
#
# Total GULP energy -133950.108706 kJ/mol
# GULP energy per Si atom -5581.254529 kJ/mol
# Density = 1.918689 g / cm^3
# Si number density = 19.230655 Si / 1000 Ang^3
#
#
#
# Elastic Constant Matrix: (Units=GPa)
#
#
# Indices 1 2 3 4 5 6 
#
# 1 80.7367 47.7622 34.3522 0.0000 0.0000 0.0000
# 2 47.7622 140.2862 28.3016 0.0000 0.0000 0.0000
# 3 34.3522 28.3016 98.0628 0.0000 0.0000 0.0000
# 4 0.0000 0.0000 0.0000 21.5910 0.0000 0.0000
# 5 0.0000 0.0000 0.0000 0.0000 23.6987 0.0000
# 6 0.0000 0.0000 0.0000 0.0000 0.0000 21.7567
#
#
#
# Elastic Compliance Matrix: (Units=1/GPa)
#
#
# Indices 1 2 3 4 5 6 
#
# 1 0.017283 -0.004951 -0.004625 0.000000 0.000000 0.000000
# 2 -0.004951 0.008987 -0.000859 0.000000 0.000000 0.000000
# 3 -0.004625 -0.000859 0.012066 0.000000 0.000000 0.000000
# 4 0.000000 0.000000 0.000000 0.046316 0.000000 0.000000
# 5 0.000000 0.000000 0.000000 0.000000 0.042196 0.000000
# 6 0.000000 0.000000 0.000000 0.000000 0.000000 0.045963
#
#
# Mechanical properties :
#
#
# Convention : Reuss Voigt Hill
#
# Bulk Modulus (GPa) = 57.25949 59.99085 58.62517
# Shear Modulus (GPa) = 25.06213 27.32060 26.19136
#
# Velocity S-wave (km/s) = 3.61396 3.77328 3.69448
# Velocity P-wave (km/s) = 6.87415 7.08849 6.98214
#
# Compressibility (1/GPa) = 0.01746435
#
# Stress axis : x y z
#
# Youngs Moduli (GPa) = 57.86061 111.26804 82.87811
#
# Poissons Ratio (x) = 0.55089 0.38335
# Poissons Ratio (y) = 0.28647 0.07123
# Poissons Ratio (z) = 0.26763 0.09563
#
# Static dielectric constant tensor:
#      x y z
#    x 1.683750 0.000000 0.000000 
#    y 0.000000 1.701510 0.000000 
#    z 0.000000 0.000000 1.680480 
# 
# From -- ./inp_files/12863.got.cif
#   From: 2010.05.17/outbox.cif.g08.bks.cpg/sg22_7_cif.got.tgz:12863.got - 2010.06.03 23:40:54.
