data_PCOD9328909
_publ_section_title
;
Structure prediction by ZEFSAII (Michael W. Deem and Ramdas Pophale) SiO2 
 PCOD9328909
Probable space group: F 2 2 2
;
_chemical_formula_sum "Si O2"
_cell_formula_units_Z 112
_cell_length_a 13.194148
_cell_length_b 27.676734
_cell_length_c 14.168338
_cell_angle_alpha 90.000000
_cell_angle_beta 90.000000
_cell_angle_gamma 90.000000
_cell_volume 5173.865087
_symmetry_space_group_name_H-M "F 2 2 2"
_symmetry_group_IT_number 22
_symmetry_cell_setting 'orthorhombic'
loop_
_space_group_symop_operation_xyz
x,y,z
-x,-y,z
x,-y,-z
-x,y,-z
x,1/2+y,1/2+z
-x,1/2-y,1/2+z
x,1/2-y,1/2-z
-x,1/2+y,1/2-z
1/2+x,y,1/2+z
1/2-x,-y,1/2+z
1/2+x,-y,1/2-z
1/2-x,y,1/2-z
1/2+x,1/2+y,z
1/2-x,1/2-y,z
1/2+x,1/2-y,-z
1/2-x,1/2+y,-z
loop_
_atom_site_type_symbol
_atom_site_label
_atom_site_fract_x
_atom_site_fract_y
_atom_site_fract_z
Si Si1 0.740747 0.461975 0.587383
Si Si2 0.774839 0.807119 0.640647
Si Si3 0.945335 0.309607 0.601110
Si Si4 0.517613 0.353252 0.284339
Si Si5 0.094589 0.704014 0.928797
Si Si6 0.920047 0.957417 0.243655
Si Si7 0.771290 0.359459 0.513883
O O1 0.747196 0.500000 0.500000
O O2 0.841855 0.458264 0.654020
O O3 0.648799 0.467466 0.662525
O O4 0.726396 0.410807 0.534891
O O5 0.750000 0.803541 0.750000
O O6 0.750000 0.750000 0.610859
O O7 0.885043 0.835844 0.654527
O O8 0.699898 0.847641 0.593115
O O9 0.895973 0.257125 0.612434
O O10 0.857599 0.348860 0.588957
O O11 0.000000 0.309442 0.500000
O O12 0.012936 0.321611 0.689761
O O13 0.424309 0.334321 0.347578
O O14 0.486955 0.408334 0.259018
O O15 0.191527 0.684741 0.983042
O O16 0.000000 0.705484 0.000000
O O17 0.000000 0.000000 0.230352
#
# Coordination Sequence:
#
# PCOD9328909 Si02
#       7
#    16  16  16  16  16  16  16
#     4  11  27  51  77 108 142 188 246 313 380 454
#     4  11  26  41  67 101 149 197 252 297 351 431
#     4  11  25  40  67 104 148 190 237 285 355 435
#     4  12  24  45  70 104 143 194 239 303 366 433
#     4  11  23  39  68 103 146 187 239 288 351 429
#     4  11  27  52  77 106 147 187 246 314 381 450
#     4  12  23  46  69 102 144 188 239 300 365 429
#
# _framework density 21.647261
#
# number of rings (size 3 to 8) (size 9 to 14) (size 15 to 20)
#    0.000    0.714    4.286    2.571    8.000    3.429 
#    0.000    1.429    0.000    0.000    0.000    0.000 
#    0.000    0.000    0.000    0.000    0.000    0.000 
#
# Total GULP energy -155908.006944 kJ/mol
# GULP energy per Si atom -5568.143105 kJ/mol
# Density = 2.159799 g / cm^3
# Si number density = 21.647261 Si / 1000 Ang^3
#
#
#
# Elastic Constant Matrix: (Units=GPa)
#
#
# Indices 1 2 3 4 5 6 
#
# 1 71.1085 37.1192 7.4371 0.0000 0.0000 0.0000
# 2 37.1192 141.9874 50.8265 0.0000 0.0000 0.0000
# 3 7.4371 50.8265 91.8682 0.0000 0.0000 0.0000
# 4 0.0000 0.0000 0.0000 33.6576 0.0000 0.0000
# 5 0.0000 0.0000 0.0000 0.0000 18.8457 0.0000
# 6 0.0000 0.0000 0.0000 0.0000 0.0000 29.1607
#
#
#
# Elastic Compliance Matrix: (Units=1/GPa)
#
#
# Indices 1 2 3 4 5 6 
#
# 1 0.016410 -0.004756 0.001303 0.000000 0.000000 0.000000
# 2 -0.004756 0.010161 -0.005236 0.000000 0.000000 0.000000
# 3 0.001303 -0.005236 0.013677 0.000000 0.000000 0.000000
# 4 0.000000 0.000000 0.000000 0.029711 0.000000 0.000000
# 5 0.000000 0.000000 0.000000 0.000000 0.053063 0.000000
# 6 0.000000 0.000000 0.000000 0.000000 0.000000 0.034293
#
#
# Mechanical properties :
#
#
# Convention : Reuss Voigt Hill
#
# Bulk Modulus (GPa) = 43.72992 55.08108 49.40550
# Shear Modulus (GPa) = 27.42501 30.30489 28.86495
#
# Velocity S-wave (km/s) = 3.56322 3.74564 3.65557
# Velocity P-wave (km/s) = 6.09703 6.64879 6.37888
#
# Compressibility (1/GPa) = 0.02286764
#
# Stress axis : x y z
#
# Youngs Moduli (GPa) = 60.94004 98.41772 73.11671
#
# Poissons Ratio (x) = 0.46811 -0.09527
# Poissons Ratio (y) = 0.28985 0.38287
# Poissons Ratio (z) = -0.07941 0.51536
#
# Static dielectric constant tensor:
#      x y z
#    x 1.831910 0.000000 0.000000 
#    y 0.000000 1.770910 0.000000 
#    z 0.000000 0.000000 -0.482600 
# 
# From -- ./inp_files/29619.got.cif
#   From: 2010.05.17/outbox.cif.g08.bks.cpg/sg22_15_cif.got.tgz:29619.got - 2010.06.03 23:40:54.
