data_PCOD9328174
_publ_section_title
;
Structure prediction by ZEFSAII (Michael W. Deem and Ramdas Pophale) SiO2 
 PCOD9328174
Probable space group: F 2 2 2
;
_chemical_formula_sum "Si O2"
_cell_formula_units_Z 60
_cell_length_a 8.127455
_cell_length_b 27.262206
_cell_length_c 11.245735
_cell_angle_alpha 90.000000
_cell_angle_beta 90.000000
_cell_angle_gamma 90.000000
_cell_volume 2491.743959
_symmetry_space_group_name_H-M "F 2 2 2"
_symmetry_group_IT_number 22
_symmetry_cell_setting 'orthorhombic'
loop_
_space_group_symop_operation_xyz
x,y,z
-x,-y,z
x,-y,-z
-x,y,-z
x,1/2+y,1/2+z
-x,1/2-y,1/2+z
x,1/2-y,1/2-z
-x,1/2+y,1/2-z
1/2+x,y,1/2+z
1/2-x,-y,1/2+z
1/2+x,-y,1/2-z
1/2-x,y,1/2-z
1/2+x,1/2+y,z
1/2-x,1/2-y,z
1/2+x,1/2-y,-z
1/2-x,1/2+y,-z
loop_
_atom_site_type_symbol
_atom_site_label
_atom_site_fract_x
_atom_site_fract_y
_atom_site_fract_z
Si Si1 0.998991 0.414145 0.656433
Si Si2 0.024713 0.720341 0.869544
Si Si3 0.250000 0.162977 0.750000
Si Si4 0.858126 0.613113 0.097509
Si Si5 0.500000 0.000000 0.500000
O O1 0.926472 0.417555 0.789878
O O2 0.832846 0.400632 0.583619
O O3 0.128731 0.370890 0.674147
O O4 0.076977 0.462291 0.596636
O O5 0.067296 0.750000 0.750000
O O6 0.849539 0.696521 0.838998
O O7 0.138827 0.671945 0.879249
O O8 0.000000 0.744543 0.000000
O O9 0.000000 0.605142 0.000000
#
# Coordination Sequence:
#
# PCOD9328174 Si02
#       5
#    16  16   8  16   4
#     4  10  24  45  69 108 139 193 252 306 386 442
#     4  10  22  45  74 111 145 197 253 305 370 456
#     4  10  23  48  74  98 156 202 238 314 381 456
#     4   9  21  48  74 100 149 199 242 306 388 451
#     4  12  28  40  72 108 144 180 258 326 364 464
#
# _framework density 24.079519999999999
#
# number of rings (size 3 to 8) (size 9 to 14) (size 15 to 20)
#    0.000    2.133    0.000    0.400   11.200    2.133 
#    9.600   30.667    0.000    0.000    0.000    0.000 
#    0.000    0.000    0.000    0.000    0.000    0.000 
#
# Total GULP energy -83613.311356 kJ/mol
# GULP energy per Si atom -5574.220757 kJ/mol
# Density = 2.402471 g / cm^3
# Si number density = 24.079520 Si / 1000 Ang^3
#
#
#
# Elastic Constant Matrix: (Units=GPa)
#
#
# Indices 1 2 3 4 5 6 
#
# 1 141.3966 33.3106 36.9964 0.0000 0.0000 0.0000
# 2 33.3106 80.8303 70.8953 0.0000 0.0000 0.0000
# 3 36.9964 70.8953 197.6660 0.0000 0.0000 0.0000
# 4 0.0000 0.0000 0.0000 39.8695 0.0000 0.0000
# 5 0.0000 0.0000 0.0000 0.0000 31.7037 0.0000
# 6 0.0000 0.0000 0.0000 0.0000 0.0000 21.9425
#
#
#
# Elastic Compliance Matrix: (Units=1/GPa)
#
#
# Indices 1 2 3 4 5 6 
#
# 1 0.007860 -0.002843 -0.000451 0.000000 0.000000 0.000000
# 2 -0.002843 0.019078 -0.006310 0.000000 0.000000 0.000000
# 3 -0.000451 -0.006310 0.007407 0.000000 0.000000 0.000000
# 4 0.000000 0.000000 0.000000 0.025082 0.000000 0.000000
# 5 0.000000 0.000000 0.000000 0.000000 0.031542 0.000000
# 6 0.000000 0.000000 0.000000 0.000000 0.000000 0.045574
#
#
# Mechanical properties :
#
#
# Convention : Reuss Voigt Hill
#
# Bulk Modulus (GPa) = 66.07234 78.03307 72.05270
# Shear Modulus (GPa) = 31.09489 37.28252 34.18871
#
# Velocity S-wave (km/s) = 3.59742 3.93912 3.77214
# Velocity P-wave (km/s) = 6.68985 7.29148 6.99713
#
# Compressibility (1/GPa) = 0.01513493
#
# Stress axis : x y z
#
# Youngs Moduli (GPa) = 127.22231 52.41588 135.01049
#
# Poissons Ratio (x) = 0.14904 0.06094
# Poissons Ratio (y) = 0.36174 0.85198
# Poissons Ratio (z) = 0.05742 0.33077
#
# Static dielectric constant tensor:
#      x y z
#    x 1.936970 0.000000 0.000000 
#    y 0.000000 1.921700 0.000000 
#    z 0.000000 0.000000 2.066690 
# 
# From -- ./inp_files/16815.got.cif
#   From: 2010.05.17/outbox.cif.g08.bks.cpg/sg22_9_cif.got.tgz:16815.got - 2010.06.03 23:40:54.
