data_PCOD9328498
_publ_section_title
;
Structure prediction by ZEFSAII (Michael W. Deem and Ramdas Pophale) SiO2 
 PCOD9328498
Probable space group: F 2 2 2
;
_chemical_formula_sum "Si O2"
_cell_formula_units_Z 68
_cell_length_a 30.013447
_cell_length_b 8.696606
_cell_length_c 12.939645
_cell_angle_alpha 90.000000
_cell_angle_beta 90.000000
_cell_angle_gamma 90.000000
_cell_volume 3377.443035
_symmetry_space_group_name_H-M "F 2 2 2"
_symmetry_group_IT_number 22
_symmetry_cell_setting 'orthorhombic'
loop_
_space_group_symop_operation_xyz
x,y,z
-x,-y,z
x,-y,-z
-x,y,-z
x,1/2+y,1/2+z
-x,1/2-y,1/2+z
x,1/2-y,1/2-z
-x,1/2+y,1/2-z
1/2+x,y,1/2+z
1/2-x,-y,1/2+z
1/2+x,-y,1/2-z
1/2-x,y,1/2-z
1/2+x,1/2+y,z
1/2-x,1/2-y,z
1/2+x,1/2-y,-z
1/2-x,1/2+y,-z
loop_
_atom_site_type_symbol
_atom_site_label
_atom_site_fract_x
_atom_site_fract_y
_atom_site_fract_z
Si Si1 0.140161 0.075377 0.283712
Si Si2 0.288229 0.152357 0.045026
Si Si3 0.568371 0.661288 0.648896
Si Si4 0.151648 0.372111 0.587007
Si Si5 0.000000 0.000000 0.500000
O O1 0.131693 0.250000 0.250000
O O2 0.173591 0.093371 0.379130
O O3 0.095073 0.991166 0.316794
O O4 0.160173 0.966279 0.193051
O O5 0.250000 0.250000 0.100071
O O6 0.310392 0.257439 0.955679
O O7 0.266190 0.000000 0.000000
O O8 0.550598 0.750000 0.750000
O O9 0.607018 0.771372 0.602665
O O10 0.530981 0.608733 0.570065
O O11 0.144316 0.500000 0.500000
#
# Coordination Sequence:
#
# PCOD9328498 Si02
#       5
#    16  16  16  16   4
#     4  11  23  42  72  92 129 181 227 270 335 404
#     4  12  25  43  63  98 138 174 229 291 340 391
#     4  10  24  45  69 100 133 174 228 271 337 418
#     4  11  22  44  68  96 126 183 229 270 331 414
#     4  12  24  44  74 102 144 176 202 292 360 390
#
# _framework density 20.133573999999999
#
# number of rings (size 3 to 8) (size 9 to 14) (size 15 to 20)
#    0.000    0.941    4.706    2.118    0.000    1.412 
#    4.235    1.176    0.000    0.000    0.000    0.000 
#    0.000    0.000    0.000    0.000    0.000    0.000 
#
# Total GULP energy -95007.325922 kJ/mol
# GULP energy per Si atom -5588.666231 kJ/mol
# Density = 2.008775 g / cm^3
# Si number density = 20.133574 Si / 1000 Ang^3
#
#
#
# Elastic Constant Matrix: (Units=GPa)
#
#
# Indices 1 2 3 4 5 6 
#
# 1 59.9066 38.6424 44.6860 0.0000 0.0000 0.0000
# 2 38.6424 143.3028 47.0982 0.0000 0.0000 0.0000
# 3 44.6860 47.0982 92.2938 0.0000 0.0000 0.0000
# 4 0.0000 0.0000 0.0000 32.2686 0.0000 0.0000
# 5 0.0000 0.0000 0.0000 0.0000 -171.8854 0.0000
# 6 0.0000 0.0000 0.0000 0.0000 0.0000 11.9361
#
#
#
# Elastic Compliance Matrix: (Units=1/GPa)
#
#
# Indices 1 2 3 4 5 6 
#
# 1 0.027649 -0.003672 -0.011513 0.000000 0.000000 0.000000
# 2 -0.003672 0.008872 -0.002750 0.000000 0.000000 0.000000
# 3 -0.011513 -0.002750 0.017813 0.000000 0.000000 0.000000
# 4 0.000000 0.000000 0.000000 0.030990 0.000000 0.000000
# 5 0.000000 0.000000 0.000000 0.000000 -0.005818 0.000000
# 6 0.000000 0.000000 0.000000 0.000000 0.000000 0.083779
#
#
# Mechanical properties :
#
#
# Convention : Reuss Voigt Hill
#
# Bulk Modulus (GPa) = 54.15839 61.81740 57.98790
# Shear Modulus (GPa) = 24.35350 -14.53103 4.91123
#
# Velocity S-wave (km/s) = 3.48170 -2.68942 1.56353
# Velocity P-wave (km/s) = 6.56665 4.59634 5.66777
#
# Compressibility (1/GPa) = 0.01846436
#
# Stress axis : x y z
#
# Youngs Moduli (GPa) = 36.16748 112.71313 56.14033
#
# Poissons Ratio (x) = 0.41386 0.64635
# Poissons Ratio (y) = 0.13280 0.15437
# Poissons Ratio (z) = 0.41640 0.30993
#
# Static dielectric constant tensor:
#      x y z
#    x 1.680230 0.000000 0.000000 
#    y 0.000000 1.745500 0.000000 
#    z 0.000000 0.000000 1.749910 
# 
# From -- ./inp_files/10027.got.cif
#   From: 2010.05.17/outbox.cif.g08.bks.cpg/sg22_6_cif.got.tgz:10027.got - 2010.06.03 23:40:54.
