data_PCOD9328651
_publ_section_title
;
Structure prediction by ZEFSAII (Michael W. Deem and Ramdas Pophale) SiO2 
 PCOD9328651
Probable space group: F 2 2 2
;
_chemical_formula_sum "Si O2"
_cell_formula_units_Z 92
_cell_length_a 8.135643
_cell_length_b 25.662353
_cell_length_c 19.841228
_cell_angle_alpha 90.000000
_cell_angle_beta 90.000000
_cell_angle_gamma 90.000000
_cell_volume 4142.446474
_symmetry_space_group_name_H-M "F 2 2 2"
_symmetry_group_IT_number 22
_symmetry_cell_setting 'orthorhombic'
loop_
_space_group_symop_operation_xyz
x,y,z
-x,-y,z
x,-y,-z
-x,y,-z
x,1/2+y,1/2+z
-x,1/2-y,1/2+z
x,1/2-y,1/2-z
-x,1/2+y,1/2-z
1/2+x,y,1/2+z
1/2-x,-y,1/2+z
1/2+x,-y,1/2-z
1/2-x,y,1/2-z
1/2+x,1/2+y,z
1/2-x,1/2-y,z
1/2+x,1/2-y,-z
1/2-x,1/2+y,-z
loop_
_atom_site_type_symbol
_atom_site_label
_atom_site_fract_x
_atom_site_fract_y
_atom_site_fract_z
Si Si1 0.500000 0.000000 0.642046
Si Si2 0.484430 0.882316 0.798725
Si Si3 0.273442 0.589343 0.909565
Si Si4 0.750000 0.543839 0.750000
Si Si5 0.500000 0.372243 0.500000
Si Si6 0.250000 0.250000 0.250000
Si Si7 0.314414 0.690870 0.381750
Si Si8 0.451271 0.333067 0.163323
O O1 0.586585 0.045389 0.597183
O O2 0.357822 0.014475 0.695187
O O3 0.351431 0.908142 0.846363
O O4 0.636752 0.920228 0.796266
O O5 0.550331 0.825743 0.824831
O O6 0.431543 0.875735 0.722106
O O7 0.360093 0.646045 0.902738
O O8 0.145801 0.591599 0.970736
O O9 0.595736 0.335561 0.445829
O O10 0.363109 0.284239 0.199023
O O11 0.250000 0.750000 0.393163
O O12 0.142308 0.668447 0.354315
#
# Coordination Sequence:
#
# PCOD9328651 Si02
#       8
#     8  16  16   8   8   4  16  16
#     4  12  24  40  74 107 132 177 232 286 372 444
#     4  11  20  41  65 106 150 173 211 292 363 423
#     4  11  24  45  69 100 139 184 234 300 352 418
#     4  12  22  37  65 108 140 165 207 278 374 446
#     4  10  28  48  66  93 144 192 248 311 338 384
#     4  12  24  34  70 116 156 184 220 284 362 452
#     4  11  24  42  68  99 139 195 248 281 338 419
#     4  12  22  39  67 105 146 182 223 284 362 430
#
# _framework density 22.209097
#
# number of rings (size 3 to 8) (size 9 to 14) (size 15 to 20)
#    0.000    0.696    5.217    2.087    2.435    2.783 
#    0.000    0.000    0.000   30.261    0.000    0.000 
#    0.000    0.000    0.000    0.000    0.000    0.000 
#
# Total GULP energy -128149.133373 kJ/mol
# GULP energy per Si atom -5571.701451 kJ/mol
# Density = 2.215855 g / cm^3
# Si number density = 22.209097 Si / 1000 Ang^3
#
#
#
# Elastic Constant Matrix: (Units=GPa)
#
#
# Indices 1 2 3 4 5 6 
#
# 1 114.3897 39.5603 31.1969 0.0000 0.0000 0.0000
# 2 39.5603 84.6400 15.7501 0.0000 0.0000 0.0000
# 3 31.1969 15.7501 58.1424 0.0000 0.0000 0.0000
# 4 0.0000 0.0000 0.0000 2.0698 0.0000 0.0000
# 5 0.0000 0.0000 0.0000 0.0000 49.4320 0.0000
# 6 0.0000 0.0000 0.0000 0.0000 0.0000 40.7492
#
#
#
# Elastic Compliance Matrix: (Units=1/GPa)
#
#
# Indices 1 2 3 4 5 6 
#
# 1 0.011681 -0.004521 -0.005043 0.000000 0.000000 0.000000
# 2 -0.004521 0.014192 -0.001419 0.000000 0.000000 0.000000
# 3 -0.005043 -0.001419 0.020289 0.000000 0.000000 0.000000
# 4 0.000000 0.000000 0.000000 0.483131 0.000000 0.000000
# 5 0.000000 0.000000 0.000000 0.000000 0.020230 0.000000
# 6 0.000000 0.000000 0.000000 0.000000 0.000000 0.024540
#
#
# Mechanical properties :
#
#
# Convention : Reuss Voigt Hill
#
# Bulk Modulus (GPa) = 41.32749 47.79853 44.56301
# Shear Modulus (GPa) = 8.27686 29.82786 19.05236
#
# Velocity S-wave (km/s) = 1.93258 3.66874 2.93211
# Velocity P-wave (km/s) = 4.86093 6.28609 5.61888
#
# Compressibility (1/GPa) = 0.02419697
#
# Stress axis : x y z
#
# Youngs Moduli (GPa) = 85.60942 70.46261 49.28737
#
# Poissons Ratio (x) = 0.31858 0.24855
# Poissons Ratio (y) = 0.38706 0.06992
# Poissons Ratio (z) = 0.43171 0.09995
#
# Static dielectric constant tensor:
#      x y z
#    x 2.294960 0.000000 0.000000 
#    y 0.000000 1.916120 0.000000 
#    z 0.000000 0.000000 1.837720 
# 
# From -- ./inp_files/41900.got.cif
#   From: 2010.05.17/outbox.cif.g08.bks.cpg/sg22_21_cif.got.tgz:41900.got - 2010.06.03 23:40:54.
