data_PCOD9328212
_publ_section_title
;
Structure prediction by ZEFSAII (Michael W. Deem and Ramdas Pophale) SiO2 
 PCOD9328212
Probable space group: F 2 2 2
;
_chemical_formula_sum "Si O2"
_cell_formula_units_Z 104
_cell_length_a 24.989386
_cell_length_b 8.116007
_cell_length_c 27.679140
_cell_angle_alpha 90.000000
_cell_angle_beta 90.000000
_cell_angle_gamma 90.000000
_cell_volume 5613.717977
_symmetry_space_group_name_H-M "F 2 2 2"
_symmetry_group_IT_number 22
_symmetry_cell_setting 'orthorhombic'
loop_
_space_group_symop_operation_xyz
x,y,z
-x,-y,z
x,-y,-z
-x,y,-z
x,1/2+y,1/2+z
-x,1/2-y,1/2+z
x,1/2-y,1/2-z
-x,1/2+y,1/2-z
1/2+x,y,1/2+z
1/2-x,-y,1/2+z
1/2+x,-y,1/2-z
1/2-x,y,1/2-z
1/2+x,1/2+y,z
1/2-x,1/2-y,z
1/2+x,1/2-y,-z
1/2-x,1/2+y,-z
loop_
_atom_site_type_symbol
_atom_site_label
_atom_site_fract_x
_atom_site_fract_y
_atom_site_fract_z
Si Si1 0.683003 0.954268 0.698295
Si Si2 0.690533 0.557189 0.693206
Si Si3 0.219599 0.576380 0.447156
Si Si4 0.678923 0.924986 0.092258
Si Si5 0.129936 0.427652 0.395558
Si Si6 0.941456 0.341255 0.524645
Si Si7 0.384614 0.000000 0.000000
O O1 0.683603 0.755322 0.692092
O O2 0.670354 0.996132 0.754006
O O3 0.746342 0.992438 0.691009
O O4 0.642536 0.038600 0.660617
O O5 0.663533 0.484825 0.645618
O O6 0.215142 0.500000 0.500000
O O7 0.250000 0.750000 0.449023
O O8 0.259058 0.461523 0.415943
O O9 0.162289 0.576731 0.421205
O O10 0.662071 0.736140 0.088620
O O11 0.650785 0.019327 0.047970
O O12 0.071568 0.386860 0.418904
O O13 0.914326 0.500000 0.500000
O O14 0.917452 0.165299 0.510642
O O15 0.000000 0.336602 0.500000
#
# Coordination Sequence:
#
# PCOD9328212 Si02
#       7
#    16  16  16  16  16  16   8
#     4   9  18  32  50  74 108 158 195 234 269 331
#     4   9  18  32  49  73 113 156 198 223 273 332
#     4  12  23  32  47  72 111 155 187 227 274 340
#     4  11  21  33  48  80 114 152 188 226 279 343
#     4  11  22  34  53  78 110 147 193 239 286 345
#     4  10  23  41  61  83 112 146 194 245 301 352
#     4  10  23  38  58  84 120 150 185 234 298 370
#
# _framework density 18.526046000000001
#
# number of rings (size 3 to 8) (size 9 to 14) (size 15 to 20)
#    0.000    1.692    2.308    3.923    6.462    0.615 
#    0.000    1.538    0.000    0.000    0.000    0.000 
#   36.923    0.000    0.000    0.000    0.000    0.000 
#
# Total GULP energy -144782.078537 kJ/mol
# GULP energy per Si atom -5568.541482 kJ/mol
# Density = 1.848388 g / cm^3
# Si number density = 18.526046 Si / 1000 Ang^3
#
#
#
# Elastic Constant Matrix: (Units=GPa)
#
#
# Indices 1 2 3 4 5 6 
#
# 1 73.7559 18.2784 44.8859 0.0000 0.0000 0.0000
# 2 18.2784 62.8671 25.6311 0.0000 0.0000 0.0000
# 3 44.8859 25.6311 166.8213 0.0000 0.0000 0.0000
# 4 0.0000 0.0000 0.0000 29.4209 0.0000 0.0000
# 5 0.0000 0.0000 0.0000 0.0000 21.9478 0.0000
# 6 0.0000 0.0000 0.0000 0.0000 0.0000 47.0399
#
#
#
# Elastic Compliance Matrix: (Units=1/GPa)
#
#
# Indices 1 2 3 4 5 6 
#
# 1 0.016812 -0.003247 -0.004025 0.000000 0.000000 0.000000
# 2 -0.003247 0.017597 -0.001830 0.000000 0.000000 0.000000
# 3 -0.004025 -0.001830 0.007359 0.000000 0.000000 0.000000
# 4 0.000000 0.000000 0.000000 0.033989 0.000000 0.000000
# 5 0.000000 0.000000 0.000000 0.000000 0.045563 0.000000
# 6 0.000000 0.000000 0.000000 0.000000 0.000000 0.021259
#
#
# Mechanical properties :
#
#
# Convention : Reuss Voigt Hill
#
# Bulk Modulus (GPa) = 42.43784 53.44833 47.94309
# Shear Modulus (GPa) = 29.64958 33.99165 31.82061
#
# Velocity S-wave (km/s) = 4.00487 4.28811 4.14891
# Velocity P-wave (km/s) = 6.65899 7.30959 6.99187
#
# Compressibility (1/GPa) = 0.02356388
#
# Stress axis : x y z
#
# Youngs Moduli (GPa) = 59.48027 56.82862 135.89717
#
# Poissons Ratio (x) = 0.18454 0.54694
# Poissons Ratio (y) = 0.19315 0.24868
# Poissons Ratio (z) = 0.23939 0.10399
#
# Static dielectric constant tensor:
#      x y z
#    x 1.706320 0.000000 0.000000 
#    y 0.000000 1.691630 0.000000 
#    z 0.000000 0.000000 1.702660 
# 
# From -- ./inp_files/50461.got.cif
#   From: 2010.05.17/outbox.cif.g08.bks.cpg/sg22_26_cif.got.tgz:50461.got - 2010.06.03 23:40:54.
