data_PCOD9328695
_publ_section_title
;
Structure prediction by ZEFSAII (Michael W. Deem and Ramdas Pophale) SiO2 
 PCOD9328695
Probable space group: F 2 2 2
;
_chemical_formula_sum "Si O2"
_cell_formula_units_Z 100
_cell_length_a 14.512491
_cell_length_b 10.996503
_cell_length_c 30.953101
_cell_angle_alpha 90.000000
_cell_angle_beta 90.000000
_cell_angle_gamma 90.000000
_cell_volume 4939.701721
_symmetry_space_group_name_H-M "F 2 2 2"
_symmetry_group_IT_number 22
_symmetry_cell_setting 'orthorhombic'
loop_
_space_group_symop_operation_xyz
x,y,z
-x,-y,z
x,-y,-z
-x,y,-z
x,1/2+y,1/2+z
-x,1/2-y,1/2+z
x,1/2-y,1/2-z
-x,1/2+y,1/2-z
1/2+x,y,1/2+z
1/2-x,-y,1/2+z
1/2+x,-y,1/2-z
1/2-x,y,1/2-z
1/2+x,1/2+y,z
1/2-x,1/2-y,z
1/2+x,1/2-y,-z
1/2-x,1/2+y,-z
loop_
_atom_site_type_symbol
_atom_site_label
_atom_site_fract_x
_atom_site_fract_y
_atom_site_fract_z
Si Si1 0.472517 0.140455 0.047965
Si Si2 0.750000 0.250000 0.750000
Si Si3 0.656725 0.566744 0.317653
Si Si4 0.192402 0.623248 0.620223
Si Si5 0.763173 0.117271 0.529983
Si Si6 0.014446 0.754810 0.637810
Si Si7 0.856137 0.290061 0.202118
O O1 0.362711 0.136009 0.051591
O O2 0.511054 0.214459 0.088293
O O3 0.500000 0.000000 0.050742
O O4 0.500000 0.185113 0.000000
O O5 0.690176 0.337935 0.718963
O O6 0.743382 0.541482 0.349832
O O7 0.572675 0.630008 0.343258
O O8 0.633059 0.435646 0.299399
O O9 0.250000 0.750000 0.623442
O O10 0.193599 0.593613 0.569519
O O11 0.090201 0.647480 0.637148
O O12 0.750000 0.250000 0.508192
O O13 0.765537 0.000000 0.500000
O O14 0.925482 0.735423 0.666808
O O15 0.883204 0.250000 0.250000
O O16 0.750000 0.250000 0.195195
#
# Coordination Sequence:
#
# PCOD9328695 Si02
#       7
#    16   4  16  16  16  16  16
#     4  11  20  34  63 103 128 174 238 275 312 397
#     4  12  20  32  70 108 118 160 224 270 344 396
#     4  11  21  40  68  95 128 162 223 275 324 406
#     4   9  18  38  65  97 129 164 218 279 330 376
#     4  11  20  38  65 102 142 175 225 289 341 392
#     4  11  21  42  69  96 129 172 227 283 324 393
#     4  11  26  45  61  94 139 178 211 277 348 410
#
# _framework density 20.244136999999998
#
# number of rings (size 3 to 8) (size 9 to 14) (size 15 to 20)
#    0.000    1.280    8.800    2.400    1.120    0.000 
#    0.000    4.000    0.000    0.480    0.000    0.000 
#    0.000    0.000    0.000    0.000    0.000    0.000 
#
# Total GULP energy -139502.096333 kJ/mol
# GULP energy per Si atom -5580.083853 kJ/mol
# Density = 2.019806 g / cm^3
# Si number density = 20.244137 Si / 1000 Ang^3
#
#
#
# Elastic Constant Matrix: (Units=GPa)
#
#
# Indices 1 2 3 4 5 6 
#
# 1 83.7632 5.3554 50.0166 0.0000 0.0000 0.0000
# 2 5.3554 44.5584 26.8976 0.0000 0.0000 0.0000
# 3 50.0166 26.8976 143.1824 0.0000 0.0000 0.0000
# 4 0.0000 0.0000 0.0000 33.4035 0.0000 0.0000
# 5 0.0000 0.0000 0.0000 0.0000 39.2219 0.0000
# 6 0.0000 0.0000 0.0000 0.0000 0.0000 18.8981
#
#
#
# Elastic Compliance Matrix: (Units=1/GPa)
#
#
# Indices 1 2 3 4 5 6 
#
# 1 0.015180 0.001553 -0.005594 0.000000 0.000000 0.000000
# 2 0.001553 0.025472 -0.005327 0.000000 0.000000 0.000000
# 3 -0.005594 -0.005327 0.009939 0.000000 0.000000 0.000000
# 4 0.000000 0.000000 0.000000 0.029937 0.000000 0.000000
# 5 0.000000 0.000000 0.000000 0.000000 0.025496 0.000000
# 6 0.000000 0.000000 0.000000 0.000000 0.000000 0.052915
#
#
# Mechanical properties :
#
#
# Convention : Reuss Voigt Hill
#
# Bulk Modulus (GPa) = 31.39490 48.44924 39.92207
# Shear Modulus (GPa) = 26.55422 30.92032 28.73727
#
# Velocity S-wave (km/s) = 3.62567 3.91240 3.77176
# Velocity P-wave (km/s) = 5.75057 6.66285 6.22345
#
# Compressibility (1/GPa) = 0.03185230
#
# Stress axis : x y z
#
# Youngs Moduli (GPa) = 65.87811 39.25923 100.61341
#
# Poissons Ratio (x) = -0.06095 0.56285
# Poissons Ratio (y) = -0.10228 0.53600
# Poissons Ratio (z) = 0.36853 0.20915
#
# Static dielectric constant tensor:
#      x y z
#    x 1.753130 0.000000 0.000000 
#    y 0.000000 0.454580 0.000000 
#    z 0.000000 0.000000 1.764410 
# 
# From -- ./inp_files/56412.got.cif
#   From: 2010.05.17/outbox.cif.g08.bks.cpg/sg22_29_cif.got.tgz:56412.got - 2010.06.03 23:40:54.
