data_PCOD9328577
_publ_section_title
;
Structure prediction by ZEFSAII (Michael W. Deem and Ramdas Pophale) SiO2 
 PCOD9328577
Probable space group: F 2 2 2
;
_chemical_formula_sum "Si O2"
_cell_formula_units_Z 72
_cell_length_a 6.016539
_cell_length_b 30.764785
_cell_length_c 17.842321
_cell_angle_alpha 90.000000
_cell_angle_beta 90.000000
_cell_angle_gamma 90.000000
_cell_volume 3302.569525
_symmetry_space_group_name_H-M "F 2 2 2"
_symmetry_group_IT_number 22
_symmetry_cell_setting 'orthorhombic'
loop_
_space_group_symop_operation_xyz
x,y,z
-x,-y,z
x,-y,-z
-x,y,-z
x,1/2+y,1/2+z
-x,1/2-y,1/2+z
x,1/2-y,1/2-z
-x,1/2+y,1/2-z
1/2+x,y,1/2+z
1/2-x,-y,1/2+z
1/2+x,-y,1/2-z
1/2-x,y,1/2-z
1/2+x,1/2+y,z
1/2-x,1/2-y,z
1/2+x,1/2-y,-z
1/2-x,1/2+y,-z
loop_
_atom_site_type_symbol
_atom_site_label
_atom_site_fract_x
_atom_site_fract_y
_atom_site_fract_z
Si Si1 0.001576 0.235050 0.836992
Si Si2 0.006509 0.646590 0.416396
Si Si3 0.159279 0.431967 0.928685
Si Si4 0.726602 0.579647 0.331464
Si Si5 0.500000 0.000000 0.616471
O O1 0.001393 0.250000 0.750000
O O2 0.250000 0.250000 0.866702
O O3 0.750000 0.250000 0.865394
O O4 0.012124 0.183862 0.854540
O O5 0.805503 0.614453 0.393590
O O6 0.000000 0.666349 0.500000
O O7 0.211852 0.613387 0.421400
O O8 0.327299 0.471867 0.931135
O O9 0.016570 0.435506 0.853423
O O10 0.000000 0.433732 0.000000
O O11 0.750000 0.599782 0.250000
O O12 0.878799 0.537054 0.335812
#
# Coordination Sequence:
#
# PCOD9328577 Si02
#       5
#    16  16  16  16   8
#     4  10  25  45  75 110 148 190 245 305 386 463
#     4  11  25  46  72 106 145 188 253 301 378 454
#     4  11  24  46  72 104 148 202 248 313 371 444
#     4  11  26  42  71 100 144 196 244 307 370 438
#     4  10  26  41  66 106 145 192 260 298 373 430
#
# _framework density 21.801207000000002
#
# number of rings (size 3 to 8) (size 9 to 14) (size 15 to 20)
#    0.000    1.333    2.222    0.667    9.333    8.000 
#    0.000    0.000    0.000    0.000    0.000    0.000 
#    0.000    0.000    0.000    0.000    0.000    0.000 
#
# Total GULP energy -100389.548316 kJ/mol
# GULP energy per Si atom -5577.197129 kJ/mol
# Density = 2.175159 g / cm^3
# Si number density = 21.801207 Si / 1000 Ang^3
#
#
#
# Elastic Constant Matrix: (Units=GPa)
#
#
# Indices 1 2 3 4 5 6 
#
# 1 139.0169 32.9457 26.7951 0.0000 0.0000 0.0000
# 2 32.9457 109.5061 32.7324 0.0000 0.0000 0.0000
# 3 26.7951 32.7324 100.7994 0.0000 0.0000 0.0000
# 4 0.0000 0.0000 0.0000 36.8319 0.0000 0.0000
# 5 0.0000 0.0000 0.0000 0.0000 -13.8541 0.0000
# 6 0.0000 0.0000 0.0000 0.0000 0.0000 0.4283
#
#
#
# Elastic Compliance Matrix: (Units=1/GPa)
#
#
# Indices 1 2 3 4 5 6 
#
# 1 0.007940 -0.001947 -0.001478 0.000000 0.000000 0.000000
# 2 -0.001947 0.010591 -0.002922 0.000000 0.000000 0.000000
# 3 -0.001478 -0.002922 0.011262 0.000000 0.000000 0.000000
# 4 0.000000 0.000000 0.000000 0.027150 0.000000 0.000000
# 5 0.000000 0.000000 0.000000 0.000000 -0.072181 0.000000
# 6 0.000000 0.000000 0.000000 0.000000 0.000000 2.334638
#
#
# Mechanical properties :
#
#
# Convention : Reuss Voigt Hill
#
# Bulk Modulus (GPa) = 58.48178 59.36319 58.92249
# Shear Modulus (GPa) = 2.13877 21.80451 11.97164
#
# Velocity S-wave (km/s) = 0.99155 3.16595 2.34589
# Velocity P-wave (km/s) = 5.30982 6.37595 5.86715
#
# Compressibility (1/GPa) = 0.01709934
#
# Stress axis : x y z
#
# Youngs Moduli (GPa) = 125.94934 94.42039 88.79072
#
# Poissons Ratio (x) = 0.18382 0.13127
# Poissons Ratio (y) = 0.24520 0.25942
# Poissons Ratio (z) = 0.18620 0.27586
#
# Static dielectric constant tensor:
#      x y z
#    x 1.866050 0.000000 0.000000 
#    y 0.000000 1.765170 0.000000 
#    z 0.000000 0.000000 1.800470 
# 
# From -- ./inp_files/41109.got.cif
#   From: 2010.05.17/outbox.cif.g08.bks.cpg/sg22_21_cif.got.tgz:41109.got - 2010.06.03 23:40:54.
