data_PCOD9328189
_publ_section_title
;
Structure prediction by ZEFSAII (Michael W. Deem and Ramdas Pophale) SiO2 
 PCOD9328189
Probable space group: F 2 2 2
;
_chemical_formula_sum "Si O2"
_cell_formula_units_Z 72
_cell_length_a 30.119363
_cell_length_b 8.488804
_cell_length_c 13.480430
_cell_angle_alpha 90.000000
_cell_angle_beta 90.000000
_cell_angle_gamma 90.000000
_cell_volume 3446.640877
_symmetry_space_group_name_H-M "F 2 2 2"
_symmetry_group_IT_number 22
_symmetry_cell_setting 'orthorhombic'
loop_
_space_group_symop_operation_xyz
x,y,z
-x,-y,z
x,-y,-z
-x,y,-z
x,1/2+y,1/2+z
-x,1/2-y,1/2+z
x,1/2-y,1/2-z
-x,1/2+y,1/2-z
1/2+x,y,1/2+z
1/2-x,-y,1/2+z
1/2+x,-y,1/2-z
1/2-x,y,1/2-z
1/2+x,1/2+y,z
1/2-x,1/2-y,z
1/2+x,1/2-y,-z
1/2-x,1/2+y,-z
loop_
_atom_site_type_symbol
_atom_site_label
_atom_site_fract_x
_atom_site_fract_y
_atom_site_fract_z
Si Si1 0.800498 0.000462 0.116172
Si Si2 0.445873 0.683519 0.496397
Si Si3 0.038289 0.383012 0.322772
Si Si4 0.393583 0.376161 0.827783
Si Si5 0.250000 0.750000 0.250000
Si Si6 0.250000 0.250000 0.250000
O O1 0.853224 0.028649 0.124405
O O2 0.778745 0.143475 0.176544
O O3 0.781570 0.851497 0.176996
O O4 0.788005 0.000000 0.000000
O O5 0.432187 0.500000 0.500000
O O6 0.500000 0.683670 0.500000
O O7 0.436069 0.787689 0.593016
O O8 0.423010 0.777760 0.406892
O O9 0.019233 0.250000 0.250000
O O10 0.073582 0.500405 0.273765
O O11 0.000000 0.500000 0.360982
O O12 0.375948 0.250000 0.750000
#
# Coordination Sequence:
#
# PCOD9328189 Si02
#       6
#    16  16  16  16   4   4
#     4  11  23  46  74 108 145 184 234 298 361 440
#     4  11  24  42  65  94 133 186 242 297 355 417
#     4  12  25  40  64  93 131 182 235 293 353 415
#     4  12  25  45  68 103 140 185 241 296 357 428
#     4  10  22  46  72 104 138 186 230 294 368 428
#     4  10  26  46  80 112 142 194 238 282 388 444
#
# _framework density 20.889904999999999
#
# number of rings (size 3 to 8) (size 9 to 14) (size 15 to 20)
#    0.000    0.667    3.333    4.667    4.667    0.000 
#    4.000    1.111    0.000    0.000    0.000    0.000 
#    0.000    0.000    0.000    0.000    0.000    0.000 
#
# Total GULP energy -100488.774165 kJ/mol
# GULP energy per Si atom -5582.709676 kJ/mol
# Density = 2.084236 g / cm^3
# Si number density = 20.889905 Si / 1000 Ang^3
#
#
#
# Elastic Constant Matrix: (Units=GPa)
#
#
# Indices 1 2 3 4 5 6 
#
# 1 97.8826 58.5335 33.9579 0.0000 0.0000 0.0000
# 2 58.5335 156.8334 62.8988 0.0000 0.0000 0.0000
# 3 33.9579 62.8988 135.1473 0.0000 0.0000 0.0000
# 4 0.0000 0.0000 0.0000 26.9032 0.0000 0.0000
# 5 0.0000 0.0000 0.0000 0.0000 25.7741 0.0000
# 6 0.0000 0.0000 0.0000 0.0000 0.0000 6.2739
#
#
#
# Elastic Compliance Matrix: (Units=1/GPa)
#
#
# Indices 1 2 3 4 5 6 
#
# 1 0.013327 -0.004464 -0.001271 0.000000 0.000000 0.000000
# 2 -0.004464 0.009335 -0.003223 0.000000 0.000000 0.000000
# 3 -0.001271 -0.003223 0.009219 0.000000 0.000000 0.000000
# 4 0.000000 0.000000 0.000000 0.037170 0.000000 0.000000
# 5 0.000000 0.000000 0.000000 0.000000 0.038799 0.000000
# 6 0.000000 0.000000 0.000000 0.000000 0.000000 0.159389
#
#
# Mechanical properties :
#
#
# Convention : Reuss Voigt Hill
#
# Bulk Modulus (GPa) = 71.61035 77.84928 74.72981
# Shear Modulus (GPa) = 17.25275 27.42179 22.33727
#
# Velocity S-wave (km/s) = 2.87695 3.62703 3.27354
# Velocity P-wave (km/s) = 6.73721 7.40863 7.08088
#
# Compressibility (1/GPa) = 0.01396446
#
# Stress axis : x y z
#
# Youngs Moduli (GPa) = 75.03699 107.12569 108.47621
#
# Poissons Ratio (x) = 0.47822 0.13786
# Poissons Ratio (y) = 0.33497 0.34960
# Poissons Ratio (z) = 0.09537 0.34525
#
# Static dielectric constant tensor:
#      x y z
#    x 1.770830 0.000000 0.000000 
#    y 0.000000 1.762250 0.000000 
#    z 0.000000 0.000000 1.764780 
# 
# From -- ./inp_files/33417.got.cif
#   From: 2010.05.17/outbox.cif.g08.bks.cpg/sg22_17_cif.got.tgz:33417.got - 2010.06.03 23:40:54.
