data_PCOD9328402
_publ_section_title
;
Structure prediction by ZEFSAII (Michael W. Deem and Ramdas Pophale) SiO2 
 PCOD9328402
Probable space group: F 2 2 2
;
_chemical_formula_sum "Si O2"
_cell_formula_units_Z 88
_cell_length_a 15.022618
_cell_length_b 13.224865
_cell_length_c 21.250841
_cell_angle_alpha 90.000000
_cell_angle_beta 90.000000
_cell_angle_gamma 90.000000
_cell_volume 4221.949102
_symmetry_space_group_name_H-M "F 2 2 2"
_symmetry_group_IT_number 22
_symmetry_cell_setting 'orthorhombic'
loop_
_space_group_symop_operation_xyz
x,y,z
-x,-y,z
x,-y,-z
-x,y,-z
x,1/2+y,1/2+z
-x,1/2-y,1/2+z
x,1/2-y,1/2-z
-x,1/2+y,1/2-z
1/2+x,y,1/2+z
1/2-x,-y,1/2+z
1/2+x,-y,1/2-z
1/2-x,y,1/2-z
1/2+x,1/2+y,z
1/2-x,1/2-y,z
1/2+x,1/2-y,-z
1/2-x,1/2+y,-z
loop_
_atom_site_type_symbol
_atom_site_label
_atom_site_fract_x
_atom_site_fract_y
_atom_site_fract_z
Si Si1 0.000000 0.250515 0.500000
Si Si2 0.577486 0.918527 0.914128
Si Si3 0.899036 0.331761 0.705176
Si Si4 0.774850 0.000000 0.500000
Si Si5 0.148232 0.035655 0.727610
Si Si6 0.931476 0.750000 0.750000
Si Si7 0.827361 0.666805 0.433695
O O1 0.030780 0.183530 0.560564
O O2 0.086221 0.310551 0.475879
O O3 0.618548 0.948706 0.845594
O O4 0.500000 0.000000 0.924742
O O5 0.659984 0.928550 0.961127
O O6 0.851577 0.250000 0.750000
O O7 0.903940 0.439489 0.741642
O O8 0.853346 0.339619 0.638914
O O9 0.995313 0.276623 0.696262
O O10 0.714698 0.061494 0.547014
O O11 0.250000 0.015851 0.750000
O O12 0.125143 0.148845 0.750150
O O13 0.750000 0.750000 0.442444
#
# Coordination Sequence:
#
# PCOD9328402 Si02
#       7
#     8  16  16   8  16   8  16
#     4  12  25  47  74 108 138 204 240 300 372 442
#     4  12  22  45  77 101 138 191 260 299 348 447
#     4  10  26  44  75 103 139 193 245 300 368 443
#     4  12  25  45  68 108 138 188 240 314 356 424
#     4  12  26  44  71 111 144 186 240 311 380 432
#     4  10  23  48  65 106 144 186 240 282 380 452
#     4  12  26  49  72 105 151 186 254 301 374 453
#
# _framework density 20.843454000000001
#
# number of rings (size 3 to 8) (size 9 to 14) (size 15 to 20)
#    0.545    0.000    3.636    4.091    7.636    0.364 
#   19.636    0.000    0.000    0.000    0.000    0.000 
#    0.000    0.000    0.000    0.000    0.000    0.000 
#
# Total GULP energy -122543.994484 kJ/mol
# GULP energy per Si atom -5570.181567 kJ/mol
# Density = 2.079601 g / cm^3
# Si number density = 20.843454 Si / 1000 Ang^3
#
#
#
# Elastic Constant Matrix: (Units=GPa)
#
#
# Indices 1 2 3 4 5 6 
#
# 1 94.6318 16.8174 23.5440 0.0000 0.0000 0.0000
# 2 16.8174 81.3610 5.2789 0.0000 0.0000 0.0000
# 3 23.5440 5.2789 98.9155 0.0000 0.0000 0.0000
# 4 0.0000 0.0000 0.0000 -6.5963 0.0000 0.0000
# 5 0.0000 0.0000 0.0000 0.0000 3.5362 0.0000
# 6 0.0000 0.0000 0.0000 0.0000 0.0000 36.0857
#
#
#
# Elastic Compliance Matrix: (Units=1/GPa)
#
#
# Indices 1 2 3 4 5 6 
#
# 1 0.011622 -0.002231 -0.002647 0.000000 0.000000 0.000000
# 2 -0.002231 0.012762 -0.000150 0.000000 0.000000 0.000000
# 3 -0.002647 -0.000150 0.010748 0.000000 0.000000 0.000000
# 4 0.000000 0.000000 0.000000 -0.151600 0.000000 0.000000
# 5 0.000000 0.000000 0.000000 0.000000 0.282791 0.000000
# 6 0.000000 0.000000 0.000000 0.000000 0.000000 0.027712
#
#
# Mechanical properties :
#
#
# Convention : Reuss Voigt Hill
#
# Bulk Modulus (GPa) = 39.87922 40.68766 40.28344
# Shear Modulus (GPa) = 23.53502 21.88965 22.71234
#
# Velocity S-wave (km/s) = 3.36390 3.24418 3.30459
# Velocity P-wave (km/s) = 5.85338 5.79620 5.82486
#
# Compressibility (1/GPa) = 0.02507572
#
# Stress axis : x y z
#
# Youngs Moduli (GPa) = 86.04136 78.35943 93.04254
#
# Poissons Ratio (x) = 0.17479 0.24631
# Poissons Ratio (y) = 0.19192 0.01397
# Poissons Ratio (z) = 0.22778 0.01176
#
# Static dielectric constant tensor:
#      x y z
#    x 1.828410 0.000000 0.000000 
#    y 0.000000 1.732140 0.000000 
#    z 0.000000 0.000000 1.703000 
# 
# From -- ./inp_files/43433.got.cif
#   From: 2010.05.17/outbox.cif.g08.bks.cpg/sg22_22_cif.got.tgz:43433.got - 2010.06.03 23:40:54.
