data_PCOD9328298
_publ_section_title
;
Structure prediction by ZEFSAII (Michael W. Deem and Ramdas Pophale) SiO2 
 PCOD9328298
Probable space group: F 2 2 2
;
_chemical_formula_sum "Si O2"
_cell_formula_units_Z 104
_cell_length_a 21.386118
_cell_length_b 9.253536
_cell_length_c 25.755122
_cell_angle_alpha 90.000000
_cell_angle_beta 90.000000
_cell_angle_gamma 90.000000
_cell_volume 5096.866859
_symmetry_space_group_name_H-M "F 2 2 2"
_symmetry_group_IT_number 22
_symmetry_cell_setting 'orthorhombic'
loop_
_space_group_symop_operation_xyz
x,y,z
-x,-y,z
x,-y,-z
-x,y,-z
x,1/2+y,1/2+z
-x,1/2-y,1/2+z
x,1/2-y,1/2-z
-x,1/2+y,1/2-z
1/2+x,y,1/2+z
1/2-x,-y,1/2+z
1/2+x,-y,1/2-z
1/2-x,y,1/2-z
1/2+x,1/2+y,z
1/2-x,1/2-y,z
1/2+x,1/2-y,-z
1/2-x,1/2+y,-z
loop_
_atom_site_type_symbol
_atom_site_label
_atom_site_fract_x
_atom_site_fract_y
_atom_site_fract_z
Si Si1 0.808051 0.342598 0.429995
Si Si2 0.460850 0.784158 0.330241
Si Si3 0.649553 0.620425 0.659396
Si Si4 0.743185 0.420943 0.859165
Si Si5 0.571405 0.750000 0.250000
Si Si6 0.600917 0.500000 0.000000
Si Si7 0.500000 0.500000 0.081938
Si Si8 0.352020 0.965781 0.270580
O O1 0.750000 0.250000 0.450832
O O2 0.829225 0.249793 0.379210
O O3 0.789140 0.500342 0.408112
O O4 0.858406 0.374041 0.473919
O O5 0.425069 0.633947 0.340080
O O6 0.523981 0.765512 0.298213
O O7 0.475057 0.873099 0.381636
O O8 0.408657 0.877884 0.298420
O O9 0.686457 0.482444 0.639856
O O10 0.670039 0.622114 0.719801
O O11 0.750000 0.250000 0.858545
O O12 0.702046 0.481218 0.810158
O O13 0.615085 0.610245 0.251412
O O14 0.555647 0.445218 0.954454
#
# Coordination Sequence:
#
# PCOD9328298 Si02
#       8
#    16  16  16  16   8   8   8  16
#     4  10  23  42  68 100 130 174 233 289 357 421
#     4  12  22  38  60  97 132 180 233 270 333 416
#     4  11  22  40  63  94 136 180 226 270 338 416
#     4  11  24  42  63  99 143 182 226 287 341 406
#     4  12  24  36  61  95 142 184 232 268 328 406
#     4  11  22  42  72 102 120 173 230 304 358 405
#     4  11  22  40  68 100 136 168 236 299 342 418
#     4  12  22  37  61  93 137 190 223 270 320 416
#
# _framework density 20.404692000000001
#
# number of rings (size 3 to 8) (size 9 to 14) (size 15 to 20)
#    0.000    0.769    6.154    1.385    0.000    1.231 
#    2.769    0.000    0.000    0.000    0.000    2.154 
#    0.000    0.000    0.000    0.000    0.000    0.000 
#
# Total GULP energy -145077.875099 kJ/mol
# GULP energy per Si atom -5579.918273 kJ/mol
# Density = 2.035825 g / cm^3
# Si number density = 20.404692 Si / 1000 Ang^3
#
#
#
# Elastic Constant Matrix: (Units=GPa)
#
#
# Indices 1 2 3 4 5 6 
#
# 1 85.7126 43.0208 51.5931 0.0000 0.0000 0.0000
# 2 43.0208 103.0945 47.8669 0.0000 0.0000 0.0000
# 3 51.5931 47.8669 104.6339 0.0000 0.0000 0.0000
# 4 0.0000 0.0000 0.0000 14.3189 0.0000 0.0000
# 5 0.0000 0.0000 0.0000 0.0000 25.5939 0.0000
# 6 0.0000 0.0000 0.0000 0.0000 0.0000 38.0570
#
#
#
# Elastic Compliance Matrix: (Units=1/GPa)
#
#
# Indices 1 2 3 4 5 6 
#
# 1 0.017976 -0.004299 -0.006897 0.000000 0.000000 0.000000
# 2 -0.004299 0.013344 -0.003985 0.000000 0.000000 0.000000
# 3 -0.006897 -0.003985 0.014781 0.000000 0.000000 0.000000
# 4 0.000000 0.000000 0.000000 0.069838 0.000000 0.000000
# 5 0.000000 0.000000 0.000000 0.000000 0.039072 0.000000
# 6 0.000000 0.000000 0.000000 0.000000 0.000000 0.026276
#
#
# Mechanical properties :
#
#
# Convention : Reuss Voigt Hill
#
# Bulk Modulus (GPa) = 63.53488 64.26694 63.90091
# Shear Modulus (GPa) = 23.05263 25.65798 24.35530
#
# Velocity S-wave (km/s) = 3.36485 3.54991 3.45862
# Velocity P-wave (km/s) = 6.80451 6.95464 6.87998
#
# Compressibility (1/GPa) = 0.01573939
#
# Stress axis : x y z
#
# Youngs Moduli (GPa) = 55.62901 74.94074 67.65532
#
# Poissons Ratio (x) = 0.32218 0.46662
# Poissons Ratio (y) = 0.23915 0.26958
# Poissons Ratio (z) = 0.38368 0.29861
#
# Static dielectric constant tensor:
#      x y z
#    x 1.752740 0.000000 0.000000 
#    y 0.000000 1.754480 0.000000 
#    z 0.000000 0.000000 1.744630 
# 
# From -- ./inp_files/53966.got.cif
#   From: 2010.05.17/outbox.cif.g08.bks.cpg/sg22_27_cif.got.tgz:53966.got - 2010.06.03 23:40:54.
