data_PCOD9328553
_publ_section_title
;
Structure prediction by ZEFSAII (Michael W. Deem and Ramdas Pophale) SiO2 
 PCOD9328553
Probable space group: F 2 2 2
;
_chemical_formula_sum "Si O2"
_cell_formula_units_Z 60
_cell_length_a 5.163544
_cell_length_b 29.949061
_cell_length_c 15.790317
_cell_angle_alpha 90.000000
_cell_angle_beta 90.000000
_cell_angle_gamma 90.000000
_cell_volume 2441.866638
_symmetry_space_group_name_H-M "F 2 2 2"
_symmetry_group_IT_number 22
_symmetry_cell_setting 'orthorhombic'
loop_
_space_group_symop_operation_xyz
x,y,z
-x,-y,z
x,-y,-z
-x,y,-z
x,1/2+y,1/2+z
-x,1/2-y,1/2+z
x,1/2-y,1/2-z
-x,1/2+y,1/2-z
1/2+x,y,1/2+z
1/2-x,-y,1/2+z
1/2+x,-y,1/2-z
1/2-x,y,1/2-z
1/2+x,1/2+y,z
1/2-x,1/2-y,z
1/2+x,1/2-y,-z
1/2-x,1/2+y,-z
loop_
_atom_site_type_symbol
_atom_site_label
_atom_site_fract_x
_atom_site_fract_y
_atom_site_fract_z
Si Si1 0.890591 0.410214 0.596463
Si Si2 0.250000 0.750000 0.939180
Si Si3 0.620711 0.820833 0.626066
Si Si4 0.000000 0.000000 0.805182
Si Si5 0.750000 0.250000 0.250000
Si Si6 0.000000 0.138580 0.500000
O O1 0.603763 0.391906 0.576393
O O2 0.000000 0.413966 0.500000
O O3 0.028192 0.370605 0.650058
O O4 0.915596 0.457388 0.640010
O O5 0.363356 0.709808 0.881184
O O6 0.500000 0.755491 0.000000
O O7 0.811415 0.789379 0.680360
O O8 0.767829 0.832458 0.538571
O O9 0.250000 0.012664 0.750000
#
# Coordination Sequence:
#
# PCOD9328553 Si02
#       6
#    16   8  16   8   4   8
#     4  10  25  50  83 115 155 205 272 332 387 474
#     4  12  27  45  78 112 154 206 276 328 381 459
#     4  11  28  46  75 117 156 214 263 332 392 474
#     4  12  31  52  83 124 166 208 248 326 423 494
#     4  12  30  46  72 112 168 212 256 318 410 472
#     4  10  24  52  87 114 154 208 286 335 382 464
#
# _framework density 24.571368
#
# number of rings (size 3 to 8) (size 9 to 14) (size 15 to 20)
#    0.000    1.067    0.000    3.600   24.267    0.533 
#    0.000    0.000    0.000    0.000    0.000    0.000 
#    0.000    0.000    0.000    0.000    0.000    0.000 
#
# Total GULP energy -83533.749141 kJ/mol
# GULP energy per Si atom -5568.916609 kJ/mol
# Density = 2.451544 g / cm^3
# Si number density = 24.571368 Si / 1000 Ang^3
#
#
#
# Elastic Constant Matrix: (Units=GPa)
#
#
# Indices 1 2 3 4 5 6 
#
# 1 154.1932 48.4149 21.9730 0.0000 0.0000 0.0000
# 2 48.4149 228.2794 51.5729 0.0000 0.0000 0.0000
# 3 21.9730 51.5729 64.9733 0.0000 0.0000 0.0000
# 4 0.0000 0.0000 0.0000 -41.3804 0.0000 0.0000
# 5 0.0000 0.0000 0.0000 0.0000 0.6278 0.0000
# 6 0.0000 0.0000 0.0000 0.0000 0.0000 32.3879
#
#
#
# Elastic Compliance Matrix: (Units=1/GPa)
#
#
# Indices 1 2 3 4 5 6 
#
# 1 0.007060 -0.001167 -0.001461 0.000000 0.000000 0.000000
# 2 -0.001167 0.005531 -0.003995 0.000000 0.000000 0.000000
# 3 -0.001461 -0.003995 0.019056 0.000000 0.000000 0.000000
# 4 0.000000 0.000000 0.000000 -0.024166 0.000000 0.000000
# 5 0.000000 0.000000 0.000000 0.000000 1.592755 0.000000
# 6 0.000000 0.000000 0.000000 0.000000 0.000000 0.030876
#
#
# Mechanical properties :
#
#
# Convention : Reuss Voigt Hill
#
# Bulk Modulus (GPa) = 54.34823 76.81862 65.58343
# Shear Modulus (GPa) = 3.02940 20.02606 11.52773
#
# Velocity S-wave (km/s) = 1.11156 2.85795 2.16834
# Velocity P-wave (km/s) = 4.87996 6.49783 5.74612
#
# Compressibility (1/GPa) = 0.01839986
#
# Stress axis : x y z
#
# Youngs Moduli (GPa) = 141.64130 180.80617 52.47585
#
# Poissons Ratio (x) = 0.21105 0.07667
# Poissons Ratio (y) = 0.16533 0.20966
# Poissons Ratio (z) = 0.20695 0.72238
#
# Static dielectric constant tensor:
#      x y z
#    x 2.121930 0.000000 0.000000 
#    y 0.000000 2.001990 0.000000 
#    z 0.000000 0.000000 2.026800 
# 
# From -- ./inp_files/34127.got.cif
#   From: 2010.05.17/outbox.cif.g08.bks.cpg/sg22_18_cif.got.tgz:34127.got - 2010.06.03 23:40:54.
