data_PCOD9328325
_publ_section_title
;
Structure prediction by ZEFSAII (Michael W. Deem and Ramdas Pophale) SiO2 
 PCOD9328325
Probable space group: F 2 2 2
;
_chemical_formula_sum "Si O2"
_cell_formula_units_Z 64
_cell_length_a 7.215916
_cell_length_b 23.757076
_cell_length_c 16.988363
_cell_angle_alpha 90.000000
_cell_angle_beta 90.000000
_cell_angle_gamma 90.000000
_cell_volume 2912.299182
_symmetry_space_group_name_H-M "F 2 2 2"
_symmetry_group_IT_number 22
_symmetry_cell_setting 'orthorhombic'
loop_
_space_group_symop_operation_xyz
x,y,z
-x,-y,z
x,-y,-z
-x,y,-z
x,1/2+y,1/2+z
-x,1/2-y,1/2+z
x,1/2-y,1/2-z
-x,1/2+y,1/2-z
1/2+x,y,1/2+z
1/2-x,-y,1/2+z
1/2+x,-y,1/2-z
1/2-x,y,1/2-z
1/2+x,1/2+y,z
1/2-x,1/2-y,z
1/2+x,1/2-y,-z
1/2-x,1/2+y,-z
loop_
_atom_site_type_symbol
_atom_site_label
_atom_site_fract_x
_atom_site_fract_y
_atom_site_fract_z
Si Si1 0.783549 0.314021 0.498828
Si Si2 0.749576 0.867026 0.338455
Si Si3 0.086756 0.081334 0.581046
Si Si4 0.396007 0.943712 0.315434
O O1 0.750000 0.250000 0.474438
O O2 0.728419 0.323694 0.590008
O O3 0.677853 0.358312 0.443569
O O4 0.000000 0.326366 0.500000
O O5 0.750000 0.843524 0.250000
O O6 0.555585 0.900687 0.341553
O O7 0.922652 0.908932 0.355691
O O8 0.255359 0.044400 0.612822
O O9 0.000000 0.060818 0.500000
O O10 0.250000 0.921852 0.250000
O O11 0.500000 0.000000 0.288771
#
# Coordination Sequence:
#
# PCOD9328325 Si02
#       4
#    16  16  16  16
#     4  11  22  42  67  97 135 180 223 274 342 402
#     4  11  22  41  67  96 137 176 222 282 332 392
#     4  10  23  43  67  98 134 176 222 283 333 396
#     4  12  25  43  71  98 132 181 227 273 345 405
#
# _framework density 21.975764999999999
#
# number of rings (size 3 to 8) (size 9 to 14) (size 15 to 20)
#    0.000    1.000    5.000    3.000    0.000    0.500 
#    0.000   13.750    0.000    0.750    0.000    0.000 
#    0.000    0.000    0.000    0.000    0.000    0.000 
#
# Total GULP energy -89351.738836 kJ/mol
# GULP energy per Si atom -5584.483677 kJ/mol
# Density = 2.192575 g / cm^3
# Si number density = 21.975765 Si / 1000 Ang^3
#
#
#
# Elastic Constant Matrix: (Units=GPa)
#
#
# Indices 1 2 3 4 5 6 
#
# 1 168.6836 21.6990 33.4861 0.0000 0.0000 0.0000
# 2 21.6990 78.8772 -0.7101 0.0000 0.0000 0.0000
# 3 33.4861 -0.7101 72.7874 0.0000 0.0000 0.0000
# 4 0.0000 0.0000 0.0000 19.8683 0.0000 0.0000
# 5 0.0000 0.0000 0.0000 0.0000 45.0477 0.0000
# 6 0.0000 0.0000 0.0000 0.0000 0.0000 25.2991
#
#
#
# Elastic Compliance Matrix: (Units=1/GPa)
#
#
# Indices 1 2 3 4 5 6 
#
# 1 0.006797 -0.001898 -0.003145 0.000000 0.000000 0.000000
# 2 -0.001898 0.013209 0.001002 0.000000 0.000000 0.000000
# 3 -0.003145 0.001002 0.015195 0.000000 0.000000 0.000000
# 4 0.000000 0.000000 0.000000 0.050331 0.000000 0.000000
# 5 0.000000 0.000000 0.000000 0.000000 0.022199 0.000000
# 6 0.000000 0.000000 0.000000 0.000000 0.000000 0.039527
#
#
# Mechanical properties :
#
#
# Convention : Reuss Voigt Hill
#
# Bulk Modulus (GPa) = 36.87511 47.69981 42.28746
# Shear Modulus (GPa) = 30.41711 35.76790 33.09251
#
# Velocity S-wave (km/s) = 3.72441 4.03874 3.88476
# Velocity P-wave (km/s) = 5.94233 6.59555 6.27744
#
# Compressibility (1/GPa) = 0.02711857
#
# Stress axis : x y z
#
# Youngs Moduli (GPa) = 147.12716 75.70524 65.80902
#
# Poissons Ratio (x) = 0.14370 0.20700
# Poissons Ratio (y) = 0.27927 -0.06595
# Poissons Ratio (z) = 0.46278 -0.07586
#
# Static dielectric constant tensor:
#      x y z
#    x 1.812090 0.000000 0.000000 
#    y 0.000000 1.785000 0.000000 
#    z 0.000000 0.000000 1.871440 
# 
# From -- ./inp_files/13427.got.cif
#   From: 2010.05.17/outbox.cif.g08.bks.cpg/sg22_7_cif.got.tgz:13427.got - 2010.06.03 23:40:54.
