data_PCOD9328984
_publ_section_title
;
Structure prediction by ZEFSAII (Michael W. Deem and Ramdas Pophale) SiO2 
 PCOD9328984
Probable space group: F 2 2 2
;
_chemical_formula_sum "Si O2"
_cell_formula_units_Z 68
_cell_length_a 8.660730
_cell_length_b 16.021902
_cell_length_c 20.472608
_cell_angle_alpha 90.000000
_cell_angle_beta 90.000000
_cell_angle_gamma 90.000000
_cell_volume 2840.807078
_symmetry_space_group_name_H-M "F 2 2 2"
_symmetry_group_IT_number 22
_symmetry_cell_setting 'orthorhombic'
loop_
_space_group_symop_operation_xyz
x,y,z
-x,-y,z
x,-y,-z
-x,y,-z
x,1/2+y,1/2+z
-x,1/2-y,1/2+z
x,1/2-y,1/2-z
-x,1/2+y,1/2-z
1/2+x,y,1/2+z
1/2-x,-y,1/2+z
1/2+x,-y,1/2-z
1/2-x,y,1/2-z
1/2+x,1/2+y,z
1/2-x,1/2-y,z
1/2+x,1/2-y,-z
1/2-x,1/2+y,-z
loop_
_atom_site_type_symbol
_atom_site_label
_atom_site_fract_x
_atom_site_fract_y
_atom_site_fract_z
Si Si1 0.975705 0.299804 0.851983
Si Si2 0.420217 0.861121 0.273704
Si Si3 0.000000 0.000000 0.129177
Si Si4 0.258355 0.617212 0.941893
Si Si5 0.500000 0.000000 0.000000
Si Si6 0.750000 0.250000 0.449315
O O1 0.993471 0.212088 0.813598
O O2 0.995476 0.369817 0.795697
O O3 0.114768 0.289292 0.904671
O O4 0.820543 0.324017 0.888254
O O5 0.250000 0.836616 0.250000
O O6 0.408163 0.939149 0.321714
O O7 0.106979 0.059097 0.085403
O O8 0.115362 0.558261 0.960393
O O9 0.305551 0.675207 0.003189
#
# Coordination Sequence:
#
# PCOD9328984 Si02
#       6
#    16  16   8  16   4   8
#     4  11  23  49  81 110 154 212 279 316 401 481
#     4  11  25  47  79 115 156 214 264 342 392 476
#     4  12  32  48  78 122 168 210 264 342 420 480
#     4  12  29  50  79 118 164 212 265 337 408 495
#     4  12  28  48  72 124 154 200 260 340 418 474
#     4  12  22  51  80 117 154 214 264 336 396 490
#
# _framework density 23.936858999999998
#
# number of rings (size 3 to 8) (size 9 to 14) (size 15 to 20)
#    0.000    0.471    4.706    2.118    9.882    0.471 
#    0.000    2.353    0.000    0.000    0.000    0.000 
#    0.000    0.000    0.000    0.000    0.000    0.000 
#
# Total GULP energy -95127.408617 kJ/mol
# GULP energy per Si atom -5595.729919 kJ/mol
# Density = 2.388238 g / cm^3
# Si number density = 23.936859 Si / 1000 Ang^3
#
#
#
# Elastic Constant Matrix: (Units=GPa)
#
#
# Indices 1 2 3 4 5 6 
#
# 1 128.2669 67.3085 78.3918 0.0000 0.0000 0.0000
# 2 67.3085 138.8498 80.2487 0.0000 0.0000 0.0000
# 3 78.3918 80.2487 174.6563 0.0000 0.0000 0.0000
# 4 0.0000 0.0000 0.0000 75.8020 0.0000 0.0000
# 5 0.0000 0.0000 0.0000 0.0000 36.2476 0.0000
# 6 0.0000 0.0000 0.0000 0.0000 0.0000 41.6132
#
#
#
# Elastic Compliance Matrix: (Units=1/GPa)
#
#
# Indices 1 2 3 4 5 6 
#
# 1 0.011979 -0.003675 -0.003688 0.000000 0.000000 0.000000
# 2 -0.003675 0.010934 -0.003374 0.000000 0.000000 0.000000
# 3 -0.003688 -0.003374 0.008931 0.000000 0.000000 0.000000
# 4 0.000000 0.000000 0.000000 0.013192 0.000000 0.000000
# 5 0.000000 0.000000 0.000000 0.000000 0.027588 0.000000
# 6 0.000000 0.000000 0.000000 0.000000 0.000000 0.024031
#
#
# Mechanical properties :
#
#
# Convention : Reuss Voigt Hill
#
# Bulk Modulus (GPa) = 96.44081 99.29678 97.86880
# Shear Modulus (GPa) = 41.12337 45.12084 43.12211
#
# Velocity S-wave (km/s) = 4.14937 4.34636 4.24901
# Velocity P-wave (km/s) = 7.95823 8.17072 8.06518
#
# Compressibility (1/GPa) = 0.01036905
#
# Stress axis : x y z
#
# Youngs Moduli (GPa) = 83.48116 91.45984 111.97009
#
# Poissons Ratio (x) = 0.33616 0.41291
# Poissons Ratio (y) = 0.30683 0.37779
# Poissons Ratio (z) = 0.30786 0.30859
#
# Static dielectric constant tensor:
#      x y z
#    x 1.746320 0.000000 0.000000 
#    y 0.000000 1.647360 0.000000 
#    z 0.000000 0.000000 1.979790 
# 
# From -- ./inp_files/41574.got.cif
#   From: 2010.05.17/outbox.cif.g08.bks.cpg/sg22_21_cif.got.tgz:41574.got - 2010.06.03 23:40:54.
