data_PCOD9328518
_publ_section_title
;
Structure prediction by ZEFSAII (Michael W. Deem and Ramdas Pophale) SiO2 
 PCOD9328518
Probable space group: F 2 2 2
;
_chemical_formula_sum "Si O2"
_cell_formula_units_Z 56
_cell_length_a 20.444946
_cell_length_b 8.422360
_cell_length_c 13.922704
_cell_angle_alpha 90.000000
_cell_angle_beta 90.000000
_cell_angle_gamma 90.000000
_cell_volume 2397.415774
_symmetry_space_group_name_H-M "F 2 2 2"
_symmetry_group_IT_number 22
_symmetry_cell_setting 'orthorhombic'
loop_
_space_group_symop_operation_xyz
x,y,z
-x,-y,z
x,-y,-z
-x,y,-z
x,1/2+y,1/2+z
-x,1/2-y,1/2+z
x,1/2-y,1/2-z
-x,1/2+y,1/2-z
1/2+x,y,1/2+z
1/2-x,-y,1/2+z
1/2+x,-y,1/2-z
1/2-x,y,1/2-z
1/2+x,1/2+y,z
1/2-x,1/2-y,z
1/2+x,1/2-y,-z
1/2-x,1/2+y,-z
loop_
_atom_site_type_symbol
_atom_site_label
_atom_site_fract_x
_atom_site_fract_y
_atom_site_fract_z
Si Si1 0.860835 0.424874 0.747164
Si Si2 0.309992 0.866888 0.422893
Si Si3 0.914776 0.116787 0.414644
Si Si4 0.011278 0.250000 0.250000
O O1 0.829728 0.250000 0.750000
O O2 0.827722 0.544158 0.674959
O O3 0.866895 0.509310 0.849110
O O4 0.936469 0.384957 0.717333
O O5 0.250000 0.750000 0.410711
O O6 0.373354 0.764561 0.453827
O O7 0.294251 0.000000 0.500000
O O8 0.968519 0.186018 0.339371
O O9 0.935155 0.000000 0.500000
#
# Coordination Sequence:
#
# PCOD9328518 Si02
#       4
#    16  16  16   8
#     4  10  24  46  75 114 158 201 259 325 399 471
#     4  12  27  51  74 110 158 210 274 335 395 472
#     4  12  24  46  78 120 160 214 259 323 403 476
#     4  10  24  46  75 115 170 194 264 316 400 488
#
# _framework density 23.358485000000002
#
# number of rings (size 3 to 8) (size 9 to 14) (size 15 to 20)
#    0.857    0.000    2.857    3.429    0.000    4.571 
#    0.000    2.857    0.000    0.000    0.000    0.000 
#    0.000    0.000    0.000    0.000    0.000    0.000 
#
# Total GULP energy -78336.095277 kJ/mol
# GULP energy per Si atom -5595.435377 kJ/mol
# Density = 2.330532 g / cm^3
# Si number density = 23.358485 Si / 1000 Ang^3
#
#
#
# Elastic Constant Matrix: (Units=GPa)
#
#
# Indices 1 2 3 4 5 6 
#
# 1 126.8350 77.5454 61.1956 0.0000 0.0000 0.0000
# 2 77.5454 166.5369 71.9610 0.0000 0.0000 0.0000
# 3 61.1956 71.9610 148.0164 0.0000 0.0000 0.0000
# 4 0.0000 0.0000 0.0000 60.9467 0.0000 0.0000
# 5 0.0000 0.0000 0.0000 0.0000 17.4341 0.0000
# 6 0.0000 0.0000 0.0000 0.0000 0.0000 26.5376
#
#
#
# Elastic Compliance Matrix: (Units=1/GPa)
#
#
# Indices 1 2 3 4 5 6 
#
# 1 0.011881 -0.004316 -0.002813 0.000000 0.000000 0.000000
# 2 -0.004316 0.009170 -0.002674 0.000000 0.000000 0.000000
# 3 -0.002813 -0.002674 0.009219 0.000000 0.000000 0.000000
# 4 0.000000 0.000000 0.000000 0.016408 0.000000 0.000000
# 5 0.000000 0.000000 0.000000 0.000000 0.057359 0.000000
# 6 0.000000 0.000000 0.000000 0.000000 0.000000 0.037682
#
#
# Mechanical properties :
#
#
# Convention : Reuss Voigt Hill
#
# Bulk Modulus (GPa) = 93.78419 95.86582 94.82500
# Shear Modulus (GPa) = 30.32525 36.36278 33.34402
#
# Velocity S-wave (km/s) = 3.60704 3.94982 3.78231
# Velocity P-wave (km/s) = 7.58846 7.86966 7.73034
#
# Compressibility (1/GPa) = 0.01066278
#
# Stress axis : x y z
#
# Youngs Moduli (GPa) = 84.17045 109.05431 108.47203
#
# Poissons Ratio (x) = 0.47072 0.30518
# Poissons Ratio (y) = 0.36331 0.29000
# Poissons Ratio (z) = 0.23681 0.29156
#
# Static dielectric constant tensor:
#      x y z
#    x 1.929510 0.000000 0.000000 
#    y 0.000000 1.909690 0.000000 
#    z 0.000000 0.000000 1.917980 
# 
# From -- ./inp_files/31171.got.cif
#   From: 2010.05.17/outbox.cif.g08.bks.cpg/sg22_16_cif.got.tgz:31171.got - 2010.06.03 23:40:54.
