data_PCOD9328913
_publ_section_title
;
Structure prediction by ZEFSAII (Michael W. Deem and Ramdas Pophale) SiO2 
 PCOD9328913
Probable space group: F 2 2 2
;
_chemical_formula_sum "Si O2"
_cell_formula_units_Z 116
_cell_length_a 28.611309
_cell_length_b 11.295901
_cell_length_c 17.400382
_cell_angle_alpha 90.000000
_cell_angle_beta 90.000000
_cell_angle_gamma 90.000000
_cell_volume 5623.638401
_symmetry_space_group_name_H-M "F 2 2 2"
_symmetry_group_IT_number 22
_symmetry_cell_setting 'orthorhombic'
loop_
_space_group_symop_operation_xyz
x,y,z
-x,-y,z
x,-y,-z
-x,y,-z
x,1/2+y,1/2+z
-x,1/2-y,1/2+z
x,1/2-y,1/2-z
-x,1/2+y,1/2-z
1/2+x,y,1/2+z
1/2-x,-y,1/2+z
1/2+x,-y,1/2-z
1/2-x,y,1/2-z
1/2+x,1/2+y,z
1/2-x,1/2-y,z
1/2+x,1/2-y,-z
1/2-x,1/2+y,-z
loop_
_atom_site_type_symbol
_atom_site_label
_atom_site_fract_x
_atom_site_fract_y
_atom_site_fract_z
Si Si1 0.156397 0.530797 0.590970
Si Si2 0.619828 0.620458 0.461459
Si Si3 0.046252 0.270993 0.543467
Si Si4 0.799048 0.815550 0.569349
Si Si5 0.837676 0.214421 0.662902
Si Si6 0.500000 0.000000 0.500000
Si Si7 0.380950 0.804879 0.335095
Si Si8 0.759110 0.029417 0.660190
O O1 0.149436 0.500000 0.500000
O O2 0.151530 0.668720 0.613061
O O3 0.124964 0.446016 0.646416
O O4 0.210992 0.518299 0.613749
O O5 0.602484 0.500000 0.500000
O O6 0.586578 0.725618 0.487728
O O7 0.671842 0.643307 0.495402
O O8 0.626147 0.617992 0.370474
O O9 0.033070 0.409641 0.544856
O O10 0.071571 0.252960 0.625660
O O11 0.000000 0.218668 0.500000
O O12 0.750000 0.750000 0.552767
O O13 0.835556 0.736951 0.616637
O O14 0.790058 0.927900 0.622675
O O15 0.844540 0.250000 0.750000
O O16 0.786857 0.153228 0.656944
O O17 0.377308 0.750000 0.250000
O O18 0.750000 0.005530 0.750000
#
# Coordination Sequence:
#
# PCOD9328913 Si02
#       8
#    16  16  16  16  16   4  16  16
#     4  12  26  41  66  93 132 191 249 290 327 416
#     4  11  24  44  68  95 137 179 238 292 348 421
#     4   9  22  43  75 102 133 169 222 287 362 432
#     4  11  23  40  61  94 136 192 242 286 332 402
#     4  12  27  42  60  91 138 187 229 292 349 394
#     4   8  20  44  78 104 132 164 218 286 344 452
#     4  11  24  41  68 105 140 177 234 296 353 410
#     4  12  24  42  57  89 137 190 241 288 343 389
#
# _framework density 20.627215
#
# number of rings (size 3 to 8) (size 9 to 14) (size 15 to 20)
#    0.414    0.552    4.138    2.897    4.828    0.276 
#    0.000    0.690    0.000    0.000    0.000    0.000 
#    0.000    0.000    0.000    0.000    0.000    0.000 
#
# Total GULP energy -161487.423811 kJ/mol
# GULP energy per Si atom -5568.531856 kJ/mol
# Density = 2.058027 g / cm^3
# Si number density = 20.627215 Si / 1000 Ang^3
#
#
#
# Elastic Constant Matrix: (Units=GPa)
#
#
# Indices 1 2 3 4 5 6 
#
# 1 90.2107 30.9066 44.7980 0.0000 0.0000 0.0000
# 2 30.9066 83.6391 33.4666 0.0000 0.0000 0.0000
# 3 44.7980 33.4666 107.6323 0.0000 0.0000 0.0000
# 4 0.0000 0.0000 0.0000 31.0881 0.0000 0.0000
# 5 0.0000 0.0000 0.0000 0.0000 16.0348 0.0000
# 6 0.0000 0.0000 0.0000 0.0000 0.0000 37.4698
#
#
#
# Elastic Compliance Matrix: (Units=1/GPa)
#
#
# Indices 1 2 3 4 5 6 
#
# 1 0.014786 -0.003428 -0.005088 0.000000 0.000000 0.000000
# 2 -0.003428 0.014450 -0.003066 0.000000 0.000000 0.000000
# 3 -0.005088 -0.003066 0.012362 0.000000 0.000000 0.000000
# 4 0.000000 0.000000 0.000000 0.032167 0.000000 0.000000
# 5 0.000000 0.000000 0.000000 0.000000 0.062364 0.000000
# 6 0.000000 0.000000 0.000000 0.000000 0.000000 0.026688
#
#
# Mechanical properties :
#
#
# Convention : Reuss Voigt Hill
#
# Bulk Modulus (GPa) = 54.24984 55.53608 54.89296
# Shear Modulus (GPa) = 26.02446 28.40594 27.21520
#
# Velocity S-wave (km/s) = 3.55583 3.71497 3.63627
# Velocity P-wave (km/s) = 6.57387 6.73673 6.65580
#
# Compressibility (1/GPa) = 0.01843323
#
# Stress axis : x y z
#
# Youngs Moduli (GPa) = 67.62939 69.20570 80.89196
#
# Poissons Ratio (x) = 0.23723 0.41162
# Poissons Ratio (y) = 0.23183 0.24803
# Poissons Ratio (z) = 0.34413 0.21220
#
# Static dielectric constant tensor:
#      x y z
#    x 1.747040 0.000000 0.000000 
#    y 0.000000 1.865050 0.000000 
#    z 0.000000 0.000000 1.728770 
# 
# From -- ./inp_files/40072.got.cif
#   From: 2010.05.17/outbox.cif.g08.bks.cpg/sg22_21_cif.got.tgz:40072.got - 2010.06.03 23:40:54.
