data_PCOD9328089
_publ_section_title
;
Structure prediction by ZEFSAII (Michael W. Deem and Ramdas Pophale) SiO2 
 PCOD9328089
Probable space group: F 2 2 2
;
_chemical_formula_sum "Si O2"
_cell_formula_units_Z 104
_cell_length_a 20.402300
_cell_length_b 8.412578
_cell_length_c 30.160228
_cell_angle_alpha 90.000000
_cell_angle_beta 90.000000
_cell_angle_gamma 90.000000
_cell_volume 5176.579087
_symmetry_space_group_name_H-M "F 2 2 2"
_symmetry_group_IT_number 22
_symmetry_cell_setting 'orthorhombic'
loop_
_space_group_symop_operation_xyz
x,y,z
-x,-y,z
x,-y,-z
-x,y,-z
x,1/2+y,1/2+z
-x,1/2-y,1/2+z
x,1/2-y,1/2-z
-x,1/2+y,1/2-z
1/2+x,y,1/2+z
1/2-x,-y,1/2+z
1/2+x,-y,1/2-z
1/2-x,y,1/2-z
1/2+x,1/2+y,z
1/2-x,1/2-y,z
1/2+x,1/2-y,-z
1/2-x,1/2+y,-z
loop_
_atom_site_type_symbol
_atom_site_label
_atom_site_fract_x
_atom_site_fract_y
_atom_site_fract_z
Si Si1 0.657255 0.027226 0.129562
Si Si2 0.250000 0.750000 0.429140
Si Si3 0.181150 0.568580 0.233140
Si Si4 0.102475 0.810633 0.880615
Si Si5 0.063747 0.104860 0.218081
Si Si6 0.030746 0.159903 0.584686
Si Si7 0.122721 0.081314 0.954014
O O1 0.650216 0.842421 0.115782
O O2 0.709409 0.124982 0.100709
O O3 0.676065 0.050727 0.180498
O O4 0.584849 0.101436 0.120524
O O5 0.195013 0.656702 0.456293
O O6 0.180065 0.750000 0.250000
O O7 0.250000 0.497868 0.250000
O O8 0.118902 0.486140 0.254520
O O9 0.096299 0.850761 0.828800
O O10 0.029852 0.753871 0.894653
O O11 0.120620 0.957803 0.912562
O O12 0.043682 0.250000 0.250000
O O13 0.000000 0.000000 0.208998
O O14 0.071009 0.277867 0.553866
O O15 0.000000 0.000000 0.563859
O O16 0.106316 0.000000 0.000000
#
# Coordination Sequence:
#
# PCOD9328089 Si02
#       7
#    16   8  16  16  16  16  16
#     4  10  22  43  65  96 136 181 227 281 347 410
#     4  10  24  44  69  94 132 186 225 276 346 418
#     4  11  25  41  64  94 135 183 236 282 338 412
#     4  11  24  42  65 102 136 176 224 287 350 411
#     4  12  26  41  63  98 136 182 231 285 343 415
#     4   9  21  42  70  96 136 174 219 276 345 422
#     4  11  25  45  72 102 135 174 231 287 352 422
#
# _framework density 20.090487
#
# number of rings (size 3 to 8) (size 9 to 14) (size 15 to 20)
#    0.000    1.385    1.538    2.769   10.769    3.385 
#    0.000    8.462    0.000    0.000    0.000    0.000 
#    0.000    0.000    0.000    0.000    0.000    0.000 
#
# Total GULP energy -145298.051544 kJ/mol
# GULP energy per Si atom -5588.386598 kJ/mol
# Density = 2.004476 g / cm^3
# Si number density = 20.090487 Si / 1000 Ang^3
#
#
#
# Elastic Constant Matrix: (Units=GPa)
#
#
# Indices 1 2 3 4 5 6 
#
# 1 61.3930 22.1392 -0.2058 0.0000 0.0000 -0.0001
# 2 22.1392 92.2039 31.0572 0.0000 0.0000 -0.0001
# 3 -0.2058 31.0572 81.8730 0.0000 0.0000 0.0000
# 4 0.0000 0.0000 0.0000 12.1543 0.0000 0.0000
# 5 0.0000 0.0000 0.0000 0.0000 1.9254 0.0000
# 6 -0.0001 -0.0001 0.0000 0.0000 0.0000 37.8387
#
#
#
# Elastic Compliance Matrix: (Units=1/GPa)
#
#
# Indices 1 2 3 4 5 6 
#
# 1 0.018098 -0.005000 0.001942 0.000000 0.000000 0.000000
# 2 -0.005000 0.013815 -0.005253 0.000000 0.000000 0.000000
# 3 0.001942 -0.005253 0.014212 0.000000 0.000000 0.000000
# 4 0.000000 0.000000 0.000000 0.082275 0.000000 0.000000
# 5 0.000000 0.000000 0.000000 0.000000 0.519371 0.000000
# 6 0.000000 0.000000 0.000000 0.000000 0.000000 0.026428
#
#
# Mechanical properties :
#
#
# Convention : Reuss Voigt Hill
#
# Bulk Modulus (GPa) = 33.89445 37.93900 35.91672
# Shear Modulus (GPa) = 7.13617 22.54897 14.84257
#
# Velocity S-wave (km/s) = 1.88672 3.35381 2.72101
# Velocity P-wave (km/s) = 4.65337 5.82430 5.27145
#
# Compressibility (1/GPa) = 0.02950336
#
# Stress axis : x y z
#
# Youngs Moduli (GPa) = 55.25479 72.38267 70.36481
#
# Poissons Ratio (x) = 0.36189 -0.13665
# Poissons Ratio (y) = 0.27626 0.36964
# Poissons Ratio (z) = -0.10731 0.38024
#
# Static dielectric constant tensor:
#      x y z
#    x 1.696650 0.000000 0.000000 
#    y 0.000000 1.738590 0.000000 
#    z 0.000000 0.000000 1.643440 
# 
# From -- ./inp_files/13054.got.cif
#   From: 2010.05.17/outbox.cif.g08.bks.cpg/sg22_7_cif.got.tgz:13054.got - 2010.06.03 23:40:54.
