data_PCOD9328039
_publ_section_title
;
Structure prediction by ZEFSAII (Michael W. Deem and Ramdas Pophale) SiO2 
 PCOD9328039
Probable space group: F 2 2 2
;
_chemical_formula_sum "Si O2"
_cell_formula_units_Z 116
_cell_length_a 27.573625
_cell_length_b 22.997466
_cell_length_c 8.699627
_cell_angle_alpha 90.000000
_cell_angle_beta 90.000000
_cell_angle_gamma 90.000000
_cell_volume 5516.637952
_symmetry_space_group_name_H-M "F 2 2 2"
_symmetry_group_IT_number 22
_symmetry_cell_setting 'orthorhombic'
loop_
_space_group_symop_operation_xyz
x,y,z
-x,-y,z
x,-y,-z
-x,y,-z
x,1/2+y,1/2+z
-x,1/2-y,1/2+z
x,1/2-y,1/2-z
-x,1/2+y,1/2-z
1/2+x,y,1/2+z
1/2-x,-y,1/2+z
1/2+x,-y,1/2-z
1/2-x,y,1/2-z
1/2+x,1/2+y,z
1/2-x,1/2-y,z
1/2+x,1/2-y,-z
1/2-x,1/2+y,-z
loop_
_atom_site_type_symbol
_atom_site_label
_atom_site_fract_x
_atom_site_fract_y
_atom_site_fract_z
Si Si1 0.389143 0.397495 0.301333
Si Si2 0.699588 0.513535 0.322489
Si Si3 0.510019 0.568213 0.171561
Si Si4 0.834949 0.812059 0.079183
Si Si5 0.453224 0.146996 0.913351
Si Si6 0.693120 0.116779 0.273769
Si Si7 0.250000 0.250000 0.250000
Si Si8 0.137100 0.209668 0.619245
O O1 0.345489 0.442951 0.317594
O O2 0.433497 0.422689 0.203686
O O3 0.366261 0.343682 0.209112
O O4 0.417141 0.380887 0.459026
O O5 0.710078 0.500000 0.500000
O O6 0.750000 0.536371 0.250000
O O7 0.686160 0.452558 0.238994
O O8 0.500000 0.500000 0.182286
O O9 0.476028 0.601465 0.294014
O O10 0.500000 0.589542 0.000000
O O11 0.783714 0.791073 0.146243
O O12 0.826556 0.855688 0.933710
O O13 0.860105 0.751751 0.025578
O O14 0.417641 0.193163 0.837216
O O15 0.500000 0.172668 0.000000
O O16 0.750000 0.127252 0.250000
O O17 0.667192 0.150387 0.132818
O O18 0.160386 0.250000 0.750000
#
# Coordination Sequence:
#
# PCOD9328039 Si02
#       8
#    16  16  16  16  16  16   4  16
#     4  11  26  43  71 101 145 182 233 295 351 439
#     4  11  27  44  68 104 140 193 229 290 358 433
#     4  10  25  44  73 105 133 177 236 290 361 429
#     4  11  25  41  67 101 137 193 237 301 349 425
#     4  10  23  46  67  98 133 178 223 287 352 418
#     4  10  23  41  68  96 138 181 238 288 352 420
#     4  12  24  40  70  96 144 188 246 296 338 432
#     4  10  22  42  66  95 128 177 229 288 351 405
#
# _framework density 21.027301000000001
#
# number of rings (size 3 to 8) (size 9 to 14) (size 15 to 20)
#    0.000    1.517    0.000    2.483   12.552    4.966 
#    4.966    0.000    0.000    0.000    0.000    0.000 
#    0.000    0.000    0.000    0.000    0.000    0.000 
#
# Total GULP energy -161929.503342 kJ/mol
# GULP energy per Si atom -5583.775977 kJ/mol
# Density = 2.097944 g / cm^3
# Si number density = 21.027301 Si / 1000 Ang^3
#
#
#
# Elastic Constant Matrix: (Units=GPa)
#
#
# Indices 1 2 3 4 5 6 
#
# 1 153.7197 54.7195 45.7719 0.0003 -0.0002 -0.0001
# 2 54.7195 66.7820 27.0880 0.0003 -0.0002 -0.0001
# 3 45.7719 27.0880 92.2097 -0.0003 0.0002 -0.0001
# 4 0.0003 0.0003 -0.0003 24.5455 -0.0001 -0.0002
# 5 -0.0002 -0.0002 0.0002 -0.0001 132.1669 0.0002
# 6 -0.0001 -0.0001 -0.0001 -0.0002 0.0002 35.5383
#
#
#
# Elastic Compliance Matrix: (Units=1/GPa)
#
#
# Indices 1 2 3 4 5 6 
#
# 1 0.009800 -0.006876 -0.002845 0.000000 0.000000 0.000000
# 2 -0.006876 0.021824 -0.002998 0.000000 0.000000 0.000000
# 3 -0.002845 -0.002998 0.013138 0.000000 0.000000 0.000000
# 4 0.000000 0.000000 0.000000 0.040741 0.000000 0.000000
# 5 0.000000 0.000000 0.000000 0.000000 0.007566 0.000000
# 6 0.000000 0.000000 0.000000 0.000000 0.000000 0.028139
#
#
# Mechanical properties :
#
#
# Convention : Reuss Voigt Hill
#
# Bulk Modulus (GPa) = 51.74804 63.09669 57.42237
# Shear Modulus (GPa) = 32.66131 50.79227 41.72679
#
# Velocity S-wave (km/s) = 3.94544 4.92015 4.45950
# Velocity P-wave (km/s) = 6.73934 7.89616 7.34057
#
# Compressibility (1/GPa) = 0.01932440
#
# Stress axis : x y z
#
# Youngs Moduli (GPa) = 102.04016 45.82069 76.11727
#
# Poissons Ratio (x) = 0.31507 0.21653
# Poissons Ratio (y) = 0.70164 0.22820
# Poissons Ratio (z) = 0.29027 0.13737
#
# Static dielectric constant tensor:
#      x y z
#    x 1.721710 0.000000 0.000000 
#    y 0.000000 1.772440 0.000000 
#    z 0.000000 0.000000 1.831540 
# 
# From -- ./inp_files/14982.got.cif
#   From: 2010.05.17/outbox.cif.g08.bks.cpg/sg22_8_cif.got.tgz:14982.got - 2010.06.03 23:40:54.
