data_PCOD9328385
_publ_section_title
;
Structure prediction by ZEFSAII (Michael W. Deem and Ramdas Pophale) SiO2 
 PCOD9328385
Probable space group: F 2 2 2
;
_chemical_formula_sum "Si O2"
_cell_formula_units_Z 92
_cell_length_a 21.244738
_cell_length_b 8.311218
_cell_length_c 23.500685
_cell_angle_alpha 90.000000
_cell_angle_beta 90.000000
_cell_angle_gamma 90.000000
_cell_volume 4149.507699
_symmetry_space_group_name_H-M "F 2 2 2"
_symmetry_group_IT_number 22
_symmetry_cell_setting 'orthorhombic'
loop_
_space_group_symop_operation_xyz
x,y,z
-x,-y,z
x,-y,-z
-x,y,-z
x,1/2+y,1/2+z
-x,1/2-y,1/2+z
x,1/2-y,1/2-z
-x,1/2+y,1/2-z
1/2+x,y,1/2+z
1/2-x,-y,1/2+z
1/2+x,-y,1/2-z
1/2-x,y,1/2-z
1/2+x,1/2+y,z
1/2-x,1/2-y,z
1/2+x,1/2-y,-z
1/2-x,1/2+y,-z
loop_
_atom_site_type_symbol
_atom_site_label
_atom_site_fract_x
_atom_site_fract_y
_atom_site_fract_z
Si Si1 0.684762 0.165212 0.597125
Si Si2 0.637391 0.087633 0.317842
Si Si3 0.434464 0.078616 0.219275
Si Si4 0.873133 0.000000 0.000000
Si Si5 0.942677 0.250054 0.419569
Si Si6 0.419883 0.615249 0.592912
Si Si7 0.750000 0.750000 0.750000
O O1 0.750000 0.250000 0.608261
O O2 0.677364 0.027146 0.550730
O O3 0.638719 0.293679 0.567646
O O4 0.655620 0.080223 0.652137
O O5 0.595138 0.190403 0.362749
O O6 0.701889 0.160496 0.293045
O O7 0.596572 0.043401 0.263029
O O8 0.442085 0.250000 0.250000
O O9 0.400447 0.094973 0.159218
O O10 0.500000 0.000000 0.201797
O O11 0.920336 0.130479 0.030349
O O12 0.018398 0.231477 0.409686
O O13 0.928073 0.062393 0.431532
#
# Coordination Sequence:
#
# PCOD9328385 Si02
#       7
#    16  16  16   8  16  16   4
#     4  11  27  47  68 100 136 183 228 293 349 418
#     4  11  26  42  67 100 147 183 237 279 340 419
#     4  12  23  39  68 104 140 184 223 274 346 415
#     4  10  26  49  74 100 130 185 232 296 360 413
#     4  10  23  46  72 105 136 178 234 296 350 405
#     4  11  23  42  71 106 140 176 229 289 347 414
#     4  12  28  40  66 104 136 204 228 280 348 418
#
# _framework density 22.171303999999999
#
# number of rings (size 3 to 8) (size 9 to 14) (size 15 to 20)
#    0.000    1.043    3.478    2.087    6.087    5.565 
#    3.130    1.739    0.000    0.000    0.000    0.000 
#    0.000    0.000    0.000    0.000    0.000    0.000 
#
# Total GULP energy -128266.241381 kJ/mol
# GULP energy per Si atom -5576.793104 kJ/mol
# Density = 2.212084 g / cm^3
# Si number density = 22.171304 Si / 1000 Ang^3
#
#
#
# Elastic Constant Matrix: (Units=GPa)
#
#
# Indices 1 2 3 4 5 6 
#
# 1 85.5325 33.9042 -8.2253 0.0000 0.0000 0.0000
# 2 33.9042 80.5346 8.5062 0.0000 0.0000 0.0000
# 3 -8.2253 8.5062 82.8392 0.0000 0.0000 0.0000
# 4 0.0000 0.0000 0.0000 28.9407 0.0000 0.0000
# 5 0.0000 0.0000 0.0000 0.0000 16.1827 0.0000
# 6 0.0000 0.0000 0.0000 0.0000 0.0000 26.5515
#
#
#
# Elastic Compliance Matrix: (Units=1/GPa)
#
#
# Indices 1 2 3 4 5 6 
#
# 1 0.014376 -0.006271 0.002071 0.000000 0.000000 0.000000
# 2 -0.006271 0.015289 -0.002193 0.000000 0.000000 0.000000
# 3 0.002071 -0.002193 0.012502 0.000000 0.000000 0.000000
# 4 0.000000 0.000000 0.000000 0.034553 0.000000 0.000000
# 5 0.000000 0.000000 0.000000 0.000000 0.061794 0.000000
# 6 0.000000 0.000000 0.000000 0.000000 0.000000 0.037663
#
#
# Mechanical properties :
#
#
# Convention : Reuss Voigt Hill
#
# Bulk Modulus (GPa) = 34.03329 35.25295 34.64312
# Shear Modulus (GPa) = 25.15634 28.64970 26.90302
#
# Velocity S-wave (km/s) = 3.37209 3.59861 3.48719
# Velocity P-wave (km/s) = 5.52673 5.76207 5.64563
#
# Compressibility (1/GPa) = 0.02938299
#
# Stress axis : x y z
#
# Youngs Moduli (GPa) = 69.55808 65.40786 79.98462
#
# Poissons Ratio (x) = 0.41018 -0.16568
# Poissons Ratio (y) = 0.43621 0.17537
# Poissons Ratio (z) = -0.14408 0.14341
#
# Static dielectric constant tensor:
#      x y z
#    x 1.841470 0.000000 0.000000 
#    y 0.000000 1.975040 0.000000 
#    z 0.000000 0.000000 1.879010 
# 
# From -- ./inp_files/49830.got.cif
#   From: 2010.05.17/outbox.cif.g08.bks.cpg/sg22_25_cif.got.tgz:49830.got - 2010.06.03 23:40:54.
