data_PCOD9328832
_publ_section_title
;
Structure prediction by ZEFSAII (Michael W. Deem and Ramdas Pophale) SiO2 
 PCOD9328832
Probable space group: F 2 2 2
;
_chemical_formula_sum "Si O2"
_cell_formula_units_Z 68
_cell_length_a 8.762358
_cell_length_b 22.762061
_cell_length_c 17.413335
_cell_angle_alpha 90.000000
_cell_angle_beta 90.000000
_cell_angle_gamma 90.000000
_cell_volume 3473.077952
_symmetry_space_group_name_H-M "F 2 2 2"
_symmetry_group_IT_number 22
_symmetry_cell_setting 'orthorhombic'
loop_
_space_group_symop_operation_xyz
x,y,z
-x,-y,z
x,-y,-z
-x,y,-z
x,1/2+y,1/2+z
-x,1/2-y,1/2+z
x,1/2-y,1/2-z
-x,1/2+y,1/2-z
1/2+x,y,1/2+z
1/2-x,-y,1/2+z
1/2+x,-y,1/2-z
1/2-x,y,1/2-z
1/2+x,1/2+y,z
1/2-x,1/2-y,z
1/2+x,1/2-y,-z
1/2-x,1/2+y,-z
loop_
_atom_site_type_symbol
_atom_site_label
_atom_site_fract_x
_atom_site_fract_y
_atom_site_fract_z
Si Si1 0.750000 0.750000 0.750000
Si Si2 0.000000 0.897283 0.500000
Si Si3 0.378445 0.648221 0.348977
Si Si4 0.425239 0.409643 0.917983
Si Si5 0.570335 0.435134 0.765536
Si Si6 0.259811 0.000000 0.000000
O O1 0.647750 0.708432 0.695870
O O2 0.973487 0.856430 0.572899
O O3 0.135621 0.943783 0.519200
O O4 0.211995 0.627722 0.380174
O O5 0.464945 0.604141 0.290933
O O6 0.548951 0.412505 0.851997
O O7 0.500000 0.391788 0.000000
O O8 0.345961 0.473023 0.934072
O O9 0.500000 0.500000 0.758888
O O10 0.750000 0.435028 0.750000
#
# Coordination Sequence:
#
# PCOD9328832 Si02
#       6
#     4   8  16  16  16   8
#     4  12  24  56  70  92 140 194 246 302 348 408
#     4   9  22  38  68 106 128 180 227 284 352 416
#     4  11  25  46  72  95 136 191 237 299 351 417
#     4  11  22  40  65 104 139 191 222 279 358 427
#     4  12  26  39  65 106 146 180 229 290 365 436
#     4   9  19  34  66  98 150 166 218 282 342 438
#
# _framework density 19.579173999999998
#
# number of rings (size 3 to 8) (size 9 to 14) (size 15 to 20)
#    0.000    1.176    2.353    3.176   16.471    0.000 
#    2.118    0.588    0.000    0.000    0.000    0.000 
#    0.000    0.000    0.000    0.000    0.000    0.000 
#
# Total GULP energy -94832.552725 kJ/mol
# GULP energy per Si atom -5578.385454 kJ/mol
# Density = 1.953461 g / cm^3
# Si number density = 19.579174 Si / 1000 Ang^3
#
#
#
# Elastic Constant Matrix: (Units=GPa)
#
#
# Indices 1 2 3 4 5 6 
#
# 1 138.2157 37.6662 72.3216 0.0000 0.0000 0.0000
# 2 37.6662 100.4586 70.6815 0.0000 0.0000 0.0000
# 3 72.3216 70.6815 188.6537 0.0000 0.0000 0.0000
# 4 0.0000 0.0000 0.0000 43.3512 0.0000 0.0000
# 5 0.0000 0.0000 0.0000 0.0000 41.2907 0.0000
# 6 0.0000 0.0000 0.0000 0.0000 0.0000 18.7766
#
#
#
# Elastic Compliance Matrix: (Units=1/GPa)
#
#
# Indices 1 2 3 4 5 6 
#
# 1 0.009176 -0.001311 -0.003026 0.000000 0.000000 0.000000
# 2 -0.001311 0.013705 -0.004632 0.000000 0.000000 0.000000
# 3 -0.003026 -0.004632 0.008196 0.000000 0.000000 0.000000
# 4 0.000000 0.000000 0.000000 0.023067 0.000000 0.000000
# 5 0.000000 0.000000 0.000000 0.000000 0.024219 0.000000
# 6 0.000000 0.000000 0.000000 0.000000 0.000000 0.053258
#
#
# Mechanical properties :
#
#
# Convention : Reuss Voigt Hill
#
# Bulk Modulus (GPa) = 76.11478 87.62965 81.87221
# Shear Modulus (GPa) = 32.48017 37.12759 34.80388
#
# Velocity S-wave (km/s) = 4.07740 4.35935 4.22073
# Velocity P-wave (km/s) = 7.81835 8.37809 8.10305
#
# Compressibility (1/GPa) = 0.01313805
#
# Stress axis : x y z
#
# Youngs Moduli (GPa) = 108.98042 72.96569 122.00434
#
# Poissons Ratio (x) = 0.09566 0.36924
# Poissons Ratio (y) = 0.14288 0.56514
# Poissons Ratio (z) = 0.32982 0.33799
#
# Static dielectric constant tensor:
#      x y z
#    x 1.783430 0.000000 0.000000 
#    y 0.000000 1.661450 0.000000 
#    z 0.000000 0.000000 1.719090 
# 
# From -- ./inp_files/11310.got.cif
#   From: 2010.05.17/outbox.cif.g08.bks.cpg/sg22_6_cif.got.tgz:11310.got - 2010.06.03 23:40:54.
