data_PCOD9328338
_publ_section_title
;
Structure prediction by ZEFSAII (Michael W. Deem and Ramdas Pophale) SiO2 
 PCOD9328338
Probable space group: F 2 2 2
;
_chemical_formula_sum "Si O2"
_cell_formula_units_Z 88
_cell_length_a 5.153512
_cell_length_b 32.764050
_cell_length_c 25.289917
_cell_angle_alpha 90.000000
_cell_angle_beta 90.000000
_cell_angle_gamma 90.000000
_cell_volume 4270.200585
_symmetry_space_group_name_H-M "F 2 2 2"
_symmetry_group_IT_number 22
_symmetry_cell_setting 'orthorhombic'
loop_
_space_group_symop_operation_xyz
x,y,z
-x,-y,z
x,-y,-z
-x,y,-z
x,1/2+y,1/2+z
-x,1/2-y,1/2+z
x,1/2-y,1/2-z
-x,1/2+y,1/2-z
1/2+x,y,1/2+z
1/2-x,-y,1/2+z
1/2+x,-y,1/2-z
1/2-x,y,1/2-z
1/2+x,1/2+y,z
1/2-x,1/2-y,z
1/2+x,1/2-y,-z
1/2-x,1/2+y,-z
loop_
_atom_site_type_symbol
_atom_site_label
_atom_site_fract_x
_atom_site_fract_y
_atom_site_fract_z
Si Si1 0.000000 0.776964 0.500000
Si Si2 0.750000 0.456675 0.250000
Si Si3 0.924220 0.652542 0.917793
Si Si4 0.750000 0.100062 0.750000
Si Si5 0.345044 0.457323 0.084016
Si Si6 0.500000 0.000000 0.160843
Si Si7 0.442326 0.125666 0.362169
Si Si8 0.000000 0.083990 0.500000
O O1 0.750000 0.750000 0.485681
O O2 0.916256 0.806433 0.548190
O O3 0.499305 0.428771 0.257478
O O4 0.729722 0.485237 0.301136
O O5 0.710381 0.649204 0.871943
O O6 0.214264 0.645354 0.897006
O O7 0.873571 0.614794 0.957802
O O8 0.668837 0.124054 0.697198
O O9 0.500000 0.500000 0.079770
O O10 0.100696 0.465251 0.122453
O O11 0.483880 0.420269 0.114768
O O12 0.218532 0.442740 0.029033
#
# Coordination Sequence:
#
# PCOD9328338 Si02
#       8
#     8   8  16   8  16   8  16   8
#     4  11  22  42  77 112 135 166 207 246 303 398
#     4  12  25  40  58  82 112 158 218 314 354 388
#     4  10  23  44  65  95 137 167 199 259 327 384
#     4  12  23  40  64  88 115 170 233 270 333 402
#     4  11  25  42  57  80 118 170 234 290 334 395
#     4  12  26  41  56  80 114 157 224 306 370 372
#     4  11  23  42  62  87 129 174 218 275 331 379
#     4   9  24  45  55  84 122 172 216 262 341 402
#
# _framework density 20.607931000000001
#
# number of rings (size 3 to 8) (size 9 to 14) (size 15 to 20)
#    0.000    1.091    1.818    3.818    8.909    6.182 
#    3.273    0.000    0.000    0.000    0.000    9.545 
#    0.000    0.000    0.000    0.000    0.000    0.000 
#
# Total GULP energy -123038.983644 kJ/mol
# GULP energy per Si atom -5592.681075 kJ/mol
# Density = 2.056103 g / cm^3
# Si number density = 20.607931 Si / 1000 Ang^3
#
#
#
# Elastic Constant Matrix: (Units=GPa)
#
#
# Indices 1 2 3 4 5 6 
#
# 1 113.7425 38.5910 21.9879 0.0000 0.0000 0.0000
# 2 38.5910 83.5831 30.4781 0.0000 0.0000 0.0000
# 3 21.9879 30.4781 80.3477 0.0000 0.0000 0.0000
# 4 0.0000 0.0000 0.0000 8.6961 0.0000 0.0000
# 5 0.0000 0.0000 0.0000 0.0000 41.1274 0.0000
# 6 0.0000 0.0000 0.0000 0.0000 0.0000 31.4801
#
#
#
# Elastic Compliance Matrix: (Units=1/GPa)
#
#
# Indices 1 2 3 4 5 6 
#
# 1 0.010524 -0.004420 -0.001203 0.000000 0.000000 0.000000
# 2 -0.004420 0.015741 -0.004761 0.000000 0.000000 0.000000
# 3 -0.001203 -0.004761 0.014581 0.000000 0.000000 0.000000
# 4 0.000000 0.000000 0.000000 0.114994 0.000000 0.000000
# 5 0.000000 0.000000 0.000000 0.000000 0.024315 0.000000
# 6 0.000000 0.000000 0.000000 0.000000 0.000000 0.031766
#
#
# Mechanical properties :
#
#
# Convention : Reuss Voigt Hill
#
# Bulk Modulus (GPa) = 49.80902 51.08747 50.44824
# Shear Modulus (GPa) = 20.88697 28.70180 24.79439
#
# Velocity S-wave (km/s) = 3.18707 3.73601 3.47241
# Velocity P-wave (km/s) = 6.14536 6.59200 6.37259
#
# Compressibility (1/GPa) = 0.02007669
#
# Stress axis : x y z
#
# Youngs Moduli (GPa) = 95.01968 63.52727 68.58077
#
# Poissons Ratio (x) = 0.28081 0.08252
# Poissons Ratio (y) = 0.42002 0.32654
# Poissons Ratio (z) = 0.11434 0.30248
#
# Static dielectric constant tensor:
#      x y z
#    x 1.789800 0.000000 0.000000 
#    y 0.000000 1.735700 0.000000 
#    z 0.000000 0.000000 1.771290 
# 
# From -- ./inp_files/46747.got.cif
#   From: 2010.05.17/outbox.cif.g08.bks.cpg/sg22_24_cif.got.tgz:46747.got - 2010.06.03 23:40:54.
