data_PCOD9328411
_publ_section_title
;
Structure prediction by ZEFSAII (Michael W. Deem and Ramdas Pophale) SiO2 
 PCOD9328411
Probable space group: F 2 2 2
;
_chemical_formula_sum "Si O2"
_cell_formula_units_Z 64
_cell_length_a 5.057451
_cell_length_b 24.341950
_cell_length_c 24.195978
_cell_angle_alpha 90.000000
_cell_angle_beta 90.000000
_cell_angle_gamma 90.000000
_cell_volume 2978.723767
_symmetry_space_group_name_H-M "F 2 2 2"
_symmetry_group_IT_number 22
_symmetry_cell_setting 'orthorhombic'
loop_
_space_group_symop_operation_xyz
x,y,z
-x,-y,z
x,-y,-z
-x,y,-z
x,1/2+y,1/2+z
-x,1/2-y,1/2+z
x,1/2-y,1/2-z
-x,1/2+y,1/2-z
1/2+x,y,1/2+z
1/2-x,-y,1/2+z
1/2+x,-y,1/2-z
1/2-x,y,1/2-z
1/2+x,1/2+y,z
1/2-x,1/2-y,z
1/2+x,1/2-y,-z
1/2-x,1/2+y,-z
loop_
_atom_site_type_symbol
_atom_site_label
_atom_site_fract_x
_atom_site_fract_y
_atom_site_fract_z
Si Si1 0.740457 0.420501 0.912240
Si Si2 0.726266 0.134722 0.124766
Si Si3 0.000000 0.500000 0.500000
Si Si4 0.750000 0.750000 0.250000
Si Si5 0.426862 0.059717 0.203290
Si Si6 0.750000 0.250000 0.174225
O O1 0.512098 0.376875 0.899415
O O2 0.768149 0.451941 0.853477
O O3 0.017226 0.389972 0.918518
O O4 0.671409 0.461559 0.960373
O O5 0.660619 0.098689 0.180430
O O6 0.668623 0.197072 0.139474
O O7 0.516105 0.729096 0.207477
O O8 0.250000 0.088443 0.250000
O O9 0.500000 0.000000 0.225412
#
# Coordination Sequence:
#
# PCOD9328411 Si02
#       6
#    16  16   4   4  16   8
#     4  10  25  41  65  99 130 176 230 288 352 408
#     4  10  24  43  63  99 134 182 232 280 353 409
#     4  12  24  46  76  98 144 170 248 304 354 438
#     4  10  24  34  64 102 126 198 238 282 340 388
#     4  10  24  37  59  93 139 178 217 269 345 424
#     4  11  22  42  66  92 145 182 243 294 331 424
#
# _framework density 21.485710000000001
#
# number of rings (size 3 to 8) (size 9 to 14) (size 15 to 20)
#    1.500    0.250    0.000    3.000    7.000    4.000 
#    0.000    0.000    0.000    3.000    0.000    0.000 
#    0.000    0.000    0.000    0.000    0.000    0.000 
#
# Total GULP energy -89074.855061 kJ/mol
# GULP energy per Si atom -5567.178441 kJ/mol
# Density = 2.143681 g / cm^3
# Si number density = 21.485710 Si / 1000 Ang^3
#
#
#
# Elastic Constant Matrix: (Units=GPa)
#
#
# Indices 1 2 3 4 5 6 
#
# 1 75.4906 -12.2638 3.3407 0.0000 0.0000 0.0000
# 2 -12.2638 79.7272 1.3631 0.0000 0.0000 0.0000
# 3 3.3407 1.3631 75.9766 0.0000 0.0000 0.0000
# 4 0.0000 0.0000 0.0000 434.6804 0.0000 0.0000
# 5 0.0000 0.0000 0.0000 0.0000 40.3996 0.0000
# 6 0.0000 0.0000 0.0000 0.0000 0.0000 15.7311
#
#
#
# Elastic Compliance Matrix: (Units=1/GPa)
#
#
# Indices 1 2 3 4 5 6 
#
# 1 0.013617 0.002105 -0.000637 0.000000 0.000000 0.000000
# 2 0.002105 0.012872 -0.000324 0.000000 0.000000 0.000000
# 3 -0.000637 -0.000324 0.013196 0.000000 0.000000 0.000000
# 4 0.000000 0.000000 0.000000 0.002301 0.000000 0.000000
# 5 0.000000 0.000000 0.000000 0.000000 0.024753 0.000000
# 6 0.000000 0.000000 0.000000 0.000000 0.000000 0.063568
#
#
# Mechanical properties :
#
#
# Convention : Reuss Voigt Hill
#
# Bulk Modulus (GPa) = 23.82335 24.00829 23.91582
# Shear Modulus (GPa) = 35.20944 114.07917 74.64431
#
# Velocity S-wave (km/s) = 4.05252 7.29456 5.90058
# Velocity P-wave (km/s) = 5.74538 9.06343 7.58799
#
# Compressibility (1/GPa) = 0.04197562
#
# Stress axis : x y z
#
# Youngs Moduli (GPa) = 73.43818 77.68704 75.78209
#
# Poissons Ratio (x) = -0.16357 0.04824
# Poissons Ratio (y) = -0.15462 0.02452
# Poissons Ratio (z) = 0.04674 0.02513
#
# Static dielectric constant tensor:
#      x y z
#    x 1.644830 0.000000 0.000000 
#    y 0.000000 1.569800 0.000000 
#    z 0.000000 0.000000 1.803310 
# 
# From -- ./inp_files/51191.got.cif
#   From: 2010.05.17/outbox.cif.g08.bks.cpg/sg22_26_cif.got.tgz:51191.got - 2010.06.03 23:40:54.
