data_PCOD9328660
_publ_section_title
;
Structure prediction by ZEFSAII (Michael W. Deem and Ramdas Pophale) SiO2 
 PCOD9328660
Probable space group: F 2 2 2
;
_chemical_formula_sum "Si O2"
_cell_formula_units_Z 48
_cell_length_a 21.258279
_cell_length_b 4.779486
_cell_length_c 19.900938
_cell_angle_alpha 90.000000
_cell_angle_beta 90.000000
_cell_angle_gamma 90.000000
_cell_volume 2022.007877
_symmetry_space_group_name_H-M "F 2 2 2"
_symmetry_group_IT_number 22
_symmetry_cell_setting 'orthorhombic'
loop_
_space_group_symop_operation_xyz
x,y,z
-x,-y,z
x,-y,-z
-x,y,-z
x,1/2+y,1/2+z
-x,1/2-y,1/2+z
x,1/2-y,1/2-z
-x,1/2+y,1/2-z
1/2+x,y,1/2+z
1/2-x,-y,1/2+z
1/2+x,-y,1/2-z
1/2-x,y,1/2-z
1/2+x,1/2+y,z
1/2-x,1/2-y,z
1/2+x,1/2-y,-z
1/2-x,1/2+y,-z
loop_
_atom_site_type_symbol
_atom_site_label
_atom_site_fract_x
_atom_site_fract_y
_atom_site_fract_z
Si Si1 0.750000 0.750000 0.250000
Si Si2 0.710565 0.000000 0.000000
Si Si3 0.364758 0.071712 0.685704
Si Si4 0.500000 0.000000 0.000000
Si Si5 0.893641 0.402580 0.900399
O O1 0.704792 0.551099 0.204907
O O2 0.750000 0.250000 0.032573
O O3 0.667526 0.842148 0.054533
O O4 0.384562 0.250000 0.750000
O O5 0.379016 0.282939 0.624375
O O6 0.399919 0.791281 0.664206
O O7 0.452356 0.148620 0.050988
#
# Coordination Sequence:
#
# PCOD9328660 Si02
#       5
#     4   8  16   4  16
#     4  12  26  40  74 108 166 188 230 296 398 464
#     4  11  24  37  62 105 142 181 238 310 370 435
#     4  12  25  43  71 112 144 198 233 300 379 453
#     4  10  28  58  76 106 144 216 256 322 356 416
#     4  11  26  45  75 101 147 199 255 299 373 440
#
# _framework density 23.738782
#
# number of rings (size 3 to 8) (size 9 to 14) (size 15 to 20)
#    0.000    0.667    3.333    2.500    7.000    6.667 
#    0.000    3.333    3.667    0.000    0.000    0.000 
#    0.000    0.000    0.000    0.000    0.000    0.000 
#
# Total GULP energy -66945.880319 kJ/mol
# GULP energy per Si atom -5578.823360 kJ/mol
# Density = 2.368475 g / cm^3
# Si number density = 23.738782 Si / 1000 Ang^3
#
#
#
# Elastic Constant Matrix: (Units=GPa)
#
#
# Indices 1 2 3 4 5 6 
#
# 1 100.4703 39.5189 52.4221 0.0000 0.0003 0.0001
# 2 39.5189 135.2514 36.3246 -0.0014 0.0013 -0.0037
# 3 52.4221 36.3246 99.2894 -0.0012 0.0003 0.0000
# 4 0.0000 -0.0014 -0.0012 40.0430 0.0006 -0.0012
# 5 0.0003 0.0013 0.0003 0.0006 16.0559 -0.0018
# 6 0.0001 -0.0037 0.0000 -0.0012 -0.0018 -9.1605
#
#
#
# Elastic Compliance Matrix: (Units=1/GPa)
#
#
# Indices 1 2 3 4 5 6 
#
# 1 0.014409 -0.002403 -0.006728 0.000000 0.000000 0.000001
# 2 -0.002403 0.008600 -0.001878 0.000000 -0.000001 -0.000003
# 3 -0.006728 -0.001878 0.014311 0.000000 0.000000 0.000001
# 4 0.000000 0.000000 0.000000 0.024973 -0.000001 -0.000003
# 5 0.000000 -0.000001 0.000000 -0.000001 0.062282 -0.000012
# 6 0.000001 -0.000003 0.000001 -0.000003 -0.000012 -0.109164
#
#
# Mechanical properties :
#
#
# Convention : Reuss Voigt Hill
#
# Bulk Modulus (GPa) = 65.35138 65.72693 65.53916
# Shear Modulus (GPa) = 117.56376 23.17072 70.36724
#
# Velocity S-wave (km/s) = 7.04496 3.12760 5.45038
# Velocity P-wave (km/s) = 9.68320 6.38672 8.20227
#
# Compressibility (1/GPa) = 0.01530189
#
# Stress axis : x y z
#
# Youngs Moduli (GPa) = 69.40055 116.27842 69.87685
#
# Poissons Ratio (x) = 0.27943 0.47016
# Poissons Ratio (y) = 0.16678 0.13119
# Poissons Ratio (z) = 0.46696 0.21831
#
# Static dielectric constant tensor:
#      x y z
#    x 1.893840 0.000000 0.000000 
#    y 0.000000 1.928690 0.000000 
#    z 0.000000 0.000000 2.036830 
# 
# From -- ./inp_files/3278.got.cif
#   From: 2010.05.17/outbox.cif.g08.bks.cpg/sg22_2_cif.got.tgz:3278.got - 2010.06.03 23:40:54.
