data_PCOD9328618
_publ_section_title
;
Structure prediction by ZEFSAII (Michael W. Deem and Ramdas Pophale) SiO2 
 PCOD9328618
Probable space group: F 2 2 2
;
_chemical_formula_sum "Si O2"
_cell_formula_units_Z 52
_cell_length_a 24.677853
_cell_length_b 17.898046
_cell_length_c 5.476854
_cell_angle_alpha 90.000000
_cell_angle_beta 90.000000
_cell_angle_gamma 90.000000
_cell_volume 2419.046166
_symmetry_space_group_name_H-M "F 2 2 2"
_symmetry_group_IT_number 22
_symmetry_cell_setting 'orthorhombic'
loop_
_space_group_symop_operation_xyz
x,y,z
-x,-y,z
x,-y,-z
-x,y,-z
x,1/2+y,1/2+z
-x,1/2-y,1/2+z
x,1/2-y,1/2-z
-x,1/2+y,1/2-z
1/2+x,y,1/2+z
1/2-x,-y,1/2+z
1/2+x,-y,1/2-z
1/2-x,y,1/2-z
1/2+x,1/2+y,z
1/2-x,1/2-y,z
1/2+x,1/2-y,-z
1/2-x,1/2+y,-z
loop_
_atom_site_type_symbol
_atom_site_label
_atom_site_fract_x
_atom_site_fract_y
_atom_site_fract_z
Si Si1 0.432070 0.750000 0.750000
Si Si2 0.750000 0.750000 0.250000
Si Si3 0.000000 0.623557 0.000000
Si Si4 0.601914 0.454893 0.256366
Si Si5 0.161889 0.687682 0.428119
O O1 0.466951 0.679113 0.674235
O O2 0.393282 0.777048 0.534410
O O3 0.792523 0.690455 0.367247
O O4 0.043381 0.577301 0.158064
O O5 0.619875 0.500000 0.500000
O O6 0.644201 0.388498 0.198998
O O7 0.596740 0.500000 0.000000
O O8 0.184792 0.750000 0.250000
#
# Coordination Sequence:
#
# PCOD9328618 Si02
#       5
#     8   4   8  16  16
#     4  11  22  39  70 106 146 187 258 311 340 408
#     4  10  26  44  92 102 128 180 264 310 386 418
#     4  12  23  42  70 108 151 210 244 288 351 442
#     4  12  28  46  71 108 161 200 239 295 365 440
#     4  11  23  48  74 106 137 186 248 315 363 435
#
# _framework density 21.496075000000001
#
# number of rings (size 3 to 8) (size 9 to 14) (size 15 to 20)
#    0.000    0.615    3.077    4.615    4.308    7.385 
#    0.000    0.000    6.769    0.000    0.000    0.000 
#    0.000    0.000    0.000    0.000    0.000    0.000 
#
# Total GULP energy -72591.345622 kJ/mol
# GULP energy per Si atom -5583.949663 kJ/mol
# Density = 2.144715 g / cm^3
# Si number density = 21.496075 Si / 1000 Ang^3
#
#
#
# Elastic Constant Matrix: (Units=GPa)
#
#
# Indices 1 2 3 4 5 6 
#
# 1 113.0050 61.7345 36.6889 0.0001 -0.0002 -0.0001
# 2 61.7345 143.0474 73.0959 0.0004 -0.0005 0.0000
# 3 36.6889 73.0959 105.3990 0.0019 -0.0017 0.0000
# 4 0.0001 0.0004 0.0019 53.2049 -0.0005 -0.0001
# 5 -0.0002 -0.0005 -0.0017 -0.0005 17.0387 0.0000
# 6 -0.0001 0.0000 0.0000 -0.0001 0.0000 1.7697
#
#
#
# Elastic Compliance Matrix: (Units=1/GPa)
#
#
# Indices 1 2 3 4 5 6 
#
# 1 0.011631 -0.004571 -0.000879 0.000000 0.000000 0.000001
# 2 -0.004571 0.012624 -0.007164 0.000000 0.000000 0.000000
# 3 -0.000879 -0.007164 0.014762 0.000000 0.000001 0.000000
# 4 0.000000 0.000000 0.000000 0.018795 0.000001 0.000002
# 5 0.000000 0.000000 0.000001 0.000001 0.058690 0.000002
# 6 0.000001 0.000000 0.000000 0.000002 0.000002 0.565083
#
#
# Mechanical properties :
#
#
# Convention : Reuss Voigt Hill
#
# Bulk Modulus (GPa) = 72.51468 78.27667 75.39567
# Shear Modulus (GPa) = 7.02831 27.06481 17.04656
#
# Velocity S-wave (km/s) = 1.81016 3.55217 2.81909
# Velocity P-wave (km/s) = 6.17868 7.30187 6.76363
#
# Compressibility (1/GPa) = 0.01379031
#
# Stress axis : x y z
#
# Youngs Moduli (GPa) = 85.97379 79.21518 67.74140
#
# Poissons Ratio (x) = 0.36205 0.05955
# Poissons Ratio (y) = 0.39295 0.48529
# Poissons Ratio (z) = 0.07558 0.56749
#
# Static dielectric constant tensor:
#      x y z
#    x 1.818080 0.000000 0.000000 
#    y 0.000000 1.749580 0.000000 
#    z 0.000000 0.000000 1.826370 
# 
# From -- ./inp_files/2566.got.cif
#   From: 2010.05.17/outbox.cif.g08.bks.cpg/sg22_2_cif.got.tgz:2566.got - 2010.06.03 23:40:54.
