data_PCOD9328621
_publ_section_title
;
Structure prediction by ZEFSAII (Michael W. Deem and Ramdas Pophale) SiO2 
 PCOD9328621
Probable space group: F 2 2 2
;
_chemical_formula_sum "Si O2"
_cell_formula_units_Z 88
_cell_length_a 19.905783
_cell_length_b 10.533384
_cell_length_c 19.490270
_cell_angle_alpha 90.000000
_cell_angle_beta 90.000000
_cell_angle_gamma 90.000000
_cell_volume 4086.627355
_symmetry_space_group_name_H-M "F 2 2 2"
_symmetry_group_IT_number 22
_symmetry_cell_setting 'orthorhombic'
loop_
_space_group_symop_operation_xyz
x,y,z
-x,-y,z
x,-y,-z
-x,y,-z
x,1/2+y,1/2+z
-x,1/2-y,1/2+z
x,1/2-y,1/2-z
-x,1/2+y,1/2-z
1/2+x,y,1/2+z
1/2-x,-y,1/2+z
1/2+x,-y,1/2-z
1/2-x,y,1/2-z
1/2+x,1/2+y,z
1/2-x,1/2-y,z
1/2+x,1/2-y,-z
1/2-x,1/2+y,-z
loop_
_atom_site_type_symbol
_atom_site_label
_atom_site_fract_x
_atom_site_fract_y
_atom_site_fract_z
Si Si1 0.343830 0.100128 0.586664
Si Si2 0.283658 0.088971 0.821767
Si Si3 0.576198 0.233371 0.170820
Si Si4 0.500000 0.500000 0.333877
Si Si5 0.369392 0.348436 0.312098
Si Si6 0.827591 0.699278 0.442208
O O1 0.271257 0.116036 0.621436
O O2 0.407493 0.134324 0.634492
O O3 0.347906 0.196737 0.522321
O O4 0.340094 0.949797 0.572802
O O5 0.250000 0.116077 0.750000
O O6 0.350453 0.170074 0.828489
O O7 0.306605 0.942896 0.818837
O O8 0.553302 0.250000 0.250000
O O9 0.530159 0.128748 0.133071
O O10 0.434339 0.438119 0.298012
O O11 0.361922 0.250000 0.250000
O O12 0.370058 0.277198 0.385723
O O13 0.750000 0.750000 0.437556
#
# Coordination Sequence:
#
# PCOD9328621 Si02
#       6
#    16  16  16   8  16  16
#     4  11  23  39  63  98 139 171 212 267 338 408
#     4  11  20  35  63 100 129 166 207 269 335 406
#     4  11  22  39  64  92 130 170 220 271 328 396
#     4  10  26  46  63  94 125 180 232 290 338 384
#     4  11  24  42  68  94 133 174 231 279 338 410
#     4  11  23  41  64  97 136 173 209 272 340 408
#
# _framework density 21.533649
#
# number of rings (size 3 to 8) (size 9 to 14) (size 15 to 20)
#    0.000    1.091    3.636    3.273    2.545    0.000 
#    0.000    1.818    0.000    2.182    0.000    0.000 
#    0.000    0.000    0.000    0.000    0.000    0.000 
#
# Total GULP energy -122571.021151 kJ/mol
# GULP energy per Si atom -5571.410052 kJ/mol
# Density = 2.148464 g / cm^3
# Si number density = 21.533649 Si / 1000 Ang^3
#
#
#
# Elastic Constant Matrix: (Units=GPa)
#
#
# Indices 1 2 3 4 5 6 
#
# 1 63.3662 32.2206 23.4107 0.0000 0.0000 0.0000
# 2 32.2206 121.9314 36.6313 0.0000 0.0000 0.0000
# 3 23.4107 36.6313 104.1922 0.0000 0.0000 0.0000
# 4 0.0000 0.0000 0.0000 30.2498 0.0000 0.0000
# 5 0.0000 0.0000 0.0000 0.0000 5.5482 0.0000
# 6 0.0000 0.0000 0.0000 0.0000 0.0000 91.6245
#
#
#
# Elastic Compliance Matrix: (Units=1/GPa)
#
#
# Indices 1 2 3 4 5 6 
#
# 1 0.018929 -0.004164 -0.002789 0.000000 0.000000 0.000000
# 2 -0.004164 0.010086 -0.002610 0.000000 0.000000 0.000000
# 3 -0.002789 -0.002610 0.011142 0.000000 0.000000 0.000000
# 4 0.000000 0.000000 0.000000 0.033058 0.000000 0.000000
# 5 0.000000 0.000000 0.000000 0.000000 0.180239 0.000000
# 6 0.000000 0.000000 0.000000 0.000000 0.000000 0.010914
#
#
# Mechanical properties :
#
#
# Convention : Reuss Voigt Hill
#
# Bulk Modulus (GPa) = 47.55131 52.66833 50.10982
# Shear Modulus (GPa) = 17.21136 38.63295 27.92216
#
# Velocity S-wave (km/s) = 2.83022 4.24025 3.60484
# Velocity P-wave (km/s) = 5.72804 6.96309 6.37554
#
# Compressibility (1/GPa) = 0.02102992
#
# Stress axis : x y z
#
# Youngs Moduli (GPa) = 52.82861 99.14809 89.74999
#
# Poissons Ratio (x) = 0.41287 0.25033
# Poissons Ratio (y) = 0.21999 0.23428
# Poissons Ratio (z) = 0.14735 0.25881
#
# Static dielectric constant tensor:
#      x y z
#    x 1.752580 0.000000 0.000000 
#    y 0.000000 1.887160 0.000000 
#    z 0.000000 0.000000 1.832060 
# 
# From -- ./inp_files/38800.got.cif
#   From: 2010.05.17/outbox.cif.g08.bks.cpg/sg22_20_cif.got.tgz:38800.got - 2010.06.03 23:40:54.
