data_PCOD9328629
_publ_section_title
;
Structure prediction by ZEFSAII (Michael W. Deem and Ramdas Pophale) SiO2 
 PCOD9328629
Probable space group: F 2 2 2
;
_chemical_formula_sum "Si O2"
_cell_formula_units_Z 92
_cell_length_a 28.035784
_cell_length_b 8.262389
_cell_length_c 20.127639
_cell_angle_alpha 90.000000
_cell_angle_beta 90.000000
_cell_angle_gamma 90.000000
_cell_volume 4662.417690
_symmetry_space_group_name_H-M "F 2 2 2"
_symmetry_group_IT_number 22
_symmetry_cell_setting 'orthorhombic'
loop_
_space_group_symop_operation_xyz
x,y,z
-x,-y,z
x,-y,-z
-x,y,-z
x,1/2+y,1/2+z
-x,1/2-y,1/2+z
x,1/2-y,1/2-z
-x,1/2+y,1/2-z
1/2+x,y,1/2+z
1/2-x,-y,1/2+z
1/2+x,-y,1/2-z
1/2-x,y,1/2-z
1/2+x,1/2+y,z
1/2-x,1/2-y,z
1/2+x,1/2-y,-z
1/2-x,1/2+y,-z
loop_
_atom_site_type_symbol
_atom_site_label
_atom_site_fract_x
_atom_site_fract_y
_atom_site_fract_z
Si Si1 0.000000 0.000000 0.000000
Si Si2 0.839415 0.935899 0.862330
Si Si3 0.750000 0.250000 0.084489
Si Si4 0.080208 0.216041 0.957083
Si Si5 0.056277 0.025055 0.644378
Si Si6 0.607930 0.750000 0.750000
Si Si7 0.811196 0.000000 0.500000
Si Si8 0.874251 0.778067 0.404789
O O1 0.033149 0.891455 0.046854
O O2 0.787243 0.860539 0.874572
O O3 0.875114 0.855419 0.916806
O O4 0.859671 0.873284 0.792351
O O5 0.845066 0.128398 0.873627
O O6 0.780017 0.367499 0.037344
O O7 0.067516 0.389183 0.926334
O O8 0.093919 0.214738 0.034000
O O9 0.075477 0.148773 0.699483
O O10 0.089411 0.865932 0.645244
O O11 0.000000 0.000000 0.650853
O O12 0.841073 0.909139 0.442418
#
# Coordination Sequence:
#
# PCOD9328629 Si02
#       8
#     4  16   8  16  16   8   8  16
#     4  12  20  30  66  96 136 176 212 256 350 416
#     4  11  24  43  66  92 132 175 222 289 335 407
#     4  12  24  41  68  98 132 175 222 278 360 420
#     4  11  21  38  59  99 134 169 206 274 343 408
#     4  11  24  41  64  94 133 183 232 273 330 411
#     4  10  26  49  62  86 134 178 234 291 338 372
#     4  12  22  37  63 102 138 163 207 266 360 434
#     4  12  21  41  67  98 140 169 214 279 357 409
#
# _framework density 19.732251999999999
#
# number of rings (size 3 to 8) (size 9 to 14) (size 15 to 20)
#    0.000    0.696    5.217    3.130    0.000    3.130 
#    3.130    0.000    0.000    2.087    0.000    0.000 
#    0.000    0.000    0.000    0.000    0.000    0.000 
#
# Total GULP energy -128490.882570 kJ/mol
# GULP energy per Si atom -5586.560112 kJ/mol
# Density = 1.968734 g / cm^3
# Si number density = 19.732252 Si / 1000 Ang^3
#
#
#
# Elastic Constant Matrix: (Units=GPa)
#
#
# Indices 1 2 3 4 5 6 
#
# 1 142.1815 73.2808 28.3013 0.0000 0.0000 0.0000
# 2 73.2808 130.3314 35.9899 0.0000 0.0000 0.0000
# 3 28.3013 35.9899 69.3048 0.0000 0.0000 0.0000
# 4 0.0000 0.0000 0.0000 17.4588 0.0000 0.0000
# 5 0.0000 0.0000 0.0000 0.0000 3.3368 0.0000
# 6 0.0000 0.0000 0.0000 0.0000 0.0000 53.5371
#
#
#
# Elastic Compliance Matrix: (Units=1/GPa)
#
#
# Indices 1 2 3 4 5 6 
#
# 1 0.010012 -0.005254 -0.001360 0.000000 0.000000 0.000000
# 2 -0.005254 0.011714 -0.003938 0.000000 0.000000 0.000000
# 3 -0.001360 -0.003938 0.017029 0.000000 0.000000 0.000000
# 4 0.000000 0.000000 0.000000 0.057278 0.000000 0.000000
# 5 0.000000 0.000000 0.000000 0.000000 0.299688 0.000000
# 6 0.000000 0.000000 0.000000 0.000000 0.000000 0.018679
#
#
# Mechanical properties :
#
#
# Convention : Reuss Voigt Hill
#
# Bulk Modulus (GPa) = 56.65075 68.55129 62.60102
# Shear Modulus (GPa) = 11.32793 28.48294 19.90543
#
# Velocity S-wave (km/s) = 2.39860 3.80343 3.17957
# Velocity P-wave (km/s) = 6.03681 7.35556 6.72857
#
# Compressibility (1/GPa) = 0.01765202
#
# Stress axis : x y z
#
# Youngs Moduli (GPa) = 99.88260 85.36753 58.72235
#
# Poissons Ratio (x) = 0.44849 0.07987
# Poissons Ratio (y) = 0.52475 0.23123
# Poissons Ratio (z) = 0.13586 0.33615
#
# Static dielectric constant tensor:
#      x y z
#    x 1.700350 0.000000 0.000000 
#    y 0.000000 1.801600 0.000000 
#    z 0.000000 0.000000 1.666960 
# 
# From -- ./inp_files/12739.got.cif
#   From: 2010.05.17/outbox.cif.g08.bks.cpg/sg22_7_cif.got.tgz:12739.got - 2010.06.03 23:40:54.
