data_PCOD9328041
_publ_section_title
;
Structure prediction by ZEFSAII (Michael W. Deem and Ramdas Pophale) SiO2 
 PCOD9328041
Probable space group: F 2 2 2
;
_chemical_formula_sum "Si O2"
_cell_formula_units_Z 116
_cell_length_a 18.006870
_cell_length_b 12.471313
_cell_length_c 26.260328
_cell_angle_alpha 90.000000
_cell_angle_beta 90.000000
_cell_angle_gamma 90.000000
_cell_volume 5897.263790
_symmetry_space_group_name_H-M "F 2 2 2"
_symmetry_group_IT_number 22
_symmetry_cell_setting 'orthorhombic'
loop_
_space_group_symop_operation_xyz
x,y,z
-x,-y,z
x,-y,-z
-x,y,-z
x,1/2+y,1/2+z
-x,1/2-y,1/2+z
x,1/2-y,1/2-z
-x,1/2+y,1/2-z
1/2+x,y,1/2+z
1/2-x,-y,1/2+z
1/2+x,-y,1/2-z
1/2-x,y,1/2-z
1/2+x,1/2+y,z
1/2-x,1/2-y,z
1/2+x,1/2-y,-z
1/2-x,1/2+y,-z
loop_
_atom_site_type_symbol
_atom_site_label
_atom_site_fract_x
_atom_site_fract_y
_atom_site_fract_z
Si Si1 0.071342 0.422096 0.357729
Si Si2 0.450957 0.714502 0.953652
Si Si3 0.698382 0.657137 0.465526
Si Si4 0.750000 0.250000 0.250000
Si Si5 0.025421 0.247217 0.809723
Si Si6 0.788954 0.076435 0.421593
Si Si7 0.167764 0.617117 0.336526
Si Si8 0.958599 0.391525 0.107157
O O1 0.080494 0.374131 0.414540
O O2 0.137591 0.494823 0.336134
O O3 0.000000 0.500000 0.359586
O O4 0.047454 0.322473 0.322373
O O5 0.383760 0.792641 0.969714
O O6 0.506661 0.792783 0.923618
O O7 0.500000 0.668973 0.000000
O O8 0.750000 0.750000 0.444296
O O9 0.707142 0.551548 0.431382
O O10 0.722819 0.626571 0.522667
O O11 0.793990 0.330847 0.287205
O O12 0.039530 0.250000 0.750000
O O13 0.093504 0.189350 0.839459
O O14 0.022045 0.364259 0.834350
O O15 0.725903 0.117388 0.383086
O O16 0.871009 0.103323 0.401404
O O17 0.000000 0.500000 0.090829
#
# Coordination Sequence:
#
# PCOD9328041 Si02
#       8
#    16  16  16   4  16  16  16  16
#     4   9  22  41  65  91 130 166 206 277 324 389
#     4  11  21  39  65  90 130 174 223 265 327 400
#     4  11  24  38  60  92 127 182 221 262 328 393
#     4  12  24  40  72  92 122 180 216 282 352 394
#     4  10  22  42  66  96 124 167 215 269 336 399
#     4  11  24  39  61  92 133 173 216 276 325 388
#     4  11  23  43  63  96 133 162 223 270 339 400
#     4  11  22  38  64  95 124 169 215 280 327 378
#
# _framework density 19.670138999999999
#
# number of rings (size 3 to 8) (size 9 to 14) (size 15 to 20)
#    0.000    1.379    3.448    1.655    2.897    3.310 
#    0.000    0.000    0.000    0.000    0.000    0.000 
#    0.000    0.000    0.000    0.000    0.000    0.000 
#
# Total GULP energy -161794.103956 kJ/mol
# GULP energy per Si atom -5579.107033 kJ/mol
# Density = 1.962537 g / cm^3
# Si number density = 19.670139 Si / 1000 Ang^3
#
#
#
# Elastic Constant Matrix: (Units=GPa)
#
#
# Indices 1 2 3 4 5 6 
#
# 1 88.3677 26.3321 36.3340 0.0000 0.0000 0.0000
# 2 26.3321 97.3493 36.0415 0.0000 0.0000 0.0000
# 3 36.3340 36.0415 96.9387 0.0000 0.0000 0.0000
# 4 0.0000 0.0000 0.0000 25.8421 0.0000 0.0000
# 5 0.0000 0.0000 0.0000 0.0000 14.5746 0.0000
# 6 0.0000 0.0000 0.0000 0.0000 0.0000 27.9562
#
#
#
# Elastic Compliance Matrix: (Units=1/GPa)
#
#
# Indices 1 2 3 4 5 6 
#
# 1 0.013738 -0.002098 -0.004369 0.000000 0.000000 0.000000
# 2 -0.002098 0.012233 -0.003761 0.000000 0.000000 0.000000
# 3 -0.004369 -0.003761 0.013352 0.000000 0.000000 0.000000
# 4 0.000000 0.000000 0.000000 0.038696 0.000000 0.000000
# 5 0.000000 0.000000 0.000000 0.000000 0.068613 0.000000
# 6 0.000000 0.000000 0.000000 0.000000 0.000000 0.035770
#
#
# Mechanical properties :
#
#
# Convention : Reuss Voigt Hill
#
# Bulk Modulus (GPa) = 53.00961 53.34124 53.17542
# Shear Modulus (GPa) = 23.90651 25.93777 24.92214
#
# Velocity S-wave (km/s) = 3.49000 3.63524 3.56336
# Velocity P-wave (km/s) = 6.57631 6.69304 6.63493
#
# Compressibility (1/GPa) = 0.01886450
#
# Stress axis : x y z
#
# Youngs Moduli (GPa) = 72.79044 81.74933 74.89585
#
# Poissons Ratio (x) = 0.17155 0.32722
# Poissons Ratio (y) = 0.15275 0.28172
# Poissons Ratio (z) = 0.31802 0.30750
#
# Static dielectric constant tensor:
#      x y z
#    x 1.705150 0.000000 0.000000 
#    y 0.000000 1.710170 0.000000 
#    z 0.000000 0.000000 1.709250 
# 
# From -- ./inp_files/21818.got.cif
#   From: 2010.05.17/outbox.cif.g08.bks.cpg/sg22_11_cif.got.tgz:21818.got - 2010.06.03 23:40:54.
