data_PCOD9328994
_publ_section_title
;
Structure prediction by ZEFSAII (Michael W. Deem and Ramdas Pophale) SiO2 
 PCOD9328994
Probable space group: F 2 2 2
;
_chemical_formula_sum "Si O2"
_cell_formula_units_Z 60
_cell_length_a 24.368685
_cell_length_b 20.560520
_cell_length_c 4.924197
_cell_angle_alpha 90.000000
_cell_angle_beta 90.000000
_cell_angle_gamma 90.000000
_cell_volume 2467.184385
_symmetry_space_group_name_H-M "F 2 2 2"
_symmetry_group_IT_number 22
_symmetry_cell_setting 'orthorhombic'
loop_
_space_group_symop_operation_xyz
x,y,z
-x,-y,z
x,-y,-z
-x,y,-z
x,1/2+y,1/2+z
-x,1/2-y,1/2+z
x,1/2-y,1/2-z
-x,1/2+y,1/2-z
1/2+x,y,1/2+z
1/2-x,-y,1/2+z
1/2+x,-y,1/2-z
1/2-x,y,1/2-z
1/2+x,1/2+y,z
1/2-x,1/2-y,z
1/2+x,1/2-y,-z
1/2-x,1/2+y,-z
loop_
_atom_site_type_symbol
_atom_site_label
_atom_site_fract_x
_atom_site_fract_y
_atom_site_fract_z
Si Si1 0.083583 0.000000 0.500000
Si Si2 0.670266 0.363000 0.204897
Si Si3 0.397447 0.173059 0.231774
Si Si4 0.000000 0.393266 0.000000
Si Si5 0.660806 0.500000 0.000000
Si Si6 0.750000 0.750000 0.750000
O O1 0.122396 0.020577 0.252900
O O2 0.044327 0.055732 0.620014
O O3 0.648676 0.351276 0.511322
O O4 0.690860 0.435238 0.118515
O O5 0.710056 0.303667 0.113964
O O6 0.616791 0.353582 0.025517
O O7 0.394089 0.250000 0.250000
O O8 0.459043 0.151342 0.166979
#
# Coordination Sequence:
#
# PCOD9328994 Si02
#       6
#     8  16  16   8   8   4
#     4  11  24  40  73 105 154 203 245 292 388 463
#     4  12  26  47  78 108 146 196 262 327 386 463
#     4  12  25  46  69 111 152 199 254 311 374 463
#     4  11  24  42  70 112 150 209 244 296 378 473
#     4  12  22  49  71 111 152 193 251 331 376 460
#     4  12  28  54  84 106 144 208 264 330 416 456
#
# _framework density 24.319219
#
# number of rings (size 3 to 8) (size 9 to 14) (size 15 to 20)
#    0.000    0.267    8.000    0.000    0.000    9.600 
#    0.000    4.000    0.000    0.000    0.000    0.000 
#    0.000    0.000    0.000    0.000    0.000    0.000 
#
# Total GULP energy -83647.452357 kJ/mol
# GULP energy per Si atom -5576.496824 kJ/mol
# Density = 2.426387 g / cm^3
# Si number density = 24.319219 Si / 1000 Ang^3
#
#
#
# Elastic Constant Matrix: (Units=GPa)
#
#
# Indices 1 2 3 4 5 6 
#
# 1 105.8529 54.0678 29.6769 0.0018 -0.0511 -0.0152
# 2 54.0678 231.2018 29.9570 0.0589 -0.5304 -0.1427
# 3 29.6769 29.9570 83.9027 0.1236 -0.6710 -0.1336
# 4 0.0018 0.0589 0.1236 37.9604 -0.2290 -0.0350
# 5 -0.0511 -0.5304 -0.6710 -0.2290 107.8099 0.3124
# 6 -0.0152 -0.1427 -0.1336 -0.0350 0.3124 -17.4164
#
#
#
# Elastic Compliance Matrix: (Units=1/GPa)
#
#
# Indices 1 2 3 4 5 6 
#
# 1 0.011523 -0.002272 -0.003265 0.000013 -0.000026 0.000033
# 2 -0.002272 0.004983 -0.000976 -0.000004 0.000017 -0.000031
# 3 -0.003265 -0.000976 0.013422 -0.000042 0.000077 -0.000091
# 4 0.000013 -0.000004 -0.000042 0.026344 0.000056 -0.000052
# 5 -0.000026 0.000017 0.000077 0.000056 0.009276 0.000166
# 6 0.000033 -0.000031 -0.000091 -0.000052 0.000166 -0.057413
#
#
# Mechanical properties :
#
#
# Convention : Reuss Voigt Hill
#
# Bulk Modulus (GPa) = 59.15792 72.04007 65.59900
# Shear Modulus (GPa) = 186.61922 46.15448 116.38685
#
# Velocity S-wave (km/s) = 8.76949 4.36117 6.92545
# Velocity P-wave (km/s) = 11.26574 7.41935 9.53844
#
# Compressibility (1/GPa) = 0.01690391
#
# Stress axis : x y z
#
# Youngs Moduli (GPa) = 86.78520 200.68674 74.50364
#
# Poissons Ratio (x) = 0.45590 0.24323
# Poissons Ratio (y) = 0.19715 0.07268
# Poissons Ratio (z) = 0.28333 0.19577
#
# Static dielectric constant tensor:
#      x y z
#    x 1.961880 -0.000200 0.000030 
#    y -0.000200 1.992160 0.000110 
#    z 0.000030 0.000110 1.920240 
# 
# From -- ./inp_files/4436.got.cif
#   From: 2010.05.17/outbox.cif.g08.bks.cpg/sg22_3_cif.got.tgz:4436.got - 2010.06.03 23:40:54.
