data_PCOD9328146
_publ_section_title
;
Structure prediction by ZEFSAII (Michael W. Deem and Ramdas Pophale) SiO2 
 PCOD9328146
Probable space group: F 2 2 2
;
_chemical_formula_sum "Si O2"
_cell_formula_units_Z 64
_cell_length_a 13.802193
_cell_length_b 12.788975
_cell_length_c 13.389312
_cell_angle_alpha 90.000000
_cell_angle_beta 90.000000
_cell_angle_gamma 90.000000
_cell_volume 2363.426474
_symmetry_space_group_name_H-M "F 2 2 2"
_symmetry_group_IT_number 22
_symmetry_cell_setting 'orthorhombic'
loop_
_space_group_symop_operation_xyz
x,y,z
-x,-y,z
x,-y,-z
-x,y,-z
x,1/2+y,1/2+z
-x,1/2-y,1/2+z
x,1/2-y,1/2-z
-x,1/2+y,1/2-z
1/2+x,y,1/2+z
1/2-x,-y,1/2+z
1/2+x,-y,1/2-z
1/2-x,y,1/2-z
1/2+x,1/2+y,z
1/2-x,1/2-y,z
1/2+x,1/2-y,-z
1/2-x,1/2+y,-z
loop_
_atom_site_type_symbol
_atom_site_label
_atom_site_fract_x
_atom_site_fract_y
_atom_site_fract_z
Si Si1 0.301354 0.936884 0.896755
Si Si2 0.917899 0.937944 0.107376
Si Si3 0.750000 0.750000 0.979839
Si Si4 0.447432 0.258758 0.631055
Si Si5 0.000000 0.500000 0.163752
O O1 0.191597 0.943811 0.858900
O O2 0.386434 0.967730 0.824642
O O3 0.304494 0.822889 0.941889
O O4 0.308260 0.000000 0.000000
O O5 0.967958 0.824403 0.101101
O O6 0.000000 0.000000 0.174354
O O7 0.912484 0.000000 0.000000
O O8 0.657893 0.719750 0.910731
O O9 0.441225 0.250000 0.750000
O O10 0.471957 0.381077 0.613226
#
# Coordination Sequence:
#
# PCOD9328146 Si02
#       5
#    16  16   8  16   8
#     4  11  22  41  73 109 136 183 249 323 373 432
#     4  10  22  44  74 108 142 193 258 315 373 453
#     4  12  23  42  72 106 149 190 244 312 384 453
#     4  12  28  47  72 107 160 208 252 310 392 481
#     4  12  27  48  74 112 153 194 258 328 391 454
#
# _framework density 27.079328
#
# number of rings (size 3 to 8) (size 9 to 14) (size 15 to 20)
#    0.000    0.750    2.500    6.750    1.750    2.000 
#    0.000    2.500    0.000    0.000    0.000    0.000 
#    0.000    0.000    0.000    0.000    0.000    0.000 
#
# Total GULP energy -89081.849965 kJ/mol
# GULP energy per Si atom -5567.615623 kJ/mol
# Density = 2.701769 g / cm^3
# Si number density = 27.079328 Si / 1000 Ang^3
#
#
#
# Elastic Constant Matrix: (Units=GPa)
#
#
# Indices 1 2 3 4 5 6 
#
# 1 350.7254 65.6113 100.2599 0.0000 0.0000 0.0000
# 2 65.6113 168.6575 16.5639 0.0000 0.0000 0.0000
# 3 100.2599 16.5639 128.3097 0.0000 0.0000 0.0000
# 4 0.0000 0.0000 0.0000 1.3319 0.0000 0.0000
# 5 0.0000 0.0000 0.0000 0.0000 45.6266 0.0000
# 6 0.0000 0.0000 0.0000 0.0000 0.0000 54.9463
#
#
#
# Elastic Compliance Matrix: (Units=1/GPa)
#
#
# Indices 1 2 3 4 5 6 
#
# 1 0.003910 -0.001237 -0.002896 0.000000 0.000000 0.000000
# 2 -0.001237 0.006397 0.000141 0.000000 0.000000 0.000000
# 3 -0.002896 0.000141 0.010038 0.000000 0.000000 0.000000
# 4 0.000000 0.000000 0.000000 0.750816 0.000000 0.000000
# 5 0.000000 0.000000 0.000000 0.000000 0.021917 0.000000
# 6 0.000000 0.000000 0.000000 0.000000 0.000000 0.018200
#
#
# Mechanical properties :
#
#
# Convention : Reuss Voigt Hill
#
# Bulk Modulus (GPa) = 80.89837 112.50697 96.70267
# Shear Modulus (GPa) = 6.07251 51.39812 28.73531
#
# Velocity S-wave (km/s) = 1.49912 4.36140 3.26107
# Velocity P-wave (km/s) = 5.73898 8.18534 7.06879
#
# Compressibility (1/GPa) = 0.01236119
#
# Stress axis : x y z
#
# Youngs Moduli (GPa) = 255.72474 156.33517 99.61818
#
# Poissons Ratio (x) = 0.19336 0.28849
# Poissons Ratio (y) = 0.31629 -0.01402
# Poissons Ratio (z) = 0.74056 -0.02200
#
# Static dielectric constant tensor:
#      x y z
#    x 2.229280 0.000000 0.000000 
#    y 0.000000 2.158760 0.000000 
#    z 0.000000 0.000000 2.054780 
# 
# From -- ./inp_files/36852.got.cif
#   From: 2010.05.17/outbox.cif.g08.bks.cpg/sg22_19_cif.got.tgz:36852.got - 2010.06.03 23:40:54.
