data_PCOD9328606
_publ_section_title
;
Structure prediction by ZEFSAII (Michael W. Deem and Ramdas Pophale) SiO2 
 PCOD9328606
Probable space group: F 2 2 2
;
_chemical_formula_sum "Si O2"
_cell_formula_units_Z 64
_cell_length_a 6.319892
_cell_length_b 19.955426
_cell_length_c 22.515572
_cell_angle_alpha 90.000000
_cell_angle_beta 90.000000
_cell_angle_gamma 90.000000
_cell_volume 2839.576966
_symmetry_space_group_name_H-M "F 2 2 2"
_symmetry_group_IT_number 22
_symmetry_cell_setting 'orthorhombic'
loop_
_space_group_symop_operation_xyz
x,y,z
-x,-y,z
x,-y,-z
-x,y,-z
x,1/2+y,1/2+z
-x,1/2-y,1/2+z
x,1/2-y,1/2-z
-x,1/2+y,1/2-z
1/2+x,y,1/2+z
1/2-x,-y,1/2+z
1/2+x,-y,1/2-z
1/2-x,y,1/2-z
1/2+x,1/2+y,z
1/2-x,1/2-y,z
1/2+x,1/2-y,-z
1/2-x,1/2+y,-z
loop_
_atom_site_type_symbol
_atom_site_label
_atom_site_fract_x
_atom_site_fract_y
_atom_site_fract_z
Si Si1 0.000000 0.500000 0.641529
Si Si2 0.750000 0.750000 0.250000
Si Si3 0.250000 0.750000 0.022871
Si Si4 0.560628 0.644075 0.706469
Si Si5 0.242287 0.605398 0.418228
Si Si6 0.250000 0.534591 0.750000
Si Si7 0.000000 0.000000 0.500000
O O1 0.029181 0.433427 0.602838
O O2 0.198305 0.502614 0.686447
O O3 0.607836 0.703463 0.291519
O O4 0.208999 0.822756 0.052370
O O5 0.500000 0.762384 0.000000
O O6 0.750000 0.664318 0.750000
O O7 0.629448 0.624476 0.641200
O O8 0.450904 0.581293 0.738215
O O9 0.361928 0.550270 0.458721
#
# Coordination Sequence:
#
# PCOD9328606 Si02
#       7
#     8   4   8  16  16   8   4
#     4  12  24  42  78 118 157 213 254 336 398 514
#     4  10  26  38  80 106 168 200 270 318 426 504
#     4  12  32  59  81 118 163 221 280 356 418 500
#     4  11  23  46  68 117 155 210 253 334 406 498
#     4  12  28  49  84 114 165 208 282 336 423 488
#     4  11  22  41  68 113 164 191 258 318 416 481
#     4  12  28  56  76 124 152 222 278 358 398 504
#
# _framework density 22.538568999999999
#
# number of rings (size 3 to 8) (size 9 to 14) (size 15 to 20)
#    0.000    0.500    3.750    3.375    7.000    3.000 
#    0.000    0.000    0.000    0.000    0.000    0.000 
#    0.000    0.000    0.000    0.000    0.000    0.000 
#
# Total GULP energy -89219.523569 kJ/mol
# GULP energy per Si atom -5576.220223 kJ/mol
# Density = 2.248727 g / cm^3
# Si number density = 22.538569 Si / 1000 Ang^3
#
#
#
# Elastic Constant Matrix: (Units=GPa)
#
#
# Indices 1 2 3 4 5 6 
#
# 1 109.4172 51.8728 46.5187 0.0000 0.0000 0.0000
# 2 51.8728 188.1850 70.8008 0.0000 0.0000 0.0000
# 3 46.5187 70.8008 100.4284 0.0000 0.0000 0.0000
# 4 0.0000 0.0000 0.0000 17.6582 0.0000 0.0000
# 5 0.0000 0.0000 0.0000 0.0000 25.7116 0.0000
# 6 0.0000 0.0000 0.0000 0.0000 0.0000 36.5192
#
#
#
# Elastic Compliance Matrix: (Units=1/GPa)
#
#
# Indices 1 2 3 4 5 6 
#
# 1 0.011732 -0.001619 -0.004293 0.000000 0.000000 0.000000
# 2 -0.001619 0.007455 -0.004506 0.000000 0.000000 0.000000
# 3 -0.004293 -0.004506 0.015123 0.000000 0.000000 0.000000
# 4 0.000000 0.000000 0.000000 0.056631 0.000000 0.000000
# 5 0.000000 0.000000 0.000000 0.000000 0.038893 0.000000
# 6 0.000000 0.000000 0.000000 0.000000 0.000000 0.027383
#
#
# Mechanical properties :
#
#
# Convention : Reuss Voigt Hill
#
# Bulk Modulus (GPa) = 74.21641 81.82392 78.02016
# Shear Modulus (GPa) = 27.39063 31.23370 29.31216
#
# Velocity S-wave (km/s) = 3.48987 3.72666 3.61020
# Velocity P-wave (km/s) = 7.01705 7.40946 7.21592
#
# Compressibility (1/GPa) = 0.01347411
#
# Stress axis : x y z
#
# Youngs Moduli (GPa) = 85.23743 134.12919 66.12548
#
# Poissons Ratio (x) = 0.21711 0.28388
# Poissons Ratio (y) = 0.13797 0.29798
# Poissons Ratio (z) = 0.36593 0.60442
#
# Static dielectric constant tensor:
#      x y z
#    x 2.253670 0.000000 0.000000 
#    y 0.000000 1.842940 0.000000 
#    z 0.000000 0.000000 1.803470 
# 
# From -- ./inp_files/51103.got.cif
#   From: 2010.05.17/outbox.cif.g08.bks.cpg/sg22_26_cif.got.tgz:51103.got - 2010.06.03 23:40:54.
