data_PCOD9328287
_publ_section_title
;
Structure prediction by ZEFSAII (Michael W. Deem and Ramdas Pophale) SiO2 
 PCOD9328287
Probable space group: F 2 2 2
;
_chemical_formula_sum "Si O2"
_cell_formula_units_Z 68
_cell_length_a 13.598101
_cell_length_b 10.178001
_cell_length_c 22.617023
_cell_angle_alpha 90.000000
_cell_angle_beta 90.000000
_cell_angle_gamma 90.000000
_cell_volume 3130.229583
_symmetry_space_group_name_H-M "F 2 2 2"
_symmetry_group_IT_number 22
_symmetry_cell_setting 'orthorhombic'
loop_
_space_group_symop_operation_xyz
x,y,z
-x,-y,z
x,-y,-z
-x,y,-z
x,1/2+y,1/2+z
-x,1/2-y,1/2+z
x,1/2-y,1/2-z
-x,1/2+y,1/2-z
1/2+x,y,1/2+z
1/2-x,-y,1/2+z
1/2+x,-y,1/2-z
1/2-x,y,1/2-z
1/2+x,1/2+y,z
1/2-x,1/2-y,z
1/2+x,1/2-y,-z
1/2-x,1/2+y,-z
loop_
_atom_site_type_symbol
_atom_site_label
_atom_site_fract_x
_atom_site_fract_y
_atom_site_fract_z
Si Si1 0.132225 0.894706 0.051139
Si Si2 0.500000 0.000000 0.349330
Si Si3 0.500000 0.500000 0.646146
Si Si4 0.250000 0.250000 0.750000
Si Si5 0.358266 0.604842 0.449202
Si Si6 0.355955 0.522703 0.743012
O O1 0.245397 0.913009 0.072518
O O2 0.129911 0.749579 0.024688
O O3 0.056974 0.905106 0.105169
O O4 0.113328 0.000000 0.000000
O O5 0.584810 0.957960 0.303652
O O6 0.433912 0.412501 0.603516
O O7 0.424030 0.571622 0.689977
O O8 0.328936 0.365859 0.729778
O O9 0.376225 0.500000 0.500000
O O10 0.250000 0.586050 0.750000
#
# Coordination Sequence:
#
# PCOD9328287 Si02
#       6
#    16   8   8   4  16  16
#     4  10  23  42  64  92 128 169 213 262 319 380
#     4  11  21  34  62  96 121 161 210 266 306 375
#     4  11  21  34  62  96 121 161 210 266 306 375
#     4   8  20  40  64  80 124 180 204 260 310 394
#     4  10  23  42  64  92 128 169 213 262 319 380
#     4   9  21  38  58  92 124 162 211 258 315 379
#
# _framework density 21.723647
#
# number of rings (size 3 to 8) (size 9 to 14) (size 15 to 20)
#    0.706    1.412    0.000    2.118    3.294    3.765 
#    0.000    0.000    0.000    5.647    0.000    0.000 
#    0.000    0.000    0.000    0.000    0.000    0.000 
#
# Total GULP energy -94639.228745 kJ/mol
# GULP energy per Si atom -5567.013456 kJ/mol
# Density = 2.167420 g / cm^3
# Si number density = 21.723647 Si / 1000 Ang^3
#
#
#
# Elastic Constant Matrix: (Units=GPa)
#
#
# Indices 1 2 3 4 5 6 
#
# 1 169.4984 42.5480 71.3586 0.0000 0.0000 0.0000
# 2 42.5480 98.3123 58.3988 0.0000 0.0000 0.0000
# 3 71.3586 58.3988 112.8216 0.0000 0.0000 0.0000
# 4 0.0000 0.0000 0.0000 0.7116 0.0000 0.0000
# 5 0.0000 0.0000 0.0000 0.0000 -0.5733 0.0000
# 6 0.0000 0.0000 0.0000 0.0000 0.0000 10.3833
#
#
#
# Elastic Compliance Matrix: (Units=1/GPa)
#
#
# Indices 1 2 3 4 5 6 
#
# 1 0.008071 -0.000665 -0.004760 0.000000 0.000000 0.000000
# 2 -0.000665 0.014743 -0.007210 0.000000 0.000000 0.000000
# 3 -0.004760 -0.007210 0.015607 0.000000 0.000000 0.000000
# 4 0.000000 0.000000 0.000000 1.405214 0.000000 0.000000
# 5 0.000000 0.000000 0.000000 0.000000 -1.744236 0.000000
# 6 0.000000 0.000000 0.000000 0.000000 0.000000 0.096309
#
#
# Mechanical properties :
#
#
# Convention : Reuss Voigt Hill
#
# Bulk Modulus (GPa) = 76.05585 80.58257 78.31921
# Shear Modulus (GPa) = -28.63059 15.99278 -6.31890
#
# Velocity S-wave (km/s) = -3.63429 2.71623 -1.70736
# Velocity P-wave (km/s) = 4.18042 6.85654 5.67838
#
# Compressibility (1/GPa) = 0.01314823
#
# Stress axis : x y z
#
# Youngs Moduli (GPa) = 123.90228 67.83068 64.07500
#
# Poissons Ratio (x) = 0.04512 0.30503
# Poissons Ratio (y) = 0.08242 0.46200
# Poissons Ratio (z) = 0.58983 0.48908
#
# Static dielectric constant tensor:
#      x y z
#    x 1.851060 0.000000 0.000000 
#    y 0.000000 1.860900 0.000000 
#    z 0.000000 0.000000 1.759370 
# 
# From -- ./inp_files/43318.got.cif
#   From: 2010.05.17/outbox.cif.g08.bks.cpg/sg22_22_cif.got.tgz:43318.got - 2010.06.03 23:40:54.
