data_PCOD9328539
_publ_section_title
;
Structure prediction by ZEFSAII (Michael W. Deem and Ramdas Pophale) SiO2 
 PCOD9328539
Probable space group: F 2 2 2
;
_chemical_formula_sum "Si O2"
_cell_formula_units_Z 92
_cell_length_a 14.589740
_cell_length_b 11.346310
_cell_length_c 23.157040
_cell_angle_alpha 90.000000
_cell_angle_beta 90.000000
_cell_angle_gamma 90.000000
_cell_volume 3833.409752
_symmetry_space_group_name_H-M "F 2 2 2"
_symmetry_group_IT_number 22
_symmetry_cell_setting 'orthorhombic'
loop_
_space_group_symop_operation_xyz
x,y,z
-x,-y,z
x,-y,-z
-x,y,-z
x,1/2+y,1/2+z
-x,1/2-y,1/2+z
x,1/2-y,1/2-z
-x,1/2+y,1/2-z
1/2+x,y,1/2+z
1/2-x,-y,1/2+z
1/2+x,-y,1/2-z
1/2-x,y,1/2-z
1/2+x,1/2+y,z
1/2-x,1/2-y,z
1/2+x,1/2-y,-z
1/2-x,1/2+y,-z
loop_
_atom_site_type_symbol
_atom_site_label
_atom_site_fract_x
_atom_site_fract_y
_atom_site_fract_z
Si Si1 0.904833 0.570010 0.112299
Si Si2 0.234233 0.988403 0.810017
Si Si3 0.184698 0.350664 0.584394
Si Si4 0.480549 0.175915 0.407587
Si Si5 0.000000 0.000000 0.000000
Si Si6 0.951728 0.621038 0.278664
Si Si7 0.292899 0.000000 0.000000
O O1 0.831361 0.555002 0.163985
O O2 0.856494 0.526236 0.054351
O O3 0.000000 0.500000 0.121812
O O4 0.924779 0.705946 0.099709
O O5 0.250000 0.059858 0.750000
O O6 0.342208 0.895380 0.711689
O O7 0.188051 0.052829 0.864715
O O8 0.250000 0.250000 0.608050
O O9 0.084493 0.300569 0.572709
O O10 0.228948 0.397770 0.525491
O O11 0.489836 0.128067 0.343380
O O12 0.445703 0.081732 0.454475
O O13 0.970282 0.750000 0.250000
O O14 0.000000 0.500000 0.253978
#
# Coordination Sequence:
#
# PCOD9328539 Si02
#       7
#    16  16  16  16   4  16   8
#     4  11  26  47  81 119 162 216 274 343 412 504
#     4  11  25  49  75 116 157 206 273 336 420 485
#     4  11  24  44  72 110 156 207 264 338 405 491
#     4  12  25  47  72 112 157 204 273 323 418 492
#     4  12  26  40  74 102 156 204 254 338 404 494
#     4  12  27  52  83 117 163 216 283 350 420 507
#     4  10  24  48  74 116 162 206 275 327 417 481
#
# _framework density 23.999521000000001
#
# number of rings (size 3 to 8) (size 9 to 14) (size 15 to 20)
#    0.000    0.696    2.609    3.913    4.870    8.348 
#    0.000    0.000    0.000    0.000    0.000    0.000 
#    0.000    0.000    0.000    0.000    0.000    0.000 
#
# Total GULP energy -128530.097355 kJ/mol
# GULP energy per Si atom -5588.265102 kJ/mol
# Density = 2.394490 g / cm^3
# Si number density = 23.999521 Si / 1000 Ang^3
#
#
#
# Elastic Constant Matrix: (Units=GPa)
#
#
# Indices 1 2 3 4 5 6 
#
# 1 165.0697 47.3099 56.1602 0.0000 0.0000 0.0000
# 2 47.3099 129.4181 53.9408 0.0000 0.0000 0.0000
# 3 56.1602 53.9408 175.9081 0.0000 0.0000 0.0000
# 4 0.0000 0.0000 0.0000 6.0535 0.0000 0.0000
# 5 0.0000 0.0000 0.0000 0.0000 35.2215 0.0000
# 6 0.0000 0.0000 0.0000 0.0000 0.0000 28.3835
#
#
#
# Elastic Compliance Matrix: (Units=1/GPa)
#
#
# Indices 1 2 3 4 5 6 
#
# 1 0.007188 -0.001916 -0.001707 0.000000 0.000000 0.000000
# 2 -0.001916 0.009370 -0.002261 0.000000 0.000000 0.000000
# 3 -0.001707 -0.002261 0.006923 0.000000 0.000000 0.000000
# 4 0.000000 0.000000 0.000000 0.165193 0.000000 0.000000
# 5 0.000000 0.000000 0.000000 0.000000 0.028392 0.000000
# 6 0.000000 0.000000 0.000000 0.000000 0.000000 0.035232
#
#
# Mechanical properties :
#
#
# Convention : Reuss Voigt Hill
#
# Bulk Modulus (GPa) = 85.38556 87.24642 86.31599
# Shear Modulus (GPa) = 18.65869 34.79736 26.72803
#
# Velocity S-wave (km/s) = 2.79132 3.81191 3.34082
# Velocity P-wave (km/s) = 6.78557 7.47038 7.13619
#
# Compressibility (1/GPa) = 0.01171158
#
# Stress axis : x y z
#
# Youngs Moduli (GPa) = 139.11958 106.72469 144.43925
#
# Poissons Ratio (x) = 0.20449 0.24660
# Poissons Ratio (y) = 0.26656 0.32665
# Poissons Ratio (z) = 0.23752 0.24136
#
# Static dielectric constant tensor:
#      x y z
#    x 1.997080 0.000000 0.000000 
#    y 0.000000 1.978910 0.000000 
#    z 0.000000 0.000000 1.926280 
# 
# From -- ./inp_files/44158.got.cif
#   From: 2010.05.17/outbox.cif.g08.bks.cpg/sg22_23_cif.got.tgz:44158.got - 2010.06.03 23:40:54.
