data_PCOD9328467
_publ_section_title
;
Structure prediction by ZEFSAII (Michael W. Deem and Ramdas Pophale) SiO2 
 PCOD9328467
Probable space group: F 2 2 2
;
_chemical_formula_sum "Si O2"
_cell_formula_units_Z 104
_cell_length_a 19.495552
_cell_length_b 8.637126
_cell_length_c 30.523503
_cell_angle_alpha 90.000000
_cell_angle_beta 90.000000
_cell_angle_gamma 90.000000
_cell_volume 5139.716507
_symmetry_space_group_name_H-M "F 2 2 2"
_symmetry_group_IT_number 22
_symmetry_cell_setting 'orthorhombic'
loop_
_space_group_symop_operation_xyz
x,y,z
-x,-y,z
x,-y,-z
-x,y,-z
x,1/2+y,1/2+z
-x,1/2-y,1/2+z
x,1/2-y,1/2-z
-x,1/2+y,1/2-z
1/2+x,y,1/2+z
1/2-x,-y,1/2+z
1/2+x,-y,1/2-z
1/2-x,y,1/2-z
1/2+x,1/2+y,z
1/2-x,1/2-y,z
1/2+x,1/2-y,-z
1/2-x,1/2+y,-z
loop_
_atom_site_type_symbol
_atom_site_label
_atom_site_fract_x
_atom_site_fract_y
_atom_site_fract_z
Si Si1 0.652049 0.426097 0.544673
Si Si2 0.524045 0.176883 0.615457
Si Si3 0.500000 0.500000 0.575832
Si Si4 0.058313 0.632098 0.710528
Si Si5 0.364423 0.081048 0.453767
Si Si6 0.217994 0.924269 0.794239
Si Si7 0.244065 0.066990 0.889391
O O1 0.678316 0.500000 0.500000
O O2 0.570792 0.464693 0.549965
O O3 0.669750 0.246582 0.539174
O O4 0.690046 0.491397 0.587252
O O5 0.486135 0.337330 0.602046
O O6 0.555955 0.214651 0.662827
O O7 0.569877 0.136407 0.573418
O O8 0.500000 0.000000 0.624382
O O9 0.046843 0.750000 0.750000
O O10 0.136368 0.573453 0.712919
O O11 0.000000 0.500000 0.714031
O O12 0.378452 0.000000 0.500000
O O13 0.319357 0.978862 0.420895
O O14 0.250000 0.995339 0.750000
O O15 0.250000 0.750000 0.797164
O O16 0.234047 0.003885 0.840446
O O17 0.250000 0.250000 0.888341
#
# Coordination Sequence:
#
# PCOD9328467 Si02
#       7
#    16  16   8  16  16  16  16
#     4  11  24  43  66  97 139 179 239 294 350 440
#     4  10  24  43  67  97 145 179 237 291 359 433
#     4  10  25  40  68  98 136 192 234 294 367 430
#     4  11  24  46  71 107 140 185 235 307 367 453
#     4  11  23  42  68  98 132 185 234 283 362 420
#     4  11  23  46  75  98 138 186 243 287 373 444
#     4  12  26  42  68  99 139 178 233 299 356 424
#
# _framework density 20.234580000000001
#
# number of rings (size 3 to 8) (size 9 to 14) (size 15 to 20)
#    0.000    1.077    3.077    3.000    7.538    0.615 
#    2.769    0.000    0.000    0.000    0.000    0.000 
#    0.000    0.000    0.000    0.000    0.000    0.000 
#
# Total GULP energy -144857.942758 kJ/mol
# GULP energy per Si atom -5571.459337 kJ/mol
# Density = 2.018853 g / cm^3
# Si number density = 20.234580 Si / 1000 Ang^3
#
#
#
# Elastic Constant Matrix: (Units=GPa)
#
#
# Indices 1 2 3 4 5 6 
#
# 1 89.7197 33.8677 46.0464 0.0000 0.0000 0.0000
# 2 33.8677 149.2726 78.9157 0.0000 0.0000 0.0000
# 3 46.0464 78.9157 200.2336 0.0000 0.0000 0.0000
# 4 0.0000 0.0000 0.0000 32.6836 0.0000 0.0000
# 5 0.0000 0.0000 0.0000 0.0000 4.2740 0.0000
# 6 0.0000 0.0000 0.0000 0.0000 0.0000 15.4315
#
#
#
# Elastic Compliance Matrix: (Units=1/GPa)
#
#
# Indices 1 2 3 4 5 6 
#
# 1 0.012980 -0.001727 -0.002304 0.000000 0.000000 0.000000
# 2 -0.001727 0.008692 -0.003029 0.000000 0.000000 0.000000
# 3 -0.002304 -0.003029 0.006718 0.000000 0.000000 0.000000
# 4 0.000000 0.000000 0.000000 0.030596 0.000000 0.000000
# 5 0.000000 0.000000 0.000000 0.000000 0.233975 0.000000
# 6 0.000000 0.000000 0.000000 0.000000 0.000000 0.064802
#
#
# Mechanical properties :
#
#
# Convention : Reuss Voigt Hill
#
# Bulk Modulus (GPa) = 70.07460 84.09839 77.08649
# Shear Modulus (GPa) = 13.27525 29.17090 21.22308
#
# Velocity S-wave (km/s) = 2.56416 3.80101 3.24211
# Velocity P-wave (km/s) = 6.59339 7.80484 7.22455
#
# Compressibility (1/GPa) = 0.01427051
#
# Stress axis : x y z
#
# Youngs Moduli (GPa) = 77.03955 115.04763 148.85966
#
# Poissons Ratio (x) = 0.19866 0.34304
# Poissons Ratio (y) = 0.13303 0.45084
# Poissons Ratio (z) = 0.17753 0.34843
#
# Static dielectric constant tensor:
#      x y z
#    x 1.873700 0.000000 0.000000 
#    y 0.000000 1.909320 0.000000 
#    z 0.000000 0.000000 2.205360 
# 
# From -- ./inp_files/53916.got.cif
#   From: 2010.05.17/outbox.cif.g08.bks.cpg/sg22_27_cif.got.tgz:53916.got - 2010.06.03 23:40:54.
