data_PCOD9328112
_publ_section_title
;
Structure prediction by ZEFSAII (Michael W. Deem and Ramdas Pophale) SiO2 
 PCOD9328112
Probable space group: F 2 2 2
;
_chemical_formula_sum "Si O2"
_cell_formula_units_Z 116
_cell_length_a 26.066182
_cell_length_b 9.966786
_cell_length_c 19.407199
_cell_angle_alpha 90.000000
_cell_angle_beta 90.000000
_cell_angle_gamma 90.000000
_cell_volume 5041.913794
_symmetry_space_group_name_H-M "F 2 2 2"
_symmetry_group_IT_number 22
_symmetry_cell_setting 'orthorhombic'
loop_
_space_group_symop_operation_xyz
x,y,z
-x,-y,z
x,-y,-z
-x,y,-z
x,1/2+y,1/2+z
-x,1/2-y,1/2+z
x,1/2-y,1/2-z
-x,1/2+y,1/2-z
1/2+x,y,1/2+z
1/2-x,-y,1/2+z
1/2+x,-y,1/2-z
1/2-x,y,1/2-z
1/2+x,1/2+y,z
1/2-x,1/2-y,z
1/2+x,1/2-y,-z
1/2-x,1/2+y,-z
loop_
_atom_site_type_symbol
_atom_site_label
_atom_site_fract_x
_atom_site_fract_y
_atom_site_fract_z
Si Si1 0.585201 0.176900 0.574168
Si Si2 0.229721 0.092206 0.433834
Si Si3 0.750000 0.750000 0.250000
Si Si4 0.615563 0.031948 0.890526
Si Si5 0.680190 0.066399 0.650775
Si Si6 0.101834 0.406514 0.742166
Si Si7 0.951809 0.805964 0.549018
Si Si8 0.497683 0.823517 0.681158
O O1 0.584229 0.334749 0.592859
O O2 0.641239 0.127851 0.594368
O O3 0.570261 0.177128 0.493622
O O4 0.544228 0.117913 0.627861
O O5 0.250000 0.250000 0.441320
O O6 0.174328 0.077886 0.398714
O O7 0.271997 0.011059 0.390536
O O8 0.223791 0.000000 0.500000
O O9 0.710533 0.834021 0.297401
O O10 0.606140 0.984998 0.813238
O O11 0.593763 0.912381 0.938716
O O12 0.644064 0.967978 0.692301
O O13 0.113557 0.250000 0.750000
O O14 0.043455 0.409052 0.715199
O O15 0.972002 0.771279 0.625549
O O16 0.000000 0.847482 0.500000
O O17 0.474611 0.750000 0.750000
#
# Coordination Sequence:
#
# PCOD9328112 Si02
#       8
#    16  16   4  16  16  16  16  16
#     4  11  24  39  72 110 138 195 243 304 379 432
#     4  12  27  49  77 115 148 198 256 319 386 466
#     4  12  24  48  74 104 140 176 250 314 360 446
#     4  12  23  45  78 106 150 191 254 318 368 451
#     4  12  25  46  73 102 146 188 248 308 374 446
#     4  11  25  47  70 106 149 198 243 311 378 456
#     4  10  22  43  71 109 151 194 244 313 369 454
#     4  10  22  44  65 104 151 185 251 298 371 459
#
# _framework density 23.007137
#
# number of rings (size 3 to 8) (size 9 to 14) (size 15 to 20)
#    0.000    0.828    4.828    2.897    2.897    6.621 
#    2.483    2.414    0.000    2.483    0.000    0.000 
#    0.000    0.000    0.000    0.000    0.000    0.000 
#
# Total GULP energy -161862.198428 kJ/mol
# GULP energy per Si atom -5581.455118 kJ/mol
# Density = 2.295477 g / cm^3
# Si number density = 23.007137 Si / 1000 Ang^3
#
#
#
# Elastic Constant Matrix: (Units=GPa)
#
#
# Indices 1 2 3 4 5 6 
#
# 1 182.9365 27.2288 37.0657 0.0000 0.0000 0.0000
# 2 27.2288 36.2613 8.7718 0.0000 0.0000 0.0000
# 3 37.0657 8.7718 108.6656 0.0000 0.0000 0.0000
# 4 0.0000 0.0000 0.0000 19.6879 0.0000 0.0000
# 5 0.0000 0.0000 0.0000 0.0000 113.9081 0.0000
# 6 0.0000 0.0000 0.0000 0.0000 0.0000 23.7465
#
#
#
# Elastic Compliance Matrix: (Units=1/GPa)
#
#
# Indices 1 2 3 4 5 6 
#
# 1 0.006503 -0.004433 -0.001860 0.000000 0.000000 0.000000
# 2 -0.004433 0.031149 -0.001002 0.000000 0.000000 0.000000
# 3 -0.001860 -0.001002 0.009918 0.000000 0.000000 0.000000
# 4 0.000000 0.000000 0.000000 0.050793 0.000000 0.000000
# 5 0.000000 0.000000 0.000000 0.000000 0.008779 0.000000
# 6 0.000000 0.000000 0.000000 0.000000 0.000000 0.042111
#
#
# Mechanical properties :
#
#
# Convention : Reuss Voigt Hill
#
# Bulk Modulus (GPa) = 30.32277 52.66620 41.49449
# Shear Modulus (GPa) = 28.59794 48.45497 38.52646
#
# Velocity S-wave (km/s) = 3.52945 4.59419 4.09656
# Velocity P-wave (km/s) = 5.46056 7.14724 6.36006
#
# Compressibility (1/GPa) = 0.03297851
#
# Stress axis : x y z
#
# Youngs Moduli (GPa) = 153.77121 32.10372 100.82659
#
# Poissons Ratio (x) = 0.14232 0.18757
# Poissons Ratio (y) = 0.68170 0.10105
# Poissons Ratio (z) = 0.28607 0.03218
#
# Static dielectric constant tensor:
#      x y z
#    x 1.849070 0.000000 0.000000 
#    y 0.000000 -0.977470 0.000000 
#    z 0.000000 0.000000 2.027880 
# 
# From -- ./inp_files/40077.got.cif
#   From: 2010.05.17/outbox.cif.g08.bks.cpg/sg22_21_cif.got.tgz:40077.got - 2010.06.03 23:40:54.
