data_PCOD9328937
_publ_section_title
;
Structure prediction by ZEFSAII (Michael W. Deem and Ramdas Pophale) SiO2 
 PCOD9328937
Probable space group: F 2 2 2
;
_chemical_formula_sum "Si O2"
_cell_formula_units_Z 64
_cell_length_a 17.349229
_cell_length_b 10.510096
_cell_length_c 14.509945
_cell_angle_alpha 90.000000
_cell_angle_beta 90.000000
_cell_angle_gamma 90.000000
_cell_volume 2645.773295
_symmetry_space_group_name_H-M "F 2 2 2"
_symmetry_group_IT_number 22
_symmetry_cell_setting 'orthorhombic'
loop_
_space_group_symop_operation_xyz
x,y,z
-x,-y,z
x,-y,-z
-x,y,-z
x,1/2+y,1/2+z
-x,1/2-y,1/2+z
x,1/2-y,1/2-z
-x,1/2+y,1/2-z
1/2+x,y,1/2+z
1/2-x,-y,1/2+z
1/2+x,-y,1/2-z
1/2-x,y,1/2-z
1/2+x,1/2+y,z
1/2-x,1/2-y,z
1/2+x,1/2-y,-z
1/2-x,1/2+y,-z
loop_
_atom_site_type_symbol
_atom_site_label
_atom_site_fract_x
_atom_site_fract_y
_atom_site_fract_z
Si Si1 0.918470 0.357193 0.540653
Si Si2 0.164547 0.210176 0.873979
Si Si3 0.660406 0.566478 0.222096
Si Si4 0.910632 0.471494 0.102294
O O1 0.923443 0.500000 0.500000
O O2 0.846888 0.304938 0.483132
O O3 0.892147 0.357755 0.646865
O O4 0.000000 0.299274 0.500000
O O5 0.250000 0.250000 0.851826
O O6 0.154343 0.075970 0.822958
O O7 0.108455 0.330340 0.858983
O O8 0.750000 0.595158 0.250000
O O9 0.621790 0.565001 0.321217
O O10 0.000000 0.500000 0.097154
O O11 0.877527 0.500000 0.000000
#
# Coordination Sequence:
#
# PCOD9328937 Si02
#       4
#    16  16  16  16
#     4   9  22  41  69 100 136 183 236 291 358 433
#     4  11  23  42  71 101 136 187 239 288 358 445
#     4  11  23  43  73 106 136 185 240 296 355 438
#     4  11  27  44  64 100 145 183 228 299 363 420
#
# _framework density 24.189526999999998
#
# number of rings (size 3 to 8) (size 9 to 14) (size 15 to 20)
#    0.000    1.500    2.500    0.750   14.000    0.000 
#    0.000    1.250    0.000    0.000    0.000    0.000 
#    0.000    0.000    0.000    0.000    0.000    0.000 
#
# Total GULP energy -89133.296420 kJ/mol
# GULP energy per Si atom -5570.831026 kJ/mol
# Density = 2.413447 g / cm^3
# Si number density = 24.189527 Si / 1000 Ang^3
#
#
#
# Elastic Constant Matrix: (Units=GPa)
#
#
# Indices 1 2 3 4 5 6 
#
# 1 136.5910 31.2009 76.3945 0.0000 0.0000 0.0000
# 2 31.2009 108.9491 -3.8668 0.0000 0.0000 0.0000
# 3 76.3945 -3.8668 227.9129 0.0000 0.0000 0.0000
# 4 0.0000 0.0000 0.0000 -33.6336 0.0000 0.0000
# 5 0.0000 0.0000 0.0000 0.0000 5.1613 0.0000
# 6 0.0000 0.0000 0.0000 0.0000 0.0000 -5.6061
#
#
#
# Elastic Compliance Matrix: (Units=1/GPa)
#
#
# Indices 1 2 3 4 5 6 
#
# 1 0.009873 -0.002947 -0.003359 0.000000 0.000000 0.000000
# 2 -0.002947 0.010064 0.001158 0.000000 0.000000 0.000000
# 3 -0.003359 0.001158 0.005533 0.000000 0.000000 0.000000
# 4 0.000000 0.000000 0.000000 -0.029732 0.000000 0.000000
# 5 0.000000 0.000000 0.000000 0.000000 0.193751 0.000000
# 6 0.000000 0.000000 0.000000 0.000000 0.000000 -0.178379
#
#
# Mechanical properties :
#
#
# Convention : Reuss Voigt Hill
#
# Bulk Modulus (GPa) = 65.89882 75.65668 70.77775
# Shear Modulus (GPa) = 188.94165 17.83262 103.38714
#
# Velocity S-wave (km/s) = 8.84751 2.71810 6.54471
# Velocity P-wave (km/s) = 11.47489 6.41835 9.29700
#
# Compressibility (1/GPa) = 0.01517478
#
# Stress axis : x y z
#
# Youngs Moduli (GPa) = 101.28526 99.36817 180.72295
#
# Poissons Ratio (x) = 0.29281 0.60712
# Poissons Ratio (y) = 0.29846 -0.20936
# Poissons Ratio (z) = 0.34026 -0.11511
#
# Static dielectric constant tensor:
#      x y z
#    x 1.959020 0.000000 0.000000 
#    y 0.000000 2.085720 0.000000 
#    z 0.000000 0.000000 1.940780 
# 
# From -- ./inp_files/19388.got.cif
#   From: 2010.05.17/outbox.cif.g08.bks.cpg/sg22_10_cif.got.tgz:19388.got - 2010.06.03 23:40:54.
