data_PCOD9328850
_publ_section_title
;
Structure prediction by ZEFSAII (Michael W. Deem and Ramdas Pophale) SiO2 
 PCOD9328850
Probable space group: F 2 2 2
;
_chemical_formula_sum "Si O2"
_cell_formula_units_Z 52
_cell_length_a 11.418686
_cell_length_b 8.280667
_cell_length_c 24.154390
_cell_angle_alpha 90.000000
_cell_angle_beta 90.000000
_cell_angle_gamma 90.000000
_cell_volume 2283.902316
_symmetry_space_group_name_H-M "F 2 2 2"
_symmetry_group_IT_number 22
_symmetry_cell_setting 'orthorhombic'
loop_
_space_group_symop_operation_xyz
x,y,z
-x,-y,z
x,-y,-z
-x,y,-z
x,1/2+y,1/2+z
-x,1/2-y,1/2+z
x,1/2-y,1/2-z
-x,1/2+y,1/2-z
1/2+x,y,1/2+z
1/2-x,-y,1/2+z
1/2+x,-y,1/2-z
1/2-x,y,1/2-z
1/2+x,1/2+y,z
1/2-x,1/2-y,z
1/2+x,1/2-y,-z
1/2-x,1/2+y,-z
loop_
_atom_site_type_symbol
_atom_site_label
_atom_site_fract_x
_atom_site_fract_y
_atom_site_fract_z
Si Si1 0.485861 0.162875 0.063208
Si Si2 0.243212 0.417758 0.060268
Si Si3 0.250000 0.750000 0.250000
Si Si4 0.391211 0.108091 0.650556
O O1 0.597926 0.003865 0.063733
O O2 0.548393 0.253703 0.113385
O O3 0.343903 0.252196 0.065718
O O4 0.500000 0.218649 0.000000
O O5 0.200582 0.980603 0.110423
O O6 0.273830 0.500000 0.000000
O O7 0.329684 0.846460 0.292753
O O8 0.500000 0.000000 0.665894
#
# Coordination Sequence:
#
# PCOD9328850 Si02
#       4
#    16  16   4  16
#     4  11  22  41  71 112 152 188 235 305 382 449
#     4  12  24  42  74 115 152 189 240 308 389 454
#     4  12  32  52  74 102 148 212 258 302 360 450
#     4  12  28  50  73 106 149 201 252 313 363 446
#
# _framework density 22.768051
#
# number of rings (size 3 to 8) (size 9 to 14) (size 15 to 20)
#    0.000    0.308    6.154    3.692    2.154    3.692 
#    0.000    0.000    0.000    0.000    0.000    0.000 
#    0.000    0.000    0.000    0.000    0.000    0.000 
#
# Total GULP energy -72421.363211 kJ/mol
# GULP energy per Si atom -5570.874093 kJ/mol
# Density = 2.271623 g / cm^3
# Si number density = 22.768051 Si / 1000 Ang^3
#
#
#
# Elastic Constant Matrix: (Units=GPa)
#
#
# Indices 1 2 3 4 5 6 
#
# 1 229.1619 64.9526 119.1286 0.0000 0.0000 0.0000
# 2 64.9526 134.4006 104.3805 0.0000 0.0000 0.0000
# 3 119.1286 104.3805 255.8012 0.0000 0.0000 0.0000
# 4 0.0000 0.0000 0.0000 29.0078 0.0000 0.0000
# 5 0.0000 0.0000 0.0000 0.0000 49.0491 0.0000
# 6 0.0000 0.0000 0.0000 0.0000 0.0000 41.8842
#
#
#
# Elastic Compliance Matrix: (Units=1/GPa)
#
#
# Indices 1 2 3 4 5 6 
#
# 1 0.005856 -0.001042 -0.002302 0.000000 0.000000 0.000000
# 2 -0.001042 0.011078 -0.004035 0.000000 0.000000 0.000000
# 3 -0.002302 -0.004035 0.006628 0.000000 0.000000 0.000000
# 4 0.000000 0.000000 0.000000 0.034474 0.000000 0.000000
# 5 0.000000 0.000000 0.000000 0.000000 0.020388 0.000000
# 6 0.000000 0.000000 0.000000 0.000000 0.000000 0.023875
#
#
# Mechanical properties :
#
#
# Convention : Reuss Voigt Hill
#
# Bulk Modulus (GPa) = 113.59401 132.92079 123.25740
# Shear Modulus (GPa) = 41.67005 46.04834 43.85919
#
# Velocity S-wave (km/s) = 4.28272 4.50210 4.39378
# Velocity P-wave (km/s) = 8.62878 9.24837 8.94394
#
# Compressibility (1/GPa) = 0.00880328
#
# Stress axis : x y z
#
# Youngs Moduli (GPa) = 170.77397 90.27023 150.88217
#
# Poissons Ratio (x) = 0.09409 0.34729
# Poissons Ratio (y) = 0.17800 0.60880
# Poissons Ratio (z) = 0.39307 0.36423
#
# Static dielectric constant tensor:
#      x y z
#    x 2.415610 0.000000 0.000000 
#    y 0.000000 2.155860 0.000000 
#    z 0.000000 0.000000 1.642510 
# 
# From -- ./inp_files/43168.got.cif
#   From: 2010.05.17/outbox.cif.g08.bks.cpg/sg22_22_cif.got.tgz:43168.got - 2010.06.03 23:40:54.
