data_PCOD9328537
_publ_section_title
;
Structure prediction by ZEFSAII (Michael W. Deem and Ramdas Pophale) SiO2 
 PCOD9328537
Probable space group: F 2 2 2
;
_chemical_formula_sum "Si O2"
_cell_formula_units_Z 88
_cell_length_a 9.156512
_cell_length_b 23.980286
_cell_length_c 21.133805
_cell_angle_alpha 90.000000
_cell_angle_beta 90.000000
_cell_angle_gamma 90.000000
_cell_volume 4640.471644
_symmetry_space_group_name_H-M "F 2 2 2"
_symmetry_group_IT_number 22
_symmetry_cell_setting 'orthorhombic'
loop_
_space_group_symop_operation_xyz
x,y,z
-x,-y,z
x,-y,-z
-x,y,-z
x,1/2+y,1/2+z
-x,1/2-y,1/2+z
x,1/2-y,1/2-z
-x,1/2+y,1/2-z
1/2+x,y,1/2+z
1/2-x,-y,1/2+z
1/2+x,-y,1/2-z
1/2-x,y,1/2-z
1/2+x,1/2+y,z
1/2-x,1/2-y,z
1/2+x,1/2-y,-z
1/2-x,1/2+y,-z
loop_
_atom_site_type_symbol
_atom_site_label
_atom_site_fract_x
_atom_site_fract_y
_atom_site_fract_z
Si Si1 0.496776 0.595230 0.347284
Si Si2 0.000000 0.500000 0.248325
Si Si3 0.683883 0.059135 0.644760
Si Si4 0.760855 0.183502 0.325157
Si Si5 0.941241 0.872972 0.933272
Si Si6 0.694286 0.538157 0.558167
O O1 0.438494 0.549263 0.296461
O O2 0.670724 0.594943 0.341698
O O3 0.414180 0.653701 0.342123
O O4 0.445253 0.568974 0.413376
O O5 0.108061 0.465652 0.293149
O O6 0.570719 0.093986 0.602449
O O7 0.736083 0.004075 0.608546
O O8 0.750000 0.169326 0.250000
O O9 0.750000 0.250000 0.329822
O O10 0.641522 0.160445 0.376155
O O11 0.818835 0.916772 0.956237
O O12 0.000000 0.846281 0.000000
O O13 0.661186 0.500000 0.500000
#
# Coordination Sequence:
#
# PCOD9328537 Si02
#       6
#    16   8  16  16  16  16
#     4  11  25  37  59  92 127 168 211 263 322 389
#     4  12  22  34  56  94 140 164 200 252 332 408
#     4  12  22  35  57  92 132 166 198 253 312 403
#     4  10  24  48  70  88 120 172 230 283 334 386
#     4  11  22  39  66  93 125 171 217 261 325 395
#     4  11  21  38  55  87 133 170 203 240 313 399
#
# _framework density 18.96359
#
# number of rings (size 3 to 8) (size 9 to 14) (size 15 to 20)
#    0.000    0.909    5.455    1.636    2.545    1.455 
#    0.000    2.727    0.000    2.182    0.000    0.000 
#    0.000    0.000    0.000    0.000    0.000    0.000 
#
# Total GULP energy -122680.120847 kJ/mol
# GULP energy per Si atom -5576.369129 kJ/mol
# Density = 1.892043 g / cm^3
# Si number density = 18.963590 Si / 1000 Ang^3
#
#
#
# Elastic Constant Matrix: (Units=GPa)
#
#
# Indices 1 2 3 4 5 6 
#
# 1 126.3412 41.7592 56.9769 0.0000 0.0000 0.0000
# 2 41.7592 78.6977 34.6396 0.0000 0.0000 0.0000
# 3 56.9769 34.6396 126.8893 0.0000 0.0000 0.0000
# 4 0.0000 0.0000 0.0000 24.5754 0.0000 0.0000
# 5 0.0000 0.0000 0.0000 0.0000 26.1937 0.0000
# 6 0.0000 0.0000 0.0000 0.0000 0.0000 -2.1753
#
#
#
# Elastic Compliance Matrix: (Units=1/GPa)
#
#
# Indices 1 2 3 4 5 6 
#
# 1 0.011008 -0.004166 -0.003806 0.000000 0.000000 0.000000
# 2 -0.004166 0.016019 -0.002502 0.000000 0.000000 0.000000
# 3 -0.003806 -0.002502 0.010273 0.000000 0.000000 0.000000
# 4 0.000000 0.000000 0.000000 0.040691 0.000000 0.000000
# 5 0.000000 0.000000 0.000000 0.000000 0.038177 0.000000
# 6 0.000000 0.000000 0.000000 0.000000 0.000000 -0.459704
#
#
# Mechanical properties :
#
#
# Convention : Reuss Voigt Hill
#
# Bulk Modulus (GPa) = 61.15552 66.51996 63.83774
# Shear Modulus (GPa) = -15.76606 22.95560 3.59477
#
# Velocity S-wave (km/s) = -2.88650 3.48301 1.37831
# Velocity P-wave (km/s) = 4.60540 7.16443 6.02241
#
# Compressibility (1/GPa) = 0.01635175
#
# Stress axis : x y z
#
# Youngs Moduli (GPa) = 90.83945 62.42594 97.34370
#
# Poissons Ratio (x) = 0.26008 0.37047
# Poissons Ratio (y) = 0.37846 0.24358
# Poissons Ratio (z) = 0.34571 0.15621
#
# Static dielectric constant tensor:
#      x y z
#    x 1.713170 0.000000 0.000000 
#    y 0.000000 1.619720 0.000000 
#    z 0.000000 0.000000 4.255580 
# 
# From -- ./inp_files/12646.got.cif
#   From: 2010.05.17/outbox.cif.g08.bks.cpg/sg22_7_cif.got.tgz:12646.got - 2010.06.03 23:40:54.
