data_PCOD9328319
_publ_section_title
;
Structure prediction by ZEFSAII (Michael W. Deem and Ramdas Pophale) SiO2 
 PCOD9328319
Probable space group: F 2 2 2
;
_chemical_formula_sum "Si O2"
_cell_formula_units_Z 56
_cell_length_a 11.979441
_cell_length_b 21.344170
_cell_length_c 10.649600
_cell_angle_alpha 90.000000
_cell_angle_beta 90.000000
_cell_angle_gamma 90.000000
_cell_volume 2723.009272
_symmetry_space_group_name_H-M "F 2 2 2"
_symmetry_group_IT_number 22
_symmetry_cell_setting 'orthorhombic'
loop_
_space_group_symop_operation_xyz
x,y,z
-x,-y,z
x,-y,-z
-x,y,-z
x,1/2+y,1/2+z
-x,1/2-y,1/2+z
x,1/2-y,1/2-z
-x,1/2+y,1/2-z
1/2+x,y,1/2+z
1/2-x,-y,1/2+z
1/2+x,-y,1/2-z
1/2-x,y,1/2-z
1/2+x,1/2+y,z
1/2-x,1/2-y,z
1/2+x,1/2-y,-z
1/2-x,1/2+y,-z
loop_
_atom_site_type_symbol
_atom_site_label
_atom_site_fract_x
_atom_site_fract_y
_atom_site_fract_z
Si Si1 0.020118 0.573473 0.184584
Si Si2 0.110574 0.862874 0.074125
Si Si3 0.167863 0.871123 0.542430
Si Si4 0.250000 0.250000 0.557985
O O1 0.076625 0.591052 0.315383
O O2 0.000000 0.500000 0.170853
O O3 0.900966 0.607445 0.162668
O O4 0.101205 0.599292 0.075307
O O5 0.203451 0.890437 0.978543
O O6 0.171958 0.800402 0.126977
O O7 0.000000 0.845094 0.000000
O O8 0.173241 0.795987 0.525913
#
# Coordination Sequence:
#
# PCOD9328319 Si02
#       4
#    16  16  16   8
#     4  11  23  43  67  96 129 179 226 264 332 398
#     4  10  23  43  62 104 132 170 217 272 340 398
#     4   9  21  42  65  97 127 171 217 278 326 389
#     4   8  22  41  63 100 126 166 219 275 342 388
#
# _framework density 20.565481999999999
#
# number of rings (size 3 to 8) (size 9 to 14) (size 15 to 20)
#    1.714    0.571    0.000    2.571    4.000    4.000 
#   15.429    1.429    0.000    0.000    0.000    0.000 
#    0.000    0.000    0.000    0.000    0.000    0.000 
#
# Total GULP energy -77947.614996 kJ/mol
# GULP energy per Si atom -5567.686785 kJ/mol
# Density = 2.051867 g / cm^3
# Si number density = 20.565482 Si / 1000 Ang^3
#
#
#
# Elastic Constant Matrix: (Units=GPa)
#
#
# Indices 1 2 3 4 5 6 
#
# 1 150.6252 32.9540 24.6169 0.0000 0.0000 0.0000
# 2 32.9540 134.2398 3.2461 0.0000 0.0000 0.0000
# 3 24.6169 3.2461 21.3678 0.0000 0.0000 0.0000
# 4 0.0000 0.0000 0.0000 46.2521 0.0000 0.0000
# 5 0.0000 0.0000 0.0000 0.0000 24.1537 0.0000
# 6 0.0000 0.0000 0.0000 0.0000 0.0000 16.3497
#
#
#
# Elastic Compliance Matrix: (Units=1/GPa)
#
#
# Indices 1 2 3 4 5 6 
#
# 1 0.008629 -0.001885 -0.009655 0.000000 0.000000 0.000000
# 2 -0.001885 0.007889 0.000973 0.000000 0.000000 0.000000
# 3 -0.009655 0.000973 0.057775 0.000000 0.000000 0.000000
# 4 0.000000 0.000000 0.000000 0.021621 0.000000 0.000000
# 5 0.000000 0.000000 0.000000 0.000000 0.041401 0.000000
# 6 0.000000 0.000000 0.000000 0.000000 0.000000 0.061163
#
#
# Mechanical properties :
#
#
# Convention : Reuss Voigt Hill
#
# Bulk Modulus (GPa) = 18.81152 47.54077 33.17614
# Shear Modulus (GPa) = 21.06757 33.71215 27.38986
#
# Velocity S-wave (km/s) = 3.20412 4.05317 3.65339
# Velocity P-wave (km/s) = 4.78074 6.71351 5.82781
#
# Compressibility (1/GPa) = 0.05315890
#
# Stress axis : x y z
#
# Youngs Moduli (GPa) = 115.88376 126.76618 17.30855
#
# Poissons Ratio (x) = 0.23894 0.16712
# Poissons Ratio (y) = 0.21843 -0.01684
# Poissons Ratio (z) = 1.11888 -0.12336
#
# Static dielectric constant tensor:
#      x y z
#    x 1.743460 0.000000 0.000000 
#    y 0.000000 1.712600 0.000000 
#    z 0.000000 0.000000 1.775160 
# 
# From -- ./inp_files/17663.got.cif
#   From: 2010.05.17/outbox.cif.g08.bks.cpg/sg22_9_cif.got.tgz:17663.got - 2010.06.03 23:40:54.
