data_PCOD9328949
_publ_section_title
;
Structure prediction by ZEFSAII (Michael W. Deem and Ramdas Pophale) SiO2 
 PCOD9328949
Probable space group: F 2 2 2
;
_chemical_formula_sum "Si O2"
_cell_formula_units_Z 104
_cell_length_a 9.164660
_cell_length_b 17.085900
_cell_length_c 30.420768
_cell_angle_alpha 90.000000
_cell_angle_beta 90.000000
_cell_angle_gamma 90.000000
_cell_volume 4763.480502
_symmetry_space_group_name_H-M "F 2 2 2"
_symmetry_group_IT_number 22
_symmetry_cell_setting 'orthorhombic'
loop_
_space_group_symop_operation_xyz
x,y,z
-x,-y,z
x,-y,-z
-x,y,-z
x,1/2+y,1/2+z
-x,1/2-y,1/2+z
x,1/2-y,1/2-z
-x,1/2+y,1/2-z
1/2+x,y,1/2+z
1/2-x,-y,1/2+z
1/2+x,-y,1/2-z
1/2-x,y,1/2-z
1/2+x,1/2+y,z
1/2-x,1/2-y,z
1/2+x,1/2-y,-z
1/2-x,1/2+y,-z
loop_
_atom_site_type_symbol
_atom_site_label
_atom_site_fract_x
_atom_site_fract_y
_atom_site_fract_z
Si Si1 0.750000 0.250000 0.386733
Si Si2 0.402923 0.650556 0.455821
Si Si3 0.168785 0.028621 0.953727
Si Si4 0.250000 0.250000 0.119702
Si Si5 0.979886 0.293857 0.321244
Si Si6 0.911533 0.640811 0.764797
Si Si7 0.500000 0.500000 0.679964
Si Si8 0.639777 0.416677 0.599616
O O1 0.624635 0.283347 0.418884
O O2 0.839319 0.306549 0.353080
O O3 0.500000 0.670134 0.500000
O O4 0.234968 0.616539 0.456851
O O5 0.498920 0.584776 0.431794
O O6 0.242190 0.979094 0.915490
O O7 0.000000 0.000000 0.952884
O O8 0.230650 0.000000 0.000000
O O9 0.378701 0.284688 0.149382
O O10 0.303592 0.172508 0.094588
O O11 0.997811 0.354827 0.281405
O O12 0.961462 0.209690 0.297295
O O13 0.750000 0.661182 0.750000
O O14 0.912171 0.558525 0.789013
O O15 0.590590 0.442511 0.647982
#
# Coordination Sequence:
#
# PCOD9328949 Si02
#       8
#     8  16  16   8  16  16   8  16
#     4  12  24  46  74 102 135 195 242 287 371 438
#     4  12  25  46  74 103 145 194 237 299 367 443
#     4  11  25  45  71 103 138 190 248 305 360 430
#     4  12  26  44  70 108 147 187 244 300 373 443
#     4  11  23  45  72  98 139 195 233 305 368 439
#     4  11  23  43  71 100 140 184 252 295 370 434
#     4  12  24  44  71 106 138 202 241 308 354 460
#     4  12  25  45  74 102 149 193 247 292 377 450
#
# _framework density 21.832775999999999
#
# number of rings (size 3 to 8) (size 9 to 14) (size 15 to 20)
#    0.000    0.462    7.692    0.462    2.154    3.077 
#    2.769    0.000    0.000    0.000    0.000    0.000 
#    0.000    0.000    0.000    0.000    0.000    0.000 
#
# Total GULP energy -144808.645417 kJ/mol
# GULP energy per Si atom -5569.563285 kJ/mol
# Density = 2.178308 g / cm^3
# Si number density = 21.832776 Si / 1000 Ang^3
#
#
#
# Elastic Constant Matrix: (Units=GPa)
#
#
# Indices 1 2 3 4 5 6 
#
# 1 76.3672 -5.9965 23.4406 0.0000 0.0000 0.0000
# 2 -5.9965 58.3533 24.3225 0.0000 0.0000 0.0000
# 3 23.4406 24.3225 104.9124 0.0000 0.0000 0.0000
# 4 0.0000 0.0000 0.0000 28.3606 0.0000 0.0000
# 5 0.0000 0.0000 0.0000 0.0000 4.0230 0.0000
# 6 0.0000 0.0000 0.0000 0.0000 0.0000 31.2006
#
#
#
# Elastic Compliance Matrix: (Units=1/GPa)
#
#
# Indices 1 2 3 4 5 6 
#
# 1 0.014566 0.003159 -0.003987 0.000000 0.000000 0.000000
# 2 0.003159 0.019655 -0.005262 0.000000 0.000000 0.000000
# 3 -0.003987 -0.005262 0.011643 0.000000 0.000000 0.000000
# 4 0.000000 0.000000 0.000000 0.035260 0.000000 0.000000
# 5 0.000000 0.000000 0.000000 0.000000 0.248572 0.000000
# 6 0.000000 0.000000 0.000000 0.000000 0.000000 0.032051
#
#
# Mechanical properties :
#
#
# Convention : Reuss Voigt Hill
#
# Bulk Modulus (GPa) = 29.68886 35.90732 32.79809
# Shear Modulus (GPa) = 12.98176 25.90791 19.44483
#
# Velocity S-wave (km/s) = 2.44109 3.44852 2.98757
# Velocity P-wave (km/s) = 4.64468 5.68670 5.19190
#
# Compressibility (1/GPa) = 0.03368267
#
# Stress axis : x y z
#
# Youngs Moduli (GPa) = 68.65111 50.87743 85.89158
#
# Poissons Ratio (x) = -0.16070 0.34244
# Poissons Ratio (y) = -0.21685 0.45200
# Poissons Ratio (z) = 0.27370 0.26774
#
# Static dielectric constant tensor:
#      x y z
#    x 1.964540 0.000000 0.000000 
#    y 0.000000 2.276330 0.000000 
#    z 0.000000 0.000000 1.869230 
# 
# From -- ./inp_files/51995.got.cif
#   From: 2010.05.17/outbox.cif.g08.bks.cpg/sg22_26_cif.got.tgz:51995.got - 2010.06.03 23:40:54.
