data_PCOD9328655
_publ_section_title
;
Structure prediction by ZEFSAII (Michael W. Deem and Ramdas Pophale) SiO2 
 PCOD9328655
Probable space group: F 2 2 2
;
_chemical_formula_sum "Si O2"
_cell_formula_units_Z 96
_cell_length_a 17.518413
_cell_length_b 14.439290
_cell_length_c 18.867214
_cell_angle_alpha 90.000000
_cell_angle_beta 90.000000
_cell_angle_gamma 90.000000
_cell_volume 4772.526791
_symmetry_space_group_name_H-M "F 2 2 2"
_symmetry_group_IT_number 22
_symmetry_cell_setting 'orthorhombic'
loop_
_space_group_symop_operation_xyz
x,y,z
-x,-y,z
x,-y,-z
-x,y,-z
x,1/2+y,1/2+z
-x,1/2-y,1/2+z
x,1/2-y,1/2-z
-x,1/2+y,1/2-z
1/2+x,y,1/2+z
1/2-x,-y,1/2+z
1/2+x,-y,1/2-z
1/2-x,y,1/2-z
1/2+x,1/2+y,z
1/2-x,1/2-y,z
1/2+x,1/2-y,-z
1/2-x,1/2+y,-z
loop_
_atom_site_type_symbol
_atom_site_label
_atom_site_fract_x
_atom_site_fract_y
_atom_site_fract_z
Si Si1 0.500000 0.500000 0.235452
Si Si2 0.741111 0.953075 0.166375
Si Si3 0.998189 0.612671 0.917586
Si Si4 0.870034 0.212052 0.668867
Si Si5 0.599719 0.407645 0.882358
Si Si6 0.250000 0.750000 0.250000
Si Si7 0.500000 0.500000 0.000000
Si Si8 0.131652 0.109248 0.674509
O O1 0.545482 0.570888 0.184874
O O2 0.567430 0.442272 0.275605
O O3 0.750000 0.973237 0.250000
O O4 0.705287 0.850693 0.163476
O O5 0.821994 0.963123 0.129244
O O6 0.680971 0.027434 0.139760
O O7 0.920410 0.653648 0.885574
O O8 0.000000 0.500000 0.915488
O O9 0.063184 0.647920 0.863482
O O10 0.000000 0.639380 0.000000
O O11 0.877900 0.250000 0.750000
O O12 0.874630 0.302073 0.620291
O O13 0.553359 0.437859 0.950444
O O14 0.191004 0.818706 0.291096
#
# Coordination Sequence:
#
# PCOD9328655 Si02
#       8
#     8  16  16  16  16   4   4  16
#     4  11  20  41  69  98 135 176 230 288 351 416
#     4  12  21  42  67 101 140 166 227 305 367 393
#     4  11  25  45  67  94 138 190 236 281 348 433
#     4  12  23  40  73 106 128 172 239 306 336 413
#     4  11  24  41  70  97 133 181 228 282 348 427
#     4  12  28  36  72 112 150 178 234 320 368 424
#     4  10  28  52  60  96 148 194 218 268 366 448
#     4  12  22  44  66 105 139 184 231 291 372 424
#
# _framework density 20.115131000000002
#
# number of rings (size 3 to 8) (size 9 to 14) (size 15 to 20)
#    0.000    0.500    6.667    1.500    4.667    0.000 
#    3.000    0.000    0.000    0.000    0.000    0.000 
#    0.000    0.000    0.000    0.000    0.000    0.000 
#
# Total GULP energy -133914.545295 kJ/mol
# GULP energy per Si atom -5579.772721 kJ/mol
# Density = 2.006935 g / cm^3
# Si number density = 20.115131 Si / 1000 Ang^3
#
#
#
# Elastic Constant Matrix: (Units=GPa)
#
#
# Indices 1 2 3 4 5 6 
#
# 1 158.4603 33.4623 63.3385 0.0000 0.0000 0.0000
# 2 33.4623 70.9681 24.9176 0.0000 0.0000 0.0000
# 3 63.3385 24.9176 110.5472 0.0000 0.0000 0.0000
# 4 0.0000 0.0000 0.0000 6.5870 0.0000 0.0000
# 5 0.0000 0.0000 0.0000 0.0000 24.1730 0.0000
# 6 0.0000 0.0000 0.0000 0.0000 0.0000 32.7493
#
#
#
# Elastic Compliance Matrix: (Units=1/GPa)
#
#
# Indices 1 2 3 4 5 6 
#
# 1 0.008581 -0.002519 -0.004349 0.000000 0.000000 0.000000
# 2 -0.002519 0.016041 -0.002172 0.000000 0.000000 0.000000
# 3 -0.004349 -0.002172 0.012027 0.000000 0.000000 0.000000
# 4 0.000000 0.000000 0.000000 0.151814 0.000000 0.000000
# 5 0.000000 0.000000 0.000000 0.000000 0.041369 0.000000
# 6 0.000000 0.000000 0.000000 0.000000 0.000000 0.030535
#
#
# Mechanical properties :
#
#
# Convention : Reuss Voigt Hill
#
# Bulk Modulus (GPa) = 53.85306 64.82362 59.33834
# Shear Modulus (GPa) = 17.56622 27.25233 22.40928
#
# Velocity S-wave (km/s) = 2.95834 3.68478 3.34136
# Velocity P-wave (km/s) = 6.20480 7.09928 6.66706
#
# Compressibility (1/GPa) = 0.01856905
#
# Stress axis : x y z
#
# Youngs Moduli (GPa) = 116.53771 62.33865 83.14518
#
# Poissons Ratio (x) = 0.15704 0.36157
# Poissons Ratio (y) = 0.29358 0.18063
# Poissons Ratio (z) = 0.50678 0.13543
#
# Static dielectric constant tensor:
#      x y z
#    x 1.747470 0.000000 0.000000 
#    y 0.000000 1.747570 0.000000 
#    z 0.000000 0.000000 1.746970 
# 
# From -- ./inp_files/43531.got.cif
#   From: 2010.05.17/outbox.cif.g08.bks.cpg/sg22_22_cif.got.tgz:43531.got - 2010.06.03 23:40:54.
