data_PCOD9328215
_publ_section_title
;
Structure prediction by ZEFSAII (Michael W. Deem and Ramdas Pophale) SiO2 
 PCOD9328215
Probable space group: F 2 2 2
;
_chemical_formula_sum "Si O2"
_cell_formula_units_Z 120
_cell_length_a 11.897419
_cell_length_b 23.753843
_cell_length_c 20.977806
_cell_angle_alpha 90.000000
_cell_angle_beta 90.000000
_cell_angle_gamma 90.000000
_cell_volume 5928.525650
_symmetry_space_group_name_H-M "F 2 2 2"
_symmetry_group_IT_number 22
_symmetry_cell_setting 'orthorhombic'
loop_
_space_group_symop_operation_xyz
x,y,z
-x,-y,z
x,-y,-z
-x,y,-z
x,1/2+y,1/2+z
-x,1/2-y,1/2+z
x,1/2-y,1/2-z
-x,1/2+y,1/2-z
1/2+x,y,1/2+z
1/2-x,-y,1/2+z
1/2+x,-y,1/2-z
1/2-x,y,1/2-z
1/2+x,1/2+y,z
1/2-x,1/2-y,z
1/2+x,1/2-y,-z
1/2-x,1/2+y,-z
loop_
_atom_site_type_symbol
_atom_site_label
_atom_site_fract_x
_atom_site_fract_y
_atom_site_fract_z
Si Si1 0.306124 0.368609 0.896381
Si Si2 0.663375 0.799998 0.341681
Si Si3 0.000000 0.500000 0.241821
Si Si4 0.857022 0.098260 0.299392
Si Si5 0.926995 0.803772 0.782971
Si Si6 0.676649 0.430194 0.811282
Si Si7 0.135210 0.712278 0.508417
Si Si8 0.865773 0.505918 0.573113
O O1 0.181580 0.378344 0.867979
O O2 0.362034 0.328828 0.843302
O O3 0.339706 0.340638 0.962872
O O4 0.348672 0.432168 0.898638
O O5 0.750000 0.750000 0.327627
O O6 0.546876 0.785516 0.308573
O O7 0.691201 0.863606 0.320499
O O8 0.644987 0.801973 0.417455
O O9 0.915929 0.462163 0.200124
O O10 0.943355 0.546112 0.287972
O O11 0.750000 0.094079 0.250000
O O12 0.933878 0.146238 0.268076
O O13 0.872311 0.750000 0.750000
O O14 0.750000 0.446953 0.750000
O O15 0.692265 0.461871 0.878543
O O16 0.250000 0.750000 0.494815
O O17 0.000000 0.730142 0.500000
O O18 0.824500 0.500000 0.500000
O O19 0.000000 0.500000 0.571061
#
# Coordination Sequence:
#
# PCOD9328215 Si02
#       8
#    16  16   8  16  16  16  16  16
#     4  11  23  42  67 101 139 181 241 301 366 441
#     4  11  25  43  63 101 141 186 244 296 367 447
#     4  12  20  40  63  94 139 180 228 290 370 434
#     4  10  23  38  60  98 136 181 230 293 358 442
#     4  11  23  39  64  95 141 181 232 295 368 437
#     4  12  24  39  66  97 141 187 232 293 367 445
#     4  11  25  45  75 100 140 194 251 306 367 437
#     4  11  23  39  68 101 139 178 233 303 373 443
#
# _framework density 20.241121
#
# number of rings (size 3 to 8) (size 9 to 14) (size 15 to 20)
#    0.000    0.933    3.333    4.400    5.600    1.867 
#    0.000    1.333    0.000    0.000    0.000    5.133 
#    0.000    0.000    0.000    0.000    0.000    0.000 
#
# Total GULP energy -167226.635078 kJ/mol
# GULP energy per Si atom -5574.221169 kJ/mol
# Density = 2.019505 g / cm^3
# Si number density = 20.241121 Si / 1000 Ang^3
#
#
#
# Elastic Constant Matrix: (Units=GPa)
#
#
# Indices 1 2 3 4 5 6 
#
# 1 90.7190 47.1415 39.7680 0.0000 0.0000 0.0000
# 2 47.1415 145.5955 44.2221 0.0000 0.0000 0.0000
# 3 39.7680 44.2221 109.2644 0.0000 0.0000 0.0000
# 4 0.0000 0.0000 0.0000 35.9417 0.0000 0.0000
# 5 0.0000 0.0000 0.0000 0.0000 38.5854 0.0000
# 6 0.0000 0.0000 0.0000 0.0000 0.0000 24.0038
#
#
#
# Elastic Compliance Matrix: (Units=1/GPa)
#
#
# Indices 1 2 3 4 5 6 
#
# 1 0.014557 -0.003539 -0.003866 0.000000 0.000000 0.000000
# 2 -0.003539 0.008691 -0.002230 0.000000 0.000000 0.000000
# 3 -0.003866 -0.002230 0.011461 0.000000 0.000000 0.000000
# 4 0.000000 0.000000 0.000000 0.027823 0.000000 0.000000
# 5 0.000000 0.000000 0.000000 0.000000 0.025917 0.000000
# 6 0.000000 0.000000 0.000000 0.000000 0.000000 0.041660
#
#
# Mechanical properties :
#
#
# Convention : Reuss Voigt Hill
#
# Bulk Modulus (GPa) = 64.76325 67.53803 66.15064
# Shear Modulus (GPa) = 32.35729 34.00267 33.17998
#
# Velocity S-wave (km/s) = 4.00258 4.10308 4.05314
# Velocity P-wave (km/s) = 7.30932 7.47571 7.39298
#
# Compressibility (1/GPa) = 0.01544086
#
# Stress axis : x y z
#
# Youngs Moduli (GPa) = 68.69689 115.05578 87.24909
#
# Poissons Ratio (x) = 0.40719 0.33728
# Poissons Ratio (y) = 0.24312 0.19453
# Poissons Ratio (z) = 0.26556 0.25652
#
# Static dielectric constant tensor:
#      x y z
#    x 1.797690 0.000000 0.000000 
#    y 0.000000 1.702550 0.000000 
#    z 0.000000 0.000000 1.768140 
# 
# From -- ./inp_files/42937.got.cif
#   From: 2010.05.17/outbox.cif.g08.bks.cpg/sg22_22_cif.got.tgz:42937.got - 2010.06.03 23:40:54.
