data_PCOD9328343
_publ_section_title
;
Structure prediction by ZEFSAII (Michael W. Deem and Ramdas Pophale) SiO2 
 PCOD9328343
Probable space group: F 2 2 2
;
_chemical_formula_sum "Si O2"
_cell_formula_units_Z 88
_cell_length_a 11.919082
_cell_length_b 13.833158
_cell_length_c 23.731220
_cell_angle_alpha 90.000000
_cell_angle_beta 90.000000
_cell_angle_gamma 90.000000
_cell_volume 3912.769013
_symmetry_space_group_name_H-M "F 2 2 2"
_symmetry_group_IT_number 22
_symmetry_cell_setting 'orthorhombic'
loop_
_space_group_symop_operation_xyz
x,y,z
-x,-y,z
x,-y,-z
-x,y,-z
x,1/2+y,1/2+z
-x,1/2-y,1/2+z
x,1/2-y,1/2-z
-x,1/2+y,1/2-z
1/2+x,y,1/2+z
1/2-x,-y,1/2+z
1/2+x,-y,1/2-z
1/2-x,y,1/2-z
1/2+x,1/2+y,z
1/2-x,1/2-y,z
1/2+x,1/2-y,-z
1/2-x,1/2+y,-z
loop_
_atom_site_type_symbol
_atom_site_label
_atom_site_fract_x
_atom_site_fract_y
_atom_site_fract_z
Si Si1 0.858148 0.191652 0.361475
Si Si2 0.500000 0.500000 0.590086
Si Si3 0.250000 0.250000 0.395578
Si Si4 0.750000 0.890084 0.750000
Si Si5 0.373784 0.987412 0.662408
Si Si6 0.430638 0.774743 0.684722
Si Si7 0.239767 0.449382 0.056873
O O1 0.750000 0.250000 0.389326
O O2 0.813089 0.163617 0.299789
O O3 0.953031 0.271623 0.348665
O O4 0.930144 0.094704 0.382344
O O5 0.604359 0.451109 0.558028
O O6 0.346924 0.288595 0.353558
O O7 0.282830 0.159847 0.434458
O O8 0.657273 0.951703 0.716885
O O9 0.370317 0.877194 0.681885
O O10 0.288455 0.004685 0.611543
O O11 0.500000 0.000000 0.642199
O O12 0.443794 0.750000 0.750000
O O13 0.278156 0.500000 0.000000
#
# Coordination Sequence:
#
# PCOD9328343 Si02
#       7
#    16   8   8   8  16  16  16
#     4  12  25  44  68 106 152 200 248 303 378 464
#     4  12  25  48  78 102 146 200 255 318 386 460
#     4  10  23  44  68 108 136 185 248 304 378 462
#     4  12  25  42  67 110 150 198 246 301 375 464
#     4  11  25  41  68 105 148 193 243 306 385 455
#     4  11  23  37  66 102 148 191 234 297 368 456
#     4  11  25  49  75 101 139 189 257 317 382 457
#
# _framework density 22.490466999999999
#
# number of rings (size 3 to 8) (size 9 to 14) (size 15 to 20)
#    0.000    0.727    3.636    4.091    8.909    0.364 
#    1.636    0.000    4.000    0.000    0.000    0.000 
#    0.000    0.000    0.000    0.000    0.000    0.000 
#
# Total GULP energy -122523.978185 kJ/mol
# GULP energy per Si atom -5569.271736 kJ/mol
# Density = 2.243928 g / cm^3
# Si number density = 22.490467 Si / 1000 Ang^3
#
#
#
# Elastic Constant Matrix: (Units=GPa)
#
#
# Indices 1 2 3 4 5 6 
#
# 1 135.6321 12.9336 15.2986 0.0000 0.0000 0.0000
# 2 12.9336 84.2601 27.9173 0.0000 0.0000 0.0000
# 3 15.2986 27.9173 65.1217 0.0000 0.0000 0.0000
# 4 0.0000 0.0000 0.0000 26.4694 0.0000 0.0000
# 5 0.0000 0.0000 0.0000 0.0000 19.2991 0.0000
# 6 0.0000 0.0000 0.0000 0.0000 0.0000 36.5420
#
#
#
# Elastic Compliance Matrix: (Units=1/GPa)
#
#
# Indices 1 2 3 4 5 6 
#
# 1 0.007606 -0.000671 -0.001499 0.000000 0.000000 0.000000
# 2 -0.000671 0.013892 -0.005798 0.000000 0.000000 0.000000
# 3 -0.001499 -0.005798 0.018194 0.000000 0.000000 0.000000
# 4 0.000000 0.000000 0.000000 0.037780 0.000000 0.000000
# 5 0.000000 0.000000 0.000000 0.000000 0.051816 0.000000
# 6 0.000000 0.000000 0.000000 0.000000 0.000000 0.027366
#
#
# Mechanical properties :
#
#
# Convention : Reuss Voigt Hill
#
# Bulk Modulus (GPa) = 42.09500 44.14588 43.12044
# Shear Modulus (GPa) = 27.69980 31.71974 29.70977
#
# Velocity S-wave (km/s) = 3.51326 3.75956 3.63849
# Velocity P-wave (km/s) = 5.93420 6.20621 6.07173
#
# Compressibility (1/GPa) = 0.02375579
#
# Stress axis : x y z
#
# Youngs Moduli (GPa) = 131.47590 71.98428 54.96449
#
# Poissons Ratio (x) = 0.04828 0.08241
# Poissons Ratio (y) = 0.08819 0.31867
# Poissons Ratio (z) = 0.19712 0.41735
#
# Static dielectric constant tensor:
#      x y z
#    x 1.945240 0.000000 0.000000 
#    y 0.000000 2.026530 0.000000 
#    z 0.000000 0.000000 1.796100 
# 
# From -- ./inp_files/32366.got.cif
#   From: 2010.05.17/outbox.cif.g08.bks.cpg/sg22_17_cif.got.tgz:32366.got - 2010.06.03 23:40:54.
