data_PCOD9328729
_publ_section_title
;
Structure prediction by ZEFSAII (Michael W. Deem and Ramdas Pophale) SiO2 
 PCOD9328729
Probable space group: F 2 2 2
;
_chemical_formula_sum "Si O2"
_cell_formula_units_Z 68
_cell_length_a 8.290701
_cell_length_b 17.985363
_cell_length_c 23.003845
_cell_angle_alpha 90.000000
_cell_angle_beta 90.000000
_cell_angle_gamma 90.000000
_cell_volume 3430.132474
_symmetry_space_group_name_H-M "F 2 2 2"
_symmetry_group_IT_number 22
_symmetry_cell_setting 'orthorhombic'
loop_
_space_group_symop_operation_xyz
x,y,z
-x,-y,z
x,-y,-z
-x,y,-z
x,1/2+y,1/2+z
-x,1/2-y,1/2+z
x,1/2-y,1/2-z
-x,1/2+y,1/2-z
1/2+x,y,1/2+z
1/2-x,-y,1/2+z
1/2+x,-y,1/2-z
1/2-x,y,1/2-z
1/2+x,1/2+y,z
1/2-x,1/2-y,z
1/2+x,1/2-y,-z
1/2-x,1/2+y,-z
loop_
_atom_site_type_symbol
_atom_site_label
_atom_site_fract_x
_atom_site_fract_y
_atom_site_fract_z
Si Si1 0.553952 0.913044 0.359901
Si Si2 0.933713 0.720311 0.564863
Si Si3 0.250000 0.250000 0.250000
Si Si4 0.565587 0.082349 0.233692
Si Si5 0.105179 0.839966 0.643993
O O1 0.453282 0.857010 0.400315
O O2 0.524086 0.890136 0.292555
O O3 0.742623 0.892350 0.371784
O O4 0.500000 0.000000 0.366209
O O5 0.750000 0.750000 0.565389
O O6 0.000000 0.710413 0.500000
O O7 0.049486 0.780968 0.596529
O O8 0.149297 0.202576 0.296210
O O9 0.750000 0.084408 0.250000
O O10 0.544345 0.114797 0.169330
O O11 0.500000 0.000000 0.228253
#
# Coordination Sequence:
#
# PCOD9328729 Si02
#       5
#    16  16   4  16  16
#     4  11  22  40  64  95 130 169 211 268 328 387
#     4  12  26  45  67  93 126 175 227 271 318 384
#     4  12  20  36  66  96 128 172 204 274 324 380
#     4  11  21  35  59  96 132 167 207 262 330 393
#     4  12  21  40  66  94 131 171 214 268 325 387
#
# _framework density 19.824307999999998
#
# number of rings (size 3 to 8) (size 9 to 14) (size 15 to 20)
#    0.000    0.471    4.706    5.647    0.000    0.471 
#    0.000    2.353    0.000    4.941    0.000    0.000 
#    0.000    0.000    0.000    0.000    0.000    0.000 
#
# Total GULP energy -94789.106583 kJ/mol
# GULP energy per Si atom -5575.829799 kJ/mol
# Density = 1.977919 g / cm^3
# Si number density = 19.824308 Si / 1000 Ang^3
#
#
#
# Elastic Constant Matrix: (Units=GPa)
#
#
# Indices 1 2 3 4 5 6 
#
# 1 89.3797 46.3243 -1.9002 0.0000 0.0000 0.0000
# 2 46.3243 111.5807 68.6118 0.0000 0.0000 0.0000
# 3 -1.9002 68.6118 107.7040 0.0000 0.0000 0.0000
# 4 0.0000 0.0000 0.0000 39.1037 0.0000 0.0000
# 5 0.0000 0.0000 0.0000 0.0000 33.5824 0.0000
# 6 0.0000 0.0000 0.0000 0.0000 0.0000 21.5662
#
#
#
# Elastic Compliance Matrix: (Units=1/GPa)
#
#
# Indices 1 2 3 4 5 6 
#
# 1 0.017840 -0.012494 0.008274 0.000000 0.000000 0.000000
# 2 -0.012494 0.023484 -0.015181 0.000000 0.000000 0.000000
# 3 0.008274 -0.015181 0.019101 0.000000 0.000000 0.000000
# 4 0.000000 0.000000 0.000000 0.025573 0.000000 0.000000
# 5 0.000000 0.000000 0.000000 0.000000 0.029778 0.000000
# 6 0.000000 0.000000 0.000000 0.000000 0.000000 0.046369
#
#
# Mechanical properties :
#
#
# Convention : Reuss Voigt Hill
#
# Bulk Modulus (GPa) = 46.24617 59.41513 52.83065
# Shear Modulus (GPa) = 24.02072 31.89235 27.95654
#
# Velocity S-wave (km/s) = 3.48470 4.01527 3.75936
# Velocity P-wave (km/s) = 6.29043 7.17861 6.74915
#
# Compressibility (1/GPa) = 0.02162341
#
# Stress axis : x y z
#
# Youngs Moduli (GPa) = 56.05490 42.58238 52.35235
#
# Poissons Ratio (x) = 0.53203 -0.43316
# Poissons Ratio (y) = 0.70036 0.79474
# Poissons Ratio (z) = -0.46380 0.64643
#
# Static dielectric constant tensor:
#      x y z
#    x 2.282800 0.000000 0.000000 
#    y 0.000000 1.868640 0.000000 
#    z 0.000000 0.000000 1.661800 
# 
# From -- ./inp_files/11251.got.cif
#   From: 2010.05.17/outbox.cif.g08.bks.cpg/sg22_6_cif.got.tgz:11251.got - 2010.06.03 23:40:54.
