data_PCOD9328103
_publ_section_title
;
Structure prediction by ZEFSAII (Michael W. Deem and Ramdas Pophale) SiO2 
 PCOD9328103
Probable space group: F 2 2 2
;
_chemical_formula_sum "Si O2"
_cell_formula_units_Z 84
_cell_length_a 12.029951
_cell_length_b 21.326246
_cell_length_c 15.500314
_cell_angle_alpha 90.000000
_cell_angle_beta 90.000000
_cell_angle_gamma 90.000000
_cell_volume 3976.662821
_symmetry_space_group_name_H-M "F 2 2 2"
_symmetry_group_IT_number 22
_symmetry_cell_setting 'orthorhombic'
loop_
_space_group_symop_operation_xyz
x,y,z
-x,-y,z
x,-y,-z
-x,y,-z
x,1/2+y,1/2+z
-x,1/2-y,1/2+z
x,1/2-y,1/2-z
-x,1/2+y,1/2-z
1/2+x,y,1/2+z
1/2-x,-y,1/2+z
1/2+x,-y,1/2-z
1/2-x,y,1/2-z
1/2+x,1/2+y,z
1/2-x,1/2-y,z
1/2+x,1/2-y,-z
1/2-x,1/2+y,-z
loop_
_atom_site_type_symbol
_atom_site_label
_atom_site_fract_x
_atom_site_fract_y
_atom_site_fract_z
Si Si1 0.000000 0.688670 0.000000
Si Si2 0.000000 0.000000 0.718683
Si Si3 0.286727 0.016839 0.097954
Si Si4 0.389994 0.189968 0.543108
Si Si5 0.648518 0.410775 0.183679
Si Si6 0.291492 0.157126 0.098286
Si Si7 0.250000 0.750000 0.750000
O O1 0.087570 0.650223 0.945306
O O2 0.927583 0.737891 0.942882
O O3 0.892694 0.010694 0.659757
O O4 0.036949 0.061354 0.773173
O O5 0.246326 0.087587 0.113214
O O6 0.193310 0.967050 0.123790
O O7 0.317719 0.000000 0.000000
O O8 0.500000 0.160326 0.500000
O O9 0.364914 0.151527 0.628059
O O10 0.293434 0.186142 0.471850
O O11 0.750000 0.400736 0.250000
O O12 0.305425 0.201567 0.181640
#
# Coordination Sequence:
#
# PCOD9328103 Si02
#       7
#     8   8  16  16  16  16   4
#     4  10  24  42  69  95 130 184 224 292 328 422
#     4  10  25  38  59 104 134 174 232 268 355 405
#     4  11  24  41  66  98 140 183 220 285 355 423
#     4  10  22  43  68  94 135 175 234 281 347 418
#     4  10  23  41  64 100 139 177 226 289 344 419
#     4  12  25  44  67 103 138 178 238 282 359 414
#     4  12  24  44  72 100 140 176 240 310 328 422
#
# _framework density 21.123239999999999
#
# number of rings (size 3 to 8) (size 9 to 14) (size 15 to 20)
#    0.571    0.762    3.810    0.286    9.333    1.524 
#    0.000    0.000    0.000    3.429    0.000    0.000 
#    0.000    0.000    0.000    0.000    0.000    0.000 
#
# Total GULP energy -117141.612373 kJ/mol
# GULP energy per Si atom -5578.172018 kJ/mol
# Density = 2.107516 g / cm^3
# Si number density = 21.123240 Si / 1000 Ang^3
#
#
#
# Elastic Constant Matrix: (Units=GPa)
#
#
# Indices 1 2 3 4 5 6 
#
# 1 63.3257 -18.1856 18.5953 0.0000 0.0000 0.0000
# 2 -18.1856 66.9127 12.2794 0.0000 0.0000 0.0000
# 3 18.5953 12.2794 91.0766 0.0000 0.0000 0.0000
# 4 0.0000 0.0000 0.0000 10.7913 0.0000 0.0000
# 5 0.0000 0.0000 0.0000 0.0000 18.6957 0.0000
# 6 0.0000 0.0000 0.0000 0.0000 0.0000 6.6109
#
#
#
# Elastic Compliance Matrix: (Units=1/GPa)
#
#
# Indices 1 2 3 4 5 6 
#
# 1 0.018880 0.005987 -0.004662 0.000000 0.000000 0.000000
# 2 0.005987 0.017222 -0.003544 0.000000 0.000000 0.000000
# 3 -0.004662 -0.003544 0.012409 0.000000 0.000000 0.000000
# 4 0.000000 0.000000 0.000000 0.092668 0.000000 0.000000
# 5 0.000000 0.000000 0.000000 0.000000 0.053488 0.000000
# 6 0.000000 0.000000 0.000000 0.000000 0.000000 0.151265
#
#
# Mechanical properties :
#
#
# Convention : Reuss Voigt Hill
#
# Bulk Modulus (GPa) = 22.69000 27.41034 25.05017
# Shear Modulus (GPa) = 13.69629 21.12797 17.41213
#
# Velocity S-wave (km/s) = 2.54913 3.16606 2.87420
# Velocity P-wave (km/s) = 4.40785 5.13516 4.78534
#
# Compressibility (1/GPa) = 0.04407228
#
# Stress axis : x y z
#
# Youngs Moduli (GPa) = 52.96743 58.06416 80.58376
#
# Poissons Ratio (x) = -0.34761 0.37567
# Poissons Ratio (y) = -0.31710 0.28561
# Poissons Ratio (z) = 0.24692 0.20580
#
# Static dielectric constant tensor:
#      x y z
#    x 1.762320 0.000000 0.000000 
#    y 0.000000 1.775600 0.000000 
#    z 0.000000 0.000000 1.782930 
# 
# From -- ./inp_files/28234.got.cif
#   From: 2010.05.17/outbox.cif.g08.bks.cpg/sg22_15_cif.got.tgz:28234.got - 2010.06.03 23:40:54.
