data_PCOD9328502
_publ_section_title
;
Structure prediction by ZEFSAII (Michael W. Deem and Ramdas Pophale) SiO2 
 PCOD9328502
Probable space group: F 2 2 2
;
_chemical_formula_sum "Si O2"
_cell_formula_units_Z 96
_cell_length_a 19.389783
_cell_length_b 13.926177
_cell_length_c 14.786978
_cell_angle_alpha 90.000000
_cell_angle_beta 90.000000
_cell_angle_gamma 90.000000
_cell_volume 3992.861868
_symmetry_space_group_name_H-M "F 2 2 2"
_symmetry_group_IT_number 22
_symmetry_cell_setting 'orthorhombic'
loop_
_space_group_symop_operation_xyz
x,y,z
-x,-y,z
x,-y,-z
-x,y,-z
x,1/2+y,1/2+z
-x,1/2-y,1/2+z
x,1/2-y,1/2-z
-x,1/2+y,1/2-z
1/2+x,y,1/2+z
1/2-x,-y,1/2+z
1/2+x,-y,1/2-z
1/2-x,y,1/2-z
1/2+x,1/2+y,z
1/2-x,1/2-y,z
1/2+x,1/2-y,-z
1/2-x,1/2+y,-z
loop_
_atom_site_type_symbol
_atom_site_label
_atom_site_fract_x
_atom_site_fract_y
_atom_site_fract_z
Si Si1 0.317080 0.498626 0.704674
Si Si2 0.861147 0.109118 0.987513
Si Si3 0.898395 0.840189 0.813224
Si Si4 0.910345 0.903708 0.442962
Si Si5 0.721347 0.647940 0.551338
Si Si6 0.949126 0.275236 0.654061
O O1 0.250000 0.546615 0.750000
O O2 0.365299 0.435992 0.771333
O O3 0.368082 0.561762 0.644835
O O4 0.283041 0.422386 0.635463
O O5 0.900406 0.159404 0.906572
O O6 0.877346 0.160264 0.082477
O O7 0.778293 0.111935 0.979138
O O8 0.884193 0.000000 0.000000
O O9 0.876186 0.750000 0.750000
O O10 0.981184 0.830912 0.818868
O O11 0.853179 0.852598 0.505470
O O12 0.962711 0.823195 0.404152
O O13 0.930119 0.000000 0.500000
O O14 0.750000 0.750000 0.580606
O O15 0.915390 0.250000 0.750000
#
# Coordination Sequence:
#
# PCOD9328502 Si02
#       6
#    16  16  16  16  16  16
#     4  11  23  40  74 112 144 186 250 326 381 442
#     4  12  25  46  76 108 149 195 251 316 378 450
#     4  11  26  46  72 102 148 194 253 308 367 446
#     4  10  24  45  73 106 150 198 256 310 385 454
#     4  11  21  41  73 110 149 189 247 318 393 448
#     4  11  27  49  70 101 157 207 253 299 373 465
#
# _framework density 24.042904
#
# number of rings (size 3 to 8) (size 9 to 14) (size 15 to 20)
#    0.000    1.000    3.333    3.000    4.667    1.333 
#    3.000    0.833    0.000    0.000    0.000    0.000 
#    0.000    0.000    0.000    0.000    0.000    0.000 
#
# Total GULP energy -134258.254644 kJ/mol
# GULP energy per Si atom -5594.093944 kJ/mol
# Density = 2.398818 g / cm^3
# Si number density = 24.042904 Si / 1000 Ang^3
#
#
#
# Elastic Constant Matrix: (Units=GPa)
#
#
# Indices 1 2 3 4 5 6 
#
# 1 97.3518 28.2790 35.3343 0.0000 0.0000 0.0000
# 2 28.2790 89.6592 34.4294 0.0000 0.0000 0.0000
# 3 35.3343 34.4294 131.0843 0.0000 0.0000 0.0000
# 4 0.0000 0.0000 0.0000 31.8203 0.0000 0.0000
# 5 0.0000 0.0000 0.0000 0.0000 33.6879 0.0000
# 6 0.0000 0.0000 0.0000 0.0000 0.0000 -2.9581
#
#
#
# Elastic Compliance Matrix: (Units=1/GPa)
#
#
# Indices 1 2 3 4 5 6 
#
# 1 0.011998 -0.002827 -0.002491 0.000000 0.000000 0.000000
# 2 -0.002827 0.013071 -0.002671 0.000000 0.000000 0.000000
# 3 -0.002491 -0.002671 0.009002 0.000000 0.000000 0.000000
# 4 0.000000 0.000000 0.000000 0.031426 0.000000 0.000000
# 5 0.000000 0.000000 0.000000 0.000000 0.029684 0.000000
# 6 0.000000 0.000000 0.000000 0.000000 0.000000 -0.338051
#
#
# Mechanical properties :
#
#
# Convention : Reuss Voigt Hill
#
# Bulk Modulus (GPa) = 55.27695 57.13119 56.20407
# Shear Modulus (GPa) = -22.63869 27.18018 2.27074
#
# Velocity S-wave (km/s) = -3.07187 3.36592 0.97288
# Velocity P-wave (km/s) = 3.23404 6.23856 4.96884
#
# Compressibility (1/GPa) = 0.01809072
#
# Stress axis : x y z
#
# Youngs Moduli (GPa) = 83.35003 76.50667 111.08944
#
# Poissons Ratio (x) = 0.21632 0.27677
# Poissons Ratio (y) = 0.23566 0.29671
# Poissons Ratio (z) = 0.20766 0.20434
#
# Static dielectric constant tensor:
#      x y z
#    x 1.992320 0.000000 0.000000 
#    y 0.000000 1.996320 0.000000 
#    z 0.000000 0.000000 1.925710 
# 
# From -- ./inp_files/31529.got.cif
#   From: 2010.05.17/outbox.cif.g08.bks.cpg/sg22_16_cif.got.tgz:31529.got - 2010.06.03 23:40:54.
