data_PCOD9328633
_publ_section_title
;
Structure prediction by ZEFSAII (Michael W. Deem and Ramdas Pophale) SiO2 
 PCOD9328633
Probable space group: F 2 2 2
;
_chemical_formula_sum "Si O2"
_cell_formula_units_Z 88
_cell_length_a 22.191491
_cell_length_b 11.948315
_cell_length_c 15.063702
_cell_angle_alpha 90.000000
_cell_angle_beta 90.000000
_cell_angle_gamma 90.000000
_cell_volume 3994.154516
_symmetry_space_group_name_H-M "F 2 2 2"
_symmetry_group_IT_number 22
_symmetry_cell_setting 'orthorhombic'
loop_
_space_group_symop_operation_xyz
x,y,z
-x,-y,z
x,-y,-z
-x,y,-z
x,1/2+y,1/2+z
-x,1/2-y,1/2+z
x,1/2-y,1/2-z
-x,1/2+y,1/2-z
1/2+x,y,1/2+z
1/2-x,-y,1/2+z
1/2+x,-y,1/2-z
1/2-x,y,1/2-z
1/2+x,1/2+y,z
1/2-x,1/2-y,z
1/2+x,1/2-y,-z
1/2-x,1/2+y,-z
loop_
_atom_site_type_symbol
_atom_site_label
_atom_site_fract_x
_atom_site_fract_y
_atom_site_fract_z
Si Si1 0.728161 0.609093 0.943404
Si Si2 0.692423 0.477855 0.781449
Si Si3 0.500000 0.500000 0.804531
Si Si4 0.090893 0.314138 0.343691
Si Si5 0.139604 0.283206 0.983703
Si Si6 0.900038 0.134074 0.303550
O O1 0.722688 0.574186 0.841515
O O2 0.731262 0.500000 0.000000
O O3 0.792169 0.666155 0.970404
O O4 0.661574 0.658761 0.961414
O O5 0.750000 0.408829 0.750000
O O6 0.649080 0.393390 0.832059
O O7 0.652468 0.542660 0.709977
O O8 0.537322 0.404874 0.858110
O O9 0.456330 0.427265 0.741370
O O10 0.080365 0.250000 0.250000
O O11 0.106900 0.225786 0.421545
O O12 0.098206 0.334764 0.907101
O O13 0.888233 0.250000 0.250000
#
# Coordination Sequence:
#
# PCOD9328633 Si02
#       6
#    16  16   8  16  16  16
#     4  11  22  38  61 109 149 174 220 267 348 436
#     4  11  22  38  67 103 147 185 214 275 354 429
#     4  10  26  50  70  90 138 184 240 300 348 404
#     4  11  26  47  68 100 140 185 238 290 347 409
#     4  11  24  39  71 103 139 177 222 284 342 424
#     4  11  22  42  70  99 132 177 233 288 346 407
#
# _framework density 22.032195999999999
#
# number of rings (size 3 to 8) (size 9 to 14) (size 15 to 20)
#    0.000    1.091    5.455    0.545    2.545    0.727 
#    0.000    5.455    0.000    0.000    0.000    0.000 
#    0.000    0.000    0.000    0.000    0.000    0.000 
#
# Total GULP energy -122521.802739 kJ/mol
# GULP energy per Si atom -5569.172852 kJ/mol
# Density = 2.198205 g / cm^3
# Si number density = 22.032196 Si / 1000 Ang^3
#
#
#
# Elastic Constant Matrix: (Units=GPa)
#
#
# Indices 1 2 3 4 5 6 
#
# 1 82.4943 11.0116 3.5288 0.0000 0.0000 0.0000
# 2 11.0116 34.1077 22.4087 0.0000 0.0000 0.0000
# 3 3.5288 22.4087 109.4239 0.0000 0.0000 0.0000
# 4 0.0000 0.0000 0.0000 17.0836 0.0000 0.0000
# 5 0.0000 0.0000 0.0000 0.0000 14.6909 0.0000
# 6 0.0000 0.0000 0.0000 0.0000 0.0000 -20.6774
#
#
#
# Elastic Compliance Matrix: (Units=1/GPa)
#
#
# Indices 1 2 3 4 5 6 
#
# 1 0.012691 -0.004424 0.000497 0.000000 0.000000 0.000000
# 2 -0.004424 0.035419 -0.007111 0.000000 0.000000 0.000000
# 3 0.000497 -0.007111 0.010579 0.000000 0.000000 0.000000
# 4 0.000000 0.000000 0.000000 0.058536 0.000000 0.000000
# 5 0.000000 0.000000 0.000000 0.000000 0.068069 0.000000
# 6 0.000000 0.000000 0.000000 0.000000 0.000000 -0.048362
#
#
# Mechanical properties :
#
#
# Convention : Reuss Voigt Hill
#
# Bulk Modulus (GPa) = 27.31227 33.32492 30.31860
# Shear Modulus (GPa) = 29.20351 14.82451 22.01401
#
# Velocity S-wave (km/s) = 3.64468 2.59676 3.16440
# Velocity P-wave (km/s) = 5.48954 4.91419 5.20981
#
# Compressibility (1/GPa) = 0.03661358
#
# Stress axis : x y z
#
# Youngs Moduli (GPa) = 78.79422 28.23361 94.52738
#
# Poissons Ratio (x) = 0.12490 -0.04694
# Poissons Ratio (y) = 0.34856 0.67216
# Poissons Ratio (z) = -0.03913 0.20076
#
# Static dielectric constant tensor:
#      x y z
#    x 1.860410 0.000000 0.000000 
#    y 0.000000 1.886690 0.000000 
#    z 0.000000 0.000000 1.889160 
# 
# From -- ./inp_files/23662.got.cif
#   From: 2010.05.17/outbox.cif.g08.bks.cpg/sg22_12_cif.got.tgz:23662.got - 2010.06.03 23:40:54.
