data_PCOD9328686
_publ_section_title
;
Structure prediction by ZEFSAII (Michael W. Deem and Ramdas Pophale) SiO2 
 PCOD9328686
Probable space group: F 2 2 2
;
_chemical_formula_sum "Si O2"
_cell_formula_units_Z 116
_cell_length_a 11.617982
_cell_length_b 18.386451
_cell_length_c 25.932559
_cell_angle_alpha 90.000000
_cell_angle_beta 90.000000
_cell_angle_gamma 90.000000
_cell_volume 5539.543571
_symmetry_space_group_name_H-M "F 2 2 2"
_symmetry_group_IT_number 22
_symmetry_cell_setting 'orthorhombic'
loop_
_space_group_symop_operation_xyz
x,y,z
-x,-y,z
x,-y,-z
-x,y,-z
x,1/2+y,1/2+z
-x,1/2-y,1/2+z
x,1/2-y,1/2-z
-x,1/2+y,1/2-z
1/2+x,y,1/2+z
1/2-x,-y,1/2+z
1/2+x,-y,1/2-z
1/2-x,y,1/2-z
1/2+x,1/2+y,z
1/2-x,1/2-y,z
1/2+x,1/2-y,-z
1/2-x,1/2+y,-z
loop_
_atom_site_type_symbol
_atom_site_label
_atom_site_fract_x
_atom_site_fract_y
_atom_site_fract_z
Si Si1 0.778595 0.336084 0.437964
Si Si2 0.000000 0.500000 0.500000
Si Si3 0.413680 0.446100 0.197842
Si Si4 0.817567 0.102446 0.950299
Si Si5 0.011478 0.329500 0.372185
Si Si6 0.872068 0.017454 0.418412
Si Si7 0.851861 0.050419 0.686648
Si Si8 0.381388 0.721382 0.691409
O O1 0.750000 0.250000 0.429689
O O2 0.798544 0.348587 0.499039
O O3 0.687353 0.402881 0.426559
O O4 0.895754 0.346769 0.403927
O O5 0.918848 0.547726 0.465041
O O6 0.500000 0.500000 0.169887
O O7 0.473246 0.371251 0.182480
O O8 0.285001 0.446551 0.178820
O O9 0.392235 0.470830 0.256383
O O10 0.875583 0.149608 0.905424
O O11 0.710490 0.049079 0.937727
O O12 0.030009 0.248407 0.352192
O O13 0.885252 0.005434 0.357236
O O14 0.000000 0.000000 0.440049
O O15 0.885770 0.134836 0.686359
O O16 0.404593 0.750000 0.750000
O O17 0.250000 0.750000 0.681380
#
# Coordination Sequence:
#
# PCOD9328686 Si02
#       8
#    16   4  16  16  16  16  16  16
#     4  12  29  49  67 104 149 191 243 308 381 443
#     4  12  20  44  78 100 136 164 250 302 340 412
#     4  11  21  37  66 102 136 179 238 296 347 423
#     4  12  23  46  75 105 134 184 243 304 361 425
#     4  12  23  42  74 103 137 185 240 298 365 432
#     4  12  26  47  74 104 148 194 243 301 372 447
#     4  11  22  40  64 106 142 183 239 292 356 438
#     4  11  19  38  65 105 148 180 230 297 364 428
#
# _framework density 20.940353000000002
#
# number of rings (size 3 to 8) (size 9 to 14) (size 15 to 20)
#    0.000    0.414    6.897    2.069    2.897    2.759 
#    2.483    0.000    0.000    2.069    0.000    0.000 
#    0.000    0.000    0.000    0.000    0.000    0.000 
#
# Total GULP energy -161453.114314 kJ/mol
# GULP energy per Si atom -5567.348769 kJ/mol
# Density = 2.089269 g / cm^3
# Si number density = 20.940353 Si / 1000 Ang^3
#
#
#
# Elastic Constant Matrix: (Units=GPa)
#
#
# Indices 1 2 3 4 5 6 
#
# 1 132.4709 52.3242 33.5060 0.0000 0.0000 0.0000
# 2 52.3242 92.7467 24.1099 0.0000 0.0000 0.0000
# 3 33.5060 24.1099 102.6012 0.0000 0.0000 0.0000
# 4 0.0000 0.0000 0.0000 30.3474 0.0000 0.0000
# 5 0.0000 0.0000 0.0000 0.0000 82.1839 0.0000
# 6 0.0000 0.0000 0.0000 0.0000 0.0000 62.5115
#
#
#
# Elastic Compliance Matrix: (Units=1/GPa)
#
#
# Indices 1 2 3 4 5 6 
#
# 1 0.010117 -0.005164 -0.002090 0.000000 0.000000 0.000000
# 2 -0.005164 0.014120 -0.001631 0.000000 0.000000 0.000000
# 3 -0.002090 -0.001631 0.010812 0.000000 0.000000 0.000000
# 4 0.000000 0.000000 0.000000 0.032952 0.000000 0.000000
# 5 0.000000 0.000000 0.000000 0.000000 0.012168 0.000000
# 6 0.000000 0.000000 0.000000 0.000000 0.000000 0.015997
#
#
# Mechanical properties :
#
#
# Convention : Reuss Voigt Hill
#
# Bulk Modulus (GPa) = 57.88020 60.85545 59.36782
# Shear Modulus (GPa) = 41.77178 49.53381 45.65280
#
# Velocity S-wave (km/s) = 4.47116 4.86889 4.67426
# Velocity P-wave (km/s) = 7.37262 7.79311 7.58578
#
# Compressibility (1/GPa) = 0.01727707
#
# Stress axis : x y z
#
# Youngs Moduli (GPa) = 98.83904 70.82282 92.48561
#
# Poissons Ratio (x) = 0.36576 0.19333
# Poissons Ratio (y) = 0.51045 0.15088
# Poissons Ratio (z) = 0.20662 0.11554
#
# Static dielectric constant tensor:
#      x y z
#    x 1.781940 0.000000 0.000000 
#    y 0.000000 1.490630 0.000000 
#    z 0.000000 0.000000 1.681570 
# 
# From -- ./inp_files/52717.got.cif
#   From: 2010.05.17/outbox.cif.g08.bks.cpg/sg22_27_cif.got.tgz:52717.got - 2010.06.03 23:40:54.
