data_PCOD9328976
_publ_section_title
;
Structure prediction by ZEFSAII (Michael W. Deem and Ramdas Pophale) SiO2 
 PCOD9328976
Probable space group: F 2 2 2
;
_chemical_formula_sum "Si O2"
_cell_formula_units_Z 80
_cell_length_a 14.668430
_cell_length_b 20.899759
_cell_length_c 12.012641
_cell_angle_alpha 90.000000
_cell_angle_beta 90.000000
_cell_angle_gamma 90.000000
_cell_volume 3682.675132
_symmetry_space_group_name_H-M "F 2 2 2"
_symmetry_group_IT_number 22
_symmetry_cell_setting 'orthorhombic'
loop_
_space_group_symop_operation_xyz
x,y,z
-x,-y,z
x,-y,-z
-x,y,-z
x,1/2+y,1/2+z
-x,1/2-y,1/2+z
x,1/2-y,1/2-z
-x,1/2+y,1/2-z
1/2+x,y,1/2+z
1/2-x,-y,1/2+z
1/2+x,-y,1/2-z
1/2-x,y,1/2-z
1/2+x,1/2+y,z
1/2-x,1/2-y,z
1/2+x,1/2-y,-z
1/2-x,1/2+y,-z
loop_
_atom_site_type_symbol
_atom_site_label
_atom_site_fract_x
_atom_site_fract_y
_atom_site_fract_z
Si Si1 0.594156 0.134636 0.457036
Si Si2 0.266456 0.082844 0.369642
Si Si3 0.145010 0.734953 0.119208
Si Si4 0.897265 0.529057 0.721147
Si Si5 0.603779 0.409401 0.458634
O O1 0.500000 0.106505 0.500000
O O2 0.669086 0.122333 0.549509
O O3 0.586454 0.209435 0.436214
O O4 0.615534 0.095034 0.346162
O O5 0.250000 0.115285 0.250000
O O6 0.174384 0.075616 0.441621
O O7 0.324947 0.019959 0.333775
O O8 0.136413 0.750000 0.250000
O O9 0.250000 0.750000 0.089718
O O10 0.119310 0.663906 0.081749
O O11 0.880940 0.546873 0.849783
O O12 0.000000 0.500000 0.711065
O O13 0.500000 0.417082 0.500000
#
# Coordination Sequence:
#
# PCOD9328976 Si02
#       5
#    16  16  16  16  16
#     4  12  25  47  75 108 146 198 255 314 379 458
#     4  12  29  45  74 111 151 197 247 313 389 453
#     4  11  23  46  77 109 146 203 266 318 382 463
#     4  12  27  48  75 110 153 199 255 312 392 468
#     4  12  28  52  76 114 158 208 262 324 394 463
#
# _framework density 21.723337999999998
#
# number of rings (size 3 to 8) (size 9 to 14) (size 15 to 20)
#    0.000    0.200    6.000    2.400    5.600    2.000 
#    0.000    2.000    0.000    0.000    0.000    0.000 
#    0.000    0.000    0.000    0.000    0.000    0.000 
#
# Total GULP energy -111889.025600 kJ/mol
# GULP energy per Si atom -5594.451280 kJ/mol
# Density = 2.167390 g / cm^3
# Si number density = 21.723338 Si / 1000 Ang^3
#
#
#
# Elastic Constant Matrix: (Units=GPa)
#
#
# Indices 1 2 3 4 5 6 
#
# 1 127.2221 10.3034 61.5110 0.0000 0.0000 0.0000
# 2 10.3034 124.9966 43.7841 0.0000 0.0000 0.0000
# 3 61.5110 43.7841 156.0944 0.0000 0.0000 0.0000
# 4 0.0000 0.0000 0.0000 13.2752 0.0000 0.0000
# 5 0.0000 0.0000 0.0000 0.0000 41.0197 0.0000
# 6 0.0000 0.0000 0.0000 0.0000 0.0000 28.7139
#
#
#
# Elastic Compliance Matrix: (Units=1/GPa)
#
#
# Indices 1 2 3 4 5 6 
#
# 1 0.009751 0.000601 -0.004011 0.000000 0.000000 0.000000
# 2 0.000601 0.008909 -0.002736 0.000000 0.000000 0.000000
# 3 -0.004011 -0.002736 0.008754 0.000000 0.000000 0.000000
# 4 0.000000 0.000000 0.000000 0.075328 0.000000 0.000000
# 5 0.000000 0.000000 0.000000 0.000000 0.024379 0.000000
# 6 0.000000 0.000000 0.000000 0.000000 0.000000 0.034826
#
#
# Mechanical properties :
#
#
# Convention : Reuss Voigt Hill
#
# Bulk Modulus (GPa) = 66.12516 71.05670 68.59093
# Shear Modulus (GPa) = 27.88936 36.11608 32.00272
#
# Velocity S-wave (km/s) = 3.58696 4.08186 3.84239
# Velocity P-wave (km/s) = 6.90368 7.41595 7.16439
#
# Compressibility (1/GPa) = 0.01512284
#
# Stress axis : x y z
#
# Youngs Moduli (GPa) = 102.55432 112.24614 114.22785
#
# Poissons Ratio (x) = -0.06749 0.45818
# Poissons Ratio (y) = -0.06166 0.31252
# Poissons Ratio (z) = 0.41136 0.30709
#
# Static dielectric constant tensor:
#      x y z
#    x 1.818580 0.000000 0.000000 
#    y 0.000000 1.777110 0.000000 
#    z 0.000000 0.000000 1.782040 
# 
# From -- ./inp_files/19841.got.cif
#   From: 2010.05.17/outbox.cif.g08.bks.cpg/sg22_10_cif.got.tgz:19841.got - 2010.06.03 23:40:54.
