data_PCOD9328017
_publ_section_title
;
Structure prediction by ZEFSAII (Michael W. Deem and Ramdas Pophale) SiO2 
 PCOD9328017
Probable space group: F 2 2 2
;
_chemical_formula_sum "Si O2"
_cell_formula_units_Z 88
_cell_length_a 14.304314
_cell_length_b 24.368398
_cell_length_c 11.884419
_cell_angle_alpha 90.000000
_cell_angle_beta 90.000000
_cell_angle_gamma 90.000000
_cell_volume 4142.590159
_symmetry_space_group_name_H-M "F 2 2 2"
_symmetry_group_IT_number 22
_symmetry_cell_setting 'orthorhombic'
loop_
_space_group_symop_operation_xyz
x,y,z
-x,-y,z
x,-y,-z
-x,y,-z
x,1/2+y,1/2+z
-x,1/2-y,1/2+z
x,1/2-y,1/2-z
-x,1/2+y,1/2-z
1/2+x,y,1/2+z
1/2-x,-y,1/2+z
1/2+x,-y,1/2-z
1/2-x,y,1/2-z
1/2+x,1/2+y,z
1/2-x,1/2-y,z
1/2+x,1/2-y,-z
1/2-x,1/2+y,-z
loop_
_atom_site_type_symbol
_atom_site_label
_atom_site_fract_x
_atom_site_fract_y
_atom_site_fract_z
Si Si1 0.063335 0.816446 0.388262
Si Si2 0.901041 0.984651 0.367792
Si Si3 0.704292 0.910511 0.863141
Si Si4 0.217345 0.649001 0.562404
Si Si5 0.250000 0.750000 0.414213
Si Si6 0.389679 0.860193 0.784810
O O1 0.110658 0.876942 0.396532
O O2 0.155718 0.779502 0.364330
O O3 0.000000 0.803962 0.500000
O O4 0.984178 0.825398 0.294740
O O5 0.890047 0.921545 0.336638
O O6 0.905569 0.000000 0.500000
O O7 0.822527 0.027658 0.332606
O O8 0.000000 0.000000 0.314683
O O9 0.750000 0.885876 0.750000
O O10 0.766563 0.900606 0.974134
O O11 0.202424 0.701778 0.486005
O O12 0.309350 0.665188 0.635604
O O13 0.141719 0.636487 0.656328
#
# Coordination Sequence:
#
# PCOD9328017 Si02
#       6
#    16  16  16  16   8  16
#     4  11  20  45  68  95 134 183 237 304 346 425
#     4  11  20  34  66 101 128 184 236 278 354 427
#     4  11  23  39  65 100 150 178 231 298 354 431
#     4  10  23  42  63 103 138 178 239 298 358 425
#     4  10  22  41  71  96 132 176 241 295 364 422
#     4  11  21  39  70  95 140 180 237 296 354 426
#
# _framework density 21.242749
#
# number of rings (size 3 to 8) (size 9 to 14) (size 15 to 20)
#    0.000    1.273    7.273    0.000    2.545    1.455 
#    0.000   15.455    0.000    1.091    0.000    0.000 
#    0.000    0.000    0.000    0.000    0.000    0.000 
#
# Total GULP energy -122470.383557 kJ/mol
# GULP energy per Si atom -5566.835616 kJ/mol
# Density = 2.119440 g / cm^3
# Si number density = 21.242749 Si / 1000 Ang^3
#
#
#
# Elastic Constant Matrix: (Units=GPa)
#
#
# Indices 1 2 3 4 5 6 
#
# 1 129.4366 46.9576 69.1416 0.0000 0.0000 0.0000
# 2 46.9576 93.9595 18.6074 0.0000 0.0000 0.0000
# 3 69.1416 18.6074 113.6357 0.0000 0.0000 0.0000
# 4 0.0000 0.0000 0.0000 19.3219 0.0000 0.0000
# 5 0.0000 0.0000 0.0000 0.0000 168.0408 0.0000
# 6 0.0000 0.0000 0.0000 0.0000 0.0000 36.4768
#
#
#
# Elastic Compliance Matrix: (Units=1/GPa)
#
#
# Indices 1 2 3 4 5 6 
#
# 1 0.013624 -0.005340 -0.007415 0.000000 0.000000 0.000000
# 2 -0.005340 0.013093 0.001105 0.000000 0.000000 0.000000
# 3 -0.007415 0.001105 0.013131 0.000000 0.000000 0.000000
# 4 0.000000 0.000000 0.000000 0.051755 0.000000 0.000000
# 5 0.000000 0.000000 0.000000 0.000000 0.005951 0.000000
# 6 0.000000 0.000000 0.000000 0.000000 0.000000 0.027415
#
#
# Mechanical properties :
#
#
# Convention : Reuss Voigt Hill
#
# Bulk Modulus (GPa) = 60.43153 67.38279 63.90716
# Shear Modulus (GPa) = 32.51307 58.25626 45.38466
#
# Velocity S-wave (km/s) = 3.91647 5.24248 4.62722
# Velocity P-wave (km/s) = 6.99725 8.27249 7.66145
#
# Compressibility (1/GPa) = 0.01654765
#
# Stress axis : x y z
#
# Youngs Moduli (GPa) = 73.39887 76.37724 76.15692
#
# Poissons Ratio (x) = 0.40789 0.56472
# Poissons Ratio (y) = 0.39198 -0.08419
# Poissons Ratio (z) = 0.54426 -0.08443
#
# Static dielectric constant tensor:
#      x y z
#    x 1.836230 0.000000 0.000000 
#    y 0.000000 1.787660 0.000000 
#    z 0.000000 0.000000 1.810950 
# 
# From -- ./inp_files/19930.got.cif
#   From: 2010.05.17/outbox.cif.g08.bks.cpg/sg22_10_cif.got.tgz:19930.got - 2010.06.03 23:40:54.
