data_PCOD9328786
_publ_section_title
;
Structure prediction by ZEFSAII (Michael W. Deem and Ramdas Pophale) SiO2 
 PCOD9328786
Probable space group: F 2 2 2
;
_chemical_formula_sum "Si O2"
_cell_formula_units_Z 116
_cell_length_a 27.582440
_cell_length_b 9.221366
_cell_length_c 22.883764
_cell_angle_alpha 90.000000
_cell_angle_beta 90.000000
_cell_angle_gamma 90.000000
_cell_volume 5820.434444
_symmetry_space_group_name_H-M "F 2 2 2"
_symmetry_group_IT_number 22
_symmetry_cell_setting 'orthorhombic'
loop_
_space_group_symop_operation_xyz
x,y,z
-x,-y,z
x,-y,-z
-x,y,-z
x,1/2+y,1/2+z
-x,1/2-y,1/2+z
x,1/2-y,1/2-z
-x,1/2+y,1/2-z
1/2+x,y,1/2+z
1/2-x,-y,1/2+z
1/2+x,-y,1/2-z
1/2-x,y,1/2-z
1/2+x,1/2+y,z
1/2-x,1/2-y,z
1/2+x,1/2-y,-z
1/2-x,1/2+y,-z
loop_
_atom_site_type_symbol
_atom_site_label
_atom_site_fract_x
_atom_site_fract_y
_atom_site_fract_z
Si Si1 0.953457 0.412817 0.275649
Si Si2 0.165866 0.779575 0.070579
Si Si3 0.326601 0.530901 0.620317
Si Si4 0.860946 0.808084 0.064538
Si Si5 0.647580 0.926914 0.251141
Si Si6 0.500000 0.000000 0.500000
Si Si7 0.069165 0.067810 0.904711
Si Si8 0.215279 0.978881 0.859697
O O1 0.949315 0.250000 0.250000
O O2 0.903932 0.506475 0.270284
O O3 0.959247 0.407337 0.345430
O O4 0.000000 0.500000 0.250813
O O5 0.174544 0.612529 0.081568
O O6 0.115132 0.827631 0.098840
O O7 0.206159 0.870662 0.105667
O O8 0.156798 0.817776 0.002514
O O9 0.360944 0.643729 0.586329
O O10 0.345821 0.513240 0.685919
O O11 0.270401 0.570067 0.633402
O O12 0.818421 0.871904 0.104064
O O13 0.907118 0.908629 0.080828
O O14 0.647110 0.750000 0.250000
O O15 0.690928 0.977245 0.295072
O O16 0.533829 0.095571 0.458536
#
# Coordination Sequence:
#
# PCOD9328786 Si02
#       8
#    16  16  16  16  16   4  16  16
#     4  12  25  43  70 100 134 173 219 276 345 404
#     4  11  23  41  61  94 135 165 216 274 336 391
#     4  12  25  38  63  94 131 176 216 272 338 389
#     4  11  22  40  65  91 134 168 219 271 331 386
#     4  12  24  44  65  90 132 172 225 285 326 393
#     4  12  20  40  84  94 112 168 240 256 324 408
#     4  11  21  43  70  98 123 172 221 271 322 409
#     4  11  23  40  64  90 124 180 227 264 321 406
#
# _framework density 19.929784000000001
#
# number of rings (size 3 to 8) (size 9 to 14) (size 15 to 20)
#    0.000    0.552    6.207    4.138    0.000    3.862 
#    0.000    1.379    0.000    0.828    0.000    0.000 
#    0.000    0.000    0.000    0.000    0.000    0.000 
#
# Total GULP energy -161741.464974 kJ/mol
# GULP energy per Si atom -5577.291896 kJ/mol
# Density = 1.988442 g / cm^3
# Si number density = 19.929784 Si / 1000 Ang^3
#
#
#
# Elastic Constant Matrix: (Units=GPa)
#
#
# Indices 1 2 3 4 5 6 
#
# 1 70.8842 8.8622 3.6434 0.0000 0.0000 0.0000
# 2 8.8622 86.2607 19.2743 0.0000 0.0000 0.0000
# 3 3.6434 19.2743 101.7631 0.0000 0.0000 0.0000
# 4 0.0000 0.0000 0.0000 22.6909 0.0000 0.0000
# 5 0.0000 0.0000 0.0000 0.0000 42.6282 0.0000
# 6 0.0000 0.0000 0.0000 0.0000 0.0000 9.2590
#
#
#
# Elastic Compliance Matrix: (Units=1/GPa)
#
#
# Indices 1 2 3 4 5 6 
#
# 1 0.014297 -0.001414 -0.000244 0.000000 0.000000 0.000000
# 2 -0.001414 0.012245 -0.002269 0.000000 0.000000 0.000000
# 3 -0.000244 -0.002269 0.010265 0.000000 0.000000 0.000000
# 4 0.000000 0.000000 0.000000 0.044071 0.000000 0.000000
# 5 0.000000 0.000000 0.000000 0.000000 0.023459 0.000000
# 6 0.000000 0.000000 0.000000 0.000000 0.000000 0.108003
#
#
# Mechanical properties :
#
#
# Convention : Reuss Voigt Hill
#
# Bulk Modulus (GPa) = 34.53851 35.82977 35.18414
# Shear Modulus (GPa) = 21.75391 30.05749 25.90570
#
# Velocity S-wave (km/s) = 3.30741 3.88773 3.60925
# Velocity P-wave (km/s) = 5.65270 6.17816 5.92126
#
# Compressibility (1/GPa) = 0.02895319
#
# Stress axis : x y z
#
# Youngs Moduli (GPa) = 69.94537 81.66620 97.41685
#
# Poissons Ratio (x) = 0.11550 0.02377
# Poissons Ratio (y) = 0.09892 0.22100
# Poissons Ratio (z) = 0.01707 0.18527
#
# Static dielectric constant tensor:
#      x y z
#    x 1.734280 0.000000 0.000000 
#    y 0.000000 1.410160 0.000000 
#    z 0.000000 0.000000 1.745580 
# 
# From -- ./inp_files/47614.got.cif
#   From: 2010.05.17/outbox.cif.g08.bks.cpg/sg22_24_cif.got.tgz:47614.got - 2010.06.03 23:40:54.
