data_PCOD9328878
_publ_section_title
;
Structure prediction by ZEFSAII (Michael W. Deem and Ramdas Pophale) SiO2 
 PCOD9328878
Probable space group: F 2 2 2
;
_chemical_formula_sum "Si O2"
_cell_formula_units_Z 116
_cell_length_a 9.341892
_cell_length_b 21.185915
_cell_length_c 29.338338
_cell_angle_alpha 90.000000
_cell_angle_beta 90.000000
_cell_angle_gamma 90.000000
_cell_volume 5806.542049
_symmetry_space_group_name_H-M "F 2 2 2"
_symmetry_group_IT_number 22
_symmetry_cell_setting 'orthorhombic'
loop_
_space_group_symop_operation_xyz
x,y,z
-x,-y,z
x,-y,-z
-x,y,-z
x,1/2+y,1/2+z
-x,1/2-y,1/2+z
x,1/2-y,1/2-z
-x,1/2+y,1/2-z
1/2+x,y,1/2+z
1/2-x,-y,1/2+z
1/2+x,-y,1/2-z
1/2-x,y,1/2-z
1/2+x,1/2+y,z
1/2-x,1/2-y,z
1/2+x,1/2-y,-z
1/2-x,1/2+y,-z
loop_
_atom_site_type_symbol
_atom_site_label
_atom_site_fract_x
_atom_site_fract_y
_atom_site_fract_z
Si Si1 0.917797 0.743786 0.043281
Si Si2 0.557946 0.316149 0.863909
Si Si3 0.936087 0.288113 0.203040
Si Si4 0.846944 0.881192 0.337051
Si Si5 0.828960 0.508817 0.796114
Si Si6 0.540142 0.390056 0.426275
Si Si7 0.000000 0.500000 0.000000
Si Si8 0.766582 0.373905 0.354077
O O1 0.750000 0.750000 0.035674
O O2 0.954282 0.785275 0.086890
O O3 0.966824 0.671505 0.051532
O O4 0.000000 0.769082 0.000000
O O5 0.511021 0.261486 0.829913
O O6 0.719055 0.337184 0.854261
O O7 0.436561 0.369126 0.857790
O O8 0.916492 0.250000 0.250000
O O9 0.795852 0.319072 0.179514
O O10 0.049679 0.346363 0.199622
O O11 0.939209 0.903046 0.381481
O O12 0.777060 0.941134 0.313264
O O13 0.750000 0.527310 0.750000
O O14 0.787315 0.561069 0.832727
O O15 0.000000 0.500000 0.790803
O O16 0.558546 0.447761 0.462211
O O17 0.689148 0.368634 0.402995
#
# Coordination Sequence:
#
# PCOD9328878 Si02
#       8
#    16  16  16  16  16  16   4  16
#     4  12  25  43  69 103 140 174 219 274 347 416
#     4  12  25  42  68 104 140 171 221 276 344 410
#     4  11  24  40  68 100 137 183 227 275 334 401
#     4  11  24  46  69  92 140 180 220 282 333 395
#     4  12  27  46  66  93 130 182 238 275 327 399
#     4  11  22  44  67  97 127 174 221 272 338 393
#     4  12  24  40  80  98 112 168 248 268 316 428
#     4  11  26  44  69  97 139 179 219 287 339 389
#
# _framework density 19.977467000000001
#
# number of rings (size 3 to 8) (size 9 to 14) (size 15 to 20)
#    0.000    0.552    7.586    1.655    7.724    1.103 
#    0.000    0.000    0.000    0.828    0.000    0.000 
#    0.000    0.000    0.000    0.000    0.000    0.000 
#
# Total GULP energy -161857.257512 kJ/mol
# GULP energy per Si atom -5581.284742 kJ/mol
# Density = 1.993200 g / cm^3
# Si number density = 19.977467 Si / 1000 Ang^3
#
#
#
# Elastic Constant Matrix: (Units=GPa)
#
#
# Indices 1 2 3 4 5 6 
#
# 1 81.1340 18.7712 30.1552 0.0000 0.0000 0.0000
# 2 18.7712 80.9681 22.8121 0.0000 0.0000 0.0000
# 3 30.1552 22.8121 108.9161 0.0000 0.0000 0.0000
# 4 0.0000 0.0000 0.0000 48.9121 0.0000 0.0000
# 5 0.0000 0.0000 0.0000 0.0000 27.9057 0.0000
# 6 0.0000 0.0000 0.0000 0.0000 0.0000 20.3834
#
#
#
# Elastic Compliance Matrix: (Units=1/GPa)
#
#
# Indices 1 2 3 4 5 6 
#
# 1 0.014135 -0.002311 -0.003429 0.000000 0.000000 0.000000
# 2 -0.002311 0.013503 -0.002188 0.000000 0.000000 0.000000
# 3 -0.003429 -0.002188 0.010589 0.000000 0.000000 0.000000
# 4 0.000000 0.000000 0.000000 0.020445 0.000000 0.000000
# 5 0.000000 0.000000 0.000000 0.000000 0.035835 0.000000
# 6 0.000000 0.000000 0.000000 0.000000 0.000000 0.049060
#
#
# Mechanical properties :
#
#
# Convention : Reuss Voigt Hill
#
# Bulk Modulus (GPa) = 44.70347 46.05503 45.37925
# Shear Modulus (GPa) = 29.96178 32.72554 31.34366
#
# Velocity S-wave (km/s) = 3.87690 4.05176 3.96530
# Velocity P-wave (km/s) = 6.51659 6.70765 6.61281
#
# Compressibility (1/GPa) = 0.02236963
#
# Stress axis : x y z
#
# Youngs Moduli (GPa) = 70.74887 74.05875 94.43571
#
# Poissons Ratio (x) = 0.17112 0.32386
# Poissons Ratio (y) = 0.16348 0.20666
# Poissons Ratio (z) = 0.24263 0.16207
#
# Static dielectric constant tensor:
#      x y z
#    x 1.698490 0.000000 0.000000 
#    y 0.000000 1.729480 0.000000 
#    z 0.000000 0.000000 1.687010 
# 
# From -- ./inp_files/52118.got.cif
#   From: 2010.05.17/outbox.cif.g08.bks.cpg/sg22_27_cif.got.tgz:52118.got - 2010.06.03 23:40:54.
