data_PCOD9328490
_publ_section_title
;
Structure prediction by ZEFSAII (Michael W. Deem and Ramdas Pophale) SiO2 
 PCOD9328490
Probable space group: F 2 2 2
;
_chemical_formula_sum "Si O2"
_cell_formula_units_Z 68
_cell_length_a 18.124106
_cell_length_b 9.437866
_cell_length_c 20.547411
_cell_angle_alpha 90.000000
_cell_angle_beta 90.000000
_cell_angle_gamma 90.000000
_cell_volume 3514.693906
_symmetry_space_group_name_H-M "F 2 2 2"
_symmetry_group_IT_number 22
_symmetry_cell_setting 'orthorhombic'
loop_
_space_group_symop_operation_xyz
x,y,z
-x,-y,z
x,-y,-z
-x,y,-z
x,1/2+y,1/2+z
-x,1/2-y,1/2+z
x,1/2-y,1/2-z
-x,1/2+y,1/2-z
1/2+x,y,1/2+z
1/2-x,-y,1/2+z
1/2+x,-y,1/2-z
1/2-x,y,1/2-z
1/2+x,1/2+y,z
1/2-x,1/2-y,z
1/2+x,1/2-y,-z
1/2-x,1/2+y,-z
loop_
_atom_site_type_symbol
_atom_site_label
_atom_site_fract_x
_atom_site_fract_y
_atom_site_fract_z
Si Si1 0.205689 0.605808 0.061019
Si Si2 0.500000 0.500000 0.000000
Si Si3 0.042641 0.226020 0.562924
Si Si4 0.281866 0.095339 0.178350
Si Si5 0.956178 0.857000 0.309142
O O1 0.250000 0.750000 0.048944
O O2 0.120669 0.651598 0.071827
O O3 0.234970 0.522573 0.124460
O O4 0.209931 0.500000 0.000000
O O5 0.548144 0.607090 0.956073
O O6 0.000000 0.165325 0.500000
O O7 0.991399 0.205904 0.625254
O O8 0.250000 0.060986 0.250000
O O9 0.250000 0.250000 0.159970
O O10 0.369957 0.111270 0.182066
O O11 0.965149 0.750000 0.250000
O O12 0.000000 0.000000 0.294678
#
# Coordination Sequence:
#
# PCOD9328490 Si02
#       5
#    16   4  16  16  16
#     4  12  27  44  71 106 142 187 240 293 363 428
#     4   8  24  40  74 104 140 176 218 304 356 408
#     4  10  24  44  72 101 142 178 236 298 351 422
#     4  11  24  48  71 100 144 190 230 296 360 421
#     4  12  25  43  73 106 136 188 238 287 358 425
#
# _framework density 19.347346000000002
#
# number of rings (size 3 to 8) (size 9 to 14) (size 15 to 20)
#    0.706    0.235    4.706    2.118    3.294    4.235 
#    0.000    0.000    0.000    0.000    0.000    0.000 
#    0.000    0.000    0.000    0.000    0.000    0.000 
#
# Total GULP energy -94979.266325 kJ/mol
# GULP energy per Si atom -5587.015666 kJ/mol
# Density = 1.930331 g / cm^3
# Si number density = 19.347346 Si / 1000 Ang^3
#
#
#
# Elastic Constant Matrix: (Units=GPa)
#
#
# Indices 1 2 3 4 5 6 
#
# 1 120.9813 45.9190 41.9470 0.0000 0.0000 0.0000
# 2 45.9190 150.7150 66.6939 0.0000 0.0000 0.0000
# 3 41.9470 66.6939 138.8725 0.0000 0.0000 0.0000
# 4 0.0000 0.0000 0.0000 44.1927 0.0000 0.0000
# 5 0.0000 0.0000 0.0000 0.0000 33.0038 0.0000
# 6 0.0000 0.0000 0.0000 0.0000 0.0000 37.1717
#
#
#
# Elastic Compliance Matrix: (Units=1/GPa)
#
#
# Indices 1 2 3 4 5 6 
#
# 1 0.009736 -0.002114 -0.001925 0.000000 0.000000 0.000000
# 2 -0.002114 0.008885 -0.003628 0.000000 0.000000 0.000000
# 3 -0.001925 -0.003628 0.009525 0.000000 0.000000 0.000000
# 4 0.000000 0.000000 0.000000 0.022628 0.000000 0.000000
# 5 0.000000 0.000000 0.000000 0.000000 0.030300 0.000000
# 6 0.000000 0.000000 0.000000 0.000000 0.000000 0.026902
#
#
# Mechanical properties :
#
#
# Convention : Reuss Voigt Hill
#
# Bulk Modulus (GPa) = 78.06625 79.96542 79.01583
# Shear Modulus (GPa) = 39.19076 39.94091 39.56584
#
# Velocity S-wave (km/s) = 4.50559 4.54851 4.52710
# Velocity P-wave (km/s) = 8.21612 8.30701 8.26169
#
# Compressibility (1/GPa) = 0.01280963
#
# Stress axis : x y z
#
# Youngs Moduli (GPa) = 102.71396 112.55187 104.98763
#
# Poissons Ratio (x) = 0.23796 0.20214
# Poissons Ratio (y) = 0.21716 0.38093
# Poissons Ratio (z) = 0.19776 0.40838
#
# Static dielectric constant tensor:
#      x y z
#    x 1.646950 0.000000 0.000000 
#    y 0.000000 1.677490 0.000000 
#    z 0.000000 0.000000 1.669430 
# 
# From -- ./inp_files/41560.got.cif
#   From: 2010.05.17/outbox.cif.g08.bks.cpg/sg22_21_cif.got.tgz:41560.got - 2010.06.03 23:40:54.
