data_PCOD9328705
_publ_section_title
;
Structure prediction by ZEFSAII (Michael W. Deem and Ramdas Pophale) SiO2 
 PCOD9328705
Probable space group: F 2 2 2
;
_chemical_formula_sum "Si O2"
_cell_formula_units_Z 116
_cell_length_a 7.929896
_cell_length_b 23.840179
_cell_length_c 30.294889
_cell_angle_alpha 90.000000
_cell_angle_beta 90.000000
_cell_angle_gamma 90.000000
_cell_volume 5727.253010
_symmetry_space_group_name_H-M "F 2 2 2"
_symmetry_group_IT_number 22
_symmetry_cell_setting 'orthorhombic'
loop_
_space_group_symop_operation_xyz
x,y,z
-x,-y,z
x,-y,-z
-x,y,-z
x,1/2+y,1/2+z
-x,1/2-y,1/2+z
x,1/2-y,1/2-z
-x,1/2+y,1/2-z
1/2+x,y,1/2+z
1/2-x,-y,1/2+z
1/2+x,-y,1/2-z
1/2-x,y,1/2-z
1/2+x,1/2+y,z
1/2-x,1/2-y,z
1/2+x,1/2-y,-z
1/2-x,1/2+y,-z
loop_
_atom_site_type_symbol
_atom_site_label
_atom_site_fract_x
_atom_site_fract_y
_atom_site_fract_z
Si Si1 0.160476 0.635633 0.123373
Si Si2 0.609507 0.702087 0.109382
Si Si3 0.935890 0.729472 0.812652
Si Si4 0.193619 0.412598 0.097883
Si Si5 0.687385 0.973727 0.594550
Si Si6 0.817733 0.804825 0.955528
Si Si7 0.750000 0.250000 0.750000
Si Si8 0.802824 0.423609 0.497757
O O1 0.109689 0.668934 0.166905
O O2 0.299642 0.585808 0.120299
O O3 0.208744 0.683686 0.088481
O O4 0.993936 0.606228 0.106022
O O5 0.750000 0.750000 0.106002
O O6 0.494901 0.724262 0.150359
O O7 0.688782 0.639506 0.113660
O O8 0.503273 0.700803 0.064217
O O9 0.750000 0.750000 0.796147
O O10 0.105997 0.722490 0.782479
O O11 0.219024 0.474618 0.117829
O O12 0.224592 0.424129 0.045966
O O13 0.756256 0.958668 0.545069
O O14 0.500000 0.000000 0.590395
O O15 0.750000 0.750000 0.978499
O O16 0.793425 0.859352 0.983721
O O17 0.000000 0.437521 0.500000
#
# Coordination Sequence:
#
# PCOD9328705 Si02
#       8
#    16  16  16  16  16  16   4  16
#     4  11  22  40  61  89 124 170 216 274 323 388
#     4  12  20  37  65  90 126 172 214 272 325 397
#     4  12  23  43  72  99 148 170 203 254 333 405
#     4  12  22  36  57  86 124 170 234 290 336 376
#     4  11  23  37  59  80 123 170 238 283 332 382
#     4  11  20  37  53  79 118 168 224 266 333 388
#     4  12  26  44  68 122 140 168 194 244 332 436
#     4  11  22  36  53  77 117 174 225 293 344 370
#
# _framework density 20.254037
#
# number of rings (size 3 to 8) (size 9 to 14) (size 15 to 20)
#    0.000    0.552    7.586    1.862    0.000    2.759 
#    2.483    2.759    0.000    0.000    0.000    0.000 
#   49.655    0.000    0.000    0.000    0.000    0.000 
#
# Total GULP energy -161635.845625 kJ/mol
# GULP energy per Si atom -5573.649849 kJ/mol
# Density = 2.020794 g / cm^3
# Si number density = 20.254037 Si / 1000 Ang^3
#
#
#
# Elastic Constant Matrix: (Units=GPa)
#
#
# Indices 1 2 3 4 5 6 
#
# 1 86.7205 25.4994 13.8809 0.0000 0.0000 0.0000
# 2 25.4994 157.7204 32.7658 0.0000 0.0000 0.0000
# 3 13.8809 32.7658 54.4896 0.0000 0.0000 0.0000
# 4 0.0000 0.0000 0.0000 -1.6649 0.0000 0.0000
# 5 0.0000 0.0000 0.0000 0.0000 11.4555 0.0000
# 6 0.0000 0.0000 0.0000 0.0000 0.0000 36.9152
#
#
#
# Elastic Compliance Matrix: (Units=1/GPa)
#
#
# Indices 1 2 3 4 5 6 
#
# 1 0.012338 -0.001533 -0.002221 0.000000 0.000000 0.000000
# 2 -0.001533 0.007436 -0.004081 0.000000 0.000000 0.000000
# 3 -0.002221 -0.004081 0.021372 0.000000 0.000000 0.000000
# 4 0.000000 0.000000 0.000000 -0.600633 0.000000 0.000000
# 5 0.000000 0.000000 0.000000 0.000000 0.087294 0.000000
# 6 0.000000 0.000000 0.000000 0.000000 0.000000 0.027089
#
#
# Mechanical properties :
#
#
# Convention : Reuss Voigt Hill
#
# Bulk Modulus (GPa) = 39.25367 49.24696 44.25032
# Shear Modulus (GPa) = -11.87813 24.46011 6.29099
#
# Velocity S-wave (km/s) = -2.42432 3.47892 1.76431
# Velocity P-wave (km/s) = 3.40387 6.36432 5.10348
#
# Compressibility (1/GPa) = 0.02547532
#
# Stress axis : x y z
#
# Youngs Moduli (GPa) = 81.05280 134.48070 46.79062
#
# Poissons Ratio (x) = 0.20620 0.10392
# Poissons Ratio (y) = 0.12428 0.19095
# Poissons Ratio (z) = 0.18001 0.54879
#
# Static dielectric constant tensor:
#      x y z
#    x 1.892340 0.000000 0.000000 
#    y 0.000000 1.791810 0.000000 
#    z 0.000000 0.000000 1.757000 
# 
# From -- ./inp_files/55667.got.cif
#   From: 2010.05.17/outbox.cif.g08.bks.cpg/sg22_28_cif.got.tgz:55667.got - 2010.06.03 23:40:54.
