data_PCOD9328575
_publ_section_title
;
Structure prediction by ZEFSAII (Michael W. Deem and Ramdas Pophale) SiO2 
 PCOD9328575
Probable space group: F 2 2 2
;
_chemical_formula_sum "Si O2"
_cell_formula_units_Z 56
_cell_length_a 7.646949
_cell_length_b 29.314701
_cell_length_c 11.624408
_cell_angle_alpha 90.000000
_cell_angle_beta 90.000000
_cell_angle_gamma 90.000000
_cell_volume 2605.820566
_symmetry_space_group_name_H-M "F 2 2 2"
_symmetry_group_IT_number 22
_symmetry_cell_setting 'orthorhombic'
loop_
_space_group_symop_operation_xyz
x,y,z
-x,-y,z
x,-y,-z
-x,y,-z
x,1/2+y,1/2+z
-x,1/2-y,1/2+z
x,1/2-y,1/2-z
-x,1/2+y,1/2-z
1/2+x,y,1/2+z
1/2-x,-y,1/2+z
1/2+x,-y,1/2-z
1/2-x,y,1/2-z
1/2+x,1/2+y,z
1/2-x,1/2-y,z
1/2+x,1/2-y,-z
1/2-x,1/2+y,-z
loop_
_atom_site_type_symbol
_atom_site_label
_atom_site_fract_x
_atom_site_fract_y
_atom_site_fract_z
Si Si1 0.938330 0.727359 0.365383
Si Si2 0.500000 0.596105 0.500000
Si Si3 0.456317 0.551929 0.260455
Si Si4 0.137124 0.624884 0.600836
O O1 0.027622 0.750000 0.250000
O O2 0.750000 0.750000 0.368696
O O3 0.910974 0.673543 0.344019
O O4 0.000000 0.732232 0.500000
O O5 0.481404 0.562845 0.393004
O O6 0.328430 0.624701 0.540139
O O7 0.500000 0.500000 0.229680
O O8 0.250000 0.561616 0.250000
O O9 0.583774 0.585185 0.189195
O O10 0.000000 0.617492 0.500000
#
# Coordination Sequence:
#
# PCOD9328575 Si02
#       4
#    16   8  16  16
#     4  10  25  45  70 105 143 188 246 305 375 442
#     4  12  25  44  76 100 148 194 238 302 369 426
#     4  12  26  46  71 108 147 190 246 303 362 443
#     4  11  25  48  72 105 145 194 246 301 370 440
#
# _framework density 21.490351
#
# number of rings (size 3 to 8) (size 9 to 14) (size 15 to 20)
#    0.000    0.857    2.857    3.000   10.000    1.143 
#    0.000    0.000    0.000    0.000    0.000    0.000 
#    0.000    0.000    0.000    0.000    0.000    0.000 
#
# Total GULP energy -78023.519626 kJ/mol
# GULP energy per Si atom -5573.108545 kJ/mol
# Density = 2.144144 g / cm^3
# Si number density = 21.490351 Si / 1000 Ang^3
#
#
#
# Elastic Constant Matrix: (Units=GPa)
#
#
# Indices 1 2 3 4 5 6 
#
# 1 132.6425 34.2617 52.1381 0.0000 0.0000 0.0000
# 2 34.2617 167.4244 90.1905 0.0000 0.0000 0.0000
# 3 52.1381 90.1905 161.6545 0.0000 0.0000 0.0000
# 4 0.0000 0.0000 0.0000 -46.9362 0.0000 0.0000
# 5 0.0000 0.0000 0.0000 0.0000 37.3519 0.0000
# 6 0.0000 0.0000 0.0000 0.0000 0.0000 38.6463
#
#
#
# Elastic Compliance Matrix: (Units=1/GPa)
#
#
# Indices 1 2 3 4 5 6 
#
# 1 0.008651 -0.000382 -0.002577 0.000000 0.000000 0.000000
# 2 -0.000382 0.008556 -0.004650 0.000000 0.000000 0.000000
# 3 -0.002577 -0.004650 0.009612 0.000000 0.000000 0.000000
# 4 0.000000 0.000000 0.000000 -0.021305 0.000000 0.000000
# 5 0.000000 0.000000 0.000000 0.000000 0.026772 0.000000
# 6 0.000000 0.000000 0.000000 0.000000 0.000000 0.025876
#
#
# Mechanical properties :
#
#
# Convention : Reuss Voigt Hill
#
# Bulk Modulus (GPa) = 86.20911 90.54466 88.37688
# Shear Modulus (GPa) = 64.72770 24.82114 44.77442
#
# Velocity S-wave (km/s) = 5.49407 3.40220 4.56945
# Velocity P-wave (km/s) = 8.96932 7.59325 8.30982
#
# Compressibility (1/GPa) = 0.01159970
#
# Stress axis : x y z
#
# Youngs Moduli (GPa) = 115.59802 116.87422 104.03944
#
# Poissons Ratio (x) = 0.04466 0.26810
# Poissons Ratio (y) = 0.04417 0.48383
# Poissons Ratio (z) = 0.29788 0.54352
#
# Static dielectric constant tensor:
#      x y z
#    x 1.927450 0.000000 0.000000 
#    y 0.000000 1.793730 0.000000 
#    z 0.000000 0.000000 1.737210 
# 
# From -- ./inp_files/8353.got.cif
#   From: 2010.05.17/outbox.cif.g08.bks.cpg/sg22_5_cif.got.tgz:8353.got - 2010.06.03 23:40:54.
