data_PCOD9328063
_publ_section_title
;
Structure prediction by ZEFSAII (Michael W. Deem and Ramdas Pophale) SiO2 
 PCOD9328063
Probable space group: F 2 2 2
;
_chemical_formula_sum "Si O2"
_cell_formula_units_Z 64
_cell_length_a 15.825582
_cell_length_b 15.825438
_cell_length_c 11.684889
_cell_angle_alpha 90.000000
_cell_angle_beta 90.000000
_cell_angle_gamma 90.000000
_cell_volume 2926.442670
_symmetry_space_group_name_H-M "F 2 2 2"
_symmetry_group_IT_number 22
_symmetry_cell_setting 'orthorhombic'
loop_
_space_group_symop_operation_xyz
x,y,z
-x,-y,z
x,-y,-z
-x,y,-z
x,1/2+y,1/2+z
-x,1/2-y,1/2+z
x,1/2-y,1/2-z
-x,1/2+y,1/2-z
1/2+x,y,1/2+z
1/2-x,-y,1/2+z
1/2+x,-y,1/2-z
1/2-x,y,1/2-z
1/2+x,1/2+y,z
1/2-x,1/2-y,z
1/2+x,1/2-y,-z
1/2-x,1/2+y,-z
loop_
_atom_site_type_symbol
_atom_site_label
_atom_site_fract_x
_atom_site_fract_y
_atom_site_fract_z
Si Si1 0.413941 0.299467 0.072047
Si Si2 0.065365 0.376756 0.176857
Si Si3 0.876757 0.434633 0.176855
Si Si4 0.299468 0.086059 0.572048
O O1 0.423718 0.351538 0.190193
O O2 0.401832 0.202135 0.105286
O O3 0.500000 0.308729 0.000000
O O4 0.338205 0.338204 0.999998
O O5 0.110245 0.465622 0.153758
O O6 0.965620 0.389746 0.153759
O O7 0.797864 0.401835 0.105282
O O8 0.851535 0.423718 0.309804
O O9 0.308734 0.000000 0.500000
#
# Coordination Sequence:
#
# PCOD9328063 Si02
#       4
#    16  16  16  16
#     4  11  22  40  70 103 144 187 237 294 368 425
#     4  10  22  42  71 103 140 189 246 296 350 436
#     4  10  22  42  71 103 140 189 246 296 350 436
#     4  11  22  40  70 103 144 187 237 294 368 425
#
# _framework density 21.869554999999998
#
# number of rings (size 3 to 8) (size 9 to 14) (size 15 to 20)
#    0.000    1.500    5.000    0.000    0.000    2.500 
#    0.000    7.500    0.000    0.000    0.000    0.000 
#    0.000    0.000    0.000    0.000    0.000    0.000 
#
# Total GULP energy -89659.824081 kJ/mol
# GULP energy per Si atom -5603.739005 kJ/mol
# Density = 2.181978 g / cm^3
# Si number density = 21.869555 Si / 1000 Ang^3
#
#
#
# Elastic Constant Matrix: (Units=GPa)
#
#
# Indices 1 2 3 4 5 6 
#
# 1 136.9619 84.0876 74.6759 0.0000 0.0000 0.0000
# 2 84.0876 136.9411 74.6721 0.0000 0.0000 0.0000
# 3 74.6759 74.6721 121.6531 0.0000 0.0000 0.0000
# 4 0.0000 0.0000 0.0000 40.5915 0.0000 0.0000
# 5 0.0000 0.0000 0.0000 0.0000 40.5937 0.0000
# 6 0.0000 0.0000 0.0000 0.0000 0.0000 13.6683
#
#
#
# Elastic Compliance Matrix: (Units=1/GPa)
#
#
# Indices 1 2 3 4 5 6 
#
# 1 0.013322 -0.005593 -0.004744 0.000000 0.000000 0.000000
# 2 -0.005593 0.013324 -0.004745 0.000000 0.000000 0.000000
# 3 -0.004744 -0.004745 0.014045 0.000000 0.000000 0.000000
# 4 0.000000 0.000000 0.000000 0.024636 0.000000 0.000000
# 5 0.000000 0.000000 0.000000 0.000000 0.024634 0.000000
# 6 0.000000 0.000000 0.000000 0.000000 0.000000 0.073162
#
#
# Mechanical properties :
#
#
# Convention : Reuss Voigt Hill
#
# Bulk Modulus (GPa) = 95.00599 95.82523 95.41561
# Shear Modulus (GPa) = 25.40673 29.77876 27.59274
#
# Velocity S-wave (km/s) = 3.41213 3.69406 3.55589
# Velocity P-wave (km/s) = 7.68505 7.88078 7.78353
#
# Compressibility (1/GPa) = 0.01052565
#
# Stress axis : x y z
#
# Youngs Moduli (GPa) = 75.06329 75.04994 71.19864
#
# Poissons Ratio (x) = 0.41977 0.33780
# Poissons Ratio (y) = 0.41985 0.33786
# Poissons Ratio (z) = 0.35614 0.35614
#
# Static dielectric constant tensor:
#      x y z
#    x 1.752650 0.000000 0.000000 
#    y 0.000000 1.752650 0.000000 
#    z 0.000000 0.000000 1.806890 
# 
# From -- ./inp_files/19351.got.cif
#   From: 2010.05.17/outbox.cif.g08.bks.cpg/sg22_10_cif.got.tgz:19351.got - 2010.06.03 23:40:54.
