data_PCOD9328378
_publ_section_title
;
Structure prediction by ZEFSAII (Michael W. Deem and Ramdas Pophale) SiO2 
 PCOD9328378
Probable space group: F 2 2 2
;
_chemical_formula_sum "Si O2"
_cell_formula_units_Z 64
_cell_length_a 9.470859
_cell_length_b 9.785889
_cell_length_c 27.297940
_cell_angle_alpha 90.000000
_cell_angle_beta 90.000000
_cell_angle_gamma 90.000000
_cell_volume 2529.994233
_symmetry_space_group_name_H-M "F 2 2 2"
_symmetry_group_IT_number 22
_symmetry_cell_setting 'orthorhombic'
loop_
_space_group_symop_operation_xyz
x,y,z
-x,-y,z
x,-y,-z
-x,y,-z
x,1/2+y,1/2+z
-x,1/2-y,1/2+z
x,1/2-y,1/2-z
-x,1/2+y,1/2-z
1/2+x,y,1/2+z
1/2-x,-y,1/2+z
1/2+x,-y,1/2-z
1/2-x,y,1/2-z
1/2+x,1/2+y,z
1/2-x,1/2-y,z
1/2+x,1/2-y,-z
1/2-x,1/2+y,-z
loop_
_atom_site_type_symbol
_atom_site_label
_atom_site_fract_x
_atom_site_fract_y
_atom_site_fract_z
Si Si1 0.186750 0.400228 0.625253
Si Si2 0.579213 0.235280 0.871148
Si Si3 0.637717 0.044276 0.787745
Si Si4 0.814989 0.399791 0.955416
O O1 0.250000 0.250000 0.613422
O O2 0.267369 0.452544 0.674497
O O3 0.218628 0.507222 0.581397
O O4 0.022369 0.362614 0.631237
O O5 0.750000 0.250000 0.869925
O O6 0.555889 0.149812 0.920954
O O7 0.555902 0.146372 0.823602
O O8 0.750000 0.100716 0.750000
O O9 0.500000 0.000000 0.756855
O O10 0.750000 0.250000 0.970882
O O11 0.843118 0.500000 0.000000
#
# Coordination Sequence:
#
# PCOD9328378 Si02
#       4
#    16  16  16  16
#     4  11  23  47  77 104 162 207 260 325 395 472
#     4  10  24  46  72 105 151 210 257 318 389 467
#     4  11  25  44  71 114 156 203 261 322 404 475
#     4  10  23  45  75 115 154 202 264 324 400 468
#
# _framework density 25.296500999999999
#
# number of rings (size 3 to 8) (size 9 to 14) (size 15 to 20)
#    0.000    1.500    2.500    0.750    3.500    9.000 
#    0.000   20.000    0.000    0.000    0.000    0.000 
#    0.000    0.000    0.000    0.000    0.000    0.000 
#
# Total GULP energy -89233.227949 kJ/mol
# GULP energy per Si atom -5577.076747 kJ/mol
# Density = 2.523893 g / cm^3
# Si number density = 25.296501 Si / 1000 Ang^3
#
#
#
# Elastic Constant Matrix: (Units=GPa)
#
#
# Indices 1 2 3 4 5 6 
#
# 1 189.8024 68.5182 60.0536 0.0000 0.0000 0.0000
# 2 68.5182 199.7984 56.5024 0.0000 0.0000 0.0000
# 3 60.0536 56.5024 117.1262 0.0000 0.0000 0.0000
# 4 0.0000 0.0000 0.0000 401.9906 0.0000 0.0000
# 5 0.0000 0.0000 0.0000 0.0000 2.5077 0.0000
# 6 0.0000 0.0000 0.0000 0.0000 0.0000 49.6994
#
#
#
# Elastic Compliance Matrix: (Units=1/GPa)
#
#
# Indices 1 2 3 4 5 6 
#
# 1 0.006669 -0.001529 -0.002682 0.000000 0.000000 0.000000
# 2 -0.001529 0.006146 -0.002181 0.000000 0.000000 0.000000
# 3 -0.002682 -0.002181 0.010965 0.000000 0.000000 0.000000
# 4 0.000000 0.000000 0.000000 0.002488 0.000000 0.000000
# 5 0.000000 0.000000 0.000000 0.000000 0.398768 0.000000
# 6 0.000000 0.000000 0.000000 0.000000 0.000000 0.020121
#
#
# Mechanical properties :
#
#
# Convention : Reuss Voigt Hill
#
# Bulk Modulus (GPa) = 90.93578 97.43060 94.18319
# Shear Modulus (GPa) = 10.83175 112.28307 61.55741
#
# Velocity S-wave (km/s) = 2.07152 6.66957 4.93834
# Velocity P-wave (km/s) = 6.46124 9.89494 8.35636
#
# Compressibility (1/GPa) = 0.01099677
#
# Stress axis : x y z
#
# Youngs Moduli (GPa) = 149.94661 162.70526 91.19822
#
# Poissons Ratio (x) = 0.24871 0.24459
# Poissons Ratio (y) = 0.22921 0.19892
# Poissons Ratio (z) = 0.40215 0.35489
#
# Static dielectric constant tensor:
#      x y z
#    x 1.265920 0.000000 0.000000 
#    y 0.000000 2.185950 0.000000 
#    z 0.000000 0.000000 2.064070 
# 
# From -- ./inp_files/55346.got.cif
#   From: 2010.05.17/outbox.cif.g08.bks.cpg/sg22_28_cif.got.tgz:55346.got - 2010.06.03 23:40:54.
