data_PCOD9328892
_publ_section_title
;
Structure prediction by ZEFSAII (Michael W. Deem and Ramdas Pophale) SiO2 
 PCOD9328892
Probable space group: F 2 2 2
;
_chemical_formula_sum "Si O2"
_cell_formula_units_Z 108
_cell_length_a 14.546401
_cell_length_b 29.618002
_cell_length_c 11.483925
_cell_angle_alpha 90.000000
_cell_angle_beta 90.000000
_cell_angle_gamma 90.000000
_cell_volume 4947.680662
_symmetry_space_group_name_H-M "F 2 2 2"
_symmetry_group_IT_number 22
_symmetry_cell_setting 'orthorhombic'
loop_
_space_group_symop_operation_xyz
x,y,z
-x,-y,z
x,-y,-z
-x,y,-z
x,1/2+y,1/2+z
-x,1/2-y,1/2+z
x,1/2-y,1/2-z
-x,1/2+y,1/2-z
1/2+x,y,1/2+z
1/2-x,-y,1/2+z
1/2+x,-y,1/2-z
1/2-x,y,1/2-z
1/2+x,1/2+y,z
1/2-x,1/2-y,z
1/2+x,1/2-y,-z
1/2-x,1/2+y,-z
loop_
_atom_site_type_symbol
_atom_site_label
_atom_site_fract_x
_atom_site_fract_y
_atom_site_fract_z
Si Si1 0.874068 0.867167 0.629899
Si Si2 0.500000 0.000000 0.500000
Si Si3 0.750000 0.017441 0.750000
Si Si4 0.794389 0.202414 0.101694
Si Si5 0.736518 0.085840 0.960198
Si Si6 0.127146 0.941916 0.167512
Si Si7 0.179389 0.324941 0.349376
Si Si8 0.983446 0.696756 0.742176
O O1 0.780183 0.836684 0.628586
O O2 0.860065 0.896278 0.512525
O O3 0.887120 0.901162 0.740341
O O4 0.953533 0.829744 0.641378
O O5 0.550380 0.964455 0.586069
O O6 0.736139 0.046257 0.866532
O O7 0.835765 0.984347 0.761042
O O8 0.750000 0.250000 0.134530
O O9 0.891848 0.193220 0.162580
O O10 0.813437 0.204672 0.964627
O O11 0.787270 0.126195 0.892686
O O12 0.794804 0.072726 0.074550
O O13 0.250000 0.309779 0.250000
O O14 0.075067 0.325661 0.306890
O O15 0.002118 0.750000 0.750000
#
# Coordination Sequence:
#
# PCOD9328892 Si02
#       8
#    16   4   8  16  16  16  16  16
#     4  11  24  44  74 106 142 187 237 297 357 420
#     4  12  28  40  68 110 148 178 232 304 350 428
#     4  12  22  42  74 104 138 188 238 284 364 432
#     4  11  23  44  71 104 141 183 238 294 349 418
#     4  11  22  46  71 102 137 190 234 290 359 431
#     4  12  24  42  72 106 141 180 238 292 356 425
#     4  11  27  46  69  99 144 193 232 286 357 425
#     4  12  25  43  72 108 141 185 242 295 345 419
#
# _framework density 21.828410999999999
#
# number of rings (size 3 to 8) (size 9 to 14) (size 15 to 20)
#    0.000    0.593    5.185    3.556    4.148    0.000 
#    0.000    2.963    0.000    0.889    0.000    0.000 
#    0.000    0.000    0.000    0.000    0.000    0.000 
#
# Total GULP energy -150805.549050 kJ/mol
# GULP energy per Si atom -5585.390706 kJ/mol
# Density = 2.177873 g / cm^3
# Si number density = 21.828411 Si / 1000 Ang^3
#
#
#
# Elastic Constant Matrix: (Units=GPa)
#
#
# Indices 1 2 3 4 5 6 
#
# 1 98.6312 21.1643 37.6573 0.0000 0.0000 0.0000
# 2 21.1643 122.1306 32.8542 0.0000 0.0000 0.0000
# 3 37.6573 32.8542 78.1083 0.0000 0.0000 0.0000
# 4 0.0000 0.0000 0.0000 6.1082 0.0000 0.0000
# 5 0.0000 0.0000 0.0000 0.0000 35.2525 0.0000
# 6 0.0000 0.0000 0.0000 0.0000 0.0000 6.4834
#
#
#
# Elastic Compliance Matrix: (Units=1/GPa)
#
#
# Indices 1 2 3 4 5 6 
#
# 1 0.012467 -0.000613 -0.005753 0.000000 0.000000 0.000000
# 2 -0.000613 0.009263 -0.003601 0.000000 0.000000 0.000000
# 3 -0.005753 -0.003601 0.017091 0.000000 0.000000 0.000000
# 4 0.000000 0.000000 0.000000 0.163713 0.000000 0.000000
# 5 0.000000 0.000000 0.000000 0.000000 0.028367 0.000000
# 6 0.000000 0.000000 0.000000 0.000000 0.000000 0.154240
#
#
# Mechanical properties :
#
#
# Convention : Reuss Voigt Hill
#
# Bulk Modulus (GPa) = 52.94412 53.58018 53.26215
# Shear Modulus (GPa) = 12.15456 23.38179 17.76818
#
# Velocity S-wave (km/s) = 2.36227 3.27641 2.85615
# Velocity P-wave (km/s) = 5.63452 6.23799 5.94392
#
# Compressibility (1/GPa) = 0.01888784
#
# Stress axis : x y z
#
# Youngs Moduli (GPa) = 80.21424 107.95903 58.51146
#
# Poissons Ratio (x) = 0.06617 0.33659
# Poissons Ratio (y) = 0.04916 0.21068
# Poissons Ratio (z) = 0.46144 0.38872
#
# Static dielectric constant tensor:
#      x y z
#    x 1.818470 0.000000 0.000000 
#    y 0.000000 1.874870 0.000000 
#    z 0.000000 0.000000 1.941250 
# 
# From -- ./inp_files/20333.got.cif
#   From: 2010.05.17/outbox.cif.g08.bks.cpg/sg22_11_cif.got.tgz:20333.got - 2010.06.03 23:40:54.
