data_PCOD9328123
_publ_section_title
;
Structure prediction by ZEFSAII (Michael W. Deem and Ramdas Pophale) SiO2 
 PCOD9328123
Probable space group: F 2 2 2
;
_chemical_formula_sum "Si O2"
_cell_formula_units_Z 104
_cell_length_a 10.393761
_cell_length_b 28.056657
_cell_length_c 17.932603
_cell_angle_alpha 90.000000
_cell_angle_beta 90.000000
_cell_angle_gamma 90.000000
_cell_volume 5229.401450
_symmetry_space_group_name_H-M "F 2 2 2"
_symmetry_group_IT_number 22
_symmetry_cell_setting 'orthorhombic'
loop_
_space_group_symop_operation_xyz
x,y,z
-x,-y,z
x,-y,-z
-x,y,-z
x,1/2+y,1/2+z
-x,1/2-y,1/2+z
x,1/2-y,1/2-z
-x,1/2+y,1/2-z
1/2+x,y,1/2+z
1/2-x,-y,1/2+z
1/2+x,-y,1/2-z
1/2-x,y,1/2-z
1/2+x,1/2+y,z
1/2-x,1/2-y,z
1/2+x,1/2-y,-z
1/2-x,1/2+y,-z
loop_
_atom_site_type_symbol
_atom_site_label
_atom_site_fract_x
_atom_site_fract_y
_atom_site_fract_z
Si Si1 0.750000 0.750000 0.401808
Si Si2 0.750000 0.600744 0.750000
Si Si3 0.025700 0.775145 0.151650
Si Si4 0.514192 0.444355 0.167797
Si Si5 0.093441 0.828468 0.353355
Si Si6 0.101041 0.856352 0.748364
Si Si7 0.297714 0.673581 0.026172
Si Si8 0.500000 0.407813 0.000000
O O1 0.884914 0.748751 0.359803
O O2 0.731815 0.795374 0.454490
O O3 0.653372 0.570732 0.800600
O O4 0.822142 0.636249 0.804555
O O5 0.988359 0.819526 0.204216
O O6 0.103784 0.727067 0.170888
O O7 0.102928 0.797838 0.081527
O O8 0.500000 0.500000 0.183663
O O9 0.421186 0.407922 0.213568
O O10 0.498315 0.435319 0.078997
O O11 0.160816 0.831834 0.433140
O O12 0.953111 0.850028 0.335412
O O13 0.250000 0.843176 0.750000
O O14 0.374207 0.626075 0.004958
#
# Coordination Sequence:
#
# PCOD9328123 Si02
#       8
#     8   8  16  16  16  16  16   8
#     4  12  22  34  53  83 128 172 228 254 324 404
#     4  10  22  44  65 102 132 162 231 278 336 408
#     4  12  22  36  56  88 128 180 218 261 326 401
#     4  11  24  42  72  98 125 170 222 292 353 410
#     4  11  22  36  61  88 128 171 215 262 326 396
#     4  11  24  43  61  94 135 171 221 278 341 409
#     4  12  21  35  58  87 127 172 221 276 324 395
#     4  12  21  44  62  94 132 164 224 290 339 408
#
# _framework density 19.887551999999999
#
# number of rings (size 3 to 8) (size 9 to 14) (size 15 to 20)
#    0.000    0.615    6.154    2.538    1.077    1.846 
#    0.000    0.000    0.000    0.000    0.000    0.000 
#    0.000    0.000    0.000    0.000    0.000    0.000 
#
# Total GULP energy -145037.295318 kJ/mol
# GULP energy per Si atom -5578.357512 kJ/mol
# Density = 1.984229 g / cm^3
# Si number density = 19.887552 Si / 1000 Ang^3
#
#
#
# Elastic Constant Matrix: (Units=GPa)
#
#
# Indices 1 2 3 4 5 6 
#
# 1 76.7162 27.8161 5.1969 0.0000 0.0000 0.0000
# 2 27.8161 144.5472 40.5969 0.0000 0.0000 0.0000
# 3 5.1969 40.5969 33.0369 0.0000 0.0000 0.0000
# 4 0.0000 0.0000 0.0000 51.5843 0.0000 0.0000
# 5 0.0000 0.0000 0.0000 0.0000 13.4286 0.0000
# 6 0.0000 0.0000 0.0000 0.0000 0.0000 19.0692
#
#
#
# Elastic Compliance Matrix: (Units=1/GPa)
#
#
# Indices 1 2 3 4 5 6 
#
# 1 0.014075 -0.003186 0.001702 0.000000 0.000000 0.000000
# 2 -0.003186 0.011285 -0.013367 0.000000 0.000000 0.000000
# 3 0.001702 -0.013367 0.046427 0.000000 0.000000 0.000000
# 4 0.000000 0.000000 0.000000 0.019386 0.000000 0.000000
# 5 0.000000 0.000000 0.000000 0.000000 0.074468 0.000000
# 6 0.000000 0.000000 0.000000 0.000000 0.000000 0.052441
#
#
# Mechanical properties :
#
#
# Convention : Reuss Voigt Hill
#
# Bulk Modulus (GPa) = 23.76180 44.61336 34.18758
# Shear Modulus (GPa) = 19.09755 28.86243 23.97999
#
# Velocity S-wave (km/s) = 3.10219 3.81370 3.47620
# Velocity P-wave (km/s) = 4.98051 6.47101 5.77406
#
# Compressibility (1/GPa) = 0.04208435
#
# Stress axis : x y z
#
# Youngs Moduli (GPa) = 71.04725 88.60940 21.53913
#
# Poissons Ratio (x) = 0.28235 -0.03665
# Poissons Ratio (y) = 0.22639 0.28791
# Poissons Ratio (z) = -0.12089 1.18442
#
# Static dielectric constant tensor:
#      x y z
#    x 1.847170 0.000000 0.000000 
#    y 0.000000 1.679480 0.000000 
#    z 0.000000 0.000000 1.776110 
# 
# From -- ./inp_files/36410.got.cif
#   From: 2010.05.17/outbox.cif.g08.bks.cpg/sg22_19_cif.got.tgz:36410.got - 2010.06.03 23:40:54.
