data_PCOD9328564
_publ_section_title
;
Structure prediction by ZEFSAII (Michael W. Deem and Ramdas Pophale) SiO2 
 PCOD9328564
Probable space group: F 2 2 2
;
_chemical_formula_sum "Si O2"
_cell_formula_units_Z 64
_cell_length_a 9.217799
_cell_length_b 15.126749
_cell_length_c 21.908720
_cell_angle_alpha 90.000000
_cell_angle_beta 90.000000
_cell_angle_gamma 90.000000
_cell_volume 3054.849643
_symmetry_space_group_name_H-M "F 2 2 2"
_symmetry_group_IT_number 22
_symmetry_cell_setting 'orthorhombic'
loop_
_space_group_symop_operation_xyz
x,y,z
-x,-y,z
x,-y,-z
-x,y,-z
x,1/2+y,1/2+z
-x,1/2-y,1/2+z
x,1/2-y,1/2-z
-x,1/2+y,1/2-z
1/2+x,y,1/2+z
1/2-x,-y,1/2+z
1/2+x,-y,1/2-z
1/2-x,y,1/2-z
1/2+x,1/2+y,z
1/2-x,1/2-y,z
1/2+x,1/2-y,-z
1/2-x,1/2+y,-z
loop_
_atom_site_type_symbol
_atom_site_label
_atom_site_fract_x
_atom_site_fract_y
_atom_site_fract_z
Si Si1 0.218229 0.012049 0.432329
Si Si2 0.250000 0.597957 0.250000
Si Si3 0.888751 0.687538 0.444721
Si Si4 0.000000 0.000000 0.328715
Si Si5 0.654161 0.331035 0.125221
O O1 0.337180 0.086741 0.443445
O O2 0.106668 0.045659 0.379669
O O3 0.153409 0.000000 0.500000
O O4 0.291515 0.920767 0.408558
O O5 0.118013 0.545768 0.215970
O O6 0.319379 0.653567 0.196015
O O7 0.750000 0.750000 0.447138
O O8 0.000000 0.704241 0.500000
O O9 0.989214 0.695794 0.385754
O O10 0.750000 0.250000 0.102110
#
# Coordination Sequence:
#
# PCOD9328564 Si02
#       5
#    16   8  16   8  16
#     4  11  24  44  75 106 146 187 237 289 370 424
#     4  10  25  46  76  98 151 188 251 290 364 404
#     4  12  27  44  74 107 149 185 239 295 367 435
#     4  10  25  42  74 108 139 190 244 298 342 438
#     4  11  25  47  73 106 146 190 242 295 356 426
#
# _framework density 20.950295000000001
#
# number of rings (size 3 to 8) (size 9 to 14) (size 15 to 20)
#    0.000    1.000    2.500    2.250   14.000    0.000 
#    0.000    0.000    0.000    0.000    0.000    0.000 
#    0.000    0.000    0.000    0.000    0.000    0.000 
#
# Total GULP energy -89221.830233 kJ/mol
# GULP energy per Si atom -5576.364390 kJ/mol
# Density = 2.090261 g / cm^3
# Si number density = 20.950295 Si / 1000 Ang^3
#
#
#
# Elastic Constant Matrix: (Units=GPa)
#
#
# Indices 1 2 3 4 5 6 
#
# 1 177.2946 64.5451 76.6496 0.0000 0.0000 0.0000
# 2 64.5451 116.4069 49.8604 0.0000 0.0000 0.0000
# 3 76.6496 49.8604 153.3616 0.0000 0.0000 0.0000
# 4 0.0000 0.0000 0.0000 7.4483 0.0000 0.0000
# 5 0.0000 0.0000 0.0000 0.0000 21.8846 0.0000
# 6 0.0000 0.0000 0.0000 0.0000 0.0000 24.6104
#
#
#
# Elastic Compliance Matrix: (Units=1/GPa)
#
#
# Indices 1 2 3 4 5 6 
#
# 1 0.008109 -0.003207 -0.003010 0.000000 0.000000 0.000000
# 2 -0.003207 0.011249 -0.002054 0.000000 0.000000 0.000000
# 3 -0.003010 -0.002054 0.008693 0.000000 0.000000 0.000000
# 4 0.000000 0.000000 0.000000 0.134259 0.000000 0.000000
# 5 0.000000 0.000000 0.000000 0.000000 0.045694 0.000000
# 6 0.000000 0.000000 0.000000 0.000000 0.000000 0.040633
#
#
# Mechanical properties :
#
#
# Convention : Reuss Voigt Hill
#
# Bulk Modulus (GPa) = 86.89847 92.13038 89.51442
# Shear Modulus (GPa) = 18.58623 27.85586 23.22104
#
# Velocity S-wave (km/s) = 2.98175 3.65035 3.33286
# Velocity P-wave (km/s) = 7.30910 7.86371 7.59147
#
# Compressibility (1/GPa) = 0.01150768
#
# Stress axis : x y z
#
# Youngs Moduli (GPa) = 123.31474 88.89932 115.03531
#
# Poissons Ratio (x) = 0.28510 0.34630
# Poissons Ratio (y) = 0.39547 0.23631
# Poissons Ratio (z) = 0.37122 0.18262
#
# Static dielectric constant tensor:
#      x y z
#    x 1.807950 0.000000 0.000000 
#    y 0.000000 1.791640 0.000000 
#    z 0.000000 0.000000 1.794450 
# 
# From -- ./inp_files/9816.got.cif
#   From: 2010.05.17/outbox.cif.g08.bks.cpg/sg22_5_cif.got.tgz:9816.got - 2010.06.03 23:40:54.
