data_PCOD9328572
_publ_section_title
;
Structure prediction by ZEFSAII (Michael W. Deem and Ramdas Pophale) SiO2 
 PCOD9328572
Probable space group: F 2 2 2
;
_chemical_formula_sum "Si O2"
_cell_formula_units_Z 96
_cell_length_a 21.466083
_cell_length_b 14.381057
_cell_length_c 14.550417
_cell_angle_alpha 90.000000
_cell_angle_beta 90.000000
_cell_angle_gamma 90.000000
_cell_volume 4491.785944
_symmetry_space_group_name_H-M "F 2 2 2"
_symmetry_group_IT_number 22
_symmetry_cell_setting 'orthorhombic'
loop_
_space_group_symop_operation_xyz
x,y,z
-x,-y,z
x,-y,-z
-x,y,-z
x,1/2+y,1/2+z
-x,1/2-y,1/2+z
x,1/2-y,1/2-z
-x,1/2+y,1/2-z
1/2+x,y,1/2+z
1/2-x,-y,1/2+z
1/2+x,-y,1/2-z
1/2-x,y,1/2-z
1/2+x,1/2+y,z
1/2-x,1/2-y,z
1/2+x,1/2-y,-z
1/2-x,1/2+y,-z
loop_
_atom_site_type_symbol
_atom_site_label
_atom_site_fract_x
_atom_site_fract_y
_atom_site_fract_z
Si Si1 0.561344 0.438575 0.632831
Si Si2 0.146058 0.256637 0.651421
Si Si3 0.118844 0.348783 0.297156
Si Si4 0.750000 0.435850 0.750000
Si Si5 0.746748 0.606064 0.616603
Si Si6 0.933433 0.240916 0.970784
Si Si7 0.831351 0.500000 0.000000
O O1 0.500000 0.500000 0.619813
O O2 0.576479 0.421178 0.740153
O O3 0.555481 0.338675 0.582246
O O4 0.621056 0.486132 0.584474
O O5 0.112064 0.250000 0.750000
O O6 0.185149 0.349821 0.626248
O O7 0.199028 0.178008 0.662179
O O8 0.103442 0.237841 0.564193
O O9 0.106835 0.250000 0.250000
O O10 0.189508 0.376222 0.273743
O O11 0.102853 0.329808 0.403261
O O12 0.743300 0.507475 0.665860
O O13 0.714944 0.586847 0.518003
O O14 0.000000 0.201200 0.000000
#
# Coordination Sequence:
#
# PCOD9328572 Si02
#       7
#    16  16  16   8  16  16   8
#     4  11  23  42  72  99 132 172 238 293 338 404
#     4  11  23  44  68  99 139 184 228 288 356 413
#     4  10  25  45  67 101 139 181 222 291 367 420
#     4  12  21  43  70 100 138 176 238 281 355 434
#     4  11  23  39  67 102 138 173 228 289 348 419
#     4  11  25  46  66  97 137 185 230 280 358 427
#     4  12  21  38  64 112 131 172 230 296 340 406
#
# _framework density 21.372344999999999
#
# number of rings (size 3 to 8) (size 9 to 14) (size 15 to 20)
#    0.000    1.000    5.000    2.000    2.333    2.000 
#    6.000    0.000    0.000    0.000    0.000    0.000 
#    0.000    0.000    0.000    0.000    0.000    0.000 
#
# Total GULP energy -133966.992165 kJ/mol
# GULP energy per Si atom -5581.958007 kJ/mol
# Density = 2.132370 g / cm^3
# Si number density = 21.372345 Si / 1000 Ang^3
#
#
#
# Elastic Constant Matrix: (Units=GPa)
#
#
# Indices 1 2 3 4 5 6 
#
# 1 98.8331 25.9704 52.1264 0.0000 0.0000 0.0000
# 2 25.9704 52.5705 32.2540 0.0000 0.0000 0.0000
# 3 52.1264 32.2540 133.7123 0.0000 0.0000 0.0000
# 4 0.0000 0.0000 0.0000 19.3379 0.0000 0.0000
# 5 0.0000 0.0000 0.0000 0.0000 27.7993 0.0000
# 6 0.0000 0.0000 0.0000 0.0000 0.0000 27.6010
#
#
#
# Elastic Compliance Matrix: (Units=1/GPa)
#
#
# Indices 1 2 3 4 5 6 
#
# 1 0.013422 -0.004014 -0.004264 0.000000 0.000000 0.000000
# 2 -0.004014 0.023527 -0.004110 0.000000 0.000000 0.000000
# 3 -0.004264 -0.004110 0.010132 0.000000 0.000000 0.000000
# 4 0.000000 0.000000 0.000000 0.051712 0.000000 0.000000
# 5 0.000000 0.000000 0.000000 0.000000 0.035972 0.000000
# 6 0.000000 0.000000 0.000000 0.000000 0.000000 0.036231
#
#
# Mechanical properties :
#
#
# Convention : Reuss Voigt Hill
#
# Bulk Modulus (GPa) = 44.83481 56.20195 50.51838
# Shear Modulus (GPa) = 24.60536 26.59866 25.60201
#
# Velocity S-wave (km/s) = 3.39672 3.53163 3.46483
# Velocity P-wave (km/s) = 6.03383 6.55618 6.30042
#
# Compressibility (1/GPa) = 0.02230410
#
# Stress axis : x y z
#
# Youngs Moduli (GPa) = 74.50528 42.50433 98.69247
#
# Poissons Ratio (x) = 0.17063 0.42083
# Poissons Ratio (y) = 0.29910 0.40565
# Poissons Ratio (z) = 0.31769 0.17470
#
# Static dielectric constant tensor:
#      x y z
#    x 1.775990 0.000000 0.000000 
#    y 0.000000 1.787320 0.000000 
#    z 0.000000 0.000000 1.890320 
# 
# From -- ./inp_files/31582.got.cif
#   From: 2010.05.17/outbox.cif.g08.bks.cpg/sg22_16_cif.got.tgz:31582.got - 2010.06.03 23:40:54.
