data_PCOD9328619
_publ_section_title
;
Structure prediction by ZEFSAII (Michael W. Deem and Ramdas Pophale) SiO2 
 PCOD9328619
Probable space group: F 2 2 2
;
_chemical_formula_sum "Si O2"
_cell_formula_units_Z 112
_cell_length_a 12.979630
_cell_length_b 26.480508
_cell_length_c 14.659449
_cell_angle_alpha 90.000000
_cell_angle_beta 90.000000
_cell_angle_gamma 90.000000
_cell_volume 5038.558111
_symmetry_space_group_name_H-M "F 2 2 2"
_symmetry_group_IT_number 22
_symmetry_cell_setting 'orthorhombic'
loop_
_space_group_symop_operation_xyz
x,y,z
-x,-y,z
x,-y,-z
-x,y,-z
x,1/2+y,1/2+z
-x,1/2-y,1/2+z
x,1/2-y,1/2-z
-x,1/2+y,1/2-z
1/2+x,y,1/2+z
1/2-x,-y,1/2+z
1/2+x,-y,1/2-z
1/2-x,y,1/2-z
1/2+x,1/2+y,z
1/2-x,1/2-y,z
1/2+x,1/2-y,-z
1/2-x,1/2+y,-z
loop_
_atom_site_type_symbol
_atom_site_label
_atom_site_fract_x
_atom_site_fract_y
_atom_site_fract_z
Si Si1 0.738248 0.538428 0.585862
Si Si2 0.775953 0.691927 0.654080
Si Si3 0.857248 0.279781 0.628579
Si Si4 0.518735 0.343774 0.218898
Si Si5 0.045726 0.675392 0.906124
Si Si6 0.913615 0.042685 0.239035
Si Si7 0.742745 0.358685 0.521238
O O1 0.719385 0.500000 0.500000
O O2 0.834149 0.529297 0.655981
O O3 0.646259 0.545234 0.661993
O O4 0.761889 0.588636 0.527044
O O5 0.750000 0.664607 0.750000
O O6 0.750000 0.750000 0.662443
O O7 0.897864 0.681173 0.651861
O O8 0.715745 0.675051 0.565915
O O9 0.750000 0.250000 0.647759
O O10 0.926571 0.234513 0.590922
O O11 0.836298 0.326512 0.561475
O O12 0.914548 0.310453 0.707735
O O13 0.533244 0.333898 0.325545
O O14 0.531448 0.404039 0.212087
O O15 0.153347 0.643805 0.902748
O O16 0.000000 0.657124 0.000000
O O17 0.000000 0.000000 0.246210
#
# Coordination Sequence:
#
# PCOD9328619 Si02
#       7
#    16  16  16  16  16  16  16
#     4  11  26  50  79 107 149 192 251 325 390 452
#     4  11  23  38  68 101 139 184 237 296 366 432
#     4  10  26  45  66 105 152 197 247 296 355 452
#     4  12  26  44  74 104 149 198 239 310 373 441
#     4  11  24  39  67 103 144 188 243 289 362 441
#     4  11  27  51  76 114 148 190 258 320 384 459
#     4  11  24  45  67  98 146 192 237 305 363 434
#
# _framework density 22.228581999999999
#
# number of rings (size 3 to 8) (size 9 to 14) (size 15 to 20)
#    0.000    1.000    1.429    4.286   12.000    4.571 
#    0.000    0.000    0.000    0.000    0.000    0.000 
#    0.000    0.000    0.000    0.000    0.000    0.000 
#
# Total GULP energy -155933.107179 kJ/mol
# GULP energy per Si atom -5569.039542 kJ/mol
# Density = 2.217799 g / cm^3
# Si number density = 22.228582 Si / 1000 Ang^3
#
#
#
# Elastic Constant Matrix: (Units=GPa)
#
#
# Indices 1 2 3 4 5 6 
#
# 1 63.8115 31.3643 12.6982 0.0000 0.0000 0.0000
# 2 31.3643 113.8270 20.6122 0.0000 0.0000 0.0000
# 3 12.6982 20.6122 93.8904 0.0000 0.0000 0.0000
# 4 0.0000 0.0000 0.0000 31.8556 0.0000 0.0000
# 5 0.0000 0.0000 0.0000 0.0000 33.5703 0.0000
# 6 0.0000 0.0000 0.0000 0.0000 0.0000 -12.8639
#
#
#
# Elastic Compliance Matrix: (Units=1/GPa)
#
#
# Indices 1 2 3 4 5 6 
#
# 1 0.018307 -0.004786 -0.001425 0.000000 0.000000 0.000000
# 2 -0.004786 0.010400 -0.001636 0.000000 0.000000 0.000000
# 3 -0.001425 -0.001636 0.011203 0.000000 0.000000 0.000000
# 4 0.000000 0.000000 0.000000 0.031392 0.000000 0.000000
# 5 0.000000 0.000000 0.000000 0.000000 0.029788 0.000000
# 6 0.000000 0.000000 0.000000 0.000000 0.000000 -0.077737
#
#
# Mechanical properties :
#
#
# Convention : Reuss Voigt Hill
#
# Bulk Modulus (GPa) = 41.29618 44.54205 42.91912
# Shear Modulus (GPa) = 106.11175 24.30267 65.20721
#
# Velocity S-wave (km/s) = 6.91667 3.31011 5.42204
# Velocity P-wave (km/s) = 9.07774 5.88989 7.65167
#
# Compressibility (1/GPa) = 0.02421531
#
# Stress axis : x y z
#
# Youngs Moduli (GPa) = 54.62286 96.15057 89.26492
#
# Poissons Ratio (x) = 0.46021 0.12722
# Poissons Ratio (y) = 0.26145 0.14603
# Poissons Ratio (z) = 0.07785 0.15729
#
# Static dielectric constant tensor:
#      x y z
#    x 1.930990 0.000000 0.000000 
#    y 0.000000 1.828770 0.000000 
#    z 0.000000 0.000000 1.933200 
# 
# From -- ./inp_files/29618.got.cif
#   From: 2010.05.17/outbox.cif.g08.bks.cpg/sg22_15_cif.got.tgz:29618.got - 2010.06.03 23:40:54.
