data_PCOD9328461
_publ_section_title
;
Structure prediction by ZEFSAII (Michael W. Deem and Ramdas Pophale) SiO2 
 PCOD9328461
Probable space group: F 2 2 2
;
_chemical_formula_sum "Si O2"
_cell_formula_units_Z 44
_cell_length_a 14.871280
_cell_length_b 27.021537
_cell_length_c 4.675405
_cell_angle_alpha 90.000000
_cell_angle_beta 90.000000
_cell_angle_gamma 90.000000
_cell_volume 1878.787387
_symmetry_space_group_name_H-M "F 2 2 2"
_symmetry_group_IT_number 22
_symmetry_cell_setting 'orthorhombic'
loop_
_space_group_symop_operation_xyz
x,y,z
-x,-y,z
x,-y,-z
-x,y,-z
x,1/2+y,1/2+z
-x,1/2-y,1/2+z
x,1/2-y,1/2-z
-x,1/2+y,1/2-z
1/2+x,y,1/2+z
1/2-x,-y,1/2+z
1/2+x,-y,1/2-z
1/2-x,y,1/2-z
1/2+x,1/2+y,z
1/2-x,1/2-y,z
1/2+x,1/2-y,-z
1/2-x,1/2+y,-z
loop_
_atom_site_type_symbol
_atom_site_label
_atom_site_fract_x
_atom_site_fract_y
_atom_site_fract_z
Si Si1 0.250000 0.818388 0.250000
Si Si2 0.250000 0.250000 0.250000
Si Si3 0.911353 0.887887 0.855991
Si Si4 0.355232 0.449172 0.332456
O O1 0.206351 0.786388 0.510579
O O2 0.173162 0.851574 0.106004
O O3 0.897081 0.905891 0.530979
O O4 0.900649 0.938971 0.031512
O O5 0.000000 0.864759 0.000000
O O6 0.367826 0.500000 0.500000
O O7 0.250000 0.444710 0.250000
#
# Coordination Sequence:
#
# PCOD9328461 Si02
#       4
#     8   4  16  16
#     4  11  22  48  68 105 136 175 240 292 370 453
#     4  10  24  42  80  96 132 186 216 294 384 450
#     4  12  25  42  70 100 141 189 235 299 354 423
#     4  12  23  41  64  98 143 196 244 292 344 409
#
# _framework density 23.419360999999999
#
# number of rings (size 3 to 8) (size 9 to 14) (size 15 to 20)
#    0.000    0.364    3.636    6.545    0.000    4.364 
#    0.000    3.636    0.000    0.000    0.000    0.000 
#    0.000    0.000    0.000    0.000    0.000    0.000 
#
# Total GULP energy -61252.178264 kJ/mol
# GULP energy per Si atom -5568.379842 kJ/mol
# Density = 2.336606 g / cm^3
# Si number density = 23.419361 Si / 1000 Ang^3
#
#
#
# Elastic Constant Matrix: (Units=GPa)
#
#
# Indices 1 2 3 4 5 6 
#
# 1 143.6798 36.7985 17.3071 -0.0009 -0.0098 -0.0001
# 2 36.7985 84.6578 37.2822 0.0023 -0.0004 -0.0001
# 3 17.3071 37.2822 149.5106 -0.0027 -0.0187 -0.0003
# 4 -0.0009 0.0023 -0.0027 21.8445 -0.0001 -0.0003
# 5 -0.0098 -0.0004 -0.0187 -0.0001 38.8987 0.0000
# 6 -0.0001 -0.0001 -0.0003 -0.0003 0.0000 -3.1119
#
#
#
# Elastic Compliance Matrix: (Units=1/GPa)
#
#
# Indices 1 2 3 4 5 6 
#
# 1 0.007832 -0.003376 -0.000065 0.000001 0.000002 0.000000
# 2 -0.003376 0.014725 -0.003281 -0.000002 -0.000002 0.000000
# 3 -0.000065 -0.003281 0.007514 0.000001 0.000004 -0.000001
# 4 0.000001 -0.000002 0.000001 0.045778 0.000000 -0.000005
# 5 0.000002 -0.000002 0.000004 0.000000 0.025708 0.000000
# 6 0.000000 0.000000 -0.000001 -0.000005 0.000000 -0.321344
#
#
# Mechanical properties :
#
#
# Convention : Reuss Voigt Hill
#
# Bulk Modulus (GPa) = 60.14096 62.29153 61.21624
# Shear Modulus (GPa) = -24.90030 30.62360 2.86165
#
# Velocity S-wave (km/s) = -3.26427 3.62002 1.10660
# Velocity P-wave (km/s) = 3.39537 6.64295 5.27529
#
# Compressibility (1/GPa) = 0.01662760
#
# Stress axis : x y z
#
# Youngs Moduli (GPa) = 127.67535 67.91355 133.08242
#
# Poissons Ratio (x) = 0.22927 0.00863
# Poissons Ratio (y) = 0.43103 0.43664
# Poissons Ratio (z) = 0.00828 0.22282
#
# Static dielectric constant tensor:
#      x y z
#    x 1.961940 0.000000 -0.000010 
#    y 0.000000 1.978980 0.000000 
#    z -0.000010 0.000000 1.714490 
# 
# From -- ./inp_files/1532.got.cif
#   From: 2010.05.17/outbox.cif.g08.bks.cpg/sg22_1_cif.got.tgz:1532.got - 2010.06.03 23:40:54.
