data_PCOD9328946
_publ_section_title
;
Structure prediction by ZEFSAII (Michael W. Deem and Ramdas Pophale) SiO2 
 PCOD9328946
Probable space group: F 2 2 2
;
_chemical_formula_sum "Si O2"
_cell_formula_units_Z 96
_cell_length_a 19.925037
_cell_length_b 15.278881
_cell_length_c 13.955749
_cell_angle_alpha 90.000000
_cell_angle_beta 90.000000
_cell_angle_gamma 90.000000
_cell_volume 4248.580337
_symmetry_space_group_name_H-M "F 2 2 2"
_symmetry_group_IT_number 22
_symmetry_cell_setting 'orthorhombic'
loop_
_space_group_symop_operation_xyz
x,y,z
-x,-y,z
x,-y,-z
-x,y,-z
x,1/2+y,1/2+z
-x,1/2-y,1/2+z
x,1/2-y,1/2-z
-x,1/2+y,1/2-z
1/2+x,y,1/2+z
1/2-x,-y,1/2+z
1/2+x,-y,1/2-z
1/2-x,y,1/2-z
1/2+x,1/2+y,z
1/2-x,1/2-y,z
1/2+x,1/2-y,-z
1/2-x,1/2+y,-z
loop_
_atom_site_type_symbol
_atom_site_label
_atom_site_fract_x
_atom_site_fract_y
_atom_site_fract_z
Si Si1 0.489794 0.099999 0.113679
Si Si2 0.353821 0.956620 0.900685
Si Si3 0.606262 0.760300 0.861901
Si Si4 0.858062 0.401058 0.481231
Si Si5 0.276179 0.120512 0.854316
Si Si6 0.733290 0.649038 0.140950
O O1 0.410829 0.108923 0.136328
O O2 0.542284 0.174538 0.140887
O O3 0.500000 0.000000 0.150223
O O4 0.500000 0.099009 0.000000
O O5 0.287686 0.902886 0.920276
O O6 0.327646 0.038738 0.839856
O O7 0.377713 0.000000 0.000000
O O8 0.620052 0.750000 0.750000
O O9 0.597848 0.671594 0.924141
O O10 0.675013 0.806036 0.899441
O O11 0.883546 0.500000 0.500000
O O12 0.790150 0.404835 0.414823
O O13 0.836395 0.367718 0.587289
O O14 0.250000 0.146075 0.750000
O O15 0.750000 0.619684 0.250000
O O16 0.750000 0.750000 0.138178
#
# Coordination Sequence:
#
# PCOD9328946 Si02
#       6
#    16  16  16  16  16  16
#     4  11  23  43  69  98 126 180 250 309 355 424
#     4  12  21  40  68 100 134 177 241 308 364 429
#     4  12  26  44  71 106 147 197 255 315 378 452
#     4  12  25  41  67 106 150 186 230 301 388 447
#     4  12  21  38  70 109 144 183 235 311 380 444
#     4  11  24  40  62 101 144 187 221 280 383 462
#
# _framework density 22.595783999999998
#
# number of rings (size 3 to 8) (size 9 to 14) (size 15 to 20)
#    0.000    0.333    8.333    2.000    2.333    0.000 
#    3.000    0.000    0.000    0.000    0.000    0.000 
#    0.000    0.000    0.000    0.000    0.000    0.000 
#
# Total GULP energy -133795.990464 kJ/mol
# GULP energy per Si atom -5574.832936 kJ/mol
# Density = 2.254435 g / cm^3
# Si number density = 22.595784 Si / 1000 Ang^3
#
#
#
# Elastic Constant Matrix: (Units=GPa)
#
#
# Indices 1 2 3 4 5 6 
#
# 1 71.2486 40.9817 -0.7292 0.0000 0.0000 0.0000
# 2 40.9817 139.9881 29.2585 0.0000 0.0000 0.0000
# 3 -0.7292 29.2585 85.4564 0.0000 0.0000 0.0000
# 4 0.0000 0.0000 0.0000 24.6699 0.0000 0.0000
# 5 0.0000 0.0000 0.0000 0.0000 8.1028 0.0000
# 6 0.0000 0.0000 0.0000 0.0000 0.0000 37.7565
#
#
#
# Elastic Compliance Matrix: (Units=1/GPa)
#
#
# Indices 1 2 3 4 5 6 
#
# 1 0.017193 -0.005454 0.002014 0.000000 0.000000 0.000000
# 2 -0.005454 0.009424 -0.003273 0.000000 0.000000 0.000000
# 3 0.002014 -0.003273 0.012840 0.000000 0.000000 0.000000
# 4 0.000000 0.000000 0.000000 0.040535 0.000000 0.000000
# 5 0.000000 0.000000 0.000000 0.000000 0.123415 0.000000
# 6 0.000000 0.000000 0.000000 0.000000 0.000000 0.026485
#
#
# Mechanical properties :
#
#
# Convention : Reuss Voigt Hill
#
# Bulk Modulus (GPa) = 38.41639 48.41278 43.41459
# Shear Modulus (GPa) = 19.84156 29.25131 24.54644
#
# Velocity S-wave (km/s) = 2.96650 3.60189 3.29952
# Velocity P-wave (km/s) = 5.36396 6.22657 5.81129
#
# Compressibility (1/GPa) = 0.02603055
#
# Stress axis : x y z
#
# Youngs Moduli (GPa) = 58.16228 106.10800 77.88313
#
# Poissons Ratio (x) = 0.57875 -0.15687
# Poissons Ratio (y) = 0.31724 0.25493
# Poissons Ratio (z) = -0.11715 0.34732
#
# Static dielectric constant tensor:
#      x y z
#    x 1.951780 0.000000 0.000000 
#    y 0.000000 2.062300 0.000000 
#    z 0.000000 0.000000 2.029050 
# 
# From -- ./inp_files/31510.got.cif
#   From: 2010.05.17/outbox.cif.g08.bks.cpg/sg22_16_cif.got.tgz:31510.got - 2010.06.03 23:40:54.
