data_PCOD9328073
_publ_section_title
;
Structure prediction by ZEFSAII (Michael W. Deem and Ramdas Pophale) SiO2 
 PCOD9328073
Probable space group: F 2 2 2
;
_chemical_formula_sum "Si O2"
_cell_formula_units_Z 72
_cell_length_a 9.234486
_cell_length_b 13.759102
_cell_length_c 24.857952
_cell_angle_alpha 90.000000
_cell_angle_beta 90.000000
_cell_angle_gamma 90.000000
_cell_volume 3158.407502
_symmetry_space_group_name_H-M "F 2 2 2"
_symmetry_group_IT_number 22
_symmetry_cell_setting 'orthorhombic'
loop_
_space_group_symop_operation_xyz
x,y,z
-x,-y,z
x,-y,-z
-x,y,-z
x,1/2+y,1/2+z
-x,1/2-y,1/2+z
x,1/2-y,1/2-z
-x,1/2+y,1/2-z
1/2+x,y,1/2+z
1/2-x,-y,1/2+z
1/2+x,-y,1/2-z
1/2-x,y,1/2-z
1/2+x,1/2+y,z
1/2-x,1/2-y,z
1/2+x,1/2-y,-z
1/2-x,1/2+y,-z
loop_
_atom_site_type_symbol
_atom_site_label
_atom_site_fract_x
_atom_site_fract_y
_atom_site_fract_z
Si Si1 0.500000 0.675753 0.500000
Si Si2 0.502145 0.250000 0.750000
Si Si3 0.368564 0.067624 0.097211
Si Si4 0.250000 0.750000 0.834557
Si Si5 0.750000 0.250000 0.419659
Si Si6 0.250000 0.904578 0.250000
Si Si7 0.351435 0.558128 0.136408
O O1 0.412673 0.610349 0.540960
O O2 0.383925 0.727549 0.460322
O O3 0.611724 0.277697 0.797916
O O4 0.392606 0.161257 0.760237
O O5 0.309526 0.158165 0.132032
O O6 0.500000 0.000000 0.119579
O O7 0.239086 0.993744 0.090272
O O8 0.677249 0.170383 0.378984
O O9 0.280830 0.960569 0.304971
O O10 0.500000 0.500000 0.137495
#
# Coordination Sequence:
#
# PCOD9328073 Si02
#       7
#     8   8  16   8   8   8  16
#     4  12  29  52  79 110 154 202 261 320 393 454
#     4  10  22  42  76 110 154 200 254 312 384 464
#     4  12  26  48  76 107 156 201 253 320 384 457
#     4  11  25  44  75 114 147 206 259 311 384 470
#     4  12  29  53  81 116 153 205 259 326 388 460
#     4  11  24  46  74 111 160 204 246 317 386 471
#     4  12  29  48  79 116 156 200 260 316 389 467
#
# _framework density 22.796299000000001
#
# number of rings (size 3 to 8) (size 9 to 14) (size 15 to 20)
#    0.000    0.444    2.222    5.000    9.333    4.444 
#    0.000    0.000    0.000    0.000    0.000    0.000 
#    0.000    0.000    0.000    0.000    0.000    0.000 
#
# Total GULP energy -100488.346813 kJ/mol
# GULP energy per Si atom -5582.685934 kJ/mol
# Density = 2.274441 g / cm^3
# Si number density = 22.796299 Si / 1000 Ang^3
#
#
#
# Elastic Constant Matrix: (Units=GPa)
#
#
# Indices 1 2 3 4 5 6 
#
# 1 118.0939 38.3603 68.1240 0.0000 0.0000 0.0000
# 2 38.3603 104.9299 50.0289 0.0000 0.0000 0.0000
# 3 68.1240 50.0289 118.3524 0.0000 0.0000 0.0000
# 4 0.0000 0.0000 0.0000 916.4999 0.0000 0.0000
# 5 0.0000 0.0000 0.0000 0.0000 18.9607 0.0000
# 6 0.0000 0.0000 0.0000 0.0000 0.0000 -26.4532
#
#
#
# Elastic Compliance Matrix: (Units=1/GPa)
#
#
# Indices 1 2 3 4 5 6 
#
# 1 0.012855 -0.001467 -0.006779 0.000000 0.000000 0.000000
# 2 -0.001467 0.012103 -0.004272 0.000000 0.000000 0.000000
# 3 -0.006779 -0.004272 0.014157 0.000000 0.000000 0.000000
# 4 0.000000 0.000000 0.000000 0.001091 0.000000 0.000000
# 5 0.000000 0.000000 0.000000 0.000000 0.052741 0.000000
# 6 0.000000 0.000000 0.000000 0.000000 0.000000 -0.037803
#
#
# Mechanical properties :
#
#
# Convention : Reuss Voigt Hill
#
# Bulk Modulus (GPa) = 71.02651 72.71139 71.86895
# Shear Modulus (GPa) = 58.91089 194.12567 126.51828
#
# Velocity S-wave (km/s) = 5.08905 9.23805 7.45788
# Velocity P-wave (km/s) = 8.10900 12.07287 10.28372
#
# Compressibility (1/GPa) = 0.01407925
#
# Stress axis : x y z
#
# Youngs Moduli (GPa) = 77.78991 82.62264 70.63599
#
# Poissons Ratio (x) = 0.12124 0.47885
# Poissons Ratio (y) = 0.11415 0.30172
# Poissons Ratio (z) = 0.52735 0.35293
#
# Static dielectric constant tensor:
#      x y z
#    x -3.869920 0.000000 0.000000 
#    y 0.000000 1.992900 0.000000 
#    z 0.000000 0.000000 1.831120 
# 
# From -- ./inp_files/51702.got.cif
#   From: 2010.05.17/outbox.cif.g08.bks.cpg/sg22_26_cif.got.tgz:51702.got - 2010.06.03 23:40:54.
