data_PCOD9328759
_publ_section_title
;
Structure prediction by ZEFSAII (Michael W. Deem and Ramdas Pophale) SiO2 
 PCOD9328759
Probable space group: F 2 2 2
;
_chemical_formula_sum "Si O2"
_cell_formula_units_Z 64
_cell_length_a 19.477076
_cell_length_b 5.743290
_cell_length_c 22.164582
_cell_angle_alpha 90.000000
_cell_angle_beta 90.000000
_cell_angle_gamma 90.000000
_cell_volume 2479.385461
_symmetry_space_group_name_H-M "F 2 2 2"
_symmetry_group_IT_number 22
_symmetry_cell_setting 'orthorhombic'
loop_
_space_group_symop_operation_xyz
x,y,z
-x,-y,z
x,-y,-z
-x,y,-z
x,1/2+y,1/2+z
-x,1/2-y,1/2+z
x,1/2-y,1/2-z
-x,1/2+y,1/2-z
1/2+x,y,1/2+z
1/2-x,-y,1/2+z
1/2+x,-y,1/2-z
1/2-x,y,1/2-z
1/2+x,1/2+y,z
1/2-x,1/2-y,z
1/2+x,1/2-y,-z
1/2-x,1/2+y,-z
loop_
_atom_site_type_symbol
_atom_site_label
_atom_site_fract_x
_atom_site_fract_y
_atom_site_fract_z
Si Si1 0.681970 0.611995 0.564750
Si Si2 0.965502 0.746758 0.926531
Si Si3 0.068589 0.888430 0.197375
Si Si4 0.831691 0.765332 0.322399
O O1 0.701597 0.500000 0.500000
O O2 0.750000 0.750000 0.584676
O O3 0.612194 0.748411 0.549554
O O4 0.660649 0.449777 0.622472
O O5 0.963211 0.732332 0.854200
O O6 0.000000 0.500000 0.943315
O O7 0.000000 0.000000 0.938485
O O8 0.106799 0.750000 0.250000
O O9 0.121046 0.048338 0.160270
O O10 0.000000 0.000000 0.225818
O O11 0.852916 0.750000 0.250000
O O12 0.750000 0.750000 0.319577
#
# Coordination Sequence:
#
# PCOD9328759 Si02
#       4
#    16  16  16  16
#     4  12  27  50  79 115 159 214 271 336 410 494
#     4  11  25  47  75 110 153 202 261 329 399 475
#     4  11  21  39  71 109 152 202 259 326 400 479
#     4  11  24  44  72 110 153 200 260 329 401 476
#
# _framework density 25.812846
#
# number of rings (size 3 to 8) (size 9 to 14) (size 15 to 20)
#    0.000    0.750    0.000    8.250    0.000    2.500 
#    0.000    7.500    0.000    0.000    0.000    0.000 
#    0.000    0.000    0.000    0.000    0.000    0.000 
#
# Total GULP energy -89143.189941 kJ/mol
# GULP energy per Si atom -5571.449371 kJ/mol
# Density = 2.575409 g / cm^3
# Si number density = 25.812846 Si / 1000 Ang^3
#
#
#
# Elastic Constant Matrix: (Units=GPa)
#
#
# Indices 1 2 3 4 5 6 
#
# 1 165.7785 101.0653 1.4235 0.0001 0.0001 -0.0001
# 2 101.0653 187.5603 63.5748 0.0006 0.0003 0.0000
# 3 1.4235 63.5748 189.9812 0.0000 0.0000 0.0000
# 4 0.0001 0.0006 0.0000 61.8256 -0.0001 -0.0002
# 5 0.0001 0.0003 0.0000 -0.0001 -18.3361 -0.0002
# 6 -0.0001 0.0000 0.0000 -0.0002 -0.0002 48.8238
#
#
#
# Elastic Compliance Matrix: (Units=1/GPa)
#
#
# Indices 1 2 3 4 5 6 
#
# 1 0.009531 -0.005766 0.001858 0.000000 0.000000 0.000000
# 2 -0.005766 0.009501 -0.003136 0.000000 0.000000 0.000000
# 3 0.001858 -0.003136 0.006299 0.000000 0.000000 0.000000
# 4 0.000000 0.000000 0.000000 0.016175 0.000000 0.000000
# 5 0.000000 0.000000 0.000000 0.000000 -0.054537 0.000000
# 6 0.000000 0.000000 0.000000 0.000000 0.000000 0.020482
#
#
# Mechanical properties :
#
#
# Convention : Reuss Voigt Hill
#
# Bulk Modulus (GPa) = 88.93646 97.27193 93.10419
# Shear Modulus (GPa) = 197.73374 43.61308 120.67341
#
# Velocity S-wave (km/s) = 8.76180 4.11492 6.84477
# Velocity P-wave (km/s) = 11.69991 7.76802 9.93051
#
# Compressibility (1/GPa) = 0.01124398
#
# Stress axis : x y z
#
# Youngs Moduli (GPa) = 104.91997 105.24776 158.74807
#
# Poissons Ratio (x) = 0.60681 -0.29494
# Poissons Ratio (y) = 0.60492 0.49789
# Poissons Ratio (z) = -0.19493 0.33009
#
# Static dielectric constant tensor:
#      x y z
#    x 1.984840 0.000000 0.000000 
#    y 0.000000 2.178000 0.000000 
#    z 0.000000 0.000000 2.304110 
# 
# From -- ./inp_files/49659.got.cif
#   From: 2010.05.17/outbox.cif.g08.bks.cpg/sg22_25_cif.got.tgz:49659.got - 2010.06.03 23:40:54.
