data_PCOD9328928
_publ_section_title
;
Structure prediction by ZEFSAII (Michael W. Deem and Ramdas Pophale) SiO2 
 PCOD9328928
Probable space group: F 2 2 2
;
_chemical_formula_sum "Si O2"
_cell_formula_units_Z 60
_cell_length_a 15.707007
_cell_length_b 15.003276
_cell_length_c 11.620024
_cell_angle_alpha 90.000000
_cell_angle_beta 90.000000
_cell_angle_gamma 90.000000
_cell_volume 2738.334896
_symmetry_space_group_name_H-M "F 2 2 2"
_symmetry_group_IT_number 22
_symmetry_cell_setting 'orthorhombic'
loop_
_space_group_symop_operation_xyz
x,y,z
-x,-y,z
x,-y,-z
-x,y,-z
x,1/2+y,1/2+z
-x,1/2-y,1/2+z
x,1/2-y,1/2-z
-x,1/2+y,1/2-z
1/2+x,y,1/2+z
1/2-x,-y,1/2+z
1/2+x,-y,1/2-z
1/2-x,y,1/2-z
1/2+x,1/2+y,z
1/2-x,1/2-y,z
1/2+x,1/2-y,-z
1/2-x,1/2+y,-z
loop_
_atom_site_type_symbol
_atom_site_label
_atom_site_fract_x
_atom_site_fract_y
_atom_site_fract_z
Si Si1 0.555752 0.405622 0.595291
Si Si2 0.238184 0.354327 0.995163
Si Si3 0.000000 0.500000 0.500000
Si Si4 0.250000 0.949565 0.250000
Si Si5 0.121702 0.091743 0.177640
O O1 0.500000 0.500000 0.611494
O O2 0.500000 0.354680 0.500000
O O3 0.648961 0.397390 0.536252
O O4 0.570070 0.361710 0.719880
O O5 0.250000 0.250000 0.973609
O O6 0.256248 0.398970 0.871435
O O7 0.301489 0.368515 0.103767
O O8 0.057493 0.558901 0.582058
O O9 0.165376 0.010095 0.247073
#
# Coordination Sequence:
#
# PCOD9328928 Si02
#       5
#    16  16   4   8  16
#     4  11  23  41  74 108 133 182 258 304 345 438
#     4  12  27  46  70 109 153 195 234 308 390 441
#     4  12  24  40  66 116 126 180 246 318 332 412
#     4  12  21  44  71 100 136 200 250 290 347 468
#     4  12  24  42  76 102 144 189 256 299 362 447
#
# _framework density 21.911124999999998
#
# number of rings (size 3 to 8) (size 9 to 14) (size 15 to 20)
#    0.000    0.267    6.667    3.600    0.000    2.133 
#    2.400    0.000    5.867    0.000    0.000    0.000 
#    0.000    0.000    0.000    0.000    0.000    0.000 
#
# Total GULP energy -83511.293258 kJ/mol
# GULP energy per Si atom -5567.419551 kJ/mol
# Density = 2.186125 g / cm^3
# Si number density = 21.911125 Si / 1000 Ang^3
#
#
#
# Elastic Constant Matrix: (Units=GPa)
#
#
# Indices 1 2 3 4 5 6 
#
# 1 97.4177 5.5057 26.5509 0.0000 0.0000 0.0000
# 2 5.5057 63.8367 15.0872 0.0000 0.0000 0.0000
# 3 26.5509 15.0872 187.5542 0.0000 0.0000 0.0000
# 4 0.0000 0.0000 0.0000 8.9089 0.0000 0.0000
# 5 0.0000 0.0000 0.0000 0.0000 59.1883 0.0000
# 6 0.0000 0.0000 0.0000 0.0000 0.0000 7.3340
#
#
#
# Elastic Compliance Matrix: (Units=1/GPa)
#
#
# Indices 1 2 3 4 5 6 
#
# 1 0.010698 -0.000576 -0.001468 0.000000 0.000000 0.000000
# 2 -0.000576 0.016000 -0.001206 0.000000 0.000000 0.000000
# 3 -0.001468 -0.001206 0.005637 0.000000 0.000000 0.000000
# 4 0.000000 0.000000 0.000000 0.112248 0.000000 0.000000
# 5 0.000000 0.000000 0.000000 0.000000 0.016895 0.000000
# 6 0.000000 0.000000 0.000000 0.000000 0.000000 0.136351
#
#
# Mechanical properties :
#
#
# Convention : Reuss Voigt Hill
#
# Bulk Modulus (GPa) = 38.70682 49.23293 43.96988
# Shear Modulus (GPa) = 15.97758 35.19722 25.58740
#
# Velocity S-wave (km/s) = 2.70330 4.01229 3.42099
# Velocity P-wave (km/s) = 5.23904 6.63195 5.97622
#
# Compressibility (1/GPa) = 0.02583524
#
# Stress axis : x y z
#
# Youngs Moduli (GPa) = 93.47769 62.50179 177.41200
#
# Poissons Ratio (x) = 0.03598 0.26046
# Poissons Ratio (y) = 0.05381 0.21388
# Poissons Ratio (z) = 0.13724 0.07535
#
# Static dielectric constant tensor:
#      x y z
#    x 1.806620 0.000000 0.000000 
#    y 0.000000 1.816990 0.000000 
#    z 0.000000 0.000000 1.814100 
# 
# From -- ./inp_files/19299.got.cif
#   From: 2010.05.17/outbox.cif.g08.bks.cpg/sg22_10_cif.got.tgz:19299.got - 2010.06.03 23:40:54.
