data_PCOD9328455
_publ_section_title
;
Structure prediction by ZEFSAII (Michael W. Deem and Ramdas Pophale) SiO2 
 PCOD9328455
Probable space group: F 2 2 2
;
_chemical_formula_sum "Si O2"
_cell_formula_units_Z 112
_cell_length_a 16.509134
_cell_length_b 26.196192
_cell_length_c 11.730272
_cell_angle_alpha 90.000000
_cell_angle_beta 90.000000
_cell_angle_gamma 90.000000
_cell_volume 5073.066322
_symmetry_space_group_name_H-M "F 2 2 2"
_symmetry_group_IT_number 22
_symmetry_cell_setting 'orthorhombic'
loop_
_space_group_symop_operation_xyz
x,y,z
-x,-y,z
x,-y,-z
-x,y,-z
x,1/2+y,1/2+z
-x,1/2-y,1/2+z
x,1/2-y,1/2-z
-x,1/2+y,1/2-z
1/2+x,y,1/2+z
1/2-x,-y,1/2+z
1/2+x,-y,1/2-z
1/2-x,y,1/2-z
1/2+x,1/2+y,z
1/2-x,1/2-y,z
1/2+x,1/2-y,-z
1/2-x,1/2+y,-z
loop_
_atom_site_type_symbol
_atom_site_label
_atom_site_fract_x
_atom_site_fract_y
_atom_site_fract_z
Si Si1 0.160630 0.744255 0.440145
Si Si2 0.537417 0.822331 0.872519
Si Si3 0.153467 0.404203 0.747999
Si Si4 0.095984 0.505066 0.871292
Si Si5 0.138142 0.298663 0.176035
Si Si6 0.164397 0.406027 0.263332
Si Si7 0.902418 0.631202 0.505078
O O1 0.250000 0.750000 0.388197
O O2 0.087861 0.769894 0.371914
O O3 0.159977 0.780937 0.550253
O O4 0.137044 0.687412 0.478076
O O5 0.597901 0.865069 0.823080
O O6 0.456281 0.811904 0.801873
O O7 0.500000 0.833628 0.000000
O O8 0.250000 0.392244 0.750000
O O9 0.135686 0.460173 0.797140
O O10 0.123012 0.399303 0.618177
O O11 0.106320 0.559615 0.811992
O O12 0.000000 0.500000 0.877420
O O13 0.129045 0.500000 0.000000
O O14 0.160295 0.250000 0.250000
O O15 0.177436 0.352193 0.201550
O O16 0.250000 0.434163 0.250000
O O17 0.132000 0.394676 0.389907
O O18 0.000000 0.635711 0.500000
#
# Coordination Sequence:
#
# PCOD9328455 Si02
#       7
#    16  16  16  16  16  16  16
#     4  11  23  39  65 102 142 189 239 297 352 418
#     4  10  24  42  69  97 144 196 242 283 348 437
#     4  12  28  47  73 110 145 186 237 310 365 424
#     4  11  27  49  79 105 138 188 246 294 359 441
#     4  11  22  39  67 100 137 182 241 280 342 419
#     4  12  27  46  74 106 143 187 237 308 364 424
#     4  12  25  45  72 105 147 189 241 293 368 430
#
# _framework density 22.077376999999998
#
# number of rings (size 3 to 8) (size 9 to 14) (size 15 to 20)
#    0.000    0.714    1.429    6.000   10.000    0.571 
#    0.000    2.857    0.000    0.000    0.000    0.000 
#    0.000    0.000    0.000    0.000    0.000    0.000 
#
# Total GULP energy -156547.863836 kJ/mol
# GULP energy per Si atom -5590.995137 kJ/mol
# Density = 2.202713 g / cm^3
# Si number density = 22.077377 Si / 1000 Ang^3
#
#
#
# Elastic Constant Matrix: (Units=GPa)
#
#
# Indices 1 2 3 4 5 6 
#
# 1 127.4750 25.5029 5.6769 0.0000 0.0000 0.0000
# 2 25.5029 131.6834 69.1602 0.0000 0.0000 0.0000
# 3 5.6769 69.1602 127.3959 0.0000 0.0000 0.0000
# 4 0.0000 0.0000 0.0000 234.7715 0.0000 0.0000
# 5 0.0000 0.0000 0.0000 0.0000 24.7268 0.0000
# 6 0.0000 0.0000 0.0000 0.0000 0.0000 28.9999
#
#
#
# Elastic Compliance Matrix: (Units=1/GPa)
#
#
# Indices 1 2 3 4 5 6 
#
# 1 0.008205 -0.001954 0.000695 0.000000 0.000000 0.000000
# 2 -0.001954 0.011088 -0.005932 0.000000 0.000000 0.000000
# 3 0.000695 -0.005932 0.011039 0.000000 0.000000 0.000000
# 4 0.000000 0.000000 0.000000 0.004259 0.000000 0.000000
# 5 0.000000 0.000000 0.000000 0.000000 0.040442 0.000000
# 6 0.000000 0.000000 0.000000 0.000000 0.000000 0.034483
#
#
# Mechanical properties :
#
#
# Convention : Reuss Voigt Hill
#
# Bulk Modulus (GPa) = 62.69853 65.24826 63.97339
# Shear Modulus (GPa) = 38.69511 76.78059 57.73785
#
# Velocity S-wave (km/s) = 4.19107 5.90368 5.11950
# Velocity P-wave (km/s) = 7.20286 8.72295 7.99909
#
# Compressibility (1/GPa) = 0.01594934
#
# Stress axis : x y z
#
# Youngs Moduli (GPa) = 121.88199 90.18659 90.58683
#
# Poissons Ratio (x) = 0.17624 -0.06298
# Poissons Ratio (y) = 0.23817 0.53740
# Poissons Ratio (z) = -0.08474 0.53502
#
# Static dielectric constant tensor:
#      x y z
#    x 1.833060 0.000000 0.000000 
#    y 0.000000 1.778730 0.000000 
#    z 0.000000 0.000000 1.824210 
# 
# From -- ./inp_files/20310.got.cif
#   From: 2010.05.17/outbox.cif.g08.bks.cpg/sg22_11_cif.got.tgz:20310.got - 2010.06.03 23:40:54.
