data_PCOD9328168
_publ_section_title
;
Structure prediction by ZEFSAII (Michael W. Deem and Ramdas Pophale) SiO2 
 PCOD9328168
Probable space group: F 2 2 2
;
_chemical_formula_sum "Si O2"
_cell_formula_units_Z 64
_cell_length_a 21.516841
_cell_length_b 10.036533
_cell_length_c 12.574535
_cell_angle_alpha 90.000000
_cell_angle_beta 90.000000
_cell_angle_gamma 90.000000
_cell_volume 2715.527227
_symmetry_space_group_name_H-M "F 2 2 2"
_symmetry_group_IT_number 22
_symmetry_cell_setting 'orthorhombic'
loop_
_space_group_symop_operation_xyz
x,y,z
-x,-y,z
x,-y,-z
-x,y,-z
x,1/2+y,1/2+z
-x,1/2-y,1/2+z
x,1/2-y,1/2-z
-x,1/2+y,1/2-z
1/2+x,y,1/2+z
1/2-x,-y,1/2+z
1/2+x,-y,1/2-z
1/2-x,y,1/2-z
1/2+x,1/2+y,z
1/2-x,1/2-y,z
1/2+x,1/2-y,-z
1/2-x,1/2+y,-z
loop_
_atom_site_type_symbol
_atom_site_label
_atom_site_fract_x
_atom_site_fract_y
_atom_site_fract_z
Si Si1 0.371654 0.713772 0.136132
Si Si2 0.859965 0.290171 0.898114
Si Si3 0.502899 0.650085 0.374750
Si Si4 0.681203 0.037598 0.720921
O O1 0.340908 0.750000 0.250000
O O2 0.442846 0.760343 0.145679
O O3 0.358730 0.557070 0.143858
O O4 0.350417 0.778386 0.024670
O O5 0.932344 0.270680 0.865407
O O6 0.818776 0.176377 0.843671
O O7 0.847225 0.429321 0.837565
O O8 0.500000 0.500000 0.324782
O O9 0.500000 0.627365 0.500000
O O10 0.750000 0.991320 0.750000
#
# Coordination Sequence:
#
# PCOD9328168 Si02
#       4
#    16  16  16  16
#     4  11  24  42  68 109 139 180 243 296 367 438
#     4  10  22  45  71  99 141 192 236 299 372 434
#     4   9  19  38  68 102 144 182 225 294 374 440
#     4  11  25  47  68  98 139 192 248 296 358 431
#
# _framework density 23.568169000000001
#
# number of rings (size 3 to 8) (size 9 to 14) (size 15 to 20)
#    0.000    1.750    0.000    3.750    3.500    4.500 
#   13.500    3.750    0.000    0.000    0.000    0.000 
#    0.000    0.000    0.000    0.000    0.000    0.000 
#
# Total GULP energy -89094.552682 kJ/mol
# GULP energy per Si atom -5568.409543 kJ/mol
# Density = 2.351453 g / cm^3
# Si number density = 23.568169 Si / 1000 Ang^3
#
#
#
# Elastic Constant Matrix: (Units=GPa)
#
#
# Indices 1 2 3 4 5 6 
#
# 1 111.2460 60.1081 24.2811 0.0000 0.0000 0.0000
# 2 60.1081 72.5566 22.4835 0.0000 0.0000 0.0000
# 3 24.2811 22.4835 196.9857 0.0000 0.0000 0.0000
# 4 0.0000 0.0000 0.0000 27.3336 0.0000 0.0000
# 5 0.0000 0.0000 0.0000 0.0000 19.3541 0.0000
# 6 0.0000 0.0000 0.0000 0.0000 0.0000 34.6139
#
#
#
# Elastic Compliance Matrix: (Units=1/GPa)
#
#
# Indices 1 2 3 4 5 6 
#
# 1 0.016318 -0.013368 -0.000486 0.000000 0.000000 0.000000
# 2 -0.013368 0.025239 -0.001233 0.000000 0.000000 0.000000
# 3 -0.000486 -0.001233 0.005277 0.000000 0.000000 0.000000
# 4 0.000000 0.000000 0.000000 0.036585 0.000000 0.000000
# 5 0.000000 0.000000 0.000000 0.000000 0.051669 0.000000
# 6 0.000000 0.000000 0.000000 0.000000 0.000000 0.028890
#
#
# Mechanical properties :
#
#
# Convention : Reuss Voigt Hill
#
# Bulk Modulus (GPa) = 60.02037 66.05931 63.03984
# Shear Modulus (GPa) = 25.03710 34.52138 29.77924
#
# Velocity S-wave (km/s) = 3.26287 3.83135 3.55848
# Velocity P-wave (km/s) = 6.30215 6.90378 6.60982
#
# Compressibility (1/GPa) = 0.01666101
#
# Stress axis : x y z
#
# Youngs Moduli (GPa) = 61.28235 39.62175 189.49821
#
# Poissons Ratio (x) = 0.52965 0.09203
# Poissons Ratio (y) = 0.81921 0.23364
# Poissons Ratio (z) = 0.02976 0.04885
#
# Static dielectric constant tensor:
#      x y z
#    x 1.928250 0.000000 0.000000 
#    y 0.000000 2.125050 0.000000 
#    z 0.000000 0.000000 1.931900 
# 
# From -- ./inp_files/22207.got.cif
#   From: 2010.05.17/outbox.cif.g08.bks.cpg/sg22_12_cif.got.tgz:22207.got - 2010.06.03 23:40:54.
