data_PCOD9328884
_publ_section_title
;
Structure prediction by ZEFSAII (Michael W. Deem and Ramdas Pophale) SiO2 
 PCOD9328884
Probable space group: F 2 2 2
;
_chemical_formula_sum "Si O2"
_cell_formula_units_Z 64
_cell_length_a 12.033500
_cell_length_b 14.711976
_cell_length_c 18.115475
_cell_angle_alpha 90.000000
_cell_angle_beta 90.000000
_cell_angle_gamma 90.000000
_cell_volume 3207.101435
_symmetry_space_group_name_H-M "F 2 2 2"
_symmetry_group_IT_number 22
_symmetry_cell_setting 'orthorhombic'
loop_
_space_group_symop_operation_xyz
x,y,z
-x,-y,z
x,-y,-z
-x,y,-z
x,1/2+y,1/2+z
-x,1/2-y,1/2+z
x,1/2-y,1/2-z
-x,1/2+y,1/2-z
1/2+x,y,1/2+z
1/2-x,-y,1/2+z
1/2+x,-y,1/2-z
1/2-x,y,1/2-z
1/2+x,1/2+y,z
1/2-x,1/2-y,z
1/2+x,1/2-y,-z
1/2-x,1/2+y,-z
loop_
_atom_site_type_symbol
_atom_site_label
_atom_site_fract_x
_atom_site_fract_y
_atom_site_fract_z
Si Si1 0.501857 0.895481 0.604571
Si Si2 0.162849 0.000000 0.500000
Si Si3 0.383386 0.639063 0.743817
Si Si4 0.000000 0.000000 0.629186
Si Si5 0.179511 0.660962 0.495803
O O1 0.455099 0.892933 0.686138
O O2 0.418135 0.835569 0.555714
O O3 0.624009 0.861528 0.583100
O O4 0.500000 0.000000 0.579601
O O5 0.241486 0.918714 0.523763
O O6 0.092011 0.965915 0.429895
O O7 0.391449 0.750000 0.750000
O O8 0.250000 0.618040 0.750000
O O9 0.441617 0.581125 0.676992
O O10 0.250000 0.750000 0.492096
#
# Coordination Sequence:
#
# PCOD9328884 Si02
#       5
#    16   8  16   8  16
#     4  11  22  45  67  94 131 179 225 269 329 405
#     4  11  24  43  66 102 136 169 228 283 342 382
#     4  11  26  44  67  97 135 178 224 271 338 401
#     4  11  26  42  68  97 136 176 222 285 332 402
#     4  11  24  40  70  97 132 175 224 276 332 396
#
# _framework density 19.955715000000001
#
# number of rings (size 3 to 8) (size 9 to 14) (size 15 to 20)
#    0.000    1.000    3.750    2.250   10.500    2.000 
#    0.000    0.000    0.000    0.000    0.000    0.000 
#    0.000    0.000    0.000    0.000    0.000    0.000 
#
# Total GULP energy -89154.425863 kJ/mol
# GULP energy per Si atom -5572.151616 kJ/mol
# Density = 1.991030 g / cm^3
# Si number density = 19.955715 Si / 1000 Ang^3
#
#
#
# Elastic Constant Matrix: (Units=GPa)
#
#
# Indices 1 2 3 4 5 6 
#
# 1 99.6496 44.5348 35.3864 0.0000 0.0000 0.0000
# 2 44.5348 109.6818 11.2583 0.0000 0.0000 0.0000
# 3 35.3864 11.2583 116.4895 0.0000 0.0000 0.0000
# 4 0.0000 0.0000 0.0000 -2.3498 0.0000 0.0000
# 5 0.0000 0.0000 0.0000 0.0000 39.3976 0.0000
# 6 0.0000 0.0000 0.0000 0.0000 0.0000 38.0813
#
#
#
# Elastic Compliance Matrix: (Units=1/GPa)
#
#
# Indices 1 2 3 4 5 6 
#
# 1 0.013636 -0.005163 -0.003643 0.000000 0.000000 0.000000
# 2 -0.005163 0.011163 0.000489 0.000000 0.000000 0.000000
# 3 -0.003643 0.000489 0.009644 0.000000 0.000000 0.000000
# 4 0.000000 0.000000 0.000000 -0.425561 0.000000 0.000000
# 5 0.000000 0.000000 0.000000 0.000000 0.025382 0.000000
# 6 0.000000 0.000000 0.000000 0.000000 0.000000 0.026260
#
#
# Mechanical properties :
#
#
# Convention : Reuss Voigt Hill
#
# Bulk Modulus (GPa) = 56.14827 56.46445 56.30636
# Shear Modulus (GPa) = -15.77757 30.66857 7.44550
#
# Velocity S-wave (km/s) = -2.81486 3.92450 1.93368
# Velocity P-wave (km/s) = 4.19916 6.99227 5.76736
#
# Compressibility (1/GPa) = 0.01780999
#
# Stress axis : x y z
#
# Youngs Moduli (GPa) = 73.33355 89.57881 103.69221
#
# Poissons Ratio (x) = 0.46248 0.37779
# Poissons Ratio (y) = 0.37861 -0.05075
# Poissons Ratio (z) = 0.26718 -0.04384
#
# Static dielectric constant tensor:
#      x y z
#    x 1.743610 0.000000 0.000000 
#    y 0.000000 1.695190 0.000000 
#    z 0.000000 0.000000 1.751740 
# 
# From -- ./inp_files/19426.got.cif
#   From: 2010.05.17/outbox.cif.g08.bks.cpg/sg22_10_cif.got.tgz:19426.got - 2010.06.03 23:40:54.
