data_PCOD9328357
_publ_section_title
;
Structure prediction by ZEFSAII (Michael W. Deem and Ramdas Pophale) SiO2 
 PCOD9328357
Probable space group: F 2 2 2
;
_chemical_formula_sum "Si O2"
_cell_formula_units_Z 36
_cell_length_a 8.133021
_cell_length_b 7.219227
_cell_length_c 23.114127
_cell_angle_alpha 90.000000
_cell_angle_beta 90.000000
_cell_angle_gamma 90.000000
_cell_volume 1357.125737
_symmetry_space_group_name_H-M "F 2 2 2"
_symmetry_group_IT_number 22
_symmetry_cell_setting 'orthorhombic'
loop_
_space_group_symop_operation_xyz
x,y,z
-x,-y,z
x,-y,-z
-x,y,-z
x,1/2+y,1/2+z
-x,1/2-y,1/2+z
x,1/2-y,1/2-z
-x,1/2+y,1/2-z
1/2+x,y,1/2+z
1/2-x,-y,1/2+z
1/2+x,-y,1/2-z
1/2-x,y,1/2-z
1/2+x,1/2+y,z
1/2-x,1/2-y,z
1/2+x,1/2-y,-z
1/2-x,1/2+y,-z
loop_
_atom_site_type_symbol
_atom_site_label
_atom_site_fract_x
_atom_site_fract_y
_atom_site_fract_z
Si Si1 0.500000 0.000000 0.823436
Si Si2 0.750000 0.750000 0.010743
Si Si3 0.750000 0.250000 0.750000
Si Si4 0.551098 0.309517 0.091428
O O1 0.368098 0.882433 0.787593
O O2 0.592400 0.848879 0.863314
O O3 0.597093 0.780564 0.053238
O O4 0.676390 0.620032 0.958493
O O5 0.500000 0.500000 0.122111
#
# Coordination Sequence:
#
# PCOD9328357 Si02
#       4
#     8   8   4  16
#     4  12  32  57  88 120 164 227 304 364 442 490
#     4  10  23  44  74 122 174 214 265 318 430 528
#     4  12  34  64  88 124 162 234 306 390 420 496
#     4  11  27  46  77 120 170 221 270 345 419 537
#
# _framework density 26.526648999999999
#
# number of rings (size 3 to 8) (size 9 to 14) (size 15 to 20)
#    0.000    0.889    0.000    4.000   21.778    2.667 
#    0.000    0.000    0.000    0.000    0.000    0.000 
#    0.000    0.000    0.000    0.000    0.000    0.000 
#
# Total GULP energy -50218.136046 kJ/mol
# GULP energy per Si atom -5579.792894 kJ/mol
# Density = 2.646627 g / cm^3
# Si number density = 26.526649 Si / 1000 Ang^3
#
#
#
# Elastic Constant Matrix: (Units=GPa)
#
#
# Indices 1 2 3 4 5 6 
#
# 1 112.4347 59.9415 75.0274 0.0000 0.0000 0.0000
# 2 59.9415 222.0632 113.5284 0.0000 0.0000 0.0000
# 3 75.0274 113.5284 161.6240 0.0000 0.0000 0.0000
# 4 0.0000 0.0000 0.0000 55.4751 0.0000 0.0000
# 5 0.0000 0.0000 0.0000 0.0000 43.7143 0.0000
# 6 0.0000 0.0000 0.0000 0.0000 0.0000 46.5686
#
#
#
# Elastic Compliance Matrix: (Units=1/GPa)
#
#
# Indices 1 2 3 4 5 6 
#
# 1 0.012947 -0.000659 -0.005547 0.000000 0.000000 0.000000
# 2 -0.000659 0.007060 -0.004653 0.000000 0.000000 0.000000
# 3 -0.005547 -0.004653 0.012031 0.000000 0.000000 0.000000
# 4 0.000000 0.000000 0.000000 0.018026 0.000000 0.000000
# 5 0.000000 0.000000 0.000000 0.000000 0.022876 0.000000
# 6 0.000000 0.000000 0.000000 0.000000 0.000000 0.021474
#
#
# Mechanical properties :
#
#
# Convention : Reuss Voigt Hill
#
# Bulk Modulus (GPa) = 96.90809 110.34628 103.62718
# Shear Modulus (GPa) = 41.81570 45.65990 43.73780
#
# Velocity S-wave (km/s) = 3.97465 4.15334 4.06498
# Velocity P-wave (km/s) = 7.59444 8.04294 7.82190
#
# Compressibility (1/GPa) = 0.01031906
#
# Stress axis : x y z
#
# Youngs Moduli (GPa) = 77.23793 141.64269 83.11863
#
# Poissons Ratio (x) = 0.09330 0.46110
# Poissons Ratio (y) = 0.05088 0.38678
# Poissons Ratio (z) = 0.42847 0.65911
#
# Static dielectric constant tensor:
#      x y z
#    x 2.364550 0.000000 0.000000 
#    y 0.000000 2.475670 0.000000 
#    z 0.000000 0.000000 1.986360 
# 
# From -- ./inp_files/7193.got.cif
#   From: 2010.05.17/outbox.cif.g08.bks.cpg/sg22_4_cif.got.tgz:7193.got - 2010.06.03 23:40:54.
