data_PCOD9328714
_publ_section_title
;
Structure prediction by ZEFSAII (Michael W. Deem and Ramdas Pophale) SiO2 
 PCOD9328714
Probable space group: F 2 2 2
;
_chemical_formula_sum "Si O2"
_cell_formula_units_Z 112
_cell_length_a 14.243436
_cell_length_b 13.124238
_cell_length_c 28.929549
_cell_angle_alpha 90.000000
_cell_angle_beta 90.000000
_cell_angle_gamma 90.000000
_cell_volume 5407.923372
_symmetry_space_group_name_H-M "F 2 2 2"
_symmetry_group_IT_number 22
_symmetry_cell_setting 'orthorhombic'
loop_
_space_group_symop_operation_xyz
x,y,z
-x,-y,z
x,-y,-z
-x,y,-z
x,1/2+y,1/2+z
-x,1/2-y,1/2+z
x,1/2-y,1/2-z
-x,1/2+y,1/2-z
1/2+x,y,1/2+z
1/2-x,-y,1/2+z
1/2+x,-y,1/2-z
1/2-x,y,1/2-z
1/2+x,1/2+y,z
1/2-x,1/2-y,z
1/2+x,1/2-y,-z
1/2-x,1/2+y,-z
loop_
_atom_site_type_symbol
_atom_site_label
_atom_site_fract_x
_atom_site_fract_y
_atom_site_fract_z
Si Si1 0.359424 0.271445 0.100123
Si Si2 0.055677 0.098474 0.347353
Si Si3 0.429920 0.262260 0.797804
Si Si4 0.569692 0.590592 0.181685
Si Si5 0.770145 0.992071 0.698700
Si Si6 0.611717 0.479676 0.947202
Si Si7 0.297095 0.147240 0.622889
O O1 0.250000 0.250000 0.107439
O O2 0.407500 0.161555 0.107925
O O3 0.410123 0.332931 0.140660
O O4 0.368648 0.358875 0.061190
O O5 0.981539 0.164270 0.318036
O O6 0.142161 0.065490 0.313366
O O7 0.000000 0.000000 0.363253
O O8 0.374131 0.250000 0.750000
O O9 0.510845 0.343176 0.782564
O O10 0.375105 0.312856 0.840640
O O11 0.500000 0.500000 0.168543
O O12 0.672058 0.552007 0.193480
O O13 0.750000 0.949926 0.750000
O O14 0.773893 0.908450 0.658228
O O15 0.500000 0.500000 0.942455
O O16 0.663869 0.560142 0.912286
O O17 0.639412 0.500000 0.000000
O O18 0.250000 0.250000 0.602027
#
# Coordination Sequence:
#
# PCOD9328714 Si02
#       7
#    16  16  16  16  16  16  16
#     4  11  20  40  69  96 127 173 216 280 346 408
#     4  11  24  40  58  92 135 176 229 278 335 399
#     4  11  24  36  60  87 128 181 225 270 335 397
#     4  11  20  39  61  86 124 174 232 281 320 387
#     4  12  25  38  61  91 134 180 232 275 329 406
#     4  11  24  46  74 101 127 170 233 292 354 429
#     4  12  26  41  65  97 137 173 223 286 351 412
#
# _framework density 20.710350999999999
#
# number of rings (size 3 to 8) (size 9 to 14) (size 15 to 20)
#    0.000    0.714    4.286    3.857    4.000    1.714 
#    0.000    2.143    0.000    0.000    0.000    3.000 
#    0.000    0.000    0.000    0.000    0.000    0.000 
#
# Total GULP energy -155995.305090 kJ/mol
# GULP energy per Si atom -5571.260896 kJ/mol
# Density = 2.066321 g / cm^3
# Si number density = 20.710351 Si / 1000 Ang^3
#
#
#
# Elastic Constant Matrix: (Units=GPa)
#
#
# Indices 1 2 3 4 5 6 
#
# 1 111.2253 62.5274 22.7713 0.0000 0.0000 0.0000
# 2 62.5274 147.1331 48.5867 0.0000 0.0000 0.0000
# 3 22.7713 48.5867 117.3966 0.0000 0.0000 0.0000
# 4 0.0000 0.0000 0.0000 6.2609 0.0000 0.0000
# 5 0.0000 0.0000 0.0000 0.0000 1.3444 0.0000
# 6 0.0000 0.0000 0.0000 0.0000 0.0000 51.0930
#
#
#
# Elastic Compliance Matrix: (Units=1/GPa)
#
#
# Indices 1 2 3 4 5 6 
#
# 1 0.011819 -0.004941 -0.000248 0.000000 0.000000 0.000000
# 2 -0.004941 0.009938 -0.003155 0.000000 0.000000 0.000000
# 3 -0.000248 -0.003155 0.009872 0.000000 0.000000 0.000000
# 4 0.000000 0.000000 0.000000 0.159721 0.000000 0.000000
# 5 0.000000 0.000000 0.000000 0.000000 0.743817 0.000000
# 6 0.000000 0.000000 0.000000 0.000000 0.000000 0.019572
#
#
# Mechanical properties :
#
#
# Convention : Reuss Voigt Hill
#
# Bulk Modulus (GPa) = 66.92353 71.50285 69.21319
# Shear Modulus (GPa) = 5.12082 27.86431 16.49256
#
# Velocity S-wave (km/s) = 1.57415 3.67199 2.82502
# Velocity P-wave (km/s) = 5.97396 7.25108 6.64328
#
# Compressibility (1/GPa) = 0.01494243
#
# Stress axis : x y z
#
# Youngs Moduli (GPa) = 84.60842 100.62275 101.29891
#
# Poissons Ratio (x) = 0.49718 0.02508
# Poissons Ratio (y) = 0.41805 0.31956
# Poissons Ratio (z) = 0.02095 0.31743
#
# Static dielectric constant tensor:
#      x y z
#    x 1.797520 0.000000 0.000000 
#    y 0.000000 2.161300 0.000000 
#    z 0.000000 0.000000 1.782790 
# 
# From -- ./inp_files/56465.got.cif
#   From: 2010.05.17/outbox.cif.g08.bks.cpg/sg22_29_cif.got.tgz:56465.got - 2010.06.03 23:40:54.
