data_PCOD9328067
_publ_section_title
;
Structure prediction by ZEFSAII (Michael W. Deem and Ramdas Pophale) SiO2 
 PCOD9328067
Probable space group: F 2 2 2
;
_chemical_formula_sum "Si O2"
_cell_formula_units_Z 44
_cell_length_a 10.958484
_cell_length_b 10.444045
_cell_length_c 16.917462
_cell_angle_alpha 90.000000
_cell_angle_beta 90.000000
_cell_angle_gamma 90.000000
_cell_volume 1936.218752
_symmetry_space_group_name_H-M "F 2 2 2"
_symmetry_group_IT_number 22
_symmetry_cell_setting 'orthorhombic'
loop_
_space_group_symop_operation_xyz
x,y,z
-x,-y,z
x,-y,-z
-x,y,-z
x,1/2+y,1/2+z
-x,1/2-y,1/2+z
x,1/2-y,1/2-z
-x,1/2+y,1/2-z
1/2+x,y,1/2+z
1/2-x,-y,1/2+z
1/2+x,-y,1/2-z
1/2-x,y,1/2-z
1/2+x,1/2+y,z
1/2-x,1/2-y,z
1/2+x,1/2-y,-z
1/2-x,1/2+y,-z
loop_
_atom_site_type_symbol
_atom_site_label
_atom_site_fract_x
_atom_site_fract_y
_atom_site_fract_z
Si Si1 0.931498 0.379002 0.915564
Si Si2 0.207840 0.500000 0.500000
Si Si3 0.939944 0.868272 0.867118
Si Si4 0.750000 0.250000 0.250000
O O1 0.000000 0.500000 0.875213
O O2 0.962552 0.246908 0.872858
O O3 0.795590 0.422968 0.939122
O O4 0.000000 0.365794 0.000000
O O5 0.125696 0.598980 0.450885
O O6 0.835449 0.831147 0.806793
O O7 0.000000 0.000000 0.842371
#
# Coordination Sequence:
#
# PCOD9328067 Si02
#       4
#    16   8  16   4
#     4   9  19  36  63  98 133 168 216 277 343 405
#     4  10  22  42  72 104 136 174 228 300 350 400
#     4  12  26  43  69 100 136 185 239 283 343 421
#     4  12  28  48  64  96 152 194 220 290 356 402
#
# _framework density 22.724703999999999
#
# number of rings (size 3 to 8) (size 9 to 14) (size 15 to 20)
#    0.000    1.818    0.000    7.091    0.000   11.636 
#    0.000    0.000    0.000    2.182    0.000    0.000 
#    0.000    0.000    0.000    0.000    0.000    0.000 
#
# Total GULP energy -61538.951340 kJ/mol
# GULP energy per Si atom -5594.450122 kJ/mol
# Density = 2.267298 g / cm^3
# Si number density = 22.724704 Si / 1000 Ang^3
#
#
#
# Elastic Constant Matrix: (Units=GPa)
#
#
# Indices 1 2 3 4 5 6 
#
# 1 133.0038 88.2076 43.4627 0.0000 0.0000 0.0000
# 2 88.2076 229.1258 49.6751 0.0000 0.0000 0.0000
# 3 43.4627 49.6751 61.9680 0.0000 0.0000 0.0000
# 4 0.0000 0.0000 0.0000 12.7456 0.0000 0.0000
# 5 0.0000 0.0000 0.0000 0.0000 42.4862 0.0000
# 6 0.0000 0.0000 0.0000 0.0000 0.0000 56.7692
#
#
#
# Elastic Compliance Matrix: (Units=1/GPa)
#
#
# Indices 1 2 3 4 5 6 
#
# 1 0.011432 -0.003223 -0.005435 0.000000 0.000000 0.000000
# 2 -0.003223 0.006191 -0.002703 0.000000 0.000000 0.000000
# 3 -0.005435 -0.002703 0.022115 0.000000 0.000000 0.000000
# 4 0.000000 0.000000 0.000000 0.078459 0.000000 0.000000
# 5 0.000000 0.000000 0.000000 0.000000 0.023537 0.000000
# 6 0.000000 0.000000 0.000000 0.000000 0.000000 0.017615
#
#
# Mechanical properties :
#
#
# Convention : Reuss Voigt Hill
#
# Bulk Modulus (GPa) = 58.75915 87.42093 73.09004
# Shear Modulus (GPa) = 26.63237 38.58368 32.60802
#
# Velocity S-wave (km/s) = 3.42710 4.12500 3.79214
# Velocity P-wave (km/s) = 6.44772 7.82563 7.16985
#
# Compressibility (1/GPa) = 0.01701863
#
# Stress axis : x y z
#
# Youngs Moduli (GPa) = 87.47564 161.52504 45.21736
#
# Poissons Ratio (x) = 0.52055 0.24573
# Poissons Ratio (y) = 0.28191 0.12220
# Poissons Ratio (z) = 0.47539 0.43653
#
# Static dielectric constant tensor:
#      x y z
#    x 1.845120 0.000000 0.000000 
#    y 0.000000 1.873270 0.000000 
#    z 0.000000 0.000000 1.860000 
# 
# From -- ./inp_files/35560.got.cif
#   From: 2010.05.17/outbox.cif.g08.bks.cpg/sg22_18_cif.got.tgz:35560.got - 2010.06.03 23:40:54.
