data_PCOD9328951
_publ_section_title
;
Structure prediction by ZEFSAII (Michael W. Deem and Ramdas Pophale) SiO2 
 PCOD9328951
Probable space group: F 2 2 2
;
_chemical_formula_sum "Si O2"
_cell_formula_units_Z 64
_cell_length_a 24.162591
_cell_length_b 12.327828
_cell_length_c 8.514854
_cell_angle_alpha 90.000000
_cell_angle_beta 90.000000
_cell_angle_gamma 90.000000
_cell_volume 2536.338855
_symmetry_space_group_name_H-M "F 2 2 2"
_symmetry_group_IT_number 22
_symmetry_cell_setting 'orthorhombic'
loop_
_space_group_symop_operation_xyz
x,y,z
-x,-y,z
x,-y,-z
-x,y,-z
x,1/2+y,1/2+z
-x,1/2-y,1/2+z
x,1/2-y,1/2-z
-x,1/2+y,1/2-z
1/2+x,y,1/2+z
1/2-x,-y,1/2+z
1/2+x,-y,1/2-z
1/2-x,y,1/2-z
1/2+x,1/2+y,z
1/2-x,1/2-y,z
1/2+x,1/2-y,-z
1/2-x,1/2+y,-z
loop_
_atom_site_type_symbol
_atom_site_label
_atom_site_fract_x
_atom_site_fract_y
_atom_site_fract_z
Si Si1 0.010121 0.367326 0.814502
Si Si2 0.695372 0.426540 0.646593
Si Si3 0.611847 0.060010 0.361280
Si Si4 0.684738 0.740007 0.937619
O O1 0.985052 0.250000 0.750000
O O2 0.071612 0.366974 0.742019
O O3 0.000000 0.500000 0.782472
O O4 0.000000 0.359228 0.000000
O O5 0.715314 0.500000 0.500000
O O6 0.750000 0.401084 0.750000
O O7 0.649645 0.491993 0.742846
O O8 0.664209 0.327474 0.561900
O O9 0.655124 0.128117 0.466366
O O10 0.578767 0.000000 0.500000
O O11 0.678190 0.750000 0.750000
O O12 0.750000 0.750000 0.962291
#
# Coordination Sequence:
#
# PCOD9328951 Si02
#       4
#    16  16  16  16
#     4  11  30  56  88 121 165 214 288 370 441 513
#     4  12  25  44  75 116 171 223 273 333 412 505
#     4  12  28  48  80 123 163 218 282 351 428 509
#     4  11  23  43  71 109 166 219 272 336 397 496
#
# _framework density 25.233221
#
# number of rings (size 3 to 8) (size 9 to 14) (size 15 to 20)
#    0.000    0.500    2.500    4.500    7.000    3.500 
#    0.000    0.000    0.000    0.000    0.000    0.000 
#    0.000    0.000    0.000    0.000    0.000    0.000 
#
# Total GULP energy -89176.614603 kJ/mol
# GULP energy per Si atom -5573.538413 kJ/mol
# Density = 2.517579 g / cm^3
# Si number density = 25.233221 Si / 1000 Ang^3
#
#
#
# Elastic Constant Matrix: (Units=GPa)
#
#
# Indices 1 2 3 4 5 6 
#
# 1 47.3177 26.7097 42.0062 0.0000 0.0000 0.0000
# 2 26.7097 186.0664 92.2551 0.0000 0.0000 0.0000
# 3 42.0062 92.2551 178.8751 0.0000 0.0000 0.0000
# 4 0.0000 0.0000 0.0000 48.6192 0.0000 0.0000
# 5 0.0000 0.0000 0.0000 0.0000 21.0851 0.0000
# 6 0.0000 0.0000 0.0000 0.0000 0.0000 14.7706
#
#
#
# Elastic Compliance Matrix: (Units=1/GPa)
#
#
# Indices 1 2 3 4 5 6 
#
# 1 0.026832 -0.000977 -0.005797 0.000000 0.000000 0.000000
# 2 -0.000977 0.007257 -0.003513 0.000000 0.000000 0.000000
# 3 -0.005797 -0.003513 0.008764 0.000000 0.000000 0.000000
# 4 0.000000 0.000000 0.000000 0.020568 0.000000 0.000000
# 5 0.000000 0.000000 0.000000 0.000000 0.047427 0.000000
# 6 0.000000 0.000000 0.000000 0.000000 0.000000 0.067702
#
#
# Mechanical properties :
#
#
# Convention : Reuss Voigt Hill
#
# Bulk Modulus (GPa) = 44.88910 81.57791 63.23351
# Shear Modulus (GPa) = 24.20728 33.64753 28.92740
#
# Velocity S-wave (km/s) = 3.10068 3.65562 3.38953
# Velocity P-wave (km/s) = 5.53600 7.08645 6.35866
#
# Compressibility (1/GPa) = 0.02227712
#
# Stress axis : x y z
#
# Youngs Moduli (GPa) = 37.26933 137.80618 114.10735
#
# Poissons Ratio (x) = 0.13470 0.66147
# Poissons Ratio (y) = 0.03643 0.40086
# Poissons Ratio (z) = 0.21605 0.48412
#
# Static dielectric constant tensor:
#      x y z
#    x 2.000900 0.000000 0.000000 
#    y 0.000000 2.478030 0.000000 
#    z 0.000000 0.000000 1.937000 
# 
# From -- ./inp_files/8534.got.cif
#   From: 2010.05.17/outbox.cif.g08.bks.cpg/sg22_5_cif.got.tgz:8534.got - 2010.06.03 23:40:54.
