data_PCOD9328510
_publ_section_title
;
Structure prediction by ZEFSAII (Michael W. Deem and Ramdas Pophale) SiO2 
 PCOD9328510
Probable space group: F 2 2 2
;
_chemical_formula_sum "Si O2"
_cell_formula_units_Z 104
_cell_length_a 23.339583
_cell_length_b 28.216738
_cell_length_c 8.352796
_cell_angle_alpha 90.000000
_cell_angle_beta 90.000000
_cell_angle_gamma 90.000000
_cell_volume 5500.874956
_symmetry_space_group_name_H-M "F 2 2 2"
_symmetry_group_IT_number 22
_symmetry_cell_setting 'orthorhombic'
loop_
_space_group_symop_operation_xyz
x,y,z
-x,-y,z
x,-y,-z
-x,y,-z
x,1/2+y,1/2+z
-x,1/2-y,1/2+z
x,1/2-y,1/2-z
-x,1/2+y,1/2-z
1/2+x,y,1/2+z
1/2-x,-y,1/2+z
1/2+x,-y,1/2-z
1/2-x,y,1/2-z
1/2+x,1/2+y,z
1/2-x,1/2-y,z
1/2+x,1/2-y,-z
1/2-x,1/2+y,-z
loop_
_atom_site_type_symbol
_atom_site_label
_atom_site_fract_x
_atom_site_fract_y
_atom_site_fract_z
Si Si1 0.000000 0.000000 0.750036
Si Si2 0.818236 0.298543 0.550878
Si Si3 0.900771 0.000000 0.500000
Si Si4 0.723167 0.052693 0.571173
Si Si5 0.666302 0.407870 0.426510
Si Si6 0.626361 0.889992 0.569833
Si Si7 0.681666 0.307570 0.567628
Si Si8 0.000000 0.081803 0.000000
O O1 0.943544 0.992315 0.646546
O O2 0.988973 0.046243 0.853972
O O3 0.851181 0.336892 0.448715
O O4 0.749958 0.306241 0.531729
O O5 0.827136 0.307791 0.740650
O O6 0.836852 0.244855 0.512036
O O7 0.863485 0.047543 0.514942
O O8 0.750000 0.052905 0.750000
O O9 0.766681 0.081894 0.457385
O O10 0.661830 0.078198 0.558055
O O11 0.719137 0.000000 0.500000
O O12 0.645148 0.409066 0.243891
O O13 0.655241 0.355139 0.494309
O O14 0.558708 0.891474 0.538898
#
# Coordination Sequence:
#
# PCOD9328510 Si02
#       8
#     8  16   8  16  16  16  16   8
#     4  10  24  46  62  84 118 178 228 256 292 364
#     4   9  19  38  64  90 128 167 209 263 312 383
#     4  11  24  42  64  90 130 165 214 262 310 377
#     4  12  26  39  59  89 130 169 204 260 326 384
#     4  12  23  39  61 100 130 162 201 262 329 386
#     4  12  25  41  62  92 130 168 212 263 315 383
#     4   9  19  37  63  96 124 166 211 253 327 379
#     4  11  26  42  64  88 122 174 220 257 302 368
#
# _framework density 18.906084
#
# number of rings (size 3 to 8) (size 9 to 14) (size 15 to 20)
#    0.000    1.231    3.846    3.231    6.462    0.615 
#    0.000    1.538    0.000    5.538    0.000    0.000 
#    0.000    0.000    0.000    0.000    0.000    0.000 
#
# Total GULP energy -145176.517722 kJ/mol
# GULP energy per Si atom -5583.712220 kJ/mol
# Density = 1.886305 g / cm^3
# Si number density = 18.906084 Si / 1000 Ang^3
#
#
#
# Elastic Constant Matrix: (Units=GPa)
#
#
# Indices 1 2 3 4 5 6 
#
# 1 86.8053 26.4828 26.3198 -0.0017 0.0016 0.0003
# 2 26.4828 134.5599 29.5859 0.0009 0.0003 0.0001
# 3 26.3198 29.5859 56.3444 -0.0046 0.0051 -0.0012
# 4 -0.0017 0.0009 -0.0046 34.6470 0.0014 0.0003
# 5 0.0016 0.0003 0.0051 0.0014 34.2588 -0.0007
# 6 0.0003 0.0001 -0.0012 0.0003 -0.0007 23.5275
#
#
#
# Elastic Compliance Matrix: (Units=1/GPa)
#
#
# Indices 1 2 3 4 5 6 
#
# 1 0.013668 -0.001454 -0.005621 0.000000 0.000000 0.000000
# 2 -0.001454 0.008556 -0.003814 -0.000001 0.000001 0.000000
# 3 -0.005621 -0.003814 0.022376 0.000003 -0.000003 0.000001
# 4 0.000000 -0.000001 0.000003 0.028863 -0.000001 0.000000
# 5 0.000000 0.000001 -0.000003 -0.000001 0.029190 0.000001
# 6 0.000000 0.000000 0.000001 0.000000 0.000001 0.042503
#
#
# Mechanical properties :
#
#
# Convention : Reuss Voigt Hill
#
# Bulk Modulus (GPa) = 43.81557 49.16518 46.49038
# Shear Modulus (GPa) = 28.64650 31.50806 30.07728
#
# Velocity S-wave (km/s) = 3.89678 4.08678 3.99291
# Velocity P-wave (km/s) = 6.59335 6.95201 6.77505
#
# Compressibility (1/GPa) = 0.02282294
#
# Stress axis : x y z
#
# Youngs Moduli (GPa) = 73.16353 116.87274 44.69027
#
# Poissons Ratio (x) = 0.16994 0.25121
# Poissons Ratio (y) = 0.10639 0.17043
# Poissons Ratio (z) = 0.41126 0.44571
#
# Static dielectric constant tensor:
#      x y z
#    x 1.644840 0.000000 0.000000 
#    y 0.000000 1.657970 0.000000 
#    z 0.000000 0.000000 1.689680 
# 
# From -- ./inp_files/12985.got.cif
#   From: 2010.05.17/outbox.cif.g08.bks.cpg/sg22_7_cif.got.tgz:12985.got - 2010.06.03 23:40:54.
