data_PCOD9328817
_publ_section_title
;
Structure prediction by ZEFSAII (Michael W. Deem and Ramdas Pophale) SiO2 
 PCOD9328817
Probable space group: F 2 2 2
;
_chemical_formula_sum "Si O2"
_cell_formula_units_Z 80
_cell_length_a 12.253620
_cell_length_b 15.076943
_cell_length_c 23.119679
_cell_angle_alpha 90.000000
_cell_angle_beta 90.000000
_cell_angle_gamma 90.000000
_cell_volume 4271.294348
_symmetry_space_group_name_H-M "F 2 2 2"
_symmetry_group_IT_number 22
_symmetry_cell_setting 'orthorhombic'
loop_
_space_group_symop_operation_xyz
x,y,z
-x,-y,z
x,-y,-z
-x,y,-z
x,1/2+y,1/2+z
-x,1/2-y,1/2+z
x,1/2-y,1/2-z
-x,1/2+y,1/2-z
1/2+x,y,1/2+z
1/2-x,-y,1/2+z
1/2+x,-y,1/2-z
1/2-x,y,1/2-z
1/2+x,1/2+y,z
1/2-x,1/2-y,z
1/2+x,1/2-y,-z
1/2-x,1/2+y,-z
loop_
_atom_site_type_symbol
_atom_site_label
_atom_site_fract_x
_atom_site_fract_y
_atom_site_fract_z
Si Si1 0.869764 0.101015 0.434751
Si Si2 0.239474 0.147326 0.831165
Si Si3 0.413728 0.750000 0.750000
Si Si4 0.379852 0.388388 0.429103
Si Si5 0.067922 0.589181 0.247546
Si Si6 0.250000 0.750000 0.850544
O O1 0.772361 0.141127 0.397568
O O2 0.860969 0.125127 0.502251
O O3 0.992046 0.130552 0.416161
O O4 0.865415 0.994750 0.423969
O O5 0.250000 0.250000 0.813478
O O6 0.124284 0.110867 0.809233
O O7 0.332550 0.091629 0.797613
O O8 0.488450 0.668910 0.731245
O O9 0.342298 0.718956 0.804856
O O10 0.301577 0.327940 0.389895
O O11 0.000000 0.500000 0.247205
#
# Coordination Sequence:
#
# PCOD9328817 Si02
#       6
#    16  16   8  16  16   8
#     4   9  20  38  64  85 119 155 206 242 297 351
#     4  11  22  39  63  87 117 157 204 249 293 361
#     4  11  24  41  54  94 126 157 198 257 300 366
#     4   9  20  39  58  92 119 156 197 251 291 361
#     4  11  24  40  61  85 122 160 202 244 306 358
#     4  11  24  34  62  86 128 151 198 248 314 345
#
# _framework density 18.729685
#
# number of rings (size 3 to 8) (size 9 to 14) (size 15 to 20)
#    0.000    1.800    2.000    3.000    9.800    1.600 
#    0.000    0.000    0.000    0.000    0.000    0.000 
#    0.000    0.000    0.000    0.000    0.000    0.000 
#
# Total GULP energy -111570.565335 kJ/mol
# GULP energy per Si atom -5578.528267 kJ/mol
# Density = 1.868706 g / cm^3
# Si number density = 18.729685 Si / 1000 Ang^3
#
#
#
# Elastic Constant Matrix: (Units=GPa)
#
#
# Indices 1 2 3 4 5 6 
#
# 1 79.2557 35.3608 38.8136 0.0000 0.0000 0.0000
# 2 35.3608 79.6215 25.4512 0.0000 0.0000 0.0000
# 3 38.8136 25.4512 100.7141 0.0000 0.0000 0.0000
# 4 0.0000 0.0000 0.0000 12.6836 0.0000 0.0000
# 5 0.0000 0.0000 0.0000 0.0000 63.3947 0.0000
# 6 0.0000 0.0000 0.0000 0.0000 0.0000 38.2429
#
#
#
# Elastic Compliance Matrix: (Units=1/GPa)
#
#
# Indices 1 2 3 4 5 6 
#
# 1 0.018058 -0.006305 -0.005366 0.000000 0.000000 0.000000
# 2 -0.006305 0.015864 -0.001579 0.000000 0.000000 0.000000
# 3 -0.005366 -0.001579 0.012396 0.000000 0.000000 0.000000
# 4 0.000000 0.000000 0.000000 0.078842 0.000000 0.000000
# 5 0.000000 0.000000 0.000000 0.000000 0.015774 0.000000
# 6 0.000000 0.000000 0.000000 0.000000 0.000000 0.026149
#
#
# Mechanical properties :
#
#
# Convention : Reuss Voigt Hill
#
# Bulk Modulus (GPa) = 50.45770 50.98250 50.72010
# Shear Modulus (GPa) = 24.97630 33.52862 29.25246
#
# Velocity S-wave (km/s) = 3.65569 4.23559 3.95628
# Velocity P-wave (km/s) = 6.69457 7.15538 6.92881
#
# Compressibility (1/GPa) = 0.01981858
#
# Stress axis : x y z
#
# Youngs Moduli (GPa) = 55.37658 63.03509 80.66972
#
# Poissons Ratio (x) = 0.39741 0.43288
# Poissons Ratio (y) = 0.34912 0.12740
# Poissons Ratio (z) = 0.29716 0.09955
#
# Static dielectric constant tensor:
#      x y z
#    x 1.658380 0.000000 0.000000 
#    y 0.000000 1.619770 0.000000 
#    z 0.000000 0.000000 1.702720 
# 
# From -- ./inp_files/23567.got.cif
#   From: 2010.05.17/outbox.cif.g08.bks.cpg/sg22_12_cif.got.tgz:23567.got - 2010.06.03 23:40:54.
