data_PCOD9328947
_publ_section_title
;
Structure prediction by ZEFSAII (Michael W. Deem and Ramdas Pophale) SiO2 
 PCOD9328947
Probable space group: F 2 2 2
;
_chemical_formula_sum "Si O2"
_cell_formula_units_Z 96
_cell_length_a 13.692192
_cell_length_b 20.632388
_cell_length_c 14.880550
_cell_angle_alpha 90.000000
_cell_angle_beta 90.000000
_cell_angle_gamma 90.000000
_cell_volume 4203.794331
_symmetry_space_group_name_H-M "F 2 2 2"
_symmetry_group_IT_number 22
_symmetry_cell_setting 'orthorhombic'
loop_
_space_group_symop_operation_xyz
x,y,z
-x,-y,z
x,-y,-z
-x,y,-z
x,1/2+y,1/2+z
-x,1/2-y,1/2+z
x,1/2-y,1/2-z
-x,1/2+y,1/2-z
1/2+x,y,1/2+z
1/2-x,-y,1/2+z
1/2+x,-y,1/2-z
1/2-x,y,1/2-z
1/2+x,1/2+y,z
1/2-x,1/2-y,z
1/2+x,1/2-y,-z
1/2-x,1/2+y,-z
loop_
_atom_site_type_symbol
_atom_site_label
_atom_site_fract_x
_atom_site_fract_y
_atom_site_fract_z
Si Si1 0.078603 0.301475 0.418272
Si Si2 0.500000 0.500000 0.243233
Si Si3 0.700645 0.382867 0.104197
Si Si4 0.203933 0.000000 0.000000
Si Si5 0.250000 0.750000 0.494250
Si Si6 0.185972 0.073610 0.161494
Si Si7 0.109809 0.117804 0.697548
Si Si8 0.536528 0.750000 0.750000
O O1 0.152879 0.243019 0.444793
O O2 0.145121 0.362203 0.386856
O O3 0.000000 0.312242 0.500000
O O4 0.022875 0.286593 0.326440
O O5 0.593415 0.527521 0.187473
O O6 0.527849 0.436573 0.300626
O O7 0.812038 0.402154 0.123694
O O8 0.652256 0.383534 0.201089
O O9 0.650439 0.437641 0.043766
O O10 0.713400 0.311440 0.063480
O O11 0.249419 0.964953 0.913157
O O12 0.250000 0.086128 0.250000
O O13 0.089337 0.194288 0.691765
#
# Coordination Sequence:
#
# PCOD9328947 Si02
#       8
#    16   8  16   8   8  16  16   8
#     4  12  28  48  74 114 152 203 264 317 398 469
#     4  12  24  43  74 103 152 190 252 309 380 457
#     4  11  23  43  69  99 136 188 248 309 375 448
#     4  12  24  43  74 103 152 190 252 309 380 457
#     4  12  26  44  72 102 150 190 256 317 383 450
#     4  12  28  48  76 116 158 199 256 321 396 461
#     4  11  23  43  69  99 136 188 248 309 375 448
#     4  12  26  44  72 102 150 190 256 317 383 450
#
# _framework density 22.836511000000002
#
# number of rings (size 3 to 8) (size 9 to 14) (size 15 to 20)
#    0.000    0.333    5.000    4.000    4.667    1.333 
#    3.000    0.000    0.000    4.500    0.000    0.000 
#    0.000    0.000    0.000    0.000    0.000    0.000 
#
# Total GULP energy -133692.359396 kJ/mol
# GULP energy per Si atom -5570.514975 kJ/mol
# Density = 2.278453 g / cm^3
# Si number density = 22.836511 Si / 1000 Ang^3
#
#
#
# Elastic Constant Matrix: (Units=GPa)
#
#
# Indices 1 2 3 4 5 6 
#
# 1 78.5506 29.1309 22.0827 0.0000 0.0000 0.0000
# 2 29.1309 129.8906 8.2357 0.0000 0.0000 0.0000
# 3 22.0827 8.2357 92.8053 0.0000 0.0000 0.0000
# 4 0.0000 0.0000 0.0000 24.4901 0.0000 0.0000
# 5 0.0000 0.0000 0.0000 0.0000 20.2188 0.0000
# 6 0.0000 0.0000 0.0000 0.0000 0.0000 46.5796
#
#
#
# Elastic Compliance Matrix: (Units=1/GPa)
#
#
# Indices 1 2 3 4 5 6 
#
# 1 0.014797 -0.003113 -0.003245 0.000000 0.000000 0.000000
# 2 -0.003113 0.008397 -0.000004 0.000000 0.000000 0.000000
# 3 -0.003245 -0.000004 0.011548 0.000000 0.000000 0.000000
# 4 0.000000 0.000000 0.000000 0.040833 0.000000 0.000000
# 5 0.000000 0.000000 0.000000 0.000000 0.049459 0.000000
# 6 0.000000 0.000000 0.000000 0.000000 0.000000 0.021469
#
#
# Mechanical properties :
#
#
# Convention : Reuss Voigt Hill
#
# Bulk Modulus (GPa) = 45.41735 46.68277 46.05006
# Shear Modulus (GPa) = 30.01810 34.37750 32.19780
#
# Velocity S-wave (km/s) = 3.62951 3.88412 3.75897
# Velocity P-wave (km/s) = 6.12337 6.37195 6.24890
#
# Compressibility (1/GPa) = 0.02201802
#
# Stress axis : x y z
#
# Youngs Moduli (GPa) = 67.58009 119.08726 86.59724
#
# Poissons Ratio (x) = 0.37070 0.28098
# Poissons Ratio (y) = 0.21037 0.00039
# Poissons Ratio (z) = 0.21928 0.00053
#
# Static dielectric constant tensor:
#      x y z
#    x 1.933370 0.000000 0.000000 
#    y 0.000000 2.028410 0.000000 
#    z 0.000000 0.000000 1.871200 
# 
# From -- ./inp_files/29446.got.cif
#   From: 2010.05.17/outbox.cif.g08.bks.cpg/sg22_15_cif.got.tgz:29446.got - 2010.06.03 23:40:54.
