data_PCOD9328594
_publ_section_title
;
Structure prediction by ZEFSAII (Michael W. Deem and Ramdas Pophale) SiO2 
 PCOD9328594
Probable space group: F 2 2 2
;
_chemical_formula_sum "Si O2"
_cell_formula_units_Z 88
_cell_length_a 21.979474
_cell_length_b 19.065606
_cell_length_c 9.547211
_cell_angle_alpha 90.000000
_cell_angle_beta 90.000000
_cell_angle_gamma 90.000000
_cell_volume 4000.777782
_symmetry_space_group_name_H-M "F 2 2 2"
_symmetry_group_IT_number 22
_symmetry_cell_setting 'orthorhombic'
loop_
_space_group_symop_operation_xyz
x,y,z
-x,-y,z
x,-y,-z
-x,y,-z
x,1/2+y,1/2+z
-x,1/2-y,1/2+z
x,1/2-y,1/2-z
-x,1/2+y,1/2-z
1/2+x,y,1/2+z
1/2-x,-y,1/2+z
1/2+x,-y,1/2-z
1/2-x,y,1/2-z
1/2+x,1/2+y,z
1/2-x,1/2-y,z
1/2+x,1/2-y,-z
1/2-x,1/2+y,-z
loop_
_atom_site_type_symbol
_atom_site_label
_atom_site_fract_x
_atom_site_fract_y
_atom_site_fract_z
Si Si1 0.840216 0.170043 0.244385
Si Si2 0.596017 0.575782 0.313898
Si Si3 0.572617 0.192753 0.019646
Si Si4 0.750000 0.750000 0.250000
Si Si5 0.355178 0.329951 0.071920
Si Si6 0.500000 0.000000 0.000000
Si Si7 0.299699 0.970081 0.147281
O O1 0.816836 0.250000 0.250000
O O2 0.906095 0.176879 0.321354
O O3 0.804774 0.112951 0.335488
O O4 0.839117 0.143748 0.084548
O O5 0.609989 0.637520 0.424360
O O6 0.608944 0.613260 0.166194
O O7 0.534862 0.549118 0.388863
O O8 0.636445 0.506241 0.318995
O O9 0.598728 0.266582 0.965583
O O10 0.500000 0.191221 0.000000
O O11 0.703876 0.702042 0.154371
O O12 0.250000 0.999177 0.250000
O O13 0.281795 0.000000 0.000000
#
# Coordination Sequence:
#
# PCOD9328594 Si02
#       7
#    16  16  16   4  16   4  16
#     4  10  25  49  75 109 151 193 257 306 381 457
#     4  12  24  46  76 107 145 200 253 301 389 446
#     4  11  22  48  79 108 148 197 247 315 386 462
#     4  12  24  48  74 112 160 200 248 314 388 464
#     4  11  27  43  76 114 150 196 255 314 378 447
#     4  12  24  48  80  94 144 208 250 312 372 472
#     4  12  28  47  75 108 151 202 252 307 377 454
#
# _framework density 21.995723000000002
#
# number of rings (size 3 to 8) (size 9 to 14) (size 15 to 20)
#    0.000    0.727    5.455    0.000    3.818    7.636 
#    0.000    0.909    4.000    0.000    0.000    0.000 
#    0.000    0.000    0.000    0.000    0.000    0.000 
#
# Total GULP energy -122652.080021 kJ/mol
# GULP energy per Si atom -5575.094546 kJ/mol
# Density = 2.194566 g / cm^3
# Si number density = 21.995723 Si / 1000 Ang^3
#
#
#
# Elastic Constant Matrix: (Units=GPa)
#
#
# Indices 1 2 3 4 5 6 
#
# 1 118.5203 16.8287 57.6019 0.0000 0.0000 0.0000
# 2 16.8287 94.7092 52.5010 0.0000 0.0000 0.0000
# 3 57.6019 52.5010 193.7564 0.0000 0.0000 -0.0001
# 4 0.0000 0.0000 0.0000 15.8031 0.0000 0.0000
# 5 0.0000 0.0000 0.0000 0.0000 18.5280 0.0000
# 6 0.0000 0.0000 -0.0001 0.0000 0.0000 94.3737
#
#
#
# Elastic Compliance Matrix: (Units=1/GPa)
#
#
# Indices 1 2 3 4 5 6 
#
# 1 0.009864 -0.000150 -0.002892 0.000000 0.000000 0.000000
# 2 -0.000150 0.012427 -0.003323 0.000000 0.000000 0.000000
# 3 -0.002892 -0.003323 0.006921 0.000000 0.000000 0.000000
# 4 0.000000 0.000000 0.000000 0.063279 0.000000 0.000000
# 5 0.000000 0.000000 0.000000 0.000000 0.053972 0.000000
# 6 0.000000 0.000000 0.000000 0.000000 0.000000 0.010596
#
#
# Mechanical properties :
#
#
# Convention : Reuss Voigt Hill
#
# Bulk Modulus (GPa) = 60.66585 73.42767 67.04676
# Shear Modulus (GPa) = 28.52524 44.41125 36.46825
#
# Velocity S-wave (km/s) = 3.60509 4.49830 4.07624
# Velocity P-wave (km/s) = 6.70593 7.77398 7.25963
#
# Compressibility (1/GPa) = 0.01648374
#
# Stress axis : x y z
#
# Youngs Moduli (GPa) = 101.37730 80.46861 144.48264
#
# Poissons Ratio (x) = 0.01204 0.41784
# Poissons Ratio (y) = 0.01517 0.48009
# Poissons Ratio (z) = 0.29318 0.26738
#
# Static dielectric constant tensor:
#      x y z
#    x 1.820610 0.000000 0.000000 
#    y 0.000000 1.926220 0.000000 
#    z 0.000000 0.000000 1.618490 
# 
# From -- ./inp_files/13786.got.cif
#   From: 2010.05.17/outbox.cif.g08.bks.cpg/sg22_7_cif.got.tgz:13786.got - 2010.06.03 23:40:54.
