data_PCOD9328525
_publ_section_title
;
Structure prediction by ZEFSAII (Michael W. Deem and Ramdas Pophale) SiO2 
 PCOD9328525
Probable space group: F 2 2 2
;
_chemical_formula_sum "Si O2"
_cell_formula_units_Z 68
_cell_length_a 18.356637
_cell_length_b 8.512392
_cell_length_c 18.386453
_cell_angle_alpha 90.000000
_cell_angle_beta 90.000000
_cell_angle_gamma 90.000000
_cell_volume 2873.046736
_symmetry_space_group_name_H-M "F 2 2 2"
_symmetry_group_IT_number 22
_symmetry_cell_setting 'orthorhombic'
loop_
_space_group_symop_operation_xyz
x,y,z
-x,-y,z
x,-y,-z
-x,y,-z
x,1/2+y,1/2+z
-x,1/2-y,1/2+z
x,1/2-y,1/2-z
-x,1/2+y,1/2-z
1/2+x,y,1/2+z
1/2-x,-y,1/2+z
1/2+x,-y,1/2-z
1/2-x,y,1/2-z
1/2+x,1/2+y,z
1/2-x,1/2-y,z
1/2+x,1/2-y,-z
1/2-x,1/2+y,-z
loop_
_atom_site_type_symbol
_atom_site_label
_atom_site_fract_x
_atom_site_fract_y
_atom_site_fract_z
Si Si1 0.025270 0.675904 0.684986
Si Si2 0.750000 0.250000 0.250000
Si Si3 0.878365 0.176387 0.355478
Si Si4 0.366108 0.027927 0.414267
Si Si5 0.750000 0.750000 0.429632
Si Si6 0.647865 0.000000 0.000000
O O1 0.072688 0.750000 0.750000
O O2 0.067565 0.639304 0.610494
O O3 0.000000 0.500000 0.704091
O O4 0.958915 0.798061 0.677331
O O5 0.808937 0.153580 0.301067
O O6 0.866253 0.355483 0.381982
O O7 0.886221 0.055877 0.423050
O O8 0.295807 0.121769 0.387620
O O9 0.364762 0.000000 0.500000
O O10 0.696117 0.650459 0.479736
#
# Coordination Sequence:
#
# PCOD9328525 Si02
#       6
#    16   4  16  16   8   8
#     4  10  24  47  71  99 147 191 242 294 365 444
#     4  12  22  44  76  98 146 192 228 282 398 428
#     4  11  24  44  73 105 143 195 238 298 366 442
#     4  11  23  46  72 101 144 190 240 302 370 426
#     4  12  21  40  65 103 139 176 240 306 355 418
#     4  12  22  42  73 104 145 178 252 308 344 432
#
# _framework density 23.668253
#
# number of rings (size 3 to 8) (size 9 to 14) (size 15 to 20)
#    0.000    0.941    4.706    2.118    0.000    6.118 
#    8.471    1.176    0.000    0.000    0.000    0.000 
#    0.000    0.000    0.000    0.000    0.000    0.000 
#
# Total GULP energy -94756.351571 kJ/mol
# GULP energy per Si atom -5573.903034 kJ/mol
# Density = 2.361438 g / cm^3
# Si number density = 23.668253 Si / 1000 Ang^3
#
#
#
# Elastic Constant Matrix: (Units=GPa)
#
#
# Indices 1 2 3 4 5 6 
#
# 1 85.0280 26.9288 51.1667 0.0000 0.0000 0.0000
# 2 26.9288 67.3928 40.6922 0.0000 0.0000 0.0000
# 3 51.1667 40.6922 105.4563 0.0000 0.0000 0.0000
# 4 0.0000 0.0000 0.0000 53.2102 0.0000 0.0000
# 5 0.0000 0.0000 0.0000 0.0000 -0.0084 0.0000
# 6 0.0000 0.0000 0.0000 0.0000 0.0000 20.9709
#
#
#
# Elastic Compliance Matrix: (Units=1/GPa)
#
#
# Indices 1 2 3 4 5 6 
#
# 1 0.016891 -0.002348 -0.007289 0.000000 0.000002 0.000000
# 2 -0.002348 0.019672 -0.006452 0.000000 -0.000009 0.000000
# 3 -0.007289 -0.006452 0.015509 0.000000 0.000002 0.000000
# 4 0.000000 0.000000 0.000000 0.018793 -0.000002 0.000000
# 5 0.000002 -0.000009 0.000002 -0.000002********** 0.000004
# 6 0.000000 0.000000 0.000000 0.000000 0.000004 0.047685
#
#
# Mechanical properties :
#
#
# Convention : Reuss Voigt Hill
#
# Bulk Modulus (GPa) = 50.26639 55.05027 52.65833
# Shear Modulus (GPa) = -0.04211 24.10718 12.03253
#
# Velocity S-wave (km/s) = -0.13353 3.19493 2.25718
# Velocity P-wave (km/s) = 4.61088 6.07616 5.39351
#
# Compressibility (1/GPa) = 0.01989401
#
# Stress axis : x y z
#
# Youngs Moduli (GPa) = 59.20351 50.83341 64.47930
#
# Poissons Ratio (x) = 0.11935 0.47001
# Poissons Ratio (y) = 0.13900 0.41600
# Poissons Ratio (z) = 0.43156 0.32796
#
# Static dielectric constant tensor:
#      x y z
#    x 2.011080 0.000000 0.000000 
#    y 0.000000 1.968810 0.000000 
#    z 0.000000 0.000000 2.036560 
# 
# From -- ./inp_files/34888.got.cif
#   From: 2010.05.17/outbox.cif.g08.bks.cpg/sg22_18_cif.got.tgz:34888.got - 2010.06.03 23:40:54.
