data_PCOD9328864
_publ_section_title
;
Structure prediction by ZEFSAII (Michael W. Deem and Ramdas Pophale) SiO2 
 PCOD9328864
Probable space group: F 2 2 2
;
_chemical_formula_sum "Si O2"
_cell_formula_units_Z 108
_cell_length_a 13.657248
_cell_length_b 30.675692
_cell_length_c 12.440296
_cell_angle_alpha 90.000000
_cell_angle_beta 90.000000
_cell_angle_gamma 90.000000
_cell_volume 5211.806441
_symmetry_space_group_name_H-M "F 2 2 2"
_symmetry_group_IT_number 22
_symmetry_cell_setting 'orthorhombic'
loop_
_space_group_symop_operation_xyz
x,y,z
-x,-y,z
x,-y,-z
-x,y,-z
x,1/2+y,1/2+z
-x,1/2-y,1/2+z
x,1/2-y,1/2-z
-x,1/2+y,1/2-z
1/2+x,y,1/2+z
1/2-x,-y,1/2+z
1/2+x,-y,1/2-z
1/2-x,y,1/2-z
1/2+x,1/2+y,z
1/2-x,1/2-y,z
1/2+x,1/2-y,-z
1/2-x,1/2+y,-z
loop_
_atom_site_type_symbol
_atom_site_label
_atom_site_fract_x
_atom_site_fract_y
_atom_site_fract_z
Si Si1 0.900720 0.855028 0.543868
Si Si2 0.500000 0.000000 0.500000
Si Si3 0.750000 0.008172 0.750000
Si Si4 0.793679 0.202995 0.060953
Si Si5 0.726449 0.079951 0.935176
Si Si6 0.140212 0.940803 0.131008
Si Si7 0.167204 0.335032 0.339974
Si Si8 0.940687 0.649600 0.707987
O O1 0.801775 0.827240 0.546754
O O2 0.875192 0.895730 0.465240
O O3 0.917746 0.861906 0.669221
O O4 0.000000 0.833355 0.500000
O O5 0.564916 0.969014 0.568010
O O6 0.728412 0.039938 0.851291
O O7 0.834836 0.972820 0.771121
O O8 0.750000 0.250000 0.086771
O O9 0.870359 0.185726 0.150712
O O10 0.838160 0.198256 0.940813
O O11 0.796792 0.117524 0.884138
O O12 0.768337 0.065905 0.050931
O O13 0.091919 0.894431 0.149470
O O14 0.250000 0.322994 0.250000
O O15 0.055778 0.339511 0.299413
#
# Coordination Sequence:
#
# PCOD9328864 Si02
#       8
#    16   4   8  16  16  16  16  16
#     4  11  25  43  68 100 139 183 234 301 369 438
#     4  12  24  36  60 104 132 164 232 316 332 424
#     4  12  24  40  66  96 142 192 236 306 368 424
#     4  11  26  46  70 107 144 180 239 300 361 448
#     4  11  22  43  65  97 142 183 236 301 365 425
#     4  12  24  39  64 102 135 178 245 299 356 425
#     4  11  23  44  75 104 142 188 233 294 370 439
#     4  12  24  43  76 101 136 193 240 296 370 439
#
# _framework density 20.722182
#
# number of rings (size 3 to 8) (size 9 to 14) (size 15 to 20)
#    0.000    0.593    5.185    4.444    0.000    2.667 
#    0.000    1.481    0.000    0.889    0.000    0.000 
#    0.000    0.000    0.000    0.000    0.000    0.000 
#
# Total GULP energy -150564.518305 kJ/mol
# GULP energy per Si atom -5576.463641 kJ/mol
# Density = 2.067502 g / cm^3
# Si number density = 20.722182 Si / 1000 Ang^3
#
#
#
# Elastic Constant Matrix: (Units=GPa)
#
#
# Indices 1 2 3 4 5 6 
#
# 1 120.9183 31.1988 24.1487 0.0000 0.0000 0.0000
# 2 31.1988 84.8664 10.7306 0.0000 0.0000 0.0000
# 3 24.1487 10.7306 42.7265 0.0000 0.0000 0.0000
# 4 0.0000 0.0000 0.0000 243.9210 0.0000 0.0000
# 5 0.0000 0.0000 0.0000 0.0000 58.3266 0.0000
# 6 0.0000 0.0000 0.0000 0.0000 0.0000 19.3756
#
#
#
# Elastic Compliance Matrix: (Units=1/GPa)
#
#
# Indices 1 2 3 4 5 6 
#
# 1 0.010042 -0.003072 -0.004904 0.000000 0.000000 0.000000
# 2 -0.003072 0.013109 -0.001556 0.000000 0.000000 0.000000
# 3 -0.004904 -0.001556 0.026567 0.000000 0.000000 0.000000
# 4 0.000000 0.000000 0.000000 0.004100 0.000000 0.000000
# 5 0.000000 0.000000 0.000000 0.000000 0.017145 0.000000
# 6 0.000000 0.000000 0.000000 0.000000 0.000000 0.051611
#
#
# Mechanical properties :
#
#
# Convention : Reuss Voigt Hill
#
# Bulk Modulus (GPa) = 32.62183 42.29641 37.45912
# Shear Modulus (GPa) = 32.92581 76.48687 54.70634
#
# Velocity S-wave (km/s) = 3.99045 6.08200 5.14366
# Velocity P-wave (km/s) = 6.08344 8.35323 7.30701
#
# Compressibility (1/GPa) = 0.03065432
#
# Stress axis : x y z
#
# Youngs Moduli (GPa) = 99.58187 76.28243 37.64015
#
# Poissons Ratio (x) = 0.23431 0.18460
# Poissons Ratio (y) = 0.30587 0.05858
# Poissons Ratio (z) = 0.48837 0.11872
#
# Static dielectric constant tensor:
#      x y z
#    x -12.767980 0.000000 0.000000 
#    y 0.000000 1.411550 0.000000 
#    z 0.000000 0.000000 1.771680 
# 
# From -- ./inp_files/20332.got.cif
#   From: 2010.05.17/outbox.cif.g08.bks.cpg/sg22_11_cif.got.tgz:20332.got - 2010.06.03 23:40:54.
