data_PCOD9328607
_publ_section_title
;
Structure prediction by ZEFSAII (Michael W. Deem and Ramdas Pophale) SiO2 
 PCOD9328607
Probable space group: F 2 2 2
;
_chemical_formula_sum "Si O2"
_cell_formula_units_Z 56
_cell_length_a 21.142585
_cell_length_b 5.995863
_cell_length_c 19.051096
_cell_angle_alpha 90.000000
_cell_angle_beta 90.000000
_cell_angle_gamma 90.000000
_cell_volume 2415.070159
_symmetry_space_group_name_H-M "F 2 2 2"
_symmetry_group_IT_number 22
_symmetry_cell_setting 'orthorhombic'
loop_
_space_group_symop_operation_xyz
x,y,z
-x,-y,z
x,-y,-z
-x,y,-z
x,1/2+y,1/2+z
-x,1/2-y,1/2+z
x,1/2-y,1/2-z
-x,1/2+y,1/2-z
1/2+x,y,1/2+z
1/2-x,-y,1/2+z
1/2+x,-y,1/2-z
1/2-x,y,1/2-z
1/2+x,1/2+y,z
1/2-x,1/2-y,z
1/2+x,1/2-y,-z
1/2-x,1/2+y,-z
loop_
_atom_site_type_symbol
_atom_site_label
_atom_site_fract_x
_atom_site_fract_y
_atom_site_fract_z
Si Si1 0.703692 0.071238 0.425619
Si Si2 0.125815 0.239325 0.171091
Si Si3 0.500000 0.500000 0.135608
Si Si4 0.918253 0.631830 0.928996
O O1 0.750000 0.250000 0.389857
O O2 0.639746 0.202831 0.443663
O O3 0.733594 0.000000 0.500000
O O4 0.679308 0.869667 0.378176
O O5 0.150034 0.250000 0.250000
O O6 0.063080 0.080670 0.175203
O O7 0.102628 0.467409 0.134227
O O8 0.477012 0.712992 0.091540
O O9 0.928692 0.500000 0.000000
#
# Coordination Sequence:
#
# PCOD9328607 Si02
#       4
#    16  16   8  16
#     4  11  24  45  76 103 136 188 247 301 363 430
#     4  11  26  45  70 106 145 189 240 296 370 433
#     4  10  26  39  70 102 149 194 238 296 359 436
#     4  11  23  45  69 106 143 187 249 298 357 431
#
# _framework density 23.187730999999999
#
# number of rings (size 3 to 8) (size 9 to 14) (size 15 to 20)
#    0.000    1.143    2.857    1.714    4.000    6.857 
#    0.000    4.286    0.000    0.000    0.000    0.000 
#    0.000    0.000    0.000    0.000    0.000    0.000 
#
# Total GULP energy -78372.544172 kJ/mol
# GULP energy per Si atom -5598.038869 kJ/mol
# Density = 2.313495 g / cm^3
# Si number density = 23.187731 Si / 1000 Ang^3
#
#
#
# Elastic Constant Matrix: (Units=GPa)
#
#
# Indices 1 2 3 4 5 6 
#
# 1 76.5401 17.7810 6.8965 0.0000 0.0000 0.0000
# 2 17.7810 126.3943 66.2156 0.0001 0.0000 0.0000
# 3 6.8965 66.2156 148.3855 0.0000 0.0000 0.0000
# 4 0.0000 0.0001 0.0000 24.2693 0.0000 0.0000
# 5 0.0000 0.0000 0.0000 0.0000 10.6839 0.0000
# 6 0.0000 0.0000 0.0000 0.0000 0.0000 62.8235
#
#
#
# Elastic Compliance Matrix: (Units=1/GPa)
#
#
# Indices 1 2 3 4 5 6 
#
# 1 0.013516 -0.002052 0.000288 0.000000 0.000000 0.000000
# 2 -0.002052 0.010637 -0.004651 0.000000 0.000000 0.000000
# 3 0.000288 -0.004651 0.008801 0.000000 0.000000 0.000000
# 4 0.000000 0.000000 0.000000 0.041204 0.000000 0.000000
# 5 0.000000 0.000000 0.000000 0.000000 0.093599 0.000000
# 6 0.000000 0.000000 0.000000 0.000000 0.000000 0.015918
#
#
# Mechanical properties :
#
#
# Convention : Reuss Voigt Hill
#
# Bulk Modulus (GPa) = 49.69499 59.23402 54.46451
# Shear Modulus (GPa) = 24.60450 36.91712 30.76081
#
# Velocity S-wave (km/s) = 3.26099 3.99444 3.64620
# Velocity P-wave (km/s) = 5.97133 6.84653 6.42385
#
# Compressibility (1/GPa) = 0.02012275
#
# Stress axis : x y z
#
# Youngs Moduli (GPa) = 73.98730 94.00983 113.61742
#
# Poissons Ratio (x) = 0.19291 -0.03267
# Poissons Ratio (y) = 0.15182 0.52848
# Poissons Ratio (z) = -0.02127 0.43727
#
# Static dielectric constant tensor:
#      x y z
#    x 1.887890 0.000000 0.000000 
#    y 0.000000 1.943950 0.000000 
#    z 0.000000 0.000000 1.826960 
# 
# From -- ./inp_files/2618.got.cif
#   From: 2010.05.17/outbox.cif.g08.bks.cpg/sg22_2_cif.got.tgz:2618.got - 2010.06.03 23:40:54.
