data_PCOD9328291
_publ_section_title
;
Structure prediction by ZEFSAII (Michael W. Deem and Ramdas Pophale) SiO2 
 PCOD9328291
Probable space group: F 2 2 2
;
_chemical_formula_sum "Si O2"
_cell_formula_units_Z 64
_cell_length_a 10.924335
_cell_length_b 9.194304
_cell_length_c 30.821867
_cell_angle_alpha 90.000000
_cell_angle_beta 90.000000
_cell_angle_gamma 90.000000
_cell_volume 3095.799393
_symmetry_space_group_name_H-M "F 2 2 2"
_symmetry_group_IT_number 22
_symmetry_cell_setting 'orthorhombic'
loop_
_space_group_symop_operation_xyz
x,y,z
-x,-y,z
x,-y,-z
-x,y,-z
x,1/2+y,1/2+z
-x,1/2-y,1/2+z
x,1/2-y,1/2-z
-x,1/2+y,1/2-z
1/2+x,y,1/2+z
1/2-x,-y,1/2+z
1/2+x,-y,1/2-z
1/2-x,y,1/2-z
1/2+x,1/2+y,z
1/2-x,1/2-y,z
1/2+x,1/2-y,-z
1/2-x,1/2+y,-z
loop_
_atom_site_type_symbol
_atom_site_label
_atom_site_fract_x
_atom_site_fract_y
_atom_site_fract_z
Si Si1 0.801035 0.500000 0.000000
Si Si2 0.000000 0.752444 0.500000
Si Si3 0.150442 0.118698 0.072352
Si Si4 0.863485 0.361270 0.671961
Si Si5 0.128112 0.819593 0.202247
O O1 0.717466 0.502923 0.042306
O O2 0.885142 0.640756 0.995366
O O3 0.033019 0.666424 0.543947
O O4 0.250000 0.250000 0.073937
O O5 0.131008 0.082862 0.122245
O O6 0.750000 0.250000 0.677750
O O7 0.853924 0.505598 0.701535
O O8 0.995999 0.289908 0.680878
O O9 0.121163 0.750000 0.250000
O O10 0.250000 0.750000 0.181099
#
# Coordination Sequence:
#
# PCOD9328291 Si02
#       5
#     8   8  16  16  16
#     4   9  18  33  54  80 118 157 190 235 286 340
#     4   9  18  33  54  80 118 159 192 233 284 342
#     4   9  19  35  55  86 116 151 200 239 285 346
#     4  10  23  42  66  92 123 160 202 253 305 362
#     4  10  24  43  62  91 121 151 200 252 308 375
#
# _framework density 20.673176000000002
#
# number of rings (size 3 to 8) (size 9 to 14) (size 15 to 20)
#    0.000    2.500    0.000    0.000    0.000   16.000 
#    0.000    7.500    0.000    0.000    0.000    0.000 
#    0.000    0.000    0.000    0.000    0.000    0.000 
#
# Total GULP energy -89218.349950 kJ/mol
# GULP energy per Si atom -5576.146872 kJ/mol
# Density = 2.062612 g / cm^3
# Si number density = 20.673176 Si / 1000 Ang^3
#
#
#
# Elastic Constant Matrix: (Units=GPa)
#
#
# Indices 1 2 3 4 5 6 
#
# 1 179.6255 55.9716 43.5319 0.0000 0.0000 0.0000
# 2 55.9716 80.5274 41.6175 0.0000 0.0000 0.0000
# 3 43.5319 41.6175 131.3363 0.0000 0.0000 0.0000
# 4 0.0000 0.0000 0.0000 99.5489 0.0000 0.0000
# 5 0.0000 0.0000 0.0000 0.0000 32.9550 0.0000
# 6 0.0000 0.0000 0.0000 0.0000 0.0000 43.2346
#
#
#
# Elastic Compliance Matrix: (Units=1/GPa)
#
#
# Indices 1 2 3 4 5 6 
#
# 1 0.007206 -0.004513 -0.000958 0.000000 0.000000 0.000000
# 2 -0.004513 0.017677 -0.004105 0.000000 0.000000 0.000000
# 3 -0.000958 -0.004105 0.009233 0.000000 0.000000 0.000000
# 4 0.000000 0.000000 0.000000 0.010045 0.000000 0.000000
# 5 0.000000 0.000000 0.000000 0.000000 0.030344 0.000000
# 6 0.000000 0.000000 0.000000 0.000000 0.000000 0.023130
#
#
# Mechanical properties :
#
#
# Convention : Reuss Voigt Hill
#
# Bulk Modulus (GPa) = 66.83897 74.85903 70.84900
# Shear Modulus (GPa) = 41.05923 51.83892 46.44908
#
# Velocity S-wave (km/s) = 4.46142 5.01297 4.74521
# Velocity P-wave (km/s) = 7.67727 8.35439 8.02297
#
# Compressibility (1/GPa) = 0.01496133
#
# Stress axis : x y z
#
# Youngs Moduli (GPa) = 138.77946 56.57116 108.31209
#
# Poissons Ratio (x) = 0.25532 0.10379
# Poissons Ratio (y) = 0.62634 0.44467
# Poissons Ratio (z) = 0.13298 0.23225
#
# Static dielectric constant tensor:
#      x y z
#    x 1.759230 0.000000 0.000000 
#    y 0.000000 1.758940 0.000000 
#    z 0.000000 0.000000 1.737170 
# 
# From -- ./inp_files/8580.got.cif
#   From: 2010.05.17/outbox.cif.g08.bks.cpg/sg22_5_cif.got.tgz:8580.got - 2010.06.03 23:40:54.
