data_PCOD9328376
_publ_section_title
;
Structure prediction by ZEFSAII (Michael W. Deem and Ramdas Pophale) SiO2 
 PCOD9328376
Probable space group: F 2 2 2
;
_chemical_formula_sum "Si O2"
_cell_formula_units_Z 44
_cell_length_a 32.732542
_cell_length_b 8.633696
_cell_length_c 6.806924
_cell_angle_alpha 90.000000
_cell_angle_beta 90.000000
_cell_angle_gamma 90.000000
_cell_volume 1923.655897
_symmetry_space_group_name_H-M "F 2 2 2"
_symmetry_group_IT_number 22
_symmetry_cell_setting 'orthorhombic'
loop_
_space_group_symop_operation_xyz
x,y,z
-x,-y,z
x,-y,-z
-x,y,-z
x,1/2+y,1/2+z
-x,1/2-y,1/2+z
x,1/2-y,1/2-z
-x,1/2+y,1/2-z
1/2+x,y,1/2+z
1/2-x,-y,1/2+z
1/2+x,-y,1/2-z
1/2-x,y,1/2-z
1/2+x,1/2+y,z
1/2-x,1/2-y,z
1/2+x,1/2-y,-z
1/2-x,1/2+y,-z
loop_
_atom_site_type_symbol
_atom_site_label
_atom_site_fract_x
_atom_site_fract_y
_atom_site_fract_z
Si Si1 0.124411 0.678228 0.532096
Si Si2 0.551141 0.250000 0.250000
Si Si3 0.792212 0.818521 0.472166
Si Si4 0.500000 0.000000 0.000000
O O1 0.137369 0.500000 0.500000
O O2 0.117394 0.750000 0.750000
O O3 0.082129 0.690785 0.416680
O O4 0.162957 0.774718 0.452150
O O5 0.525410 0.113986 0.145080
O O6 0.793851 0.750000 0.250000
O O7 0.750000 0.750000 0.551309
O O8 0.788258 0.000000 0.500000
#
# Coordination Sequence:
#
# PCOD9328376 Si02
#       4
#    16   8  16   4
#     4  11  26  47  78 111 154 200 254 311 378 449
#     4  12  30  52  79 114 146 202 245 326 380 476
#     4  10  23  45  72 109 156 203 253 305 365 438
#     4  12  32  52  84 108 158 190 256 314 404 454
#
# _framework density 22.873113
#
# number of rings (size 3 to 8) (size 9 to 14) (size 15 to 20)
#    0.000    1.091    0.000    3.273   20.364    0.000 
#    0.000    0.000    0.000    0.000    0.000    0.000 
#    0.000    0.000    0.000    0.000    0.000    0.000 
#
# Total GULP energy -61404.012335 kJ/mol
# GULP energy per Si atom -5582.182940 kJ/mol
# Density = 2.282105 g / cm^3
# Si number density = 22.873113 Si / 1000 Ang^3
#
#
#
# Elastic Constant Matrix: (Units=GPa)
#
#
# Indices 1 2 3 4 5 6 
#
# 1 196.1223 99.1664 53.3017 0.0000 0.0000 0.0000
# 2 99.1664 243.1011 57.4336 0.0000 0.0000 0.0000
# 3 53.3017 57.4336 184.2353 0.0000 0.0000 0.0000
# 4 0.0000 0.0000 0.0000 43.1651 0.0000 0.0000
# 5 0.0000 0.0000 0.0000 0.0000 25.6772 0.0000
# 6 0.0000 0.0000 0.0000 0.0000 0.0000 56.8227
#
#
#
# Elastic Compliance Matrix: (Units=1/GPa)
#
#
# Indices 1 2 3 4 5 6 
#
# 1 0.006647 -0.002437 -0.001164 0.000000 0.000000 0.000000
# 2 -0.002437 0.005334 -0.000958 0.000000 0.000000 0.000000
# 3 -0.001164 -0.000958 0.006063 0.000000 0.000000 0.000000
# 4 0.000000 0.000000 0.000000 0.023167 0.000000 0.000000
# 5 0.000000 0.000000 0.000000 0.000000 0.038945 0.000000
# 6 0.000000 0.000000 0.000000 0.000000 0.000000 0.017599
#
#
# Mechanical properties :
#
#
# Convention : Reuss Voigt Hill
#
# Bulk Modulus (GPa) = 112.00647 115.91802 113.96224
# Shear Modulus (GPa) = 45.51817 52.70348 49.11083
#
# Velocity S-wave (km/s) = 4.46581 4.80538 4.63871
# Velocity P-wave (km/s) = 8.69864 9.03204 8.86690
#
# Compressibility (1/GPa) = 0.00892806
#
# Stress axis : x y z
#
# Youngs Moduli (GPa) = 150.44111 187.48526 164.93369
#
# Poissons Ratio (x) = 0.45683 0.19190
# Poissons Ratio (y) = 0.36657 0.15797
# Poissons Ratio (z) = 0.17504 0.17957
#
# Static dielectric constant tensor:
#      x y z
#    x 1.842550 0.000000 0.000000 
#    y 0.000000 1.803190 0.000000 
#    z 0.000000 0.000000 2.018340 
# 
# From -- ./inp_files/7399.got.cif
#   From: 2010.05.17/outbox.cif.g08.bks.cpg/sg22_4_cif.got.tgz:7399.got - 2010.06.03 23:40:54.
