data_PCOD9328082
_publ_section_title
;
Structure prediction by ZEFSAII (Michael W. Deem and Ramdas Pophale) SiO2 
 PCOD9328082
Probable space group: F 2 2 2
;
_chemical_formula_sum "Si O2"
_cell_formula_units_Z 116
_cell_length_a 30.674596
_cell_length_b 21.978785
_cell_length_c 8.628782
_cell_angle_alpha 90.000000
_cell_angle_beta 90.000000
_cell_angle_gamma 90.000000
_cell_volume 5817.441561
_symmetry_space_group_name_H-M "F 2 2 2"
_symmetry_group_IT_number 22
_symmetry_cell_setting 'orthorhombic'
loop_
_space_group_symop_operation_xyz
x,y,z
-x,-y,z
x,-y,-z
-x,y,-z
x,1/2+y,1/2+z
-x,1/2-y,1/2+z
x,1/2-y,1/2-z
-x,1/2+y,1/2-z
1/2+x,y,1/2+z
1/2-x,-y,1/2+z
1/2+x,-y,1/2-z
1/2-x,y,1/2-z
1/2+x,1/2+y,z
1/2-x,1/2-y,z
1/2+x,1/2-y,-z
1/2-x,1/2+y,-z
loop_
_atom_site_type_symbol
_atom_site_label
_atom_site_fract_x
_atom_site_fract_y
_atom_site_fract_z
Si Si1 0.041142 0.295052 0.391547
Si Si2 0.809847 0.158402 0.065405
Si Si3 0.975793 0.926401 0.166586
Si Si4 0.855410 0.621112 0.879088
Si Si5 0.250000 0.250000 0.750000
Si Si6 0.127042 0.753226 0.565599
Si Si7 0.441633 0.962996 0.158055
Si Si8 0.261596 0.566875 0.433201
O O1 0.031585 0.250000 0.250000
O O2 0.050113 0.363268 0.330984
O O3 0.080616 0.270003 0.494358
O O4 0.000000 0.300022 0.500000
O O5 0.841467 0.134258 0.201220
O O6 0.778553 0.206148 0.148430
O O7 0.777183 0.108325 0.995961
O O8 0.837635 0.200767 0.956015
O O9 0.015669 0.924614 0.291094
O O10 0.944466 0.982923 0.211703
O O11 0.000000 0.933042 0.000000
O O12 0.898222 0.577811 0.866494
O O13 0.811120 0.591135 0.949439
O O14 0.862805 0.683232 0.978852
O O15 0.120238 0.750000 0.750000
O O16 0.448009 0.000000 0.000000
O O17 0.259064 0.500000 0.500000
O O18 0.250000 0.567223 0.250000
#
# Coordination Sequence:
#
# PCOD9328082 Si02
#       8
#    16  16  16  16   4  16  16  16
#     4  10  25  41  64  93 132 171 214 276 328 386
#     4  11  21  42  71  93 126 177 214 267 320 396
#     4  10  23  46  62  91 128 168 221 273 326 395
#     4  11  23  41  67  94 130 171 220 265 321 396
#     4  12  16  44  74  92 124 164 238 254 300 400
#     4  11  25  42  62 102 133 164 218 278 329 389
#     4  11  24  39  66  92 120 173 217 264 323 390
#     4  10  22  43  63  98 131 169 214 263 323 383
#
# _framework density 19.940037
#
# number of rings (size 3 to 8) (size 9 to 14) (size 15 to 20)
#    0.000    1.379    3.448    2.069    9.655    1.103 
#    4.966    2.414    0.000    0.000    0.000    0.000 
#    0.000    0.000    0.000    0.000    0.000    0.000 
#
# Total GULP energy -161593.209020 kJ/mol
# GULP energy per Si atom -5572.179621 kJ/mol
# Density = 1.989465 g / cm^3
# Si number density = 19.940037 Si / 1000 Ang^3
#
#
#
# Elastic Constant Matrix: (Units=GPa)
#
#
# Indices 1 2 3 4 5 6 
#
# 1 138.8656 70.9228 22.9657 -0.0001 0.0000 0.0001
# 2 70.9228 158.1827 21.2781 0.0003 -0.0001 -0.0001
# 3 22.9657 21.2781 37.8173 0.0007 -0.0001 -0.0005
# 4 -0.0001 0.0003 0.0007 17.6800 -0.0001 -0.0002
# 5 0.0000 -0.0001 -0.0001 -0.0001 15.1071 0.0000
# 6 0.0001 -0.0001 -0.0005 -0.0002 0.0000 65.0675
#
#
#
# Elastic Compliance Matrix: (Units=1/GPa)
#
#
# Indices 1 2 3 4 5 6 
#
# 1 0.009813 -0.003893 -0.003769 0.000000 0.000000 0.000000
# 2 -0.003893 0.008384 -0.002353 0.000000 0.000000 0.000000
# 3 -0.003769 -0.002353 0.030056 -0.000001 0.000000 0.000000
# 4 0.000000 0.000000 -0.000001 0.056561 0.000000 0.000000
# 5 0.000000 0.000000 0.000000 0.000000 0.066194 0.000000
# 6 0.000000 0.000000 0.000000 0.000000 0.000000 0.015369
#
#
# Mechanical properties :
#
#
# Convention : Reuss Voigt Hill
#
# Bulk Modulus (GPa) = 35.43247 62.79986 49.11616
# Shear Modulus (GPa) = 23.16828 34.21751 28.69289
#
# Velocity S-wave (km/s) = 3.41236 4.14698 3.79748
# Velocity P-wave (km/s) = 5.77353 7.38191 6.62670
#
# Compressibility (1/GPa) = 0.02822270
#
# Stress axis : x y z
#
# Youngs Moduli (GPa) = 101.91023 119.28001 33.27161
#
# Poissons Ratio (x) = 0.46431 0.12539
# Poissons Ratio (y) = 0.39670 0.07829
# Poissons Ratio (z) = 0.38408 0.28069
#
# Static dielectric constant tensor:
#      x y z
#    x 1.735000 0.000000 0.000000 
#    y 0.000000 1.733520 0.000000 
#    z 0.000000 0.000000 1.732520 
# 
# From -- ./inp_files/15000.got.cif
#   From: 2010.05.17/outbox.cif.g08.bks.cpg/sg22_8_cif.got.tgz:15000.got - 2010.06.03 23:40:54.
