data_PCOD9328010
_publ_section_title
;
Structure prediction by ZEFSAII (Michael W. Deem and Ramdas Pophale) SiO2 
 PCOD9328010
Probable space group: F 2 2 2
;
_chemical_formula_sum "Si O2"
_cell_formula_units_Z 88
_cell_length_a 19.885756
_cell_length_b 13.334036
_cell_length_c 16.326074
_cell_angle_alpha 90.000000
_cell_angle_beta 90.000000
_cell_angle_gamma 90.000000
_cell_volume 4328.979112
_symmetry_space_group_name_H-M "F 2 2 2"
_symmetry_group_IT_number 22
_symmetry_cell_setting 'orthorhombic'
loop_
_space_group_symop_operation_xyz
x,y,z
-x,-y,z
x,-y,-z
-x,y,-z
x,1/2+y,1/2+z
-x,1/2-y,1/2+z
x,1/2-y,1/2-z
-x,1/2+y,1/2-z
1/2+x,y,1/2+z
1/2-x,-y,1/2+z
1/2+x,-y,1/2-z
1/2-x,y,1/2-z
1/2+x,1/2+y,z
1/2-x,1/2-y,z
1/2+x,1/2-y,-z
1/2-x,1/2+y,-z
loop_
_atom_site_type_symbol
_atom_site_label
_atom_site_fract_x
_atom_site_fract_y
_atom_site_fract_z
Si Si1 0.750000 0.750000 0.474711
Si Si2 0.367180 0.167044 0.584343
Si Si3 0.089933 0.444545 0.369500
Si Si4 0.912469 0.750000 0.750000
Si Si5 0.500000 0.659835 0.000000
Si Si6 0.848737 0.736244 0.154881
Si Si7 0.472662 0.402291 0.305747
O O1 0.699419 0.809718 0.533766
O O2 0.796779 0.810231 0.409517
O O3 0.368345 0.215412 0.673750
O O4 0.433640 0.211128 0.537506
O O5 0.380706 0.048346 0.597541
O O6 0.029363 0.405603 0.425959
O O7 0.140444 0.350858 0.373396
O O8 0.064355 0.445367 0.275969
O O9 0.963688 0.662878 0.777903
O O10 0.828355 0.750000 0.250000
O O11 0.918394 0.673473 0.154881
O O12 0.500000 0.500000 0.352867
#
# Coordination Sequence:
#
# PCOD9328010 Si02
#       7
#     8  16  16   8   8  16  16
#     4  12  27  45  62  96 150 188 228 273 349 422
#     4  12  25  39  67 102 141 179 224 287 346 412
#     4  11  19  37  69 105 129 165 236 293 334 396
#     4  12  22  39  66 103 136 170 226 288 354 391
#     4  12  19  34  70 108 121 160 237 300 332 378
#     4  10  22  41  69  99 135 185 227 281 338 414
#     4  11  19  37  68 109 135 165 229 297 346 395
#
# _framework density 20.328116999999999
#
# number of rings (size 3 to 8) (size 9 to 14) (size 15 to 20)
#    0.000    0.727    8.182    1.909    0.000    0.364 
#    0.000    3.636    8.000    1.091    0.000    0.000 
#    0.000    0.000    0.000    0.000    0.000    0.000 
#
# Total GULP energy -122723.450003 kJ/mol
# GULP energy per Si atom -5578.338636 kJ/mol
# Density = 2.028185 g / cm^3
# Si number density = 20.328117 Si / 1000 Ang^3
#
#
#
# Elastic Constant Matrix: (Units=GPa)
#
#
# Indices 1 2 3 4 5 6 
#
# 1 110.2427 45.9554 66.5624 0.0000 0.0000 0.0000
# 2 45.9554 92.7796 35.3142 0.0000 0.0000 0.0000
# 3 66.5624 35.3142 112.1549 0.0000 0.0000 0.0000
# 4 0.0000 0.0000 0.0000 12.8957 0.0000 0.0000
# 5 0.0000 0.0000 0.0000 0.0000 42.5345 0.0000
# 6 0.0000 0.0000 0.0000 0.0000 0.0000 22.3998
#
#
#
# Elastic Compliance Matrix: (Units=1/GPa)
#
#
# Indices 1 2 3 4 5 6 
#
# 1 0.015851 -0.004852 -0.007880 0.000000 0.000000 0.000000
# 2 -0.004852 0.013731 -0.001444 0.000000 0.000000 0.000000
# 3 -0.007880 -0.001444 0.014047 0.000000 0.000000 0.000000
# 4 0.000000 0.000000 0.000000 0.077545 0.000000 0.000000
# 5 0.000000 0.000000 0.000000 0.000000 0.023510 0.000000
# 6 0.000000 0.000000 0.000000 0.000000 0.000000 0.044643
#
#
# Mechanical properties :
#
#
# Convention : Reuss Voigt Hill
#
# Bulk Modulus (GPa) = 65.45213 67.87124 66.66168
# Shear Modulus (GPa) = 22.44440 26.72233 24.58336
#
# Velocity S-wave (km/s) = 3.32641 3.62961 3.48131
# Velocity P-wave (km/s) = 6.85719 7.14323 7.00167
#
# Compressibility (1/GPa) = 0.01527834
#
# Stress axis : x y z
#
# Youngs Moduli (GPa) = 63.08704 72.82706 71.18807
#
# Poissons Ratio (x) = 0.35337 0.56093
# Poissons Ratio (y) = 0.30611 0.10278
# Poissons Ratio (z) = 0.49710 0.10515
#
# Static dielectric constant tensor:
#      x y z
#    x 1.786960 0.000000 0.000000 
#    y 0.000000 1.767430 0.000000 
#    z 0.000000 0.000000 1.781650 
# 
# From -- ./inp_files/37928.got.cif
#   From: 2010.05.17/outbox.cif.g08.bks.cpg/sg22_19_cif.got.tgz:37928.got - 2010.06.03 23:40:54.
