data_PCOD9328810
_publ_section_title
;
Structure prediction by ZEFSAII (Michael W. Deem and Ramdas Pophale) SiO2 
 PCOD9328810
Probable space group: F 2 2 2
;
_chemical_formula_sum "Si O2"
_cell_formula_units_Z 96
_cell_length_a 15.911154
_cell_length_b 9.842728
_cell_length_c 28.629872
_cell_angle_alpha 90.000000
_cell_angle_beta 90.000000
_cell_angle_gamma 90.000000
_cell_volume 4483.700233
_symmetry_space_group_name_H-M "F 2 2 2"
_symmetry_group_IT_number 22
_symmetry_cell_setting 'orthorhombic'
loop_
_space_group_symop_operation_xyz
x,y,z
-x,-y,z
x,-y,-z
-x,y,-z
x,1/2+y,1/2+z
-x,1/2-y,1/2+z
x,1/2-y,1/2-z
-x,1/2+y,1/2-z
1/2+x,y,1/2+z
1/2-x,-y,1/2+z
1/2+x,-y,1/2-z
1/2-x,y,1/2-z
1/2+x,1/2+y,z
1/2-x,1/2-y,z
1/2+x,1/2-y,-z
1/2-x,1/2+y,-z
loop_
_atom_site_type_symbol
_atom_site_label
_atom_site_fract_x
_atom_site_fract_y
_atom_site_fract_z
Si Si1 0.628660 0.767787 0.697087
Si Si2 0.645582 0.406005 0.456815
Si Si3 0.851176 0.908747 0.956070
Si Si4 0.157712 0.990694 0.356745
Si Si5 0.847628 0.539575 0.357891
Si Si6 0.930382 0.781489 0.303126
O O1 0.657205 0.750000 0.750000
O O2 0.672631 0.660121 0.663115
O O3 0.530320 0.730000 0.695666
O O4 0.638241 0.920135 0.679455
O O5 0.619254 0.500000 0.500000
O O6 0.748421 0.405496 0.455805
O O7 0.619943 0.247841 0.459591
O O8 0.618487 0.472115 0.407833
O O9 0.877015 0.980514 0.907728
O O10 0.877391 0.000000 0.000000
O O11 0.247705 0.063328 0.361251
O O12 0.101777 0.073610 0.320575
O O13 0.893693 0.671707 0.339199
O O14 0.902333 0.750000 0.250000
#
# Coordination Sequence:
#
# PCOD9328810 Si02
#       6
#    16  16  16  16  16  16
#     4  11  23  41  62  83 116 164 203 237 296 365
#     4   9  18  33  56  87 119 151 190 238 295 354
#     4   9  18  33  56  87 119 151 190 238 295 354
#     4  11  22  38  62  92 120 150 199 254 294 339
#     4  11  22  38  62  92 120 150 199 254 294 339
#     4  11  25  41  58  85 122 164 201 237 298 365
#
# _framework density 21.410886000000001
#
# number of rings (size 3 to 8) (size 9 to 14) (size 15 to 20)
#    0.000    1.667    1.667    3.000    2.333    6.667 
#    0.000    0.000    0.000    6.000    0.000    0.000 
#    0.000    0.000    0.000    0.000    0.000    0.000 
#
# Total GULP energy -134226.757301 kJ/mol
# GULP energy per Si atom -5592.781554 kJ/mol
# Density = 2.136215 g / cm^3
# Si number density = 21.410886 Si / 1000 Ang^3
#
#
#
# Elastic Constant Matrix: (Units=GPa)
#
#
# Indices 1 2 3 4 5 6 
#
# 1 49.1836 11.7681 2.5934 0.0000 0.0000 0.0000
# 2 11.7681 85.4554 20.0006 0.0000 0.0000 0.0000
# 3 2.5934 20.0006 133.5458 0.0000 0.0000 0.0000
# 4 0.0000 0.0000 0.0000 43.2669 0.0000 0.0000
# 5 0.0000 0.0000 0.0000 0.0000 -12.9648 0.0000
# 6 0.0000 0.0000 0.0000 0.0000 0.0000 27.2694
#
#
#
# Elastic Compliance Matrix: (Units=1/GPa)
#
#
# Indices 1 2 3 4 5 6 
#
# 1 0.021025 -0.002901 0.000026 0.000000 0.000000 0.000000
# 2 -0.002901 0.012528 -0.001820 0.000000 0.000000 0.000000
# 3 0.000026 -0.001820 0.007760 0.000000 0.000000 0.000000
# 4 0.000000 0.000000 0.000000 0.023112 0.000000 0.000000
# 5 0.000000 0.000000 0.000000 0.000000 -0.077132 0.000000
# 6 0.000000 0.000000 0.000000 0.000000 0.000000 0.036671
#
#
# Mechanical properties :
#
#
# Convention : Reuss Voigt Hill
#
# Bulk Modulus (GPa) = 31.32608 37.43433 34.38020
# Shear Modulus (GPa) = 113.64977 27.10248 70.37613
#
# Velocity S-wave (km/s) = 7.29353 3.56171 5.73940
# Velocity P-wave (km/s) = 9.25149 5.86823 7.74681
#
# Compressibility (1/GPa) = 0.03192229
#
# Stress axis : x y z
#
# Youngs Moduli (GPa) = 47.56277 79.82429 128.86417
#
# Poissons Ratio (x) = 0.23161 -0.00338
# Poissons Ratio (y) = 0.13800 0.23451
# Poissons Ratio (z) = -0.00125 0.14527
#
# Static dielectric constant tensor:
#      x y z
#    x 1.787920 0.000000 0.000000 
#    y 0.000000 1.711800 0.000000 
#    z 0.000000 0.000000 1.729830 
# 
# From -- ./inp_files/12876.got.cif
#   From: 2010.05.17/outbox.cif.g08.bks.cpg/sg22_7_cif.got.tgz:12876.got - 2010.06.03 23:40:54.
