data_PCOD9328159
_publ_section_title
;
Structure prediction by ZEFSAII (Michael W. Deem and Ramdas Pophale) SiO2 
 PCOD9328159
Probable space group: F 2 2 2
;
_chemical_formula_sum "Si O2"
_cell_formula_units_Z 64
_cell_length_a 28.408054
_cell_length_b 5.009398
_cell_length_c 19.980452
_cell_angle_alpha 90.000000
_cell_angle_beta 90.000000
_cell_angle_gamma 90.000000
_cell_volume 2843.363156
_symmetry_space_group_name_H-M "F 2 2 2"
_symmetry_group_IT_number 22
_symmetry_cell_setting 'orthorhombic'
loop_
_space_group_symop_operation_xyz
x,y,z
-x,-y,z
x,-y,-z
-x,y,-z
x,1/2+y,1/2+z
-x,1/2-y,1/2+z
x,1/2-y,1/2-z
-x,1/2+y,1/2-z
1/2+x,y,1/2+z
1/2-x,-y,1/2+z
1/2+x,-y,1/2-z
1/2-x,y,1/2-z
1/2+x,1/2+y,z
1/2-x,1/2-y,z
1/2+x,1/2-y,-z
1/2-x,1/2+y,-z
loop_
_atom_site_type_symbol
_atom_site_label
_atom_site_fract_x
_atom_site_fract_y
_atom_site_fract_z
Si Si1 0.000000 0.000000 0.500000
Si Si2 0.550329 0.849314 0.393907
Si Si3 0.654534 0.062716 0.576139
Si Si4 0.203744 0.408642 0.866954
Si Si5 0.750000 0.250000 0.750000
Si Si6 0.534399 0.250000 0.750000
O O1 0.964841 0.858174 0.449476
O O2 0.598137 0.968142 0.421444
O O3 0.562600 0.756658 0.318937
O O4 0.500000 0.000000 0.386353
O O5 0.677473 0.351492 0.593355
O O6 0.669708 0.000000 0.500000
O O7 0.669857 0.845818 0.631877
O O8 0.250000 0.250000 0.895545
O O9 0.220320 0.554628 0.798917
O O10 0.500000 0.500000 0.743560
#
# Coordination Sequence:
#
# PCOD9328159 Si02
#       6
#     4  16  16  16   4   8
#     4  12  22  44  80 110 156 226 246 328 386 456
#     4  11  26  46  75 113 162 207 264 323 385 466
#     4  12  28  47  78 119 155 204 266 319 398 475
#     4  12  27  52  79 109 152 199 252 331 390 472
#     4  12  26  58  82 112 158 192 270 310 416 492
#     4  10  22  45  68 102 147 200 259 310 377 444
#
# _framework density 22.508555000000001
#
# number of rings (size 3 to 8) (size 9 to 14) (size 15 to 20)
#    0.000    0.500    3.750    3.000    7.000    3.000 
#    2.250    5.000    0.000    0.000    0.000    0.000 
#    0.000    0.000    0.000    0.000    0.000    0.000 
#
# Total GULP energy -89124.102298 kJ/mol
# GULP energy per Si atom -5570.256394 kJ/mol
# Density = 2.245732 g / cm^3
# Si number density = 22.508555 Si / 1000 Ang^3
#
#
#
# Elastic Constant Matrix: (Units=GPa)
#
#
# Indices 1 2 3 4 5 6 
#
# 1 120.5564 33.5875 12.0328 0.0018 -0.0009 0.0007
# 2 33.5875 114.8503 11.0733 0.0100 -0.0050 -0.0063
# 3 12.0328 11.0733 123.1239 0.0042 -0.0023 -0.0033
# 4 0.0018 0.0100 0.0042 4.0457 -0.0041 0.0028
# 5 -0.0009 -0.0050 -0.0023 -0.0041 30.4604 0.0022
# 6 0.0007 -0.0063 -0.0033 0.0028 0.0022 25.1333
#
#
#
# Elastic Compliance Matrix: (Units=1/GPa)
#
#
# Indices 1 2 3 4 5 6 
#
# 1 0.009083 -0.002593 -0.000654 0.000003 0.000000 -0.000001
# 2 -0.002593 0.009523 -0.000603 -0.000022 0.000001 0.000002
# 3 -0.000654 -0.000603 0.008240 -0.000007 0.000001 0.000001
# 4 0.000003 -0.000022 -0.000007 0.247174 0.000033 -0.000028
# 5 0.000000 0.000001 0.000001 0.000033 0.032830 -0.000003
# 6 -0.000001 0.000002 0.000001 -0.000028 -0.000003 0.039788
#
#
# Mechanical properties :
#
#
# Convention : Reuss Voigt Hill
#
# Bulk Modulus (GPa) = 52.23292 52.43531 52.33412
# Shear Modulus (GPa) = 13.86115 32.05033 22.95574
#
# Velocity S-wave (km/s) = 2.48426 3.77758 3.19700
# Velocity P-wave (km/s) = 5.61114 6.50946 6.07692
#
# Compressibility (1/GPa) = 0.01914501
#
# Stress axis : x y z
#
# Youngs Moduli (GPa) = 110.10018 105.00369 121.35780
#
# Poissons Ratio (x) = 0.27228 0.07942
# Poissons Ratio (y) = 0.28550 0.07319
# Poissons Ratio (z) = 0.07205 0.06333
#
# Static dielectric constant tensor:
#      x y z
#    x 2.039990 0.000000 0.000050 
#    y 0.000000 1.895230 0.000000 
#    z 0.000050 0.000000 2.540460 
# 
# From -- ./inp_files/40233.got.cif
#   From: 2010.05.17/outbox.cif.g08.bks.cpg/sg22_21_cif.got.tgz:40233.got - 2010.06.03 23:40:54.
