data_PCOD9328613
_publ_section_title
;
Structure prediction by ZEFSAII (Michael W. Deem and Ramdas Pophale) SiO2 
 PCOD9328613
Probable space group: F 2 2 2
;
_chemical_formula_sum "Si O2"
_cell_formula_units_Z 88
_cell_length_a 23.126796
_cell_length_b 12.983150
_cell_length_c 13.765890
_cell_angle_alpha 90.000000
_cell_angle_beta 90.000000
_cell_angle_gamma 90.000000
_cell_volume 4133.327706
_symmetry_space_group_name_H-M "F 2 2 2"
_symmetry_group_IT_number 22
_symmetry_cell_setting 'orthorhombic'
loop_
_space_group_symop_operation_xyz
x,y,z
-x,-y,z
x,-y,-z
-x,y,-z
x,1/2+y,1/2+z
-x,1/2-y,1/2+z
x,1/2-y,1/2-z
-x,1/2+y,1/2-z
1/2+x,y,1/2+z
1/2-x,-y,1/2+z
1/2+x,-y,1/2-z
1/2-x,y,1/2-z
1/2+x,1/2+y,z
1/2-x,1/2-y,z
1/2+x,1/2-y,-z
1/2-x,1/2+y,-z
loop_
_atom_site_type_symbol
_atom_site_label
_atom_site_fract_x
_atom_site_fract_y
_atom_site_fract_z
Si Si1 0.715882 0.617417 0.981805
Si Si2 0.685157 0.552708 0.780934
Si Si3 0.500000 0.500000 0.696389
Si Si4 0.108901 0.128107 0.268503
Si Si5 0.156649 0.312718 0.027125
Si Si6 0.910887 0.170266 0.337791
O O1 0.693117 0.629496 0.871943
O O2 0.784933 0.630355 0.990516
O O3 0.683998 0.700443 0.048426
O O4 0.701119 0.500000 0.000000
O O5 0.750000 0.530117 0.750000
O O6 0.653896 0.442467 0.790629
O O7 0.645057 0.611535 0.704826
O O8 0.548009 0.429547 0.749529
O O9 0.461086 0.413695 0.644793
O O10 0.105689 0.250000 0.250000
O O11 0.129517 0.127388 0.381830
O O12 0.109303 0.293415 0.943571
O O13 0.927083 0.250000 0.250000
#
# Coordination Sequence:
#
# PCOD9328613 Si02
#       6
#    16  16   8  16  16  16
#     4  11  22  38  59  99 140 170 211 264 322 405
#     4  11  21  36  65  95 131 177 211 262 326 401
#     4  10  26  43  70  91 128 170 232 295 324 399
#     4  11  25  45  65  96 134 180 223 275 348 397
#     4  11  24  38  66  98 135 177 217 273 329 408
#     4  11  22  41  66  95 129 170 227 275 338 383
#
# _framework density 21.290351000000001
#
# number of rings (size 3 to 8) (size 9 to 14) (size 15 to 20)
#    0.000    1.091    3.636    2.727    2.545    3.636 
#    0.000    0.000    0.000    1.091    0.000    0.000 
#    0.000    0.000    0.000    0.000    0.000    0.000 
#
# Total GULP energy -122583.076517 kJ/mol
# GULP energy per Si atom -5571.958023 kJ/mol
# Density = 2.124189 g / cm^3
# Si number density = 21.290351 Si / 1000 Ang^3
#
#
#
# Elastic Constant Matrix: (Units=GPa)
#
#
# Indices 1 2 3 4 5 6 
#
# 1 118.5255 33.3985 19.5827 0.0000 0.0000 0.0000
# 2 33.3985 111.2618 5.0014 0.0000 0.0000 0.0000
# 3 19.5827 5.0014 68.0765 0.0000 0.0000 0.0000
# 4 0.0000 0.0000 0.0000 27.8714 0.0000 0.0000
# 5 0.0000 0.0000 0.0000 0.0000 -1.2226 0.0000
# 6 0.0000 0.0000 0.0000 0.0000 0.0000 39.3023
#
#
#
# Elastic Compliance Matrix: (Units=1/GPa)
#
#
# Indices 1 2 3 4 5 6 
#
# 1 0.009645 -0.002780 -0.002570 0.000000 0.000000 0.000000
# 2 -0.002780 0.009819 0.000078 0.000000 0.000000 0.000000
# 3 -0.002570 0.000078 0.015423 0.000000 0.000000 0.000000
# 4 0.000000 0.000000 0.000000 0.035879 0.000000 0.000000
# 5 0.000000 0.000000 0.000000 0.000000 -0.817901 0.000000
# 6 0.000000 0.000000 0.000000 0.000000 0.000000 0.025444
#
#
# Mechanical properties :
#
#
# Convention : Reuss Voigt Hill
#
# Bulk Modulus (GPa) = 41.07912 45.98101 43.53006
# Shear Modulus (GPa) = -7.11203 29.18229 11.03513
#
# Velocity S-wave (km/s) = -1.82968 3.70629 2.27913
# Velocity P-wave (km/s) = 3.85654 6.32135 5.23605
#
# Compressibility (1/GPa) = 0.02434327
#
# Stress axis : x y z
#
# Youngs Moduli (GPa) = 103.68149 101.84657 64.83842
#
# Poissons Ratio (x) = 0.28310 0.16665
# Poissons Ratio (y) = 0.28820 -0.00507
# Poissons Ratio (z) = 0.26648 -0.00797
#
# Static dielectric constant tensor:
#      x y z
#    x 1.753330 0.000000 0.000000 
#    y 0.000000 1.818090 0.000000 
#    z 0.000000 0.000000 1.898830 
# 
# From -- ./inp_files/32322.got.cif
#   From: 2010.05.17/outbox.cif.g08.bks.cpg/sg22_17_cif.got.tgz:32322.got - 2010.06.03 23:40:54.
