data_PCOD9328875
_publ_section_title
;
Structure prediction by ZEFSAII (Michael W. Deem and Ramdas Pophale) SiO2 
 PCOD9328875
Probable space group: F 2 2 2
;
_chemical_formula_sum "Si O2"
_cell_formula_units_Z 36
_cell_length_a 11.971559
_cell_length_b 8.141339
_cell_length_c 15.335396
_cell_angle_alpha 90.000000
_cell_angle_beta 90.000000
_cell_angle_gamma 90.000000
_cell_volume 1494.657013
_symmetry_space_group_name_H-M "F 2 2 2"
_symmetry_group_IT_number 22
_symmetry_cell_setting 'orthorhombic'
loop_
_space_group_symop_operation_xyz
x,y,z
-x,-y,z
x,-y,-z
-x,y,-z
x,1/2+y,1/2+z
-x,1/2-y,1/2+z
x,1/2-y,1/2-z
-x,1/2+y,1/2-z
1/2+x,y,1/2+z
1/2-x,-y,1/2+z
1/2+x,-y,1/2-z
1/2-x,y,1/2-z
1/2+x,1/2+y,z
1/2-x,1/2-y,z
1/2+x,1/2-y,-z
1/2-x,1/2+y,-z
loop_
_atom_site_type_symbol
_atom_site_label
_atom_site_fract_x
_atom_site_fract_y
_atom_site_fract_z
Si Si1 0.750000 0.250000 0.750000
Si Si2 0.140901 0.671942 0.054800
Si Si3 0.936058 0.668254 0.383394
O O1 0.836811 0.337462 0.685840
O O2 0.250000 0.750000 0.099495
O O3 0.032668 0.689373 0.117581
O O4 0.149066 0.500000 0.000000
O O5 0.119160 0.801187 0.976877
O O6 0.000000 0.500000 0.377610
#
# Coordination Sequence:
#
# PCOD9328875 Si02
#       3
#     4  16  16
#     4  12  28  48  66 106 160 182 238 298 352 436
#     4  11  22  43  78 110 138 184 248 298 349 426
#     4  11  24  45  71 103 145 189 234 293 360 416
#
# _framework density 24.085792000000001
#
# number of rings (size 3 to 8) (size 9 to 14) (size 15 to 20)
#    0.000    0.889    2.222    8.000    0.000    3.556 
#    0.000    0.000    0.000    2.667    0.000    0.000 
#    0.000    0.000    0.000    0.000    0.000    0.000 
#
# Total GULP energy -50186.792306 kJ/mol
# GULP energy per Si atom -5576.310256 kJ/mol
# Density = 2.403097 g / cm^3
# Si number density = 24.085792 Si / 1000 Ang^3
#
#
#
# Elastic Constant Matrix: (Units=GPa)
#
#
# Indices 1 2 3 4 5 6 
#
# 1 178.6694 72.5845 38.1758 0.0000 0.0000 0.0000
# 2 72.5845 167.9921 25.5709 0.0000 0.0000 0.0000
# 3 38.1758 25.5709 62.2255 0.0000 0.0000 0.0000
# 4 0.0000 0.0000 0.0000 -10.4456 0.0000 0.0000
# 5 0.0000 0.0000 0.0000 0.0000 58.1516 0.0000
# 6 0.0000 0.0000 0.0000 0.0000 0.0000 36.5447
#
#
#
# Elastic Compliance Matrix: (Units=1/GPa)
#
#
# Indices 1 2 3 4 5 6 
#
# 1 0.007424 -0.002682 -0.003453 0.000000 0.000000 0.000000
# 2 -0.002682 0.007319 -0.001362 0.000000 0.000000 0.000000
# 3 -0.003453 -0.001362 0.018749 0.000000 0.000000 0.000000
# 4 0.000000 0.000000 0.000000 -0.095734 0.000000 0.000000
# 5 0.000000 0.000000 0.000000 0.000000 0.017196 0.000000
# 6 0.000000 0.000000 0.000000 0.000000 0.000000 0.027364
#
#
# Mechanical properties :
#
#
# Convention : Reuss Voigt Hill
#
# Bulk Modulus (GPa) = 54.06029 75.72774 64.89402
# Shear Modulus (GPa) = 1437.85636 35.02052 736.43844
#
# Velocity S-wave (km/s) = 24.45953 3.81726 17.50486
# Velocity P-wave (km/s) = 28.63888 7.13707 20.87011
#
# Compressibility (1/GPa) = 0.01849787
#
# Stress axis : x y z
#
# Youngs Moduli (GPa) = 134.69234 136.63211 53.33758
#
# Poissons Ratio (x) = 0.36649 0.18415
# Poissons Ratio (y) = 0.36128 0.07265
# Poissons Ratio (z) = 0.46504 0.18610
#
# Static dielectric constant tensor:
#      x y z
#    x 2.163080 0.000000 0.000000 
#    y 0.000000 2.014470 0.000000 
#    z 0.000000 0.000000 1.978810 
# 
# From -- ./inp_files/8841.got.cif
#   From: 2010.05.17/outbox.cif.g08.bks.cpg/sg22_5_cif.got.tgz:8841.got - 2010.06.03 23:40:54.
