data_PCOD9328186
_publ_section_title
;
Structure prediction by ZEFSAII (Michael W. Deem and Ramdas Pophale) SiO2 
 PCOD9328186
Probable space group: F 2 2 2
;
_chemical_formula_sum "Si O2"
_cell_formula_units_Z 72
_cell_length_a 27.465024
_cell_length_b 9.087041
_cell_length_c 12.599352
_cell_angle_alpha 90.000000
_cell_angle_beta 90.000000
_cell_angle_gamma 90.000000
_cell_volume 3144.493344
_symmetry_space_group_name_H-M "F 2 2 2"
_symmetry_group_IT_number 22
_symmetry_cell_setting 'orthorhombic'
loop_
_space_group_symop_operation_xyz
x,y,z
-x,-y,z
x,-y,-z
-x,y,-z
x,1/2+y,1/2+z
-x,1/2-y,1/2+z
x,1/2-y,1/2-z
-x,1/2+y,1/2-z
1/2+x,y,1/2+z
1/2-x,-y,1/2+z
1/2+x,-y,1/2-z
1/2-x,y,1/2-z
1/2+x,1/2+y,z
1/2-x,1/2-y,z
1/2+x,1/2-y,-z
1/2-x,1/2+y,-z
loop_
_atom_site_type_symbol
_atom_site_label
_atom_site_fract_x
_atom_site_fract_y
_atom_site_fract_z
Si Si1 0.750000 0.250000 0.250000
Si Si2 0.288832 0.630539 0.579337
Si Si3 0.336657 0.833681 0.405329
Si Si4 0.000000 0.500000 0.000000
Si Si5 0.861413 0.077241 0.761035
Si Si6 0.931744 0.850138 0.664945
O O1 0.711434 0.178346 0.331388
O O2 0.270785 0.500000 0.500000
O O3 0.250000 0.750000 0.620240
O O4 0.322563 0.737467 0.508017
O O5 0.317310 0.553660 0.675828
O O6 0.384575 0.746492 0.366521
O O7 0.350397 0.003870 0.376239
O O8 0.034524 0.397821 0.929819
O O9 0.868523 0.250000 0.750000
O O10 0.908656 0.994976 0.717040
O O11 0.959542 0.750000 0.750000
#
# Coordination Sequence:
#
# PCOD9328186 Si02
#       6
#     4  16  16   4  16  16
#     4  12  16  36  74  92 138 208 226 272 372 410
#     4  12  25  40  60  94 140 194 255 295 352 430
#     4  11  22  42  69  95 143 197 237 289 359 433
#     4  12  24  44  88 104 136 192 236 310 388 436
#     4  11  25  42  65 100 144 182 240 308 353 429
#     4  10  22  46  71 107 138 185 240 299 369 449
#
# _framework density 22.897171
#
# number of rings (size 3 to 8) (size 9 to 14) (size 15 to 20)
#    0.000    0.889    6.667    1.333    3.111    1.333 
#    0.000    0.000    0.000    8.667    0.000    0.000 
#    0.000    0.000    0.000    0.000    0.000    0.000 
#
# Total GULP energy -100417.767365 kJ/mol
# GULP energy per Si atom -5578.764854 kJ/mol
# Density = 2.284506 g / cm^3
# Si number density = 22.897171 Si / 1000 Ang^3
#
#
#
# Elastic Constant Matrix: (Units=GPa)
#
#
# Indices 1 2 3 4 5 6 
#
# 1 83.0742 40.1436 40.6468 0.0000 0.0000 0.0000
# 2 40.1436 158.4156 44.8550 0.0000 0.0000 0.0000
# 3 40.6468 44.8550 100.3553 0.0000 0.0000 0.0000
# 4 0.0000 0.0000 0.0000 54.8598 0.0000 0.0000
# 5 0.0000 0.0000 0.0000 0.0000 22.1148 0.0000
# 6 0.0000 0.0000 0.0000 0.0000 0.0000 -21.7115
#
#
#
# Elastic Compliance Matrix: (Units=1/GPa)
#
#
# Indices 1 2 3 4 5 6 
#
# 1 0.015843 -0.002516 -0.005292 0.000000 0.000000 0.000000
# 2 -0.002516 0.007627 -0.002390 0.000000 0.000000 0.000000
# 3 -0.005292 -0.002390 0.013176 0.000000 0.000000 0.000000
# 4 0.000000 0.000000 0.000000 0.018228 0.000000 0.000000
# 5 0.000000 0.000000 0.000000 0.000000 0.045219 0.000000
# 6 0.000000 0.000000 0.000000 0.000000 0.000000 -0.046058
#
#
# Mechanical properties :
#
#
# Convention : Reuss Voigt Hill
#
# Bulk Modulus (GPa) = 61.54023 65.90401 63.72212
# Shear Modulus (GPa) = 62.62008 25.46592 44.04300
#
# Velocity S-wave (km/s) = 5.23524 3.33856 4.39054
# Velocity P-wave (km/s) = 7.96736 6.61108 7.32070
#
# Compressibility (1/GPa) = 0.01624953
#
# Stress axis : x y z
#
# Youngs Moduli (GPa) = 63.12079 131.11687 75.89461
#
# Poissons Ratio (x) = 0.32992 0.40164
# Poissons Ratio (y) = 0.15882 0.18137
# Poissons Ratio (z) = 0.33404 0.31334
#
# Static dielectric constant tensor:
#      x y z
#    x 1.826500 0.000000 0.000000 
#    y 0.000000 1.909320 0.000000 
#    z 0.000000 0.000000 1.965360 
# 
# From -- ./inp_files/27068.got.cif
#   From: 2010.05.17/outbox.cif.g08.bks.cpg/sg22_14_cif.got.tgz:27068.got - 2010.06.03 23:40:54.
