data_PCOD9328868
_publ_section_title
;
Structure prediction by ZEFSAII (Michael W. Deem and Ramdas Pophale) SiO2 
 PCOD9328868
Probable space group: F 2 2 2
;
_chemical_formula_sum "Si O2"
_cell_formula_units_Z 52
_cell_length_a 8.786592
_cell_length_b 11.504875
_cell_length_c 22.811438
_cell_angle_alpha 90.000000
_cell_angle_beta 90.000000
_cell_angle_gamma 90.000000
_cell_volume 2305.977304
_symmetry_space_group_name_H-M "F 2 2 2"
_symmetry_group_IT_number 22
_symmetry_cell_setting 'orthorhombic'
loop_
_space_group_symop_operation_xyz
x,y,z
-x,-y,z
x,-y,-z
-x,y,-z
x,1/2+y,1/2+z
-x,1/2-y,1/2+z
x,1/2-y,1/2-z
-x,1/2+y,1/2-z
1/2+x,y,1/2+z
1/2-x,-y,1/2+z
1/2+x,-y,1/2-z
1/2-x,y,1/2-z
1/2+x,1/2+y,z
1/2-x,1/2-y,z
1/2+x,1/2-y,-z
1/2-x,1/2+y,-z
loop_
_atom_site_type_symbol
_atom_site_label
_atom_site_fract_x
_atom_site_fract_y
_atom_site_fract_z
Si Si1 0.202104 0.560932 0.937296
Si Si2 0.612661 0.179908 0.087329
Si Si3 0.055173 0.369581 0.348391
Si Si4 0.750000 0.750000 0.250000
O O1 0.174153 0.447516 0.896203
O O2 0.340672 0.625703 0.907236
O O3 0.231760 0.500000 0.000000
O O4 0.050002 0.638994 0.940162
O O5 0.750000 0.250000 0.053975
O O6 0.569160 0.270826 0.137764
O O7 0.150398 0.328295 0.293090
O O8 0.000000 0.500000 0.339707
#
# Coordination Sequence:
#
# PCOD9328868 Si02
#       4
#    16  16  16   4
#     4  11  25  44  72 111 154 193 240 300 365 448
#     4  11  22  43  72 105 152 193 239 300 362 442
#     4  12  26  50  74 107 143 196 251 304 376 435
#     4  12  28  52  78  98 148 196 254 322 346 456
#
# _framework density 22.550090999999998
#
# number of rings (size 3 to 8) (size 9 to 14) (size 15 to 20)
#    0.000    0.615    6.154    1.846    0.000    8.000 
#    0.000    0.000    0.000    0.000    0.000    0.000 
#    0.000    0.000    0.000    0.000    0.000    0.000 
#
# Total GULP energy -72503.207185 kJ/mol
# GULP energy per Si atom -5577.169783 kJ/mol
# Density = 2.249877 g / cm^3
# Si number density = 22.550091 Si / 1000 Ang^3
#
#
#
# Elastic Constant Matrix: (Units=GPa)
#
#
# Indices 1 2 3 4 5 6 
#
# 1 95.8150 63.6761 44.3939 0.0000 0.0000 0.0000
# 2 63.6761 195.8030 51.7679 0.0000 0.0000 0.0000
# 3 44.3939 51.7679 100.8414 0.0000 0.0000 0.0000
# 4 0.0000 0.0000 0.0000 36.7565 0.0000 0.0000
# 5 0.0000 0.0000 0.0000 0.0000 479.7440 0.0000
# 6 0.0000 0.0000 0.0000 0.0000 0.0000 68.7758
#
#
#
# Elastic Compliance Matrix: (Units=1/GPa)
#
#
# Indices 1 2 3 4 5 6 
#
# 1 0.015062 -0.003639 -0.004763 0.000000 0.000000 0.000000
# 2 -0.003639 0.006788 -0.001883 0.000000 0.000000 0.000000
# 3 -0.004763 -0.001883 0.012980 0.000000 0.000000 0.000000
# 4 0.000000 0.000000 0.000000 0.027206 0.000000 0.000000
# 5 0.000000 0.000000 0.000000 0.000000 0.002084 0.000000
# 6 0.000000 0.000000 0.000000 0.000000 0.000000 0.014540
#
#
# Mechanical properties :
#
#
# Convention : Reuss Voigt Hill
#
# Bulk Modulus (GPa) = 70.12104 79.12614 74.62359
# Shear Modulus (GPa) = 48.08468 132.56338 90.32403
#
# Velocity S-wave (km/s) = 4.62275 7.67553 6.33576
# Velocity P-wave (km/s) = 7.72375 10.66382 9.31056
#
# Compressibility (1/GPa) = 0.01426105
#
# Stress axis : x y z
#
# Youngs Moduli (GPa) = 66.39307 147.31001 77.04260
#
# Poissons Ratio (x) = 0.53606 0.36692
# Poissons Ratio (y) = 0.24160 0.14506
# Poissons Ratio (z) = 0.31620 0.27737
#
# Static dielectric constant tensor:
#      x y z
#    x 1.918660 0.000000 0.000000 
#    y 0.000000 1.814470 0.000000 
#    z 0.000000 0.000000 1.806680 
# 
# From -- ./inp_files/51494.got.cif
#   From: 2010.05.17/outbox.cif.g08.bks.cpg/sg22_26_cif.got.tgz:51494.got - 2010.06.03 23:40:54.
