data_PCOD9328351
_publ_section_title
;
Structure prediction by ZEFSAII (Michael W. Deem and Ramdas Pophale) SiO2 
 PCOD9328351
Probable space group: F 2 2 2
;
_chemical_formula_sum "Si O2"
_cell_formula_units_Z 88
_cell_length_a 16.327639
_cell_length_b 13.734757
_cell_length_c 18.854066
_cell_angle_alpha 90.000000
_cell_angle_beta 90.000000
_cell_angle_gamma 90.000000
_cell_volume 4228.140329
_symmetry_space_group_name_H-M "F 2 2 2"
_symmetry_group_IT_number 22
_symmetry_cell_setting 'orthorhombic'
loop_
_space_group_symop_operation_xyz
x,y,z
-x,-y,z
x,-y,-z
-x,y,-z
x,1/2+y,1/2+z
-x,1/2-y,1/2+z
x,1/2-y,1/2-z
-x,1/2+y,1/2-z
1/2+x,y,1/2+z
1/2-x,-y,1/2+z
1/2+x,-y,1/2-z
1/2-x,y,1/2-z
1/2+x,1/2+y,z
1/2-x,1/2-y,z
1/2+x,1/2-y,-z
1/2-x,1/2+y,-z
loop_
_atom_site_type_symbol
_atom_site_label
_atom_site_fract_x
_atom_site_fract_y
_atom_site_fract_z
Si Si1 0.694757 0.162453 0.865353
Si Si2 0.569540 0.419704 0.738593
Si Si3 0.951589 0.750000 0.750000
Si Si4 0.850037 0.455575 0.607732
Si Si5 0.830371 0.812379 0.874150
Si Si6 0.407942 0.285155 0.021699
O O1 0.750000 0.250000 0.832156
O O2 0.647633 0.091980 0.811730
O O3 0.762477 0.096374 0.903092
O O4 0.631882 0.216599 0.918059
O O5 0.500000 0.500000 0.728684
O O6 0.515130 0.326952 0.720514
O O7 0.605445 0.427518 0.818018
O O8 0.896290 0.793448 0.812291
O O9 0.831536 0.570587 0.613154
O O10 0.903849 0.397763 0.549210
O O11 0.750000 0.750000 0.853134
O O12 0.856424 0.771863 0.950398
O O13 0.500000 0.260722 0.000000
#
# Coordination Sequence:
#
# PCOD9328351 Si02
#       6
#    16  16   8  16  16  16
#     4  10  23  44  70  99 137 186 231 285 348 424
#     4  12  24  41  70 104 140 171 232 288 349 418
#     4  12  25  42  65 100 136 178 220 294 359 402
#     4  11  24  43  70 103 131 185 232 280 351 422
#     4  12  26  43  66  96 138 181 228 282 344 418
#     4  11  24  44  72 100 136 173 235 293 345 408
#
# _framework density 20.812933000000001
#
# number of rings (size 3 to 8) (size 9 to 14) (size 15 to 20)
#    0.000    0.727    1.818    7.364    2.545    4.364 
#    0.000    0.000    0.000    0.000    0.000    0.000 
#    0.000    0.000    0.000    0.000    0.000    0.000 
#
# Total GULP energy -122707.138155 kJ/mol
# GULP energy per Si atom -5577.597189 kJ/mol
# Density = 2.076556 g / cm^3
# Si number density = 20.812933 Si / 1000 Ang^3
#
#
#
# Elastic Constant Matrix: (Units=GPa)
#
#
# Indices 1 2 3 4 5 6 
#
# 1 109.7704 19.1442 21.9236 0.0000 0.0000 0.0000
# 2 19.1442 67.3214 -0.7830 0.0000 0.0000 0.0000
# 3 21.9236 -0.7830 80.2361 0.0000 0.0000 0.0000
# 4 0.0000 0.0000 0.0000 21.8075 0.0000 0.0000
# 5 0.0000 0.0000 0.0000 0.0000 -93.2076 0.0000
# 6 0.0000 0.0000 0.0000 0.0000 0.0000 25.1611
#
#
#
# Elastic Compliance Matrix: (Units=1/GPa)
#
#
# Indices 1 2 3 4 5 6 
#
# 1 0.010182 -0.002928 -0.002811 0.000000 0.000000 0.000000
# 2 -0.002928 0.015698 0.000953 0.000000 0.000000 0.000000
# 3 -0.002811 0.000953 0.013241 0.000000 0.000000 0.000000
# 4 0.000000 0.000000 0.000000 0.045856 0.000000 0.000000
# 5 0.000000 0.000000 0.000000 0.000000 -0.010729 0.000000
# 6 0.000000 0.000000 0.000000 0.000000 0.000000 0.039744
#
#
# Mechanical properties :
#
#
# Convention : Reuss Voigt Hill
#
# Bulk Modulus (GPa) = 33.84182 37.54417 35.69300
# Shear Modulus (GPa) = 37.47782 5.22171 21.34977
#
# Velocity S-wave (km/s) = 4.24807 1.58566 3.20628
# Velocity P-wave (km/s) = 6.35269 4.62930 5.55820
#
# Compressibility (1/GPa) = 0.02954924
#
# Stress axis : x y z
#
# Youngs Moduli (GPa) = 98.21298 63.70287 75.52584
#
# Poissons Ratio (x) = 0.18653 0.21228
# Poissons Ratio (y) = 0.28758 -0.07200
# Poissons Ratio (z) = 0.27604 -0.06073
#
# Static dielectric constant tensor:
#      x y z
#    x 1.707620 0.000000 0.000000 
#    y 0.000000 1.819490 0.000000 
#    z 0.000000 0.000000 1.726580 
# 
# From -- ./inp_files/31433.got.cif
#   From: 2010.05.17/outbox.cif.g08.bks.cpg/sg22_16_cif.got.tgz:31433.got - 2010.06.03 23:40:54.
