data_PCOD9328548
_publ_section_title
;
Structure prediction by ZEFSAII (Michael W. Deem and Ramdas Pophale) SiO2 
 PCOD9328548
Probable space group: F 2 2 2
;
_chemical_formula_sum "Si O2"
_cell_formula_units_Z 88
_cell_length_a 22.228777
_cell_length_b 15.198661
_cell_length_c 12.128493
_cell_angle_alpha 90.000000
_cell_angle_beta 90.000000
_cell_angle_gamma 90.000000
_cell_volume 4097.582810
_symmetry_space_group_name_H-M "F 2 2 2"
_symmetry_group_IT_number 22
_symmetry_cell_setting 'orthorhombic'
loop_
_space_group_symop_operation_xyz
x,y,z
-x,-y,z
x,-y,-z
-x,y,-z
x,1/2+y,1/2+z
-x,1/2-y,1/2+z
x,1/2-y,1/2-z
-x,1/2+y,1/2-z
1/2+x,y,1/2+z
1/2-x,-y,1/2+z
1/2+x,-y,1/2-z
1/2-x,y,1/2-z
1/2+x,1/2+y,z
1/2-x,1/2-y,z
1/2+x,1/2-y,-z
1/2-x,1/2+y,-z
loop_
_atom_site_type_symbol
_atom_site_label
_atom_site_fract_x
_atom_site_fract_y
_atom_site_fract_z
Si Si1 0.051853 0.623220 0.816196
Si Si2 0.916933 0.853082 0.722323
Si Si3 0.346638 0.912050 0.424971
Si Si4 0.750000 0.445921 0.250000
Si Si5 0.563525 0.190949 0.570587
Si Si6 0.352063 0.485093 0.617682
O O1 0.069181 0.710136 0.884568
O O2 0.060440 0.635133 0.684261
O O3 0.089407 0.543265 0.863971
O O4 0.980356 0.619336 0.825928
O O5 0.917749 0.750000 0.750000
O O6 0.897918 0.910879 0.828461
O O7 0.867070 0.882405 0.635155
O O8 0.285127 0.897059 0.352146
O O9 0.377443 0.838856 0.503443
O O10 0.341778 0.000000 0.500000
O O11 0.697934 0.507794 0.294838
O O12 0.500000 0.182546 0.500000
O O13 0.325674 0.500000 0.500000
#
# Coordination Sequence:
#
# PCOD9328548 Si02
#       6
#    16  16  16   8  16  16
#     4  11  23  39  63 107 143 174 227 286 360 443
#     4  11  22  43  65 105 150 179 225 292 356 448
#     4  11  23  42  75 100 138 192 243 293 365 419
#     4  10  24  50  67  93 134 180 256 306 324 423
#     4  11  21  39  68 102 145 180 216 289 364 435
#     4  11  26  41  70  94 135 188 232 286 363 412
#
# _framework density 21.476075999999999
#
# number of rings (size 3 to 8) (size 9 to 14) (size 15 to 20)
#    0.000    1.091    3.636    3.273    5.091    1.091 
#    0.000    7.273    8.000    7.636    0.000    0.000 
#    0.000    0.000    0.000    0.000    0.000    0.000 
#
# Total GULP energy -122555.461049 kJ/mol
# GULP energy per Si atom -5570.702775 kJ/mol
# Density = 2.142720 g / cm^3
# Si number density = 21.476076 Si / 1000 Ang^3
#
#
#
# Elastic Constant Matrix: (Units=GPa)
#
#
# Indices 1 2 3 4 5 6 
#
# 1 98.7677 52.2529 32.0145 0.0000 0.0000 0.0000
# 2 52.2529 65.1644 21.9697 0.0000 0.0000 0.0000
# 3 32.0145 21.9697 92.3306 0.0000 0.0000 0.0000
# 4 0.0000 0.0000 0.0000 35.1669 0.0000 0.0000
# 5 0.0000 0.0000 0.0000 0.0000 28.6124 0.0000
# 6 0.0000 0.0000 0.0000 0.0000 0.0000 -4.7707
#
#
#
# Elastic Compliance Matrix: (Units=1/GPa)
#
#
# Indices 1 2 3 4 5 6 
#
# 1 0.018373 -0.013683 -0.003115 0.000000 0.000000 0.000000
# 2 -0.013683 0.026874 -0.001650 0.000000 0.000000 0.000000
# 3 -0.003115 -0.001650 0.012303 0.000000 0.000000 0.000000
# 4 0.000000 0.000000 0.000000 0.028436 0.000000 0.000000
# 5 0.000000 0.000000 0.000000 0.000000 0.034950 0.000000
# 6 0.000000 0.000000 0.000000 0.000000 0.000000 -0.209614
#
#
# Mechanical properties :
#
#
# Convention : Reuss Voigt Hill
#
# Bulk Modulus (GPa) = 48.41501 52.08189 50.24845
# Shear Modulus (GPa) = -111.36521 21.80343 -44.78089
#
# Velocity S-wave (km/s) = -7.20889 3.18974 -4.57130
# Velocity P-wave (km/s) = 6.83360 6.15384 2.10100
#
# Compressibility (1/GPa) = 0.02065475
#
# Stress axis : x y z
#
# Youngs Moduli (GPa) = 54.42696 37.21098 81.27839
#
# Poissons Ratio (x) = 0.50914 0.25318
# Poissons Ratio (y) = 0.74470 0.13413
# Poissons Ratio (z) = 0.16954 0.06141
#
# Static dielectric constant tensor:
#      x y z
#    x 1.786540 0.000000 0.000000 
#    y 0.000000 1.799980 0.000000 
#    z 0.000000 0.000000 1.919260 
# 
# From -- ./inp_files/22595.got.cif
#   From: 2010.05.17/outbox.cif.g08.bks.cpg/sg22_12_cif.got.tgz:22595.got - 2010.06.03 23:40:54.
