data_PCOD9328111
_publ_section_title
;
Structure prediction by ZEFSAII (Michael W. Deem and Ramdas Pophale) SiO2 
 PCOD9328111
Probable space group: F 2 2 2
;
_chemical_formula_sum "Si O2"
_cell_formula_units_Z 88
_cell_length_a 11.619660
_cell_length_b 19.316159
_cell_length_c 16.917983
_cell_angle_alpha 90.000000
_cell_angle_beta 90.000000
_cell_angle_gamma 90.000000
_cell_volume 3797.193915
_symmetry_space_group_name_H-M "F 2 2 2"
_symmetry_group_IT_number 22
_symmetry_cell_setting 'orthorhombic'
loop_
_space_group_symop_operation_xyz
x,y,z
-x,-y,z
x,-y,-z
-x,y,-z
x,1/2+y,1/2+z
-x,1/2-y,1/2+z
x,1/2-y,1/2-z
-x,1/2+y,1/2-z
1/2+x,y,1/2+z
1/2-x,-y,1/2+z
1/2+x,-y,1/2-z
1/2-x,y,1/2-z
1/2+x,1/2+y,z
1/2-x,1/2-y,z
1/2+x,1/2-y,-z
1/2-x,1/2+y,-z
loop_
_atom_site_type_symbol
_atom_site_label
_atom_site_fract_x
_atom_site_fract_y
_atom_site_fract_z
Si Si1 0.863239 0.282052 0.879973
Si Si2 0.090255 0.814067 0.307171
Si Si3 0.500000 0.181907 0.500000
Si Si4 0.120640 0.033425 0.759449
Si Si5 0.130689 0.630863 0.026439
Si Si6 0.651668 0.558954 0.938732
O O1 0.750000 0.250000 0.843993
O O2 0.952064 0.312493 0.817481
O O3 0.936551 0.227806 0.933587
O O4 0.821298 0.336920 0.945773
O O5 0.122267 0.750000 0.250000
O O6 0.125483 0.887905 0.272516
O O7 0.132308 0.815793 0.398994
O O8 0.593350 0.131683 0.460349
O O9 0.250000 0.001082 0.750000
O O10 0.110964 0.038484 0.853120
O O11 0.000000 0.000000 0.728382
O O12 0.210654 0.569390 0.055935
O O13 0.000000 0.613673 0.000000
O O14 0.621292 0.500000 0.000000
#
# Coordination Sequence:
#
# PCOD9328111 Si02
#       6
#    16  16   8  16  16  16
#     4  11  22  41  70 105 144 183 234 299 365 427
#     4  11  24  46  71 107 147 191 241 300 374 437
#     4  12  21  40  70 104 141 172 236 304 350 424
#     4  12  28  51  73 106 150 197 249 306 377 443
#     4  10  22  43  71 109 137 183 239 295 362 429
#     4  12  26  46  71 103 138 189 244 296 361 440
#
# _framework density 23.175008999999999
#
# number of rings (size 3 to 8) (size 9 to 14) (size 15 to 20)
#    0.000    0.727    6.364    2.455    0.000    4.000 
#    9.818    0.000    0.000    0.000    0.000    0.000 
#    0.000    0.000    0.000    0.000    0.000    0.000 
#
# Total GULP energy -122884.037140 kJ/mol
# GULP energy per Si atom -5585.638052 kJ/mol
# Density = 2.312226 g / cm^3
# Si number density = 23.175009 Si / 1000 Ang^3
#
#
#
# Elastic Constant Matrix: (Units=GPa)
#
#
# Indices 1 2 3 4 5 6 
#
# 1 156.4869 24.7699 18.0256 0.0000 0.0000 0.0000
# 2 24.7699 51.1868 6.3254 0.0000 0.0000 0.0000
# 3 18.0256 6.3254 82.6685 0.0000 0.0000 0.0000
# 4 0.0000 0.0000 0.0000 22.0387 0.0000 0.0000
# 5 0.0000 0.0000 0.0000 0.0000 14.9025 0.0000
# 6 0.0000 0.0000 0.0000 0.0000 0.0000 -397.0390
#
#
#
# Elastic Compliance Matrix: (Units=1/GPa)
#
#
# Indices 1 2 3 4 5 6 
#
# 1 0.007054 -0.003254 -0.001289 0.000000 0.000000 0.000000
# 2 -0.003254 0.021224 -0.000914 0.000000 0.000000 0.000000
# 3 -0.001289 -0.000914 0.012448 0.000000 0.000000 0.000000
# 4 0.000000 0.000000 0.000000 0.045375 0.000000 0.000000
# 5 0.000000 0.000000 0.000000 0.000000 0.067103 0.000000
# 6 0.000000 0.000000 0.000000 0.000000 0.000000 -0.002519
#
#
# Mechanical properties :
#
#
# Convention : Reuss Voigt Hill
#
# Bulk Modulus (GPa) = 33.54562 43.17599 38.36080
# Shear Modulus (GPa) = 29.14834 -55.93814 -13.39490
#
# Velocity S-wave (km/s) = 3.55032 -4.91830 -2.40675
# Velocity P-wave (km/s) = 5.59578 3.68538 2.97747
#
# Compressibility (1/GPa) = 0.02981015
#
# Stress axis : x y z
#
# Youngs Moduli (GPa) = 141.76566 47.11648 80.33713
#
# Poissons Ratio (x) = 0.15332 0.10356
# Poissons Ratio (y) = 0.46133 0.07346
# Poissons Ratio (z) = 0.18275 0.04308
#
# Static dielectric constant tensor:
#      x y z
#    x 1.962430 0.000000 0.000000 
#    y 0.000000 1.857040 0.000000 
#    z 0.000000 0.000000 2.225340 
# 
# From -- ./inp_files/42640.got.cif
#   From: 2010.05.17/outbox.cif.g08.bks.cpg/sg22_22_cif.got.tgz:42640.got - 2010.06.03 23:40:54.
