data_PCOD9328179
_publ_section_title
;
Structure prediction by ZEFSAII (Michael W. Deem and Ramdas Pophale) SiO2 
 PCOD9328179
Probable space group: F 2 2 2
;
_chemical_formula_sum "Si O2"
_cell_formula_units_Z 72
_cell_length_a 8.582741
_cell_length_b 24.247040
_cell_length_c 15.082834
_cell_angle_alpha 90.000000
_cell_angle_beta 90.000000
_cell_angle_gamma 90.000000
_cell_volume 3138.829223
_symmetry_space_group_name_H-M "F 2 2 2"
_symmetry_group_IT_number 22
_symmetry_cell_setting 'orthorhombic'
loop_
_space_group_symop_operation_xyz
x,y,z
-x,-y,z
x,-y,-z
-x,y,-z
x,1/2+y,1/2+z
-x,1/2-y,1/2+z
x,1/2-y,1/2-z
-x,1/2+y,1/2-z
1/2+x,y,1/2+z
1/2-x,-y,1/2+z
1/2+x,-y,1/2-z
1/2-x,y,1/2-z
1/2+x,1/2+y,z
1/2-x,1/2-y,z
1/2+x,1/2-y,-z
1/2-x,1/2+y,-z
loop_
_atom_site_type_symbol
_atom_site_label
_atom_site_fract_x
_atom_site_fract_y
_atom_site_fract_z
Si Si1 0.121651 0.296630 0.418703
Si Si2 0.876174 0.845959 0.823601
Si Si3 0.267958 0.000000 0.500000
Si Si4 0.400053 0.951886 0.688582
Si Si5 0.822991 0.621805 0.991341
O O1 0.250000 0.250000 0.418456
O O2 0.217943 0.354401 0.428315
O O3 0.000000 0.290136 0.500000
O O4 0.007455 0.299733 0.335398
O O5 0.750000 0.836779 0.750000
O O6 0.769261 0.851958 0.910241
O O7 0.977666 0.901745 0.815975
O O8 0.353106 0.977337 0.590710
O O9 0.179069 0.943860 0.476200
O O10 0.250000 0.939937 0.750000
O O11 0.500000 0.000000 0.735074
O O12 0.000000 0.640538 0.000000
#
# Coordination Sequence:
#
# PCOD9328179 Si02
#       5
#    16  16   8  16  16
#     4  10  22  45  77 106 136 189 248 315 375 440
#     4  11  25  44  70 107 151 189 242 308 382 451
#     4  12  24  42  68 106 152 196 256 286 374 442
#     4  12  26  43  69 102 158 202 243 310 371 445
#     4  11  24  41  70 105 146 194 248 305 360 447
#
# _framework density 22.938489000000001
#
# number of rings (size 3 to 8) (size 9 to 14) (size 15 to 20)
#    0.000    0.889    4.444    2.000    3.111    0.000 
#    0.000    0.000    0.000   52.667    0.000    0.000 
#    0.000    0.000    0.000    0.000    0.000    0.000 
#
# Total GULP energy -100414.116654 kJ/mol
# GULP energy per Si atom -5578.562036 kJ/mol
# Density = 2.288628 g / cm^3
# Si number density = 22.938489 Si / 1000 Ang^3
#
#
#
# Elastic Constant Matrix: (Units=GPa)
#
#
# Indices 1 2 3 4 5 6 
#
# 1 227.0427 68.0944 74.6667 0.0000 0.0000 0.0000
# 2 68.0944 97.6604 18.3383 0.0000 0.0000 0.0000
# 3 74.6667 18.3383 83.7744 0.0000 0.0000 0.0000
# 4 0.0000 0.0000 0.0000 7.2771 0.0000 0.0000
# 5 0.0000 0.0000 0.0000 0.0000 47.5437 0.0000
# 6 0.0000 0.0000 0.0000 0.0000 0.0000 595.3769
#
#
#
# Elastic Compliance Matrix: (Units=1/GPa)
#
#
# Indices 1 2 3 4 5 6 
#
# 1 0.007582 -0.004190 -0.005840 0.000000 0.000000 0.000000
# 2 -0.004190 0.012994 0.000890 0.000000 0.000000 0.000000
# 3 -0.005840 0.000890 0.016947 0.000000 0.000000 0.000000
# 4 0.000000 0.000000 0.000000 0.137417 0.000000 0.000000
# 5 0.000000 0.000000 0.000000 0.000000 0.021033 0.000000
# 6 0.000000 0.000000 0.000000 0.000000 0.000000 0.001680
#
#
# Mechanical properties :
#
#
# Convention : Reuss Voigt Hill
#
# Bulk Modulus (GPa) = 51.96810 81.18627 66.57718
# Shear Modulus (GPa) = 22.48737 146.53140 84.50939
#
# Velocity S-wave (km/s) = 3.13442 8.00118 6.07632
# Velocity P-wave (km/s) = 5.98365 10.99219 8.84964
#
# Compressibility (1/GPa) = 0.01924257
#
# Stress axis : x y z
#
# Youngs Moduli (GPa) = 131.89608 76.95980 59.00603
#
# Poissons Ratio (x) = 0.32244 0.34461
# Poissons Ratio (y) = 0.55261 -0.05251
# Poissons Ratio (z) = 0.77032 -0.06849
#
# Static dielectric constant tensor:
#      x y z
#    x 1.827690 0.000000 0.000000 
#    y 0.000000 1.887370 0.000000 
#    z 0.000000 0.000000 1.929190 
# 
# From -- ./inp_files/27060.got.cif
#   From: 2010.05.17/outbox.cif.g08.bks.cpg/sg22_14_cif.got.tgz:27060.got - 2010.06.03 23:40:54.
