data_PCOD9328842
_publ_section_title
;
Structure prediction by ZEFSAII (Michael W. Deem and Ramdas Pophale) SiO2 
 PCOD9328842
Probable space group: F 2 2 2
;
_chemical_formula_sum "Si O2"
_cell_formula_units_Z 80
_cell_length_a 22.204583
_cell_length_b 12.176156
_cell_length_c 13.553134
_cell_angle_alpha 90.000000
_cell_angle_beta 90.000000
_cell_angle_gamma 90.000000
_cell_volume 3664.312950
_symmetry_space_group_name_H-M "F 2 2 2"
_symmetry_group_IT_number 22
_symmetry_cell_setting 'orthorhombic'
loop_
_space_group_symop_operation_xyz
x,y,z
-x,-y,z
x,-y,-z
-x,y,-z
x,1/2+y,1/2+z
-x,1/2-y,1/2+z
x,1/2-y,1/2-z
-x,1/2+y,1/2-z
1/2+x,y,1/2+z
1/2-x,-y,1/2+z
1/2+x,-y,1/2-z
1/2-x,y,1/2-z
1/2+x,1/2+y,z
1/2-x,1/2-y,z
1/2+x,1/2-y,-z
1/2-x,1/2+y,-z
loop_
_atom_site_type_symbol
_atom_site_label
_atom_site_fract_x
_atom_site_fract_y
_atom_site_fract_z
Si Si1 0.645851 0.323082 0.051111
Si Si2 0.750492 0.045295 0.356684
Si Si3 0.067182 0.029662 0.797082
Si Si4 0.115985 0.071458 0.592451
Si Si5 0.159524 0.848557 0.823874
O O1 0.711567 0.376941 0.072121
O O2 0.601436 0.397429 0.119702
O O3 0.636151 0.196960 0.076780
O O4 0.637453 0.322541 0.934071
O O5 0.750000 0.103211 0.250000
O O6 0.818523 0.018331 0.384272
O O7 0.714234 0.932782 0.340792
O O8 0.072367 0.079110 0.687186
O O9 0.104725 0.918625 0.781186
O O10 0.000000 0.000000 0.827021
O O11 0.091642 0.000000 0.500000
O O12 0.173779 0.750000 0.750000
#
# Coordination Sequence:
#
# PCOD9328842 Si02
#       5
#    16  16  16  16  16
#     4  11  24  42  72  99 137 181 228 282 353 427
#     4  11  22  41  68 100 142 180 229 279 345 427
#     4  11  25  46  68  95 133 179 239 290 347 422
#     4  12  24  43  67 102 140 181 228 290 348 414
#     4  11  24  45  66 102 137 179 225 290 357 422
#
# _framework density 21.832196
#
# number of rings (size 3 to 8) (size 9 to 14) (size 15 to 20)
#    0.000    0.800    4.000    6.000    0.000    4.800 
#    0.000    2.000    0.000    0.000    0.000    0.000 
#    0.000    0.000    0.000    0.000    0.000    0.000 
#
# Total GULP energy -111687.674803 kJ/mol
# GULP energy per Si atom -5584.383740 kJ/mol
# Density = 2.178251 g / cm^3
# Si number density = 21.832196 Si / 1000 Ang^3
#
#
#
# Elastic Constant Matrix: (Units=GPa)
#
#
# Indices 1 2 3 4 5 6 
#
# 1 78.1533 21.2282 5.9463 0.0000 0.0000 0.0000
# 2 21.2282 113.9741 30.1238 0.0000 0.0000 0.0000
# 3 5.9463 30.1238 127.9665 0.0000 0.0000 0.0000
# 4 0.0000 0.0000 0.0000 34.4621 0.0000 0.0000
# 5 0.0000 0.0000 0.0000 0.0000 7.7154 0.0000
# 6 0.0000 0.0000 0.0000 0.0000 0.0000 9.8518
#
#
#
# Elastic Compliance Matrix: (Units=1/GPa)
#
#
# Indices 1 2 3 4 5 6 
#
# 1 0.013477 -0.002500 -0.000038 0.000000 0.000000 0.000000
# 2 -0.002500 0.009820 -0.002195 0.000000 0.000000 0.000000
# 3 -0.000038 -0.002195 0.008333 0.000000 0.000000 0.000000
# 4 0.000000 0.000000 0.000000 0.029017 0.000000 0.000000
# 5 0.000000 0.000000 0.000000 0.000000 0.129610 0.000000
# 6 0.000000 0.000000 0.000000 0.000000 0.000000 0.101505
#
#
# Mechanical properties :
#
#
# Convention : Reuss Voigt Hill
#
# Bulk Modulus (GPa) = 45.11916 48.29897 46.70906
# Shear Modulus (GPa) = 16.20129 27.92556 22.06343
#
# Velocity S-wave (km/s) = 2.72707 3.58033 3.18243
# Velocity P-wave (km/s) = 5.53418 6.26598 5.91141
#
# Compressibility (1/GPa) = 0.02216353
#
# Stress axis : x y z
#
# Youngs Moduli (GPa) = 74.19855 101.83433 120.00314
#
# Poissons Ratio (x) = 0.25461 0.00452
# Poissons Ratio (y) = 0.18552 0.26346
# Poissons Ratio (z) = 0.00280 0.22357
#
# Static dielectric constant tensor:
#      x y z
#    x 1.791860 0.000000 0.000000 
#    y 0.000000 1.831750 0.000000 
#    z 0.000000 0.000000 1.983280 
# 
# From -- ./inp_files/32261.got.cif
#   From: 2010.05.17/outbox.cif.g08.bks.cpg/sg22_17_cif.got.tgz:32261.got - 2010.06.03 23:40:54.
