data_PCOD9328241
_publ_section_title
;
Structure prediction by ZEFSAII (Michael W. Deem and Ramdas Pophale) SiO2 
 PCOD9328241
Probable space group: F 2 2 2
;
_chemical_formula_sum "Si O2"
_cell_formula_units_Z 88
_cell_length_a 22.459187
_cell_length_b 8.294631
_cell_length_c 22.504628
_cell_angle_alpha 90.000000
_cell_angle_beta 90.000000
_cell_angle_gamma 90.000000
_cell_volume 4192.402200
_symmetry_space_group_name_H-M "F 2 2 2"
_symmetry_group_IT_number 22
_symmetry_cell_setting 'orthorhombic'
loop_
_space_group_symop_operation_xyz
x,y,z
-x,-y,z
x,-y,-z
-x,y,-z
x,1/2+y,1/2+z
-x,1/2-y,1/2+z
x,1/2-y,1/2-z
-x,1/2+y,1/2-z
1/2+x,y,1/2+z
1/2-x,-y,1/2+z
1/2+x,-y,1/2-z
1/2-x,y,1/2-z
1/2+x,1/2+y,z
1/2-x,1/2-y,z
1/2+x,1/2-y,-z
1/2-x,1/2+y,-z
loop_
_atom_site_type_symbol
_atom_site_label
_atom_site_fract_x
_atom_site_fract_y
_atom_site_fract_z
Si Si1 0.372396 0.440150 0.114660
Si Si2 0.142741 0.415254 0.744653
Si Si3 0.690226 0.854826 0.162857
Si Si4 0.480777 0.677382 0.309757
Si Si5 0.500000 0.500000 0.111108
Si Si6 0.248726 0.559713 0.064432
O O1 0.371510 0.539550 0.176974
O O2 0.361401 0.257439 0.136196
O O3 0.435385 0.467890 0.082811
O O4 0.314946 0.491832 0.077340
O O5 0.179517 0.250000 0.750000
O O6 0.173790 0.565046 0.775362
O O7 0.084903 0.372194 0.784995
O O8 0.750000 0.750000 0.167453
O O9 0.706044 0.992712 0.115552
O O10 0.500000 0.500000 0.331903
O O11 0.512586 0.750000 0.250000
O O12 0.488481 0.830601 0.352917
O O13 0.250000 0.750000 0.065787
O O14 0.228854 0.500000 0.000000
#
# Coordination Sequence:
#
# PCOD9328241 Si02
#       6
#    16  16  16  16   8  16
#     4  11  22  38  61  93 131 169 216 259 320 386
#     4  11  20  34  54  88 128 167 211 254 317 378
#     4  10  23  40  61  90 124 166 214 266 328 381
#     4  11  19  31  52  80 124 171 212 246 295 368
#     4  12  22  38  57  92 134 178 215 254 308 392
#     4  11  24  45  71  92 118 159 218 278 330 387
#
# _framework density 20.990352999999999
#
# number of rings (size 3 to 8) (size 9 to 14) (size 15 to 20)
#    0.000    1.091    4.545    4.364    0.000    5.091 
#    0.000    5.000    0.000    0.000    0.000    0.000 
#    0.000    0.000    0.000    0.000    0.000    0.000 
#
# Total GULP energy -122707.887925 kJ/mol
# GULP energy per Si atom -5577.631269 kJ/mol
# Density = 2.094258 g / cm^3
# Si number density = 20.990353 Si / 1000 Ang^3
#
#
#
# Elastic Constant Matrix: (Units=GPa)
#
#
# Indices 1 2 3 4 5 6 
#
# 1 43.7270 -15.1924 -10.2364 0.0000 0.0000 0.0000
# 2 -15.1924 139.2644 0.1092 0.0000 0.0000 0.0000
# 3 -10.2364 0.1092 36.6161 0.0000 0.0000 0.0000
# 4 0.0000 0.0000 0.0000 24.2850 0.0000 0.0000
# 5 0.0000 0.0000 0.0000 0.0000 7.8067 0.0000
# 6 0.0000 0.0000 0.0000 0.0000 0.0000 17.1826
#
#
#
# Elastic Compliance Matrix: (Units=1/GPa)
#
#
# Indices 1 2 3 4 5 6 
#
# 1 0.025501 0.002776 0.007121 0.000000 0.000000 0.000000
# 2 0.002776 0.007483 0.000754 0.000000 0.000000 0.000000
# 3 0.007121 0.000754 0.029299 0.000000 0.000000 0.000000
# 4 0.000000 0.000000 0.000000 0.041178 0.000000 0.000000
# 5 0.000000 0.000000 0.000000 0.000000 0.128094 0.000000
# 6 0.000000 0.000000 0.000000 0.000000 0.000000 0.058199
#
#
# Mechanical properties :
#
#
# Convention : Reuss Voigt Hill
#
# Bulk Modulus (GPa) = 11.96403 18.77427 15.36915
# Shear Modulus (GPa) = 16.87407 26.18333 21.52870
#
# Velocity S-wave (km/s) = 2.83838 3.53568 3.20605
# Velocity P-wave (km/s) = 4.05636 5.06278 4.58725
#
# Compressibility (1/GPa) = 0.08358387
#
# Stress axis : x y z
#
# Youngs Moduli (GPa) = 39.21463 133.63876 34.13113
#
# Poissons Ratio (x) = -0.37102 -0.24304
# Poissons Ratio (y) = -0.10887 -0.02573
# Poissons Ratio (z) = -0.27923 -0.10074
#
# Static dielectric constant tensor:
#      x y z
#    x 1.843460 0.000000 0.000000 
#    y 0.000000 1.846090 0.000000 
#    z 0.000000 0.000000 1.750390 
# 
# From -- ./inp_files/45212.got.cif
#   From: 2010.05.17/outbox.cif.g08.bks.cpg/sg22_23_cif.got.tgz:45212.got - 2010.06.03 23:40:54.
