data_PCOD9328715
_publ_section_title
;
Structure prediction by ZEFSAII (Michael W. Deem and Ramdas Pophale) SiO2 
 PCOD9328715
Probable space group: F 2 2 2
;
_chemical_formula_sum "Si O2"
_cell_formula_units_Z 96
_cell_length_a 26.570120
_cell_length_b 11.181745
_cell_length_c 16.376932
_cell_angle_alpha 90.000000
_cell_angle_beta 90.000000
_cell_angle_gamma 90.000000
_cell_volume 4865.591516
_symmetry_space_group_name_H-M "F 2 2 2"
_symmetry_group_IT_number 22
_symmetry_cell_setting 'orthorhombic'
loop_
_space_group_symop_operation_xyz
x,y,z
-x,-y,z
x,-y,-z
-x,y,-z
x,1/2+y,1/2+z
-x,1/2-y,1/2+z
x,1/2-y,1/2-z
-x,1/2+y,1/2-z
1/2+x,y,1/2+z
1/2-x,-y,1/2+z
1/2+x,-y,1/2-z
1/2-x,y,1/2-z
1/2+x,1/2+y,z
1/2-x,1/2-y,z
1/2+x,1/2-y,-z
1/2-x,1/2+y,-z
loop_
_atom_site_type_symbol
_atom_site_label
_atom_site_fract_x
_atom_site_fract_y
_atom_site_fract_z
Si Si1 0.838318 0.761752 0.872576
Si Si2 0.153474 0.849528 0.807749
Si Si3 0.556477 0.138759 0.600019
Si Si4 0.557458 0.351285 0.093991
Si Si5 0.194241 0.938101 0.268086
Si Si6 0.285406 0.132880 0.472376
O O1 0.898330 0.775534 0.864696
O O2 0.812665 0.842695 0.803948
O O3 0.815792 0.630808 0.852960
O O4 0.823593 0.821606 0.957780
O O5 0.177043 0.750000 0.750000
O O6 0.099978 0.808253 0.843672
O O7 0.186216 0.882188 0.886777
O O8 0.152138 0.964057 0.749378
O O9 0.499450 0.172462 0.622845
O O10 0.560812 0.169175 0.503903
O O11 0.564337 0.994481 0.605489
O O12 0.250000 0.988170 0.250000
O O13 0.250000 0.250000 0.464097
O O14 0.266164 0.000000 0.500000
#
# Coordination Sequence:
#
# PCOD9328715 Si02
#       6
#    16  16  16  16  16  16
#     4  11  20  39  65  91 117 157 212 261 304 374
#     4  12  26  41  60  90 133 167 205 264 325 379
#     4   9  17  35  57  92 119 152 202 255 315 373
#     4   9  16  32  66  88 114 155 203 259 309 367
#     4  11  24  39  60  89 128 163 204 259 321 369
#     4  12  25  42  67  92 124 168 222 265 312 383
#
# _framework density 19.730387
#
# number of rings (size 3 to 8) (size 9 to 14) (size 15 to 20)
#    0.000    1.333    5.000    3.000    2.333    0.000 
#    3.000    0.000    0.000    0.000    0.000    2.333 
#    0.000    0.000    0.000    0.000    0.000    0.000 
#
# Total GULP energy -133745.672326 kJ/mol
# GULP energy per Si atom -5572.736347 kJ/mol
# Density = 1.968548 g / cm^3
# Si number density = 19.730387 Si / 1000 Ang^3
#
#
#
# Elastic Constant Matrix: (Units=GPa)
#
#
# Indices 1 2 3 4 5 6 
#
# 1 97.8509 11.9287 9.7086 0.0000 0.0000 0.0000
# 2 11.9287 65.0417 28.3596 0.0000 0.0000 0.0000
# 3 9.7086 28.3596 60.4068 0.0000 0.0000 0.0000
# 4 0.0000 0.0000 0.0000 26.5632 0.0000 0.0000
# 5 0.0000 0.0000 0.0000 0.0000 -1.5629 0.0000
# 6 0.0000 0.0000 0.0000 0.0000 0.0000 16.2411
#
#
#
# Elastic Compliance Matrix: (Units=1/GPa)
#
#
# Indices 1 2 3 4 5 6 
#
# 1 0.010500 -0.001496 -0.000985 0.000000 0.000000 0.000000
# 2 -0.001496 0.019545 -0.008936 0.000000 0.000000 0.000000
# 3 -0.000985 -0.008936 0.020908 0.000000 0.000000 0.000000
# 4 0.000000 0.000000 0.000000 0.037646 0.000000 0.000000
# 5 0.000000 0.000000 0.000000 0.000000 -0.639838 0.000000
# 6 0.000000 0.000000 0.000000 0.000000 0.000000 0.061572
#
#
# Mechanical properties :
#
#
# Convention : Reuss Voigt Hill
#
# Bulk Modulus (GPa) = 35.56297 35.92147 35.74222
# Shear Modulus (GPa) = -10.92991 19.80179 4.43594
#
# Velocity S-wave (km/s) = -2.35620 3.17143 1.50105
# Velocity P-wave (km/s) = 3.26518 5.62640 4.59988
#
# Compressibility (1/GPa) = 0.02811914
#
# Stress axis : x y z
#
# Youngs Moduli (GPa) = 95.24021 51.16331 47.82903
#
# Poissons Ratio (x) = 0.07655 0.04712
# Poissons Ratio (y) = 0.14249 0.42738
# Poissons Ratio (z) = 0.09382 0.45717
#
# Static dielectric constant tensor:
#      x y z
#    x 1.755950 0.000000 0.000000 
#    y 0.000000 1.766220 0.000000 
#    z 0.000000 0.000000 1.694290 
# 
# From -- ./inp_files/36234.got.cif
#   From: 2010.05.17/outbox.cif.g08.bks.cpg/sg22_19_cif.got.tgz:36234.got - 2010.06.03 23:40:54.
