data_PCOD9328313
_publ_section_title
;
Structure prediction by ZEFSAII (Michael W. Deem and Ramdas Pophale) SiO2 
 PCOD9328313
Probable space group: F 2 2 2
;
_chemical_formula_sum "Si O2"
_cell_formula_units_Z 48
_cell_length_a 7.357323
_cell_length_b 17.385338
_cell_length_c 17.631453
_cell_angle_alpha 90.000000
_cell_angle_beta 90.000000
_cell_angle_gamma 90.000000
_cell_volume 2255.231168
_symmetry_space_group_name_H-M "F 2 2 2"
_symmetry_group_IT_number 22
_symmetry_cell_setting 'orthorhombic'
loop_
_space_group_symop_operation_xyz
x,y,z
-x,-y,z
x,-y,-z
-x,y,-z
x,1/2+y,1/2+z
-x,1/2-y,1/2+z
x,1/2-y,1/2-z
-x,1/2+y,1/2-z
1/2+x,y,1/2+z
1/2-x,-y,1/2+z
1/2+x,-y,1/2-z
1/2-x,y,1/2-z
1/2+x,1/2+y,z
1/2-x,1/2-y,z
1/2+x,1/2-y,-z
1/2-x,1/2+y,-z
loop_
_atom_site_type_symbol
_atom_site_label
_atom_site_fract_x
_atom_site_fract_y
_atom_site_fract_z
Si Si1 0.192577 0.456510 0.926374
Si Si2 0.250000 0.123580 0.250000
Si Si3 0.500000 0.185852 0.000000
Si Si4 0.500000 0.000000 0.692953
Si Si5 0.250000 0.750000 0.621409
O O1 0.335698 0.467711 0.859202
O O2 0.000000 0.500000 0.910199
O O3 0.270524 0.500000 0.000000
O O4 0.140542 0.371651 0.956806
O O5 0.253764 0.176563 0.324022
O O6 0.076967 0.068710 0.243558
O O7 0.416412 0.238506 0.064933
#
# Coordination Sequence:
#
# PCOD9328313 Si02
#       5
#    16   8   8   8   8
#     4   9  20  41  71 113 137 177 245 304 345 425
#     4  11  28  46  70 103 148 184 242 291 364 420
#     4  10  23  42  74  99 146 184 248 290 356 425
#     4  12  25  42  76  97 148 196 234 292 364 421
#     4  11  26  48  68 105 146 188 230 305 350 436
#
# _framework density 21.283850000000001
#
# number of rings (size 3 to 8) (size 9 to 14) (size 15 to 20)
#    0.000    2.000    0.000    4.500   11.667    0.000 
#    0.000    0.000    0.000    0.000    0.000    0.000 
#    0.000    0.000    0.000    0.000    0.000    0.000 
#
# Total GULP energy -67068.379855 kJ/mol
# GULP energy per Si atom -5589.031655 kJ/mol
# Density = 2.123541 g / cm^3
# Si number density = 21.283850 Si / 1000 Ang^3
#
#
#
# Elastic Constant Matrix: (Units=GPa)
#
#
# Indices 1 2 3 4 5 6 
#
# 1 98.0353 60.5037 60.5061 0.0000 0.0000 0.0000
# 2 60.5037 114.4145 90.0102 0.0000 0.0000 0.0000
# 3 60.5061 90.0102 148.5902 0.0000 0.0000 0.0000
# 4 0.0000 0.0000 0.0000 -3.7123 0.0000 0.0000
# 5 0.0000 0.0000 0.0000 0.0000 59.8330 0.0000
# 6 0.0000 0.0000 0.0000 0.0000 0.0000 7.3936
#
#
#
# Elastic Compliance Matrix: (Units=1/GPa)
#
#
# Indices 1 2 3 4 5 6 
#
# 1 0.015650 -0.006233 -0.002597 0.000000 0.000000 0.000000
# 2 -0.006233 0.019180 -0.009080 0.000000 0.000000 0.000000
# 3 -0.002597 -0.009080 0.013288 0.000000 0.000000 0.000000
# 4 0.000000 0.000000 0.000000 -0.269378 0.000000 0.000000
# 5 0.000000 0.000000 0.000000 0.000000 0.016713 0.000000
# 6 0.000000 0.000000 0.000000 0.000000 0.000000 0.135252
#
#
# Mechanical properties :
#
#
# Convention : Reuss Voigt Hill
#
# Bulk Modulus (GPa) = 81.31920 87.00889 84.16404
# Shear Modulus (GPa) = -170.20414 22.70421 -73.74997
#
# Velocity S-wave (km/s) = -8.95222 3.26963 -5.89287
# Velocity P-wave (km/s) = 8.28049 7.43122 2.58297
#
# Compressibility (1/GPa) = 0.01229722
#
# Stress axis : x y z
#
# Youngs Moduli (GPa) = 63.89819 52.13888 75.25611
#
# Poissons Ratio (x) = 0.32496 0.19545
# Poissons Ratio (y) = 0.39826 0.68335
# Poissons Ratio (z) = 0.16595 0.47344
#
# Static dielectric constant tensor:
#      x y z
#    x 1.753340 0.000000 0.000000 
#    y 0.000000 1.780860 0.000000 
#    z 0.000000 0.000000 1.792440 
# 
# From -- ./inp_files/9267.got.cif
#   From: 2010.05.17/outbox.cif.g08.bks.cpg/sg22_5_cif.got.tgz:9267.got - 2010.06.03 23:40:54.
