data_PCOD9328753
_publ_section_title
;
Structure prediction by ZEFSAII (Michael W. Deem and Ramdas Pophale) SiO2 
 PCOD9328753
Probable space group: F 2 2 2
;
_chemical_formula_sum "Si O2"
_cell_formula_units_Z 80
_cell_length_a 15.441019
_cell_length_b 11.006521
_cell_length_c 22.674364
_cell_angle_alpha 90.000000
_cell_angle_beta 90.000000
_cell_angle_gamma 90.000000
_cell_volume 3853.551240
_symmetry_space_group_name_H-M "F 2 2 2"
_symmetry_group_IT_number 22
_symmetry_cell_setting 'orthorhombic'
loop_
_space_group_symop_operation_xyz
x,y,z
-x,-y,z
x,-y,-z
-x,y,-z
x,1/2+y,1/2+z
-x,1/2-y,1/2+z
x,1/2-y,1/2-z
-x,1/2+y,1/2-z
1/2+x,y,1/2+z
1/2-x,-y,1/2+z
1/2+x,-y,1/2-z
1/2-x,y,1/2-z
1/2+x,1/2+y,z
1/2-x,1/2-y,z
1/2+x,1/2-y,-z
1/2-x,1/2+y,-z
loop_
_atom_site_type_symbol
_atom_site_label
_atom_site_fract_x
_atom_site_fract_y
_atom_site_fract_z
Si Si1 0.250000 0.605679 0.450566
Si Si2 0.349595 0.893065 0.250000
Si Si3 0.647201 0.250000 0.818012
Si Si4 0.903825 0.504564 0.871690
Si Si5 0.096175 0.004565 0.871689
O O1 0.249998 0.500000 0.500000
O O2 0.250000 0.750000 0.467747
O O3 0.334591 0.575131 0.411408
O O4 0.165409 0.575132 0.411407
O O5 0.340635 0.750000 0.250000
O O6 0.250000 0.945768 0.250000
O O7 0.400316 0.931292 0.308043
O O8 0.400316 0.931292 0.191957
O O9 0.611829 0.250000 0.750000
O O10 0.750000 0.250000 0.812354
O O11 0.622406 0.132155 0.855310
O O12 0.622406 0.367846 0.855310
O O13 0.000000 0.500000 0.897264
O O14 0.000000 0.000000 0.897264
#
# Coordination Sequence:
#
# PCOD9328753 Si02
#       5
#    16  16  16  16  16
#     4  12  30  55  76  99 133 184 242 298 355 414
#     4  11  21  39  67 104 147 187 226 282 348 416
#     4  11  22  40  66 104 150 190 226 271 340 412
#     4  12  26  43  71 106 144 184 230 285 348 421
#     4  12  26  43  71 106 144 184 230 285 348 421
#
# _framework density 20.760071
#
# number of rings (size 3 to 8) (size 9 to 14) (size 15 to 20)
#    0.000    0.400    6.000    1.800    8.400    0.800 
#    0.000    2.000    0.000    0.000    0.000    0.000 
#    0.000    0.000    0.000    0.000    0.000    0.000 
#
# Total GULP energy -111792.462956 kJ/mol
# GULP energy per Si atom -5589.623148 kJ/mol
# Density = 2.071282 g / cm^3
# Si number density = 20.760071 Si / 1000 Ang^3
#
#
#
# Elastic Constant Matrix: (Units=GPa)
#
#
# Indices 1 2 3 4 5 6 
#
# 1 133.9887 26.8140 21.8988 0.0000 0.0000 0.0000
# 2 26.8140 176.6080 34.3975 0.0000 0.0000 0.0000
# 3 21.8988 34.3975 80.3052 0.0000 0.0000 0.0000
# 4 0.0000 0.0000 0.0000 31.3966 0.0000 0.0000
# 5 0.0000 0.0000 0.0000 0.0000 -7.9984 0.0000
# 6 0.0000 0.0000 0.0000 0.0000 0.0000 61.8353
#
#
#
# Elastic Compliance Matrix: (Units=1/GPa)
#
#
# Indices 1 2 3 4 5 6 
#
# 1 0.007928 -0.000854 -0.001796 0.000000 0.000000 0.000000
# 2 -0.000854 0.006270 -0.002453 0.000000 0.000000 0.000000
# 3 -0.001796 -0.002453 0.013993 0.000000 0.000000 0.000000
# 4 0.000000 0.000000 0.000000 0.031851 0.000000 0.000000
# 5 0.000000 0.000000 0.000000 0.000000 -0.125025 0.000000
# 6 0.000000 0.000000 0.000000 0.000000 0.000000 0.016172
#
#
# Mechanical properties :
#
#
# Convention : Reuss Voigt Hill
#
# Bulk Modulus (GPa) = 55.60200 61.90249 58.75224
# Shear Modulus (GPa) = -153.31671 37.56616 -57.87528
#
# Velocity S-wave (km/s) = -8.60303 4.25848 -5.28571
# Velocity P-wave (km/s) = 8.47593 7.35271 2.98153
#
# Compressibility (1/GPa) = 0.01798496
#
# Stress axis : x y z
#
# Youngs Moduli (GPa) = 126.13938 159.50011 71.46516
#
# Poissons Ratio (x) = 0.13618 0.12836
# Poissons Ratio (y) = 0.10770 0.17528
# Poissons Ratio (z) = 0.22656 0.39120
#
# Static dielectric constant tensor:
#      x y z
#    x 1.762710 0.000000 0.000000 
#    y 0.000000 1.812920 0.000000 
#    z 0.000000 0.000000 1.737280 
# 
# From -- ./inp_files/23550.got.cif
#   From: 2010.05.17/outbox.cif.g08.bks.cpg/sg22_12_cif.got.tgz:23550.got - 2010.06.03 23:40:54.
