data_PCOD9328107
_publ_section_title
;
Structure prediction by ZEFSAII (Michael W. Deem and Ramdas Pophale) SiO2 
 PCOD9328107
Probable space group: F 2 2 2
;
_chemical_formula_sum "Si O2"
_cell_formula_units_Z 92
_cell_length_a 16.729408
_cell_length_b 22.612414
_cell_length_c 10.576989
_cell_angle_alpha 90.000000
_cell_angle_beta 90.000000
_cell_angle_gamma 90.000000
_cell_volume 4001.193492
_symmetry_space_group_name_H-M "F 2 2 2"
_symmetry_group_IT_number 22
_symmetry_cell_setting 'orthorhombic'
loop_
_space_group_symop_operation_xyz
x,y,z
-x,-y,z
x,-y,-z
-x,y,-z
x,1/2+y,1/2+z
-x,1/2-y,1/2+z
x,1/2-y,1/2-z
-x,1/2+y,1/2-z
1/2+x,y,1/2+z
1/2-x,-y,1/2+z
1/2+x,-y,1/2-z
1/2-x,y,1/2-z
1/2+x,1/2+y,z
1/2-x,1/2-y,z
1/2+x,1/2-y,-z
1/2-x,1/2+y,-z
loop_
_atom_site_type_symbol
_atom_site_label
_atom_site_fract_x
_atom_site_fract_y
_atom_site_fract_z
Si Si1 0.541295 0.596042 0.875172
Si Si2 0.362730 0.052158 0.834330
Si Si3 0.175073 0.331000 0.978650
Si Si4 0.750000 0.456888 0.750000
Si Si5 0.861061 0.202246 0.005419
Si Si6 0.618613 0.135590 0.739644
Si Si7 0.000000 0.500000 0.000000
O O1 0.607637 0.556066 0.809911
O O2 0.470038 0.610020 0.776996
O O3 0.500000 0.570665 0.000000
O O4 0.583160 0.656822 0.919850
O O5 0.297363 0.000632 0.843598
O O6 0.335228 0.116154 0.880345
O O7 0.440112 0.037092 0.915245
O O8 0.128862 0.269765 0.952002
O O9 0.268452 0.314909 0.978819
O O10 0.145021 0.351079 0.117650
O O11 0.682703 0.413598 0.807429
O O12 0.876774 0.190884 0.856092
#
# Coordination Sequence:
#
# PCOD9328107 Si02
#       7
#    16  16  16   8  16  16   4
#     4  10  24  47  65 102 149 186 242 294 378 436
#     4  12  25  45  68 104 142 189 240 304 361 437
#     4  11  22  42  73 103 140 188 246 302 365 427
#     4  12  24  42  75 101 140 188 246 298 354 446
#     4  10  22  43  69 104 141 188 240 302 363 443
#     4  11  22  44  69 103 142 189 245 298 369 435
#     4  12  28  48  70 104 144 186 240 290 370 432
#
# _framework density 22.993138999999999
#
# number of rings (size 3 to 8) (size 9 to 14) (size 15 to 20)
#    0.000    1.043    1.739    4.696    0.000    2.087 
#   26.609    8.261    0.000    0.000    0.000    0.000 
#    0.000    0.000    0.000    0.000    0.000    0.000 
#
# Total GULP energy -128678.804003 kJ/mol
# GULP energy per Si atom -5594.730609 kJ/mol
# Density = 2.294081 g / cm^3
# Si number density = 22.993139 Si / 1000 Ang^3
#
#
#
# Elastic Constant Matrix: (Units=GPa)
#
#
# Indices 1 2 3 4 5 6 
#
# 1 97.9670 24.6154 26.7482 0.0000 0.0000 0.0000
# 2 24.6154 104.8717 25.3065 0.0000 0.0000 0.0000
# 3 26.7482 25.3065 58.2338 0.0000 0.0000 0.0000
# 4 0.0000 0.0000 0.0000 35.5485 0.0000 0.0000
# 5 0.0000 0.0000 0.0000 0.0000 5.2103 0.0000
# 6 0.0000 0.0000 0.0000 0.0000 0.0000 16.1034
#
#
#
# Elastic Compliance Matrix: (Units=1/GPa)
#
#
# Indices 1 2 3 4 5 6 
#
# 1 0.011921 -0.001650 -0.004759 0.000000 0.000000 0.000000
# 2 -0.001650 0.010881 -0.003971 0.000000 0.000000 0.000000
# 3 -0.004759 -0.003971 0.021084 0.000000 0.000000 0.000000
# 4 0.000000 0.000000 0.000000 0.028131 0.000000 0.000000
# 5 0.000000 0.000000 0.000000 0.000000 0.191927 0.000000
# 6 0.000000 0.000000 0.000000 0.000000 0.000000 0.062099
#
#
# Mechanical properties :
#
#
# Convention : Reuss Voigt Hill
#
# Bulk Modulus (GPa) = 43.23922 46.04585 44.64254
# Shear Modulus (GPa) = 14.10399 23.66593 18.88496
#
# Velocity S-wave (km/s) = 2.47938 3.21169 2.86899
# Velocity P-wave (km/s) = 5.20024 5.81572 5.51657
#
# Compressibility (1/GPa) = 0.02312715
#
# Stress axis : x y z
#
# Youngs Moduli (GPa) = 83.88296 91.90448 47.43038
#
# Poissons Ratio (x) = 0.15163 0.22571
# Poissons Ratio (y) = 0.13839 0.18833
# Poissons Ratio (z) = 0.39918 0.36492
#
# Static dielectric constant tensor:
#      x y z
#    x 1.822550 0.000000 0.000000 
#    y 0.000000 1.856920 0.000000 
#    z 0.000000 0.000000 1.812130 
# 
# From -- ./inp_files/21438.got.cif
#   From: 2010.05.17/outbox.cif.g08.bks.cpg/sg22_11_cif.got.tgz:21438.got - 2010.06.03 23:40:54.
