data_PCOD9328780
_publ_section_title
;
Structure prediction by ZEFSAII (Michael W. Deem and Ramdas Pophale) SiO2 
 PCOD9328780
Probable space group: F 2 2 2
;
_chemical_formula_sum "Si O2"
_cell_formula_units_Z 116
_cell_length_a 21.932396
_cell_length_b 9.295710
_cell_length_c 27.637556
_cell_angle_alpha 90.000000
_cell_angle_beta 90.000000
_cell_angle_gamma 90.000000
_cell_volume 5634.667334
_symmetry_space_group_name_H-M "F 2 2 2"
_symmetry_group_IT_number 22
_symmetry_cell_setting 'orthorhombic'
loop_
_space_group_symop_operation_xyz
x,y,z
-x,-y,z
x,-y,-z
-x,y,-z
x,1/2+y,1/2+z
-x,1/2-y,1/2+z
x,1/2-y,1/2-z
-x,1/2+y,1/2-z
1/2+x,y,1/2+z
1/2-x,-y,1/2+z
1/2+x,-y,1/2-z
1/2-x,y,1/2-z
1/2+x,1/2+y,z
1/2-x,1/2-y,z
1/2+x,1/2-y,-z
1/2-x,1/2+y,-z
loop_
_atom_site_type_symbol
_atom_site_label
_atom_site_fract_x
_atom_site_fract_y
_atom_site_fract_z
Si Si1 0.672803 0.171021 0.665439
Si Si2 0.750000 0.750000 0.250000
Si Si3 0.257028 0.913322 0.568905
Si Si4 0.068539 0.457560 0.647784
Si Si5 0.035613 0.808887 0.303182
Si Si6 0.416619 0.926167 0.848831
Si Si7 0.625938 0.063511 0.051856
Si Si8 0.121958 0.589402 0.455040
O O1 0.708169 0.160268 0.714853
O O2 0.717685 0.120475 0.622808
O O3 0.643458 0.328427 0.656041
O O4 0.614920 0.070933 0.668039
O O5 0.250000 0.750000 0.546995
O O6 0.193709 0.997429 0.561746
O O7 0.311225 0.016460 0.550565
O O8 0.079581 0.305748 0.672323
O O9 0.081505 0.448500 0.591235
O O10 0.000000 0.500000 0.658971
O O11 0.018643 0.750000 0.250000
O O12 0.977336 0.830487 0.339064
O O13 0.072455 0.958076 0.306050
O O14 0.412349 0.006750 0.901098
O O15 0.626455 0.236824 0.044750
O O16 0.604692 0.000000 0.000000
O O17 0.095084 0.500000 0.500000
#
# Coordination Sequence:
#
# PCOD9328780 Si02
#       8
#    16   4  16  16  16  16  16  16
#     4  11  24  40  70  95 146 180 235 297 363 432
#     4  12  24  40  64 106 132 192 228 284 376 432
#     4  11  21  42  62  96 135 185 238 294 346 426
#     4  11  24  44  68  97 137 178 230 297 353 424
#     4  11  26  44  71 104 134 181 240 293 367 434
#     4  11  24  45  70 105 142 175 240 303 350 445
#     4  12  24  42  70  98 140 190 235 295 366 425
#     4  11  25  42  65  98 135 186 237 290 355 431
#
# _framework density 20.586839999999999
#
# number of rings (size 3 to 8) (size 9 to 14) (size 15 to 20)
#    0.000    0.828    4.828    1.655    6.759    0.276 
#    0.000    1.379    0.000    0.828    0.000    0.000 
#    0.000    0.000    0.000    0.000    0.000    0.000 
#
# Total GULP energy -161736.288579 kJ/mol
# GULP energy per Si atom -5577.113399 kJ/mol
# Density = 2.053998 g / cm^3
# Si number density = 20.586840 Si / 1000 Ang^3
#
#
#
# Elastic Constant Matrix: (Units=GPa)
#
#
# Indices 1 2 3 4 5 6 
#
# 1 67.0735 36.0172 41.2373 0.0000 0.0000 0.0000
# 2 36.0172 139.5523 48.0721 0.0000 0.0000 0.0000
# 3 41.2373 48.0721 138.7674 0.0000 0.0000 0.0000
# 4 0.0000 0.0000 0.0000 38.3540 0.0000 0.0000
# 5 0.0000 0.0000 0.0000 0.0000 33.7627 0.0000
# 6 0.0000 0.0000 0.0000 0.0000 0.0000 17.8892
#
#
#
# Elastic Compliance Matrix: (Units=1/GPa)
#
#
# Indices 1 2 3 4 5 6 
#
# 1 0.019617 -0.003469 -0.004628 0.000000 0.000000 0.000000
# 2 -0.003469 0.008750 -0.002000 0.000000 0.000000 0.000000
# 3 -0.004628 -0.002000 0.009275 0.000000 0.000000 0.000000
# 4 0.000000 0.000000 0.000000 0.026073 0.000000 0.000000
# 5 0.000000 0.000000 0.000000 0.000000 0.029618 0.000000
# 6 0.000000 0.000000 0.000000 0.000000 0.000000 0.055900
#
#
# Mechanical properties :
#
#
# Convention : Reuss Voigt Hill
#
# Bulk Modulus (GPa) = 57.31491 66.22737 61.77114
# Shear Modulus (GPa) = 28.53190 32.67231 30.60211
#
# Velocity S-wave (km/s) = 3.72685 3.98810 3.85968
# Velocity P-wave (km/s) = 6.81323 7.31069 7.06634
#
# Compressibility (1/GPa) = 0.01744747
#
# Stress axis : x y z
#
# Youngs Moduli (GPa) = 50.97641 114.28410 107.82190
#
# Poissons Ratio (x) = 0.39642 0.49899
# Poissons Ratio (y) = 0.17683 0.21569
# Poissons Ratio (z) = 0.23591 0.22862
#
# Static dielectric constant tensor:
#      x y z
#    x 1.706460 0.000000 0.000000 
#    y 0.000000 1.799160 0.000000 
#    z 0.000000 0.000000 1.660910 
# 
# From -- ./inp_files/54197.got.cif
#   From: 2010.05.17/outbox.cif.g08.bks.cpg/sg22_28_cif.got.tgz:54197.got - 2010.06.03 23:40:54.
