data_PCOD9328888
_publ_section_title
;
Structure prediction by ZEFSAII (Michael W. Deem and Ramdas Pophale) SiO2 
 PCOD9328888
Probable space group: F 2 2 2
;
_chemical_formula_sum "Si O2"
_cell_formula_units_Z 80
_cell_length_a 27.524222
_cell_length_b 11.541399
_cell_length_c 10.376807
_cell_angle_alpha 90.000000
_cell_angle_beta 90.000000
_cell_angle_gamma 90.000000
_cell_volume 3296.379819
_symmetry_space_group_name_H-M "F 2 2 2"
_symmetry_group_IT_number 22
_symmetry_cell_setting 'orthorhombic'
loop_
_space_group_symop_operation_xyz
x,y,z
-x,-y,z
x,-y,-z
-x,y,-z
x,1/2+y,1/2+z
-x,1/2-y,1/2+z
x,1/2-y,1/2-z
-x,1/2+y,1/2-z
1/2+x,y,1/2+z
1/2-x,-y,1/2+z
1/2+x,-y,1/2-z
1/2-x,y,1/2-z
1/2+x,1/2+y,z
1/2-x,1/2-y,z
1/2+x,1/2-y,-z
1/2-x,1/2+y,-z
loop_
_atom_site_type_symbol
_atom_site_label
_atom_site_fract_x
_atom_site_fract_y
_atom_site_fract_z
Si Si1 0.602595 0.869046 0.045584
Si Si2 0.554561 0.336845 0.051044
Si Si3 0.303355 0.058030 0.733346
Si Si4 0.407192 0.456955 0.198834
Si Si5 0.196845 0.256904 0.970164
O O1 0.574220 0.883689 0.179771
O O2 0.572411 0.794736 0.941637
O O3 0.653526 0.801298 0.057818
O O4 0.611003 0.000000 0.000000
O O5 0.566232 0.420688 0.170052
O O6 0.500000 0.345494 0.000000
O O7 0.585733 0.387607 0.932030
O O8 0.250000 0.002026 0.750000
O O9 0.308834 0.134600 0.603229
O O10 0.303706 0.149167 0.852478
O O11 0.350806 0.979919 0.731044
O O12 0.250000 0.250000 0.031301
#
# Coordination Sequence:
#
# PCOD9328888 Si02
#       5
#    16  16  16  16  16
#     4  12  24  43  71 107 141 181 244 308 362 438
#     4  11  27  52  71  97 144 197 246 311 384 434
#     4   9  17  35  67 101 137 195 239 279 358 435
#     4  11  22  45  73 100 141 185 242 301 364 447
#     4   9  18  37  63 101 145 192 236 286 354 436
#
# _framework density 24.269048000000002
#
# number of rings (size 3 to 8) (size 9 to 14) (size 15 to 20)
#    0.000    1.600    4.000    3.000    0.000    1.200 
#   14.400    0.000    0.000    0.000    0.000    0.000 
#    0.000    0.000    0.000    0.000    0.000    0.000 
#
# Total GULP energy -111775.723161 kJ/mol
# GULP energy per Si atom -5588.786158 kJ/mol
# Density = 2.421381 g / cm^3
# Si number density = 24.269048 Si / 1000 Ang^3
#
#
#
# Elastic Constant Matrix: (Units=GPa)
#
#
# Indices 1 2 3 4 5 6 
#
# 1 147.4761 54.0650 15.8482 0.0000 0.0000 0.0000
# 2 54.0650 111.0875 32.0239 0.0000 0.0000 0.0000
# 3 15.8482 32.0239 82.4053 0.0000 0.0000 0.0000
# 4 0.0000 0.0000 0.0000 34.6690 0.0000 0.0000
# 5 0.0000 0.0000 0.0000 0.0000 22.6504 0.0000
# 6 0.0000 0.0000 0.0000 0.0000 0.0000 0.6239
#
#
#
# Elastic Compliance Matrix: (Units=1/GPa)
#
#
# Indices 1 2 3 4 5 6 
#
# 1 0.008253 -0.004008 -0.000030 0.000000 0.000000 0.000000
# 2 -0.004008 0.012084 -0.003925 0.000000 0.000000 0.000000
# 3 -0.000030 -0.003925 0.013666 0.000000 0.000000 0.000000
# 4 0.000000 0.000000 0.000000 0.028844 0.000000 0.000000
# 5 0.000000 0.000000 0.000000 0.000000 0.044149 0.000000
# 6 0.000000 0.000000 0.000000 0.000000 0.000000 1.602820
#
#
# Mechanical properties :
#
#
# Convention : Reuss Voigt Hill
#
# Bulk Modulus (GPa) = 55.31710 60.53813 57.92762
# Shear Modulus (GPa) = 2.88722 27.52412 15.20567
#
# Velocity S-wave (km/s) = 1.09190 3.37133 2.50581
# Velocity P-wave (km/s) = 4.94292 6.33666 5.68268
#
# Compressibility (1/GPa) = 0.01807759
#
# Stress axis : x y z
#
# Youngs Moduli (GPa) = 121.16230 82.75221 73.17300
#
# Poissons Ratio (x) = 0.33170 0.00217
# Poissons Ratio (y) = 0.48565 0.28722
# Poissons Ratio (z) = 0.00359 0.32482
#
# Static dielectric constant tensor:
#      x y z
#    x 1.962240 0.000000 0.000000 
#    y 0.000000 1.983220 0.000000 
#    z 0.000000 0.000000 2.165480 
# 
# From -- ./inp_files/25122.got.cif
#   From: 2010.05.17/outbox.cif.g08.bks.cpg/sg22_13_cif.got.tgz:25122.got - 2010.06.03 23:40:54.
