data_PCOD9328659
_publ_section_title
;
Structure prediction by ZEFSAII (Michael W. Deem and Ramdas Pophale) SiO2 
 PCOD9328659
Probable space group: F 2 2 2
;
_chemical_formula_sum "Si O2"
_cell_formula_units_Z 64
_cell_length_a 16.090653
_cell_length_b 15.379543
_cell_length_c 10.973048
_cell_angle_alpha 90.000000
_cell_angle_beta 90.000000
_cell_angle_gamma 90.000000
_cell_volume 2715.466059
_symmetry_space_group_name_H-M "F 2 2 2"
_symmetry_group_IT_number 22
_symmetry_cell_setting 'orthorhombic'
loop_
_space_group_symop_operation_xyz
x,y,z
-x,-y,z
x,-y,-z
-x,y,-z
x,1/2+y,1/2+z
-x,1/2-y,1/2+z
x,1/2-y,1/2-z
-x,1/2+y,1/2-z
1/2+x,y,1/2+z
1/2-x,-y,1/2+z
1/2+x,-y,1/2-z
1/2-x,y,1/2-z
1/2+x,1/2+y,z
1/2-x,1/2-y,z
1/2+x,1/2-y,-z
1/2-x,1/2+y,-z
loop_
_atom_site_type_symbol
_atom_site_label
_atom_site_fract_x
_atom_site_fract_y
_atom_site_fract_z
Si Si1 0.615559 0.346926 0.583744
Si Si2 0.913170 0.550630 0.608576
Si Si3 0.842467 0.659925 0.801073
Si Si4 0.250000 0.250000 0.250000
Si Si5 0.000000 0.290001 0.500000
Si Si6 0.000000 0.000000 0.500000
O O1 0.651053 0.341556 0.445761
O O2 0.689497 0.315524 0.672827
O O3 0.545330 0.272402 0.594590
O O4 0.560744 0.435867 0.578889
O O5 0.865101 0.500000 0.500000
O O6 0.877890 0.573087 0.739097
O O7 0.000000 0.500000 0.623661
O O8 0.932030 0.644523 0.551873
O O9 0.880350 0.750000 0.750000
O O10 0.750000 0.660646 0.750000
#
# Coordination Sequence:
#
# PCOD9328659 Si02
#       6
#    16  16  16   4   8   4
#     4  11  25  49  77 112 154 210 265 331 401 476
#     4   9  20  40  70 110 147 190 250 306 379 465
#     4  11  22  41  72 104 148 191 248 308 390 466
#     4  12  28  52  86 108 160 216 288 322 404 492
#     4   9  19  41  75 104 146 202 259 305 387 485
#     4  10  28  56  74 120 160 194 270 336 422 466
#
# _framework density 23.568698999999999
#
# number of rings (size 3 to 8) (size 9 to 14) (size 15 to 20)
#    0.000    2.000    2.500    1.500    1.750    4.000 
#    9.000    0.000    0.000    0.000    0.000    0.000 
#    0.000    0.000    0.000    0.000    0.000    0.000 
#
# Total GULP energy -89186.645612 kJ/mol
# GULP energy per Si atom -5574.165351 kJ/mol
# Density = 2.351506 g / cm^3
# Si number density = 23.568699 Si / 1000 Ang^3
#
#
#
# Elastic Constant Matrix: (Units=GPa)
#
#
# Indices 1 2 3 4 5 6 
#
# 1 104.8994 65.3543 67.2023 0.0000 0.0000 0.0000
# 2 65.3543 172.1156 67.7154 0.0000 0.0000 0.0000
# 3 67.2023 67.7154 167.2068 0.0000 0.0000 0.0000
# 4 0.0000 0.0000 0.0000 38.9344 0.0000 0.0000
# 5 0.0000 0.0000 0.0000 0.0000 43.6059 0.0000
# 6 0.0000 0.0000 0.0000 0.0000 0.0000 29.3386
#
#
#
# Elastic Compliance Matrix: (Units=1/GPa)
#
#
# Indices 1 2 3 4 5 6 
#
# 1 0.014741 -0.003886 -0.004351 0.000000 0.000000 0.000000
# 2 -0.003886 0.007935 -0.001652 0.000000 0.000000 0.000000
# 3 -0.004351 -0.001652 0.008398 0.000000 0.000000 0.000000
# 4 0.000000 0.000000 0.000000 0.025684 0.000000 0.000000
# 5 0.000000 0.000000 0.000000 0.000000 0.022933 0.000000
# 6 0.000000 0.000000 0.000000 0.000000 0.000000 0.034085
#
#
# Mechanical properties :
#
#
# Convention : Reuss Voigt Hill
#
# Bulk Modulus (GPa) = 88.51389 93.86287 91.18838
# Shear Modulus (GPa) = 36.41135 38.63911 37.52523
#
# Velocity S-wave (km/s) = 3.93479 4.05337 3.99452
# Velocity P-wave (km/s) = 7.63418 7.86245 7.74915
#
# Compressibility (1/GPa) = 0.01129766
#
# Stress axis : x y z
#
# Youngs Moduli (GPa) = 67.83725 126.01771 119.07033
#
# Poissons Ratio (x) = 0.48965 0.51808
# Poissons Ratio (y) = 0.26358 0.19671
# Poissons Ratio (z) = 0.29516 0.20819
#
# Static dielectric constant tensor:
#      x y z
#    x 1.932350 0.000000 0.000000 
#    y 0.000000 1.951270 0.000000 
#    z 0.000000 0.000000 1.972630 
# 
# From -- ./inp_files/20903.got.cif
#   From: 2010.05.17/outbox.cif.g08.bks.cpg/sg22_11_cif.got.tgz:20903.got - 2010.06.03 23:40:54.
