data_PCOD9328197
_publ_section_title
;
Structure prediction by ZEFSAII (Michael W. Deem and Ramdas Pophale) SiO2 
 PCOD9328197
Probable space group: F 2 2 2
;
_chemical_formula_sum "Si O2"
_cell_formula_units_Z 44
_cell_length_a 23.565869
_cell_length_b 6.449769
_cell_length_c 13.696839
_cell_angle_alpha 90.000000
_cell_angle_beta 90.000000
_cell_angle_gamma 90.000000
_cell_volume 2081.842981
_symmetry_space_group_name_H-M "F 2 2 2"
_symmetry_group_IT_number 22
_symmetry_cell_setting 'orthorhombic'
loop_
_space_group_symop_operation_xyz
x,y,z
-x,-y,z
x,-y,-z
-x,y,-z
x,1/2+y,1/2+z
-x,1/2-y,1/2+z
x,1/2-y,1/2-z
-x,1/2+y,1/2-z
1/2+x,y,1/2+z
1/2-x,-y,1/2+z
1/2+x,-y,1/2-z
1/2-x,y,1/2-z
1/2+x,1/2+y,z
1/2-x,1/2-y,z
1/2+x,1/2-y,-z
1/2-x,1/2+y,-z
loop_
_atom_site_type_symbol
_atom_site_label
_atom_site_fract_x
_atom_site_fract_y
_atom_site_fract_z
Si Si1 0.592972 0.000000 0.500000
Si Si2 0.750000 0.750000 0.250000
Si Si3 0.549734 0.664855 0.640160
Si Si4 0.140600 0.169032 0.352160
O O1 0.554507 0.857036 0.568424
O O2 0.630458 0.847466 0.431587
O O3 0.794136 0.867677 0.320732
O O4 0.500000 0.500000 0.620851
O O5 0.545217 0.750000 0.750000
O O6 0.608009 0.539011 0.623635
O O7 0.113303 0.250000 0.250000
#
# Coordination Sequence:
#
# PCOD9328197 Si02
#       4
#     8   4  16  16
#     4  12  26  47  72 106 142 192 237 290 362 422
#     4   8  20  48  74 104 146 182 240 298 346 412
#     4  12  26  47  73 104 147 188 237 296 358 424
#     4  10  22  47  71 103 141 185 236 292 350 414
#
# _framework density 21.135120000000001
#
# number of rings (size 3 to 8) (size 9 to 14) (size 15 to 20)
#    1.091    0.000    3.636    2.182    0.000    4.364 
#    6.545    6.364    0.000    0.000    0.000    0.000 
#    0.000    0.000    0.000    0.000    0.000    0.000 
#
# Total GULP energy -61432.707851 kJ/mol
# GULP energy per Si atom -5584.791623 kJ/mol
# Density = 2.108702 g / cm^3
# Si number density = 21.135120 Si / 1000 Ang^3
#
#
#
# Elastic Constant Matrix: (Units=GPa)
#
#
# Indices 1 2 3 4 5 6 
#
# 1 163.0152 72.0324 44.5902 0.0000 0.0000 0.0000
# 2 72.0324 135.1338 77.1324 0.0000 0.0000 0.0000
# 3 44.5902 77.1324 157.2959 0.0000 0.0000 0.0000
# 4 0.0000 0.0000 0.0000 59.4622 0.0000 0.0000
# 5 0.0000 0.0000 0.0000 0.0000 -0.5200 0.0000
# 6 0.0000 0.0000 0.0000 0.0000 0.0000 26.8156
#
#
#
# Elastic Compliance Matrix: (Units=1/GPa)
#
#
# Indices 1 2 3 4 5 6 
#
# 1 0.008031 -0.004140 -0.000246 0.000000 0.000000 0.000000
# 2 -0.004140 0.012411 -0.004912 0.000000 0.000000 0.000000
# 3 -0.000246 -0.004912 0.008836 0.000000 0.000000 0.000000
# 4 0.000000 0.000000 0.000000 0.016817 0.000000 0.000000
# 5 0.000000 0.000000 0.000000 0.000000 -1.923157 0.000000
# 6 0.000000 0.000000 0.000000 0.000000 0.000000 0.037292
#
#
# Mechanical properties :
#
#
# Convention : Reuss Voigt Hill
#
# Bulk Modulus (GPa) = 93.63004 93.66166 93.64585
# Shear Modulus (GPa) = -2.75086 34.59755 15.92334
#
# Velocity S-wave (km/s) = -1.14210 4.05034 2.74780
# Velocity P-wave (km/s) = 6.53128 8.14159 7.38049
#
# Compressibility (1/GPa) = 0.01068033
#
# Stress axis : x y z
#
# Youngs Moduli (GPa) = 124.51207 80.57447 113.17290
#
# Poissons Ratio (x) = 0.33361 0.02789
# Poissons Ratio (y) = 0.51553 0.55592
# Poissons Ratio (z) = 0.03068 0.39579
#
# Static dielectric constant tensor:
#      x y z
#    x 1.768170 0.000000 0.000000 
#    y 0.000000 1.804230 0.000000 
#    z 0.000000 0.000000 1.804970 
# 
# From -- ./inp_files/1535.got.cif
#   From: 2010.05.17/outbox.cif.g08.bks.cpg/sg22_1_cif.got.tgz:1535.got - 2010.06.03 23:40:54.
