data_PCOD9328716
_publ_section_title
;
Structure prediction by ZEFSAII (Michael W. Deem and Ramdas Pophale) SiO2 
 PCOD9328716
Probable space group: F 2 2 2
;
_chemical_formula_sum "Si O2"
_cell_formula_units_Z 68
_cell_length_a 18.810982
_cell_length_b 13.367521
_cell_length_c 11.656718
_cell_angle_alpha 90.000000
_cell_angle_beta 90.000000
_cell_angle_gamma 90.000000
_cell_volume 2931.153977
_symmetry_space_group_name_H-M "F 2 2 2"
_symmetry_group_IT_number 22
_symmetry_cell_setting 'orthorhombic'
loop_
_space_group_symop_operation_xyz
x,y,z
-x,-y,z
x,-y,-z
-x,y,-z
x,1/2+y,1/2+z
-x,1/2-y,1/2+z
x,1/2-y,1/2-z
-x,1/2+y,1/2-z
1/2+x,y,1/2+z
1/2-x,-y,1/2+z
1/2+x,-y,1/2-z
1/2-x,y,1/2-z
1/2+x,1/2+y,z
1/2-x,1/2-y,z
1/2+x,1/2-y,-z
1/2-x,1/2+y,-z
loop_
_atom_site_type_symbol
_atom_site_label
_atom_site_fract_x
_atom_site_fract_y
_atom_site_fract_z
Si Si1 0.236815 0.897105 0.876808
Si Si2 0.102076 0.176932 0.002634
Si Si3 0.882744 0.896274 0.524341
Si Si4 0.500000 0.500000 0.000000
Si Si5 0.673498 0.894427 0.718102
O O1 0.250000 0.858289 0.750000
O O2 0.199549 0.005002 0.849621
O O3 0.178832 0.831925 0.940050
O O4 0.308749 0.901627 0.950389
O O5 0.080331 0.292454 0.011384
O O6 0.119212 0.157003 0.868920
O O7 0.053775 0.085357 0.051316
O O8 0.864052 0.901568 0.659168
O O9 0.921346 0.000000 0.500000
O O10 0.750000 0.848710 0.750000
#
# Coordination Sequence:
#
# PCOD9328716 Si02
#       5
#    16  16  16   4  16
#     4  11  21  38  68 111 148 170 218 295 364 413
#     4  12  25  44  73  96 142 193 235 284 339 430
#     4  12  23  39  67 108 141 172 224 292 369 405
#     4  12  28  52  70  96 134 200 256 280 328 422
#     4  11  20  39  68 105 141 176 223 294 355 418
#
# _framework density 23.199055000000001
#
# number of rings (size 3 to 8) (size 9 to 14) (size 15 to 20)
#    0.000    0.471    9.412    1.412    0.000    2.824 
#    0.000    0.588   20.706    0.000    0.000    0.000 
#    0.000    0.000    0.000    0.000    0.000    0.000 
#
# Total GULP energy -94767.572614 kJ/mol
# GULP energy per Si atom -5574.563095 kJ/mol
# Density = 2.314625 g / cm^3
# Si number density = 23.199055 Si / 1000 Ang^3
#
#
#
# Elastic Constant Matrix: (Units=GPa)
#
#
# Indices 1 2 3 4 5 6 
#
# 1 101.0834 32.0840 18.4023 0.0000 0.0000 0.0000
# 2 32.0840 235.7287 5.1415 0.0000 0.0000 0.0000
# 3 18.4023 5.1415 136.2652 0.0000 0.0000 0.0000
# 4 0.0000 0.0000 0.0000 8.1872 0.0000 0.0000
# 5 0.0000 0.0000 0.0000 0.0000 -4.0610 0.0000
# 6 0.0000 0.0000 0.0000 0.0000 0.0000 25.7667
#
#
#
# Elastic Compliance Matrix: (Units=1/GPa)
#
#
# Indices 1 2 3 4 5 6 
#
# 1 0.010592 -0.001412 -0.001377 0.000000 0.000000 0.000000
# 2 -0.001412 0.004434 0.000023 0.000000 0.000000 0.000000
# 3 -0.001377 0.000023 0.007524 0.000000 0.000000 0.000000
# 4 0.000000 0.000000 0.000000 0.122142 0.000000 0.000000
# 5 0.000000 0.000000 0.000000 0.000000 -0.246242 0.000000
# 6 0.000000 0.000000 0.000000 0.000000 0.000000 0.038810
#
#
# Mechanical properties :
#
#
# Convention : Reuss Voigt Hill
#
# Bulk Modulus (GPa) = 58.75983 64.92588 61.84286
# Shear Modulus (GPa) = -97.01667 33.80854 -31.60406
#
# Velocity S-wave (km/s) = -6.47379 3.82163 -3.69494
# Velocity P-wave (km/s) = 5.52236 6.89350 2.91752
#
# Compressibility (1/GPa) = 0.01701843
#
# Stress axis : x y z
#
# Youngs Moduli (GPa) = 94.41493 225.54151 132.91282
#
# Poissons Ratio (x) = 0.31836 0.18304
# Poissons Ratio (y) = 0.13327 -0.00310
# Poissons Ratio (z) = 0.13002 -0.00526
#
# Static dielectric constant tensor:
#      x y z
#    x 1.868220 0.000000 0.000000 
#    y 0.000000 2.038880 0.000000 
#    z 0.000000 0.000000 1.825920 
# 
# From -- ./inp_files/22375.got.cif
#   From: 2010.05.17/outbox.cif.g08.bks.cpg/sg22_12_cif.got.tgz:22375.got - 2010.06.03 23:40:54.
