data_PCOD9328605
_publ_section_title
;
Structure prediction by ZEFSAII (Michael W. Deem and Ramdas Pophale) SiO2 
 PCOD9328605
Probable space group: F 2 2 2
;
_chemical_formula_sum "Si O2"
_cell_formula_units_Z 60
_cell_length_a 16.640714
_cell_length_b 20.735979
_cell_length_c 6.445055
_cell_angle_alpha 90.000000
_cell_angle_beta 90.000000
_cell_angle_gamma 90.000000
_cell_volume 2223.940320
_symmetry_space_group_name_H-M "F 2 2 2"
_symmetry_group_IT_number 22
_symmetry_cell_setting 'orthorhombic'
loop_
_space_group_symop_operation_xyz
x,y,z
-x,-y,z
x,-y,-z
-x,y,-z
x,1/2+y,1/2+z
-x,1/2-y,1/2+z
x,1/2-y,1/2-z
-x,1/2+y,1/2-z
1/2+x,y,1/2+z
1/2-x,-y,1/2+z
1/2+x,-y,1/2-z
1/2-x,y,1/2-z
1/2+x,1/2+y,z
1/2-x,1/2-y,z
1/2+x,1/2-y,-z
1/2-x,1/2+y,-z
loop_
_atom_site_type_symbol
_atom_site_label
_atom_site_fract_x
_atom_site_fract_y
_atom_site_fract_z
Si Si1 0.609464 0.000000 0.500000
Si Si2 0.410538 0.283684 0.992390
Si Si3 0.750000 0.750000 0.750000
Si Si4 0.662383 0.382210 0.718352
Si Si5 0.570403 0.399306 0.332338
O O1 0.654597 0.055006 0.633724
O O2 0.565152 0.042121 0.326367
O O3 0.324382 0.253160 0.927773
O O4 0.422858 0.337369 0.811958
O O5 0.500000 0.251813 0.000000
O O6 0.396614 0.326055 0.200511
O O7 0.750000 0.356359 0.750000
O O8 0.647771 0.401519 0.481144
O O9 0.500000 0.402081 0.500000
#
# Coordination Sequence:
#
# PCOD9328605 Si02
#       5
#     8  16   4  16  16
#     4  10  26  37  68 110 151 206 266 310 387 468
#     4  11  25  52  76 113 150 202 266 334 414 486
#     4  12  28  52  86 114 160 202 276 356 422 492
#     4  11  24  43  70 104 154 202 259 316 396 471
#     4  11  23  45  73 103 158 204 258 329 385 477
#
# _framework density 26.979142
#
# number of rings (size 3 to 8) (size 9 to 14) (size 15 to 20)
#    0.000    1.067    2.667    2.400    3.733    6.400 
#    4.800    1.333    0.000    0.000    0.000    0.000 
#    0.000    0.000    0.000    0.000    0.000    0.000 
#
# Total GULP energy -83708.101699 kJ/mol
# GULP energy per Si atom -5580.540113 kJ/mol
# Density = 2.691774 g / cm^3
# Si number density = 26.979142 Si / 1000 Ang^3
#
#
#
# Elastic Constant Matrix: (Units=GPa)
#
#
# Indices 1 2 3 4 5 6 
#
# 1 204.4073 43.7850 48.6913 0.0000 0.0000 0.0002
# 2 43.7850 69.0275 25.4037 0.0002 -0.0001 0.0000
# 3 48.6913 25.4037 183.7433 0.0006 -0.0005 -0.0004
# 4 0.0000 0.0002 0.0006 44.0639 -0.0005 -0.0002
# 5 0.0000 -0.0001 -0.0005 -0.0005 49.2622 0.0000
# 6 0.0002 0.0000 -0.0004 -0.0002 0.0000 -17.3376
#
#
#
# Elastic Compliance Matrix: (Units=1/GPa)
#
#
# Indices 1 2 3 4 5 6 
#
# 1 0.005863 -0.003316 -0.001095 0.000000 0.000000 0.000000
# 2 -0.003316 0.017139 -0.001491 0.000000 0.000000 0.000000
# 3 -0.001095 -0.001491 0.005939 0.000000 0.000000 0.000000
# 4 0.000000 0.000000 0.000000 0.022694 0.000000 0.000000
# 5 0.000000 0.000000 0.000000 0.000000 0.020300 0.000000
# 6 0.000000 0.000000 0.000000 0.000000 0.000000 -0.057678
#
#
# Mechanical properties :
#
#
# Convention : Reuss Voigt Hill
#
# Bulk Modulus (GPa) = 58.35423 76.99312 67.67368
# Shear Modulus (GPa) = 157.36185 37.81756 97.58971
#
# Velocity S-wave (km/s) = 7.64551 3.74803 6.02086
# Velocity P-wave (km/s) = 9.98072 6.87970 8.57161
#
# Compressibility (1/GPa) = 0.01713672
#
# Stress axis : x y z
#
# Youngs Moduli (GPa) = 170.54842 58.34609 168.38571
#
# Poissons Ratio (x) = 0.19348 0.18443
# Poissons Ratio (y) = 0.56556 0.25103
# Poissons Ratio (z) = 0.18680 0.08698
#
# Static dielectric constant tensor:
#      x y z
#    x 2.166250 0.000000 0.000000 
#    y 0.000000 2.138340 0.000000 
#    z 0.000000 0.000000 2.530040 
# 
# From -- ./inp_files/2637.got.cif
#   From: 2010.05.17/outbox.cif.g08.bks.cpg/sg22_2_cif.got.tgz:2637.got - 2010.06.03 23:40:54.
