data_PCOD9328013
_publ_section_title
;
Structure prediction by ZEFSAII (Michael W. Deem and Ramdas Pophale) SiO2 
 PCOD9328013
Probable space group: F 2 2 2
;
_chemical_formula_sum "Si O2"
_cell_formula_units_Z 96
_cell_length_a 12.760521
_cell_length_b 25.573339
_cell_length_c 13.242166
_cell_angle_alpha 90.000000
_cell_angle_beta 90.000000
_cell_angle_gamma 90.000000
_cell_volume 4321.304501
_symmetry_space_group_name_H-M "F 2 2 2"
_symmetry_group_IT_number 22
_symmetry_cell_setting 'orthorhombic'
loop_
_space_group_symop_operation_xyz
x,y,z
-x,-y,z
x,-y,-z
-x,y,-z
x,1/2+y,1/2+z
-x,1/2-y,1/2+z
x,1/2-y,1/2-z
-x,1/2+y,1/2-z
1/2+x,y,1/2+z
1/2-x,-y,1/2+z
1/2+x,-y,1/2-z
1/2-x,y,1/2-z
1/2+x,1/2+y,z
1/2-x,1/2-y,z
1/2+x,1/2-y,-z
1/2-x,1/2+y,-z
loop_
_atom_site_type_symbol
_atom_site_label
_atom_site_fract_x
_atom_site_fract_y
_atom_site_fract_z
Si Si1 0.089408 0.384388 0.244735
Si Si2 0.453948 0.558641 0.108193
Si Si3 0.500000 0.732876 0.500000
Si Si4 0.793678 0.958428 0.587427
Si Si5 0.653567 0.142696 0.982042
Si Si6 0.833463 0.204000 0.879290
Si Si7 0.250000 0.469030 0.250000
O O1 0.103306 0.379795 0.123603
O O2 0.129806 0.328836 0.283616
O O3 0.168229 0.427645 0.294589
O O4 0.983477 0.402736 0.299486
O O5 0.500000 0.500000 0.123086
O O6 0.330024 0.552537 0.095800
O O7 0.500000 0.577945 0.000000
O O8 0.590722 0.691445 0.528969
O O9 0.561864 0.770080 0.423800
O O10 0.846583 0.904505 0.560240
O O11 0.812017 0.000000 0.500000
O O12 0.820584 0.992100 0.684999
O O13 0.769187 0.164119 0.952322
O O14 0.750000 0.250000 0.861364
#
# Coordination Sequence:
#
# PCOD9328013 Si02
#       7
#    16  16   8  16  16  16   8
#     4  12  22  39  68 102 133 174 236 291 352 425
#     4  11  21  34  58 100 142 174 222 284 347 416
#     4  10  26  44  61 100 131 176 238 306 362 414
#     4  12  22  40  66  97 144 189 226 287 353 430
#     4  11  24  44  68  97 140 183 234 295 364 434
#     4  10  22  41  70  97 129 171 233 301 359 415
#     4  12  22  38  65 102 135 182 232 278 348 430
#
# _framework density 22.215513000000001
#
# number of rings (size 3 to 8) (size 9 to 14) (size 15 to 20)
#    0.000    0.833    6.667    1.000    3.500    6.000 
#    0.000    0.417    3.667    0.000    0.000    0.000 
#    0.000    0.000    0.000    0.000    0.000    0.000 
#
# Total GULP energy -133964.414814 kJ/mol
# GULP energy per Si atom -5581.850617 kJ/mol
# Density = 2.216495 g / cm^3
# Si number density = 22.215513 Si / 1000 Ang^3
#
#
#
# Elastic Constant Matrix: (Units=GPa)
#
#
# Indices 1 2 3 4 5 6 
#
# 1 44.5918 20.2877 10.6086 0.0000 0.0000 0.0000
# 2 20.2877 133.0966 56.9531 0.0000 0.0000 0.0000
# 3 10.6086 56.9531 77.1652 0.0000 0.0000 0.0000
# 4 0.0000 0.0000 0.0000 42.4352 0.0000 0.0000
# 5 0.0000 0.0000 0.0000 0.0000 20.7367 0.0000
# 6 0.0000 0.0000 0.0000 0.0000 0.0000 15.5234
#
#
#
# Elastic Compliance Matrix: (Units=1/GPa)
#
#
# Indices 1 2 3 4 5 6 
#
# 1 0.024138 -0.003302 -0.000881 0.000000 0.000000 0.000000
# 2 -0.003302 0.011433 -0.007985 0.000000 0.000000 0.000000
# 3 -0.000881 -0.007985 0.018974 0.000000 0.000000 0.000000
# 4 0.000000 0.000000 0.000000 0.023565 0.000000 0.000000
# 5 0.000000 0.000000 0.000000 0.000000 0.048224 0.000000
# 6 0.000000 0.000000 0.000000 0.000000 0.000000 0.064419
#
#
# Mechanical properties :
#
#
# Convention : Reuss Voigt Hill
#
# Bulk Modulus (GPa) = 33.10317 47.83915 40.47116
# Shear Modulus (GPa) = 22.20663 26.87267 24.53965
#
# Velocity S-wave (km/s) = 3.16508 3.48175 3.32718
# Velocity P-wave (km/s) = 5.31885 6.14364 5.74607
#
# Compressibility (1/GPa) = 0.03020859
#
# Stress axis : x y z
#
# Youngs Moduli (GPa) = 41.42900 87.46336 52.70501
#
# Poissons Ratio (x) = 0.28882 0.04644
# Poissons Ratio (y) = 0.13681 0.42083
# Poissons Ratio (z) = 0.03651 0.69836
#
# Static dielectric constant tensor:
#      x y z
#    x 1.891260 0.000000 0.000000 
#    y 0.000000 1.808630 0.000000 
#    z 0.000000 0.000000 2.495430 
# 
# From -- ./inp_files/29542.got.cif
#   From: 2010.05.17/outbox.cif.g08.bks.cpg/sg22_15_cif.got.tgz:29542.got - 2010.06.03 23:40:54.
