data_PCOD9328837
_publ_section_title
;
Structure prediction by ZEFSAII (Michael W. Deem and Ramdas Pophale) SiO2 
 PCOD9328837
Probable space group: F 2 2 2
;
_chemical_formula_sum "Si O2"
_cell_formula_units_Z 88
_cell_length_a 25.797946
_cell_length_b 11.962899
_cell_length_c 14.712582
_cell_angle_alpha 90.000000
_cell_angle_beta 90.000000
_cell_angle_gamma 90.000000
_cell_volume 4540.570904
_symmetry_space_group_name_H-M "F 2 2 2"
_symmetry_group_IT_number 22
_symmetry_cell_setting 'orthorhombic'
loop_
_space_group_symop_operation_xyz
x,y,z
-x,-y,z
x,-y,-z
-x,y,-z
x,1/2+y,1/2+z
-x,1/2-y,1/2+z
x,1/2-y,1/2-z
-x,1/2+y,1/2-z
1/2+x,y,1/2+z
1/2-x,-y,1/2+z
1/2+x,-y,1/2-z
1/2-x,y,1/2-z
1/2+x,1/2+y,z
1/2-x,1/2-y,z
1/2+x,1/2-y,-z
1/2-x,1/2+y,-z
loop_
_atom_site_type_symbol
_atom_site_label
_atom_site_fract_x
_atom_site_fract_y
_atom_site_fract_z
Si Si1 0.329527 0.236880 0.404435
Si Si2 0.759190 0.933622 0.353303
Si Si3 0.798222 0.832352 0.598274
Si Si4 0.438625 0.637957 0.898376
Si Si5 0.946171 0.127138 0.115433
Si Si6 0.869689 0.250000 0.250000
O O1 0.290903 0.130285 0.394879
O O2 0.303370 0.338103 0.349592
O O3 0.326628 0.284728 0.507980
O O4 0.386542 0.202367 0.371538
O O5 0.750000 0.969816 0.250000
O O6 0.776896 0.042272 0.408038
O O7 0.750000 0.750000 0.612635
O O8 0.834435 0.826861 0.686201
O O9 0.438453 0.506219 0.875504
O O10 0.495669 0.671167 0.863482
O O11 0.438819 0.648343 0.008164
O O12 0.905150 0.183247 0.180241
#
# Coordination Sequence:
#
# PCOD9328837 Si02
#       6
#    16  16  16  16  16   8
#     4  11  22  40  69  88 127 171 213 259 325 374
#     4  11  25  44  60  93 131 167 218 258 315 395
#     4  12  25  40  60  95 130 174 207 260 319 382
#     4   9  19  40  65  90 117 169 214 265 323 375
#     4   9  20  38  63  92 125 158 218 267 315 385
#     4  12  23  40  58 100 130 165 210 270 318 366
#
# _framework density 19.380821999999998
#
# number of rings (size 3 to 8) (size 9 to 14) (size 15 to 20)
#    0.000    1.455    3.636    4.091    5.091    0.000 
#    3.273    0.000    0.000    0.000    0.000    0.000 
#    0.000    0.000    0.000    0.000    0.000    0.000 
#
# Total GULP energy -122771.786942 kJ/mol
# GULP energy per Si atom -5580.535770 kJ/mol
# Density = 1.933671 g / cm^3
# Si number density = 19.380822 Si / 1000 Ang^3
#
#
#
# Elastic Constant Matrix: (Units=GPa)
#
#
# Indices 1 2 3 4 5 6 
#
# 1 128.2182 62.4340 18.9506 0.0000 0.0000 0.0000
# 2 62.4340 96.5296 31.0958 0.0000 0.0000 0.0000
# 3 18.9506 31.0958 78.4290 0.0000 0.0000 0.0000
# 4 0.0000 0.0000 0.0000 24.9085 0.0000 0.0000
# 5 0.0000 0.0000 0.0000 0.0000 38.5371 0.0000
# 6 0.0000 0.0000 0.0000 0.0000 0.0000 27.3759
#
#
#
# Elastic Compliance Matrix: (Units=1/GPa)
#
#
# Indices 1 2 3 4 5 6 
#
# 1 0.011387 -0.007427 0.000193 0.000000 0.000000 0.000000
# 2 -0.007427 0.016721 -0.004835 0.000000 0.000000 0.000000
# 3 0.000193 -0.004835 0.014621 0.000000 0.000000 0.000000
# 4 0.000000 0.000000 0.000000 0.040147 0.000000 0.000000
# 5 0.000000 0.000000 0.000000 0.000000 0.025949 0.000000
# 6 0.000000 0.000000 0.000000 0.000000 0.000000 0.036528
#
#
# Mechanical properties :
#
#
# Convention : Reuss Voigt Hill
#
# Bulk Modulus (GPa) = 53.78965 58.68196 56.23580
# Shear Modulus (GPa) = 28.45948 30.87739 29.66844
#
# Velocity S-wave (km/s) = 3.83617 3.99581 3.91681
# Velocity P-wave (km/s) = 6.88738 7.18560 7.03807
#
# Compressibility (1/GPa) = 0.01859094
#
# Stress axis : x y z
#
# Youngs Moduli (GPa) = 87.81705 59.80505 68.39658
#
# Poissons Ratio (x) = 0.44420 -0.01323
# Poissons Ratio (y) = 0.65226 0.33069
# Poissons Ratio (z) = -0.01698 0.28915
#
# Static dielectric constant tensor:
#      x y z
#    x 1.701270 0.000000 0.000000 
#    y 0.000000 1.645250 0.000000 
#    z 0.000000 0.000000 1.721200 
# 
# From -- ./inp_files/33045.got.cif
#   From: 2010.05.17/outbox.cif.g08.bks.cpg/sg22_17_cif.got.tgz:33045.got - 2010.06.03 23:40:54.
