data_PCOD9328033
_publ_section_title
;
Structure prediction by ZEFSAII (Michael W. Deem and Ramdas Pophale) SiO2 
 PCOD9328033
Probable space group: F 2 2 2
;
_chemical_formula_sum "Si O2"
_cell_formula_units_Z 60
_cell_length_a 21.606812
_cell_length_b 5.245857
_cell_length_c 24.401148
_cell_angle_alpha 90.000000
_cell_angle_beta 90.000000
_cell_angle_gamma 90.000000
_cell_volume 2765.778523
_symmetry_space_group_name_H-M "F 2 2 2"
_symmetry_group_IT_number 22
_symmetry_cell_setting 'orthorhombic'
loop_
_space_group_symop_operation_xyz
x,y,z
-x,-y,z
x,-y,-z
-x,y,-z
x,1/2+y,1/2+z
-x,1/2-y,1/2+z
x,1/2-y,1/2-z
-x,1/2+y,1/2-z
1/2+x,y,1/2+z
1/2-x,-y,1/2+z
1/2+x,-y,1/2-z
1/2-x,y,1/2-z
1/2+x,1/2+y,z
1/2-x,1/2-y,z
1/2+x,1/2-y,-z
1/2-x,1/2+y,-z
loop_
_atom_site_type_symbol
_atom_site_label
_atom_site_fract_x
_atom_site_fract_y
_atom_site_fract_z
Si Si1 0.366899 0.492905 0.109345
Si Si2 0.500000 0.000000 0.194522
Si Si3 0.289429 0.000000 0.500000
Si Si4 0.139171 0.504594 0.184747
Si Si5 0.750000 0.250000 0.250000
Si Si6 0.500000 0.000000 0.380089
O O1 0.143384 0.237407 0.152370
O O2 0.361339 0.761148 0.141243
O O3 0.437097 0.483880 0.087637
O O4 0.325646 0.464276 0.056474
O O5 0.428180 0.997535 0.217144
O O6 0.499428 0.746041 0.158669
O O7 0.250000 0.750000 0.491404
O O8 0.200949 0.566320 0.218780
#
# Coordination Sequence:
#
# PCOD9328033 Si02
#       6
#    16   8   8  16   4   8
#     4  10  22  42  65  92 130 167 210 272 316 387
#     4   8  16  38  61  89 123 172 203 263 331 386
#     4  12  26  39  62  97 128 178 214 246 328 402
#     4  10  23  41  66  93 134 167 218 273 327 387
#     4  12  28  42  68 106 124 180 228 274 348 388
#     4   8  16  35  65  90 117 162 211 256 325 365
#
# _framework density 21.693712000000001
#
# number of rings (size 3 to 8) (size 9 to 14) (size 15 to 20)
#    0.000    2.133    0.000    1.600    5.600    2.667 
#    0.000    8.000    0.000   11.200    0.000    0.000 
#    0.000    0.000    0.000    0.000    0.000    0.000 
#
# Total GULP energy -83654.442094 kJ/mol
# GULP energy per Si atom -5576.962806 kJ/mol
# Density = 2.164434 g / cm^3
# Si number density = 21.693712 Si / 1000 Ang^3
#
#
#
# Elastic Constant Matrix: (Units=GPa)
#
#
# Indices 1 2 3 4 5 6 
#
# 1 204.6428 14.0341 60.3703 -0.0012 -0.0007 -0.0027
# 2 14.0341 138.8327 20.4894 0.0094 0.0003 -0.0047
# 3 60.3703 20.4894 59.1660 -0.0006 -0.0002 -0.0015
# 4 -0.0012 0.0094 -0.0006 26.9367 0.0004 -0.0016
# 5 -0.0007 0.0003 -0.0002 0.0004 98.6850 0.0003
# 6 -0.0027 -0.0047 -0.0015 -0.0016 0.0003 32.9421
#
#
#
# Elastic Compliance Matrix: (Units=1/GPa)
#
#
# Indices 1 2 3 4 5 6 
#
# 1 0.007008 0.000366 -0.007278 0.000000 0.000000 0.000000
# 2 0.000366 0.007610 -0.003008 -0.000003 0.000000 0.000001
# 3 -0.007278 -0.003008 0.025369 0.000001 0.000000 0.000000
# 4 0.000000 -0.000003 0.000001 0.037124 0.000000 0.000002
# 5 0.000000 0.000000 0.000000 0.000000 0.010133 0.000000
# 6 0.000000 0.000001 0.000000 0.000002 0.000000 0.030356
#
#
# Mechanical properties :
#
#
# Convention : Reuss Voigt Hill
#
# Bulk Modulus (GPa) = 49.63605 65.82547 57.73076
# Shear Modulus (GPa) = 34.68420 52.22925 43.45673
#
# Velocity S-wave (km/s) = 4.00285 4.91203 4.48056
# Velocity P-wave (km/s) = 6.65536 7.91073 7.31005
#
# Compressibility (1/GPa) = 0.02014665
#
# Stress axis : x y z
#
# Youngs Moduli (GPa) = 142.68522 131.40696 39.41779
#
# Poissons Ratio (x) = -0.04804 0.28687
# Poissons Ratio (y) = -0.05217 0.11858
# Poissons Ratio (z) = 1.03842 0.39533
#
# Static dielectric constant tensor:
#      x y z
#    x 1.861840 0.000000 0.000000 
#    y 0.000000 1.754730 0.000000 
#    z 0.000000 0.000000 1.736890 
# 
# From -- ./inp_files/5277.got.cif
#   From: 2010.05.17/outbox.cif.g08.bks.cpg/sg22_3_cif.got.tgz:5277.got - 2010.06.03 23:40:54.
