data_PCOD9328826
_publ_section_title
;
Structure prediction by ZEFSAII (Michael W. Deem and Ramdas Pophale) SiO2 
 PCOD9328826
Probable space group: F 2 2 2
;
_chemical_formula_sum "Si O2"
_cell_formula_units_Z 72
_cell_length_a 8.658302
_cell_length_b 23.637671
_cell_length_c 18.224579
_cell_angle_alpha 90.000000
_cell_angle_beta 90.000000
_cell_angle_gamma 90.000000
_cell_volume 3729.880502
_symmetry_space_group_name_H-M "F 2 2 2"
_symmetry_group_IT_number 22
_symmetry_cell_setting 'orthorhombic'
loop_
_space_group_symop_operation_xyz
x,y,z
-x,-y,z
x,-y,-z
-x,y,-z
x,1/2+y,1/2+z
-x,1/2-y,1/2+z
x,1/2-y,1/2-z
-x,1/2+y,1/2-z
1/2+x,y,1/2+z
1/2-x,-y,1/2+z
1/2+x,-y,1/2-z
1/2-x,y,1/2-z
1/2+x,1/2+y,z
1/2-x,1/2-y,z
1/2+x,1/2-y,-z
1/2-x,1/2+y,-z
loop_
_atom_site_type_symbol
_atom_site_label
_atom_site_fract_x
_atom_site_fract_y
_atom_site_fract_z
Si Si1 0.002200 0.186110 0.247681
Si Si2 0.750000 0.408743 0.250000
Si Si3 0.758379 0.313108 0.623973
Si Si4 0.676212 0.919396 0.028582
Si Si5 0.323704 0.021453 0.605210
O O1 0.935143 0.250000 0.250000
O O2 0.081965 0.177716 0.168123
O O3 0.131856 0.185844 0.310872
O O4 0.890215 0.134441 0.263601
O O5 0.714049 0.448071 0.180873
O O6 0.750000 0.250000 0.591970
O O7 0.720256 0.360431 0.565170
O O8 0.711111 0.968433 0.088209
O O9 0.500000 0.920678 0.000000
O O10 0.787201 0.935312 0.960819
O O11 0.500000 0.000000 0.603396
#
# Coordination Sequence:
#
# PCOD9328826 Si02
#       5
#    16   8  16  16  16
#     4   9  19  36  60  89 122 151 186 241 291 334
#     4  12  23  38  62  88 111 152 204 238 280 352
#     4   9  19  39  63  87 117 156 192 230 289 352
#     4  11  22  40  61  85 118 154 194 242 290 340
#     4  11  25  40  57  84 120 156 192 243 296 339
#
# _framework density 19.303567999999999
#
# number of rings (size 3 to 8) (size 9 to 14) (size 15 to 20)
#    0.000    1.778    0.000    7.000    0.000    5.333 
#    0.000    8.889    0.000    0.000    0.000    0.000 
#    0.000    0.000    0.000    0.000    0.000    0.000 
#
# Total GULP energy -100530.918756 kJ/mol
# GULP energy per Si atom -5585.051042 kJ/mol
# Density = 1.925963 g / cm^3
# Si number density = 19.303568 Si / 1000 Ang^3
#
#
#
# Elastic Constant Matrix: (Units=GPa)
#
#
# Indices 1 2 3 4 5 6 
#
# 1 115.2160 74.3929 52.9821 0.0000 0.0000 0.0000
# 2 74.3929 176.8119 100.3053 0.0000 0.0000 0.0000
# 3 52.9821 100.3053 101.3294 0.0000 0.0000 0.0000
# 4 0.0000 0.0000 0.0000 26.3922 0.0000 0.0000
# 5 0.0000 0.0000 0.0000 0.0000 3.3592 0.0000
# 6 0.0000 0.0000 0.0000 0.0000 0.0000 49.8374
#
#
#
# Elastic Compliance Matrix: (Units=1/GPa)
#
#
# Indices 1 2 3 4 5 6 
#
# 1 0.012300 -0.003482 -0.002984 0.000000 0.000000 0.000000
# 2 -0.003482 0.013886 -0.011925 0.000000 0.000000 0.000000
# 3 -0.002984 -0.011925 0.023233 0.000000 0.000000 0.000000
# 4 0.000000 0.000000 0.000000 0.037890 0.000000 0.000000
# 5 0.000000 0.000000 0.000000 0.000000 0.297689 0.000000
# 6 0.000000 0.000000 0.000000 0.000000 0.000000 0.020065
#
#
# Mechanical properties :
#
#
# Convention : Reuss Voigt Hill
#
# Bulk Modulus (GPa) = 79.13404 94.30200 86.71802
# Shear Modulus (GPa) = 11.20932 26.96290 19.08611
#
# Velocity S-wave (km/s) = 2.41236 3.74141 3.14783
# Velocity P-wave (km/s) = 6.98876 8.22328 7.63103
#
# Compressibility (1/GPa) = 0.01263679
#
# Stress axis : x y z
#
# Youngs Moduli (GPa) = 81.30018 72.01685 43.04173
#
# Poissons Ratio (x) = 0.25078 0.12845
# Poissons Ratio (y) = 0.28310 0.51325
# Poissons Ratio (z) = 0.24263 0.85877
#
# Static dielectric constant tensor:
#      x y z
#    x 1.708460 0.000000 0.000000 
#    y 0.000000 1.689280 0.000000 
#    z 0.000000 0.000000 1.634800 
# 
# From -- ./inp_files/12486.got.cif
#   From: 2010.05.17/outbox.cif.g08.bks.cpg/sg22_7_cif.got.tgz:12486.got - 2010.06.03 23:40:54.
