data_PCOD9328938
_publ_section_title
;
Structure prediction by ZEFSAII (Michael W. Deem and Ramdas Pophale) SiO2 
 PCOD9328938
Probable space group: F 2 2 2
;
_chemical_formula_sum "Si O2"
_cell_formula_units_Z 56
_cell_length_a 13.068715
_cell_length_b 22.391814
_cell_length_c 6.981477
_cell_angle_alpha 90.000000
_cell_angle_beta 90.000000
_cell_angle_gamma 90.000000
_cell_volume 2043.005222
_symmetry_space_group_name_H-M "F 2 2 2"
_symmetry_group_IT_number 22
_symmetry_cell_setting 'orthorhombic'
loop_
_space_group_symop_operation_xyz
x,y,z
-x,-y,z
x,-y,-z
-x,y,-z
x,1/2+y,1/2+z
-x,1/2-y,1/2+z
x,1/2-y,1/2-z
-x,1/2+y,1/2-z
1/2+x,y,1/2+z
1/2-x,-y,1/2+z
1/2+x,-y,1/2-z
1/2-x,y,1/2-z
1/2+x,1/2+y,z
1/2-x,1/2-y,z
1/2+x,1/2-y,-z
1/2-x,1/2+y,-z
loop_
_atom_site_type_symbol
_atom_site_label
_atom_site_fract_x
_atom_site_fract_y
_atom_site_fract_z
Si Si1 0.612228 0.899466 0.446880
Si Si2 0.660665 0.569416 0.494758
Si Si3 0.000000 0.842763 0.500000
Si Si4 0.366516 0.239267 0.521126
O O1 0.500000 0.925128 0.500000
O O2 0.635683 0.911106 0.223160
O O3 0.718873 0.922870 0.541249
O O4 0.608016 0.828952 0.484206
O O5 0.634884 0.500000 0.500000
O O6 0.580939 0.613015 0.604780
O O7 0.074604 0.792321 0.587569
O O8 0.378674 0.250000 0.750000
O O9 0.250000 0.250000 0.474618
#
# Coordination Sequence:
#
# PCOD9328938 Si02
#       4
#    16  16   8  16
#     4  11  24  51  79 115 156 213 269 337 414 485
#     4  11  27  51  73 114 163 217 276 333 395 494
#     4  12  23  44  78 110 153 202 250 346 410 476
#     4  11  23  42  71 116 157 196 256 336 415 492
#
# _framework density 27.410599999999999
#
# number of rings (size 3 to 8) (size 9 to 14) (size 15 to 20)
#    0.000    0.857    4.286    2.143    0.000    0.571 
#   30.857    0.000    0.000    0.000    0.000    0.000 
#    0.000    0.000    0.000    0.000    0.000    0.000 
#
# Total GULP energy -78339.307653 kJ/mol
# GULP energy per Si atom -5595.664832 kJ/mol
# Density = 2.734821 g / cm^3
# Si number density = 27.410600 Si / 1000 Ang^3
#
#
#
# Elastic Constant Matrix: (Units=GPa)
#
#
# Indices 1 2 3 4 5 6 
#
# 1 297.6287 68.7628 15.2123 0.0000 0.0000 0.0000
# 2 68.7628 275.4681 34.3861 0.0000 0.0000 0.0000
# 3 15.2123 34.3861 119.9163 0.0000 0.0000 0.0000
# 4 0.0000 0.0000 0.0000 93.7203 0.0000 0.0001
# 5 0.0000 0.0000 0.0000 0.0000 28.2835 0.0000
# 6 0.0000 0.0000 0.0000 0.0001 0.0000 -390.5043
#
#
#
# Elastic Compliance Matrix: (Units=1/GPa)
#
#
# Indices 1 2 3 4 5 6 
#
# 1 0.003570 -0.000866 -0.000205 0.000000 0.000000 0.000000
# 2 -0.000866 0.003975 -0.001030 0.000000 0.000000 0.000000
# 3 -0.000205 -0.001030 0.008660 0.000000 0.000000 0.000000
# 4 0.000000 0.000000 0.000000 0.010670 0.000000 0.000000
# 5 0.000000 0.000000 0.000000 0.000000 0.035356 0.000000
# 6 0.000000 0.000000 0.000000 0.000000 0.000000 -0.002561
#
#
# Mechanical properties :
#
#
# Convention : Reuss Voigt Hill
#
# Bulk Modulus (GPa) = 83.29886 103.30395 93.30141
# Shear Modulus (GPa) = 73.66640 -15.38997 29.13821
#
# Velocity S-wave (km/s) = 5.18975 -2.37209 3.26395
# Velocity P-wave (km/s) = 8.14657 5.50155 6.95103
#
# Compressibility (1/GPa) = 0.01200497
#
# Stress axis : x y z
#
# Youngs Moduli (GPa) = 280.08400 251.58196 115.46730
#
# Poissons Ratio (x) = 0.21779 0.02364
# Poissons Ratio (y) = 0.24247 0.11893
# Poissons Ratio (z) = 0.05733 0.25912
#
# Static dielectric constant tensor:
#      x y z
#    x 2.097080 0.000000 0.000000 
#    y 0.000000 1.996480 0.000000 
#    z 0.000000 0.000000 2.533450 
# 
# From -- ./inp_files/9543.got.cif
#   From: 2010.05.17/outbox.cif.g08.bks.cpg/sg22_5_cif.got.tgz:9543.got - 2010.06.03 23:40:54.
