data_PCOD9328925
_publ_section_title
;
Structure prediction by ZEFSAII (Michael W. Deem and Ramdas Pophale) SiO2 
 PCOD9328925
Probable space group: F 2 2 2
;
_chemical_formula_sum "Si O2"
_cell_formula_units_Z 88
_cell_length_a 10.019734
_cell_length_b 10.188749
_cell_length_c 28.967247
_cell_angle_alpha 90.000000
_cell_angle_beta 90.000000
_cell_angle_gamma 90.000000
_cell_volume 2957.224382
_symmetry_space_group_name_H-M "F 2 2 2"
_symmetry_group_IT_number 22
_symmetry_cell_setting 'orthorhombic'
loop_
_space_group_symop_operation_xyz
x,y,z
-x,-y,z
x,-y,-z
-x,y,-z
x,1/2+y,1/2+z
-x,1/2-y,1/2+z
x,1/2-y,1/2-z
-x,1/2+y,1/2-z
1/2+x,y,1/2+z
1/2-x,-y,1/2+z
1/2+x,-y,1/2-z
1/2-x,y,1/2-z
1/2+x,1/2+y,z
1/2-x,1/2-y,z
1/2+x,1/2-y,-z
1/2-x,1/2+y,-z
loop_
_atom_site_type_symbol
_atom_site_label
_atom_site_fract_x
_atom_site_fract_y
_atom_site_fract_z
Si Si1 0.104479 0.614072 0.071731
Si Si2 0.150568 0.361585 0.821502
Si Si3 0.754330 0.500000 0.000000
Si Si4 0.952601 0.750000 0.250000
Si Si5 0.640355 0.918888 0.330141
Si Si6 0.500000 0.251045 0.500000
Si Si7 0.390094 0.889365 0.569219
O O1 0.131202 0.664704 0.123478
O O2 0.000000 0.500000 0.077806
O O3 0.124099 0.626071 0.011894
O O4 0.248154 0.504761 0.059542
O O5 0.250000 0.250000 0.805240
O O6 0.035424 0.347212 0.784144
O O7 0.230538 0.494692 0.822497
O O8 0.630778 0.373477 0.988738
O O9 0.872455 0.829722 0.213243
O O10 0.650992 0.850091 0.379725
O O11 0.500000 0.000000 0.330968
O O12 0.502837 0.249063 0.557564
O O13 0.500000 0.000000 0.573400
#
# Coordination Sequence:
#
# PCOD9328925 Si02
#       7
#    16  16   8   8  16   8  16
#     4  12  27  47  67 109 158 207 255 320 397 488
#     4  12  27  50  86 116 151 217 271 334 428 484
#     4  12  20  44  68 102 160 194 238 306 386 468
#     4  12  27  54  88 115 160 219 270 355 418 480
#     4  11  25  46  81 118 161 199 282 334 407 506
#     4  12  22  40  70 102 154 206 256 302 392 480
#     4  11  23  41  68 113 151 192 255 327 382 477
#
# _framework density 29.757633999999999
#
# number of rings (size 3 to 8) (size 9 to 14) (size 15 to 20)
#    0.000    0.364    7.273    1.364    5.091    0.727 
#    0.000    0.000    4.000    1.091    0.000    0.000 
#    0.000    0.000    0.000    0.000    0.000    0.000 
#
# Total GULP energy -122946.573739 kJ/mol
# GULP energy per Si atom -5588.480624 kJ/mol
# Density = 2.968990 g / cm^3
# Si number density = 29.757634 Si / 1000 Ang^3
#
#
#
# Elastic Constant Matrix: (Units=GPa)
#
#
# Indices 1 2 3 4 5 6 
#
# 1 207.5856 77.5623 105.2462 0.0000 0.0000 0.0000
# 2 77.5623 190.2501 113.8792 0.0000 0.0000 0.0000
# 3 105.2462 113.8792 366.0278 0.0000 0.0000 0.0000
# 4 0.0000 0.0000 0.0000 59.0207 0.0000 0.0000
# 5 0.0000 0.0000 0.0000 0.0000 43.5041 0.0000
# 6 0.0000 0.0000 0.0000 0.0000 0.0000 80.0343
#
#
#
# Elastic Compliance Matrix: (Units=1/GPa)
#
#
# Indices 1 2 3 4 5 6 
#
# 1 0.006085 -0.001761 -0.001202 0.000000 0.000000 0.000000
# 2 -0.001761 0.006969 -0.001662 0.000000 0.000000 0.000000
# 3 -0.001202 -0.001662 0.003595 0.000000 0.000000 0.000000
# 4 0.000000 0.000000 0.000000 0.016943 0.000000 0.000000
# 5 0.000000 0.000000 0.000000 0.000000 0.022986 0.000000
# 6 0.000000 0.000000 0.000000 0.000000 0.000000 0.012495
#
#
# Mechanical properties :
#
#
# Convention : Reuss Voigt Hill
#
# Bulk Modulus (GPa) = 135.15737 150.80435 142.98086
# Shear Modulus (GPa) = 61.89041 67.65687 64.77364
#
# Velocity S-wave (km/s) = 4.56545 4.77340 4.67058
# Velocity P-wave (km/s) = 8.56207 9.00933 8.78855
#
# Compressibility (1/GPa) = 0.00739878
#
# Stress axis : x y z
#
# Youngs Moduli (GPa) = 164.34945 143.49224 278.20106
#
# Poissons Ratio (x) = 0.25275 0.33427
# Poissons Ratio (y) = 0.28948 0.46230
# Poissons Ratio (z) = 0.19747 0.23845
#
# Static dielectric constant tensor:
#      x y z
#    x 3.386900 0.000000 0.000000 
#    y 0.000000 3.151050 0.000000 
#    z 0.000000 0.000000 2.085530 
# 
# From -- ./inp_files/55989.got.cif
#   From: 2010.05.17/outbox.cif.g08.bks.cpg/sg22_28_cif.got.tgz:55989.got - 2010.06.03 23:40:54.
