data_PCOD9328384
_publ_section_title
;
Structure prediction by ZEFSAII (Michael W. Deem and Ramdas Pophale) SiO2 
 PCOD9328384
Probable space group: F 2 2 2
;
_chemical_formula_sum "Si O2"
_cell_formula_units_Z 92
_cell_length_a 8.154298
_cell_length_b 22.560666
_cell_length_c 21.722483
_cell_angle_alpha 90.000000
_cell_angle_beta 90.000000
_cell_angle_gamma 90.000000
_cell_volume 3996.206858
_symmetry_space_group_name_H-M "F 2 2 2"
_symmetry_group_IT_number 22
_symmetry_cell_setting 'orthorhombic'
loop_
_space_group_symop_operation_xyz
x,y,z
-x,-y,z
x,-y,-z
-x,y,-z
x,1/2+y,1/2+z
-x,1/2-y,1/2+z
x,1/2-y,1/2-z
-x,1/2+y,1/2-z
1/2+x,y,1/2+z
1/2-x,-y,1/2+z
1/2+x,-y,1/2-z
1/2-x,y,1/2-z
1/2+x,1/2+y,z
1/2-x,1/2-y,z
1/2+x,1/2-y,-z
1/2-x,1/2+y,-z
loop_
_atom_site_type_symbol
_atom_site_label
_atom_site_fract_x
_atom_site_fract_y
_atom_site_fract_z
Si Si1 0.567580 0.189683 0.778443
Si Si2 0.000000 0.205992 0.500000
Si Si3 0.743721 0.900342 0.010543
Si Si4 0.065027 0.760896 0.125040
Si Si5 0.537524 0.603678 0.893306
Si Si6 0.500000 0.500000 0.500000
Si Si7 0.554264 0.437041 0.760496
O O1 0.488218 0.250000 0.750000
O O2 0.750000 0.187334 0.750000
O O3 0.558918 0.211720 0.848000
O O4 0.491637 0.124866 0.769722
O O5 0.148070 0.161316 0.484368
O O6 0.057439 0.248545 0.553418
O O7 0.804756 0.906074 0.938593
O O8 0.623305 0.953434 0.030960
O O9 0.892416 0.903130 0.057701
O O10 0.250000 0.750000 0.146694
O O11 0.027270 0.829566 0.133603
O O12 0.506547 0.565709 0.831727
O O13 0.500000 0.500000 0.733441
O O14 0.750000 0.435555 0.750000
#
# Coordination Sequence:
#
# PCOD9328384 Si02
#       7
#    16   8  16  16  16   4  16
#     4  10  23  46  72 104 141 192 254 299 369 445
#     4  11  24  41  68 112 151 184 235 300 372 424
#     4  10  24  44  68 111 148 196 243 300 364 446
#     4  12  25  42  71 112 155 193 238 307 379 452
#     4  11  24  44  74 106 152 192 243 304 377 442
#     4  10  24  46  68 104 144 206 262 284 370 448
#     4  11  27  50  72 107 141 194 248 313 375 439
#
# _framework density 23.021830000000001
#
# number of rings (size 3 to 8) (size 9 to 14) (size 15 to 20)
#    0.000    1.217    3.478    1.043    7.304    2.435 
#    1.565    0.000    0.000    0.000    0.000    0.000 
#    0.000    0.000    0.000    0.000    0.000    0.000 
#
# Total GULP energy -128292.132309 kJ/mol
# GULP energy per Si atom -5577.918796 kJ/mol
# Density = 2.296943 g / cm^3
# Si number density = 23.021830 Si / 1000 Ang^3
#
#
#
# Elastic Constant Matrix: (Units=GPa)
#
#
# Indices 1 2 3 4 5 6 
#
# 1 75.2550 20.0732 13.9823 0.0000 0.0000 0.0000
# 2 20.0732 191.3433 21.1920 0.0000 0.0000 0.0000
# 3 13.9823 21.1920 59.2469 0.0000 0.0000 0.0000
# 4 0.0000 0.0000 0.0000 10.2270 0.0000 0.0000
# 5 0.0000 0.0000 0.0000 0.0000 24.7899 0.0000
# 6 0.0000 0.0000 0.0000 0.0000 0.0000 22.4297
#
#
#
# Elastic Compliance Matrix: (Units=1/GPa)
#
#
# Indices 1 2 3 4 5 6 
#
# 1 0.014140 -0.001160 -0.002922 0.000000 0.000000 0.000000
# 2 -0.001160 0.005537 -0.001707 0.000000 0.000000 0.000000
# 3 -0.002922 -0.001707 0.018179 0.000000 0.000000 0.000000
# 4 0.000000 0.000000 0.000000 0.097781 0.000000 0.000000
# 5 0.000000 0.000000 0.000000 0.000000 0.040339 0.000000
# 6 0.000000 0.000000 0.000000 0.000000 0.000000 0.044584
#
#
# Mechanical properties :
#
#
# Convention : Reuss Voigt Hill
#
# Bulk Modulus (GPa) = 38.05420 48.48225 43.26822
# Shear Modulus (GPa) = 20.75576 29.52914 25.14245
#
# Velocity S-wave (km/s) = 3.00587 3.58531 3.30830
# Velocity P-wave (km/s) = 5.34907 6.18419 5.78173
#
# Compressibility (1/GPa) = 0.02627831
#
# Stress axis : x y z
#
# Youngs Moduli (GPa) = 70.71897 180.60619 55.00947
#
# Poissons Ratio (x) = 0.20946 0.16076
# Poissons Ratio (y) = 0.08202 0.09389
# Poissons Ratio (z) = 0.20666 0.30826
#
# Static dielectric constant tensor:
#      x y z
#    x 1.918740 0.000000 0.000000 
#    y 0.000000 1.923180 0.000000 
#    z 0.000000 0.000000 1.909390 
# 
# From -- ./inp_files/41882.got.cif
#   From: 2010.05.17/outbox.cif.g08.bks.cpg/sg22_21_cif.got.tgz:41882.got - 2010.06.03 23:40:54.
