data_PCOD9328235
_publ_section_title
;
Structure prediction by ZEFSAII (Michael W. Deem and Ramdas Pophale) SiO2 
 PCOD9328235
Probable space group: F 2 2 2
;
_chemical_formula_sum "Si O2"
_cell_formula_units_Z 112
_cell_length_a 15.480910
_cell_length_b 29.875500
_cell_length_c 12.329124
_cell_angle_alpha 90.000000
_cell_angle_beta 90.000000
_cell_angle_gamma 90.000000
_cell_volume 5702.218946
_symmetry_space_group_name_H-M "F 2 2 2"
_symmetry_group_IT_number 22
_symmetry_cell_setting 'orthorhombic'
loop_
_space_group_symop_operation_xyz
x,y,z
-x,-y,z
x,-y,-z
-x,y,-z
x,1/2+y,1/2+z
-x,1/2-y,1/2+z
x,1/2-y,1/2-z
-x,1/2+y,1/2-z
1/2+x,y,1/2+z
1/2-x,-y,1/2+z
1/2+x,-y,1/2-z
1/2-x,y,1/2-z
1/2+x,1/2+y,z
1/2-x,1/2-y,z
1/2+x,1/2-y,-z
1/2-x,1/2+y,-z
loop_
_atom_site_type_symbol
_atom_site_label
_atom_site_fract_x
_atom_site_fract_y
_atom_site_fract_z
Si Si1 0.632062 0.701150 0.200628
Si Si2 0.997915 0.947384 0.632631
Si Si3 0.104046 0.341401 0.987904
Si Si4 0.543303 0.827640 0.615128
Si Si5 0.158409 0.256887 0.519247
Si Si6 0.850973 0.385482 0.228194
Si Si7 0.667759 0.108064 0.814154
O O1 0.646681 0.750000 0.250000
O O2 0.532024 0.688469 0.193472
O O3 0.670278 0.708724 0.080838
O O4 0.663262 0.656241 0.256072
O O5 0.080504 0.922170 0.687511
O O6 0.000000 0.943289 0.500000
O O7 0.910396 0.925432 0.680205
O O8 0.000000 0.000000 0.656664
O O9 0.135278 0.347973 0.865086
O O10 0.120747 0.290128 0.021001
O O11 0.162010 0.375417 0.060068
O O12 0.000000 0.349112 0.000000
O O13 0.500000 0.841165 0.500000
O O14 0.594272 0.782150 0.595799
O O15 0.603106 0.865699 0.664994
O O16 0.250000 0.250000 0.572488
O O17 0.750000 0.394909 0.250000
O O18 0.750000 0.086446 0.750000
#
# Coordination Sequence:
#
# PCOD9328235 Si02
#       7
#    16  16  16  16  16  16  16
#     4  11  21  35  58  88 128 176 221 268 320 372
#     4  11  24  49  77 101 128 163 215 278 343 415
#     4  12  21  40  64  93 130 181 236 272 324 384
#     4  10  23  40  56  86 126 184 218 270 324 386
#     4  11  23  35  53  91 129 172 233 276 316 386
#     4  12  24  42  68  96 130 173 215 276 341 402
#     4  12  23  39  69 102 131 170 219 279 335 392
#
# _framework density 19.641476999999998
#
# number of rings (size 3 to 8) (size 9 to 14) (size 15 to 20)
#    0.000    0.714    5.714    3.000    2.000    1.714 
#    0.000    1.429    0.000    0.429    0.000    0.000 
#    0.000    0.000    0.000    0.000    0.000    0.000 
#
# Total GULP energy -156049.086560 kJ/mol
# GULP energy per Si atom -5573.181663 kJ/mol
# Density = 1.959677 g / cm^3
# Si number density = 19.641477 Si / 1000 Ang^3
#
#
#
# Elastic Constant Matrix: (Units=GPa)
#
#
# Indices 1 2 3 4 5 6 
#
# 1 173.1062 48.8260 54.6764 0.0000 0.0000 0.0000
# 2 48.8260 112.1726 19.0637 0.0000 0.0000 0.0000
# 3 54.6764 19.0637 37.3446 0.0000 0.0000 0.0000
# 4 0.0000 0.0000 0.0000 -14.4828 0.0000 0.0000
# 5 0.0000 0.0000 0.0000 0.0000 15.3300 0.0000
# 6 0.0000 0.0000 0.0000 0.0000 0.0000 5.7385
#
#
#
# Elastic Compliance Matrix: (Units=1/GPa)
#
#
# Indices 1 2 3 4 5 6 
#
# 1 0.011263 -0.002300 -0.015317 0.000000 0.000000 0.000000
# 2 -0.002300 0.010231 -0.001856 0.000000 0.000000 0.000000
# 3 -0.015317 -0.001856 0.050151 0.000000 0.000000 0.000000
# 4 0.000000 0.000000 0.000000 -0.069047 0.000000 0.000000
# 5 0.000000 0.000000 0.000000 0.000000 0.065232 0.000000
# 6 0.000000 0.000000 0.000000 0.000000 0.000000 0.174263
#
#
# Mechanical properties :
#
#
# Convention : Reuss Voigt Hill
#
# Bulk Modulus (GPa) = 30.58080 63.08397 46.83239
# Shear Modulus (GPa) = 17.12699 14.65428 15.89063
#
# Velocity S-wave (km/s) = 2.95614 2.73443 2.84744
# Velocity P-wave (km/s) = 5.22063 6.49283 5.89117
#
# Compressibility (1/GPa) = 0.03270026
#
# Stress axis : x y z
#
# Youngs Moduli (GPa) = 88.78407 97.74019 19.93996
#
# Poissons Ratio (x) = 0.22476 0.30542
# Poissons Ratio (y) = 0.20416 0.03701
# Poissons Ratio (z) = 1.35989 0.18141
#
# Static dielectric constant tensor:
#      x y z
#    x 1.804800 0.000000 0.000000 
#    y 0.000000 1.678870 0.000000 
#    z 0.000000 0.000000 1.755010 
# 
# From -- ./inp_files/20276.got.cif
#   From: 2010.05.17/outbox.cif.g08.bks.cpg/sg22_11_cif.got.tgz:20276.got - 2010.06.03 23:40:54.
