data_PCOD9328554
_publ_section_title
;
Structure prediction by ZEFSAII (Michael W. Deem and Ramdas Pophale) SiO2 
 PCOD9328554
Probable space group: F 2 2 2
;
_chemical_formula_sum "Si O2"
_cell_formula_units_Z 60
_cell_length_a 22.851393
_cell_length_b 23.652244
_cell_length_c 5.193149
_cell_angle_alpha 90.000000
_cell_angle_beta 90.000000
_cell_angle_gamma 90.000000
_cell_volume 2806.828085
_symmetry_space_group_name_H-M "F 2 2 2"
_symmetry_group_IT_number 22
_symmetry_cell_setting 'orthorhombic'
loop_
_space_group_symop_operation_xyz
x,y,z
-x,-y,z
x,-y,-z
-x,y,-z
x,1/2+y,1/2+z
-x,1/2-y,1/2+z
x,1/2-y,1/2-z
-x,1/2+y,1/2-z
1/2+x,y,1/2+z
1/2-x,-y,1/2+z
1/2+x,-y,1/2-z
1/2-x,y,1/2-z
1/2+x,1/2+y,z
1/2-x,1/2-y,z
1/2+x,1/2-y,-z
1/2-x,1/2+y,-z
loop_
_atom_site_type_symbol
_atom_site_label
_atom_site_fract_x
_atom_site_fract_y
_atom_site_fract_z
Si Si1 0.087884 0.500000 0.000000
Si Si2 0.667346 0.146663 0.330482
Si Si3 0.188630 0.926820 0.676039
Si Si4 0.250000 0.250000 0.750000
Si Si5 0.537617 0.886844 0.759818
O O1 0.133312 0.532303 0.816556
O O2 0.054199 0.451385 0.844552
O O3 0.677153 0.117524 0.601684
O O4 0.703044 0.204654 0.357988
O O5 0.597700 0.147687 0.277814
O O6 0.690423 0.106621 0.095680
O O7 0.250000 0.955584 0.750000
O O8 0.500000 0.887595 0.500000
O O9 0.500000 0.864192 0.000000
#
# Coordination Sequence:
#
# PCOD9328554 Si02
#       5
#     8  16  16   4  16
#     4  10  25  36  68  96 136 190 219 254 330 398
#     4  11  25  42  70  99 128 173 225 284 335 392
#     4  11  22  42  59 102 142 171 217 274 332 400
#     4  12  24  50  76  98 128 170 232 284 368 392
#     4  11  24  44  63  94 137 177 222 267 316 398
#
# _framework density 21.376442000000001
#
# number of rings (size 3 to 8) (size 9 to 14) (size 15 to 20)
#    0.000    1.067    2.667    3.600    0.000   19.200 
#    0.000    1.333    0.000    0.000    0.000    0.000 
#    0.000    0.000    0.000    0.000    0.000    0.000 
#
# Total GULP energy -83739.543435 kJ/mol
# GULP energy per Si atom -5582.636229 kJ/mol
# Density = 2.132779 g / cm^3
# Si number density = 21.376442 Si / 1000 Ang^3
#
#
#
# Elastic Constant Matrix: (Units=GPa)
#
#
# Indices 1 2 3 4 5 6 
#
# 1 166.6113 38.1788 48.6163 0.1959 -0.0989 -0.0340
# 2 38.1788 84.2487 28.1673 0.1856 -0.1372 -0.0316
# 3 48.6163 28.1673 112.1879 0.1719 -0.0656 -0.0443
# 4 0.1959 0.1856 0.1719 17.1234 -0.1644 -0.0505
# 5 -0.0989 -0.1372 -0.0656 -0.1644 37.5094 0.0304
# 6 -0.0340 -0.0316 -0.0443 -0.0505 0.0304 32.7498
#
#
#
# Elastic Compliance Matrix: (Units=1/GPa)
#
#
# Indices 1 2 3 4 5 6 
#
# 1 0.007310 -0.002460 -0.002550 -0.000031 0.000006 0.000002
# 2 -0.002460 0.013785 -0.002395 -0.000097 0.000039 0.000007
# 3 -0.002550 -0.002395 0.010620 -0.000051 0.000003 0.000009
# 4 -0.000031 -0.000097 -0.000051 0.058404 0.000255 0.000090
# 5 0.000006 0.000039 0.000003 0.000255 0.026661 -0.000024
# 6 0.000002 0.000007 0.000009 0.000090 -0.000024 0.030535
#
#
# Mechanical properties :
#
#
# Convention : Reuss Voigt Hill
#
# Bulk Modulus (GPa) = 59.15252 65.88585 62.51919
# Shear Modulus (GPa) = 29.80438 34.01553 31.90996
#
# Velocity S-wave (km/s) = 3.73803 3.99339 3.86782
# Velocity P-wave (km/s) = 6.80900 7.22160 7.01833
#
# Compressibility (1/GPa) = 0.01690545
#
# Stress axis : x y z
#
# Youngs Moduli (GPa) = 136.80252 72.54059 94.16159
#
# Poissons Ratio (x) = 0.17845 0.24011
# Poissons Ratio (y) = 0.33653 0.22551
# Poissons Ratio (z) = 0.34885 0.17373
#
# Static dielectric constant tensor:
#      x y z
#    x 1.849100 0.000150 0.000150 
#    y 0.000150 2.021170 -0.000310 
#    z 0.000150 -0.000310 1.762390 
# 
# From -- ./inp_files/3563.got.cif
#   From: 2010.05.17/outbox.cif.g08.bks.cpg/sg22_2_cif.got.tgz:3563.got - 2010.06.03 23:40:54.
