data_PCOD9328344
_publ_section_title
;
Structure prediction by ZEFSAII (Michael W. Deem and Ramdas Pophale) SiO2 
 PCOD9328344
Probable space group: F 2 2 2
;
_chemical_formula_sum "Si O2"
_cell_formula_units_Z 60
_cell_length_a 5.026951
_cell_length_b 22.959840
_cell_length_c 24.618633
_cell_angle_alpha 90.000000
_cell_angle_beta 90.000000
_cell_angle_gamma 90.000000
_cell_volume 2841.433153
_symmetry_space_group_name_H-M "F 2 2 2"
_symmetry_group_IT_number 22
_symmetry_cell_setting 'orthorhombic'
loop_
_space_group_symop_operation_xyz
x,y,z
-x,-y,z
x,-y,-z
-x,y,-z
x,1/2+y,1/2+z
-x,1/2-y,1/2+z
x,1/2-y,1/2-z
-x,1/2+y,1/2-z
1/2+x,y,1/2+z
1/2-x,-y,1/2+z
1/2+x,-y,1/2-z
1/2-x,y,1/2-z
1/2+x,1/2+y,z
1/2-x,1/2-y,z
1/2+x,1/2-y,-z
1/2-x,1/2+y,-z
loop_
_atom_site_type_symbol
_atom_site_label
_atom_site_fract_x
_atom_site_fract_y
_atom_site_fract_z
Si Si1 0.500000 0.000000 0.000000
Si Si2 0.851076 0.863714 0.391595
Si Si3 0.750000 0.750000 0.041555
Si Si4 0.497673 0.565246 0.710428
Si Si5 0.634882 0.406609 0.054815
O O1 0.298971 0.036490 0.962742
O O2 0.730612 0.804129 0.415661
O O3 0.950326 0.882518 0.331971
O O4 0.613164 0.909875 0.404590
O O5 0.125464 0.867749 0.424608
O O6 0.500000 0.754186 0.000000
O O7 0.500000 0.500000 0.683689
O O8 0.250000 0.563872 0.750000
O O9 0.750000 0.572862 0.750000
O O10 0.500000 0.384066 0.000000
#
# Coordination Sequence:
#
# PCOD9328344 Si02
#       5
#     4  16   8  16  16
#     4  12  26  36  58  92 150 172 230 276 344 412
#     4  12  25  42  69  94 133 187 231 275 353 408
#     4  12  26  44  67 100 139 182 232 284 332 404
#     4  10  23  44  68  99 135 169 221 290 350 410
#     4  12  24  39  59  96 135 177 220 278 336 420
#
# _framework density 21.116104
#
# number of rings (size 3 to 8) (size 9 to 14) (size 15 to 20)
#    0.000    0.533    2.667    6.000    1.867    0.000 
#    0.000    0.667    0.000    1.600    0.000    0.000 
#    0.000    0.000    0.000    0.000    0.000    0.000 
#
# Total GULP energy -83609.173404 kJ/mol
# GULP energy per Si atom -5573.944894 kJ/mol
# Density = 2.106804 g / cm^3
# Si number density = 21.116104 Si / 1000 Ang^3
#
#
#
# Elastic Constant Matrix: (Units=GPa)
#
#
# Indices 1 2 3 4 5 6 
#
# 1 173.2323 19.5006 37.2869 0.0000 0.0000 0.0000
# 2 19.5006 87.5231 72.3035 0.0000 0.0000 0.0000
# 3 37.2869 72.3035 80.7265 0.0000 0.0000 0.0000
# 4 0.0000 0.0000 0.0000 17.1836 0.0000 0.0000
# 5 0.0000 0.0000 0.0000 0.0000 36.0180 0.0000
# 6 0.0000 0.0000 0.0000 0.0000 0.0000 19.8824
#
#
#
# Elastic Compliance Matrix: (Units=1/GPa)
#
#
# Indices 1 2 3 4 5 6 
#
# 1 0.006778 0.004138 -0.006837 0.000000 0.000000 0.000000
# 2 0.004138 0.046455 -0.043519 0.000000 0.000000 0.000000
# 3 -0.006837 -0.043519 0.054524 0.000000 0.000000 0.000000
# 4 0.000000 0.000000 0.000000 0.058195 0.000000 0.000000
# 5 0.000000 0.000000 0.000000 0.000000 0.027764 0.000000
# 6 0.000000 0.000000 0.000000 0.000000 0.000000 0.050296
#
#
# Mechanical properties :
#
#
# Convention : Reuss Voigt Hill
#
# Bulk Modulus (GPa) = 65.27135 66.62932 65.95034
# Shear Modulus (GPa) = 14.63889 28.77619 21.70754
#
# Velocity S-wave (km/s) = 2.63583 3.69556 3.20974
# Velocity P-wave (km/s) = 6.34360 7.05917 6.71093
#
# Compressibility (1/GPa) = 0.01532066
#
# Stress axis : x y z
#
# Youngs Moduli (GPa) = 147.52736 21.52609 18.34059
#
# Poissons Ratio (x) = -0.08907 0.12539
# Poissons Ratio (y) = -0.61043 0.79817
# Poissons Ratio (z) = 1.00863 0.93680
#
# Static dielectric constant tensor:
#      x y z
#    x 1.761430 0.000000 0.000000 
#    y 0.000000 1.877180 0.000000 
#    z 0.000000 0.000000 1.772580 
# 
# From -- ./inp_files/40877.got.cif
#   From: 2010.05.17/outbox.cif.g08.bks.cpg/sg22_21_cif.got.tgz:40877.got - 2010.06.03 23:40:54.
