data_PCOD9328531
_publ_section_title
;
Structure prediction by ZEFSAII (Michael W. Deem and Ramdas Pophale) SiO2 
 PCOD9328531
Probable space group: F 2 2 2
;
_chemical_formula_sum "Si O2"
_cell_formula_units_Z 72
_cell_length_a 25.200727
_cell_length_b 8.670927
_cell_length_c 15.201690
_cell_angle_alpha 90.000000
_cell_angle_beta 90.000000
_cell_angle_gamma 90.000000
_cell_volume 3321.776983
_symmetry_space_group_name_H-M "F 2 2 2"
_symmetry_group_IT_number 22
_symmetry_cell_setting 'orthorhombic'
loop_
_space_group_symop_operation_xyz
x,y,z
-x,-y,z
x,-y,-z
-x,y,-z
x,1/2+y,1/2+z
-x,1/2-y,1/2+z
x,1/2-y,1/2-z
-x,1/2+y,1/2-z
1/2+x,y,1/2+z
1/2-x,-y,1/2+z
1/2+x,-y,1/2-z
1/2-x,y,1/2-z
1/2+x,1/2+y,z
1/2-x,1/2-y,z
1/2+x,1/2-y,-z
1/2-x,1/2+y,-z
loop_
_atom_site_type_symbol
_atom_site_label
_atom_site_fract_x
_atom_site_fract_y
_atom_site_fract_z
Si Si1 0.059109 0.430809 0.089039
Si Si2 0.289100 0.000000 0.500000
Si Si3 0.119510 0.077338 0.746981
Si Si4 0.864229 0.678216 0.396597
Si Si5 0.285861 0.951091 0.833807
O O1 0.081280 0.486039 0.181824
O O2 0.078073 0.252832 0.086129
O O3 0.000000 0.500000 0.087023
O O4 0.085527 0.500000 0.000000
O O5 0.330837 0.862180 0.516118
O O6 0.251012 0.994060 0.584289
O O7 0.098173 0.250000 0.750000
O O8 0.129249 0.971743 0.833597
O O9 0.175420 0.087531 0.695563
O O10 0.825567 0.808113 0.353640
O O11 0.250000 0.917147 0.750000
#
# Coordination Sequence:
#
# PCOD9328531 Si02
#       5
#    16   8  16  16  16
#     4  10  24  47  76 100 133 177 237 305 377 426
#     4  12  26  36  72 101 141 192 240 284 348 418
#     4  11  26  42  68 102 142 186 242 293 350 438
#     4  11  26  45  70 100 145 187 242 298 353 431
#     4  11  24  44  65  96 146 199 239 280 356 413
#
# _framework density 21.675145000000001
#
# number of rings (size 3 to 8) (size 9 to 14) (size 15 to 20)
#    0.000    1.111    2.222    3.333   12.444    4.000 
#    0.000    0.000    0.000    0.000    0.000    0.000 
#    0.000    0.000    0.000    0.000    0.000    0.000 
#
# Total GULP energy -100285.817468 kJ/mol
# GULP energy per Si atom -5571.434304 kJ/mol
# Density = 2.162581 g / cm^3
# Si number density = 21.675145 Si / 1000 Ang^3
#
#
#
# Elastic Constant Matrix: (Units=GPa)
#
#
# Indices 1 2 3 4 5 6 
#
# 1 100.2903 19.3386 31.6264 0.0000 0.0000 0.0000
# 2 19.3386 81.1039 35.7158 0.0000 0.0000 0.0000
# 3 31.6264 35.7158 114.6172 0.0000 0.0000 0.0000
# 4 0.0000 0.0000 0.0000 35.4833 0.0000 0.0000
# 5 0.0000 0.0000 0.0000 0.0000 24.5991 0.0000
# 6 0.0000 0.0000 0.0000 0.0000 0.0000 18.9391
#
#
#
# Elastic Compliance Matrix: (Units=1/GPa)
#
#
# Indices 1 2 3 4 5 6 
#
# 1 0.011077 -0.001501 -0.002589 0.000000 0.000000 0.000000
# 2 -0.001501 0.014494 -0.004102 0.000000 0.000000 0.000000
# 3 -0.002589 -0.004102 0.010717 0.000000 0.000000 0.000000
# 4 0.000000 0.000000 0.000000 0.028182 0.000000 0.000000
# 5 0.000000 0.000000 0.000000 0.000000 0.040652 0.000000
# 6 0.000000 0.000000 0.000000 0.000000 0.000000 0.052801
#
#
# Mechanical properties :
#
#
# Convention : Reuss Voigt Hill
#
# Bulk Modulus (GPa) = 50.24093 52.15256 51.19674
# Shear Modulus (GPa) = 27.63306 29.75967 28.69636
#
# Velocity S-wave (km/s) = 3.57441 3.70940 3.64253
# Velocity P-wave (km/s) = 6.34544 6.51609 6.43133
#
# Compressibility (1/GPa) = 0.01990409
#
# Stress axis : x y z
#
# Youngs Moduli (GPa) = 90.27832 68.99230 93.30697
#
# Poissons Ratio (x) = 0.10357 0.24154
# Poissons Ratio (y) = 0.13553 0.38278
# Poissons Ratio (z) = 0.23370 0.28303
#
# Static dielectric constant tensor:
#      x y z
#    x 1.899940 0.000000 0.000000 
#    y 0.000000 1.878690 0.000000 
#    z 0.000000 0.000000 1.814170 
# 
# From -- ./inp_files/27066.got.cif
#   From: 2010.05.17/outbox.cif.g08.bks.cpg/sg22_14_cif.got.tgz:27066.got - 2010.06.03 23:40:54.
