data_PCOD9328083
_publ_section_title
;
Structure prediction by ZEFSAII (Michael W. Deem and Ramdas Pophale) SiO2 
 PCOD9328083
Probable space group: F 2 2 2
;
_chemical_formula_sum "Si O2"
_cell_formula_units_Z 64
_cell_length_a 27.592607
_cell_length_b 5.535431
_cell_length_c 19.723039
_cell_angle_alpha 90.000000
_cell_angle_beta 90.000000
_cell_angle_gamma 90.000000
_cell_volume 3012.437259
_symmetry_space_group_name_H-M "F 2 2 2"
_symmetry_group_IT_number 22
_symmetry_cell_setting 'orthorhombic'
loop_
_space_group_symop_operation_xyz
x,y,z
-x,-y,z
x,-y,-z
-x,y,-z
x,1/2+y,1/2+z
-x,1/2-y,1/2+z
x,1/2-y,1/2-z
-x,1/2+y,1/2-z
1/2+x,y,1/2+z
1/2-x,-y,1/2+z
1/2+x,-y,1/2-z
1/2-x,y,1/2-z
1/2+x,1/2+y,z
1/2-x,1/2-y,z
1/2+x,1/2-y,-z
1/2-x,1/2+y,-z
loop_
_atom_site_type_symbol
_atom_site_label
_atom_site_fract_x
_atom_site_fract_y
_atom_site_fract_z
Si Si1 0.720236 0.500000 0.500000
Si Si2 0.874837 0.250000 0.750000
Si Si3 0.937028 0.250000 0.250000
Si Si4 0.544233 0.339844 0.396248
Si Si5 0.406494 0.000000 0.500000
Si Si6 0.643460 0.142833 0.897309
O O1 0.750000 0.750000 0.497432
O O2 0.686178 0.497062 0.433201
O O3 0.905872 0.500304 0.745232
O O4 0.846222 0.232968 0.678748
O O5 0.966786 0.256833 0.180321
O O6 0.500000 0.500000 0.420132
O O7 0.594162 0.489353 0.391922
O O8 0.558135 0.136883 0.448891
O O9 0.371569 0.153865 0.451419
#
# Coordination Sequence:
#
# PCOD9328083 Si02
#       6
#     8   8   8  16   8  16
#     4  12  27  46  78 108 141 187 240 305 380 438
#     4  10  22  43  75 102 139 192 237 292 359 423
#     4  10  22  43  64 104 144 200 240 288 342 425
#     4  11  25  41  70 103 147 195 244 292 353 423
#     4  12  21  45  69  98 148 187 242 301 347 420
#     4  11  24  44  71 105 143 186 239 298 361 431
#
# _framework density 21.245253999999999
#
# number of rings (size 3 to 8) (size 9 to 14) (size 15 to 20)
#    0.000    1.000    5.000    0.750    0.000    8.000 
#    0.000    0.625    0.000    4.500    0.000    0.000 
#    0.000    0.000    0.000    0.000    0.000    0.000 
#
# Total GULP energy -89416.174785 kJ/mol
# GULP energy per Si atom -5588.510924 kJ/mol
# Density = 2.119690 g / cm^3
# Si number density = 21.245254 Si / 1000 Ang^3
#
#
#
# Elastic Constant Matrix: (Units=GPa)
#
#
# Indices 1 2 3 4 5 6 
#
# 1 81.4477 25.6511 22.5014 -0.0003 0.0013 0.0003
# 2 25.6511 92.0842 36.8875 -0.0008 0.0028 -0.0007
# 3 22.5014 36.8875 182.1026 -0.0001 0.0006 -0.0008
# 4 -0.0003 -0.0008 -0.0001 -11.5292 0.0034 -0.0002
# 5 0.0013 0.0028 0.0006 0.0034 -41.5642 -0.0025
# 6 0.0003 -0.0007 -0.0008 -0.0002 -0.0025 29.5669
#
#
#
# Elastic Compliance Matrix: (Units=1/GPa)
#
#
# Indices 1 2 3 4 5 6 
#
# 1 0.013622 -0.003396 -0.000995 0.000000 0.000000 0.000000
# 2 -0.003396 0.012665 -0.002146 -0.000001 0.000001 0.000000
# 3 -0.000995 -0.002146 0.006049 0.000000 0.000000 0.000000
# 4 0.000000 -0.000001 0.000000 -0.086736 -0.000007 -0.000001
# 5 0.000000 0.000001 0.000000 -0.000007 -0.024059 -0.000002
# 6 0.000000 0.000000 0.000000 -0.000001 -0.000002 0.033822
#
#
# Mechanical properties :
#
#
# Convention : Reuss Voigt Hill
#
# Bulk Modulus (GPa) = 51.91500 58.41274 55.16387
# Shear Modulus (GPa) = -198.86964 13.33432 -92.76766
#
# Velocity S-wave (km/s) = -9.68555 2.50799 -6.61513
# Velocity P-wave (km/s) = 10.02949 5.99507 5.68550
#
# Compressibility (1/GPa) = 0.01926226
#
# Stress axis : x y z
#
# Youngs Moduli (GPa) = 73.40890 78.95631 165.31426
#
# Poissons Ratio (x) = 0.26813 0.16454
# Poissons Ratio (y) = 0.24929 0.35475
# Poissons Ratio (z) = 0.07307 0.16943
#
# Static dielectric constant tensor:
#      x y z
#    x 1.986070 0.000000 0.000000 
#    y 0.000000 1.827450 0.000000 
#    z 0.000000 0.000000 1.808100 
# 
# From -- ./inp_files/2917.got.cif
#   From: 2010.05.17/outbox.cif.g08.bks.cpg/sg22_2_cif.got.tgz:2917.got - 2010.06.03 23:40:54.
