data_PCOD9328322
_publ_section_title
;
Structure prediction by ZEFSAII (Michael W. Deem and Ramdas Pophale) SiO2 
 PCOD9328322
Probable space group: F 2 2 2
;
_chemical_formula_sum "Si O2"
_cell_formula_units_Z 116
_cell_length_a 10.773662
_cell_length_b 19.128518
_cell_length_c 26.809240
_cell_angle_alpha 90.000000
_cell_angle_beta 90.000000
_cell_angle_gamma 90.000000
_cell_volume 5524.960443
_symmetry_space_group_name_H-M "F 2 2 2"
_symmetry_group_IT_number 22
_symmetry_cell_setting 'orthorhombic'
loop_
_space_group_symop_operation_xyz
x,y,z
-x,-y,z
x,-y,-z
-x,y,-z
x,1/2+y,1/2+z
-x,1/2-y,1/2+z
x,1/2-y,1/2-z
-x,1/2+y,1/2-z
1/2+x,y,1/2+z
1/2-x,-y,1/2+z
1/2+x,-y,1/2-z
1/2-x,y,1/2-z
1/2+x,1/2+y,z
1/2-x,1/2-y,z
1/2+x,1/2-y,-z
1/2-x,1/2+y,-z
loop_
_atom_site_type_symbol
_atom_site_label
_atom_site_fract_x
_atom_site_fract_y
_atom_site_fract_z
Si Si1 0.692510 0.085201 0.125123
Si Si2 0.660660 0.182389 0.922348
Si Si3 0.250000 0.750000 0.250000
Si Si4 0.149451 0.921347 0.491430
Si Si5 0.161985 0.433948 0.165921
Si Si6 0.609594 0.775033 0.902282
Si Si7 0.083852 0.932822 0.772440
Si Si8 0.093910 0.841870 0.173739
O O1 0.627795 0.159916 0.136374
O O2 0.824728 0.094757 0.151252
O O3 0.640197 0.009417 0.139555
O O4 0.686471 0.093433 0.065315
O O5 0.750000 0.250000 0.916020
O O6 0.700237 0.135573 0.969967
O O7 0.664132 0.128115 0.875002
O O8 0.515513 0.204330 0.932256
O O9 0.170719 0.799617 0.214471
O O10 0.000000 0.923220 0.500000
O O11 0.195430 0.000000 0.500000
O O12 0.073216 0.420073 0.212912
O O13 0.286844 0.443047 0.198934
O O14 0.750000 0.750000 0.920731
O O15 0.566501 0.708114 0.871883
O O16 0.027862 0.867113 0.800011
O O17 0.000000 0.000000 0.781592
#
# Coordination Sequence:
#
# PCOD9328322 Si02
#       8
#    16  16   4  16  16  16  16  16
#     4  11  21  43  70 102 138 177 239 302 356 418
#     4  12  26  46  73 106 147 191 238 301 373 444
#     4  12  24  36  64 102 124 176 242 296 346 422
#     4  11  23  42  72 107 134 178 241 301 362 428
#     4  11  26  43  66 106 143 184 242 303 362 432
#     4  10  23  43  67 102 137 193 234 292 363 427
#     4  11  25  40  66  99 141 193 238 294 366 445
#     4  11  24  41  64  98 143 185 236 294 359 433
#
# _framework density 20.995626000000001
#
# number of rings (size 3 to 8) (size 9 to 14) (size 15 to 20)
#    0.000    0.966    6.207    0.828    5.793    1.655 
#    0.000    0.690    0.000    0.000    0.000    0.966 
#    0.000    0.000    0.000    0.000    0.000    0.000 
#
# Total GULP energy -161542.307058 kJ/mol
# GULP energy per Si atom -5570.424381 kJ/mol
# Density = 2.094784 g / cm^3
# Si number density = 20.995626 Si / 1000 Ang^3
#
#
#
# Elastic Constant Matrix: (Units=GPa)
#
#
# Indices 1 2 3 4 5 6 
#
# 1 60.0984 31.6041 26.5121 0.0000 0.0000 0.0000
# 2 31.6041 133.2130 40.4851 0.0000 0.0000 0.0000
# 3 26.5121 40.4851 113.8157 0.0000 0.0000 0.0000
# 4 0.0000 0.0000 0.0000 -28.2664 0.0000 0.0000
# 5 0.0000 0.0000 0.0000 0.0000 125.7217 0.0000
# 6 0.0000 0.0000 0.0000 0.0000 0.0000 6.3348
#
#
#
# Elastic Compliance Matrix: (Units=1/GPa)
#
#
# Indices 1 2 3 4 5 6 
#
# 1 0.020087 -0.003749 -0.003346 0.000000 0.000000 0.000000
# 2 -0.003749 0.009116 -0.002370 0.000000 0.000000 0.000000
# 3 -0.003346 -0.002370 0.010408 0.000000 0.000000 0.000000
# 4 0.000000 0.000000 0.000000 -0.035378 0.000000 0.000000
# 5 0.000000 0.000000 0.000000 0.000000 0.007954 0.000000
# 6 0.000000 0.000000 0.000000 0.000000 0.000000 0.157857
#
#
# Mechanical properties :
#
#
# Convention : Reuss Voigt Hill
#
# Bulk Modulus (GPa) = 48.34728 56.03666 52.19197
# Shear Modulus (GPa) = 25.52757 34.65974 30.09366
#
# Velocity S-wave (km/s) = 3.49069 4.06742 3.79004
# Velocity P-wave (km/s) = 6.27087 6.98614 6.63815
#
# Compressibility (1/GPa) = 0.02068369
#
# Stress axis : x y z
#
# Youngs Moduli (GPa) = 49.78454 109.69414 96.07727
#
# Poissons Ratio (x) = 0.41121 0.32143
# Poissons Ratio (y) = 0.18663 0.22766
# Poissons Ratio (z) = 0.16655 0.25992
#
# Static dielectric constant tensor:
#      x y z
#    x 2.112180 0.000000 0.000000 
#    y 0.000000 0.442180 0.000000 
#    z 0.000000 0.000000 1.773820 
# 
# From -- ./inp_files/52730.got.cif
#   From: 2010.05.17/outbox.cif.g08.bks.cpg/sg22_27_cif.got.tgz:52730.got - 2010.06.03 23:40:54.
