data_PCOD9328500
_publ_section_title
;
Structure prediction by ZEFSAII (Michael W. Deem and Ramdas Pophale) SiO2 
 PCOD9328500
Probable space group: F 2 2 2
;
_chemical_formula_sum "Si O2"
_cell_formula_units_Z 112
_cell_length_a 15.307752
_cell_length_b 12.174689
_cell_length_c 28.250056
_cell_angle_alpha 90.000000
_cell_angle_beta 90.000000
_cell_angle_gamma 90.000000
_cell_volume 5264.881573
_symmetry_space_group_name_H-M "F 2 2 2"
_symmetry_group_IT_number 22
_symmetry_cell_setting 'orthorhombic'
loop_
_space_group_symop_operation_xyz
x,y,z
-x,-y,z
x,-y,-z
-x,y,-z
x,1/2+y,1/2+z
-x,1/2-y,1/2+z
x,1/2-y,1/2-z
-x,1/2+y,1/2-z
1/2+x,y,1/2+z
1/2-x,-y,1/2+z
1/2+x,-y,1/2-z
1/2-x,y,1/2-z
1/2+x,1/2+y,z
1/2-x,1/2-y,z
1/2+x,1/2-y,-z
1/2-x,1/2+y,-z
loop_
_atom_site_type_symbol
_atom_site_label
_atom_site_fract_x
_atom_site_fract_y
_atom_site_fract_z
Si Si1 0.694845 0.547454 0.446400
Si Si2 0.640456 0.545413 0.110099
Si Si3 0.458218 0.828831 0.384538
Si Si4 0.104083 0.512404 0.145989
Si Si5 0.482276 0.366185 0.447804
Si Si6 0.760163 0.380679 0.804963
Si Si7 0.650291 0.767731 0.805418
O O1 0.691323 0.500000 0.500000
O O2 0.790753 0.580618 0.430107
O O3 0.658570 0.470132 0.403178
O O4 0.621827 0.641415 0.441080
O O5 0.553668 0.617867 0.113740
O O6 0.608822 0.422015 0.097148
O O7 0.691183 0.558554 0.160288
O O8 0.466704 0.712744 0.411932
O O9 0.420130 0.805661 0.332698
O O10 0.146210 0.407670 0.171775
O O11 0.125126 0.609814 0.181106
O O12 0.000000 0.500000 0.140629
O O13 0.500000 0.500000 0.449738
O O14 0.500000 0.324251 0.500000
O O15 0.750000 0.415305 0.750000
O O16 0.750000 0.250000 0.807132
O O17 0.647797 0.750000 0.750000
O O18 0.750000 0.750000 0.822302
#
# Coordination Sequence:
#
# PCOD9328500 Si02
#       7
#    16  16  16  16  16  16  16
#     4  11  22  42  73 103 141 184 244 300 365 432
#     4  10  26  45  70  99 142 196 237 298 373 445
#     4  11  25  47  68 100 148 189 241 302 370 446
#     4  11  25  41  70 104 141 179 240 305 358 439
#     4  11  23  42  72 106 140 184 244 306 356 430
#     4  10  24  45  72 100 142 189 242 298 369 444
#     4  11  25  42  69 100 136 185 237 304 376 440
#
# _framework density 21.273033999999999
#
# number of rings (size 3 to 8) (size 9 to 14) (size 15 to 20)
#    0.000    1.286    1.429    3.857   10.000    2.286 
#    0.000    1.429    0.000    0.000    0.000    0.000 
#    0.000    0.000    0.000    0.000    0.000    0.000 
#
# Total GULP energy -156147.842246 kJ/mol
# GULP energy per Si atom -5576.708652 kJ/mol
# Density = 2.122462 g / cm^3
# Si number density = 21.273034 Si / 1000 Ang^3
#
#
#
# Elastic Constant Matrix: (Units=GPa)
#
#
# Indices 1 2 3 4 5 6 
#
# 1 150.5115 41.2577 58.2932 0.0000 0.0000 0.0000
# 2 41.2577 86.9468 35.5678 0.0000 0.0000 0.0000
# 3 58.2932 35.5678 144.6063 0.0000 0.0000 0.0000
# 4 0.0000 0.0000 0.0000 18.3759 0.0000 0.0000
# 5 0.0000 0.0000 0.0000 0.0000 5779.7216 0.0000
# 6 0.0000 0.0000 0.0000 0.0000 0.0000 31.4730
#
#
#
# Elastic Compliance Matrix: (Units=1/GPa)
#
#
# Indices 1 2 3 4 5 6 
#
# 1 0.008493 -0.002924 -0.002705 0.000000 0.000000 0.000000
# 2 -0.002924 0.013794 -0.002214 0.000000 0.000000 0.000000
# 3 -0.002705 -0.002214 0.008550 0.000000 0.000000 0.000000
# 4 0.000000 0.000000 0.000000 0.054419 0.000000 0.000000
# 5 0.000000 0.000000 0.000000 0.000000 0.000173 0.000000
# 6 0.000000 0.000000 0.000000 0.000000 0.000000 0.031773
#
#
# Mechanical properties :
#
#
# Convention : Reuss Voigt Hill
#
# Bulk Modulus (GPa) = 65.99572 72.47801 69.23686
# Shear Modulus (GPa) = 36.24792 1182.37716 609.31254
#
# Velocity S-wave (km/s) = 4.13236 23.60121 16.94245
# Velocity P-wave (km/s) = 7.33887 27.87173 20.38005
#
# Compressibility (1/GPa) = 0.01515250
#
# Stress axis : x y z
#
# Youngs Moduli (GPa) = 117.74548 72.49293 116.95625
#
# Poissons Ratio (x) = 0.21195 0.31631
# Poissons Ratio (y) = 0.34425 0.25898
# Poissons Ratio (z) = 0.31844 0.16052
#
# Static dielectric constant tensor:
#      x y z
#    x 1.813310 0.000000 0.000000 
#    y 0.000000 1.752290 0.000000 
#    z 0.000000 0.000000 1.796100 
# 
# From -- ./inp_files/56455.got.cif
#   From: 2010.05.17/outbox.cif.g08.bks.cpg/sg22_29_cif.got.tgz:56455.got - 2010.06.03 23:40:54.
