data_PCOD9328521
_publ_section_title
;
Structure prediction by ZEFSAII (Michael W. Deem and Ramdas Pophale) SiO2 
 PCOD9328521
Probable space group: F 2 2 2
;
_chemical_formula_sum "Si O2"
_cell_formula_units_Z 116
_cell_length_a 24.776673
_cell_length_b 25.538384
_cell_length_c 9.016196
_cell_angle_alpha 90.000000
_cell_angle_beta 90.000000
_cell_angle_gamma 90.000000
_cell_volume 5705.053823
_symmetry_space_group_name_H-M "F 2 2 2"
_symmetry_group_IT_number 22
_symmetry_cell_setting 'orthorhombic'
loop_
_space_group_symop_operation_xyz
x,y,z
-x,-y,z
x,-y,-z
-x,y,-z
x,1/2+y,1/2+z
-x,1/2-y,1/2+z
x,1/2-y,1/2-z
-x,1/2+y,1/2-z
1/2+x,y,1/2+z
1/2-x,-y,1/2+z
1/2+x,-y,1/2-z
1/2-x,y,1/2-z
1/2+x,1/2+y,z
1/2-x,1/2-y,z
1/2+x,1/2-y,-z
1/2-x,1/2+y,-z
loop_
_atom_site_type_symbol
_atom_site_label
_atom_site_fract_x
_atom_site_fract_y
_atom_site_fract_z
Si Si1 0.090323 0.941760 0.673671
Si Si2 0.100916 0.463456 0.634434
Si Si3 0.694533 0.112282 0.341488
Si Si4 0.500000 0.000000 0.000000
Si Si5 0.752195 0.687985 0.073350
Si Si6 0.500926 0.114651 0.669355
Si Si7 0.461555 0.708069 0.373575
Si Si8 0.362081 0.357326 0.541773
O O1 0.123687 0.908338 0.555622
O O2 0.037507 0.962720 0.592782
O O3 0.061459 0.906956 0.800133
O O4 0.116466 0.994502 0.737925
O O5 0.081649 0.500000 0.500000
O O6 0.155888 0.432853 0.592033
O O7 0.049402 0.427208 0.679677
O O8 0.750000 0.097715 0.250000
O O9 0.711617 0.154214 0.468125
O O10 0.654698 0.132494 0.211806
O O11 0.750000 0.679133 0.250000
O O12 0.750000 0.750000 0.043365
O O13 0.810803 0.669006 0.028919
O O14 0.500000 0.133412 0.500000
O O15 0.490101 0.160190 0.787058
O O16 0.500000 0.731098 0.500000
O O17 0.445540 0.750000 0.250000
O O18 0.411561 0.682051 0.456319
#
# Coordination Sequence:
#
# PCOD9328521 Si02
#       8
#    16  16  16   4  16  16  16  16
#     4  12  23  38  63  98 140 186 234 279 339 418
#     4  12  24  40  66 101 138 188 236 280 353 409
#     4  10  24  47  68 100 137 176 234 292 350 417
#     4  12  20  32  62  88 136 188 226 276 312 408
#     4  10  25  48  75 106 133 174 235 299 357 418
#     4  12  23  42  65  97 145 184 235 287 331 430
#     4  12  26  47  68 104 141 184 228 284 359 423
#     4  11  24  44  72  98 137 184 231 287 351 420
#
# _framework density 20.332850000000001
#
# number of rings (size 3 to 8) (size 9 to 14) (size 15 to 20)
#    0.000    0.690    5.517    2.069    3.862    1.931 
#    7.448    0.000    0.000    0.000    0.000    0.000 
#    0.000    0.000    0.000    0.000    0.000    0.000 
#
# Total GULP energy -161825.637367 kJ/mol
# GULP energy per Si atom -5580.194392 kJ/mol
# Density = 2.028657 g / cm^3
# Si number density = 20.332850 Si / 1000 Ang^3
#
#
#
# Elastic Constant Matrix: (Units=GPa)
#
#
# Indices 1 2 3 4 5 6 
#
# 1 75.8274 35.9648 24.3557 0.0024 -0.0024 -0.0017
# 2 35.9648 101.0064 44.9354 0.0028 -0.0023 -0.0013
# 3 24.3557 44.9354 102.8021 0.0081 -0.0079 -0.0036
# 4 0.0024 0.0028 0.0081 48.5433 -0.0045 -0.0020
# 5 -0.0024 -0.0023 -0.0079 -0.0045 19.7257 0.0015
# 6 -0.0017 -0.0013 -0.0036 -0.0020 0.0015 40.8397
#
#
#
# Elastic Compliance Matrix: (Units=1/GPa)
#
#
# Indices 1 2 3 4 5 6 
#
# 1 0.016083 -0.005005 -0.001623 0.000000 0.000001 0.000000
# 2 -0.005005 0.013848 -0.004867 0.000000 -0.000001 0.000000
# 3 -0.001623 -0.004867 0.012239 -0.000002 0.000004 0.000001
# 4 0.000000 0.000000 -0.000002 0.020600 0.000005 0.000001
# 5 0.000001 -0.000001 0.000004 0.000005 0.050695 -0.000002
# 6 0.000000 0.000000 0.000001 0.000001 -0.000002 0.024486
#
#
# Mechanical properties :
#
#
# Convention : Reuss Voigt Hill
#
# Bulk Modulus (GPa) = 52.13584 54.46084 53.29834
# Shear Modulus (GPa) = 29.88040 33.44708 31.66374
#
# Velocity S-wave (km/s) = 3.83765 4.06023 3.95051
# Velocity P-wave (km/s) = 6.73302 6.98738 6.86138
#
# Compressibility (1/GPa) = 0.01918067
#
# Stress axis : x y z
#
# Youngs Moduli (GPa) = 62.17845 72.21462 81.70355
#
# Poissons Ratio (x) = 0.36140 0.13259
# Poissons Ratio (y) = 0.31118 0.39767
# Poissons Ratio (z) = 0.10090 0.35148
#
# Static dielectric constant tensor:
#      x y z
#    x 1.802540 0.000010 0.000000 
#    y 0.000010 1.835190 0.000000 
#    z 0.000000 0.000000 1.757060 
# 
# From -- ./inp_files/14131.got.cif
#   From: 2010.05.17/outbox.cif.g08.bks.cpg/sg22_8_cif.got.tgz:14131.got - 2010.06.03 23:40:54.
