data_PCOD9328563
_publ_section_title
;
Structure prediction by ZEFSAII (Michael W. Deem and Ramdas Pophale) SiO2 
 PCOD9328563
Probable space group: F 2 2 2
;
_chemical_formula_sum "Si O2"
_cell_formula_units_Z 80
_cell_length_a 22.471012
_cell_length_b 10.129255
_cell_length_c 16.480494
_cell_angle_alpha 90.000000
_cell_angle_beta 90.000000
_cell_angle_gamma 90.000000
_cell_volume 3751.201225
_symmetry_space_group_name_H-M "F 2 2 2"
_symmetry_group_IT_number 22
_symmetry_cell_setting 'orthorhombic'
loop_
_space_group_symop_operation_xyz
x,y,z
-x,-y,z
x,-y,-z
-x,y,-z
x,1/2+y,1/2+z
-x,1/2-y,1/2+z
x,1/2-y,1/2-z
-x,1/2+y,1/2-z
1/2+x,y,1/2+z
1/2-x,-y,1/2+z
1/2+x,-y,1/2-z
1/2-x,y,1/2-z
1/2+x,1/2+y,z
1/2-x,1/2-y,z
1/2+x,1/2-y,-z
1/2-x,1/2+y,-z
loop_
_atom_site_type_symbol
_atom_site_label
_atom_site_fract_x
_atom_site_fract_y
_atom_site_fract_z
Si Si1 0.697089 0.484251 0.702489
Si Si2 0.096379 0.119978 0.790903
Si Si3 0.868969 0.853662 0.966466
Si Si4 0.500000 0.500000 0.319832
Si Si5 0.606066 0.891784 0.071766
Si Si6 0.750000 0.750000 0.618312
O O1 0.750000 0.413691 0.750000
O O2 0.645228 0.510859 0.768497
O O3 0.663706 0.413071 0.628691
O O4 0.726094 0.621503 0.667730
O O5 0.123070 0.250000 0.750000
O O6 0.037570 0.092015 0.740072
O O7 0.090166 0.140460 0.885915
O O8 0.894173 0.751537 0.031705
O O9 0.805600 0.798792 0.935134
O O10 0.862416 0.000000 0.000000
O O11 0.547428 0.576211 0.375614
O O12 0.608802 0.000000 0.000000
#
# Coordination Sequence:
#
# PCOD9328563 Si02
#       6
#    16  16  16   8  16   8
#     4  11  20  38  72 102 133 181 232 281 338 430
#     4  11  21  43  67  95 127 184 235 272 343 427
#     4  12  27  41  68 107 145 179 228 295 362 417
#     4  10  25  42  73  96 134 182 244 296 341 416
#     4  11  23  45  70 107 139 182 240 295 354 418
#     4  12  21  38  70 100 141 176 224 272 347 432
#
# _framework density 21.326502000000001
#
# number of rings (size 3 to 8) (size 9 to 14) (size 15 to 20)
#    0.000    0.800    6.000    1.800    2.800    1.600 
#    0.000    5.500    4.400    0.000    0.000    0.000 
#    0.000    0.000    0.000    0.000    0.000    0.000 
#
# Total GULP energy -111800.528171 kJ/mol
# GULP energy per Si atom -5590.026409 kJ/mol
# Density = 2.127796 g / cm^3
# Si number density = 21.326502 Si / 1000 Ang^3
#
#
#
# Elastic Constant Matrix: (Units=GPa)
#
#
# Indices 1 2 3 4 5 6 
#
# 1 117.0946 34.1111 85.0177 0.0000 0.0000 0.0000
# 2 34.1111 106.0083 69.3148 0.0000 0.0000 0.0000
# 3 85.0177 69.3148 158.7231 0.0000 0.0000 0.0000
# 4 0.0000 0.0000 0.0000 36.1300 0.0000 0.0000
# 5 0.0000 0.0000 0.0000 0.0000 100.6448 0.0000
# 6 0.0000 0.0000 0.0000 0.0000 0.0000 7.6164
#
#
#
# Elastic Compliance Matrix: (Units=1/GPa)
#
#
# Indices 1 2 3 4 5 6 
#
# 1 0.013999 0.000558 -0.007742 0.000000 0.000000 0.000000
# 2 0.000558 0.013226 -0.006074 0.000000 0.000000 0.000000
# 3 -0.007742 -0.006074 0.013100 0.000000 0.000000 0.000000
# 4 0.000000 0.000000 0.000000 0.027678 0.000000 0.000000
# 5 0.000000 0.000000 0.000000 0.000000 0.009936 0.000000
# 6 0.000000 0.000000 0.000000 0.000000 0.000000 0.131296
#
#
# Mechanical properties :
#
#
# Convention : Reuss Voigt Hill
#
# Bulk Modulus (GPa) = 72.42689 84.30148 78.36418
# Shear Modulus (GPa) = 20.80278 41.77039 31.28658
#
# Velocity S-wave (km/s) = 3.12660 4.43042 3.83434
# Velocity P-wave (km/s) = 6.86067 8.11088 7.51183
#
# Compressibility (1/GPa) = 0.01380703
#
# Stress axis : x y z
#
# Youngs Moduli (GPa) = 71.43596 75.61123 76.33828
#
# Poissons Ratio (x) = -0.04215 0.59098
# Poissons Ratio (y) = -0.03983 0.46370
# Poissons Ratio (z) = 0.55303 0.45928
#
# Static dielectric constant tensor:
#      x y z
#    x 0.579180 0.000000 0.000000 
#    y 0.000000 1.640980 0.000000 
#    z 0.000000 0.000000 1.772110 
# 
# From -- ./inp_files/32288.got.cif
#   From: 2010.05.17/outbox.cif.g08.bks.cpg/sg22_17_cif.got.tgz:32288.got - 2010.06.03 23:40:54.
