data_PCOD9328337
_publ_section_title
;
Structure prediction by ZEFSAII (Michael W. Deem and Ramdas Pophale) SiO2 
 PCOD9328337
Probable space group: F 2 2 2
;
_chemical_formula_sum "Si O2"
_cell_formula_units_Z 64
_cell_length_a 16.319695
_cell_length_b 9.986735
_cell_length_c 15.959644
_cell_angle_alpha 90.000000
_cell_angle_beta 90.000000
_cell_angle_gamma 90.000000
_cell_volume 2601.110268
_symmetry_space_group_name_H-M "F 2 2 2"
_symmetry_group_IT_number 22
_symmetry_cell_setting 'orthorhombic'
loop_
_space_group_symop_operation_xyz
x,y,z
-x,-y,z
x,-y,-z
-x,y,-z
x,1/2+y,1/2+z
-x,1/2-y,1/2+z
x,1/2-y,1/2-z
-x,1/2+y,1/2-z
1/2+x,y,1/2+z
1/2-x,-y,1/2+z
1/2+x,-y,1/2-z
1/2-x,y,1/2-z
1/2+x,1/2+y,z
1/2-x,1/2-y,z
1/2+x,1/2-y,-z
1/2-x,1/2+y,-z
loop_
_atom_site_type_symbol
_atom_site_label
_atom_site_fract_x
_atom_site_fract_y
_atom_site_fract_z
Si Si1 0.570267 0.396052 0.232892
Si Si2 0.310027 0.358497 0.909709
Si Si3 0.803164 0.441550 0.832225
Si Si4 0.094646 0.658075 0.972462
O O1 0.500000 0.500000 0.241361
O O2 0.538392 0.250000 0.250000
O O3 0.610485 0.395751 0.142609
O O4 0.640695 0.438896 0.296881
O O5 0.250000 0.250000 0.866286
O O6 0.257499 0.495957 0.902968
O O7 0.345997 0.267425 0.984349
O O8 0.750000 0.398582 0.750000
O O9 0.868616 0.344366 0.877575
O O10 0.102885 0.500000 0.000000
O O11 0.000000 0.689348 0.000000
#
# Coordination Sequence:
#
# PCOD9328337 Si02
#       4
#    16  16  16  16
#     4  11  23  40  75 109 149 193 259 314 384 457
#     4  11  21  43  71 102 140 200 257 299 386 470
#     4  10  23  43  76 103 140 200 260 317 379 468
#     4  11  23  39  71 106 146 195 254 315 387 462
#
# _framework density 24.604876999999998
#
# number of rings (size 3 to 8) (size 9 to 14) (size 15 to 20)
#    0.000    1.250    5.000    0.000    7.000    0.000 
#    0.000    7.500   11.000    1.500    0.000    0.000 
#    0.000    0.000    0.000    0.000    0.000    0.000 
#
# Total GULP energy -89199.413705 kJ/mol
# GULP energy per Si atom -5574.963357 kJ/mol
# Density = 2.454888 g / cm^3
# Si number density = 24.604877 Si / 1000 Ang^3
#
#
#
# Elastic Constant Matrix: (Units=GPa)
#
#
# Indices 1 2 3 4 5 6 
#
# 1 164.1293 71.4599 64.5175 0.0000 0.0000 0.0000
# 2 71.4599 102.2593 41.2379 0.0000 0.0000 0.0000
# 3 64.5175 41.2379 124.2093 0.0000 0.0000 0.0000
# 4 0.0000 0.0000 0.0000 42.8369 0.0000 0.0000
# 5 0.0000 0.0000 0.0000 0.0000 44.1833 0.0000
# 6 0.0000 0.0000 0.0000 0.0000 0.0000 27.7571
#
#
#
# Elastic Compliance Matrix: (Units=1/GPa)
#
#
# Indices 1 2 3 4 5 6 
#
# 1 0.009771 -0.005520 -0.003242 0.000000 0.000000 0.000000
# 2 -0.005520 0.014410 -0.001917 0.000000 0.000000 0.000000
# 3 -0.003242 -0.001917 0.010371 0.000000 0.000000 0.000000
# 4 0.000000 0.000000 0.000000 0.023344 0.000000 0.000000
# 5 0.000000 0.000000 0.000000 0.000000 0.022633 0.000000
# 6 0.000000 0.000000 0.000000 0.000000 0.000000 0.036027
#
#
# Mechanical properties :
#
#
# Convention : Reuss Voigt Hill
#
# Bulk Modulus (GPa) = 75.79740 82.78094 79.28917
# Shear Modulus (GPa) = 35.13387 37.18095 36.15741
#
# Velocity S-wave (km/s) = 3.78289 3.89153 3.83759
# Velocity P-wave (km/s) = 7.06775 7.34229 7.20632
#
# Compressibility (1/GPa) = 0.01319306
#
# Stress axis : x y z
#
# Youngs Moduli (GPa) = 102.34541 69.39781 96.41839
#
# Poissons Ratio (x) = 0.38310 0.31263
# Poissons Ratio (y) = 0.56499 0.18480
# Poissons Ratio (z) = 0.33185 0.13301
#
# Static dielectric constant tensor:
#      x y z
#    x 1.566110 0.000000 0.000000 
#    y 0.000000 1.905680 0.000000 
#    z 0.000000 0.000000 2.008240 
# 
# From -- ./inp_files/27816.got.cif
#   From: 2010.05.17/outbox.cif.g08.bks.cpg/sg22_14_cif.got.tgz:27816.got - 2010.06.03 23:40:54.
