data_PCOD9328827
_publ_section_title
;
Structure prediction by ZEFSAII (Michael W. Deem and Ramdas Pophale) SiO2 
 PCOD9328827
Probable space group: F 2 2 2
;
_chemical_formula_sum "Si O2"
_cell_formula_units_Z 80
_cell_length_a 13.395625
_cell_length_b 24.891007
_cell_length_c 12.259382
_cell_angle_alpha 90.000000
_cell_angle_beta 90.000000
_cell_angle_gamma 90.000000
_cell_volume 4087.653042
_symmetry_space_group_name_H-M "F 2 2 2"
_symmetry_group_IT_number 22
_symmetry_cell_setting 'orthorhombic'
loop_
_space_group_symop_operation_xyz
x,y,z
-x,-y,z
x,-y,-z
-x,y,-z
x,1/2+y,1/2+z
-x,1/2-y,1/2+z
x,1/2-y,1/2-z
-x,1/2+y,1/2-z
1/2+x,y,1/2+z
1/2-x,-y,1/2+z
1/2+x,-y,1/2-z
1/2-x,y,1/2-z
1/2+x,1/2+y,z
1/2-x,1/2-y,z
1/2+x,1/2-y,-z
1/2-x,1/2+y,-z
loop_
_atom_site_type_symbol
_atom_site_label
_atom_site_fract_x
_atom_site_fract_y
_atom_site_fract_z
Si Si1 0.281506 0.374265 0.372782
Si Si2 0.615139 0.336960 0.026593
Si Si3 0.140884 0.859129 0.275813
Si Si4 0.976654 0.939729 0.371787
Si Si5 0.618648 0.714385 0.513709
O O1 0.250000 0.363067 0.250000
O O2 0.188453 0.376583 0.458374
O O3 0.360567 0.423069 0.364433
O O4 0.343058 0.324649 0.420311
O O5 0.616547 0.336964 0.157144
O O6 0.500000 0.347187 0.000000
O O7 0.648278 0.276194 0.997981
O O8 0.250000 0.884719 0.250000
O O9 0.147924 0.813513 0.370410
O O10 0.053552 0.899248 0.313286
O O11 0.000000 0.936502 0.500000
O O12 0.000000 0.000000 0.333663
O O13 0.500000 0.714400 0.500000
#
# Coordination Sequence:
#
# PCOD9328827 Si02
#       5
#    16  16  16  16  16
#     4  12  23  42  64  92 137 175 223 283 331 402
#     4  11  25  37  61  98 137 174 215 269 342 394
#     4  12  21  40  64  90 130 166 220 282 325 399
#     4  11  23  44  71  95 123 175 234 280 339 406
#     4  11  22  40  61  94 129 181 223 259 324 417
#
# _framework density 19.571131999999999
#
# number of rings (size 3 to 8) (size 9 to 14) (size 15 to 20)
#    0.000    0.600    6.000    2.400    0.000    3.200 
#    0.000    0.000    0.000    4.200    0.000    0.000 
#    0.000    0.000    0.000    0.000    0.000    0.000 
#
# Total GULP energy -111567.599368 kJ/mol
# GULP energy per Si atom -5578.379968 kJ/mol
# Density = 1.952659 g / cm^3
# Si number density = 19.571132 Si / 1000 Ang^3
#
#
#
# Elastic Constant Matrix: (Units=GPa)
#
#
# Indices 1 2 3 4 5 6 
#
# 1 122.4569 44.3761 22.0768 0.0000 0.0000 0.0000
# 2 44.3761 75.6542 12.6853 0.0000 0.0000 0.0000
# 3 22.0768 12.6853 103.4204 0.0000 0.0000 0.0000
# 4 0.0000 0.0000 0.0000 7.4639 0.0000 0.0000
# 5 0.0000 0.0000 0.0000 0.0000 43.0816 0.0000
# 6 0.0000 0.0000 0.0000 0.0000 0.0000 28.4778
#
#
#
# Elastic Compliance Matrix: (Units=1/GPa)
#
#
# Indices 1 2 3 4 5 6 
#
# 1 0.010603 -0.005962 -0.001532 0.000000 0.000000 0.000000
# 2 -0.005962 0.016849 -0.000794 0.000000 0.000000 0.000000
# 3 -0.001532 -0.000794 0.010094 0.000000 0.000000 0.000000
# 4 0.000000 0.000000 0.000000 0.133978 0.000000 0.000000
# 5 0.000000 0.000000 0.000000 0.000000 0.023212 0.000000
# 6 0.000000 0.000000 0.000000 0.000000 0.000000 0.035115
#
#
# Mechanical properties :
#
#
# Convention : Reuss Voigt Hill
#
# Bulk Modulus (GPa) = 47.69046 51.08977 49.39011
# Shear Modulus (GPa) = 19.73042 30.63089 25.18065
#
# Velocity S-wave (km/s) = 3.17856 3.96043 3.59084
# Velocity P-wave (km/s) = 6.15562 6.86110 6.51791
#
# Compressibility (1/GPa) = 0.02096856
#
# Stress axis : x y z
#
# Youngs Moduli (GPa) = 94.31274 59.35246 99.07190
#
# Poissons Ratio (x) = 0.35389 0.15178
# Poissons Ratio (y) = 0.56234 0.07864
# Poissons Ratio (z) = 0.14449 0.04711
#
# Static dielectric constant tensor:
#      x y z
#    x 1.667160 0.000000 0.000000 
#    y 0.000000 1.690970 0.000000 
#    z 0.000000 0.000000 1.839450 
# 
# From -- ./inp_files/19855.got.cif
#   From: 2010.05.17/outbox.cif.g08.bks.cpg/sg22_10_cif.got.tgz:19855.got - 2010.06.03 23:40:54.
