data_PCOD9328296
_publ_section_title
;
Structure prediction by ZEFSAII (Michael W. Deem and Ramdas Pophale) SiO2 
 PCOD9328296
Probable space group: F 2 2 2
;
_chemical_formula_sum "Si O2"
_cell_formula_units_Z 52
_cell_length_a 18.977757
_cell_length_b 25.812636
_cell_length_c 5.005596
_cell_angle_alpha 90.000000
_cell_angle_beta 90.000000
_cell_angle_gamma 90.000000
_cell_volume 2452.070957
_symmetry_space_group_name_H-M "F 2 2 2"
_symmetry_group_IT_number 22
_symmetry_cell_setting 'orthorhombic'
loop_
_space_group_symop_operation_xyz
x,y,z
-x,-y,z
x,-y,-z
-x,y,-z
x,1/2+y,1/2+z
-x,1/2-y,1/2+z
x,1/2-y,1/2-z
-x,1/2+y,1/2-z
1/2+x,y,1/2+z
1/2-x,-y,1/2+z
1/2+x,-y,1/2-z
1/2-x,y,1/2-z
1/2+x,1/2+y,z
1/2-x,1/2-y,z
1/2+x,1/2-y,-z
1/2-x,1/2+y,-z
loop_
_atom_site_type_symbol
_atom_site_label
_atom_site_fract_x
_atom_site_fract_y
_atom_site_fract_z
Si Si1 0.115514 0.699026 0.387834
Si Si2 0.250000 0.750000 0.250000
Si Si3 0.578082 0.635323 0.391914
Si Si4 0.668659 0.537442 0.249819
O O1 0.080898 0.750000 0.250000
O O2 0.196358 0.716718 0.429393
O O3 0.080494 0.678038 0.655734
O O4 0.117361 0.656459 0.154322
O O5 0.500000 0.624733 0.500000
O O6 0.616036 0.585225 0.272345
O O7 0.659536 0.500000 0.500000
O O8 0.750000 0.556266 0.250000
O O9 0.657099 0.500000 0.000000
#
# Coordination Sequence:
#
# PCOD9328296 Si02
#       4
#    16   4  16  16
#     4  10  24  41  67  97 138 175 232 274 337 400
#     4   8  24  42  68 102 132 190 230 290 332 382
#     4  12  25  42  67 100 138 183 221 277 352 415
#     4  10  23  42  67  98 131 173 229 289 338 397
#
# _framework density 21.206565999999999
#
# number of rings (size 3 to 8) (size 9 to 14) (size 15 to 20)
#    0.923    0.615    0.000    3.692    4.308    4.308 
#    0.000    1.538    0.000    0.000    0.000    0.000 
#    0.000    0.000    0.000    0.000    0.000    0.000 
#
# Total GULP energy -72610.590961 kJ/mol
# GULP energy per Si atom -5585.430074 kJ/mol
# Density = 2.115830 g / cm^3
# Si number density = 21.206566 Si / 1000 Ang^3
#
#
#
# Elastic Constant Matrix: (Units=GPa)
#
#
# Indices 1 2 3 4 5 6 
#
# 1 137.6140 89.8741 60.8070 2.1771 0.1412 -22.9631
# 2 89.8741 102.5139 49.6399 -1.2780 -0.0468 1.1159
# 3 60.8070 49.6399 159.0729 0.3481 0.0431 -12.6405
# 4 2.1771 -1.2780 0.3481-1744.7475 -1.3575 345.4993
# 5 0.1412 -0.0468 0.0431 -1.3575 27.3403 16.0882
# 6 -22.9631 1.1159 -12.6405 345.4993 16.0882-1878.4898
#
#
#
# Elastic Compliance Matrix: (Units=1/GPa)
#
#
# Indices 1 2 3 4 5 6 
#
# 1 0.017583 -0.014313 -0.002271 -0.000010 0.000011 -0.000210
# 2 -0.014313 0.023141 -0.001734 0.000005 -0.000002 0.000201
# 3 -0.002271 -0.001734 0.007694 -0.000005 0.000012 -0.000026
# 4 -0.000010 0.000005 -0.000005 -0.000595 0.000035 -0.000109
# 5 0.000011 -0.000002 0.000012 0.000035 0.036391 0.000318
# 6 -0.000210 0.000201 -0.000026 -0.000109 0.000318 -0.000547
#
#
# Mechanical properties :
#
#
# Convention : Reuss Voigt Hill
#
# Bulk Modulus (GPa) = 84.88581 88.87142 86.87861
# Shear Modulus (GPa) = 40.24756 -705.92075 -332.83659
#
# Velocity S-wave (km/s) = 4.36119 -18.26475 -12.54155
# Velocity P-wave (km/s) = 8.09166 20.06995 12.98707
#
# Compressibility (1/GPa) = 0.01178053
#
# Stress axis : x y z
#
# Youngs Moduli (GPa) = 56.87189 43.21388 129.97581
#
# Poissons Ratio (x) = 0.61853 0.29524
# Poissons Ratio (y) = 0.81402 0.22536
# Poissons Ratio (z) = 0.12918 0.07493
#
# Static dielectric constant tensor:
#      x y z
#    x 2.773580 0.000470 -0.178820 
#    y 0.000470 1.762070 -0.006080 
#    z -0.178820 -0.006080 2.592610 
# 
# From -- ./inp_files/3303.got.cif
#   From: 2010.05.17/outbox.cif.g08.bks.cpg/sg22_2_cif.got.tgz:3303.got - 2010.06.03 23:40:54.
