data_PCOD9328175
_publ_section_title
;
Structure prediction by ZEFSAII (Michael W. Deem and Ramdas Pophale) SiO2 
 PCOD9328175
Probable space group: F 2 2 2
;
_chemical_formula_sum "Si O2"
_cell_formula_units_Z 60
_cell_length_a 28.239555
_cell_length_b 16.225172
_cell_length_c 5.224176
_cell_angle_alpha 90.000000
_cell_angle_beta 90.000000
_cell_angle_gamma 90.000000
_cell_volume 2393.673754
_symmetry_space_group_name_H-M "F 2 2 2"
_symmetry_group_IT_number 22
_symmetry_cell_setting 'orthorhombic'
loop_
_space_group_symop_operation_xyz
x,y,z
-x,-y,z
x,-y,-z
-x,y,-z
x,1/2+y,1/2+z
-x,1/2-y,1/2+z
x,1/2-y,1/2-z
-x,1/2+y,1/2-z
1/2+x,y,1/2+z
1/2-x,-y,1/2+z
1/2+x,-y,1/2-z
1/2-x,y,1/2-z
1/2+x,1/2+y,z
1/2-x,1/2-y,z
1/2+x,1/2-y,-z
1/2-x,1/2+y,-z
loop_
_atom_site_type_symbol
_atom_site_label
_atom_site_fract_x
_atom_site_fract_y
_atom_site_fract_z
Si Si1 0.101321 0.250000 0.750000
Si Si2 0.250000 0.941258 0.750000
Si Si3 0.393873 0.500000 0.500000
Si Si4 0.328484 0.342009 0.424856
Si Si5 0.750000 0.250000 0.250000
Si Si6 0.032688 0.904330 0.243715
O O1 0.135015 0.231910 0.504690
O O2 0.066997 0.173495 0.788180
O O3 0.296411 0.883197 0.698883
O O4 0.242684 0.000000 0.500000
O O5 0.361135 0.420469 0.484272
O O6 0.431183 0.519654 0.276961
O O7 0.284216 0.309545 0.590036
O O8 0.000000 0.895958 0.500000
O O9 0.000000 0.908339 0.000000
#
# Coordination Sequence:
#
# PCOD9328175 Si02
#       6
#     8   8   8  16   4  16
#     4   9  22  47  76 112 150 198 254 313 372 465
#     4  12  25  47  76 110 154 204 250 310 377 441
#     4  10  23  44  72 112 146 198 250 322 361 462
#     4  10  22  45  74 114 153 201 255 308 377 440
#     4  10  22  46  80 108 168 204 252 306 378 456
#     4  11  24  47  74 107 151 196 249 312 391 447
#
# _framework density 25.066071999999998
#
# number of rings (size 3 to 8) (size 9 to 14) (size 15 to 20)
#    0.000    1.600    1.333    2.000    0.000    2.667 
#    9.600   10.667    0.000    1.600    0.000    0.000 
#    0.000    0.000    0.000    0.000    0.000    0.000 
#
# Total GULP energy -83587.681195 kJ/mol
# GULP energy per Si atom -5572.512080 kJ/mol
# Density = 2.500902 g / cm^3
# Si number density = 25.066072 Si / 1000 Ang^3
#
#
#
# Elastic Constant Matrix: (Units=GPa)
#
#
# Indices 1 2 3 4 5 6 
#
# 1 219.8710 78.0007 80.6252 0.0002 0.0000 0.0001
# 2 78.0007 128.7598 44.2186 0.0003 0.0000 0.0002
# 3 80.6252 44.2186 142.9245 0.0008 -0.0001 0.0003
# 4 0.0002 0.0003 0.0008 25.9728 -0.0001 0.0003
# 5 0.0000 0.0000 -0.0001 -0.0001 -1.1933 0.0003
# 6 0.0001 0.0002 0.0003 0.0003 0.0003 178.1398
#
#
#
# Elastic Compliance Matrix: (Units=1/GPa)
#
#
# Indices 1 2 3 4 5 6 
#
# 1 0.006670 -0.003075 -0.002811 0.000000 0.000000 0.000000
# 2 -0.003075 0.010107 -0.001392 0.000000 0.000000 0.000000
# 3 -0.002811 -0.001392 0.009013 0.000000 -0.000001 0.000000
# 4 0.000000 0.000000 0.000000 0.038502 -0.000002 0.000000
# 5 0.000000 0.000000 -0.000001 -0.000002 -0.837979 0.000002
# 6 0.000000 0.000000 0.000000 0.000000 0.000002 0.005614
#
#
# Mechanical properties :
#
#
# Convention : Reuss Voigt Hill
#
# Bulk Modulus (GPa) = 89.02103 99.69379 94.35741
# Shear Modulus (GPa) = -6.66870 59.83124 26.58127
#
# Velocity S-wave (km/s) = -1.63286 4.89093 3.25998
# Velocity P-wave (km/s) = 5.66010 8.47076 7.20383
#
# Compressibility (1/GPa) = 0.01123330
#
# Stress axis : x y z
#
# Youngs Moduli (GPa) = 149.92813 98.93729 110.94741
#
# Poissons Ratio (x) = 0.30424 0.31189
# Poissons Ratio (y) = 0.46104 0.15448
# Poissons Ratio (z) = 0.42147 0.13776
#
# Static dielectric constant tensor:
#      x y z
#    x 1.951780 0.000000 0.000000 
#    y 0.000000 2.570030 0.000000 
#    z 0.000000 0.000000 1.846750 
# 
# From -- ./inp_files/5276.got.cif
#   From: 2010.05.17/outbox.cif.g08.bks.cpg/sg22_3_cif.got.tgz:5276.got - 2010.06.03 23:40:54.
