data_PCOD9328393
_publ_section_title
;
Structure prediction by ZEFSAII (Michael W. Deem and Ramdas Pophale) SiO2 
 PCOD9328393
Probable space group: F 2 2 2
;
_chemical_formula_sum "Si O2"
_cell_formula_units_Z 52
_cell_length_a 5.059653
_cell_length_b 19.086547
_cell_length_c 23.509575
_cell_angle_alpha 90.000000
_cell_angle_beta 90.000000
_cell_angle_gamma 90.000000
_cell_volume 2270.350333
_symmetry_space_group_name_H-M "F 2 2 2"
_symmetry_group_IT_number 22
_symmetry_cell_setting 'orthorhombic'
loop_
_space_group_symop_operation_xyz
x,y,z
-x,-y,z
x,-y,-z
-x,y,-z
x,1/2+y,1/2+z
-x,1/2-y,1/2+z
x,1/2-y,1/2-z
-x,1/2+y,1/2-z
1/2+x,y,1/2+z
1/2-x,-y,1/2+z
1/2+x,-y,1/2-z
1/2-x,y,1/2-z
1/2+x,1/2+y,z
1/2-x,1/2-y,z
1/2+x,1/2-y,-z
1/2-x,1/2+y,-z
loop_
_atom_site_type_symbol
_atom_site_label
_atom_site_fract_x
_atom_site_fract_y
_atom_site_fract_z
Si Si1 0.907113 0.647491 0.326453
Si Si2 0.398453 0.922211 0.144216
Si Si3 0.250000 0.250000 0.750000
Si Si4 0.364591 0.327287 0.942675
O O1 0.112497 0.582589 0.326464
O O2 0.051179 0.704900 0.288650
O O3 0.926362 0.676220 0.391036
O O4 0.611543 0.621030 0.318432
O O5 0.348818 0.880455 0.084955
O O6 0.500000 0.000000 0.135535
O O7 0.250000 0.250000 0.952591
O O8 0.500000 0.353202 0.000000
#
# Coordination Sequence:
#
# PCOD9328393 Si02
#       4
#    16  16   4  16
#     4  10  24  42  74 107 143 197 239 318 365 454
#     4  10  23  47  70 105 153 191 248 309 385 454
#     4  12  24  50  76 122 152 194 266 304 400 442
#     4  10  24  40  72 106 143 191 250 310 370 434
#
# _framework density 22.903955
#
# number of rings (size 3 to 8) (size 9 to 14) (size 15 to 20)
#    1.846    0.000    1.538    0.923    4.308    6.154 
#    0.000    7.692    0.000    0.000    0.000    0.000 
#    0.000    0.000    0.000    0.000    0.000    0.000 
#
# Total GULP energy -72567.619802 kJ/mol
# GULP energy per Si atom -5582.124600 kJ/mol
# Density = 2.285182 g / cm^3
# Si number density = 22.903955 Si / 1000 Ang^3
#
#
#
# Elastic Constant Matrix: (Units=GPa)
#
#
# Indices 1 2 3 4 5 6 
#
# 1 114.4305 31.0229 26.9289 0.0000 0.0000 0.0000
# 2 31.0229 130.2132 35.0013 0.0000 0.0000 0.0000
# 3 26.9289 35.0013 97.1175 0.0000 0.0000 0.0000
# 4 0.0000 0.0000 0.0000 -17.0414 0.0000 0.0000
# 5 0.0000 0.0000 0.0000 0.0000 36.6286 0.0000
# 6 0.0000 0.0000 0.0000 0.0000 0.0000 33.7674
#
#
#
# Elastic Compliance Matrix: (Units=1/GPa)
#
#
# Indices 1 2 3 4 5 6 
#
# 1 0.009699 -0.001758 -0.002056 0.000000 0.000000 0.000000
# 2 -0.001758 0.008822 -0.002692 0.000000 0.000000 0.000000
# 3 -0.002056 -0.002692 0.011837 0.000000 0.000000 0.000000
# 4 0.000000 0.000000 0.000000 -0.058681 0.000000 0.000000
# 5 0.000000 0.000000 0.000000 0.000000 0.027301 0.000000
# 6 0.000000 0.000000 0.000000 0.000000 0.000000 0.029614
#
#
# Mechanical properties :
#
#
# Convention : Reuss Voigt Hill
#
# Bulk Modulus (GPa) = 57.64833 58.62970 58.13902
# Shear Modulus (GPa) = 105.51244 27.25813 66.38529
#
# Velocity S-wave (km/s) = 6.79466 3.45353 5.38954
# Velocity P-wave (km/s) = 9.31562 6.44641 8.01052
#
# Compressibility (1/GPa) = 0.01734656
#
# Stress axis : x y z
#
# Youngs Moduli (GPa) = 103.09923 113.35006 84.48060
#
# Poissons Ratio (x) = 0.19930 0.17367
# Poissons Ratio (y) = 0.18128 0.22742
# Poissons Ratio (z) = 0.21195 0.30514
#
# Static dielectric constant tensor:
#      x y z
#    x 1.877000 0.000000 0.000000 
#    y 0.000000 1.839880 0.000000 
#    z 0.000000 0.000000 1.875520 
# 
# From -- ./inp_files/2531.got.cif
#   From: 2010.05.17/outbox.cif.g08.bks.cpg/sg22_2_cif.got.tgz:2531.got - 2010.06.03 23:40:54.
