data_PCOD9328901
_publ_section_title
;
Structure prediction by ZEFSAII (Michael W. Deem and Ramdas Pophale) SiO2 
 PCOD9328901
Probable space group: F 2 2 2
;
_chemical_formula_sum "Si O2"
_cell_formula_units_Z 112
_cell_length_a 16.043398
_cell_length_b 13.226236
_cell_length_c 26.589160
_cell_angle_alpha 90.000000
_cell_angle_beta 90.000000
_cell_angle_gamma 90.000000
_cell_volume 5642.054053
_symmetry_space_group_name_H-M "F 2 2 2"
_symmetry_group_IT_number 22
_symmetry_cell_setting 'orthorhombic'
loop_
_space_group_symop_operation_xyz
x,y,z
-x,-y,z
x,-y,-z
-x,y,-z
x,1/2+y,1/2+z
-x,1/2-y,1/2+z
x,1/2-y,1/2-z
-x,1/2+y,1/2-z
1/2+x,y,1/2+z
1/2-x,-y,1/2+z
1/2+x,-y,1/2-z
1/2-x,y,1/2-z
1/2+x,1/2+y,z
1/2-x,1/2-y,z
1/2+x,1/2-y,-z
1/2-x,1/2+y,-z
loop_
_atom_site_type_symbol
_atom_site_label
_atom_site_fract_x
_atom_site_fract_y
_atom_site_fract_z
Si Si1 0.951581 0.659772 0.050989
Si Si2 0.850531 0.877215 0.688685
Si Si3 0.326226 0.820479 0.577261
Si Si4 0.830121 0.500000 0.000000
Si Si5 0.655886 0.639810 0.809086
Si Si6 0.000000 0.000000 0.365737
Si Si7 0.789997 0.146817 0.041001
Si Si8 0.907665 0.523747 0.605633
O O1 0.908995 0.753915 0.077031
O O2 0.991492 0.593409 0.094974
O O3 0.883064 0.584677 0.027335
O O4 0.000000 0.689830 0.000000
O O5 0.751639 0.889268 0.675105
O O6 0.864348 0.757049 0.677302
O O7 0.852059 0.877808 0.749600
O O8 0.918469 0.958199 0.666336
O O9 0.250000 0.750000 0.596154
O O10 0.308339 0.841144 0.518230
O O11 0.348345 0.925721 0.602781
O O12 0.776703 0.557166 0.958185
O O13 0.593994 0.568068 0.838837
O O14 0.750000 0.250000 0.059864
O O15 0.869563 0.110911 0.070608
O O16 0.000000 0.500000 0.588151
#
# Coordination Sequence:
#
# PCOD9328901 Si02
#       8
#    16  16  16   8  16   8  16  16
#     4  12  25  38  60  90 133 165 210 270 318 370
#     4   9  22  44  71  96 125 166 216 270 333 395
#     4  11  24  43  59  84 131 178 213 256 321 390
#     4  12  19  42  57  80 122 172 214 252 311 367
#     4   9  22  46  68  93 130 169 209 269 335 400
#     4  12  25  36  70 104 122 160 223 278 318 382
#     4  11  23  38  63  85 120 180 221 255 303 384
#     4  12  27  38  64  99 131 166 220 274 328 384
#
# _framework density 19.850925
#
# number of rings (size 3 to 8) (size 9 to 14) (size 15 to 20)
#    0.000    1.143    5.714    0.857   11.000    0.571 
#    0.000    0.000    0.000    0.000    0.000    0.000 
#    0.000    0.000    0.000    0.000    0.000    0.000 
#
# Total GULP energy -156142.204549 kJ/mol
# GULP energy per Si atom -5576.507305 kJ/mol
# Density = 1.980574 g / cm^3
# Si number density = 19.850925 Si / 1000 Ang^3
#
#
#
# Elastic Constant Matrix: (Units=GPa)
#
#
# Indices 1 2 3 4 5 6 
#
# 1 82.0624 32.9743 20.3481 0.0000 0.0000 0.0000
# 2 32.9743 93.8102 20.3747 0.0000 0.0000 0.0000
# 3 20.3481 20.3747 47.8956 0.0000 0.0000 0.0000
# 4 0.0000 0.0000 0.0000 11.0194 0.0000 0.0000
# 5 0.0000 0.0000 0.0000 0.0000 31.4223 0.0000
# 6 0.0000 0.0000 0.0000 0.0000 0.0000 50.9598
#
#
#
# Elastic Compliance Matrix: (Units=1/GPa)
#
#
# Indices 1 2 3 4 5 6 
#
# 1 0.015044 -0.004297 -0.004563 0.000000 0.000000 0.000000
# 2 -0.004297 0.012972 -0.003693 0.000000 0.000000 0.000000
# 3 -0.004563 -0.003693 0.024388 0.000000 0.000000 0.000000
# 4 0.000000 0.000000 0.000000 0.090749 0.000000 0.000000
# 5 0.000000 0.000000 0.000000 0.000000 0.031825 0.000000
# 6 0.000000 0.000000 0.000000 0.000000 0.000000 0.019623
#
#
# Mechanical properties :
#
#
# Convention : Reuss Voigt Hill
#
# Bulk Modulus (GPa) = 36.63234 41.24028 38.93631
# Shear Modulus (GPa) = 21.85244 28.68502 25.26873
#
# Velocity S-wave (km/s) = 3.32147 3.80547 3.57168
# Velocity P-wave (km/s) = 5.76223 6.33474 6.05525
#
# Compressibility (1/GPa) = 0.02729828
#
# Stress axis : x y z
#
# Youngs Moduli (GPa) = 66.47200 77.08787 41.00304
#
# Poissons Ratio (x) = 0.33123 0.18712
# Poissons Ratio (y) = 0.28562 0.15142
# Poissons Ratio (z) = 0.30334 0.28468
#
# Static dielectric constant tensor:
#      x y z
#    x 1.789630 0.000000 0.000000 
#    y 0.000000 1.736180 0.000000 
#    z 0.000000 0.000000 1.708400 
# 
# From -- ./inp_files/53245.got.cif
#   From: 2010.05.17/outbox.cif.g08.bks.cpg/sg22_27_cif.got.tgz:53245.got - 2010.06.03 23:40:54.
