data_PCOD9328917
_publ_section_title
;
Structure prediction by ZEFSAII (Michael W. Deem and Ramdas Pophale) SiO2 
 PCOD9328917
Probable space group: F 2 2 2
;
_chemical_formula_sum "Si O2"
_cell_formula_units_Z 72
_cell_length_a 9.634027
_cell_length_b 13.807846
_cell_length_c 23.895156
_cell_angle_alpha 90.000000
_cell_angle_beta 90.000000
_cell_angle_gamma 90.000000
_cell_volume 3178.656978
_symmetry_space_group_name_H-M "F 2 2 2"
_symmetry_group_IT_number 22
_symmetry_cell_setting 'orthorhombic'
loop_
_space_group_symop_operation_xyz
x,y,z
-x,-y,z
x,-y,-z
-x,y,-z
x,1/2+y,1/2+z
-x,1/2-y,1/2+z
x,1/2-y,1/2-z
-x,1/2+y,1/2-z
1/2+x,y,1/2+z
1/2-x,-y,1/2+z
1/2+x,-y,1/2-z
1/2-x,y,1/2-z
1/2+x,1/2+y,z
1/2-x,1/2-y,z
1/2+x,1/2-y,-z
1/2-x,1/2+y,-z
loop_
_atom_site_type_symbol
_atom_site_label
_atom_site_fract_x
_atom_site_fract_y
_atom_site_fract_z
Si Si1 0.552475 0.150539 0.771436
Si Si2 0.616077 0.188624 0.952954
Si Si3 0.112355 0.307963 0.871884
Si Si4 0.800396 0.975556 0.371078
Si Si5 0.000000 0.500000 0.324301
O O1 0.617300 0.250000 0.750000
O O2 0.420409 0.186286 0.806661
O O3 0.639512 0.081452 0.815234
O O4 0.509100 0.089862 0.717913
O O5 0.750000 0.250000 0.971365
O O6 0.522179 0.235712 0.903207
O O7 0.677756 0.094037 0.923495
O O8 0.500000 0.171347 0.000000
O O9 0.250000 0.250000 0.885358
O O10 0.127266 0.422315 0.885112
O O11 0.640520 0.999307 0.359327
#
# Coordination Sequence:
#
# PCOD9328917 Si02
#       5
#    16  16  16  16   8
#     4  11  23  40  65 101 151 207 244 295 358 427
#     4  11  26  50  77 106 139 182 244 312 379 437
#     4  11  24  46  72 106 147 196 244 299 364 444
#     4  11  26  43  70 106 147 197 245 298 365 443
#     4  12  24  40  64 107 151 192 258 290 340 444
#
# _framework density 22.651077000000001
#
# number of rings (size 3 to 8) (size 9 to 14) (size 15 to 20)
#    0.000    0.889    2.222    4.667    9.333    4.889 
#    0.000    0.000    0.000    0.000    0.000    0.000 
#    0.000    0.000    0.000    0.000    0.000    0.000 
#
# Total GULP energy -100584.587302 kJ/mol
# GULP energy per Si atom -5588.032628 kJ/mol
# Density = 2.259952 g / cm^3
# Si number density = 22.651077 Si / 1000 Ang^3
#
#
#
# Elastic Constant Matrix: (Units=GPa)
#
#
# Indices 1 2 3 4 5 6 
#
# 1 164.6064 52.0256 53.6197 0.0000 0.0000 0.0000
# 2 52.0256 133.1794 34.7282 0.0000 0.0000 0.0000
# 3 53.6197 34.7282 81.8180 0.0000 0.0000 0.0000
# 4 0.0000 0.0000 0.0000 13.0842 0.0000 0.0000
# 5 0.0000 0.0000 0.0000 0.0000 140.1763 0.0000
# 6 0.0000 0.0000 0.0000 0.0000 0.0000 -5.8120
#
#
#
# Elastic Compliance Matrix: (Units=1/GPa)
#
#
# Indices 1 2 3 4 5 6 
#
# 1 0.008181 -0.002022 -0.004503 0.000000 0.000000 0.000000
# 2 -0.002022 0.008943 -0.002471 0.000000 0.000000 0.000000
# 3 -0.004503 -0.002471 0.016222 0.000000 0.000000 0.000000
# 4 0.000000 0.000000 0.000000 0.076428 0.000000 0.000000
# 5 0.000000 0.000000 0.000000 0.000000 0.007134 0.000000
# 6 0.000000 0.000000 0.000000 0.000000 0.000000 -0.172058
#
#
# Mechanical properties :
#
#
# Convention : Reuss Voigt Hill
#
# Bulk Modulus (GPa) = 65.12837 73.37231 69.25034
# Shear Modulus (GPa) = -156.05452 45.43838 -55.30807
#
# Velocity S-wave (km/s) = -8.30930 4.48371 -4.94676
# Velocity P-wave (km/s) = 7.95261 7.69855 1.41004
#
# Compressibility (1/GPa) = 0.01535429
#
# Stress axis : x y z
#
# Youngs Moduli (GPa) = 122.23479 111.82299 61.64325
#
# Poissons Ratio (x) = 0.22605 0.27760
# Poissons Ratio (y) = 0.24710 0.15232
# Poissons Ratio (z) = 0.55047 0.27631
#
# Static dielectric constant tensor:
#      x y z
#    x 1.889620 0.000000 0.000000 
#    y 0.000000 1.909800 0.000000 
#    z 0.000000 0.000000 1.879650 
# 
# From -- ./inp_files/51688.got.cif
#   From: 2010.05.17/outbox.cif.g08.bks.cpg/sg22_26_cif.got.tgz:51688.got - 2010.06.03 23:40:54.
