data_PCOD9328936
_publ_section_title
;
Structure prediction by ZEFSAII (Michael W. Deem and Ramdas Pophale) SiO2 
 PCOD9328936
Probable space group: F 2 2 2
;
_chemical_formula_sum "Si O2"
_cell_formula_units_Z 64
_cell_length_a 14.956222
_cell_length_b 8.101366
_cell_length_c 22.221934
_cell_angle_alpha 90.000000
_cell_angle_beta 90.000000
_cell_angle_gamma 90.000000
_cell_volume 2692.539042
_symmetry_space_group_name_H-M "F 2 2 2"
_symmetry_group_IT_number 22
_symmetry_cell_setting 'orthorhombic'
loop_
_space_group_symop_operation_xyz
x,y,z
-x,-y,z
x,-y,-z
-x,y,-z
x,1/2+y,1/2+z
-x,1/2-y,1/2+z
x,1/2-y,1/2-z
-x,1/2+y,1/2-z
1/2+x,y,1/2+z
1/2-x,-y,1/2+z
1/2+x,-y,1/2-z
1/2-x,y,1/2-z
1/2+x,1/2+y,z
1/2-x,1/2-y,z
1/2+x,1/2-y,-z
1/2-x,1/2+y,-z
loop_
_atom_site_type_symbol
_atom_site_label
_atom_site_fract_x
_atom_site_fract_y
_atom_site_fract_z
Si Si1 0.338073 0.850059 0.453972
Si Si2 0.325420 0.133650 0.369947
Si Si3 0.485908 0.802569 0.125919
Si Si4 0.250000 0.518394 0.750000
Si Si5 0.393779 0.750000 0.250000
O O1 0.250000 0.750000 0.472796
O O2 0.419431 0.737777 0.429835
O O3 0.361514 0.000000 0.500000
O O4 0.312326 0.951408 0.394412
O O5 0.250000 0.250000 0.396789
O O6 0.420373 0.210973 0.384820
O O7 0.303461 0.118637 0.299959
O O8 0.451972 0.725398 0.189773
O O9 0.500000 0.000000 0.132160
O O10 0.328523 0.396904 0.727872
#
# Coordination Sequence:
#
# PCOD9328936 Si02
#       5
#    16  16  16   8   8
#     4  12  27  53  81 114 152 208 268 333 403 478
#     4  12  26  45  72 115 153 212 262 323 395 466
#     4  12  28  46  76 117 167 207 269 327 400 475
#     4  11  23  42  70 102 160 208 260 318 390 466
#     4  11  24  42  69 110 158 220 255 328 389 478
#
# _framework density 23.769386999999998
#
# number of rings (size 3 to 8) (size 9 to 14) (size 15 to 20)
#    0.000    0.250    2.500    6.375    7.000    2.000 
#    0.000    1.250    0.000    0.000    0.000    0.000 
#    0.000    0.000    0.000    0.000    0.000    0.000 
#
# Total GULP energy -89411.589397 kJ/mol
# GULP energy per Si atom -5588.224337 kJ/mol
# Density = 2.371529 g / cm^3
# Si number density = 23.769387 Si / 1000 Ang^3
#
#
#
# Elastic Constant Matrix: (Units=GPa)
#
#
# Indices 1 2 3 4 5 6 
#
# 1 171.8302 40.5713 48.3748 0.0000 0.0000 0.0000
# 2 40.5713 91.9433 23.6973 0.0000 0.0000 0.0000
# 3 48.3748 23.6973 113.3417 0.0000 0.0000 0.0000
# 4 0.0000 0.0000 0.0000 41.1526 0.0000 0.0000
# 5 0.0000 0.0000 0.0000 0.0000 -5.9697 0.0000
# 6 0.0000 0.0000 0.0000 0.0000 0.0000 42.6968
#
#
#
# Elastic Compliance Matrix: (Units=1/GPa)
#
#
# Indices 1 2 3 4 5 6 
#
# 1 0.007116 -0.002492 -0.002516 0.000000 0.000000 0.000000
# 2 -0.002492 0.012368 -0.001522 0.000000 0.000000 0.000000
# 3 -0.002516 -0.001522 0.010215 0.000000 0.000000 0.000000
# 4 0.000000 0.000000 0.000000 0.024300 0.000000 0.000000
# 5 0.000000 0.000000 0.000000 0.000000 -0.167513 0.000000
# 6 0.000000 0.000000 0.000000 0.000000 0.000000 0.023421
#
#
# Mechanical properties :
#
#
# Convention : Reuss Voigt Hill
#
# Bulk Modulus (GPa) = 60.10055 66.93356 63.51706
# Shear Modulus (GPa) = -69.94450 33.20740 -18.36855
#
# Velocity S-wave (km/s) = -5.43049 3.74179 -2.78291
# Velocity P-wave (km/s) = 3.73905 6.84753 4.05636
#
# Compressibility (1/GPa) = 0.01663878
#
# Stress axis : x y z
#
# Youngs Moduli (GPa) = 140.51965 80.85285 97.89336
#
# Poissons Ratio (x) = 0.20146 0.24634
# Poissons Ratio (y) = 0.35013 0.14904
# Poissons Ratio (z) = 0.35360 0.12309
#
# Static dielectric constant tensor:
#      x y z
#    x 1.917690 0.000000 0.000000 
#    y 0.000000 2.004090 0.000000 
#    z 0.000000 0.000000 1.958990 
# 
# From -- ./inp_files/47019.got.cif
#   From: 2010.05.17/outbox.cif.g08.bks.cpg/sg22_24_cif.got.tgz:47019.got - 2010.06.03 23:40:54.
