data_PCOD9328511
_publ_section_title
;
Structure prediction by ZEFSAII (Michael W. Deem and Ramdas Pophale) SiO2 
 PCOD9328511
Probable space group: F 2 2 2
;
_chemical_formula_sum "Si O2"
_cell_formula_units_Z 64
_cell_length_a 23.698766
_cell_length_b 23.542941
_cell_length_c 4.710798
_cell_angle_alpha 90.000000
_cell_angle_beta 90.000000
_cell_angle_gamma 90.000000
_cell_volume 2628.336275
_symmetry_space_group_name_H-M "F 2 2 2"
_symmetry_group_IT_number 22
_symmetry_cell_setting 'orthorhombic'
loop_
_space_group_symop_operation_xyz
x,y,z
-x,-y,z
x,-y,-z
-x,y,-z
x,1/2+y,1/2+z
-x,1/2-y,1/2+z
x,1/2-y,1/2-z
-x,1/2+y,1/2-z
1/2+x,y,1/2+z
1/2-x,-y,1/2+z
1/2+x,-y,1/2-z
1/2-x,y,1/2-z
1/2+x,1/2+y,z
1/2-x,1/2-y,z
1/2+x,1/2-y,-z
1/2-x,1/2+y,-z
loop_
_atom_site_type_symbol
_atom_site_label
_atom_site_fract_x
_atom_site_fract_y
_atom_site_fract_z
Si Si1 0.820949 0.645734 0.502376
Si Si2 0.250000 0.250000 0.250000
Si Si3 0.895655 0.649595 0.000768
Si Si4 0.461646 0.750000 0.250000
Si Si5 0.000000 0.500000 0.500000
Si Si6 0.250000 0.542327 0.750000
Si Si7 0.000000 0.925747 0.500000
O O1 0.787649 0.704369 0.429957
O O2 0.837335 0.641698 0.830916
O O3 0.791734 0.587280 0.403148
O O4 0.879310 0.647642 0.327858
O O5 0.921320 0.709312 0.921843
O O6 0.945779 0.608618 0.900767
O O7 0.500000 0.777275 0.500000
O O8 0.972770 0.540538 0.265832
O O9 0.272148 0.500000 0.500000
#
# Coordination Sequence:
#
# PCOD9328511 Si02
#       7
#    16   4  16   8   4   8   8
#     4  11  25  43  73 103 135 181 234 281 358 414
#     4  10  24  48  72 102 144 176 230 312 340 414
#     4  12  24  44  68 106 136 183 226 278 340 426
#     4  12  24  39  66  95 142 187 217 270 338 400
#     4  10  24  46  66  90 126 206 224 290 336 376
#     4  11  24  49  70  99 138 175 224 300 356 409
#     4  11  24  46  67  96 149 178 236 287 336 400
#
# _framework density 24.350006
#
# number of rings (size 3 to 8) (size 9 to 14) (size 15 to 20)
#    0.000    0.750    1.250    6.000    1.750    4.000 
#   22.500    0.000    0.000    0.000    0.000    0.000 
#    0.000    0.000    0.000    0.000    0.000    0.000 
#
# Total GULP energy -89311.725182 kJ/mol
# GULP energy per Si atom -5581.982824 kJ/mol
# Density = 2.429458 g / cm^3
# Si number density = 24.350006 Si / 1000 Ang^3
#
#
#
# Elastic Constant Matrix: (Units=GPa)
#
#
# Indices 1 2 3 4 5 6 
#
# 1 74.5127 39.7286 12.2182 0.2117 -0.0638 0.0207
# 2 39.7286 135.9290 26.2911 0.0835 -0.0761 0.0626
# 3 12.2182 26.2911 104.0938 0.3781 -0.1663 0.0158
# 4 0.2117 0.0835 0.3781 -8.2177 -0.2173 -0.0877
# 5 -0.0638 -0.0761 -0.1663 -0.2173 61.3404 -0.0462
# 6 0.0207 0.0626 0.0158 -0.0877 -0.0462 -13.1181
#
#
#
# Elastic Compliance Matrix: (Units=1/GPa)
#
#
# Indices 1 2 3 4 5 6 
#
# 1 0.015950 -0.004520 -0.000732 0.000331 0.000010 0.000001
# 2 -0.004520 0.009016 -0.001746 -0.000106 0.000001 0.000034
# 3 -0.000732 -0.001746 0.010132 0.000429 0.000026 0.000000
# 4 0.000331 -0.000106 0.000429 -0.121658 -0.000429 0.000816
# 5 0.000010 0.000001 0.000026 -0.000429 0.016301 -0.000054
# 6 0.000001 0.000034 0.000000 0.000816 -0.000054 -0.076236
#
#
# Mechanical properties :
#
#
# Convention : Reuss Voigt Hill
#
# Bulk Modulus (GPa) = 47.39041 52.33460 49.86250
# Shear Modulus (GPa) = -39.85167 23.75409 -8.04879
#
# Velocity S-wave (km/s) = -4.04990 3.12673 -1.82006
# Velocity P-wave (km/s) = 1.53770 5.88001 4.01311
#
# Compressibility (1/GPa) = 0.02110132
#
# Stress axis : x y z
#
# Youngs Moduli (GPa) = 62.69695 110.91681 98.69618
#
# Poissons Ratio (x) = 0.50139 0.07221
# Poissons Ratio (y) = 0.28342 0.17234
# Poissons Ratio (z) = 0.04587 0.19368
#
# Static dielectric constant tensor:
#      x y z
#    x 1.939510 0.000000 0.000170 
#    y 0.000000 1.953780 0.000140 
#    z 0.000170 0.000140 1.928200 
# 
# From -- ./inp_files/4545.got.cif
#   From: 2010.05.17/outbox.cif.g08.bks.cpg/sg22_3_cif.got.tgz:4545.got - 2010.06.03 23:40:54.
