data_PCOD9328245
_publ_section_title
;
Structure prediction by ZEFSAII (Michael W. Deem and Ramdas Pophale) SiO2 
 PCOD9328245
Probable space group: F 2 2 2
;
_chemical_formula_sum "Si O2"
_cell_formula_units_Z 116
_cell_length_a 16.481780
_cell_length_b 11.620403
_cell_length_c 26.404362
_cell_angle_alpha 90.000000
_cell_angle_beta 90.000000
_cell_angle_gamma 90.000000
_cell_volume 5057.093472
_symmetry_space_group_name_H-M "F 2 2 2"
_symmetry_group_IT_number 22
_symmetry_cell_setting 'orthorhombic'
loop_
_space_group_symop_operation_xyz
x,y,z
-x,-y,z
x,-y,-z
-x,y,-z
x,1/2+y,1/2+z
-x,1/2-y,1/2+z
x,1/2-y,1/2-z
-x,1/2+y,1/2-z
1/2+x,y,1/2+z
1/2-x,-y,1/2+z
1/2+x,-y,1/2-z
1/2-x,y,1/2-z
1/2+x,1/2+y,z
1/2-x,1/2-y,z
1/2+x,1/2-y,-z
1/2-x,1/2+y,-z
loop_
_atom_site_type_symbol
_atom_site_label
_atom_site_fract_x
_atom_site_fract_y
_atom_site_fract_z
Si Si1 0.597524 0.367373 0.873146
Si Si2 0.652516 0.743553 0.032712
Si Si3 0.105391 0.905009 0.279931
Si Si4 0.342506 0.279031 0.580143
Si Si5 0.408984 0.015820 0.060758
Si Si6 0.911558 0.606978 0.659488
Si Si7 0.073197 0.830547 0.700501
Si Si8 0.750000 0.250000 0.250000
O O1 0.621153 0.357800 0.931729
O O2 0.502252 0.385066 0.862691
O O3 0.633117 0.486164 0.852059
O O4 0.614041 0.250574 0.841874
O O5 0.750000 0.750000 0.031872
O O6 0.622404 0.856051 0.062772
O O7 0.619354 0.744463 0.974974
O O8 0.084037 0.890303 0.220055
O O9 0.189846 0.833605 0.282290
O O10 0.023986 0.855340 0.307073
O O11 0.110334 0.041206 0.292733
O O12 0.250000 0.250000 0.573507
O O13 0.357061 0.414920 0.585339
O O14 0.369902 0.206780 0.627823
O O15 0.500000 0.000000 0.080079
O O16 0.409339 0.000000 0.000000
O O17 0.079998 0.750000 0.750000
#
# Coordination Sequence:
#
# PCOD9328245 Si02
#       8
#    16  16  16  16  16  16  16   4
#     4  11  22  40  68  96 132 172 233 281 334 421
#     4  10  23  42  61  93 137 178 225 282 343 405
#     4  11  23  42  72  96 141 180 226 285 353 421
#     4  10  23  40  63  93 136 182 220 276 354 411
#     4   9  18  38  63  85 122 174 227 278 319 388
#     4  11  22  39  67 102 129 179 221 281 343 416
#     4  11  19  45  70  93 129 193 232 270 347 428
#     4  12  24  44  62 108 140 166 212 310 348 392
#
# _framework density 22.938078000000001
#
# number of rings (size 3 to 8) (size 9 to 14) (size 15 to 20)
#    0.000    1.517    3.448    1.655    2.897    2.207 
#   12.414    1.724    0.000    0.000    0.000    0.000 
#    0.000    0.000    0.000    0.000    0.000    0.000 
#
# Total GULP energy -161872.865456 kJ/mol
# GULP energy per Si atom -5581.822947 kJ/mol
# Density = 2.288587 g / cm^3
# Si number density = 22.938078 Si / 1000 Ang^3
#
#
#
# Elastic Constant Matrix: (Units=GPa)
#
#
# Indices 1 2 3 4 5 6 
#
# 1 57.5535 23.9384 -0.0220 0.0000 0.0000 0.0000
# 2 23.9384 129.6361 30.1445 0.0000 0.0000 0.0000
# 3 -0.0220 30.1445 107.5056 0.0000 0.0000 0.0000
# 4 0.0000 0.0000 0.0000 38.3272 0.0000 0.0000
# 5 0.0000 0.0000 0.0000 0.0000 24.1509 0.0000
# 6 0.0000 0.0000 0.0000 0.0000 0.0000 31.4582
#
#
#
# Elastic Compliance Matrix: (Units=1/GPa)
#
#
# Indices 1 2 3 4 5 6 
#
# 1 0.018931 -0.003741 0.001053 0.000000 0.000000 0.000000
# 2 -0.003741 0.008991 -0.002522 0.000000 0.000000 0.000000
# 3 0.001053 -0.002522 0.010009 0.000000 0.000000 0.000000
# 4 0.000000 0.000000 0.000000 0.026091 0.000000 0.000000
# 5 0.000000 0.000000 0.000000 0.000000 0.041406 0.000000
# 6 0.000000 0.000000 0.000000 0.000000 0.000000 0.031788
#
#
# Mechanical properties :
#
#
# Convention : Reuss Voigt Hill
#
# Bulk Modulus (GPa) = 36.34760 44.75745 40.55252
# Shear Modulus (GPa) = 31.88623 34.82955 33.35789
#
# Velocity S-wave (km/s) = 3.73245 3.90091 3.81761
# Velocity P-wave (km/s) = 5.86986 6.31222 6.09506
#
# Compressibility (1/GPa) = 0.02751214
#
# Stress axis : x y z
#
# Youngs Moduli (GPa) = 52.82232 111.22162 99.90821
#
# Poissons Ratio (x) = 0.41604 -0.10518
# Poissons Ratio (y) = 0.19759 0.25195
# Poissons Ratio (z) = -0.05561 0.28048
#
# Static dielectric constant tensor:
#      x y z
#    x 2.063200 0.000000 0.000000 
#    y 0.000000 1.998110 0.000000 
#    z 0.000000 0.000000 1.946900 
# 
# From -- ./inp_files/53654.got.cif
#   From: 2010.05.17/outbox.cif.g08.bks.cpg/sg22_27_cif.got.tgz:53654.got - 2010.06.03 23:40:54.
