data_PCOD9328481
_publ_section_title
;
Structure prediction by ZEFSAII (Michael W. Deem and Ramdas Pophale) SiO2 
 PCOD9328481
Probable space group: F 2 2 2
;
_chemical_formula_sum "Si O2"
_cell_formula_units_Z 112
_cell_length_a 17.825953
_cell_length_b 22.954145
_cell_length_c 14.265554
_cell_angle_alpha 90.000000
_cell_angle_beta 90.000000
_cell_angle_gamma 90.000000
_cell_volume 5837.172395
_symmetry_space_group_name_H-M "F 2 2 2"
_symmetry_group_IT_number 22
_symmetry_cell_setting 'orthorhombic'
loop_
_space_group_symop_operation_xyz
x,y,z
-x,-y,z
x,-y,-z
-x,y,-z
x,1/2+y,1/2+z
-x,1/2-y,1/2+z
x,1/2-y,1/2-z
-x,1/2+y,1/2-z
1/2+x,y,1/2+z
1/2-x,-y,1/2+z
1/2+x,-y,1/2-z
1/2-x,y,1/2-z
1/2+x,1/2+y,z
1/2-x,1/2-y,z
1/2+x,1/2-y,-z
1/2-x,1/2+y,-z
loop_
_atom_site_type_symbol
_atom_site_label
_atom_site_fract_x
_atom_site_fract_y
_atom_site_fract_z
Si Si1 0.063610 0.752748 0.358339
Si Si2 0.542618 0.377443 0.092479
Si Si3 0.046776 0.554494 0.749432
Si Si4 0.204469 0.028606 0.154792
Si Si5 0.787679 0.090157 0.046405
Si Si6 0.808857 0.798726 0.510618
Si Si7 0.949476 0.354584 0.911847
O O1 0.081469 0.750000 0.250000
O O2 0.031744 0.691353 0.393241
O O3 0.139074 0.766998 0.413699
O O4 0.002668 0.803158 0.373607
O O5 0.507945 0.410225 0.180466
O O6 0.629408 0.390180 0.075691
O O7 0.500000 0.397929 0.000000
O O8 0.118191 0.532997 0.689177
O O9 0.066556 0.596407 0.835313
O O10 0.000000 0.500000 0.786289
O O11 0.250000 0.042665 0.250000
O O12 0.228386 0.965248 0.113625
O O13 0.213720 0.069814 0.063119
O O14 0.733996 0.145783 0.053906
O O15 0.750000 0.750000 0.473915
O O16 0.870627 0.825649 0.440581
O O17 0.000000 0.377313 0.000000
#
# Coordination Sequence:
#
# PCOD9328481 Si02
#       7
#    16  16  16  16  16  16  16
#     4  11  23  42  68  99 129 173 224 278 330 399
#     4  12  22  40  70  98 133 169 220 281 333 391
#     4  12  24  41  70  99 127 173 229 278 331 391
#     4  11  25  43  65  97 141 176 226 273 330 401
#     4  11  24  42  66  99 134 180 218 276 340 392
#     4  11  23  42  67  94 136 177 215 267 341 401
#     4  10  24  44  66  95 137 173 222 270 330 409
#
# _framework density 19.187372
#
# number of rings (size 3 to 8) (size 9 to 14) (size 15 to 20)
#    0.000    0.857    5.714    2.143    0.000    4.286 
#    0.000    0.000    0.000    0.000    0.000    0.000 
#    0.000    0.000    0.000    0.000    0.000    0.000 
#
# Total GULP energy -156337.893872 kJ/mol
# GULP energy per Si atom -5583.496210 kJ/mol
# Density = 1.914370 g / cm^3
# Si number density = 19.187372 Si / 1000 Ang^3
#
#
#
# Elastic Constant Matrix: (Units=GPa)
#
#
# Indices 1 2 3 4 5 6 
#
# 1 98.9079 33.5220 30.0588 0.0000 0.0000 0.0000
# 2 33.5220 87.2049 32.5193 0.0000 0.0000 0.0000
# 3 30.0588 32.5193 113.4504 0.0000 0.0000 0.0000
# 4 0.0000 0.0000 0.0000 24.3533 0.0000 0.0000
# 5 0.0000 0.0000 0.0000 0.0000 20.7161 0.0000
# 6 0.0000 0.0000 0.0000 0.0000 0.0000 14.4852
#
#
#
# Elastic Compliance Matrix: (Units=1/GPa)
#
#
# Indices 1 2 3 4 5 6 
#
# 1 0.012051 -0.003854 -0.002088 0.000000 0.000000 0.000000
# 2 -0.003854 0.014072 -0.003013 0.000000 0.000000 0.000000
# 3 -0.002088 -0.003013 0.010231 0.000000 0.000000 0.000000
# 4 0.000000 0.000000 0.000000 0.041062 0.000000 0.000000
# 5 0.000000 0.000000 0.000000 0.000000 0.048272 0.000000
# 6 0.000000 0.000000 0.000000 0.000000 0.000000 0.069036
#
#
# Mechanical properties :
#
#
# Convention : Reuss Voigt Hill
#
# Bulk Modulus (GPa) = 54.21471 54.64041 54.42756
# Shear Modulus (GPa) = 22.85378 25.47512 24.16445
#
# Velocity S-wave (km/s) = 3.45495 3.64772 3.55264
# Velocity P-wave (km/s) = 6.65074 6.80296 6.72728
#
# Compressibility (1/GPa) = 0.01844518
#
# Stress axis : x y z
#
# Youngs Moduli (GPa) = 82.97926 71.06285 97.73985
#
# Poissons Ratio (x) = 0.27386 0.20411
# Poissons Ratio (y) = 0.31978 0.29444
# Poissons Ratio (z) = 0.17329 0.21408
#
# Static dielectric constant tensor:
#      x y z
#    x 1.657440 0.000000 0.000000 
#    y 0.000000 1.665670 0.000000 
#    z 0.000000 0.000000 1.678930 
# 
# From -- ./inp_files/29604.got.cif
#   From: 2010.05.17/outbox.cif.g08.bks.cpg/sg22_15_cif.got.tgz:29604.got - 2010.06.03 23:40:54.
