data_PCOD9328905
_publ_section_title
;
Structure prediction by ZEFSAII (Michael W. Deem and Ramdas Pophale) SiO2 
 PCOD9328905
Probable space group: F 2 2 2
;
_chemical_formula_sum "Si O2"
_cell_formula_units_Z 64
_cell_length_a 10.513700
_cell_length_b 10.773490
_cell_length_c 27.454448
_cell_angle_alpha 90.000000
_cell_angle_beta 90.000000
_cell_angle_gamma 90.000000
_cell_volume 3109.744509
_symmetry_space_group_name_H-M "F 2 2 2"
_symmetry_group_IT_number 22
_symmetry_cell_setting 'orthorhombic'
loop_
_space_group_symop_operation_xyz
x,y,z
-x,-y,z
x,-y,-z
-x,y,-z
x,1/2+y,1/2+z
-x,1/2-y,1/2+z
x,1/2-y,1/2-z
-x,1/2+y,1/2-z
1/2+x,y,1/2+z
1/2-x,-y,1/2+z
1/2+x,-y,1/2-z
1/2-x,y,1/2-z
1/2+x,1/2+y,z
1/2-x,1/2-y,z
1/2+x,1/2-y,-z
1/2-x,1/2+y,-z
loop_
_atom_site_type_symbol
_atom_site_label
_atom_site_fract_x
_atom_site_fract_y
_atom_site_fract_z
Si Si1 0.397856 0.396145 0.264569
Si Si2 0.702221 0.949943 0.555296
Si Si3 0.453572 0.719573 0.444863
Si Si4 0.829262 0.368539 0.872253
O O1 0.500000 0.500000 0.245460
O O2 0.427885 0.250000 0.250000
O O3 0.250000 0.419156 0.250000
O O4 0.391992 0.414866 0.322891
O O5 0.586545 0.859306 0.567737
O O6 0.829537 0.866289 0.556113
O O7 0.687095 0.000000 0.500000
O O8 0.730624 0.049484 0.596722
O O9 0.500000 0.719043 0.500000
O O10 0.560752 0.667254 0.410008
O O11 0.750000 0.250000 0.856068
#
# Coordination Sequence:
#
# PCOD9328905 Si02
#       4
#    16  16  16  16
#     4  11  25  50  77 107 144 185 245 310 371 432
#     4  11  23  39  61  94 136 182 231 280 338 415
#     4  11  23  39  61  94 136 182 231 280 338 415
#     4  12  24  43  69  98 137 185 230 289 355 415
#
# _framework density 20.580469000000001
#
# number of rings (size 3 to 8) (size 9 to 14) (size 15 to 20)
#    0.000    0.750    5.000    3.750    0.000    6.000 
#    0.000    0.000    0.000    0.000    0.000    0.000 
#    0.000    0.000    0.000    0.000    0.000    0.000 
#
# Total GULP energy -89368.260617 kJ/mol
# GULP energy per Si atom -5585.516289 kJ/mol
# Density = 2.053363 g / cm^3
# Si number density = 20.580469 Si / 1000 Ang^3
#
#
#
# Elastic Constant Matrix: (Units=GPa)
#
#
# Indices 1 2 3 4 5 6 
#
# 1 78.7233 30.4241 27.4104 0.0000 0.0000 0.0000
# 2 30.4241 92.3102 24.7470 0.0000 0.0000 0.0000
# 3 27.4104 24.7470 109.0567 0.0000 0.0000 0.0000
# 4 0.0000 0.0000 0.0000 16.6491 0.0000 0.0000
# 5 0.0000 0.0000 0.0000 0.0000 20.9523 0.0000
# 6 0.0000 0.0000 0.0000 0.0000 0.0000 42.6272
#
#
#
# Elastic Compliance Matrix: (Units=1/GPa)
#
#
# Indices 1 2 3 4 5 6 
#
# 1 0.015367 -0.004290 -0.002889 0.000000 0.000000 0.000000
# 2 -0.004290 0.012733 -0.001811 0.000000 0.000000 0.000000
# 3 -0.002889 -0.001811 0.010307 0.000000 0.000000 0.000000
# 4 0.000000 0.000000 0.000000 0.060063 0.000000 0.000000
# 5 0.000000 0.000000 0.000000 0.000000 0.047727 0.000000
# 6 0.000000 0.000000 0.000000 0.000000 0.000000 0.023459
#
#
# Mechanical properties :
#
#
# Convention : Reuss Voigt Hill
#
# Bulk Modulus (GPa) = 48.95744 49.47260 49.21502
# Shear Modulus (GPa) = 25.71437 29.21297 27.46367
#
# Velocity S-wave (km/s) = 3.53860 3.77165 3.65698
# Velocity P-wave (km/s) = 6.36675 6.56185 6.46504
#
# Compressibility (1/GPa) = 0.02042590
#
# Stress axis : x y z
#
# Youngs Moduli (GPa) = 65.07640 78.53914 97.02585
#
# Poissons Ratio (x) = 0.33695 0.28028
# Poissons Ratio (y) = 0.27919 0.17571
# Poissons Ratio (z) = 0.18799 0.14223
#
# Static dielectric constant tensor:
#      x y z
#    x 1.740170 0.000000 0.000000 
#    y 0.000000 1.834720 0.000000 
#    z 0.000000 0.000000 1.888790 
# 
# From -- ./inp_files/8517.got.cif
#   From: 2010.05.17/outbox.cif.g08.bks.cpg/sg22_5_cif.got.tgz:8517.got - 2010.06.03 23:40:54.
