data_PCOD9328448
_publ_section_title
;
Structure prediction by ZEFSAII (Michael W. Deem and Ramdas Pophale) SiO2 
 PCOD9328448
Probable space group: F 2 2 2
;
_chemical_formula_sum "Si O2"
_cell_formula_units_Z 112
_cell_length_a 24.892610
_cell_length_b 14.723787
_cell_length_c 14.308039
_cell_angle_alpha 90.000000
_cell_angle_beta 90.000000
_cell_angle_gamma 90.000000
_cell_volume 5244.089273
_symmetry_space_group_name_H-M "F 2 2 2"
_symmetry_group_IT_number 22
_symmetry_cell_setting 'orthorhombic'
loop_
_space_group_symop_operation_xyz
x,y,z
-x,-y,z
x,-y,-z
-x,y,-z
x,1/2+y,1/2+z
-x,1/2-y,1/2+z
x,1/2-y,1/2-z
-x,1/2+y,1/2-z
1/2+x,y,1/2+z
1/2-x,-y,1/2+z
1/2+x,-y,1/2-z
1/2-x,y,1/2-z
1/2+x,1/2+y,z
1/2-x,1/2-y,z
1/2+x,1/2-y,-z
1/2-x,1/2+y,-z
loop_
_atom_site_type_symbol
_atom_site_label
_atom_site_fract_x
_atom_site_fract_y
_atom_site_fract_z
Si Si1 0.061964 0.782757 0.024932
Si Si2 0.363543 0.631517 0.882145
Si Si3 0.751011 0.646390 0.016350
Si Si4 0.439799 0.961032 0.348724
Si Si5 0.292230 0.909168 0.174948
Si Si6 0.193993 0.879986 0.702704
Si Si7 0.590820 0.337533 0.313597
O O1 0.072138 0.873063 0.087503
O O2 0.071013 0.691670 0.084435
O O3 0.100728 0.794982 0.936460
O O4 0.000000 0.787010 0.000000
O O5 0.306166 0.621893 0.935837
O O6 0.397771 0.538778 0.877327
O O7 0.350583 0.653957 0.774234
O O8 0.750000 0.750000 0.981361
O O9 0.797691 0.645254 0.095153
O O10 0.765569 0.586680 0.927041
O O11 0.432433 0.924019 0.242436
O O12 0.500000 0.000000 0.362563
O O13 0.250000 0.873710 0.250000
O O14 0.345639 0.850616 0.176652
O O15 0.307903 0.010837 0.205195
O O16 0.250000 0.851470 0.750000
O O17 0.578304 0.250000 0.250000
#
# Coordination Sequence:
#
# PCOD9328448 Si02
#       7
#    16  16  16  16  16  16  16
#     4  11  23  40  68 104 132 170 229 297 350 409
#     4  11  22  39  68  98 133 181 224 282 348 403
#     4  11  25  41  62  98 140 177 228 283 343 414
#     4  11  22  41  68 100 131 176 232 285 345 416
#     4  11  23  38  64  96 134 178 221 267 339 417
#     4   9  21  40  60  92 128 174 221 270 326 409
#     4  10  24  42  64  95 140 171 215 285 350 408
#
# _framework density 21.357378000000001
#
# number of rings (size 3 to 8) (size 9 to 14) (size 15 to 20)
#    0.000    1.429    2.857    1.714    6.000    6.000 
#    0.000    4.286    0.000    0.000    0.000    0.000 
#    0.000    0.000    0.000    0.000    0.000    0.000 
#
# Total GULP energy -156455.689293 kJ/mol
# GULP energy per Si atom -5587.703189 kJ/mol
# Density = 2.130877 g / cm^3
# Si number density = 21.357378 Si / 1000 Ang^3
#
#
#
# Elastic Constant Matrix: (Units=GPa)
#
#
# Indices 1 2 3 4 5 6 
#
# 1 82.5411 13.5606 44.3847 0.0000 0.0000 0.0000
# 2 13.5606 60.2927 15.6712 0.0000 0.0000 0.0000
# 3 44.3847 15.6712 135.0665 0.0000 0.0000 0.0000
# 4 0.0000 0.0000 0.0000 -129.6252 0.0000 0.0000
# 5 0.0000 0.0000 0.0000 0.0000 27.4342 0.0000
# 6 0.0000 0.0000 0.0000 0.0000 0.0000 32.7914
#
#
#
# Elastic Compliance Matrix: (Units=1/GPa)
#
#
# Indices 1 2 3 4 5 6 
#
# 1 0.014982 -0.002155 -0.004673 0.000000 0.000000 0.000000
# 2 -0.002155 0.017411 -0.001312 0.000000 0.000000 0.000000
# 3 -0.004673 -0.001312 0.009092 0.000000 0.000000 0.000000
# 4 0.000000 0.000000 0.000000 -0.007715 0.000000 0.000000
# 5 0.000000 0.000000 0.000000 0.000000 0.036451 0.000000
# 6 0.000000 0.000000 0.000000 0.000000 0.000000 0.030496
#
#
# Mechanical properties :
#
#
# Convention : Reuss Voigt Hill
#
# Bulk Modulus (GPa) = 39.67516 47.23703 43.45609
# Shear Modulus (GPa) = 39.87250 -0.26100 19.80575
#
# Velocity S-wave (km/s) = 4.32547 -0.34996 3.04854
# Velocity P-wave (km/s) = 6.60026 4.69064 5.72562
#
# Compressibility (1/GPa) = 0.02520469
#
# Stress axis : x y z
#
# Youngs Moduli (GPa) = 66.74592 57.43342 109.99046
#
# Poissons Ratio (x) = 0.12377 0.51402
# Poissons Ratio (y) = 0.14384 0.14431
# Poissons Ratio (z) = 0.31192 0.07535
#
# Static dielectric constant tensor:
#      x y z
#    x 1.734500 0.000000 0.000000 
#    y 0.000000 1.803630 0.000000 
#    z 0.000000 0.000000 1.679880 
# 
# From -- ./inp_files/29620.got.cif
#   From: 2010.05.17/outbox.cif.g08.bks.cpg/sg22_15_cif.got.tgz:29620.got - 2010.06.03 23:40:54.
