data_PCOD9328121
_publ_section_title
;
Structure prediction by ZEFSAII (Michael W. Deem and Ramdas Pophale) SiO2 
 PCOD9328121
Probable space group: F 2 2 2
;
_chemical_formula_sum "Si O2"
_cell_formula_units_Z 112
_cell_length_a 13.594976
_cell_length_b 13.594974
_cell_length_c 28.691953
_cell_angle_alpha 90.000000
_cell_angle_beta 90.000000
_cell_angle_gamma 90.000000
_cell_volume 5302.942735
_symmetry_space_group_name_H-M "F 2 2 2"
_symmetry_group_IT_number 22
_symmetry_cell_setting 'orthorhombic'
loop_
_space_group_symop_operation_xyz
x,y,z
-x,-y,z
x,-y,-z
-x,y,-z
x,1/2+y,1/2+z
-x,1/2-y,1/2+z
x,1/2-y,1/2-z
-x,1/2+y,1/2-z
1/2+x,y,1/2+z
1/2-x,-y,1/2+z
1/2+x,-y,1/2-z
1/2-x,y,1/2-z
1/2+x,1/2+y,z
1/2-x,1/2-y,z
1/2+x,1/2-y,-z
1/2-x,1/2+y,-z
loop_
_atom_site_type_symbol
_atom_site_label
_atom_site_fract_x
_atom_site_fract_y
_atom_site_fract_z
Si Si1 0.615119 0.634881 0.625000
Si Si2 0.208639 0.117004 0.800922
Si Si3 0.632996 0.958639 0.050922
Si Si4 0.984297 0.256139 0.305355
Si Si5 0.006139 0.265703 0.055355
Si Si6 0.899436 0.441432 0.666231
Si Si7 0.691432 0.149436 0.583769
O O1 0.710278 0.627229 0.658619
O O2 0.622771 0.539722 0.591381
O O3 0.527569 0.657990 0.663252
O O4 0.592010 0.722431 0.586748
O O5 0.250000 0.140790 0.750000
O O6 0.119317 0.188899 0.813358
O O7 0.157790 0.009515 0.797287
O O8 0.561101 0.869317 0.063358
O O9 0.740485 0.907790 0.047287
O O10 0.609210 0.000000 0.000000
O O11 0.993917 0.250000 0.250000
O O12 0.068885 0.331297 0.320654
O O13 0.081297 0.181115 0.070654
O O14 0.000000 0.256083 0.000000
O O15 0.822863 0.427137 0.625000
O O16 0.000000 0.500000 0.654184
O O17 0.750000 0.250000 0.595816
#
# Coordination Sequence:
#
# PCOD9328121 Si02
#       7
#    16  16  16  16  16  16  16
#     4  12  22  38  72  94 134 176 216 278 360 384
#     4  11  23  43  66  97 132 174 226 286 337 412
#     4  11  23  43  66  97 132 174 226 286 337 412
#     4  11  23  43  66  97 132 174 226 286 337 412
#     4  11  23  43  66  97 132 174 226 286 337 412
#     4  10  22  44  64  88 129 170 210 265 329 396
#     4  10  22  44  64  88 129 170 210 265 329 396
#
# _framework density 21.120349000000001
#
# number of rings (size 3 to 8) (size 9 to 14) (size 15 to 20)
#    0.000    1.143    5.714    0.857    0.000    0.000 
#   15.429    0.000    0.000    0.000    0.000    0.000 
#    0.000    0.000    0.000    0.000    0.000    0.000 
#
# Total GULP energy -156012.928159 kJ/mol
# GULP energy per Si atom -5571.890291 kJ/mol
# Density = 2.107228 g / cm^3
# Si number density = 21.120349 Si / 1000 Ang^3
#
#
#
# Elastic Constant Matrix: (Units=GPa)
#
#
# Indices 1 2 3 4 5 6 
#
# 1 73.3966 23.8894 26.6391 0.0000 0.0000 0.0000
# 2 23.8894 73.3967 26.6391 0.0000 0.0000 0.0000
# 3 26.6391 26.6391 129.3509 0.0000 0.0000 0.0000
# 4 0.0000 0.0000 0.0000 7.0975 0.0000 0.0000
# 5 0.0000 0.0000 0.0000 0.0000 7.0945 0.0000
# 6 0.0000 0.0000 0.0000 0.0000 0.0000 21.2156
#
#
#
# Elastic Compliance Matrix: (Units=1/GPa)
#
#
# Indices 1 2 3 4 5 6 
#
# 1 0.015892 -0.004307 -0.002386 0.000000 0.000000 0.000000
# 2 -0.004307 0.015892 -0.002386 0.000000 0.000000 0.000000
# 3 -0.002386 -0.002386 0.008714 0.000000 0.000000 0.000000
# 4 0.000000 0.000000 0.000000 0.140896 0.000000 0.000000
# 5 0.000000 0.000000 0.000000 0.000000 0.140954 0.000000
# 6 0.000000 0.000000 0.000000 0.000000 0.000000 0.047135
#
#
# Mechanical properties :
#
#
# Convention : Reuss Voigt Hill
#
# Bulk Modulus (GPa) = 44.76082 47.83105 46.29594
# Shear Modulus (GPa) = 12.65543 20.34662 16.50102
#
# Velocity S-wave (km/s) = 2.45052 3.10718 2.79818
# Velocity P-wave (km/s) = 5.40796 5.96396 5.69275
#
# Compressibility (1/GPa) = 0.02234097
#
# Stress axis : x y z
#
# Youngs Moduli (GPa) = 62.92329 62.92339 114.76217
#
# Poissons Ratio (x) = 0.27099 0.27382
# Poissons Ratio (y) = 0.27099 0.27382
# Poissons Ratio (z) = 0.15013 0.15014
#
# Static dielectric constant tensor:
#      x y z
#    x 1.804020 0.000000 0.000000 
#    y 0.000000 1.804020 0.000000 
#    z 0.000000 0.000000 1.779060 
# 
# From -- ./inp_files/33537.got.cif
#   From: 2010.05.17/outbox.cif.g08.bks.cpg/sg22_17_cif.got.tgz:33537.got - 2010.06.03 23:40:54.
