data_PCOD9328155
_publ_section_title
;
Structure prediction by ZEFSAII (Michael W. Deem and Ramdas Pophale) SiO2 
 PCOD9328155
Probable space group: F 2 2 2
;
_chemical_formula_sum "Si O2"
_cell_formula_units_Z 52
_cell_length_a 5.591861
_cell_length_b 25.832589
_cell_length_c 17.450146
_cell_angle_alpha 90.000000
_cell_angle_beta 90.000000
_cell_angle_gamma 90.000000
_cell_volume 2520.712799
_symmetry_space_group_name_H-M "F 2 2 2"
_symmetry_group_IT_number 22
_symmetry_cell_setting 'orthorhombic'
loop_
_space_group_symop_operation_xyz
x,y,z
-x,-y,z
x,-y,-z
-x,y,-z
x,1/2+y,1/2+z
-x,1/2-y,1/2+z
x,1/2-y,1/2-z
-x,1/2+y,1/2-z
1/2+x,y,1/2+z
1/2-x,-y,1/2+z
1/2+x,-y,1/2-z
1/2-x,y,1/2-z
1/2+x,1/2+y,z
1/2-x,1/2-y,z
1/2+x,1/2-y,-z
1/2-x,1/2+y,-z
loop_
_atom_site_type_symbol
_atom_site_label
_atom_site_fract_x
_atom_site_fract_y
_atom_site_fract_z
Si Si1 0.750000 0.415058 0.750000
Si Si2 0.500000 0.500000 0.150529
Si Si3 0.606571 0.650389 0.674940
Si Si4 0.750569 0.923939 0.546062
Si Si5 0.250000 0.750000 0.250000
O O1 0.580675 0.453812 0.795363
O O2 0.645209 0.377293 0.685304
O O3 0.707846 0.475184 0.098061
O O4 0.750000 0.630791 0.750000
O O5 0.724395 0.627159 0.599583
O O6 0.604715 0.711447 0.693627
O O7 0.500000 0.920041 0.500000
O O8 0.000000 0.927830 0.500000
#
# Coordination Sequence:
#
# PCOD9328155 Si02
#       5
#     8   8  16  16   4
#     4  12  22  40  70  98 134 172 238 284 322 378
#     4  12  23  40  64  98 135 188 226 268 327 410
#     4  10  22  45  67  94 127 169 229 282 329 394
#     4  12  27  44  63  99 143 180 218 275 342 410
#     4   8  20  44  72  96 118 162 242 282 336 396
#
# _framework density 20.629086000000001
#
# number of rings (size 3 to 8) (size 9 to 14) (size 15 to 20)
#    0.923    0.000    3.077    4.154    0.000    8.000 
#    0.000    1.538    0.000    0.000    0.000    0.000 
#    0.000    0.000    0.000    0.000    0.000    0.000 
#
# Total GULP energy -72445.344999 kJ/mol
# GULP energy per Si atom -5572.718846 kJ/mol
# Density = 2.058213 g / cm^3
# Si number density = 20.629086 Si / 1000 Ang^3
#
#
#
# Elastic Constant Matrix: (Units=GPa)
#
#
# Indices 1 2 3 4 5 6 
#
# 1 99.2853 52.3441 47.1293 0.0000 0.0000 0.0000
# 2 52.3441 172.8524 40.5497 0.0000 0.0000 0.0000
# 3 47.1293 40.5497 79.5097 0.0000 0.0000 0.0000
# 4 0.0000 0.0000 0.0000 91.7803 0.0000 0.0000
# 5 0.0000 0.0000 0.0000 0.0000 37.2395 0.0000
# 6 0.0000 0.0000 0.0000 0.0000 0.0000 20.0299
#
#
#
# Elastic Compliance Matrix: (Units=1/GPa)
#
#
# Indices 1 2 3 4 5 6 
#
# 1 0.015132 -0.002815 -0.007534 0.000000 0.000000 0.000000
# 2 -0.002815 0.007095 -0.001950 0.000000 0.000000 0.000000
# 3 -0.007534 -0.001950 0.018037 0.000000 0.000000 0.000000
# 4 0.000000 0.000000 0.000000 0.010896 0.000000 0.000000
# 5 0.000000 0.000000 0.000000 0.000000 0.026853 0.000000
# 6 0.000000 0.000000 0.000000 0.000000 0.000000 0.049925
#
#
# Mechanical properties :
#
#
# Convention : Reuss Voigt Hill
#
# Bulk Modulus (GPa) = 63.82885 70.18820 67.00852
# Shear Modulus (GPa) = 31.69380 43.91821 37.80600
#
# Velocity S-wave (km/s) = 3.92390 4.61906 4.28560
# Velocity P-wave (km/s) = 7.17898 7.90856 7.55258
#
# Compressibility (1/GPa) = 0.01566690
#
# Stress axis : x y z
#
# Youngs Moduli (GPa) = 66.08327 140.94064 55.44059
#
# Poissons Ratio (x) = 0.39676 0.41769
# Poissons Ratio (y) = 0.18603 0.10810
# Poissons Ratio (z) = 0.49788 0.27482
#
# Static dielectric constant tensor:
#      x y z
#    x 1.646600 0.000000 0.000000 
#    y 0.000000 1.709240 0.000000 
#    z 0.000000 0.000000 1.799600 
# 
# From -- ./inp_files/2547.got.cif
#   From: 2010.05.17/outbox.cif.g08.bks.cpg/sg22_2_cif.got.tgz:2547.got - 2010.06.03 23:40:54.
