data_PCOD9328823
_publ_section_title
;
Structure prediction by ZEFSAII (Michael W. Deem and Ramdas Pophale) SiO2 
 PCOD9328823
Probable space group: F 2 2 2
;
_chemical_formula_sum "Si O2"
_cell_formula_units_Z 96
_cell_length_a 20.206297
_cell_length_b 13.153149
_cell_length_c 15.127307
_cell_angle_alpha 90.000000
_cell_angle_beta 90.000000
_cell_angle_gamma 90.000000
_cell_volume 4020.481728
_symmetry_space_group_name_H-M "F 2 2 2"
_symmetry_group_IT_number 22
_symmetry_cell_setting 'orthorhombic'
loop_
_space_group_symop_operation_xyz
x,y,z
-x,-y,z
x,-y,-z
-x,y,-z
x,1/2+y,1/2+z
-x,1/2-y,1/2+z
x,1/2-y,1/2-z
-x,1/2+y,1/2-z
1/2+x,y,1/2+z
1/2-x,-y,1/2+z
1/2+x,-y,1/2-z
1/2-x,y,1/2-z
1/2+x,1/2+y,z
1/2-x,1/2-y,z
1/2+x,1/2-y,-z
1/2-x,1/2+y,-z
loop_
_atom_site_type_symbol
_atom_site_label
_atom_site_fract_x
_atom_site_fract_y
_atom_site_fract_z
Si Si1 0.688265 0.034804 0.592996
Si Si2 0.571050 0.769170 0.965600
Si Si3 0.187027 0.811030 0.154917
Si Si4 0.534974 0.140075 0.208974
Si Si5 0.669337 0.593550 0.432431
Si Si6 0.607026 0.949680 0.250860
O O1 0.707190 0.930479 0.646678
O O2 0.658039 0.000000 0.500000
O O3 0.751197 0.103227 0.567795
O O4 0.637628 0.088589 0.658319
O O5 0.622006 0.704012 0.905929
O O6 0.548085 0.855795 0.895427
O O7 0.500000 0.725882 0.000000
O O8 0.618772 0.818495 0.038793
O O9 0.179506 0.750000 0.250000
O O10 0.250000 0.750000 0.114852
O O11 0.537233 0.250000 0.250000
O O12 0.462573 0.099813 0.228685
O O13 0.588931 0.068663 0.254479
O O14 0.657017 0.500000 0.500000
O O15 0.653896 0.566442 0.331688
#
# Coordination Sequence:
#
# PCOD9328823 Si02
#       6
#    16  16  16  16  16  16
#     4  11  25  44  67  98 144 192 234 288 360 439
#     4  12  23  41  69 105 141 177 232 304 359 425
#     4  11  25  43  71 105 139 183 246 304 356 421
#     4  11  24  42  66 104 138 182 241 298 359 425
#     4  11  22  39  69 103 136 177 233 296 363 416
#     4  11  23  42  68  98 142 186 231 289 369 430
#
# _framework density 23.877737
#
# number of rings (size 3 to 8) (size 9 to 14) (size 15 to 20)
#    0.000    0.833    3.333    5.000    4.667    1.667 
#    0.000    1.667    0.000    1.000    0.000    0.000 
#    0.000    0.000    0.000    0.000    0.000    0.000 
#
# Total GULP energy -134108.919008 kJ/mol
# GULP energy per Si atom -5587.871625 kJ/mol
# Density = 2.382339 g / cm^3
# Si number density = 23.877737 Si / 1000 Ang^3
#
#
#
# Elastic Constant Matrix: (Units=GPa)
#
#
# Indices 1 2 3 4 5 6 
#
# 1 125.9090 15.0902 58.6708 0.0000 0.0000 0.0000
# 2 15.0902 59.0949 9.4492 0.0000 0.0000 0.0000
# 3 58.6708 9.4492 148.2484 0.0000 0.0000 0.0000
# 4 0.0000 0.0000 0.0000 28.1112 0.0000 0.0000
# 5 0.0000 0.0000 0.0000 0.0000 38.5626 0.0000
# 6 0.0000 0.0000 0.0000 0.0000 0.0000 14.1354
#
#
#
# Elastic Compliance Matrix: (Units=1/GPa)
#
#
# Indices 1 2 3 4 5 6 
#
# 1 0.009952 -0.001931 -0.003815 0.000000 0.000000 0.000000
# 2 -0.001931 0.017471 -0.000349 0.000000 0.000000 0.000000
# 3 -0.003815 -0.000349 0.008278 0.000000 0.000000 0.000000
# 4 0.000000 0.000000 0.000000 0.035573 0.000000 0.000000
# 5 0.000000 0.000000 0.000000 0.000000 0.025932 0.000000
# 6 0.000000 0.000000 0.000000 0.000000 0.000000 0.070744
#
#
# Mechanical properties :
#
#
# Convention : Reuss Voigt Hill
#
# Bulk Modulus (GPa) = 42.53771 55.51922 49.02846
# Shear Modulus (GPa) = 26.59899 32.83131 29.71515
#
# Velocity S-wave (km/s) = 3.34123 3.71209 3.53153
# Velocity P-wave (km/s) = 5.72177 6.45560 6.09973
#
# Compressibility (1/GPa) = 0.02350855
#
# Stress axis : x y z
#
# Youngs Moduli (GPa) = 100.48684 57.23804 120.80712
#
# Poissons Ratio (x) = 0.11053 0.46092
# Poissons Ratio (y) = 0.19405 0.04220
# Poissons Ratio (z) = 0.38339 0.01999
#
# Static dielectric constant tensor:
#      x y z
#    x 1.971040 0.000000 0.000000 
#    y 0.000000 1.997410 0.000000 
#    z 0.000000 0.000000 1.946080 
# 
# From -- ./inp_files/29360.got.cif
#   From: 2010.05.17/outbox.cif.g08.bks.cpg/sg22_15_cif.got.tgz:29360.got - 2010.06.03 23:40:54.
