data_PCOD9328725
_publ_section_title
;
Structure prediction by ZEFSAII (Michael W. Deem and Ramdas Pophale) SiO2 
 PCOD9328725
Probable space group: F 2 2 2
;
_chemical_formula_sum "Si O2"
_cell_formula_units_Z 88
_cell_length_a 21.670408
_cell_length_b 12.789110
_cell_length_c 15.863644
_cell_angle_alpha 90.000000
_cell_angle_beta 90.000000
_cell_angle_gamma 90.000000
_cell_volume 4396.533291
_symmetry_space_group_name_H-M "F 2 2 2"
_symmetry_group_IT_number 22
_symmetry_cell_setting 'orthorhombic'
loop_
_space_group_symop_operation_xyz
x,y,z
-x,-y,z
x,-y,-z
-x,y,-z
x,1/2+y,1/2+z
-x,1/2-y,1/2+z
x,1/2-y,1/2-z
-x,1/2+y,1/2-z
1/2+x,y,1/2+z
1/2-x,-y,1/2+z
1/2+x,-y,1/2-z
1/2-x,y,1/2-z
1/2+x,1/2+y,z
1/2-x,1/2-y,z
1/2+x,1/2-y,-z
1/2-x,1/2+y,-z
loop_
_atom_site_type_symbol
_atom_site_label
_atom_site_fract_x
_atom_site_fract_y
_atom_site_fract_z
Si Si1 0.942052 0.278308 0.649836
Si Si2 0.389331 0.074603 0.082166
Si Si3 0.744335 0.873312 0.148929
Si Si4 0.369070 0.018136 0.402874
Si Si5 0.930713 0.333498 0.312550
Si Si6 0.500000 0.500000 0.699656
O O1 0.929237 0.250000 0.750000
O O2 0.909556 0.197219 0.585413
O O3 0.913580 0.392062 0.633773
O O4 0.015867 0.276931 0.632900
O O5 0.320599 0.078946 0.119818
O O6 0.441472 0.029416 0.143773
O O7 0.390164 0.000000 0.000000
O O8 0.750000 0.877991 0.250000
O O9 0.750000 0.750000 0.125285
O O10 0.800468 0.938817 0.110400
O O11 0.383222 0.908523 0.357812
O O12 0.382885 0.000000 0.500000
O O13 0.900805 0.250000 0.250000
O O14 0.975110 0.407279 0.256986
#
# Coordination Sequence:
#
# PCOD9328725 Si02
#       6
#    16  16  16  16  16   8
#     4  11  20  43  70  98 133 189 239 268 332 431
#     4  12  25  41  67 106 140 170 229 302 353 392
#     4  11  23  44  77  96 127 187 242 280 334 431
#     4  12  25  42  68 107 141 177 226 296 356 400
#     4  11  22  40  71  99 142 188 235 280 332 429
#     4  12  21  42  69  98 134 184 236 276 339 408
#
# _framework density 20.01577
#
# number of rings (size 3 to 8) (size 9 to 14) (size 15 to 20)
#    0.000    0.545    7.273    3.000    0.000    2.909 
#    3.273    0.000    0.000    1.091    0.000    0.000 
#    0.000    0.000    0.000    0.000    0.000    0.000 
#
# Total GULP energy -122820.886122 kJ/mol
# GULP energy per Si atom -5582.767551 kJ/mol
# Density = 1.997021 g / cm^3
# Si number density = 20.015770 Si / 1000 Ang^3
#
#
#
# Elastic Constant Matrix: (Units=GPa)
#
#
# Indices 1 2 3 4 5 6 
#
# 1 110.7614 35.3622 31.9286 0.0000 0.0000 0.0000
# 2 35.3622 113.7348 57.4861 0.0000 0.0000 0.0000
# 3 31.9286 57.4861 90.4267 0.0000 0.0000 0.0000
# 4 0.0000 0.0000 0.0000 31.0809 0.0000 0.0000
# 5 0.0000 0.0000 0.0000 0.0000 -2.0569 0.0000
# 6 0.0000 0.0000 0.0000 0.0000 0.0000 44.3589
#
#
#
# Elastic Compliance Matrix: (Units=1/GPa)
#
#
# Indices 1 2 3 4 5 6 
#
# 1 0.010358 -0.002021 -0.002372 0.000000 0.000000 0.000000
# 2 -0.002021 0.013350 -0.007773 0.000000 0.000000 0.000000
# 3 -0.002372 -0.007773 0.016838 0.000000 0.000000 0.000000
# 4 0.000000 0.000000 0.000000 0.032174 0.000000 0.000000
# 5 0.000000 0.000000 0.000000 0.000000 -0.486165 0.000000
# 6 0.000000 0.000000 0.000000 0.000000 0.000000 0.022543
#
#
# Mechanical properties :
#
#
# Convention : Reuss Voigt Hill
#
# Bulk Modulus (GPa) = 61.68255 62.71963 62.20109
# Shear Modulus (GPa) = -13.84405 27.35296 6.75446
#
# Velocity S-wave (km/s) = -2.63279 3.70073 1.83899
# Velocity P-wave (km/s) = 4.65207 7.04724 5.97099
#
# Compressibility (1/GPa) = 0.01621204
#
# Stress axis : x y z
#
# Youngs Moduli (GPa) = 96.54779 74.90867 59.39088
#
# Poissons Ratio (x) = 0.15142 0.14088
# Poissons Ratio (y) = 0.19516 0.46164
# Poissons Ratio (z) = 0.22902 0.58225
#
# Static dielectric constant tensor:
#      x y z
#    x 1.715780 0.000000 0.000000 
#    y 0.000000 1.790850 0.000000 
#    z 0.000000 0.000000 1.719580 
# 
# From -- ./inp_files/32332.got.cif
#   From: 2010.05.17/outbox.cif.g08.bks.cpg/sg22_17_cif.got.tgz:32332.got - 2010.06.03 23:40:54.
