data_PCOD9328301
_publ_section_title
;
Structure prediction by ZEFSAII (Michael W. Deem and Ramdas Pophale) SiO2 
 PCOD9328301
Probable space group: F 2 2 2
;
_chemical_formula_sum "Si O2"
_cell_formula_units_Z 88
_cell_length_a 21.584454
_cell_length_b 25.501535
_cell_length_c 7.641829
_cell_angle_alpha 90.000000
_cell_angle_beta 90.000000
_cell_angle_gamma 90.000000
_cell_volume 4206.343207
_symmetry_space_group_name_H-M "F 2 2 2"
_symmetry_group_IT_number 22
_symmetry_cell_setting 'orthorhombic'
loop_
_space_group_symop_operation_xyz
x,y,z
-x,-y,z
x,-y,-z
-x,y,-z
x,1/2+y,1/2+z
-x,1/2-y,1/2+z
x,1/2-y,1/2-z
-x,1/2+y,1/2-z
1/2+x,y,1/2+z
1/2-x,-y,1/2+z
1/2+x,-y,1/2-z
1/2-x,y,1/2-z
1/2+x,1/2+y,z
1/2-x,1/2-y,z
1/2+x,1/2-y,-z
1/2-x,1/2+y,-z
loop_
_atom_site_type_symbol
_atom_site_label
_atom_site_fract_x
_atom_site_fract_y
_atom_site_fract_z
Si Si1 0.134151 0.808454 0.228531
Si Si2 0.865461 0.809230 0.187514
Si Si3 0.302253 0.412356 0.609376
Si Si4 0.502833 0.844983 0.710331
Si Si5 0.107678 0.000000 0.500000
Si Si6 0.250000 0.882504 0.750000
Si Si7 0.500000 0.927963 0.000000
O O1 0.161228 0.750000 0.250000
O O2 0.165840 0.855604 0.339617
O O3 0.059997 0.807399 0.259904
O O4 0.137481 0.817530 0.021035
O O5 0.854198 0.750000 0.250000
O O6 0.933957 0.824827 0.255149
O O7 0.810516 0.846114 0.248045
O O8 0.250000 0.420482 0.750000
O O9 0.350320 0.460486 0.610364
O O10 0.265449 0.414008 0.425045
O O11 0.500000 0.854629 0.500000
O O12 0.519190 0.893790 0.833619
O O13 0.057375 0.960367 0.581153
#
# Coordination Sequence:
#
# PCOD9328301 Si02
#       7
#    16  16  16  16   8   8   8
#     4  11  23  43  70 103 145 187 230 295 354 424
#     4  11  23  39  64 104 143 189 237 281 350 431
#     4  12  26  49  69 102 142 183 245 295 360 429
#     4  10  23  42  68 103 140 179 235 291 349 425
#     4  11  26  46  74 102 130 183 242 298 362 417
#     4  12  25  44  66  96 138 192 233 298 346 434
#     4  11  22  46  74  96 134 182 230 304 361 408
#
# _framework density 20.920784000000001
#
# number of rings (size 3 to 8) (size 9 to 14) (size 15 to 20)
#    0.000    0.909    3.636    3.000    3.818    0.364 
#    0.000    3.636    0.000    0.000    0.000    0.000 
#    0.000    0.000    0.000    0.000    0.000    0.000 
#
# Total GULP energy -122562.254846 kJ/mol
# GULP energy per Si atom -5571.011584 kJ/mol
# Density = 2.087317 g / cm^3
# Si number density = 20.920784 Si / 1000 Ang^3
#
#
#
# Elastic Constant Matrix: (Units=GPa)
#
#
# Indices 1 2 3 4 5 6 
#
# 1 101.7728 36.5001 43.6909 -0.0038 0.0032 0.0085
# 2 36.5001 113.2425 33.0728 -0.0038 0.0023 0.0066
# 3 43.6909 33.0728 79.3007 -0.0066 0.0048 0.0192
# 4 -0.0038 -0.0038 -0.0066 12.6501 0.0049 0.0156
# 5 0.0032 0.0023 0.0048 0.0049 12.5976 -0.0098
# 6 0.0085 0.0066 0.0192 0.0156 -0.0098 -7.5211
#
#
#
# Elastic Compliance Matrix: (Units=1/GPa)
#
#
# Indices 1 2 3 4 5 6 
#
# 1 0.013451 -0.002472 -0.006380 0.000000 -0.000001 -0.000003
# 2 -0.002472 0.010510 -0.003021 0.000001 0.000000 -0.000001
# 3 -0.006380 -0.003021 0.017385 0.000006 -0.000004 0.000034
# 4 0.000000 0.000001 0.000006 0.079050 -0.000031 0.000164
# 5 -0.000001 0.000000 -0.000004 -0.000031 0.079380 -0.000103
# 6 -0.000003 -0.000001 0.000034 0.000164 -0.000103 -0.132959
#
#
# Mechanical properties :
#
#
# Convention : Reuss Voigt Hill
#
# Bulk Modulus (GPa) = 56.81906 57.87152 57.34529
# Shear Modulus (GPa) = 51.85040 15.61548 33.73294
#
# Velocity S-wave (km/s) = 4.98377 2.73501 4.01984
# Velocity P-wave (km/s) = 7.76759 6.13971 7.00112
#
# Compressibility (1/GPa) = 0.01759973
#
# Stress axis : x y z
#
# Youngs Moduli (GPa) = 74.34162 95.14943 57.52015
#
# Poissons Ratio (x) = 0.23524 0.36698
# Poissons Ratio (y) = 0.18380 0.17377
# Poissons Ratio (z) = 0.47430 0.28745
#
# Static dielectric constant tensor:
#      x y z
#    x 1.769220 0.000000 0.000000 
#    y 0.000000 1.809320 0.000000 
#    z 0.000000 0.000000 1.803220 
# 
# From -- ./inp_files/12715.got.cif
#   From: 2010.05.17/outbox.cif.g08.bks.cpg/sg22_7_cif.got.tgz:12715.got - 2010.06.03 23:40:54.
