data_PCOD9328809
_publ_section_title
;
Structure prediction by ZEFSAII (Michael W. Deem and Ramdas Pophale) SiO2 
 PCOD9328809
Probable space group: F 2 2 2
;
_chemical_formula_sum "Si O2"
_cell_formula_units_Z 116
_cell_length_a 25.151075
_cell_length_b 21.962159
_cell_length_c 9.561292
_cell_angle_alpha 90.000000
_cell_angle_beta 90.000000
_cell_angle_gamma 90.000000
_cell_volume 5281.389107
_symmetry_space_group_name_H-M "F 2 2 2"
_symmetry_group_IT_number 22
_symmetry_cell_setting 'orthorhombic'
loop_
_space_group_symop_operation_xyz
x,y,z
-x,-y,z
x,-y,-z
-x,y,-z
x,1/2+y,1/2+z
-x,1/2-y,1/2+z
x,1/2-y,1/2-z
-x,1/2+y,1/2-z
1/2+x,y,1/2+z
1/2-x,-y,1/2+z
1/2+x,-y,1/2-z
1/2-x,y,1/2-z
1/2+x,1/2+y,z
1/2-x,1/2-y,z
1/2+x,1/2-y,-z
1/2-x,1/2+y,-z
loop_
_atom_site_type_symbol
_atom_site_label
_atom_site_fract_x
_atom_site_fract_y
_atom_site_fract_z
Si Si1 0.336017 0.367467 0.469412
Si Si2 0.500000 0.500000 0.500000
Si Si3 0.868497 0.383613 0.466446
Si Si4 0.691563 0.258085 0.086359
Si Si5 0.914950 0.918112 0.666001
Si Si6 0.479261 0.701933 0.356070
Si Si7 0.407977 0.822497 0.731359
Si Si8 0.735736 0.558823 0.088476
O O1 0.340785 0.299266 0.529584
O O2 0.362145 0.417435 0.571407
O O3 0.367843 0.362401 0.324518
O O4 0.274879 0.385735 0.451280
O O5 0.459274 0.464426 0.605438
O O6 0.834247 0.323751 0.428493
O O7 0.896913 0.413757 0.329914
O O8 0.907904 0.353155 0.579215
O O9 0.825164 0.426051 0.545352
O O10 0.696417 0.250000 0.250000
O O11 0.750000 0.250000 0.020569
O O12 0.940398 0.853317 0.624008
O O13 0.500000 0.730721 0.500000
O O14 0.454999 0.750000 0.250000
O O15 0.532543 0.675315 0.287868
O O16 0.393016 0.750000 0.750000
O O17 0.750000 0.547053 0.250000
O O18 0.750847 0.500000 0.000000
#
# Coordination Sequence:
#
# PCOD9328809 Si02
#       8
#    16   4  16  16  16  16  16  16
#     4  12  23  43  73 106 143 196 234 293 367 457
#     4  12  28  60  76 110 140 216 274 334 372 454
#     4  12  26  45  73 115 145 194 243 305 376 446
#     4  11  22  37  67 109 159 186 228 286 363 459
#     4  12  28  47  80 102 145 193 263 308 378 450
#     4  11  25  44  68 109 148 189 243 309 385 459
#     4  11  23  40  71 108 148 189 229 290 382 457
#     4  12  30  49  71 102 146 195 256 306 360 446
#
# _framework density 21.963919000000001
#
# number of rings (size 3 to 8) (size 9 to 14) (size 15 to 20)
#    0.000    0.414    7.586    0.000    8.690    0.000 
#    2.483    2.069    0.000    0.828    0.000    0.000 
#    0.000    0.000    0.000    0.000    0.000    0.000 
#
# Total GULP energy -161840.137157 kJ/mol
# GULP energy per Si atom -5580.694385 kJ/mol
# Density = 2.191393 g / cm^3
# Si number density = 21.963919 Si / 1000 Ang^3
#
#
#
# Elastic Constant Matrix: (Units=GPa)
#
#
# Indices 1 2 3 4 5 6 
#
# 1 88.7063 28.6658 41.3293 0.0000 0.0000 0.0000
# 2 28.6658 79.5513 42.9787 0.0000 0.0000 0.0000
# 3 41.3293 42.9787 145.9402 0.0003 -0.0001 0.0000
# 4 0.0000 0.0000 0.0003 21.3930 0.0000 0.0000
# 5 0.0000 0.0000 -0.0001 0.0000 33.4384 0.0000
# 6 0.0000 0.0000 0.0000 0.0000 0.0000 28.7033
#
#
#
# Elastic Compliance Matrix: (Units=1/GPa)
#
#
# Indices 1 2 3 4 5 6 
#
# 1 0.013711 -0.003381 -0.002887 0.000000 0.000000 0.000000
# 2 -0.003381 0.015783 -0.003690 0.000000 0.000000 0.000000
# 3 -0.002887 -0.003690 0.008757 0.000000 0.000000 0.000000
# 4 0.000000 0.000000 0.000000 0.046744 0.000000 0.000000
# 5 0.000000 0.000000 0.000000 0.000000 0.029906 0.000000
# 6 0.000000 0.000000 0.000000 0.000000 0.000000 0.034839
#
#
# Mechanical properties :
#
#
# Convention : Reuss Voigt Hill
#
# Bulk Modulus (GPa) = 54.54614 60.01616 57.28115
# Shear Modulus (GPa) = 28.44673 30.12188 29.28431
#
# Velocity S-wave (km/s) = 3.60273 3.70729 3.65539
# Velocity P-wave (km/s) = 6.49574 6.76089 6.62964
#
# Compressibility (1/GPa) = 0.01833310
#
# Stress axis : x y z
#
# Youngs Moduli (GPa) = 72.93497 63.36101 114.19973
#
# Poissons Ratio (x) = 0.21421 0.32972
# Poissons Ratio (y) = 0.24658 0.42145
# Poissons Ratio (z) = 0.21058 0.23383
#
# Static dielectric constant tensor:
#      x y z
#    x 1.895650 0.000000 0.000000 
#    y 0.000000 1.795750 0.000000 
#    z 0.000000 0.000000 1.846170 
# 
# From -- ./inp_files/14993.got.cif
#   From: 2010.05.17/outbox.cif.g08.bks.cpg/sg22_8_cif.got.tgz:14993.got - 2010.06.03 23:40:54.
