data_PCOD9328297
_publ_section_title
;
Structure prediction by ZEFSAII (Michael W. Deem and Ramdas Pophale) SiO2 
 PCOD9328297
Probable space group: F 2 2 2
;
_chemical_formula_sum "Si O2"
_cell_formula_units_Z 92
_cell_length_a 20.968417
_cell_length_b 7.870613
_cell_length_c 26.289094
_cell_angle_alpha 90.000000
_cell_angle_beta 90.000000
_cell_angle_gamma 90.000000
_cell_volume 4338.602106
_symmetry_space_group_name_H-M "F 2 2 2"
_symmetry_group_IT_number 22
_symmetry_cell_setting 'orthorhombic'
loop_
_space_group_symop_operation_xyz
x,y,z
-x,-y,z
x,-y,-z
-x,y,-z
x,1/2+y,1/2+z
-x,1/2-y,1/2+z
x,1/2-y,1/2-z
-x,1/2+y,1/2-z
1/2+x,y,1/2+z
1/2-x,-y,1/2+z
1/2+x,-y,1/2-z
1/2-x,y,1/2-z
1/2+x,1/2+y,z
1/2-x,1/2-y,z
1/2+x,1/2-y,-z
1/2-x,1/2+y,-z
loop_
_atom_site_type_symbol
_atom_site_label
_atom_site_fract_x
_atom_site_fract_y
_atom_site_fract_z
Si Si1 0.622817 0.378828 0.623293
Si Si2 0.910431 0.224371 0.430092
Si Si3 0.176982 0.300556 0.016086
Si Si4 0.677654 0.574656 0.270091
Si Si5 0.092641 0.250000 0.750000
Si Si6 0.993203 0.312098 0.341904
Si Si7 0.500000 0.500000 0.500000
O O1 0.615147 0.573700 0.605638
O O2 0.645113 0.283816 0.571666
O O3 0.672738 0.395975 0.669308
O O4 0.556968 0.291557 0.642920
O O5 0.858407 0.295064 0.469400
O O6 0.950106 0.341306 0.392440
O O7 0.959052 0.123199 0.465685
O O8 0.250000 0.250000 0.019049
O O9 0.172699 0.500000 0.000000
O O10 0.648295 0.750000 0.250000
O O11 0.750000 0.560584 0.250000
O O12 0.638120 0.415037 0.249365
O O13 0.048053 0.219974 0.701113
O O14 0.000000 0.500000 0.319552
#
# Coordination Sequence:
#
# PCOD9328297 Si02
#       7
#    16  16  16  16   8  16   4
#     4  11  22  44  67  92 134 179 226 277 341 409
#     4  11  20  41  68  94 129 178 223 271 340 415
#     4  10  23  42  67  99 130 178 224 274 343 415
#     4  11  26  47  70 101 137 191 239 285 347 418
#     4  12  27  46  68 104 145 182 238 298 350 422
#     4  12  26  40  66 105 138 177 229 294 357 406
#     4  12  16  40  74  92 124 176 234 262 348 426
#
# _framework density 21.204986000000002
#
# number of rings (size 3 to 8) (size 9 to 14) (size 15 to 20)
#    0.000    0.870    6.087    1.304    6.087    1.391 
#    6.261    3.043    0.000    0.000    0.000    0.000 
#    0.000    0.000    0.000    0.000    0.000    0.000 
#
# Total GULP energy -128377.861297 kJ/mol
# GULP energy per Si atom -5581.646143 kJ/mol
# Density = 2.115672 g / cm^3
# Si number density = 21.204986 Si / 1000 Ang^3
#
#
#
# Elastic Constant Matrix: (Units=GPa)
#
#
# Indices 1 2 3 4 5 6 
#
# 1 134.5784 27.6370 73.5767 0.0000 0.0000 -0.0001
# 2 27.6370 63.3341 11.0703 0.0000 0.0001 -0.0002
# 3 73.5767 11.0703 150.9846 0.0000 0.0000 0.0000
# 4 0.0000 0.0000 0.0000 22.3814 0.0000 0.0000
# 5 0.0000 0.0001 0.0000 0.0000 41.0861 0.0000
# 6 -0.0001 -0.0002 0.0000 0.0000 0.0000 22.7299
#
#
#
# Elastic Compliance Matrix: (Units=1/GPa)
#
#
# Indices 1 2 3 4 5 6 
#
# 1 0.011012 -0.003917 -0.005079 0.000000 0.000000 0.000000
# 2 -0.003917 0.017388 0.000634 0.000000 0.000000 0.000000
# 3 -0.005079 0.000634 0.009052 0.000000 0.000000 0.000000
# 4 0.000000 0.000000 0.000000 0.044680 0.000000 0.000000
# 5 0.000000 0.000000 0.000000 0.000000 0.024339 0.000000
# 6 0.000000 0.000000 0.000000 0.000000 0.000000 0.043995
#
#
# Mechanical properties :
#
#
# Convention : Reuss Voigt Hill
#
# Bulk Modulus (GPa) = 48.24652 63.71835 55.98244
# Shear Modulus (GPa) = 28.71926 33.01369 30.86648
#
# Velocity S-wave (km/s) = 3.68416 3.95002 3.81940
# Velocity P-wave (km/s) = 6.39525 7.13565 6.77557
#
# Compressibility (1/GPa) = 0.02072688
#
# Stress axis : x y z
#
# Youngs Moduli (GPa) = 90.81087 57.51127 110.47577
#
# Poissons Ratio (x) = 0.22530 0.56111
# Poissons Ratio (y) = 0.35575 -0.07006
# Poissons Ratio (z) = 0.46123 -0.03647
#
# Static dielectric constant tensor:
#      x y z
#    x 1.787280 0.000000 0.000000 
#    y 0.000000 1.806560 0.000000 
#    z 0.000000 0.000000 1.782980 
# 
# From -- ./inp_files/12895.got.cif
#   From: 2010.05.17/outbox.cif.g08.bks.cpg/sg22_7_cif.got.tgz:12895.got - 2010.06.03 23:40:54.
