data_PCOD9328587
_publ_section_title
;
Structure prediction by ZEFSAII (Michael W. Deem and Ramdas Pophale) SiO2 
 PCOD9328587
Probable space group: F 2 2 2
;
_chemical_formula_sum "Si O2"
_cell_formula_units_Z 64
_cell_length_a 28.375537
_cell_length_b 9.071555
_cell_length_c 11.175505
_cell_angle_alpha 90.000000
_cell_angle_beta 90.000000
_cell_angle_gamma 90.000000
_cell_volume 2876.689475
_symmetry_space_group_name_H-M "F 2 2 2"
_symmetry_group_IT_number 22
_symmetry_cell_setting 'orthorhombic'
loop_
_space_group_symop_operation_xyz
x,y,z
-x,-y,z
x,-y,-z
-x,y,-z
x,1/2+y,1/2+z
-x,1/2-y,1/2+z
x,1/2-y,1/2-z
-x,1/2+y,1/2-z
1/2+x,y,1/2+z
1/2-x,-y,1/2+z
1/2+x,-y,1/2-z
1/2-x,y,1/2-z
1/2+x,1/2+y,z
1/2-x,1/2-y,z
1/2+x,1/2-y,-z
1/2-x,1/2+y,-z
loop_
_atom_site_type_symbol
_atom_site_label
_atom_site_fract_x
_atom_site_fract_y
_atom_site_fract_z
Si Si1 0.318469 0.363748 0.928813
Si Si2 0.131291 0.810617 0.616984
Si Si3 0.700104 0.445945 0.316236
Si Si4 0.977158 0.659193 0.124756
O O1 0.333477 0.421072 0.799229
O O2 0.295642 0.206363 0.889138
O O3 0.292876 0.500000 0.000000
O O4 0.358646 0.314501 0.019433
O O5 0.134750 0.750000 0.750000
O O6 0.078455 0.865251 0.601053
O O7 0.174133 0.927025 0.612455
O O8 0.750000 0.480495 0.250000
O O9 0.982458 0.750000 0.250000
O O10 0.000000 0.500000 0.143414
O O11 0.000000 0.721460 0.000000
#
# Coordination Sequence:
#
# PCOD9328587 Si02
#       4
#    16  16  16  16
#     4  11  23  43  68  99 138 189 242 289 349 419
#     4  11  24  48  70 103 143 189 235 297 363 432
#     4  11  26  44  67 104 141 192 242 288 356 421
#     4  10  25  47  74 109 142 185 244 300 378 440
#
# _framework density 22.247796000000001
#
# number of rings (size 3 to 8) (size 9 to 14) (size 15 to 20)
#    0.000    1.250    2.500    2.250    7.000    7.000 
#    0.000    0.000    0.000    0.000    0.000    0.000 
#    0.000    0.000    0.000    0.000    0.000    0.000 
#
# Total GULP energy -89115.957953 kJ/mol
# GULP energy per Si atom -5569.747372 kJ/mol
# Density = 2.219716 g / cm^3
# Si number density = 22.247796 Si / 1000 Ang^3
#
#
#
# Elastic Constant Matrix: (Units=GPa)
#
#
# Indices 1 2 3 4 5 6 
#
# 1 119.6879 55.4748 39.6664 0.0000 0.0000 0.0000
# 2 55.4748 98.4457 50.5402 0.0000 0.0000 0.0000
# 3 39.6664 50.5402 177.3453 0.0000 0.0000 0.0000
# 4 0.0000 0.0000 0.0000 61.5411 0.0000 0.0000
# 5 0.0000 0.0000 0.0000 0.0000 34.9175 0.0000
# 6 0.0000 0.0000 0.0000 0.0000 0.0000 32.3076
#
#
#
# Elastic Compliance Matrix: (Units=1/GPa)
#
#
# Indices 1 2 3 4 5 6 
#
# 1 0.011415 -0.006000 -0.000843 0.000000 0.000000 0.000000
# 2 -0.006000 0.015052 -0.002948 0.000000 0.000000 0.000000
# 3 -0.000843 -0.002948 0.006667 0.000000 0.000000 0.000000
# 4 0.000000 0.000000 0.000000 0.016249 0.000000 0.000000
# 5 0.000000 0.000000 0.000000 0.000000 0.028639 0.000000
# 6 0.000000 0.000000 0.000000 0.000000 0.000000 0.030952
#
#
# Mechanical properties :
#
#
# Convention : Reuss Voigt Hill
#
# Bulk Modulus (GPa) = 73.78264 76.31576 75.04920
# Shear Modulus (GPa) = 37.57287 42.40639 39.98963
#
# Velocity S-wave (km/s) = 4.11400 4.37062 4.24425
# Velocity P-wave (km/s) = 7.47012 7.73607 7.60426
#
# Compressibility (1/GPa) = 0.01355332
#
# Stress axis : x y z
#
# Youngs Moduli (GPa) = 87.60087 66.43649 149.98373
#
# Poissons Ratio (x) = 0.39860 0.12651
# Poissons Ratio (y) = 0.52557 0.44209
# Poissons Ratio (z) = 0.07389 0.19583
#
# Static dielectric constant tensor:
#      x y z
#    x 1.819240 0.000000 0.000000 
#    y 0.000000 1.853600 0.000000 
#    z 0.000000 0.000000 1.844990 
# 
# From -- ./inp_files/25012.got.cif
#   From: 2010.05.17/outbox.cif.g08.bks.cpg/sg22_13_cif.got.tgz:25012.got - 2010.06.03 23:40:54.
