data_PCOD9328992
_publ_section_title
;
Structure prediction by ZEFSAII (Michael W. Deem and Ramdas Pophale) SiO2 
 PCOD9328992
Probable space group: F 2 2 2
;
_chemical_formula_sum "Si O2"
_cell_formula_units_Z 96
_cell_length_a 15.651609
_cell_length_b 28.761362
_cell_length_c 11.093419
_cell_angle_alpha 90.000000
_cell_angle_beta 90.000000
_cell_angle_gamma 90.000000
_cell_volume 4993.831161
_symmetry_space_group_name_H-M "F 2 2 2"
_symmetry_group_IT_number 22
_symmetry_cell_setting 'orthorhombic'
loop_
_space_group_symop_operation_xyz
x,y,z
-x,-y,z
x,-y,-z
-x,y,-z
x,1/2+y,1/2+z
-x,1/2-y,1/2+z
x,1/2-y,1/2-z
-x,1/2+y,1/2-z
1/2+x,y,1/2+z
1/2-x,-y,1/2+z
1/2+x,-y,1/2-z
1/2-x,y,1/2-z
1/2+x,1/2+y,z
1/2-x,1/2-y,z
1/2+x,1/2-y,-z
1/2-x,1/2+y,-z
loop_
_atom_site_type_symbol
_atom_site_label
_atom_site_fract_x
_atom_site_fract_y
_atom_site_fract_z
Si Si1 0.412320 0.868106 0.430295
Si Si2 0.851612 0.459548 0.566494
Si Si3 0.456895 0.401040 0.665378
Si Si4 0.373983 0.135904 0.047189
Si Si5 0.750929 0.694612 0.894058
Si Si6 0.000000 0.000000 0.226261
Si Si7 0.250000 0.397785 0.250000
O O1 0.500000 0.854138 0.500000
O O2 0.387007 0.918808 0.481541
O O3 0.428466 0.876790 0.288949
O O4 0.333092 0.832423 0.445026
O O5 0.798745 0.500000 0.500000
O O6 0.923469 0.488433 0.635953
O O7 0.805548 0.431174 0.668688
O O8 0.534796 0.369344 0.614199
O O9 0.385674 0.402298 0.559918
O O10 0.485245 0.453409 0.696331
O O11 0.307525 0.129837 0.155507
O O12 0.335228 0.177241 0.965739
O O13 0.750000 0.684235 0.750000
O O14 0.750000 0.750000 0.907294
#
# Coordination Sequence:
#
# PCOD9328992 Si02
#       7
#    16  16  16  16  16   8   8
#     4  12  21  42  71  98 132 180 223 274 339 404
#     4  12  23  38  63  94 138 178 230 268 322 398
#     4  11  24  40  68  97 138 182 222 272 332 400
#     4  11  24  44  66  95 135 176 220 283 345 394
#     4  11  25  48  73  98 131 173 227 288 353 411
#     4  12  21  39  62  96 134 181 227 260 318 402
#     4  12  24  42  63  92 132 184 227 278 328 396
#
# _framework density 19.223718000000002
#
# number of rings (size 3 to 8) (size 9 to 14) (size 15 to 20)
#    0.000    0.500    8.333    0.250    0.000    2.667 
#    4.500    0.417    0.000    0.000    0.000    0.000 
#    0.000    0.000    0.000    0.000    0.000    0.000 
#
# Total GULP energy -133686.311880 kJ/mol
# GULP energy per Si atom -5570.262995 kJ/mol
# Density = 1.917996 g / cm^3
# Si number density = 19.223718 Si / 1000 Ang^3
#
#
#
# Elastic Constant Matrix: (Units=GPa)
#
#
# Indices 1 2 3 4 5 6 
#
# 1 49.8702 39.2507 29.8273 0.0000 0.0000 0.0000
# 2 39.2507 97.4595 32.8102 0.0000 0.0000 0.0000
# 3 29.8273 32.8102 129.7249 0.0000 0.0000 0.0000
# 4 0.0000 0.0000 0.0000 37.0944 0.0000 0.0000
# 5 0.0000 0.0000 0.0000 0.0000 40.9590 0.0000
# 6 0.0000 0.0000 0.0000 0.0000 0.0000 26.0352
#
#
#
# Elastic Compliance Matrix: (Units=1/GPa)
#
#
# Indices 1 2 3 4 5 6 
#
# 1 0.031509 -0.011205 -0.004411 0.000000 0.000000 0.000000
# 2 -0.011205 0.015200 -0.001268 0.000000 0.000000 0.000000
# 3 -0.004411 -0.001268 0.009044 0.000000 0.000000 0.000000
# 4 0.000000 0.000000 0.000000 0.026958 0.000000 0.000000
# 5 0.000000 0.000000 0.000000 0.000000 0.024415 0.000000
# 6 0.000000 0.000000 0.000000 0.000000 0.000000 0.038410
#
#
# Mechanical properties :
#
#
# Convention : Reuss Voigt Hill
#
# Bulk Modulus (GPa) = 45.48556 53.42566 49.45561
# Shear Modulus (GPa) = 26.79074 32.49549 29.64312
#
# Velocity S-wave (km/s) = 3.73718 4.11589 3.93110
# Velocity P-wave (km/s) = 6.50650 7.10206 6.81080
#
# Compressibility (1/GPa) = 0.02198500
#
# Stress axis : x y z
#
# Youngs Moduli (GPa) = 31.73684 65.78822 110.57634
#
# Poissons Ratio (x) = 0.73716 0.48773
# Poissons Ratio (y) = 0.35561 0.14023
# Poissons Ratio (z) = 0.13999 0.08343
#
# Static dielectric constant tensor:
#      x y z
#    x 1.716260 0.000000 0.000000 
#    y 0.000000 1.618050 0.000000 
#    z 0.000000 0.000000 1.641700 
# 
# From -- ./inp_files/21731.got.cif
#   From: 2010.05.17/outbox.cif.g08.bks.cpg/sg22_11_cif.got.tgz:21731.got - 2010.06.03 23:40:54.
