data_PCOD9328087
_publ_section_title
;
Structure prediction by ZEFSAII (Michael W. Deem and Ramdas Pophale) SiO2 
 PCOD9328087
Probable space group: F 2 2 2
;
_chemical_formula_sum "Si O2"
_cell_formula_units_Z 104
_cell_length_a 12.167849
_cell_length_b 24.408844
_cell_length_c 18.457505
_cell_angle_alpha 90.000000
_cell_angle_beta 90.000000
_cell_angle_gamma 90.000000
_cell_volume 5481.936721
_symmetry_space_group_name_H-M "F 2 2 2"
_symmetry_group_IT_number 22
_symmetry_cell_setting 'orthorhombic'
loop_
_space_group_symop_operation_xyz
x,y,z
-x,-y,z
x,-y,-z
-x,y,-z
x,1/2+y,1/2+z
-x,1/2-y,1/2+z
x,1/2-y,1/2-z
-x,1/2+y,1/2-z
1/2+x,y,1/2+z
1/2-x,-y,1/2+z
1/2+x,-y,1/2-z
1/2-x,y,1/2-z
1/2+x,1/2+y,z
1/2-x,1/2-y,z
1/2+x,1/2-y,-z
1/2-x,1/2+y,-z
loop_
_atom_site_type_symbol
_atom_site_label
_atom_site_fract_x
_atom_site_fract_y
_atom_site_fract_z
Si Si1 0.471515 0.267416 0.672721
Si Si2 0.942806 0.946599 0.381760
Si Si3 0.279624 0.500000 0.500000
Si Si4 0.173803 0.386591 0.519162
Si Si5 0.089729 0.152067 0.556770
Si Si6 0.523633 0.149344 0.615456
Si Si7 0.874503 0.360355 0.767538
O O1 0.420420 0.250000 0.750000
O O2 0.397559 0.305316 0.621997
O O3 0.514200 0.214542 0.629602
O O4 0.570684 0.307620 0.695282
O O5 0.881085 0.910482 0.322890
O O6 0.034067 0.905081 0.415657
O O7 0.859912 0.971300 0.441373
O O8 0.000000 0.000000 0.348877
O O9 0.201702 0.450801 0.525852
O O10 0.292635 0.358159 0.521977
O O11 0.111085 0.369374 0.445459
O O12 0.093956 0.369438 0.584657
O O13 0.000000 0.174364 0.500000
O O14 0.559482 0.126701 0.693750
O O15 0.750000 0.347618 0.750000
#
# Coordination Sequence:
#
# PCOD9328087 Si02
#       7
#    16  16   8  16  16  16  16
#     4   9  22  43  65  90 133 170 211 265 330 380
#     4  11  20  39  65  98 125 159 224 269 316 383
#     4  12  21  41  68  90 128 173 207 274 332 370
#     4  11  24  41  66  92 134 166 214 272 323 391
#     4  11  21  38  67 102 120 165 221 271 315 386
#     4  10  24  45  57  97 132 170 214 260 329 400
#     4  10  22  43  65  93 128 172 223 266 319 391
#
# _framework density 18.971397
#
# number of rings (size 3 to 8) (size 9 to 14) (size 15 to 20)
#    0.000    1.538    3.077    1.154    4.308    4.615 
#    5.538    9.231    0.000    0.000    0.000    0.000 
#    0.000    0.000    0.000    0.000    0.000    0.000 
#
# Total GULP energy -145110.360595 kJ/mol
# GULP energy per Si atom -5581.167715 kJ/mol
# Density = 1.892822 g / cm^3
# Si number density = 18.971397 Si / 1000 Ang^3
#
#
#
# Elastic Constant Matrix: (Units=GPa)
#
#
# Indices 1 2 3 4 5 6 
#
# 1 99.9245 28.4016 41.2791 0.0000 0.0000 0.0000
# 2 28.4016 110.0538 62.1788 0.0000 0.0000 0.0000
# 3 41.2791 62.1788 84.4143 0.0000 0.0000 0.0000
# 4 0.0000 0.0000 0.0000 38.7028 0.0000 0.0000
# 5 0.0000 0.0000 0.0000 0.0000 26.3705 0.0000
# 6 0.0000 0.0000 0.0000 0.0000 0.0000 8.8417
#
#
#
# Elastic Compliance Matrix: (Units=1/GPa)
#
#
# Indices 1 2 3 4 5 6 
#
# 1 0.012551 0.000391 -0.006426 0.000000 0.000000 0.000000
# 2 0.000391 0.015576 -0.011664 0.000000 0.000000 0.000000
# 3 -0.006426 -0.011664 0.023580 0.000000 0.000000 0.000000
# 4 0.000000 0.000000 0.000000 0.025838 0.000000 0.000000
# 5 0.000000 0.000000 0.000000 0.000000 0.037921 0.000000
# 6 0.000000 0.000000 0.000000 0.000000 0.000000 0.113100
#
#
# Mechanical properties :
#
#
# Convention : Reuss Voigt Hill
#
# Bulk Modulus (GPa) = 61.31349 62.01240 61.66295
# Shear Modulus (GPa) = 18.55979 25.61854 22.08916
#
# Velocity S-wave (km/s) = 3.13118 3.67873 3.41595
# Velocity P-wave (km/s) = 6.74251 7.12758 6.93772
#
# Compressibility (1/GPa) = 0.01630962
#
# Stress axis : x y z
#
# Youngs Moduli (GPa) = 79.67621 64.20304 42.40812
#
# Poissons Ratio (x) = -0.02514 0.27251
# Poissons Ratio (y) = -0.03119 0.49466
# Poissons Ratio (z) = 0.51198 0.74888
#
# Static dielectric constant tensor:
#      x y z
#    x 1.641950 0.000000 0.000000 
#    y 0.000000 1.662160 0.000000 
#    z 0.000000 0.000000 1.682260 
# 
# From -- ./inp_files/36376.got.cif
#   From: 2010.05.17/outbox.cif.g08.bks.cpg/sg22_19_cif.got.tgz:36376.got - 2010.06.03 23:40:54.
