data_PCOD9328638
_publ_section_title
;
Structure prediction by ZEFSAII (Michael W. Deem and Ramdas Pophale) SiO2 
 PCOD9328638
Probable space group: F 2 2 2
;
_chemical_formula_sum "Si O2"
_cell_formula_units_Z 68
_cell_length_a 5.644503
_cell_length_b 23.899861
_cell_length_c 20.502012
_cell_angle_alpha 90.000000
_cell_angle_beta 90.000000
_cell_angle_gamma 90.000000
_cell_volume 2765.779585
_symmetry_space_group_name_H-M "F 2 2 2"
_symmetry_group_IT_number 22
_symmetry_cell_setting 'orthorhombic'
loop_
_space_group_symop_operation_xyz
x,y,z
-x,-y,z
x,-y,-z
-x,y,-z
x,1/2+y,1/2+z
-x,1/2-y,1/2+z
x,1/2-y,1/2-z
-x,1/2+y,1/2-z
1/2+x,y,1/2+z
1/2-x,-y,1/2+z
1/2+x,-y,1/2-z
1/2-x,y,1/2-z
1/2+x,1/2+y,z
1/2-x,1/2-y,z
1/2+x,1/2-y,-z
1/2-x,1/2+y,-z
loop_
_atom_site_type_symbol
_atom_site_label
_atom_site_fract_x
_atom_site_fract_y
_atom_site_fract_z
Si Si1 0.250000 0.446287 0.250000
Si Si2 0.500000 0.000000 0.500000
Si Si3 0.117698 0.657506 0.113666
Si Si4 0.750000 0.619570 0.750000
Si Si5 0.500000 0.661964 0.000000
Si Si6 0.250000 0.750000 0.591417
Si Si7 0.315814 0.045765 0.106172
O O1 0.501001 0.413892 0.251056
O O2 0.246427 0.474781 0.321122
O O3 0.619483 0.042698 0.551044
O O4 0.258893 0.651497 0.181399
O O5 0.288883 0.644192 0.051813
O O6 0.975997 0.716423 0.120592
O O7 0.926046 0.606918 0.111603
O O8 0.646415 0.701380 0.047769
O O9 0.500000 0.000000 0.081520
#
# Coordination Sequence:
#
# PCOD9328638 Si02
#       7
#     8   4  16   8   8   8  16
#     4  10  26  53  82 115 161 223 271 320 409 508
#     4  12  30  50  72 130 160 210 268 340 412 480
#     4  11  27  50  82 114 163 208 275 338 409 495
#     4  10  26  53  81 120 155 213 274 337 409 474
#     4  12  24  49  76 117 147 208 261 332 402 492
#     4  12  24  48  77 111 152 210 260 320 418 485
#     4  11  29  50  79 118 162 213 268 338 414 486
#
# _framework density 24.586195
#
# number of rings (size 3 to 8) (size 9 to 14) (size 15 to 20)
#    0.000    0.941    2.353    0.353   14.824    6.588 
#    0.000    3.529    0.000    0.000    0.000    0.000 
#    0.000    0.000    0.000    0.000    0.000    0.000 
#
# Total GULP energy -94785.756606 kJ/mol
# GULP energy per Si atom -5575.632742 kJ/mol
# Density = 2.453024 g / cm^3
# Si number density = 24.586195 Si / 1000 Ang^3
#
#
#
# Elastic Constant Matrix: (Units=GPa)
#
#
# Indices 1 2 3 4 5 6 
#
# 1 133.0534 35.9991 65.1145 0.0000 0.0000 0.0000
# 2 35.9991 68.2887 54.0611 0.0000 0.0000 0.0000
# 3 65.1145 54.0611 193.0897 0.0000 0.0000 0.0000
# 4 0.0000 0.0000 0.0000 61.7058 0.0000 0.0000
# 5 0.0000 0.0000 0.0000 0.0000 40.9326 0.0000
# 6 0.0000 0.0000 0.0000 0.0000 0.0000 44.0980
#
#
#
# Elastic Compliance Matrix: (Units=1/GPa)
#
#
# Indices 1 2 3 4 5 6 
#
# 1 0.009510 -0.003179 -0.002317 0.000000 0.000000 0.000000
# 2 -0.003179 0.019876 -0.004493 0.000000 0.000000 0.000000
# 3 -0.002317 -0.004493 0.007218 0.000000 0.000000 0.000000
# 4 0.000000 0.000000 0.000000 0.016206 0.000000 0.000000
# 5 0.000000 0.000000 0.000000 0.000000 0.024430 0.000000
# 6 0.000000 0.000000 0.000000 0.000000 0.000000 0.022677
#
#
# Mechanical properties :
#
#
# Convention : Reuss Voigt Hill
#
# Bulk Modulus (GPa) = 60.14420 78.30903 69.22662
# Shear Modulus (GPa) = 39.86054 45.29774 42.57914
#
# Velocity S-wave (km/s) = 4.03085 4.29698 4.16604
# Velocity P-wave (km/s) = 6.79554 7.51922 7.16652
#
# Compressibility (1/GPa) = 0.01662671
#
# Stress axis : x y z
#
# Youngs Moduli (GPa) = 105.15533 50.31085 138.53925
#
# Poissons Ratio (x) = 0.15994 0.32098
# Poissons Ratio (y) = 0.33429 0.62245
# Poissons Ratio (z) = 0.24363 0.22604
#
# Static dielectric constant tensor:
#      x y z
#    x 1.999250 0.000000 0.000000 
#    y 0.000000 2.099000 0.000000 
#    z 0.000000 0.000000 1.922950 
# 
# From -- ./inp_files/5439.got.cif
#   From: 2010.05.17/outbox.cif.g08.bks.cpg/sg22_3_cif.got.tgz:5439.got - 2010.06.03 23:40:54.
