data_PCOD9328829
_publ_section_title
;
Structure prediction by ZEFSAII (Michael W. Deem and Ramdas Pophale) SiO2 
 PCOD9328829
Probable space group: F 2 2 2
;
_chemical_formula_sum "Si O2"
_cell_formula_units_Z 80
_cell_length_a 8.957532
_cell_length_b 13.171603
_cell_length_c 28.190752
_cell_angle_alpha 90.000000
_cell_angle_beta 90.000000
_cell_angle_gamma 90.000000
_cell_volume 3326.087435
_symmetry_space_group_name_H-M "F 2 2 2"
_symmetry_group_IT_number 22
_symmetry_cell_setting 'orthorhombic'
loop_
_space_group_symop_operation_xyz
x,y,z
-x,-y,z
x,-y,-z
-x,y,-z
x,1/2+y,1/2+z
-x,1/2-y,1/2+z
x,1/2-y,1/2-z
-x,1/2+y,1/2-z
1/2+x,y,1/2+z
1/2-x,-y,1/2+z
1/2+x,-y,1/2-z
1/2-x,y,1/2-z
1/2+x,1/2+y,z
1/2-x,1/2-y,z
1/2+x,1/2-y,-z
1/2-x,1/2+y,-z
loop_
_atom_site_type_symbol
_atom_site_label
_atom_site_fract_x
_atom_site_fract_y
_atom_site_fract_z
Si Si1 0.941994 0.617116 0.949720
Si Si2 0.394642 0.367221 0.810445
Si Si3 0.854858 0.539045 0.589192
Si Si4 0.661793 0.852669 0.129418
Si Si5 0.942744 0.127330 0.291850
O O1 0.765741 0.608248 0.938636
O O2 0.000000 0.500000 0.948185
O O3 0.030602 0.672559 0.908053
O O4 0.000000 0.657821 0.000000
O O5 0.418909 0.404109 0.863816
O O6 0.226367 0.406222 0.801220
O O7 0.416457 0.246530 0.805241
O O8 0.484004 0.395006 0.762578
O O9 0.764932 0.439079 0.606404
O O10 0.000000 0.500000 0.561404
O O11 0.750000 0.750000 0.141634
O O12 0.576375 0.901062 0.173899
#
# Coordination Sequence:
#
# PCOD9328829 Si02
#       5
#    16  16  16  16  16
#     4   9  20  42  67  89 123 170 212 271 342 396
#     4   9  18  36  60  90 121 169 214 256 314 368
#     4  11  22  40  63  98 129 167 221 268 328 397
#     4  11  22  40  63  91 130 174 216 265 325 391
#     4   9  18  36  60  86 127 168 211 257 310 373
#
# _framework density 24.052284
#
# number of rings (size 3 to 8) (size 9 to 14) (size 15 to 20)
#    0.000    2.200    2.000    2.400    0.000    0.000 
#    7.200   18.000    0.000    0.000    0.000    0.000 
#    0.000    0.000    0.000    0.000    0.000    0.000 
#
# Total GULP energy -111547.941128 kJ/mol
# GULP energy per Si atom -5577.397056 kJ/mol
# Density = 2.399754 g / cm^3
# Si number density = 24.052284 Si / 1000 Ang^3
#
#
#
# Elastic Constant Matrix: (Units=GPa)
#
#
# Indices 1 2 3 4 5 6 
#
# 1 152.0733 19.6722 67.7278 0.0000 0.0000 0.0000
# 2 19.6722 87.1369 10.9916 0.0000 0.0000 0.0000
# 3 67.7278 10.9916 138.7292 0.0000 0.0000 0.0000
# 4 0.0000 0.0000 0.0000 19.7464 0.0000 0.0000
# 5 0.0000 0.0000 0.0000 0.0000 -14.0709 0.0000
# 6 0.0000 0.0000 0.0000 0.0000 0.0000 27.6252
#
#
#
# Elastic Compliance Matrix: (Units=1/GPa)
#
#
# Indices 1 2 3 4 5 6 
#
# 1 0.008574 -0.001422 -0.004073 0.000000 0.000000 0.000000
# 2 -0.001422 0.011828 -0.000243 0.000000 0.000000 0.000000
# 3 -0.004073 -0.000243 0.009216 0.000000 0.000000 0.000000
# 4 0.000000 0.000000 0.000000 0.050642 0.000000 0.000000
# 5 0.000000 0.000000 0.000000 0.000000 -0.071069 0.000000
# 6 0.000000 0.000000 0.000000 0.000000 0.000000 0.036199
#
#
# Mechanical properties :
#
#
# Convention : Reuss Voigt Hill
#
# Bulk Modulus (GPa) = 55.12125 63.85806 59.48965
# Shear Modulus (GPa) = 79.47523 25.29666 52.38595
#
# Velocity S-wave (km/s) = 5.75451 3.24657 4.67197
# Velocity P-wave (km/s) = 8.19265 6.37659 7.34100
#
# Compressibility (1/GPa) = 0.01814182
#
# Stress axis : x y z
#
# Youngs Moduli (GPa) = 116.63597 84.54632 108.50691
#
# Poissons Ratio (x) = 0.12021 0.44195
# Poissons Ratio (y) = 0.16584 0.02637
# Poissons Ratio (z) = 0.47506 0.02054
#
# Static dielectric constant tensor:
#      x y z
#    x 1.948070 0.000000 0.000000 
#    y 0.000000 1.991290 0.000000 
#    z 0.000000 0.000000 1.966110 
# 
# From -- ./inp_files/51764.got.cif
#   From: 2010.05.17/outbox.cif.g08.bks.cpg/sg22_26_cif.got.tgz:51764.got - 2010.06.03 23:40:54.
