data_PCOD9328496
_publ_section_title
;
Structure prediction by ZEFSAII (Michael W. Deem and Ramdas Pophale) SiO2 
 PCOD9328496
Probable space group: F 2 2 2
;
_chemical_formula_sum "Si O2"
_cell_formula_units_Z 68
_cell_length_a 18.058590
_cell_length_b 8.142742
_cell_length_c 21.432639
_cell_angle_alpha 90.000000
_cell_angle_beta 90.000000
_cell_angle_gamma 90.000000
_cell_volume 3151.593249
_symmetry_space_group_name_H-M "F 2 2 2"
_symmetry_group_IT_number 22
_symmetry_cell_setting 'orthorhombic'
loop_
_space_group_symop_operation_xyz
x,y,z
-x,-y,z
x,-y,-z
-x,y,-z
x,1/2+y,1/2+z
-x,1/2-y,1/2+z
x,1/2-y,1/2-z
-x,1/2+y,1/2-z
1/2+x,y,1/2+z
1/2-x,-y,1/2+z
1/2+x,-y,1/2-z
1/2-x,y,1/2-z
1/2+x,1/2+y,z
1/2-x,1/2-y,z
1/2+x,1/2-y,-z
1/2-x,1/2+y,-z
loop_
_atom_site_type_symbol
_atom_site_label
_atom_site_fract_x
_atom_site_fract_y
_atom_site_fract_z
Si Si1 0.573162 0.116549 0.427195
Si Si2 0.985008 0.692026 0.814299
Si Si3 0.139511 0.659398 0.649367
Si Si4 0.167561 0.185287 0.476740
Si Si5 0.250000 0.250000 0.250000
O O1 0.555261 0.260043 0.378076
O O2 0.607209 0.198612 0.488736
O O3 0.500000 0.000000 0.433787
O O4 0.632541 0.002716 0.392138
O O5 0.947153 0.750000 0.750000
O O6 0.061320 0.795171 0.819659
O O7 0.000000 0.500000 0.811367
O O8 0.157521 0.798671 0.597850
O O9 0.198531 0.646946 0.703858
O O10 0.250000 0.250000 0.491875
O O11 0.158665 0.000000 0.500000
#
# Coordination Sequence:
#
# PCOD9328496 Si02
#       5
#    16  16  16  16   4
#     4  10  24  45  68 101 134 175 227 285 340 405
#     4  11  22  40  65  95 133 176 225 275 333 399
#     4  11  23  42  69  95 132 177 220 278 335 401
#     4  12  25  44  69 102 139 181 228 282 347 408
#     4  12  24  40  68  98 132 176 218 264 336 396
#
# _framework density 21.576388000000001
#
# number of rings (size 3 to 8) (size 9 to 14) (size 15 to 20)
#    0.000    0.941    2.353    5.647    0.000    6.588 
#    0.000    5.882    0.000    2.824    0.000    0.000 
#    0.000    0.000    0.000    0.000    0.000    0.000 
#
# Total GULP energy -95070.863852 kJ/mol
# GULP energy per Si atom -5592.403756 kJ/mol
# Density = 2.152728 g / cm^3
# Si number density = 21.576388 Si / 1000 Ang^3
#
#
#
# Elastic Constant Matrix: (Units=GPa)
#
#
# Indices 1 2 3 4 5 6 
#
# 1 67.0868 -1.1497 34.3136 0.0000 0.0000 0.0000
# 2 -1.1497 95.8558 29.0945 0.0000 0.0000 0.0000
# 3 34.3136 29.0945 156.5601 0.0000 0.0000 0.0000
# 4 0.0000 0.0000 0.0000 28.3946 0.0000 0.0000
# 5 0.0000 0.0000 0.0000 0.0000 44.9160 0.0000
# 6 0.0000 0.0000 0.0000 0.0000 0.0000 22.5532
#
#
#
# Elastic Compliance Matrix: (Units=1/GPa)
#
#
# Indices 1 2 3 4 5 6 
#
# 1 0.016966 0.001412 -0.003981 0.000000 0.000000 0.000000
# 2 0.001412 0.011173 -0.002386 0.000000 0.000000 0.000000
# 3 -0.003981 -0.002386 0.007703 0.000000 0.000000 0.000000
# 4 0.000000 0.000000 0.000000 0.035218 0.000000 0.000000
# 5 0.000000 0.000000 0.000000 0.000000 0.022264 0.000000
# 6 0.000000 0.000000 0.000000 0.000000 0.000000 0.044340
#
#
# Mechanical properties :
#
#
# Convention : Reuss Voigt Hill
#
# Bulk Modulus (GPa) = 38.56075 49.33550 43.94812
# Shear Modulus (GPa) = 32.00641 36.32239 34.16440
#
# Velocity S-wave (km/s) = 3.85567 4.10742 3.98353
# Velocity P-wave (km/s) = 6.14265 6.73867 6.44755
#
# Compressibility (1/GPa) = 0.02593311
#
# Stress axis : x y z
#
# Youngs Moduli (GPa) = 58.93995 89.49801 129.81603
#
# Poissons Ratio (x) = -0.12635 0.51679
# Poissons Ratio (y) = -0.08321 0.30972
# Poissons Ratio (z) = 0.23464 0.21353
#
# Static dielectric constant tensor:
#      x y z
#    x 1.825680 0.000000 0.000000 
#    y 0.000000 1.768490 0.000000 
#    z 0.000000 0.000000 1.818240 
# 
# From -- ./inp_files/11255.got.cif
#   From: 2010.05.17/outbox.cif.g08.bks.cpg/sg22_6_cif.got.tgz:11255.got - 2010.06.03 23:40:54.
