data_PCOD9328064
_publ_section_title
;
Structure prediction by ZEFSAII (Michael W. Deem and Ramdas Pophale) SiO2 
 PCOD9328064
Probable space group: F 2 2 2
;
_chemical_formula_sum "Si O2"
_cell_formula_units_Z 64
_cell_length_a 18.069278
_cell_length_b 7.519208
_cell_length_c 20.454800
_cell_angle_alpha 90.000000
_cell_angle_beta 90.000000
_cell_angle_gamma 90.000000
_cell_volume 2779.125351
_symmetry_space_group_name_H-M "F 2 2 2"
_symmetry_group_IT_number 22
_symmetry_cell_setting 'orthorhombic'
loop_
_space_group_symop_operation_xyz
x,y,z
-x,-y,z
x,-y,-z
-x,y,-z
x,1/2+y,1/2+z
-x,1/2-y,1/2+z
x,1/2-y,1/2-z
-x,1/2+y,1/2-z
1/2+x,y,1/2+z
1/2-x,-y,1/2+z
1/2+x,-y,1/2-z
1/2-x,y,1/2-z
1/2+x,1/2+y,z
1/2-x,1/2-y,z
1/2+x,1/2-y,-z
1/2-x,1/2+y,-z
loop_
_atom_site_type_symbol
_atom_site_label
_atom_site_fract_x
_atom_site_fract_y
_atom_site_fract_z
Si Si1 0.084923 0.056977 0.782419
Si Si2 0.204943 0.062293 0.304792
Si Si3 0.679322 0.622594 0.440043
Si Si4 0.912749 0.544777 0.426108
O O1 0.091213 0.250000 0.750000
O O2 0.126548 0.930622 0.730715
O O3 0.114578 0.044007 0.857718
O O4 0.000000 0.000000 0.786205
O O5 0.250000 0.956257 0.250000
O O6 0.250000 0.250000 0.312461
O O7 0.198269 0.999369 0.378071
O O8 0.660260 0.500000 0.500000
O O9 0.750000 0.750000 0.454179
O O10 0.611712 0.750270 0.419352
O O11 0.883913 0.500000 0.500000
O O12 0.000000 0.500000 0.428499
#
# Coordination Sequence:
#
# PCOD9328064 Si02
#       4
#    16  16  16  16
#     4  11  26  42  73 108 144 189 243 298 368 439
#     4  10  22  42  71  96 138 183 236 299 364 422
#     4  11  24  43  73 101 140 189 244 300 371 436
#     4  10  23  43  66  98 146 185 231 297 360 428
#
# _framework density 23.028829000000002
#
# number of rings (size 3 to 8) (size 9 to 14) (size 15 to 20)
#    0.000    1.500    0.000    5.250   14.000    0.500 
#    0.000    2.500    0.000    0.000    0.000    0.000 
#    0.000    0.000    0.000    0.000    0.000    0.000 
#
# Total GULP energy -89172.974000 kJ/mol
# GULP energy per Si atom -5573.310875 kJ/mol
# Density = 2.297641 g / cm^3
# Si number density = 23.028829 Si / 1000 Ang^3
#
#
#
# Elastic Constant Matrix: (Units=GPa)
#
#
# Indices 1 2 3 4 5 6 
#
# 1 91.9805 27.6070 20.6405 0.0000 0.0000 0.0000
# 2 27.6070 106.3630 63.0903 0.0000 0.0000 0.0000
# 3 20.6405 63.0903 249.8108 0.0000 0.0000 0.0000
# 4 0.0000 0.0000 0.0000 23.5186 0.0000 0.0000
# 5 0.0000 0.0000 0.0000 0.0000 20.3724 0.0000
# 6 0.0000 0.0000 0.0000 0.0000 0.0000 29.2715
#
#
#
# Elastic Compliance Matrix: (Units=1/GPa)
#
#
# Indices 1 2 3 4 5 6 
#
# 1 0.011802 -0.002923 -0.000237 0.000000 0.000000 0.000000
# 2 -0.002923 0.011782 -0.002734 0.000000 0.000000 0.000000
# 3 -0.000237 -0.002734 0.004713 0.000000 0.000000 0.000000
# 4 0.000000 0.000000 0.000000 0.042519 0.000000 0.000000
# 5 0.000000 0.000000 0.000000 0.000000 0.049086 0.000000
# 6 0.000000 0.000000 0.000000 0.000000 0.000000 0.034163
#
#
# Mechanical properties :
#
#
# Convention : Reuss Voigt Hill
#
# Bulk Modulus (GPa) = 60.57010 74.53666 67.55338
# Shear Modulus (GPa) = 29.17885 37.08694 33.13289
#
# Velocity S-wave (km/s) = 3.56344 4.01740 3.79721
# Velocity P-wave (km/s) = 6.57949 7.34550 6.97302
#
# Compressibility (1/GPa) = 0.01650979
#
# Stress axis : x y z
#
# Youngs Moduli (GPa) = 84.72927 84.87412 212.17361
#
# Poissons Ratio (x) = 0.24807 0.05029
# Poissons Ratio (y) = 0.24764 0.58011
# Poissons Ratio (z) = 0.02008 0.23206
#
# Static dielectric constant tensor:
#      x y z
#    x 1.989900 0.000000 0.000000 
#    y 0.000000 1.924170 0.000000 
#    z 0.000000 0.000000 1.940700 
# 
# From -- ./inp_files/43940.got.cif
#   From: 2010.05.17/outbox.cif.g08.bks.cpg/sg22_22_cif.got.tgz:43940.got - 2010.06.03 23:40:54.
