data_PCOD9328678
_publ_section_title
;
Structure prediction by ZEFSAII (Michael W. Deem and Ramdas Pophale) SiO2 
 PCOD9328678
Probable space group: F 2 2 2
;
_chemical_formula_sum "Si O2"
_cell_formula_units_Z 80
_cell_length_a 18.734766
_cell_length_b 24.591784
_cell_length_c 7.917855
_cell_angle_alpha 90.000000
_cell_angle_beta 90.000000
_cell_angle_gamma 90.000000
_cell_volume 3647.924597
_symmetry_space_group_name_H-M "F 2 2 2"
_symmetry_group_IT_number 22
_symmetry_cell_setting 'orthorhombic'
loop_
_space_group_symop_operation_xyz
x,y,z
-x,-y,z
x,-y,-z
-x,y,-z
x,1/2+y,1/2+z
-x,1/2-y,1/2+z
x,1/2-y,1/2-z
-x,1/2+y,1/2-z
1/2+x,y,1/2+z
1/2-x,-y,1/2+z
1/2+x,-y,1/2-z
1/2-x,y,1/2-z
1/2+x,1/2+y,z
1/2-x,1/2-y,z
1/2+x,1/2-y,-z
1/2-x,1/2+y,-z
loop_
_atom_site_type_symbol
_atom_site_label
_atom_site_fract_x
_atom_site_fract_y
_atom_site_fract_z
Si Si1 0.211883 0.557555 0.071549
Si Si2 0.250000 0.366836 0.250000
Si Si3 0.123321 0.706293 0.612595
Si Si4 0.941196 0.411203 0.148975
Si Si5 0.926330 0.711419 0.897390
Si Si6 0.000000 0.122285 0.000000
O O1 0.250000 0.572119 0.250000
O O2 0.127736 0.552203 0.116358
O O3 0.239437 0.500000 0.000000
O O4 0.224686 0.598171 0.913130
O O5 0.187077 0.328408 0.315230
O O6 0.098575 0.750000 0.750000
O O7 0.137372 0.750933 0.468321
O O8 0.063583 0.663015 0.556362
O O9 0.907615 0.350103 0.141724
O O10 0.976809 0.412379 0.335257
O O11 0.000000 0.418005 0.000000
O O12 0.950339 0.750000 0.750000
O O13 0.000000 0.705187 0.000000
#
# Coordination Sequence:
#
# PCOD9328678 Si02
#       6
#    16   8  16  16  16   8
#     4  12  27  51  78  98 131 185 239 297 377 440
#     4  12  27  50  68 100 142 186 237 298 354 428
#     4  12  23  39  66  98 145 190 226 274 336 407
#     4  11  24  42  71 106 143 178 231 293 343 413
#     4  11  19  34  61 102 141 184 225 270 334 406
#     4  12  22  40  68 107 144 186 233 276 342 410
#
# _framework density 21.930275999999999
#
# number of rings (size 3 to 8) (size 9 to 14) (size 15 to 20)
#    0.000    0.400    4.000    6.900    0.000    0.400 
#    0.000    0.000    0.000    1.200    0.000    0.000 
#    0.000    0.000    0.000    0.000    0.000    0.000 
#
# Total GULP energy -111499.848750 kJ/mol
# GULP energy per Si atom -5574.992438 kJ/mol
# Density = 2.188036 g / cm^3
# Si number density = 21.930276 Si / 1000 Ang^3
#
#
#
# Elastic Constant Matrix: (Units=GPa)
#
#
# Indices 1 2 3 4 5 6 
#
# 1 109.9019 14.7500 54.1491 0.0000 0.0002 0.0001
# 2 14.7500 40.4350 20.8699 -0.0001 -0.0001 0.0000
# 3 54.1491 20.8699 148.0765 0.0002 0.0008 0.0003
# 4 0.0000 -0.0001 0.0002 4.5743 -0.0002 -0.0003
# 5 0.0002 -0.0001 0.0008 -0.0002 42.7761 -0.0002
# 6 0.0001 0.0000 0.0003 -0.0003 -0.0002 31.3806
#
#
#
# Elastic Compliance Matrix: (Units=1/GPa)
#
#
# Indices 1 2 3 4 5 6 
#
# 1 0.011268 -0.002139 -0.003819 0.000000 0.000000 0.000000
# 2 -0.002139 0.027077 -0.003034 0.000001 0.000000 0.000000
# 3 -0.003819 -0.003034 0.008577 0.000000 0.000000 0.000000
# 4 0.000000 0.000001 0.000000 0.218614 0.000001 0.000002
# 5 0.000000 0.000000 0.000000 0.000001 0.023378 0.000000
# 6 0.000000 0.000000 0.000000 0.000002 0.000000 0.031867
#
#
# Mechanical properties :
#
#
# Convention : Reuss Voigt Hill
#
# Bulk Modulus (GPa) = 34.55640 53.10572 43.83106
# Shear Modulus (GPa) = 14.35087 29.65581 22.00334
#
# Velocity S-wave (km/s) = 2.56087 3.68132 3.17098
# Velocity P-wave (km/s) = 4.95335 6.50675 5.78245
#
# Compressibility (1/GPa) = 0.02893820
#
# Stress axis : x y z
#
# Youngs Moduli (GPa) = 88.74904 36.93123 116.58552
#
# Poissons Ratio (x) = 0.07900 0.44523
# Poissons Ratio (y) = 0.18985 0.35372
# Poissons Ratio (z) = 0.33893 0.11205
#
# Static dielectric constant tensor:
#      x y z
#    x 1.792470 0.000000 0.000000 
#    y 0.000000 1.810410 0.000000 
#    z 0.000000 0.000000 1.240740 
# 
# From -- ./inp_files/11767.got.cif
#   From: 2010.05.17/outbox.cif.g08.bks.cpg/sg22_6_cif.got.tgz:11767.got - 2010.06.03 23:40:54.
