data_PCOD9328479
_publ_section_title
;
Structure prediction by ZEFSAII (Michael W. Deem and Ramdas Pophale) SiO2 
 PCOD9328479
Probable space group: F 2 2 2
;
_chemical_formula_sum "Si O2"
_cell_formula_units_Z 108
_cell_length_a 26.598636
_cell_length_b 12.830692
_cell_length_c 14.931628
_cell_angle_alpha 90.000000
_cell_angle_beta 90.000000
_cell_angle_gamma 90.000000
_cell_volume 5095.849671
_symmetry_space_group_name_H-M "F 2 2 2"
_symmetry_group_IT_number 22
_symmetry_cell_setting 'orthorhombic'
loop_
_space_group_symop_operation_xyz
x,y,z
-x,-y,z
x,-y,-z
-x,y,-z
x,1/2+y,1/2+z
-x,1/2-y,1/2+z
x,1/2-y,1/2-z
-x,1/2+y,1/2-z
1/2+x,y,1/2+z
1/2-x,-y,1/2+z
1/2+x,-y,1/2-z
1/2-x,y,1/2-z
1/2+x,1/2+y,z
1/2-x,1/2-y,z
1/2+x,1/2-y,-z
1/2-x,1/2+y,-z
loop_
_atom_site_type_symbol
_atom_site_label
_atom_site_fract_x
_atom_site_fract_y
_atom_site_fract_z
Si Si1 0.442752 0.846460 0.515125
Si Si2 0.916553 0.616425 0.003770
Si Si3 0.116652 0.639495 0.200584
Si Si4 0.560871 0.483293 0.150636
Si Si5 0.689401 0.858950 0.090743
Si Si6 0.750000 0.750000 0.556889
Si Si7 0.750000 0.750000 0.250000
Si Si8 0.727701 0.938630 0.839936
O O1 0.500000 0.879544 0.500000
O O2 0.443145 0.723564 0.532021
O O3 0.422241 0.910503 0.600194
O O4 0.422324 0.893345 0.421594
O O5 0.902988 0.640346 0.900734
O O6 0.939285 0.500000 0.000000
O O7 0.868318 0.613052 0.070440
O O8 0.109546 0.750000 0.250000
O O9 0.087997 0.550969 0.258467
O O10 0.175240 0.613124 0.188877
O O11 0.500000 0.500000 0.165637
O O12 0.710693 0.806115 0.181075
O O13 0.717862 0.968861 0.092077
O O14 0.705601 0.785876 0.008381
O O15 0.761830 0.651453 0.618378
O O16 0.750000 0.984439 0.750000
#
# Coordination Sequence:
#
# PCOD9328479 Si02
#       8
#    16  16  16  16  16   8   4  16
#     4   9  20  42  70  95 129 175 222 272 327 398
#     4  12  23  42  64  94 136 174 210 275 346 400
#     4  12  23  41  67 100 135 172 218 279 335 396
#     4   9  20  43  70  98 130 172 224 275 328 399
#     4  11  23  43  64  87 128 171 217 270 336 388
#     4  11  21  39  63  88 120 164 211 257 321 375
#     4  10  24  44  66  90 122 176 222 284 328 400
#     4  12  24  41  64  93 125 172 223 267 318 390
#
# _framework density 21.193716999999999
#
# number of rings (size 3 to 8) (size 9 to 14) (size 15 to 20)
#    0.000    1.185    5.185    2.444    0.000    1.481 
#    2.667    0.000    0.000    0.000    0.000    0.000 
#    0.000    0.000    0.000    0.000    0.000    0.000 
#
# Total GULP energy -150397.157045 kJ/mol
# GULP energy per Si atom -5570.265076 kJ/mol
# Density = 2.114548 g / cm^3
# Si number density = 21.193717 Si / 1000 Ang^3
#
#
#
# Elastic Constant Matrix: (Units=GPa)
#
#
# Indices 1 2 3 4 5 6 
#
# 1 24.6593 27.7267 24.5516 0.0000 0.0000 0.0000
# 2 27.7267 145.6134 40.8862 0.0000 0.0000 0.0000
# 3 24.5516 40.8862 125.2255 0.0000 0.0000 0.0000
# 4 0.0000 0.0000 0.0000 85.8603 0.0000 0.0000
# 5 0.0000 0.0000 0.0000 0.0000 -62.8507 0.0000
# 6 0.0000 0.0000 0.0000 0.0000 0.0000 70.7910
#
#
#
# Elastic Compliance Matrix: (Units=1/GPa)
#
#
# Indices 1 2 3 4 5 6 
#
# 1 0.059142 -0.008814 -0.008718 0.000000 0.000000 0.000000
# 2 -0.008814 0.008874 -0.001169 0.000000 0.000000 0.000000
# 3 -0.008718 -0.001169 0.010077 0.000000 0.000000 0.000000
# 4 0.000000 0.000000 0.000000 0.011647 0.000000 0.000000
# 5 0.000000 0.000000 0.000000 0.000000 -0.015911 0.000000
# 6 0.000000 0.000000 0.000000 0.000000 0.000000 0.014126
#
#
# Mechanical properties :
#
#
# Convention : Reuss Voigt Hill
#
# Bulk Modulus (GPa) = 24.57525 53.53636 39.05581
# Shear Modulus (GPa) = 35.99188 32.24905 34.12047
#
# Velocity S-wave (km/s) = 4.12543 3.90504 4.01675
# Velocity P-wave (km/s) = 5.85773 6.75632 6.32300
#
# Compressibility (1/GPa) = 0.04069134
#
# Stress axis : x y z
#
# Youngs Moduli (GPa) = 16.90842 112.68773 99.23994
#
# Poissons Ratio (x) = 0.99319 0.86514
# Poissons Ratio (y) = 0.14902 0.11605
# Poissons Ratio (z) = 0.14740 0.13178
#
# Static dielectric constant tensor:
#      x y z
#    x 1.764110 0.000000 0.000000 
#    y 0.000000 1.807930 0.000000 
#    z 0.000000 0.000000 1.775040 
# 
# From -- ./inp_files/33545.got.cif
#   From: 2010.05.17/outbox.cif.g08.bks.cpg/sg22_17_cif.got.tgz:33545.got - 2010.06.03 23:40:54.
