data_PCOD9328251
_publ_section_title
;
Structure prediction by ZEFSAII (Michael W. Deem and Ramdas Pophale) SiO2 
 PCOD9328251
Probable space group: F 2 2 2
;
_chemical_formula_sum "Si O2"
_cell_formula_units_Z 120
_cell_length_a 26.396398
_cell_length_b 7.629345
_cell_length_c 27.512462
_cell_angle_alpha 90.000000
_cell_angle_beta 90.000000
_cell_angle_gamma 90.000000
_cell_volume 5540.658433
_symmetry_space_group_name_H-M "F 2 2 2"
_symmetry_group_IT_number 22
_symmetry_cell_setting 'orthorhombic'
loop_
_space_group_symop_operation_xyz
x,y,z
-x,-y,z
x,-y,-z
-x,y,-z
x,1/2+y,1/2+z
-x,1/2-y,1/2+z
x,1/2-y,1/2-z
-x,1/2+y,1/2-z
1/2+x,y,1/2+z
1/2-x,-y,1/2+z
1/2+x,-y,1/2-z
1/2-x,y,1/2-z
1/2+x,1/2+y,z
1/2-x,1/2-y,z
1/2+x,1/2-y,-z
1/2-x,1/2+y,-z
loop_
_atom_site_type_symbol
_atom_site_label
_atom_site_fract_x
_atom_site_fract_y
_atom_site_fract_z
Si Si1 0.086310 0.433848 0.771324
Si Si2 0.500000 0.500000 0.659525
Si Si3 0.126415 0.094870 0.175121
Si Si4 0.032789 0.772844 0.429265
Si Si5 0.263377 0.545580 0.195601
Si Si6 0.574419 0.410208 0.927007
Si Si7 0.338266 0.484034 0.346142
Si Si8 0.115693 0.047348 0.449278
O O1 0.066089 0.250000 0.750000
O O2 0.100526 0.548661 0.725473
O O3 0.135137 0.393056 0.805520
O O4 0.046853 0.532947 0.805569
O O5 0.519295 0.658824 0.625406
O O6 0.088390 0.064193 0.130066
O O7 0.141992 0.295219 0.170009
O O8 0.180142 0.992170 0.177557
O O9 0.070736 0.612794 0.442401
O O10 0.978834 0.683281 0.441067
O O11 0.060788 0.946219 0.449572
O O12 0.250000 0.474601 0.250000
O O13 0.250000 0.750000 0.197574
O O14 0.221630 0.474956 0.158426
O O15 0.612090 0.257926 0.944710
O O16 0.358064 0.521346 0.400110
O O17 0.141034 0.000000 0.500000
#
# Coordination Sequence:
#
# PCOD9328251 Si02
#       8
#    16   8  16  16  16  16  16  16
#     4  12  24  37  59  89 133 182 226 272 336 423
#     4  12  22  40  57  92 134 194 219 278 344 414
#     4  11  23  39  61  93 132 172 218 272 332 415
#     4  11  21  41  65  89 139 172 230 273 333 408
#     4  11  23  38  65  96 127 170 222 269 339 410
#     4  10  23  40  65 100 129 176 224 282 332 401
#     4  11  23  42  64  93 133 169 222 283 344 403
#     4  11  24  45  71  96 134 177 227 289 349 404
#
# _framework density 21.658076000000001
#
# number of rings (size 3 to 8) (size 9 to 14) (size 15 to 20)
#    0.000    0.933    4.000    3.200    1.867    5.333 
#    0.000    1.333    0.000    3.200    0.000    0.000 
#    0.000    0.000    0.000    0.000    0.000    0.000 
#
# Total GULP energy -167303.373454 kJ/mol
# GULP energy per Si atom -5576.779115 kJ/mol
# Density = 2.160878 g / cm^3
# Si number density = 21.658076 Si / 1000 Ang^3
#
#
#
# Elastic Constant Matrix: (Units=GPa)
#
#
# Indices 1 2 3 4 5 6 
#
# 1 53.6631 21.4684 13.4970 -0.0001 0.0001 0.0001
# 2 21.4684 95.8968 33.4235 0.0000 0.0001 -0.0001
# 3 13.4970 33.4235 125.9805 -0.0001 0.0000 0.0000
# 4 -0.0001 0.0000 -0.0001 13.4625 0.0000 0.0001
# 5 0.0001 0.0001 0.0000 0.0000 10.1656 -0.0001
# 6 0.0001 -0.0001 0.0000 0.0001 -0.0001 19.2821
#
#
#
# Elastic Compliance Matrix: (Units=1/GPa)
#
#
# Indices 1 2 3 4 5 6 
#
# 1 0.020601 -0.004234 -0.001084 0.000000 0.000000 0.000000
# 2 -0.004234 0.012361 -0.002826 0.000000 0.000000 0.000000
# 3 -0.001084 -0.002826 0.008804 0.000000 0.000000 0.000000
# 4 0.000000 0.000000 0.000000 0.074280 0.000000 0.000000
# 5 0.000000 0.000000 0.000000 0.000000 0.098371 0.000000
# 6 0.000000 0.000000 0.000000 0.000000 0.000000 0.051862
#
#
# Mechanical properties :
#
#
# Convention : Reuss Voigt Hill
#
# Bulk Modulus (GPa) = 39.24957 45.81314 42.53136
# Shear Modulus (GPa) = 17.17865 22.39213 19.78539
#
# Velocity S-wave (km/s) = 2.81939 3.21891 3.02575
# Velocity P-wave (km/s) = 5.36287 5.91726 5.64687
#
# Compressibility (1/GPa) = 0.02547799
#
# Stress axis : x y z
#
# Youngs Moduli (GPa) = 48.54052 80.90172 113.59085
#
# Poissons Ratio (x) = 0.34256 0.12311
# Poissons Ratio (y) = 0.20554 0.32098
# Poissons Ratio (z) = 0.05261 0.22861
#
# Static dielectric constant tensor:
#      x y z
#    x 1.915020 0.000000 0.000000 
#    y 0.000000 1.851760 0.000000 
#    z 0.000000 0.000000 1.825970 
# 
# From -- ./inp_files/54380.got.cif
#   From: 2010.05.17/outbox.cif.g08.bks.cpg/sg22_28_cif.got.tgz:54380.got - 2010.06.03 23:40:54.
