data_PCOD9328227
_publ_section_title
;
Structure prediction by ZEFSAII (Michael W. Deem and Ramdas Pophale) SiO2 
 PCOD9328227
Probable space group: F 2 2 2
;
_chemical_formula_sum "Si O2"
_cell_formula_units_Z 92
_cell_length_a 19.152851
_cell_length_b 9.163827
_cell_length_c 21.638389
_cell_angle_alpha 90.000000
_cell_angle_beta 90.000000
_cell_angle_gamma 90.000000
_cell_volume 3797.827508
_symmetry_space_group_name_H-M "F 2 2 2"
_symmetry_group_IT_number 22
_symmetry_cell_setting 'orthorhombic'
loop_
_space_group_symop_operation_xyz
x,y,z
-x,-y,z
x,-y,-z
-x,y,-z
x,1/2+y,1/2+z
-x,1/2-y,1/2+z
x,1/2-y,1/2-z
-x,1/2+y,1/2-z
1/2+x,y,1/2+z
1/2-x,-y,1/2+z
1/2+x,-y,1/2-z
1/2-x,y,1/2-z
1/2+x,1/2+y,z
1/2-x,1/2-y,z
1/2+x,1/2-y,-z
1/2-x,1/2+y,-z
loop_
_atom_site_type_symbol
_atom_site_label
_atom_site_fract_x
_atom_site_fract_y
_atom_site_fract_z
Si Si1 0.889335 0.735698 0.970614
Si Si2 0.409620 0.732887 0.887418
Si Si3 0.724626 0.500000 0.500000
Si Si4 0.043030 0.641072 0.145430
Si Si5 0.750000 0.250000 0.750000
Si Si6 0.674686 0.008053 0.830857
Si Si7 0.815258 0.980703 0.890775
O O1 0.822923 0.631489 0.978363
O O2 0.942527 0.644365 0.928510
O O3 0.863358 0.862132 0.924038
O O4 0.915870 0.786198 0.037793
O O5 0.483589 0.734973 0.851735
O O6 0.367626 0.886052 0.879245
O O7 0.363364 0.602054 0.860742
O O8 0.774978 0.559177 0.447129
O O9 0.117552 0.620306 0.179263
O O10 0.000000 0.500000 0.165101
O O11 0.699593 0.134822 0.784743
O O12 0.748345 0.935711 0.850735
#
# Coordination Sequence:
#
# PCOD9328227 Si02
#       7
#    16  16   8  16   4  16  16
#     4  12  22  34  61  96 143 189 229 265 329 433
#     4  11  21  37  59  95 143 185 220 270 341 434
#     4  12  20  32  55  91 138 190 220 282 330 414
#     4  10  23  39  59  91 136 183 224 263 342 436
#     4  12  24  44  76  98 120 164 248 342 390 410
#     4  11  23  40  67  97 126 174 239 312 363 413
#     4  12  22  34  59  95 136 177 236 286 338 413
#
# _framework density 24.224374999999998
#
# number of rings (size 3 to 8) (size 9 to 14) (size 15 to 20)
#    0.000    0.696    6.957    2.087    0.000    2.783 
#    0.000    1.739    0.000   14.609    0.000    0.000 
#    0.000    0.000    0.000    0.000    0.000    0.000 
#
# Total GULP energy -128174.204514 kJ/mol
# GULP energy per Si atom -5572.791501 kJ/mol
# Density = 2.416924 g / cm^3
# Si number density = 24.224375 Si / 1000 Ang^3
#
#
#
# Elastic Constant Matrix: (Units=GPa)
#
#
# Indices 1 2 3 4 5 6 
#
# 1 171.1713 46.9725 19.7567 0.0000 0.0000 0.0000
# 2 46.9725 79.0901 5.7828 0.0000 0.0000 0.0000
# 3 19.7567 5.7828 27.6754 0.0000 0.0000 0.0000
# 4 0.0000 0.0000 0.0000 27.2293 0.0000 0.0000
# 5 0.0000 0.0000 0.0000 0.0000 14.8748 0.0000
# 6 0.0000 0.0000 0.0000 0.0000 0.0000 31.5335
#
#
#
# Elastic Compliance Matrix: (Units=1/GPa)
#
#
# Indices 1 2 3 4 5 6 
#
# 1 0.007491 -0.004121 -0.004486 0.000000 0.000000 0.000000
# 2 -0.004121 0.015107 -0.000215 0.000000 0.000000 0.000000
# 3 -0.004486 -0.000215 0.039381 0.000000 0.000000 0.000000
# 4 0.000000 0.000000 0.000000 0.036725 0.000000 0.000000
# 5 0.000000 0.000000 0.000000 0.000000 0.067228 0.000000
# 6 0.000000 0.000000 0.000000 0.000000 0.000000 0.031712
#
#
# Mechanical properties :
#
#
# Convention : Reuss Voigt Hill
#
# Bulk Modulus (GPa) = 22.55588 46.99563 34.77575
# Shear Modulus (GPa) = 21.73290 28.42251 25.07771
#
# Velocity S-wave (km/s) = 2.99850 3.42907 3.22098
# Velocity P-wave (km/s) = 4.61730 5.92623 5.31223
#
# Compressibility (1/GPa) = 0.04433434
#
# Stress axis : x y z
#
# Youngs Moduli (GPa) = 133.49803 66.19491 25.39306
#
# Poissons Ratio (x) = 0.27278 0.11392
# Poissons Ratio (y) = 0.55012 0.00546
# Poissons Ratio (z) = 0.59892 0.01422
#
# Static dielectric constant tensor:
#      x y z
#    x 2.017440 0.000000 0.000000 
#    y 0.000000 1.948990 0.000000 
#    z 0.000000 0.000000 1.986930 
# 
# From -- ./inp_files/49854.got.cif
#   From: 2010.05.17/outbox.cif.g08.bks.cpg/sg22_25_cif.got.tgz:49854.got - 2010.06.03 23:40:54.
