data_PCOD9328440
_publ_section_title
;
Structure prediction by ZEFSAII (Michael W. Deem and Ramdas Pophale) SiO2 
 PCOD9328440
Probable space group: F 2 2 2
;
_chemical_formula_sum "Si O2"
_cell_formula_units_Z 92
_cell_length_a 18.877867
_cell_length_b 18.325617
_cell_length_c 12.284676
_cell_angle_alpha 90.000000
_cell_angle_beta 90.000000
_cell_angle_gamma 90.000000
_cell_volume 4249.865977
_symmetry_space_group_name_H-M "F 2 2 2"
_symmetry_group_IT_number 22
_symmetry_cell_setting 'orthorhombic'
loop_
_space_group_symop_operation_xyz
x,y,z
-x,-y,z
x,-y,-z
-x,y,-z
x,1/2+y,1/2+z
-x,1/2-y,1/2+z
x,1/2-y,1/2-z
-x,1/2+y,1/2-z
1/2+x,y,1/2+z
1/2-x,-y,1/2+z
1/2+x,-y,1/2-z
1/2-x,y,1/2-z
1/2+x,1/2+y,z
1/2-x,1/2-y,z
1/2+x,1/2-y,-z
1/2-x,1/2+y,-z
loop_
_atom_site_type_symbol
_atom_site_label
_atom_site_fract_x
_atom_site_fract_y
_atom_site_fract_z
Si Si1 0.000000 0.000000 0.335506
Si Si2 0.426965 0.736454 0.053824
Si Si3 0.648542 0.500000 0.000000
Si Si4 0.616545 0.000000 0.000000
Si Si5 0.250000 0.750000 0.750000
Si Si6 0.806201 0.651076 0.443944
Si Si7 0.905475 0.396860 0.307773
Si Si8 0.183061 0.862716 0.388020
O O1 0.062746 0.031987 0.410089
O O2 0.962065 0.062427 0.267065
O O3 0.436247 0.680176 0.153071
O O4 0.377066 0.803180 0.085488
O O5 0.500000 0.759819 0.000000
O O6 0.381769 0.686003 0.971963
O O7 0.689325 0.563534 0.065681
O O8 0.608276 0.451848 0.091197
O O9 0.662891 0.937538 0.947544
O O10 0.215907 0.693387 0.663921
O O11 0.754294 0.663212 0.549439
O O12 0.832846 0.380555 0.239489
#
# Coordination Sequence:
#
# PCOD9328440 Si02
#       8
#     8  16   8   8   4  16  16  16
#     4   9  20  37  62  94 140 181 220 295 356 414
#     4  11  25  44  67 104 143 182 241 293 352 438
#     4  10  25  43  69 107 137 183 248 300 361 452
#     4   9  21  38  65 103 135 177 242 292 352 422
#     4  12  24  48  72 106 148 198 230 304 396 414
#     4  11  25  48  71 102 146 190 234 307 366 438
#     4  10  24  41  69 102 138 191 234 294 368 423
#     4  11  22  46  69 100 137 191 242 294 351 444
#
# _framework density 21.647739999999999
#
# number of rings (size 3 to 8) (size 9 to 14) (size 15 to 20)
#    0.000    1.565    1.739    1.043    9.739    6.957 
#    3.130    3.478    0.000    0.000    0.000    0.000 
#    0.000    0.000    0.000    0.000    0.000    0.000 
#
# Total GULP energy -128254.591795 kJ/mol
# GULP energy per Si atom -5576.286600 kJ/mol
# Density = 2.159847 g / cm^3
# Si number density = 21.647740 Si / 1000 Ang^3
#
#
#
# Elastic Constant Matrix: (Units=GPa)
#
#
# Indices 1 2 3 4 5 6 
#
# 1 62.6120 4.3530 12.3820 0.0000 0.0000 0.0000
# 2 4.3530 116.4023 25.2847 0.0000 0.0000 0.0000
# 3 12.3820 25.2847 92.0939 0.0000 0.0000 0.0000
# 4 0.0000 0.0000 0.0000 40.6892 0.0000 0.0000
# 5 0.0000 0.0000 0.0000 0.0000 12.7153 0.0000
# 6 0.0000 0.0000 0.0000 0.0000 0.0000 25.7399
#
#
#
# Elastic Compliance Matrix: (Units=1/GPa)
#
#
# Indices 1 2 3 4 5 6 
#
# 1 0.016410 -0.000143 -0.002167 0.000000 0.000000 0.000000
# 2 -0.000143 0.009137 -0.002489 0.000000 0.000000 0.000000
# 3 -0.002167 -0.002489 0.011833 0.000000 0.000000 0.000000
# 4 0.000000 0.000000 0.000000 0.024577 0.000000 0.000000
# 5 0.000000 0.000000 0.000000 0.000000 0.078646 0.000000
# 6 0.000000 0.000000 0.000000 0.000000 0.000000 0.038850
#
#
# Mechanical properties :
#
#
# Convention : Reuss Voigt Hill
#
# Bulk Modulus (GPa) = 35.99528 39.46084 37.72806
# Shear Modulus (GPa) = 25.21284 31.10144 28.15714
#
# Velocity S-wave (km/s) = 3.41645 3.79450 3.61043
# Velocity P-wave (km/s) = 5.67686 6.12094 5.90307
#
# Compressibility (1/GPa) = 0.02778142
#
# Stress axis : x y z
#
# Youngs Moduli (GPa) = 60.93895 109.44533 84.50717
#
# Poissons Ratio (x) = 0.01564 0.18313
# Poissons Ratio (y) = 0.00871 0.21037
# Poissons Ratio (z) = 0.13206 0.27245
#
# Static dielectric constant tensor:
#      x y z
#    x 1.828080 0.000000 0.000000 
#    y 0.000000 1.780920 0.000000 
#    z 0.000000 0.000000 1.884730 
# 
# From -- ./inp_files/22681.got.cif
#   From: 2010.05.17/outbox.cif.g08.bks.cpg/sg22_12_cif.got.tgz:22681.got - 2010.06.03 23:40:54.
