data_PCOD9328163
_publ_section_title
;
Structure prediction by ZEFSAII (Michael W. Deem and Ramdas Pophale) SiO2 
 PCOD9328163
Probable space group: F 2 2 2
;
_chemical_formula_sum "Si O2"
_cell_formula_units_Z 88
_cell_length_a 23.232298
_cell_length_b 6.027583
_cell_length_c 27.373385
_cell_angle_alpha 90.000000
_cell_angle_beta 90.000000
_cell_angle_gamma 90.000000
_cell_volume 3833.221142
_symmetry_space_group_name_H-M "F 2 2 2"
_symmetry_group_IT_number 22
_symmetry_cell_setting 'orthorhombic'
loop_
_space_group_symop_operation_xyz
x,y,z
-x,-y,z
x,-y,-z
-x,y,-z
x,1/2+y,1/2+z
-x,1/2-y,1/2+z
x,1/2-y,1/2-z
-x,1/2+y,1/2-z
1/2+x,y,1/2+z
1/2-x,-y,1/2+z
1/2+x,-y,1/2-z
1/2-x,y,1/2-z
1/2+x,1/2+y,z
1/2-x,1/2-y,z
1/2+x,1/2-y,-z
1/2-x,1/2+y,-z
loop_
_atom_site_type_symbol
_atom_site_label
_atom_site_fract_x
_atom_site_fract_y
_atom_site_fract_z
Si Si1 0.500000 0.000000 0.633599
Si Si2 0.663309 0.750000 0.250000
Si Si3 0.250000 0.250000 0.082580
Si Si4 0.317103 0.500000 0.000000
Si Si5 0.896774 0.868384 0.802087
Si Si6 0.624358 0.500000 0.500000
Si Si7 0.938815 0.888146 0.400672
Si Si8 0.329520 0.502285 0.340904
O O1 0.456353 0.131691 0.668830
O O2 0.544461 0.131269 0.599745
O O3 0.623498 0.608359 0.214198
O O4 0.693318 0.588357 0.288786
O O5 0.280370 0.432033 0.047668
O O6 0.291215 0.103953 0.116986
O O7 0.346268 0.750063 0.007402
O O8 0.904184 0.750000 0.750000
O O9 0.843151 0.761397 0.832039
O O10 0.588031 0.533195 0.451040
O O11 0.893996 0.932411 0.357668
O O12 0.000000 0.000000 0.392650
#
# Coordination Sequence:
#
# PCOD9328163 Si02
#       8
#     8   8   8   8  16   8  16  16
#     4  12  24  40  73 112 162 210 266 313 398 494
#     4  10  22  45  70 114 156 206 256 323 394 484
#     4  12  28  53  88 112 156 205 282 354 434 478
#     4  12  29  58  82 122 148 210 283 356 416 504
#     4  10  23  40  71 110 160 202 265 315 396 480
#     4  12  30  54  81 110 171 202 280 346 422 494
#     4  12  26  47  72 114 157 217 259 327 406 482
#     4  11  24  47  73 116 154 207 260 336 398 493
#
# _framework density 22.957194999999999
#
# number of rings (size 3 to 8) (size 9 to 14) (size 15 to 20)
#    0.000    0.727    5.455    0.818    3.818    1.818 
#    3.273    0.000    0.000    3.273    0.000    0.000 
#    0.000    0.000    0.000    0.000    0.000    0.000 
#
# Total GULP energy -122554.751485 kJ/mol
# GULP energy per Si atom -5570.670522 kJ/mol
# Density = 2.290494 g / cm^3
# Si number density = 22.957195 Si / 1000 Ang^3
#
#
#
# Elastic Constant Matrix: (Units=GPa)
#
#
# Indices 1 2 3 4 5 6 
#
# 1 90.4238 57.5021 51.0549 -0.0001 0.0047 -0.0005
# 2 57.5021 134.3666 61.0052 0.0004 0.0132 0.0003
# 3 51.0549 61.0052 133.6090 0.0000 -0.0036 -0.0001
# 4 -0.0001 0.0004 0.0000 47.3393 -0.0022 0.0001
# 5 0.0047 0.0132 -0.0036 -0.0022 -69.9707 -0.0026
# 6 -0.0005 0.0003 -0.0001 0.0001 -0.0026 35.0879
#
#
#
# Elastic Compliance Matrix: (Units=1/GPa)
#
#
# Indices 1 2 3 4 5 6 
#
# 1 0.016684 -0.005355 -0.003930 0.000000 0.000000 0.000000
# 2 -0.005355 0.011108 -0.003025 0.000000 0.000002 0.000000
# 3 -0.003930 -0.003025 0.010368 0.000000 -0.000001 0.000000
# 4 0.000000 0.000000 0.000000 0.021124 -0.000001 0.000000
# 5 0.000000 0.000002 -0.000001 -0.000001 -0.014292 -0.000001
# 6 0.000000 0.000000 0.000000 0.000000 -0.000001 0.028500
#
#
# Mechanical properties :
#
#
# Convention : Reuss Voigt Hill
#
# Bulk Modulus (GPa) = 73.86852 77.50266 75.68559
# Shear Modulus (GPa) = 48.72112 15.08044 31.90078
#
# Velocity S-wave (km/s) = 4.61180 2.56577 3.73175
# Velocity P-wave (km/s) = 7.78490 6.52767 7.18384
#
# Compressibility (1/GPa) = 0.01353757
#
# Stress axis : x y z
#
# Youngs Moduli (GPa) = 59.93926 90.02722 96.45485
#
# Poissons Ratio (x) = 0.48214 0.37905
# Poissons Ratio (y) = 0.32100 0.29180
# Poissons Ratio (z) = 0.23555 0.27236
#
# Static dielectric constant tensor:
#      x y z
#    x 1.868930 -0.000010 0.000000 
#    y -0.000010 2.582740 0.000000 
#    z 0.000000 0.000000 1.821910 
# 
# From -- ./inp_files/57145.got.cif
#   From: 2010.05.17/outbox.cif.g08.bks.cpg/sg22_29_cif.got.tgz:57145.got - 2010.06.03 23:40:54.
