data_PCOD9328383
_publ_section_title
;
Structure prediction by ZEFSAII (Michael W. Deem and Ramdas Pophale) SiO2 
 PCOD9328383
Probable space group: F 2 2 2
;
_chemical_formula_sum "Si O2"
_cell_formula_units_Z 88
_cell_length_a 14.683746
_cell_length_b 22.796393
_cell_length_c 10.876670
_cell_angle_alpha 90.000000
_cell_angle_beta 90.000000
_cell_angle_gamma 90.000000
_cell_volume 3640.817844
_symmetry_space_group_name_H-M "F 2 2 2"
_symmetry_group_IT_number 22
_symmetry_cell_setting 'orthorhombic'
loop_
_space_group_symop_operation_xyz
x,y,z
-x,-y,z
x,-y,-z
-x,y,-z
x,1/2+y,1/2+z
-x,1/2-y,1/2+z
x,1/2-y,1/2-z
-x,1/2+y,1/2-z
1/2+x,y,1/2+z
1/2-x,-y,1/2+z
1/2+x,-y,1/2-z
1/2-x,y,1/2-z
1/2+x,1/2+y,z
1/2-x,1/2-y,z
1/2+x,1/2-y,-z
1/2-x,1/2+y,-z
loop_
_atom_site_type_symbol
_atom_site_label
_atom_site_fract_x
_atom_site_fract_y
_atom_site_fract_z
Si Si1 0.356019 0.316039 0.770919
Si Si2 0.250000 0.750000 0.927994
Si Si3 0.146805 0.458003 0.110188
Si Si4 0.632430 0.960139 0.383666
Si Si5 0.401947 0.667506 0.956143
Si Si6 0.399870 0.340265 0.520071
O O1 0.396508 0.250000 0.750000
O O2 0.250000 0.310653 0.750000
O O3 0.394237 0.357062 0.663679
O O4 0.361216 0.340107 0.907685
O O5 0.328762 0.705743 0.876480
O O6 0.319926 0.792932 0.998746
O O7 0.257326 0.454473 0.108799
O O8 0.115331 0.480045 0.243844
O O9 0.117689 0.500000 0.000000
O O10 0.113770 0.393353 0.073380
O O11 0.589112 0.895749 0.395980
O O12 0.605190 0.000000 0.500000
O O13 0.500000 0.691431 0.000000
O O14 0.500000 0.315786 0.500000
#
# Coordination Sequence:
#
# PCOD9328383 Si02
#       6
#    16   8  16  16  16  16
#     4  11  20  40  68  95 140 190 244 289 349 428
#     4  12  22  49  67 102 144 194 236 302 350 446
#     4  10  23  46  72 104 141 185 238 297 368 436
#     4  10  23  46  72 104 141 185 238 297 368 436
#     4  12  25  42  71 106 143 187 245 299 359 424
#     4  12  25  42  71 106 143 187 245 299 359 424
#
# _framework density 24.170394000000002
#
# number of rings (size 3 to 8) (size 9 to 14) (size 15 to 20)
#    0.000    0.909    5.455    0.545    5.091    0.727 
#    0.000    3.636    0.000    0.000    0.000    0.000 
#    0.000    0.000    0.000    0.000    0.000    0.000 
#
# Total GULP energy -122748.910030 kJ/mol
# GULP energy per Si atom -5579.495910 kJ/mol
# Density = 2.411538 g / cm^3
# Si number density = 24.170394 Si / 1000 Ang^3
#
#
#
# Elastic Constant Matrix: (Units=GPa)
#
#
# Indices 1 2 3 4 5 6 
#
# 1 133.3589 27.2166 10.7750 0.0000 0.0000 0.0000
# 2 27.2166 97.5730 40.7853 0.0000 0.0000 0.0000
# 3 10.7750 40.7853 143.1575 0.0000 0.0000 0.0000
# 4 0.0000 0.0000 0.0000 -1.6900 0.0000 0.0000
# 5 0.0000 0.0000 0.0000 0.0000 13.2316 0.0000
# 6 0.0000 0.0000 0.0000 0.0000 0.0000 6.7885
#
#
#
# Elastic Compliance Matrix: (Units=1/GPa)
#
#
# Indices 1 2 3 4 5 6 
#
# 1 0.007951 -0.002234 0.000038 0.000000 0.000000 0.000000
# 2 -0.002234 0.012262 -0.003325 0.000000 0.000000 0.000000
# 3 0.000038 -0.003325 0.007930 0.000000 0.000000 0.000000
# 4 0.000000 0.000000 0.000000 -0.591722 0.000000 0.000000
# 5 0.000000 0.000000 0.000000 0.000000 0.075577 0.000000
# 6 0.000000 0.000000 0.000000 0.000000 0.000000 0.147308
#
#
# Mechanical properties :
#
#
# Convention : Reuss Voigt Hill
#
# Bulk Modulus (GPa) = 58.47682 59.07146 58.77414
# Shear Modulus (GPa) = -15.43439 23.35352 3.95957
#
# Velocity S-wave (km/s) = -2.52973 3.11175 1.28131
# Velocity P-wave (km/s) = 3.96401 6.11583 5.15348
#
# Compressibility (1/GPa) = 0.01710079
#
# Stress axis : x y z
#
# Youngs Moduli (GPa) = 125.76430 81.55439 126.10647
#
# Poissons Ratio (x) = 0.18217 -0.00478
# Poissons Ratio (y) = 0.28093 0.41933
# Poissons Ratio (z) = -0.00477 0.27119
#
# Static dielectric constant tensor:
#      x y z
#    x 2.044480 0.000000 0.000000 
#    y 0.000000 1.983820 0.000000 
#    z 0.000000 0.000000 1.984520 
# 
# From -- ./inp_files/19971.got.cif
#   From: 2010.05.17/outbox.cif.g08.bks.cpg/sg22_10_cif.got.tgz:19971.got - 2010.06.03 23:40:54.
