data_PCOD9328223
_publ_section_title
;
Structure prediction by ZEFSAII (Michael W. Deem and Ramdas Pophale) SiO2 
 PCOD9328223
Probable space group: F 2 2 2
;
_chemical_formula_sum "Si O2"
_cell_formula_units_Z 56
_cell_length_a 6.556652
_cell_length_b 17.134168
_cell_length_c 15.234314
_cell_angle_alpha 90.000000
_cell_angle_beta 90.000000
_cell_angle_gamma 90.000000
_cell_volume 1711.465139
_symmetry_space_group_name_H-M "F 2 2 2"
_symmetry_group_IT_number 22
_symmetry_cell_setting 'orthorhombic'
loop_
_space_group_symop_operation_xyz
x,y,z
-x,-y,z
x,-y,-z
-x,y,-z
x,1/2+y,1/2+z
-x,1/2-y,1/2+z
x,1/2-y,1/2-z
-x,1/2+y,1/2-z
1/2+x,y,1/2+z
1/2-x,-y,1/2+z
1/2+x,-y,1/2-z
1/2-x,y,1/2-z
1/2+x,1/2+y,z
1/2-x,1/2-y,z
1/2+x,1/2-y,-z
1/2-x,1/2+y,-z
loop_
_atom_site_type_symbol
_atom_site_label
_atom_site_fract_x
_atom_site_fract_y
_atom_site_fract_z
Si Si1 0.875410 0.090255 0.327408
Si Si2 0.000000 0.000000 0.500000
Si Si3 0.623778 0.092137 0.679768
Si Si4 0.000000 0.628265 0.500000
Si Si5 0.750000 0.750000 0.250000
Si Si6 0.750000 0.250000 0.113327
O O1 0.627623 0.072554 0.300494
O O2 0.875555 0.185044 0.331356
O O3 0.890124 0.056205 0.427029
O O4 0.123894 0.070945 0.298395
O O5 0.613164 0.078947 0.575192
O O6 0.639256 0.186687 0.687814
O O7 0.142571 0.689108 0.450254
#
# Coordination Sequence:
#
# PCOD9328223 Si02
#       6
#    16   4  16   8   4   8
#     4  12  27  53  79 113 159 216 274 339 405 496
#     4  12  34  56  76 116 174 222 264 330 438 498
#     4  10  23  38  69 111 157 204 250 325 406 472
#     4  12  23  38  68 120 163 198 258 342 409 468
#     4   8  18  36  60 116 156 194 240 334 398 456
#     4  12  26  44  80 122 156 206 278 344 410 476
#
# _framework density 32.720503999999998
#
# number of rings (size 3 to 8) (size 9 to 14) (size 15 to 20)
#    0.857    0.000    2.857    3.857    8.000    1.143 
#    0.000    0.000    0.000    1.714    0.000    0.000 
#    0.000    0.000    0.000    0.000    0.000    0.000 
#
# Total GULP energy -78234.976965 kJ/mol
# GULP energy per Si atom -5588.212640 kJ/mol
# Density = 3.264603 g / cm^3
# Si number density = 32.720504 Si / 1000 Ang^3
#
#
#
# Elastic Constant Matrix: (Units=GPa)
#
#
# Indices 1 2 3 4 5 6 
#
# 1 279.6829 95.7442 234.3608 0.0000 0.0000 0.0000
# 2 95.7442 209.2979 100.7042 0.0000 0.0000 0.0000
# 3 234.3608 100.7042 325.0429 0.0000 0.0000 0.0000
# 4 0.0000 0.0000 0.0000 59.2855 0.0000 0.0000
# 5 0.0000 0.0000 0.0000 0.0000 111.3802 0.0000
# 6 0.0000 0.0000 0.0000 0.0000 0.0000 95.5701
#
#
#
# Elastic Compliance Matrix: (Units=1/GPa)
#
#
# Indices 1 2 3 4 5 6 
#
# 1 0.009285 -0.001206 -0.006321 0.000000 0.000000 0.000000
# 2 -0.001206 0.005772 -0.000918 0.000000 0.000000 0.000000
# 3 -0.006321 -0.000918 0.007919 0.000000 0.000000 0.000000
# 4 0.000000 0.000000 0.000000 0.016868 0.000000 0.000000
# 5 0.000000 0.000000 0.000000 0.000000 0.008978 0.000000
# 6 0.000000 0.000000 0.000000 0.000000 0.000000 0.010464
#
#
# Mechanical properties :
#
#
# Convention : Reuss Voigt Hill
#
# Bulk Modulus (GPa) = 164.36540 186.18247 175.27393
# Shear Modulus (GPa) = 63.93555 78.79478 71.36517
#
# Velocity S-wave (km/s) = 4.42519 4.91258 4.67524
# Velocity P-wave (km/s) = 8.74368 9.44470 9.10094
#
# Compressibility (1/GPa) = 0.00608401
#
# Stress axis : x y z
#
# Youngs Moduli (GPa) = 107.69998 173.26316 126.28484
#
# Poissons Ratio (x) = 0.20898 0.79824
# Poissons Ratio (y) = 0.12990 0.11599
# Poissons Ratio (z) = 0.68077 0.15914
#
# Static dielectric constant tensor:
#      x y z
#    x 2.900810 0.000000 0.000000 
#    y 0.000000 2.293820 0.000000 
#    z 0.000000 0.000000 2.881550 
# 
# From -- ./inp_files/9608.got.cif
#   From: 2010.05.17/outbox.cif.g08.bks.cpg/sg22_5_cif.got.tgz:9608.got - 2010.06.03 23:40:54.
