data_PCOD9328275
_publ_section_title
;
Structure prediction by ZEFSAII (Michael W. Deem and Ramdas Pophale) SiO2 
 PCOD9328275
Probable space group: F 2 2 2
;
_chemical_formula_sum "Si O2"
_cell_formula_units_Z 116
_cell_length_a 24.509639
_cell_length_b 18.381243
_cell_length_c 11.437874
_cell_angle_alpha 90.000000
_cell_angle_beta 90.000000
_cell_angle_gamma 90.000000
_cell_volume 5152.963890
_symmetry_space_group_name_H-M "F 2 2 2"
_symmetry_group_IT_number 22
_symmetry_cell_setting 'orthorhombic'
loop_
_space_group_symop_operation_xyz
x,y,z
-x,-y,z
x,-y,-z
-x,y,-z
x,1/2+y,1/2+z
-x,1/2-y,1/2+z
x,1/2-y,1/2-z
-x,1/2+y,1/2-z
1/2+x,y,1/2+z
1/2-x,-y,1/2+z
1/2+x,-y,1/2-z
1/2-x,y,1/2-z
1/2+x,1/2+y,z
1/2-x,1/2-y,z
1/2+x,1/2-y,-z
1/2-x,1/2+y,-z
loop_
_atom_site_type_symbol
_atom_site_label
_atom_site_fract_x
_atom_site_fract_y
_atom_site_fract_z
Si Si1 0.750000 0.750000 0.750000
Si Si2 0.671717 0.014772 0.769044
Si Si3 0.901211 0.563256 0.583771
Si Si4 0.710494 0.081425 0.544806
Si Si5 0.563677 0.780981 0.626374
Si Si6 0.060401 0.774646 0.622888
Si Si7 0.305522 0.372303 0.604072
Si Si8 0.402978 0.078087 0.036480
O O1 0.710439 0.697785 0.676822
O O2 0.622951 0.980009 0.693136
O O3 0.703421 0.945285 0.819189
O O4 0.700800 0.070426 0.681460
O O5 0.645567 0.055427 0.876933
O O6 0.925097 0.500000 0.500000
O O7 0.847417 0.596661 0.518081
O O8 0.936233 0.631355 0.624057
O O9 0.760933 0.127936 0.500394
O O10 0.722783 0.000000 0.500000
O O11 0.587093 0.750000 0.750000
O O12 0.501747 0.752214 0.625097
O O13 0.586184 0.758211 0.497051
O O14 0.084186 0.750000 0.750000
O O15 0.061423 0.861557 0.601483
O O16 0.368430 0.382778 0.566247
O O17 0.428219 0.000000 0.000000
#
# Coordination Sequence:
#
# PCOD9328275 Si02
#       8
#     4  16  16  16  16  16  16  16
#     4  12  24  40  56  86 144 172 238 280 338 400
#     4   9  20  38  64  90 127 170 225 281 332 400
#     4   9  20  36  65  99 128 174 230 280 338 411
#     4   9  18  34  57  90 125 164 216 267 330 387
#     4  10  23  44  71  97 134 177 231 285 364 429
#     4  10  24  45  69  96 137 179 227 284 364 427
#     4  11  23  37  57  95 129 180 223 277 336 402
#     4  10  23  41  67  97 132 179 235 283 345 423
#
# _framework density 22.511316000000001
#
# number of rings (size 3 to 8) (size 9 to 14) (size 15 to 20)
#    0.000    2.483    0.000    2.897    7.724    4.966 
#    1.241    2.759    0.000    0.000    0.000    0.000 
#    0.000    0.000    0.000    0.000    0.000    0.000 
#
# Total GULP energy -161669.421247 kJ/mol
# GULP energy per Si atom -5574.807629 kJ/mol
# Density = 2.246008 g / cm^3
# Si number density = 22.511316 Si / 1000 Ang^3
#
#
#
# Elastic Constant Matrix: (Units=GPa)
#
#
# Indices 1 2 3 4 5 6 
#
# 1 47.6071 50.3567 6.4683 0.0000 0.0000 0.0000
# 2 50.3567 153.0115 46.3185 0.0000 0.0000 0.0000
# 3 6.4683 46.3185 134.1383 0.0000 0.0000 0.0000
# 4 0.0000 0.0000 0.0000 34.9789 0.0000 0.0000
# 5 0.0000 0.0000 0.0000 0.0000 13.9632 0.0000
# 6 0.0000 0.0000 0.0000 0.0000 0.0000 39.5594
#
#
#
# Elastic Compliance Matrix: (Units=1/GPa)
#
#
# Indices 1 2 3 4 5 6 
#
# 1 0.032902 -0.011556 0.002404 0.000000 0.000000 0.000000
# 2 -0.011556 0.011357 -0.003364 0.000000 0.000000 0.000000
# 3 0.002404 -0.003364 0.008501 0.000000 0.000000 0.000000
# 4 0.000000 0.000000 0.000000 0.028589 0.000000 0.000000
# 5 0.000000 0.000000 0.000000 0.000000 0.071617 0.000000
# 6 0.000000 0.000000 0.000000 0.000000 0.000000 0.025278
#
#
# Mechanical properties :
#
#
# Convention : Reuss Voigt Hill
#
# Bulk Modulus (GPa) = 36.06630 60.11599 48.09115
# Shear Modulus (GPa) = 23.52736 33.14121 28.33429
#
# Velocity S-wave (km/s) = 3.23636 3.84109 3.55162
# Velocity P-wave (km/s) = 5.47919 6.81430 6.18289
#
# Compressibility (1/GPa) = 0.02772671
#
# Stress axis : x y z
#
# Youngs Moduli (GPa) = 30.39345 88.05191 117.63584
#
# Poissons Ratio (x) = 1.01751 -0.28276
# Poissons Ratio (y) = 0.35122 0.39577
# Poissons Ratio (z) = -0.07306 0.29624
#
# Static dielectric constant tensor:
#      x y z
#    x 1.818240 0.000000 0.000000 
#    y 0.000000 1.820880 0.000000 
#    z 0.000000 0.000000 1.945950 
# 
# From -- ./inp_files/25507.got.cif
#   From: 2010.05.17/outbox.cif.g08.bks.cpg/sg22_13_cif.got.tgz:25507.got - 2010.06.03 23:40:54.
