data_PCOD9328943
_publ_section_title
;
Structure prediction by ZEFSAII (Michael W. Deem and Ramdas Pophale) SiO2 
 PCOD9328943
Probable space group: F 2 2 2
;
_chemical_formula_sum "Si O2"
_cell_formula_units_Z 116
_cell_length_a 17.189691
_cell_length_b 12.045494
_cell_length_c 24.490652
_cell_angle_alpha 90.000000
_cell_angle_beta 90.000000
_cell_angle_gamma 90.000000
_cell_volume 5070.993254
_symmetry_space_group_name_H-M "F 2 2 2"
_symmetry_group_IT_number 22
_symmetry_cell_setting 'orthorhombic'
loop_
_space_group_symop_operation_xyz
x,y,z
-x,-y,z
x,-y,-z
-x,y,-z
x,1/2+y,1/2+z
-x,1/2-y,1/2+z
x,1/2-y,1/2-z
-x,1/2+y,1/2-z
1/2+x,y,1/2+z
1/2-x,-y,1/2+z
1/2+x,-y,1/2-z
1/2-x,y,1/2-z
1/2+x,1/2+y,z
1/2-x,1/2-y,z
1/2+x,1/2-y,-z
1/2-x,1/2+y,-z
loop_
_atom_site_type_symbol
_atom_site_label
_atom_site_fract_x
_atom_site_fract_y
_atom_site_fract_z
Si Si1 0.820227 0.178267 0.875418
Si Si2 0.914158 0.334268 0.947368
Si Si3 0.869711 0.917604 0.567087
Si Si4 0.436278 0.217994 0.606046
Si Si5 0.188752 0.046620 0.941028
Si Si6 0.063393 0.359546 0.726836
Si Si7 0.609701 0.103241 0.734505
Si Si8 0.750000 0.250000 0.750000
O O1 0.750000 0.250000 0.849565
O O2 0.844953 0.258204 0.925036
O O3 0.879549 0.153032 0.826586
O O4 0.805476 0.057325 0.899936
O O5 0.903157 0.458881 0.922944
O O6 0.986406 0.259327 0.926060
O O7 0.907190 0.365762 0.011278
O O8 0.892428 0.834851 0.615068
O O9 0.777810 0.912709 0.556519
O O10 0.375689 0.137449 0.574882
O O11 0.451800 0.157464 0.662628
O O12 0.166559 0.000000 0.000000
O O13 0.102541 0.250000 0.750000
O O14 0.111561 0.470868 0.733919
O O15 0.977681 0.369925 0.754346
O O16 0.682051 0.156287 0.765105
#
# Coordination Sequence:
#
# PCOD9328943 Si02
#       8
#    16  16  16  16  16  16  16   4
#     4  12  21  40  73 101 138 180 236 293 367 425
#     4  11  23  43  67  98 138 188 234 297 352 433
#     4  11  23  45  65  96 148 193 245 289 359 440
#     4  12  25  42  71 103 140 185 249 300 362 437
#     4  12  24  43  69 102 142 196 240 298 365 438
#     4  11  25  51  71 105 146 196 229 313 385 444
#     4  11  24  46  76 102 145 173 240 308 366 441
#     4  12  24  48  78 116 124 190 248 290 356 456
#
# _framework density 22.875202000000002
#
# number of rings (size 3 to 8) (size 9 to 14) (size 15 to 20)
#    0.000    0.552    6.897    2.069    0.000    1.655 
#    9.931    1.034    0.000    0.000    0.000    0.000 
#    0.000    0.000    0.000    0.000    0.000    0.000 
#
# Total GULP energy -161716.961967 kJ/mol
# GULP energy per Si atom -5576.446964 kJ/mol
# Density = 2.282314 g / cm^3
# Si number density = 22.875202 Si / 1000 Ang^3
#
#
#
# Elastic Constant Matrix: (Units=GPa)
#
#
# Indices 1 2 3 4 5 6 
#
# 1 129.9540 74.0465 27.4376 0.0000 0.0000 0.0000
# 2 74.0465 183.2335 17.9669 0.0000 0.0000 0.0000
# 3 27.4376 17.9669 27.4181 0.0000 0.0000 0.0000
# 4 0.0000 0.0000 0.0000 40.4345 0.0000 0.0000
# 5 0.0000 0.0000 0.0000 0.0000 17.7637 0.0000
# 6 0.0000 0.0000 0.0000 0.0000 0.0000 49.7749
#
#
#
# Elastic Compliance Matrix: (Units=1/GPa)
#
#
# Indices 1 2 3 4 5 6 
#
# 1 0.011882 -0.003885 -0.009344 0.000000 0.000000 0.000000
# 2 -0.003885 0.007103 -0.000766 0.000000 0.000000 0.000000
# 3 -0.009344 -0.000766 0.046325 0.000000 0.000000 0.000000
# 4 0.000000 0.000000 0.000000 0.024731 0.000000 0.000000
# 5 0.000000 0.000000 0.000000 0.000000 0.056295 0.000000
# 6 0.000000 0.000000 0.000000 0.000000 0.000000 0.020090
#
#
# Mechanical properties :
#
#
# Convention : Reuss Voigt Hill
#
# Bulk Modulus (GPa) = 26.79666 64.38974 45.59320
# Shear Modulus (GPa) = 24.17132 36.33828 30.25480
#
# Velocity S-wave (km/s) = 3.25416 3.98998 3.64071
# Velocity P-wave (km/s) = 5.08519 7.03107 6.13576
#
# Compressibility (1/GPa) = 0.03731808
#
# Stress axis : x y z
#
# Youngs Moduli (GPa) = 84.16328 140.79083 21.58657
#
# Poissons Ratio (x) = 0.54701 0.20171
# Poissons Ratio (y) = 0.32700 0.01654
# Poissons Ratio (z) = 0.78643 0.10789
#
# Static dielectric constant tensor:
#      x y z
#    x 1.905270 0.000000 0.000000 
#    y 0.000000 1.867170 0.000000 
#    z 0.000000 0.000000 1.774500 
# 
# From -- ./inp_files/53642.got.cif
#   From: 2010.05.17/outbox.cif.g08.bks.cpg/sg22_27_cif.got.tgz:53642.got - 2010.06.03 23:40:54.
