data_PCOD9328072
_publ_section_title
;
Structure prediction by ZEFSAII (Michael W. Deem and Ramdas Pophale) SiO2 
 PCOD9328072
Probable space group: F 2 2 2
;
_chemical_formula_sum "Si O2"
_cell_formula_units_Z 104
_cell_length_a 21.474251
_cell_length_b 27.410492
_cell_length_c 7.746646
_cell_angle_alpha 90.000000
_cell_angle_beta 90.000000
_cell_angle_gamma 90.000000
_cell_volume 4559.829105
_symmetry_space_group_name_H-M "F 2 2 2"
_symmetry_group_IT_number 22
_symmetry_cell_setting 'orthorhombic'
loop_
_space_group_symop_operation_xyz
x,y,z
-x,-y,z
x,-y,-z
-x,y,-z
x,1/2+y,1/2+z
-x,1/2-y,1/2+z
x,1/2-y,1/2-z
-x,1/2+y,1/2-z
1/2+x,y,1/2+z
1/2-x,-y,1/2+z
1/2+x,-y,1/2-z
1/2-x,y,1/2-z
1/2+x,1/2+y,z
1/2-x,1/2-y,z
1/2+x,1/2-y,-z
1/2-x,1/2+y,-z
loop_
_atom_site_type_symbol
_atom_site_label
_atom_site_fract_x
_atom_site_fract_y
_atom_site_fract_z
Si Si1 0.322580 0.944787 0.701626
Si Si2 0.631243 0.855681 0.927982
Si Si3 0.086061 0.210912 0.866295
Si Si4 0.000000 0.629268 0.500000
Si Si5 0.953092 0.908460 0.358989
Si Si6 0.311707 0.770357 0.941180
Si Si7 0.679865 0.561945 0.801860
O O1 0.250000 0.932150 0.750000
O O2 0.383357 0.928059 0.810102
O O3 0.332461 0.927888 0.503426
O O4 0.325555 0.003676 0.714886
O O5 0.627670 0.818915 0.768643
O O6 0.640259 0.907505 0.834534
O O7 0.568389 0.859505 0.039439
O O8 0.682572 0.829007 0.046107
O O9 0.046752 0.250000 0.750000
O O10 0.127775 0.244201 0.985049
O O11 0.054789 0.167722 0.970201
O O12 0.987647 0.599388 0.324022
O O13 0.000000 0.933139 0.500000
O O14 0.309589 0.750000 0.750000
O O15 0.250000 0.750000 0.032214
O O16 0.750000 0.575371 0.750000
#
# Coordination Sequence:
#
# PCOD9328072 Si02
#       7
#    16  16  16   8  16  16  16
#     4  10  23  47  73 111 151 192 247 313 381 446
#     4  11  23  42  67 102 139 187 244 292 366 445
#     4  10  23  39  65  96 134 186 239 300 363 430
#     4  12  24  46  72 101 146 188 260 303 362 452
#     4  12  26  46  76 107 149 195 251 305 377 452
#     4  10  23  43  63  99 144 186 234 300 373 441
#     4  10  22  42  76 109 149 193 249 308 371 454
#
# _framework density 22.807872
#
# number of rings (size 3 to 8) (size 9 to 14) (size 15 to 20)
#    0.000    1.385    1.538    2.769    2.154    7.077 
#    8.308    1.538    0.000    0.000    0.000    0.000 
#    0.000    0.000    0.000    0.000    0.000    0.000 
#
# Total GULP energy -144794.754365 kJ/mol
# GULP energy per Si atom -5569.029014 kJ/mol
# Density = 2.275596 g / cm^3
# Si number density = 22.807872 Si / 1000 Ang^3
#
#
#
# Elastic Constant Matrix: (Units=GPa)
#
#
# Indices 1 2 3 4 5 6 
#
# 1 114.9215 30.0835 56.5273 -0.0083 0.0010 -0.0006
# 2 30.0835 51.3820 45.6379 -0.0086 0.0003 -0.0008
# 3 56.5273 45.6379 164.1674 -0.0098 0.0057 -0.0007
# 4 -0.0083 -0.0086 -0.0098 -205.5929 0.0011 0.0110
# 5 0.0010 0.0003 0.0057 0.0011 29.5617 0.0001
# 6 -0.0006 -0.0008 -0.0007 0.0110 0.0001 22.9575
#
#
#
# Elastic Compliance Matrix: (Units=1/GPa)
#
#
# Indices 1 2 3 4 5 6 
#
# 1 0.011096 -0.004120 -0.002675 0.000000 0.000000 0.000000
# 2 -0.004120 0.027373 -0.006191 -0.000001 0.000001 0.000001
# 3 -0.002675 -0.006191 0.008734 0.000000 -0.000002 0.000000
# 4 0.000000 -0.000001 0.000000 -0.004864 0.000000 0.000002
# 5 0.000000 0.000001 -0.000002 0.000000 0.033827 0.000000
# 6 0.000000 0.000001 0.000000 0.000002 0.000000 0.043559
#
#
# Mechanical properties :
#
#
# Convention : Reuss Voigt Hill
#
# Bulk Modulus (GPa) = 47.10352 66.10757 56.60555
# Shear Modulus (GPa) = 32.72785 -17.39992 7.66396
#
# Velocity S-wave (km/s) = 3.79217 -2.76504 1.83508
# Velocity P-wave (km/s) = 6.31436 4.34206 5.41870
#
# Compressibility (1/GPa) = 0.02122984
#
# Stress axis : x y z
#
# Youngs Moduli (GPa) = 90.12169 36.53183 114.50120
#
# Poissons Ratio (x) = 0.15053 0.30631
# Poissons Ratio (y) = 0.37135 0.70886
# Poissons Ratio (z) = 0.24109 0.22616
#
# Static dielectric constant tensor:
#      x y z
#    x 6.072320 -0.000060 0.000000 
#    y -0.000060 1.912540 0.000000 
#    z 0.000000 0.000000 2.043930 
# 
# From -- ./inp_files/12935.got.cif
#   From: 2010.05.17/outbox.cif.g08.bks.cpg/sg22_7_cif.got.tgz:12935.got - 2010.06.03 23:40:54.
