data_PCOD9328697
_publ_section_title
;
Structure prediction by ZEFSAII (Michael W. Deem and Ramdas Pophale) SiO2 
 PCOD9328697
Probable space group: F 2 2 2
;
_chemical_formula_sum "Si O2"
_cell_formula_units_Z 52
_cell_length_a 13.657250
_cell_length_b 10.682370
_cell_length_c 15.700005
_cell_angle_alpha 90.000000
_cell_angle_beta 90.000000
_cell_angle_gamma 90.000000
_cell_volume 2290.501953
_symmetry_space_group_name_H-M "F 2 2 2"
_symmetry_group_IT_number 22
_symmetry_cell_setting 'orthorhombic'
loop_
_space_group_symop_operation_xyz
x,y,z
-x,-y,z
x,-y,-z
-x,y,-z
x,1/2+y,1/2+z
-x,1/2-y,1/2+z
x,1/2-y,1/2-z
-x,1/2+y,1/2-z
1/2+x,y,1/2+z
1/2-x,-y,1/2+z
1/2+x,-y,1/2-z
1/2-x,y,1/2-z
1/2+x,1/2+y,z
1/2-x,1/2-y,z
1/2+x,1/2-y,-z
1/2-x,1/2+y,-z
loop_
_atom_site_type_symbol
_atom_site_label
_atom_site_fract_x
_atom_site_fract_y
_atom_site_fract_z
Si Si1 0.397565 0.049079 0.597467
Si Si2 0.191684 0.066181 0.381939
Si Si3 0.250000 0.250000 0.250000
Si Si4 0.602974 0.666330 0.549197
O O1 0.388856 0.198942 0.592308
O O2 0.500000 0.000000 0.635663
O O3 0.398431 0.000000 0.500000
O O4 0.299781 0.988839 0.634370
O O5 0.179873 0.168836 0.310324
O O6 0.180631 0.134945 0.473709
O O7 0.118947 0.948487 0.386513
O O8 0.500000 0.661818 0.500000
#
# Coordination Sequence:
#
# PCOD9328697 Si02
#       4
#    16  16   4  16
#     4  11  20  35  65 101 134 168 219 291 342 397
#     4  11  24  41  65  97 138 185 228 285 341 414
#     4  12  28  44  66  96 152 192 224 286 368 404
#     4  11  22  40  73 108 128 175 248 290 336 405
#
# _framework density 22.702446999999999
#
# number of rings (size 3 to 8) (size 9 to 14) (size 15 to 20)
#    0.000    0.923    6.154    4.615    0.000    0.000 
#    0.000    6.154    0.000    0.000    0.000    0.000 
#    0.000    0.000    0.000    0.000    0.000    0.000 
#
# Total GULP energy -72672.447239 kJ/mol
# GULP energy per Si atom -5590.188249 kJ/mol
# Density = 2.265077 g / cm^3
# Si number density = 22.702447 Si / 1000 Ang^3
#
#
#
# Elastic Constant Matrix: (Units=GPa)
#
#
# Indices 1 2 3 4 5 6 
#
# 1 131.3162 52.7778 2.3433 0.0000 0.0000 0.0000
# 2 52.7778 211.7741 49.2258 0.0000 0.0000 0.0000
# 3 2.3433 49.2258 47.3458 0.0000 0.0000 0.0000
# 4 0.0000 0.0000 0.0000 48.9314 0.0000 0.0000
# 5 0.0000 0.0000 0.0000 0.0000 2.4281 0.0000
# 6 0.0000 0.0000 0.0000 0.0000 0.0000 36.4201
#
#
#
# Elastic Compliance Matrix: (Units=1/GPa)
#
#
# Indices 1 2 3 4 5 6 
#
# 1 0.008664 -0.002716 0.002395 0.000000 0.000000 0.000000
# 2 -0.002716 0.007078 -0.007225 0.000000 0.000000 0.000000
# 3 0.002395 -0.007225 0.028514 0.000000 0.000000 0.000000
# 4 0.000000 0.000000 0.000000 0.020437 0.000000 0.000000
# 5 0.000000 0.000000 0.000000 0.000000 0.411853 0.000000
# 6 0.000000 0.000000 0.000000 0.000000 0.000000 0.027457
#
#
# Mechanical properties :
#
#
# Convention : Reuss Voigt Hill
#
# Bulk Modulus (GPa) = 34.28764 66.56998 50.42881
# Shear Modulus (GPa) = 9.45507 36.62852 23.04179
#
# Velocity S-wave (km/s) = 2.04299 4.02109 3.18928
# Velocity P-wave (km/s) = 4.54983 7.13761 5.98525
#
# Compressibility (1/GPa) = 0.02916503
#
# Stress axis : x y z
#
# Youngs Moduli (GPa) = 115.41962 141.27757 35.06988
#
# Poissons Ratio (x) = 0.38370 -0.08399
# Poissons Ratio (y) = 0.31347 0.25338
# Poissons Ratio (z) = -0.27642 1.02072
#
# Static dielectric constant tensor:
#      x y z
#    x 1.919090 0.000000 0.000000 
#    y 0.000000 1.866040 0.000000 
#    z 0.000000 0.000000 1.853420 
# 
# From -- ./inp_files/20718.got.cif
#   From: 2010.05.17/outbox.cif.g08.bks.cpg/sg22_11_cif.got.tgz:20718.got - 2010.06.03 23:40:54.
