data_PCOD9328513
_publ_section_title
;
Structure prediction by ZEFSAII (Michael W. Deem and Ramdas Pophale) SiO2 
 PCOD9328513
Probable space group: F 2 2 2
;
_chemical_formula_sum "Si O2"
_cell_formula_units_Z 36
_cell_length_a 4.642247
_cell_length_b 15.821305
_cell_length_c 21.166826
_cell_angle_alpha 90.000000
_cell_angle_beta 90.000000
_cell_angle_gamma 90.000000
_cell_volume 1554.627289
_symmetry_space_group_name_H-M "F 2 2 2"
_symmetry_group_IT_number 22
_symmetry_cell_setting 'orthorhombic'
loop_
_space_group_symop_operation_xyz
x,y,z
-x,-y,z
x,-y,-z
-x,y,-z
x,1/2+y,1/2+z
-x,1/2-y,1/2+z
x,1/2-y,1/2-z
-x,1/2+y,1/2-z
1/2+x,y,1/2+z
1/2-x,-y,1/2+z
1/2+x,-y,1/2-z
1/2-x,y,1/2-z
1/2+x,1/2+y,z
1/2-x,1/2-y,z
1/2+x,1/2-y,-z
1/2-x,1/2+y,-z
loop_
_atom_site_type_symbol
_atom_site_label
_atom_site_fract_x
_atom_site_fract_y
_atom_site_fract_z
Si Si1 0.000000 0.500000 0.000000
Si Si2 0.760448 0.873534 0.101061
Si Si3 0.000000 0.500000 0.704284
Si Si4 0.250000 0.750000 0.100043
O O1 0.829383 0.561351 0.047021
O O2 0.486529 0.818434 0.125536
O O3 0.883066 0.926211 0.159528
O O4 0.012082 0.814193 0.072848
O O5 0.250000 0.467881 0.750000
#
# Coordination Sequence:
#
# PCOD9328513 Si02
#       4
#     4  16   8   8
#     4  12  26  46  76 106 142 184 236 288 344 426
#     4  11  25  46  72 106 141 186 234 287 352 414
#     4  12  25  47  76 103 137 186 242 290 338 414
#     4  10  24  46  69 104 148 182 229 286 356 418
#
# _framework density 23.156677999999999
#
# number of rings (size 3 to 8) (size 9 to 14) (size 15 to 20)
#    0.000    0.889    0.000    6.667    0.000   11.556 
#    0.000   16.667    0.000    0.000    0.000    0.000 
#    0.000    0.000    0.000    0.000    0.000    0.000 
#
# Total GULP energy -50179.385495 kJ/mol
# GULP energy per Si atom -5575.487277 kJ/mol
# Density = 2.310397 g / cm^3
# Si number density = 23.156678 Si / 1000 Ang^3
#
#
#
# Elastic Constant Matrix: (Units=GPa)
#
#
# Indices 1 2 3 4 5 6 
#
# 1 199.5571 104.5263 77.0691 0.0000 0.0000 0.0000
# 2 104.5263 179.8610 81.8630 0.0000 0.0000 0.0000
# 3 77.0691 81.8630 156.3790 0.0000 0.0000 0.0000
# 4 0.0000 0.0000 0.0000 -10.0192 0.0000 0.0000
# 5 0.0000 0.0000 0.0000 0.0000 160.8104 0.0000
# 6 0.0000 0.0000 0.0000 0.0000 0.0000 67.1453
#
#
#
# Elastic Compliance Matrix: (Units=1/GPa)
#
#
# Indices 1 2 3 4 5 6 
#
# 1 0.007604 -0.003562 -0.001883 0.000000 0.000000 0.000000
# 2 -0.003562 0.008968 -0.002939 0.000000 0.000000 0.000000
# 3 -0.001883 -0.002939 0.008861 0.000000 0.000000 0.000000
# 4 0.000000 0.000000 0.000000 -0.099808 0.000000 0.000000
# 5 0.000000 0.000000 0.000000 0.000000 0.006219 0.000000
# 6 0.000000 0.000000 0.000000 0.000000 0.000000 0.014893
#
#
# Mechanical properties :
#
#
# Convention : Reuss Voigt Hill
#
# Bulk Modulus (GPa) = 115.40570 118.07932 116.74251
# Shear Modulus (GPa) = -148.77656 61.74321 -43.51667
#
# Velocity S-wave (km/s) = -8.02417 5.16925 -4.33971
# Velocity P-wave (km/s) = 5.99205 9.31291 5.04112
#
# Compressibility (1/GPa) = 0.00866508
#
# Stress axis : x y z
#
# Youngs Moduli (GPa) = 131.50879 111.51218 112.85245
#
# Poissons Ratio (x) = 0.39722 0.21248
# Poissons Ratio (y) = 0.46845 0.33166
# Poissons Ratio (z) = 0.24760 0.32773
#
# Static dielectric constant tensor:
#      x y z
#    x 1.926770 0.000000 0.000000 
#    y 0.000000 1.867560 0.000000 
#    z 0.000000 0.000000 1.820280 
# 
# From -- ./inp_files/3064.got.cif
#   From: 2010.05.17/outbox.cif.g08.bks.cpg/sg22_2_cif.got.tgz:3064.got - 2010.06.03 23:40:54.
