data_PCOD9328493
_publ_section_title
;
Structure prediction by ZEFSAII (Michael W. Deem and Ramdas Pophale) SiO2 
 PCOD9328493
Probable space group: F 2 2 2
;
_chemical_formula_sum "Si O2"
_cell_formula_units_Z 88
_cell_length_a 20.743562
_cell_length_b 9.318349
_cell_length_c 21.250669
_cell_angle_alpha 90.000000
_cell_angle_beta 90.000000
_cell_angle_gamma 90.000000
_cell_volume 4107.664007
_symmetry_space_group_name_H-M "F 2 2 2"
_symmetry_group_IT_number 22
_symmetry_cell_setting 'orthorhombic'
loop_
_space_group_symop_operation_xyz
x,y,z
-x,-y,z
x,-y,-z
-x,y,-z
x,1/2+y,1/2+z
-x,1/2-y,1/2+z
x,1/2-y,1/2-z
-x,1/2+y,1/2-z
1/2+x,y,1/2+z
1/2-x,-y,1/2+z
1/2+x,-y,1/2-z
1/2-x,y,1/2-z
1/2+x,1/2+y,z
1/2-x,1/2-y,z
1/2+x,1/2-y,-z
1/2-x,1/2+y,-z
loop_
_atom_site_type_symbol
_atom_site_label
_atom_site_fract_x
_atom_site_fract_y
_atom_site_fract_z
Si Si1 0.000000 0.000000 0.779681
Si Si2 0.579997 0.659167 0.888354
Si Si3 0.831301 0.410664 0.141669
Si Si4 0.000000 0.000000 0.000000
Si Si5 0.250000 0.750000 0.250000
Si Si6 0.077466 0.750000 0.750000
Si Si7 0.205640 0.501848 0.426940
Si Si8 0.179965 0.242886 0.344097
O O1 0.034954 0.886676 0.735085
O O2 0.958377 0.900927 0.827950
O O3 0.604866 0.823554 0.879240
O O4 0.541653 0.602408 0.951525
O O5 0.649879 0.586318 0.891799
O O6 0.796797 0.343450 0.204047
O O7 0.773173 0.423123 0.090562
O O8 0.842592 0.579974 0.150487
O O9 0.123834 0.688647 0.696376
O O10 0.196202 0.500000 0.500000
O O11 0.194037 0.338744 0.404616
O O12 0.250000 0.250000 0.312852
#
# Coordination Sequence:
#
# PCOD9328493 Si02
#       8
#     8  16  16   4   4   8  16  16
#     4  11  28  41  66  96 138 193 235 278 338 416
#     4  11  22  46  66 101 131 192 241 278 350 415
#     4  11  26  40  69 108 146 177 231 297 357 419
#     4  10  24  44  80  86 136 204 240 286 338 440
#     4  12  24  38  66 108 146 192 214 286 374 424
#     4  12  25  45  68  96 138 186 240 278 338 428
#     4  11  22  47  73 102 141 177 232 294 369 429
#     4  10  25  43  69 105 138 179 224 293 362 423
#
# _framework density 21.423369000000001
#
# number of rings (size 3 to 8) (size 9 to 14) (size 15 to 20)
#    0.000    1.091    4.545    0.273   10.182    4.364 
#    0.000    0.000    0.000    1.091    0.000    0.000 
#    0.000    0.000    0.000    0.000    0.000    0.000 
#
# Total GULP energy -122550.630112 kJ/mol
# GULP energy per Si atom -5570.483187 kJ/mol
# Density = 2.137461 g / cm^3
# Si number density = 21.423369 Si / 1000 Ang^3
#
#
#
# Elastic Constant Matrix: (Units=GPa)
#
#
# Indices 1 2 3 4 5 6 
#
# 1 90.0515 38.7397 14.3012 0.0000 0.0000 0.0000
# 2 38.7397 142.8751 38.4877 0.0000 0.0000 0.0000
# 3 14.3012 38.4877 88.7963 0.0000 0.0000 0.0000
# 4 0.0000 0.0000 0.0000 75.8799 0.0000 0.0000
# 5 0.0000 0.0000 0.0000 0.0000 23.3260 0.0000
# 6 0.0000 0.0000 0.0000 0.0000 0.0000 40.0803
#
#
#
# Elastic Compliance Matrix: (Units=1/GPa)
#
#
# Indices 1 2 3 4 5 6 
#
# 1 0.012601 -0.003249 -0.000621 0.000000 0.000000 0.000000
# 2 -0.003249 0.008762 -0.003275 0.000000 0.000000 0.000000
# 3 -0.000621 -0.003275 0.012781 0.000000 0.000000 0.000000
# 4 0.000000 0.000000 0.000000 0.013179 0.000000 0.000000
# 5 0.000000 0.000000 0.000000 0.000000 0.042871 0.000000
# 6 0.000000 0.000000 0.000000 0.000000 0.000000 0.024950
#
#
# Mechanical properties :
#
#
# Convention : Reuss Voigt Hill
#
# Bulk Modulus (GPa) = 50.36649 56.08665 53.22657
# Shear Modulus (GPa) = 36.75058 43.20354 39.97706
#
# Velocity S-wave (km/s) = 4.14628 4.49559 4.32447
# Velocity P-wave (km/s) = 6.81787 7.29274 7.05930
#
# Compressibility (1/GPa) = 0.01985447
#
# Stress axis : x y z
#
# Youngs Moduli (GPa) = 79.35696 114.12536 78.24067
#
# Poissons Ratio (x) = 0.37085 0.04859
# Poissons Ratio (y) = 0.25787 0.25620
# Poissons Ratio (z) = 0.04929 0.37371
#
# Static dielectric constant tensor:
#      x y z
#    x 1.822550 0.000000 0.000000 
#    y 0.000000 1.843070 0.000000 
#    z 0.000000 0.000000 1.765670 
# 
# From -- ./inp_files/49864.got.cif
#   From: 2010.05.17/outbox.cif.g08.bks.cpg/sg22_25_cif.got.tgz:49864.got - 2010.06.03 23:40:54.
