data_PCOD9328516
_publ_section_title
;
Structure prediction by ZEFSAII (Michael W. Deem and Ramdas Pophale) SiO2 
 PCOD9328516
Probable space group: F 2 2 2
;
_chemical_formula_sum "Si O2"
_cell_formula_units_Z 88
_cell_length_a 10.352958
_cell_length_b 18.678296
_cell_length_c 20.835682
_cell_angle_alpha 90.000000
_cell_angle_beta 90.000000
_cell_angle_gamma 90.000000
_cell_volume 4029.112800
_symmetry_space_group_name_H-M "F 2 2 2"
_symmetry_group_IT_number 22
_symmetry_cell_setting 'orthorhombic'
loop_
_space_group_symop_operation_xyz
x,y,z
-x,-y,z
x,-y,-z
-x,y,-z
x,1/2+y,1/2+z
-x,1/2-y,1/2+z
x,1/2-y,1/2-z
-x,1/2+y,1/2-z
1/2+x,y,1/2+z
1/2-x,-y,1/2+z
1/2+x,-y,1/2-z
1/2-x,y,1/2-z
1/2+x,1/2+y,z
1/2-x,1/2-y,z
1/2+x,1/2-y,-z
1/2-x,1/2+y,-z
loop_
_atom_site_type_symbol
_atom_site_label
_atom_site_fract_x
_atom_site_fract_y
_atom_site_fract_z
Si Si1 0.352113 0.977679 0.640221
Si Si2 0.750000 0.921026 0.750000
Si Si3 0.250000 0.750000 0.393104
Si Si4 0.960691 0.189628 0.298386
Si Si5 0.269105 0.000000 0.000000
Si Si6 0.647709 0.345363 0.498377
Si Si7 0.776704 0.331000 0.857074
O O1 0.321435 0.894979 0.659125
O O2 0.500000 0.000000 0.647745
O O3 0.273293 0.029394 0.688034
O O4 0.311733 0.988265 0.565641
O O5 0.869363 0.868255 0.735482
O O6 0.127172 0.765021 0.348489
O O7 0.260511 0.684234 0.442256
O O8 0.008243 0.250000 0.250000
O O9 0.080536 0.150934 0.331532
O O10 0.354125 0.070013 0.990112
O O11 0.500000 0.316730 0.500000
O O12 0.712351 0.328793 0.566122
O O13 0.750000 0.250000 0.835312
#
# Coordination Sequence:
#
# PCOD9328516 Si02
#       7
#    16   8   8  16   8  16  16
#     4  11  28  49  75 106 148 195 250 308 381 449
#     4  12  27  48  73 106 142 200 248 304 373 458
#     4  12  21  42  74 106 147 190 238 310 364 455
#     4  12  26  45  72 105 147 191 249 297 374 444
#     4  10  24  46  74 104 138 189 243 308 370 438
#     4  11  22  41  70 105 143 185 233 300 369 441
#     4  11  27  46  71 109 144 191 242 306 374 438
#
# _framework density 21.841037
#
# number of rings (size 3 to 8) (size 9 to 14) (size 15 to 20)
#    0.000    0.727    4.545    1.636    5.091    0.364 
#    0.000    1.818    0.000    0.000    0.000    0.000 
#    0.000    0.000    0.000    0.000    0.000    0.000 
#
# Total GULP energy -122943.963906 kJ/mol
# GULP energy per Si atom -5588.361996 kJ/mol
# Density = 2.179133 g / cm^3
# Si number density = 21.841037 Si / 1000 Ang^3
#
#
#
# Elastic Constant Matrix: (Units=GPa)
#
#
# Indices 1 2 3 4 5 6 
#
# 1 92.4841 49.8519 16.3996 0.0000 0.0000 0.0000
# 2 49.8519 155.0804 37.6876 0.0000 0.0000 0.0000
# 3 16.3996 37.6876 104.5504 0.0000 0.0000 0.0000
# 4 0.0000 0.0000 0.0000 -3.8213 0.0000 0.0000
# 5 0.0000 0.0000 0.0000 0.0000 -12.4233 0.0000
# 6 0.0000 0.0000 0.0000 0.0000 0.0000 34.9703
#
#
#
# Elastic Compliance Matrix: (Units=1/GPa)
#
#
# Indices 1 2 3 4 5 6 
#
# 1 0.013112 -0.004072 -0.000589 0.000000 0.000000 0.000000
# 2 -0.004072 0.008332 -0.002365 0.000000 0.000000 0.000000
# 3 -0.000589 -0.002365 0.010510 0.000000 0.000000 0.000000
# 4 0.000000 0.000000 0.000000 -0.261694 0.000000 0.000000
# 5 0.000000 0.000000 0.000000 0.000000 -0.080494 0.000000
# 6 0.000000 0.000000 0.000000 0.000000 0.000000 0.028596
#
#
# Mechanical properties :
#
#
# Convention : Reuss Voigt Hill
#
# Bulk Modulus (GPa) = 55.85837 62.22147 59.03992
# Shear Modulus (GPa) = -19.11163 20.29021 0.58929
#
# Velocity S-wave (km/s) = -2.96131 3.05125 0.51999
# Velocity P-wave (km/s) = 3.73337 6.40029 5.23936
#
# Compressibility (1/GPa) = 0.01790242
#
# Stress axis : x y z
#
# Youngs Moduli (GPa) = 76.26634 120.02120 95.15147
#
# Poissons Ratio (x) = 0.48871 0.05604
# Poissons Ratio (y) = 0.31054 0.22501
# Poissons Ratio (z) = 0.04492 0.28382
#
# Static dielectric constant tensor:
#      x y z
#    x 1.788110 0.000000 0.000000 
#    y 0.000000 1.799170 0.000000 
#    z 0.000000 0.000000 1.810820 
# 
# From -- ./inp_files/21445.got.cif
#   From: 2010.05.17/outbox.cif.g08.bks.cpg/sg22_11_cif.got.tgz:21445.got - 2010.06.03 23:40:54.
