data_PCOD9328533
_publ_section_title
;
Structure prediction by ZEFSAII (Michael W. Deem and Ramdas Pophale) SiO2 
 PCOD9328533
Probable space group: F 2 2 2
;
_chemical_formula_sum "Si O2"
_cell_formula_units_Z 48
_cell_length_a 5.029388
_cell_length_b 13.028774
_cell_length_c 30.566090
_cell_angle_alpha 90.000000
_cell_angle_beta 90.000000
_cell_angle_gamma 90.000000
_cell_volume 2002.896832
_symmetry_space_group_name_H-M "F 2 2 2"
_symmetry_group_IT_number 22
_symmetry_cell_setting 'orthorhombic'
loop_
_space_group_symop_operation_xyz
x,y,z
-x,-y,z
x,-y,-z
-x,y,-z
x,1/2+y,1/2+z
-x,1/2-y,1/2+z
x,1/2-y,1/2-z
-x,1/2+y,1/2-z
1/2+x,y,1/2+z
1/2-x,-y,1/2+z
1/2+x,-y,1/2-z
1/2-x,y,1/2-z
1/2+x,1/2+y,z
1/2-x,1/2-y,z
1/2+x,1/2-y,-z
1/2-x,1/2+y,-z
loop_
_atom_site_type_symbol
_atom_site_label
_atom_site_fract_x
_atom_site_fract_y
_atom_site_fract_z
Si Si1 0.494026 0.317817 0.167062
Si Si2 0.000000 0.000000 0.102551
Si Si3 0.748151 0.368381 0.531684
Si Si4 0.250000 0.066804 0.250000
O O1 0.750000 0.250000 0.177527
O O2 0.282712 0.448258 0.070850
O O3 0.585193 0.406829 0.133820
O O4 0.250000 0.250000 0.148785
O O5 0.872810 0.868232 0.210643
O O6 0.500000 0.382896 0.500000
O O7 0.750000 0.250000 0.547501
O O8 0.000000 0.379199 0.500000
O O9 0.500000 0.000000 0.233135
#
# Coordination Sequence:
#
# PCOD9328533 Si02
#       4
#    16   8  16   8
#     4  12  29  50  79 118 161 210 263 333 400 471
#     4  12  27  50  80 112 160 202 268 326 403 466
#     4  10  24  47  76 110 148 200 254 314 387 467
#     4  12  25  52  85 114 158 218 275 328 403 480
#
# _framework density 23.965288000000001
#
# number of rings (size 3 to 8) (size 9 to 14) (size 15 to 20)
#    0.000    0.667    1.667    4.000    0.000   13.333 
#    0.000    3.333    0.000    0.000    0.000    0.000 
#    0.000    0.000    0.000    0.000    0.000    0.000 
#
# Total GULP energy -67271.668297 kJ/mol
# GULP energy per Si atom -5605.972358 kJ/mol
# Density = 2.391074 g / cm^3
# Si number density = 23.965288 Si / 1000 Ang^3
#
#
#
# Elastic Constant Matrix: (Units=GPa)
#
#
# Indices 1 2 3 4 5 6 
#
# 1 207.2195 89.4765 80.1440 0.0000 0.0000 0.0000
# 2 89.4765 195.3858 105.2370 0.0000 0.0000 0.0000
# 3 80.1440 105.2370 182.2842 0.0000 0.0000 0.0000
# 4 0.0000 0.0000 0.0000 968.3996 0.0000 0.0000
# 5 0.0000 0.0000 0.0000 0.0000 183.2077 0.0000
# 6 0.0000 0.0000 0.0000 0.0000 0.0000 55.8838
#
#
#
# Elastic Compliance Matrix: (Units=1/GPa)
#
#
# Indices 1 2 3 4 5 6 
#
# 1 0.006324 -0.002030 -0.001609 0.000000 0.000000 0.000000
# 2 -0.002030 0.008079 -0.003772 0.000000 0.000000 0.000000
# 3 -0.001609 -0.003772 0.008371 0.000000 0.000000 0.000000
# 4 0.000000 0.000000 0.000000 0.001033 0.000000 0.000000
# 5 0.000000 0.000000 0.000000 0.000000 0.005458 0.000000
# 6 0.000000 0.000000 0.000000 0.000000 0.000000 0.017894
#
#
# Mechanical properties :
#
#
# Convention : Reuss Voigt Hill
#
# Bulk Modulus (GPa) = 125.72920 126.06718 125.89819
# Shear Modulus (GPa) = 77.36123 262.16702 169.76413
#
# Velocity S-wave (km/s) = 5.68776 10.47053 8.42563
# Velocity P-wave (km/s) = 9.78320 14.10299 12.13683
#
# Compressibility (1/GPa) = 0.00795360
#
# Stress axis : x y z
#
# Youngs Moduli (GPa) = 158.11614 123.77492 119.46156
#
# Poissons Ratio (x) = 0.25123 0.19219
# Poissons Ratio (y) = 0.32094 0.45060
# Poissons Ratio (z) = 0.25438 0.46687
#
# Static dielectric constant tensor:
#      x y z
#    x 1.646030 0.000000 0.000000 
#    y 0.000000 1.848500 0.000000 
#    z 0.000000 0.000000 1.884290 
# 
# From -- ./inp_files/54649.got.cif
#   From: 2010.05.17/outbox.cif.g08.bks.cpg/sg22_28_cif.got.tgz:54649.got - 2010.06.03 23:40:54.
