data_PCOD9328406
_publ_section_title
;
Structure prediction by ZEFSAII (Michael W. Deem and Ramdas Pophale) SiO2 
 PCOD9328406
Probable space group: F 2 2 2
;
_chemical_formula_sum "Si O2"
_cell_formula_units_Z 68
_cell_length_a 19.936780
_cell_length_b 8.651891
_cell_length_c 16.175554
_cell_angle_alpha 90.000000
_cell_angle_beta 90.000000
_cell_angle_gamma 90.000000
_cell_volume 2790.135017
_symmetry_space_group_name_H-M "F 2 2 2"
_symmetry_group_IT_number 22
_symmetry_cell_setting 'orthorhombic'
loop_
_space_group_symop_operation_xyz
x,y,z
-x,-y,z
x,-y,-z
-x,y,-z
x,1/2+y,1/2+z
-x,1/2-y,1/2+z
x,1/2-y,1/2-z
-x,1/2+y,1/2-z
1/2+x,y,1/2+z
1/2-x,-y,1/2+z
1/2+x,-y,1/2-z
1/2-x,y,1/2-z
1/2+x,1/2+y,z
1/2-x,1/2-y,z
1/2+x,1/2-y,-z
1/2-x,1/2+y,-z
loop_
_atom_site_type_symbol
_atom_site_label
_atom_site_fract_x
_atom_site_fract_y
_atom_site_fract_z
Si Si1 0.616695 0.669337 0.401431
Si Si2 0.664011 0.358696 0.053361
Si Si3 0.185246 0.407608 0.810311
Si Si4 0.422254 0.481676 0.180411
Si Si5 0.000000 0.500000 0.000000
O O1 0.647768 0.743243 0.481869
O O2 0.673424 0.555245 0.367317
O O3 0.598636 0.803944 0.336157
O O4 0.549211 0.590659 0.436950
O O5 0.684974 0.242274 0.129359
O O6 0.599270 0.438685 0.094342
O O7 0.699416 0.500000 0.000000
O O8 0.250000 0.420771 0.750000
O O9 0.120385 0.432324 0.751249
O O10 0.500000 0.500000 0.197387
#
# Coordination Sequence:
#
# PCOD9328406 Si02
#       5
#    16  16  16  16   4
#     4  11  24  44  78 115 156 214 273 337 407 481
#     4  10  23  49  78 110 153 207 273 337 408 486
#     4  12  27  49  75 114 165 217 266 339 421 500
#     4  11  26  44  74 118 162 210 273 340 416 490
#     4  12  20  40  86 116 160 204 286 352 392 464
#
# _framework density 24.371580999999999
#
# number of rings (size 3 to 8) (size 9 to 14) (size 15 to 20)
#    0.000    0.941    2.353    2.824    1.647    8.941 
#    0.000   15.294    0.000    0.000    0.000    0.000 
#    0.000    0.000    0.000    0.000    0.000    0.000 
#
# Total GULP energy -94797.498163 kJ/mol
# GULP energy per Si atom -5576.323421 kJ/mol
# Density = 2.431611 g / cm^3
# Si number density = 24.371581 Si / 1000 Ang^3
#
#
#
# Elastic Constant Matrix: (Units=GPa)
#
#
# Indices 1 2 3 4 5 6 
#
# 1 163.1464 88.5347 92.2392 0.0000 0.0000 0.0000
# 2 88.5347 179.9847 95.2936 0.0000 0.0000 0.0000
# 3 92.2392 95.2936 198.0868 0.0000 0.0000 0.0000
# 4 0.0000 0.0000 0.0000 61.8476 0.0000 0.0000
# 5 0.0000 0.0000 0.0000 0.0000 34.2401 0.0000
# 6 0.0000 0.0000 0.0000 0.0000 0.0000 6.7156
#
#
#
# Elastic Compliance Matrix: (Units=1/GPa)
#
#
# Indices 1 2 3 4 5 6 
#
# 1 0.009465 -0.003116 -0.002908 0.000000 0.000000 0.000000
# 2 -0.003116 0.008481 -0.002629 0.000000 0.000000 0.000000
# 3 -0.002908 -0.002629 0.007667 0.000000 0.000000 0.000000
# 4 0.000000 0.000000 0.000000 0.016169 0.000000 0.000000
# 5 0.000000 0.000000 0.000000 0.000000 0.029206 0.000000
# 6 0.000000 0.000000 0.000000 0.000000 0.000000 0.148908
#
#
# Mechanical properties :
#
#
# Convention : Reuss Voigt Hill
#
# Bulk Modulus (GPa) = 120.38852 121.48366 120.93609
# Shear Modulus (GPa) = 20.83598 38.23733 29.53665
#
# Velocity S-wave (km/s) = 2.92709 3.96527 3.48506
# Velocity P-wave (km/s) = 7.80565 8.42135 8.11934
#
# Compressibility (1/GPa) = 0.00830644
#
# Stress axis : x y z
#
# Youngs Moduli (GPa) = 105.65675 117.91640 130.42600
#
# Poissons Ratio (x) = 0.36741 0.37931
# Poissons Ratio (y) = 0.32921 0.34287
# Poissons Ratio (z) = 0.30728 0.30998
#
# Static dielectric constant tensor:
#      x y z
#    x 1.956000 0.000000 0.000000 
#    y 0.000000 2.021820 0.000000 
#    z 0.000000 0.000000 1.914580 
# 
# From -- ./inp_files/38560.got.cif
#   From: 2010.05.17/outbox.cif.g08.bks.cpg/sg22_20_cif.got.tgz:38560.got - 2010.06.03 23:40:54.
