data_PCOD9328459
_publ_section_title
;
Structure prediction by ZEFSAII (Michael W. Deem and Ramdas Pophale) SiO2 
 PCOD9328459
Probable space group: F 2 2 2
;
_chemical_formula_sum "Si O2"
_cell_formula_units_Z 92
_cell_length_a 19.171778
_cell_length_b 11.235750
_cell_length_c 20.455385
_cell_angle_alpha 90.000000
_cell_angle_beta 90.000000
_cell_angle_gamma 90.000000
_cell_volume 4406.280259
_symmetry_space_group_name_H-M "F 2 2 2"
_symmetry_group_IT_number 22
_symmetry_cell_setting 'orthorhombic'
loop_
_space_group_symop_operation_xyz
x,y,z
-x,-y,z
x,-y,-z
-x,y,-z
x,1/2+y,1/2+z
-x,1/2-y,1/2+z
x,1/2-y,1/2-z
-x,1/2+y,1/2-z
1/2+x,y,1/2+z
1/2-x,-y,1/2+z
1/2+x,-y,1/2-z
1/2-x,y,1/2-z
1/2+x,1/2+y,z
1/2-x,1/2-y,z
1/2+x,1/2-y,-z
1/2-x,1/2+y,-z
loop_
_atom_site_type_symbol
_atom_site_label
_atom_site_fract_x
_atom_site_fract_y
_atom_site_fract_z
Si Si1 0.392118 0.750000 0.250000
Si Si2 0.622942 0.868017 0.978957
Si Si3 0.806475 0.928518 0.145279
Si Si4 0.750000 0.250000 0.750000
Si Si5 0.302870 0.637501 0.347895
Si Si6 0.250000 0.250000 0.043752
Si Si7 0.000000 0.306147 0.500000
Si Si8 0.944741 0.411172 0.361972
O O1 0.340198 0.649352 0.278131
O O2 0.433477 0.695656 0.189180
O O3 0.635547 0.858209 0.901531
O O4 0.699598 0.834065 0.003520
O O5 0.566864 0.778612 0.009234
O O6 0.604102 0.000000 0.000000
O O7 0.798145 0.839436 0.207046
O O8 0.798055 0.836651 0.086082
O O9 0.740525 0.017405 0.145793
O O10 0.873010 0.013425 0.134317
O O11 0.250000 0.750000 0.355661
O O12 0.976502 0.374536 0.433292
O O13 0.000000 0.500000 0.330794
#
# Coordination Sequence:
#
# PCOD9328459 Si02
#       8
#     8  16  16   4  16   8   8  16
#     4  12  25  45  70 105 136 183 244 292 360 447
#     4  12  24  43  70 103 142 189 239 305 367 436
#     4  11  23  44  70 110 143 193 238 307 370 440
#     4  10  24  42  74 110 156 182 244 306 384 442
#     4  12  22  42  75 107 143 183 240 302 364 434
#     4  11  24  39  68 107 146 179 248 296 362 437
#     4  12  26  50  68 100 140 196 248 304 372 432
#     4  12  27  47  70  99 141 195 241 297 368 440
#
# _framework density 20.879287999999999
#
# number of rings (size 3 to 8) (size 9 to 14) (size 15 to 20)
#    0.000    0.348    6.087    2.870    0.000    0.696 
#    3.130    0.000    0.000    0.000    0.000    0.000 
#    0.000    0.000    0.000    0.000    0.000    0.000 
#
# Total GULP energy -128401.933085 kJ/mol
# GULP energy per Si atom -5582.692743 kJ/mol
# Density = 2.083177 g / cm^3
# Si number density = 20.879288 Si / 1000 Ang^3
#
#
#
# Elastic Constant Matrix: (Units=GPa)
#
#
# Indices 1 2 3 4 5 6 
#
# 1 92.1377 32.3476 41.6963 0.0000 0.0000 0.0000
# 2 32.3476 123.1759 52.0501 0.0000 0.0000 0.0000
# 3 41.6963 52.0501 117.3618 0.0000 0.0000 0.0000
# 4 0.0000 0.0000 0.0000 -11.9508 0.0000 0.0000
# 5 0.0000 0.0000 0.0000 0.0000 25.1291 0.0000
# 6 0.0000 0.0000 0.0000 0.0000 0.0000 44.4253
#
#
#
# Elastic Compliance Matrix: (Units=1/GPa)
#
#
# Indices 1 2 3 4 5 6 
#
# 1 0.013262 -0.001836 -0.003897 0.000000 0.000000 0.000000
# 2 -0.001836 0.010245 -0.003891 0.000000 0.000000 0.000000
# 3 -0.003897 -0.003891 0.011631 0.000000 0.000000 0.000000
# 4 0.000000 0.000000 0.000000 -0.083677 0.000000 0.000000
# 5 0.000000 0.000000 0.000000 0.000000 0.039794 0.000000
# 6 0.000000 0.000000 0.000000 0.000000 0.000000 0.022510
#
#
# Mechanical properties :
#
#
# Convention : Reuss Voigt Hill
#
# Bulk Modulus (GPa) = 62.93859 64.98483 63.96171
# Shear Modulus (GPa) = 130.51205 25.29284 77.90244
#
# Velocity S-wave (km/s) = 7.91477 3.48427 6.11489
# Velocity P-wave (km/s) = 10.66463 6.88320 8.97532
#
# Compressibility (1/GPa) = 0.01588850
#
# Stress axis : x y z
#
# Youngs Moduli (GPa) = 75.40593 97.60901 85.97566
#
# Poissons Ratio (x) = 0.17918 0.33508
# Poissons Ratio (y) = 0.13843 0.33457
# Poissons Ratio (z) = 0.29389 0.37984
#
# Static dielectric constant tensor:
#      x y z
#    x 1.769150 0.000000 0.000000 
#    y 0.000000 1.714890 0.000000 
#    z 0.000000 0.000000 1.789880 
# 
# From -- ./inp_files/44181.got.cif
#   From: 2010.05.17/outbox.cif.g08.bks.cpg/sg22_23_cif.got.tgz:44181.got - 2010.06.03 23:40:54.
