data_PCOD9328277
_publ_section_title
;
Structure prediction by ZEFSAII (Michael W. Deem and Ramdas Pophale) SiO2 
 PCOD9328277
Probable space group: F 2 2 2
;
_chemical_formula_sum "Si O2"
_cell_formula_units_Z 108
_cell_length_a 14.934361
_cell_length_b 24.596301
_cell_length_c 14.235753
_cell_angle_alpha 90.000000
_cell_angle_beta 90.000000
_cell_angle_gamma 90.000000
_cell_volume 5229.219696
_symmetry_space_group_name_H-M "F 2 2 2"
_symmetry_group_IT_number 22
_symmetry_cell_setting 'orthorhombic'
loop_
_space_group_symop_operation_xyz
x,y,z
-x,-y,z
x,-y,-z
-x,y,-z
x,1/2+y,1/2+z
-x,1/2-y,1/2+z
x,1/2-y,1/2-z
-x,1/2+y,1/2-z
1/2+x,y,1/2+z
1/2-x,-y,1/2+z
1/2+x,-y,1/2-z
1/2-x,y,1/2-z
1/2+x,1/2+y,z
1/2-x,1/2-y,z
1/2+x,1/2-y,-z
1/2-x,1/2+y,-z
loop_
_atom_site_type_symbol
_atom_site_label
_atom_site_fract_x
_atom_site_fract_y
_atom_site_fract_z
Si Si1 0.262998 0.617568 0.026226
Si Si2 0.605976 0.014540 0.798594
Si Si3 0.903815 0.318172 0.953095
Si Si4 0.500000 0.500000 0.000000
Si Si5 0.910275 0.807355 0.063807
Si Si6 0.059809 0.131122 0.250394
Si Si7 0.694779 0.500000 0.500000
Si Si8 0.392308 0.427388 0.841841
O O1 0.168785 0.647283 0.011201
O O2 0.334261 0.650946 0.966799
O O3 0.251291 0.554992 0.997638
O O4 0.313069 0.611890 0.125118
O O5 0.617785 0.075576 0.759759
O O6 0.500000 0.000000 0.797168
O O7 0.638209 0.003219 0.903952
O O8 0.647435 0.974205 0.723147
O O9 0.879357 0.254616 0.948417
O O10 0.920906 0.341584 0.849810
O O11 0.000000 0.322188 0.000000
O O12 0.444161 0.540696 0.071157
O O13 0.925107 0.823776 0.171197
O O14 0.000000 0.815228 0.000000
O O15 0.963205 0.106948 0.219594
#
# Coordination Sequence:
#
# PCOD9328277 Si02
#       8
#    16  16  16   4  16  16   8  16
#     4  12  26  44  69 106 145 192 237 298 362 441
#     4  10  23  41  68 103 147 197 242 290 367 444
#     4  11  27  48  74 102 144 192 247 302 369 441
#     4  12  18  40  64 104 146 192 234 292 360 442
#     4  11  24  48  76 102 139 189 253 311 366 426
#     4  11  21  44  73 105 136 190 238 305 363 433
#     4  12  26  42  65 105 154 192 231 292 372 447
#     4  11  23  38  70 104 146 190 245 298 364 443
#
# _framework density 20.653176999999999
#
# number of rings (size 3 to 8) (size 9 to 14) (size 15 to 20)
#    0.000    0.889    5.185    2.444    6.222    1.185 
#    0.000    1.481    0.000    0.000    0.000    0.000 
#    0.000    0.000    0.000    0.000    0.000    0.000 
#
# Total GULP energy -150680.697485 kJ/mol
# GULP energy per Si atom -5580.766574 kJ/mol
# Density = 2.060617 g / cm^3
# Si number density = 20.653177 Si / 1000 Ang^3
#
#
#
# Elastic Constant Matrix: (Units=GPa)
#
#
# Indices 1 2 3 4 5 6 
#
# 1 79.1424 55.1096 24.9459 0.0000 0.0000 0.0000
# 2 55.1096 127.2417 12.8961 0.0000 0.0000 0.0000
# 3 24.9459 12.8961 81.0346 0.0000 0.0000 0.0000
# 4 0.0000 0.0000 0.0000 37.5219 0.0000 0.0000
# 5 0.0000 0.0000 0.0000 0.0000 22.1304 0.0000
# 6 0.0000 0.0000 0.0000 0.0000 0.0000 19.0942
#
#
#
# Elastic Compliance Matrix: (Units=1/GPa)
#
#
# Indices 1 2 3 4 5 6 
#
# 1 0.019774 -0.008077 -0.004802 0.000000 0.000000 0.000000
# 2 -0.008077 0.011288 0.000690 0.000000 0.000000 0.000000
# 3 -0.004802 0.000690 0.013709 0.000000 0.000000 0.000000
# 4 0.000000 0.000000 0.000000 0.026651 0.000000 0.000000
# 5 0.000000 0.000000 0.000000 0.000000 0.045187 0.000000
# 6 0.000000 0.000000 0.000000 0.000000 0.000000 0.052372
#
#
# Mechanical properties :
#
#
# Convention : Reuss Voigt Hill
#
# Bulk Modulus (GPa) = 49.03870 52.59130 50.81500
# Shear Modulus (GPa) = 24.98067 28.71377 26.84722
#
# Velocity S-wave (km/s) = 3.48160 3.73270 3.60933
# Velocity P-wave (km/s) = 6.32120 6.64053 6.48283
#
# Compressibility (1/GPa) = 0.02039206
#
# Stress axis : x y z
#
# Youngs Moduli (GPa) = 50.57258 88.59343 72.94632
#
# Poissons Ratio (x) = 0.71561 0.35026
# Poissons Ratio (y) = 0.40850 -0.05035
# Poissons Ratio (z) = 0.24283 -0.06115
#
# Static dielectric constant tensor:
#      x y z
#    x 1.762460 0.000000 0.000000 
#    y 0.000000 1.750970 0.000000 
#    z 0.000000 0.000000 1.743840 
# 
# From -- ./inp_files/29659.got.cif
#   From: 2010.05.17/outbox.cif.g08.bks.cpg/sg22_15_cif.got.tgz:29659.got - 2010.06.03 23:40:54.
