data_PCOD9328242
_publ_section_title
;
Structure prediction by ZEFSAII (Michael W. Deem and Ramdas Pophale) SiO2 
 PCOD9328242
Probable space group: F 2 2 2
;
_chemical_formula_sum "Si O2"
_cell_formula_units_Z 120
_cell_length_a 13.386729
_cell_length_b 22.980776
_cell_length_c 20.991573
_cell_angle_alpha 90.000000
_cell_angle_beta 90.000000
_cell_angle_gamma 90.000000
_cell_volume 6457.793370
_symmetry_space_group_name_H-M "F 2 2 2"
_symmetry_group_IT_number 22
_symmetry_cell_setting 'orthorhombic'
loop_
_space_group_symop_operation_xyz
x,y,z
-x,-y,z
x,-y,-z
-x,y,-z
x,1/2+y,1/2+z
-x,1/2-y,1/2+z
x,1/2-y,1/2-z
-x,1/2+y,1/2-z
1/2+x,y,1/2+z
1/2-x,-y,1/2+z
1/2+x,-y,1/2-z
1/2-x,y,1/2-z
1/2+x,1/2+y,z
1/2-x,1/2-y,z
1/2+x,1/2-y,-z
1/2-x,1/2+y,-z
loop_
_atom_site_type_symbol
_atom_site_label
_atom_site_fract_x
_atom_site_fract_y
_atom_site_fract_z
Si Si1 0.148048 0.367891 0.078541
Si Si2 0.686489 0.147793 0.686074
Si Si3 0.203709 0.057004 0.537598
Si Si4 0.363966 0.237551 0.417112
Si Si5 0.000000 0.344808 0.500000
Si Si6 0.995127 0.070007 0.222515
Si Si7 0.966625 0.566243 0.863292
Si Si8 0.922373 0.444972 0.409338
O O1 0.234163 0.373724 0.132602
O O2 0.099803 0.303554 0.082812
O O3 0.055040 0.407432 0.095280
O O4 0.196002 0.389493 0.012234
O O5 0.750000 0.160266 0.750000
O O6 0.639501 0.204716 0.651348
O O7 0.599645 0.100914 0.701890
O O8 0.135501 0.070075 0.598261
O O9 0.314573 0.041359 0.561800
O O10 0.165501 0.000000 0.500000
O O11 0.250000 0.250000 0.436428
O O12 0.419051 0.196253 0.466490
O O13 0.960723 0.389094 0.447139
O O14 0.964576 0.092551 0.292045
O O15 0.919313 0.075754 0.163854
O O16 0.000000 0.000000 0.227293
O O17 0.000000 0.500000 0.856075
O O18 0.000000 0.500000 0.415219
#
# Coordination Sequence:
#
# PCOD9328242 Si02
#       8
#    16  16  16  16   8  16  16  16
#     4  11  24  40  62  95 129 164 219 266 323 379
#     4  11  21  43  67  93 129 166 216 270 320 387
#     4  12  25  39  65  93 128 171 211 262 317 392
#     4  10  24  39  62  94 124 168 213 265 326 373
#     4  12  21  42  62  88 137 154 206 274 322 380
#     4  10  23  40  61  93 128 167 205 258 323 377
#     4  11  23  42  60  89 129 171 210 257 318 391
#     4  11  24  40  64  94 126 167 211 262 325 385
#
# _framework density 18.582198000000002
#
# number of rings (size 3 to 8) (size 9 to 14) (size 15 to 20)
#    0.000    1.067    4.000    3.000    5.600    2.933 
#    0.000    0.000    0.000    0.000    0.000    0.000 
#    0.000    0.000    0.000    0.000    0.000    0.000 
#
# Total GULP energy -167262.023474 kJ/mol
# GULP energy per Si atom -5575.400782 kJ/mol
# Density = 1.853990 g / cm^3
# Si number density = 18.582198 Si / 1000 Ang^3
#
#
#
# Elastic Constant Matrix: (Units=GPa)
#
#
# Indices 1 2 3 4 5 6 
#
# 1 71.2693 43.4757 71.6378 0.0000 0.0000 0.0000
# 2 43.4757 97.9957 31.1152 0.0000 0.0000 0.0000
# 3 71.6378 31.1152 134.4184 0.0000 0.0000 0.0000
# 4 0.0000 0.0000 0.0000 -12.8794 0.0000 0.0000
# 5 0.0000 0.0000 0.0000 0.0000 42.2526 0.0000
# 6 0.0000 0.0000 0.0000 0.0000 0.0000 28.9493
#
#
#
# Elastic Compliance Matrix: (Units=1/GPa)
#
#
# Indices 1 2 3 4 5 6 
#
# 1 0.039802 -0.011789 -0.018483 0.000000 0.000000 0.000000
# 2 -0.011789 0.014506 0.002925 0.000000 0.000000 0.000000
# 3 -0.018483 0.002925 0.016613 0.000000 0.000000 0.000000
# 4 0.000000 0.000000 0.000000 -0.077644 0.000000 0.000000
# 5 0.000000 0.000000 0.000000 0.000000 0.023667 0.000000
# 6 0.000000 0.000000 0.000000 0.000000 0.000000 0.034543
#
#
# Mechanical properties :
#
#
# Convention : Reuss Voigt Hill
#
# Bulk Modulus (GPa) = 61.62920 66.23788 63.93354
# Shear Modulus (GPa) = 44.80669 22.16150 33.48409
#
# Velocity S-wave (km/s) = 4.91580 3.45718 4.24954
# Velocity P-wave (km/s) = 8.09060 7.18745 7.65236
#
# Compressibility (1/GPa) = 0.01622608
#
# Stress axis : x y z
#
# Youngs Moduli (GPa) = 25.12456 68.93686 60.19431
#
# Poissons Ratio (x) = 0.81271 1.11258
# Poissons Ratio (y) = 0.29620 -0.17608
# Poissons Ratio (z) = 0.46438 -0.20165
#
# Static dielectric constant tensor:
#      x y z
#    x 1.697960 0.000000 0.000000 
#    y 0.000000 1.716250 0.000000 
#    z 0.000000 0.000000 1.686480 
# 
# From -- ./inp_files/42935.got.cif
#   From: 2010.05.17/outbox.cif.g08.bks.cpg/sg22_22_cif.got.tgz:42935.got - 2010.06.03 23:40:54.
