data_PCOD9328226
_publ_section_title
;
Structure prediction by ZEFSAII (Michael W. Deem and Ramdas Pophale) SiO2 
 PCOD9328226
Probable space group: F 2 2 2
;
_chemical_formula_sum "Si O2"
_cell_formula_units_Z 80
_cell_length_a 11.872068
_cell_length_b 14.088676
_cell_length_c 19.925411
_cell_angle_alpha 90.000000
_cell_angle_beta 90.000000
_cell_angle_gamma 90.000000
_cell_volume 3332.758506
_symmetry_space_group_name_H-M "F 2 2 2"
_symmetry_group_IT_number 22
_symmetry_cell_setting 'orthorhombic'
loop_
_space_group_symop_operation_xyz
x,y,z
-x,-y,z
x,-y,-z
-x,y,-z
x,1/2+y,1/2+z
-x,1/2-y,1/2+z
x,1/2-y,1/2-z
-x,1/2+y,1/2-z
1/2+x,y,1/2+z
1/2-x,-y,1/2+z
1/2+x,-y,1/2-z
1/2-x,y,1/2-z
1/2+x,1/2+y,z
1/2-x,1/2-y,z
1/2+x,1/2-y,-z
1/2-x,1/2+y,-z
loop_
_atom_site_type_symbol
_atom_site_label
_atom_site_fract_x
_atom_site_fract_y
_atom_site_fract_z
Si Si1 0.498950 0.744383 0.350009
Si Si2 0.250000 0.250000 0.367529
Si Si3 0.598293 0.437004 0.188706
Si Si4 0.694036 0.580063 0.452197
Si Si5 0.355222 0.053195 0.838977
Si Si6 0.500000 0.286365 0.500000
O O1 0.630925 0.731726 0.331822
O O2 0.446941 0.830098 0.308437
O O3 0.424330 0.649946 0.345477
O O4 0.494260 0.768702 0.429937
O O5 0.230884 0.344067 0.412800
O O6 0.500000 0.500000 0.156305
O O7 0.620551 0.479445 0.262984
O O8 0.720369 0.432694 0.154914
O O9 0.745860 0.500000 0.500000
O O10 0.622483 0.524463 0.395592
O O11 0.608433 0.645284 0.494110
#
# Coordination Sequence:
#
# PCOD9328226 Si02
#       6
#    16   8  16  16  16   8
#     4  11  23  46  67 104 147 187 251 306 369 456
#     4  10  26  38  69 110 148 183 250 318 388 438
#     4  11  26  46  69 105 145 193 248 309 376 452
#     4  11  22  42  70 107 142 191 248 308 370 458
#     4  11  25  44  76  99 146 199 247 299 381 459
#     4  10  23  38  73 106 136 186 251 300 370 443
#
# _framework density 24.00414
#
# number of rings (size 3 to 8) (size 9 to 14) (size 15 to 20)
#    0.000    1.200    2.000    2.700    8.400    4.800 
#    0.000    1.500    0.000    0.000    0.000    0.000 
#    0.000    0.000    0.000    0.000    0.000    0.000 
#
# Total GULP energy -111804.153436 kJ/mol
# GULP energy per Si atom -5590.207672 kJ/mol
# Density = 2.394951 g / cm^3
# Si number density = 24.004140 Si / 1000 Ang^3
#
#
#
# Elastic Constant Matrix: (Units=GPa)
#
#
# Indices 1 2 3 4 5 6 
#
# 1 189.2850 46.6240 0.0889 0.0000 0.0000 0.0000
# 2 46.6240 120.3340 11.8921 0.0000 0.0000 0.0000
# 3 0.0889 11.8921 93.1443 0.0000 0.0000 0.0000
# 4 0.0000 0.0000 0.0000 17.9691 0.0000 0.0000
# 5 0.0000 0.0000 0.0000 0.0000 21.7977 0.0000
# 6 0.0000 0.0000 0.0000 0.0000 0.0000 44.8699
#
#
#
# Elastic Compliance Matrix: (Units=1/GPa)
#
#
# Indices 1 2 3 4 5 6 
#
# 1 0.005848 -0.002294 0.000287 0.000000 0.000000 0.000000
# 2 -0.002294 0.009316 -0.001187 0.000000 0.000000 0.000000
# 3 0.000287 -0.001187 0.010887 0.000000 0.000000 0.000000
# 4 0.000000 0.000000 0.000000 0.055651 0.000000 0.000000
# 5 0.000000 0.000000 0.000000 0.000000 0.045876 0.000000
# 6 0.000000 0.000000 0.000000 0.000000 0.000000 0.022287
#
#
# Mechanical properties :
#
#
# Convention : Reuss Voigt Hill
#
# Bulk Modulus (GPa) = 50.85580 57.77480 54.31530
# Shear Modulus (GPa) = 30.71086 39.87123 35.29105
#
# Velocity S-wave (km/s) = 3.58075 4.07998 3.83849
# Velocity P-wave (km/s) = 6.19096 6.80558 6.50553
#
# Compressibility (1/GPa) = 0.01966344
#
# Stress axis : x y z
#
# Youngs Moduli (GPa) = 170.99826 107.33704 91.84980
#
# Poissons Ratio (x) = 0.24626 -0.02639
# Poissons Ratio (y) = 0.39231 0.10905
# Poissons Ratio (z) = -0.04913 0.12744
#
# Static dielectric constant tensor:
#      x y z
#    x 1.946120 0.000000 0.000000 
#    y 0.000000 1.903450 0.000000 
#    z 0.000000 0.000000 1.986370 
# 
# From -- ./inp_files/48746.got.cif
#   From: 2010.05.17/outbox.cif.g08.bks.cpg/sg22_25_cif.got.tgz:48746.got - 2010.06.03 23:40:54.
