data_PCOD9328445
_publ_section_title
;
Structure prediction by ZEFSAII (Michael W. Deem and Ramdas Pophale) SiO2 
 PCOD9328445
Probable space group: F 2 2 2
;
_chemical_formula_sum "Si O2"
_cell_formula_units_Z 84
_cell_length_a 28.237468
_cell_length_b 26.278680
_cell_length_c 5.182924
_cell_angle_alpha 90.000000
_cell_angle_beta 90.000000
_cell_angle_gamma 90.000000
_cell_volume 3845.954472
_symmetry_space_group_name_H-M "F 2 2 2"
_symmetry_group_IT_number 22
_symmetry_cell_setting 'orthorhombic'
loop_
_space_group_symop_operation_xyz
x,y,z
-x,-y,z
x,-y,-z
-x,y,-z
x,1/2+y,1/2+z
-x,1/2-y,1/2+z
x,1/2-y,1/2-z
-x,1/2+y,1/2-z
1/2+x,y,1/2+z
1/2-x,-y,1/2+z
1/2+x,-y,1/2-z
1/2-x,y,1/2-z
1/2+x,1/2+y,z
1/2-x,1/2-y,z
1/2+x,1/2-y,-z
1/2-x,1/2+y,-z
loop_
_atom_site_type_symbol
_atom_site_label
_atom_site_fract_x
_atom_site_fract_y
_atom_site_fract_z
Si Si1 0.595064 0.750000 0.250000
Si Si2 0.750000 0.118639 0.750000
Si Si3 0.250000 0.452484 0.750000
Si Si4 0.054574 0.144072 0.417748
Si Si5 0.106355 0.398519 0.590927
Si Si6 0.175673 0.318152 0.466930
Si Si7 0.250000 0.750000 0.250000
Si Si8 0.836319 0.000000 0.000000
O O1 0.567340 0.795069 0.100464
O O2 0.631642 0.781243 0.424571
O O3 0.749114 0.083737 0.498659
O O4 0.702676 0.153439 0.765931
O O5 0.202288 0.486436 0.723147
O O6 0.080562 0.110503 0.637415
O O7 0.000000 0.140768 0.500000
O O8 0.072131 0.122255 0.139921
O O9 0.152755 0.363523 0.623720
O O10 0.128173 0.452065 0.501175
O O11 0.216646 0.285733 0.587186
#
# Coordination Sequence:
#
# PCOD9328445 Si02
#       8
#     8   8   8  16  16  16   4   8
#     4  10  24  41  73 102 142 188 239 293 360 454
#     4  12  25  43  67  99 154 196 242 301 347 414
#     4  12  28  44  70 106 144 200 250 297 343 428
#     4  11  26  50  75 108 141 183 236 310 381 447
#     4  11  27  45  74 102 147 183 244 308 365 442
#     4  11  23  40  62 104 143 195 237 292 350 425
#     4  12  22  38  68  98 152 208 246 284 352 440
#     4  12  28  48  75 110 146 198 255 294 372 418
#
# _framework density 21.841132000000002
#
# number of rings (size 3 to 8) (size 9 to 14) (size 15 to 20)
#    0.000    0.762    1.905    4.000    5.333    7.619 
#    0.000    2.857    0.000    0.000    0.000    0.000 
#    0.000    0.000    0.000    0.000    0.000    0.000 
#
# Total GULP energy -117159.347811 kJ/mol
# GULP energy per Si atom -5579.016562 kJ/mol
# Density = 2.179142 g / cm^3
# Si number density = 21.841132 Si / 1000 Ang^3
#
#
#
# Elastic Constant Matrix: (Units=GPa)
#
#
# Indices 1 2 3 4 5 6 
#
# 1 133.5508 48.0857 27.8197 -0.0294 0.0188 -0.2309
# 2 48.0857 145.0758 32.5014 -0.0746 -0.0037 0.6928
# 3 27.8197 32.5014 119.9442 -0.1238 0.0438 -0.8555
# 4 -0.0294 -0.0746 -0.1238 30.2445 -0.0461 2.1324
# 5 0.0188 -0.0037 0.0438 -0.0461 29.1296 -0.4891
# 6 -0.2309 0.6928 -0.8555 2.1324 -0.4891 136.5896
#
#
#
# Elastic Compliance Matrix: (Units=1/GPa)
#
#
# Indices 1 2 3 4 5 6 
#
# 1 0.008693 -0.002587 -0.001315 -0.000005 -0.000004 0.000020
# 2 -0.002587 0.008109 -0.001598 0.000015 0.000004 -0.000056
# 3 -0.001315 -0.001598 0.009076 0.000028 -0.000012 0.000062
# 4 -0.000005 0.000015 0.000028 0.033101 0.000044 -0.000517
# 5 -0.000004 0.000004 -0.000012 0.000044 0.034332 0.000122
# 6 0.000020 -0.000056 0.000062 -0.000517 0.000122 0.007330
#
#
# Mechanical properties :
#
#
# Convention : Reuss Voigt Hill
#
# Bulk Modulus (GPa) = 67.21266 68.37606 67.79436
# Shear Modulus (GPa) = 42.88225 58.53700 50.70962
#
# Velocity S-wave (km/s) = 4.43580 5.18261 4.82368
# Velocity P-wave (km/s) = 7.55482 8.19675 7.88232
#
# Compressibility (1/GPa) = 0.01487815
#
# Stress axis : x y z
#
# Youngs Moduli (GPa) = 115.03259 123.32677 110.18524
#
# Poissons Ratio (x) = 0.31903 0.14491
# Poissons Ratio (y) = 0.29757 0.17603
# Poissons Ratio (z) = 0.15129 0.19702
#
# Static dielectric constant tensor:
#      x y z
#    x 1.784060 0.000200 -0.003420 
#    y 0.000200 1.884520 0.000370 
#    z -0.003420 0.000370 1.622310 
# 
# From -- ./inp_files/6487.got.cif
#   From: 2010.05.17/outbox.cif.g08.bks.cpg/sg22_4_cif.got.tgz:6487.got - 2010.06.03 23:40:54.
