data_PCOD9328674
_publ_section_title
;
Structure prediction by ZEFSAII (Michael W. Deem and Ramdas Pophale) SiO2 
 PCOD9328674
Probable space group: F 2 2 2
;
_chemical_formula_sum "Si O2"
_cell_formula_units_Z 96
_cell_length_a 16.985109
_cell_length_b 11.566292
_cell_length_c 21.886571
_cell_angle_alpha 90.000000
_cell_angle_beta 90.000000
_cell_angle_gamma 90.000000
_cell_volume 4299.720404
_symmetry_space_group_name_H-M "F 2 2 2"
_symmetry_group_IT_number 22
_symmetry_cell_setting 'orthorhombic'
loop_
_space_group_symop_operation_xyz
x,y,z
-x,-y,z
x,-y,-z
-x,y,-z
x,1/2+y,1/2+z
-x,1/2-y,1/2+z
x,1/2-y,1/2-z
-x,1/2+y,1/2-z
1/2+x,y,1/2+z
1/2-x,-y,1/2+z
1/2+x,-y,1/2-z
1/2-x,y,1/2-z
1/2+x,1/2+y,z
1/2-x,1/2-y,z
1/2+x,1/2-y,-z
1/2-x,1/2+y,-z
loop_
_atom_site_type_symbol
_atom_site_label
_atom_site_fract_x
_atom_site_fract_y
_atom_site_fract_z
Si Si1 0.405321 0.977951 0.263526
Si Si2 0.331834 0.190782 0.062136
Si Si3 0.420080 0.714314 0.148788
Si Si4 0.909884 0.378334 0.481130
Si Si5 0.405044 0.478127 0.622870
Si Si6 0.895545 0.296262 0.681781
O O1 0.388794 0.851537 0.290760
O O2 0.383521 0.006599 0.193901
O O3 0.500000 0.000000 0.264689
O O4 0.373094 0.070243 0.311245
O O5 0.250000 0.250000 0.042763
O O6 0.345243 0.238408 0.130200
O O7 0.356387 0.056075 0.074127
O O8 0.387155 0.259576 0.015213
O O9 0.404525 0.633401 0.091187
O O10 0.392125 0.840143 0.126675
O O11 0.513844 0.722848 0.161380
O O12 0.869174 0.500000 0.500000
O O13 0.000000 0.389245 0.500000
O O14 0.500000 0.500000 0.614310
O O15 0.887853 0.250000 0.750000
#
# Coordination Sequence:
#
# PCOD9328674 Si02
#       6
#    16  16  16  16  16  16
#     4   9  18  30  60 100 133 166 215 292 341 396
#     4  12  26  43  62  99 140 182 227 278 348 414
#     4  11  20  34  65  98 127 168 229 290 338 390
#     4  11  23  43  68  91 122 170 235 288 330 405
#     4  11  19  38  62  95 138 172 222 284 340 415
#     4  11  18  36  62  97 136 172 222 280 348 412
#
# _framework density 22.327031999999999
#
# number of rings (size 3 to 8) (size 9 to 14) (size 15 to 20)
#    0.000    1.167    5.000    3.500    4.667    1.000 
#    3.000    1.667    0.000    0.000    0.000    2.333 
#    0.000    0.000    0.000    0.000    0.000    0.000 
#
# Total GULP energy -133686.729574 kJ/mol
# GULP energy per Si atom -5570.280399 kJ/mol
# Density = 2.227621 g / cm^3
# Si number density = 22.327032 Si / 1000 Ang^3
#
#
#
# Elastic Constant Matrix: (Units=GPa)
#
#
# Indices 1 2 3 4 5 6 
#
# 1 27.0651 8.2726 -4.5250 0.0000 0.0000 0.0000
# 2 8.2726 126.6091 14.3860 0.0000 0.0000 0.0000
# 3 -4.5250 14.3860 75.9828 0.0000 0.0000 0.0000
# 4 0.0000 0.0000 0.0000 -77.0200 0.0000 0.0000
# 5 0.0000 0.0000 0.0000 0.0000 7.0409 0.0000
# 6 0.0000 0.0000 0.0000 0.0000 0.0000 8.1433
#
#
#
# Elastic Compliance Matrix: (Units=1/GPa)
#
#
# Indices 1 2 3 4 5 6 
#
# 1 0.038281 -0.002821 0.002814 0.000000 0.000000 0.000000
# 2 -0.002821 0.008280 -0.001736 0.000000 0.000000 0.000000
# 3 0.002814 -0.001736 0.013657 0.000000 0.000000 0.000000
# 4 0.000000 0.000000 0.000000 -0.012984 0.000000 0.000000
# 5 0.000000 0.000000 0.000000 0.000000 0.142027 0.000000
# 6 0.000000 0.000000 0.000000 0.000000 0.000000 0.122800
#
#
# Mechanical properties :
#
#
# Convention : Reuss Voigt Hill
#
# Bulk Modulus (GPa) = 17.62672 29.54714 23.58693
# Shear Modulus (GPa) = 14.94957 1.73440 8.34198
#
# Velocity S-wave (km/s) = 2.59042 0.88233 1.93504
# Velocity P-wave (km/s) = 4.10596 3.78160 3.94712
#
# Compressibility (1/GPa) = 0.05673204
#
# Stress axis : x y z
#
# Youngs Moduli (GPa) = 26.12283 120.77499 73.22222
#
# Poissons Ratio (x) = 0.34070 -0.20603
# Poissons Ratio (y) = 0.07369 0.12709
# Poissons Ratio (z) = -0.07351 0.20962
#
# Static dielectric constant tensor:
#      x y z
#    x 1.880730 0.000000 0.000000 
#    y 0.000000 1.971030 0.000000 
#    z 0.000000 0.000000 1.778970 
# 
# From -- ./inp_files/39465.got.cif
#   From: 2010.05.17/outbox.cif.g08.bks.cpg/sg22_20_cif.got.tgz:39465.got - 2010.06.03 23:40:54.
