data_PCOD9328176
_publ_section_title
;
Structure prediction by ZEFSAII (Michael W. Deem and Ramdas Pophale) SiO2 
 PCOD9328176
Probable space group: F 2 2 2
;
_chemical_formula_sum "Si O2"
_cell_formula_units_Z 84
_cell_length_a 16.543922
_cell_length_b 22.562552
_cell_length_c 10.759264
_cell_angle_alpha 90.000000
_cell_angle_beta 90.000000
_cell_angle_gamma 90.000000
_cell_volume 4016.143831
_symmetry_space_group_name_H-M "F 2 2 2"
_symmetry_group_IT_number 22
_symmetry_cell_setting 'orthorhombic'
loop_
_space_group_symop_operation_xyz
x,y,z
-x,-y,z
x,-y,-z
-x,y,-z
x,1/2+y,1/2+z
-x,1/2-y,1/2+z
x,1/2-y,1/2-z
-x,1/2+y,1/2-z
1/2+x,y,1/2+z
1/2-x,-y,1/2+z
1/2+x,-y,1/2-z
1/2-x,y,1/2-z
1/2+x,1/2+y,z
1/2-x,1/2-y,z
1/2+x,1/2-y,-z
1/2-x,1/2+y,-z
loop_
_atom_site_type_symbol
_atom_site_label
_atom_site_fract_x
_atom_site_fract_y
_atom_site_fract_z
Si Si1 0.153659 0.759572 0.535152
Si Si2 0.957780 0.348480 0.620699
Si Si3 0.590890 0.069327 0.033603
Si Si4 0.250000 0.750000 0.250000
Si Si5 0.663587 0.628397 0.307770
Si Si6 0.391876 0.669120 0.289895
O O1 0.250000 0.750000 0.506030
O O2 0.103356 0.701370 0.567934
O O3 0.151470 0.803266 0.653146
O O4 0.112772 0.795027 0.420594
O O5 0.904432 0.389724 0.709310
O O6 0.000000 0.376136 0.500000
O O7 0.027628 0.322933 0.710001
O O8 0.611704 0.100097 0.165827
O O9 0.500000 0.091332 0.000000
O O10 0.654233 0.094715 0.935811
O O11 0.589972 0.000000 0.000000
O O12 0.317877 0.698851 0.214643
O O13 0.750000 0.620572 0.250000
#
# Coordination Sequence:
#
# PCOD9328176 Si02
#       6
#    16  16  16   4  16  16
#     4  11  23  38  60  90 133 173 208 261 323 394
#     4  12  26  37  59  94 134 177 211 263 331 409
#     4  10  22  45  75  95 121 172 237 281 322 390
#     4  12  24  36  60  96 152 168 200 278 340 414
#     4  11  23  40  64  94 127 167 219 270 325 391
#     4  11  25  42  62  97 133 177 221 267 338 400
#
# _framework density 20.915586000000001
#
# number of rings (size 3 to 8) (size 9 to 14) (size 15 to 20)
#    0.000    0.952    4.762    1.714    8.000    0.000 
#    1.714    0.000    0.000    1.143    0.000    0.000 
#    0.000    0.000    0.000    0.000    0.000    0.000 
#
# Total GULP energy -117018.597571 kJ/mol
# GULP energy per Si atom -5572.314170 kJ/mol
# Density = 2.086798 g / cm^3
# Si number density = 20.915586 Si / 1000 Ang^3
#
#
#
# Elastic Constant Matrix: (Units=GPa)
#
#
# Indices 1 2 3 4 5 6 
#
# 1 113.8333 0.2878 41.1788 0.0000 0.0000 0.0000
# 2 0.2878 60.4797 5.7040 0.0000 0.0000 0.0000
# 3 41.1788 5.7040 96.2259 0.0000 0.0000 0.0000
# 4 0.0000 0.0000 0.0000 15.1688 0.0000 0.0000
# 5 0.0000 0.0000 0.0000 0.0000 49.4972 0.0000
# 6 0.0000 0.0000 0.0000 0.0000 0.0000 11.5982
#
#
#
# Elastic Compliance Matrix: (Units=1/GPa)
#
#
# Indices 1 2 3 4 5 6 
#
# 1 0.010402 0.000372 -0.004474 0.000000 0.000000 0.000000
# 2 0.000372 0.016641 -0.001146 0.000000 0.000000 0.000000
# 3 -0.004474 -0.001146 0.012375 0.000000 0.000000 0.000000
# 4 0.000000 0.000000 0.000000 0.065925 0.000000 0.000000
# 5 0.000000 0.000000 0.000000 0.000000 0.020203 0.000000
# 6 0.000000 0.000000 0.000000 0.000000 0.000000 0.086220
#
#
# Mechanical properties :
#
#
# Convention : Reuss Voigt Hill
#
# Bulk Modulus (GPa) = 34.57388 40.54225 37.55806
# Shear Modulus (GPa) = 21.56097 30.14406 25.85252
#
# Velocity S-wave (km/s) = 3.21418 3.80047 3.51955
# Velocity P-wave (km/s) = 5.50824 6.21964 5.87472
#
# Compressibility (1/GPa) = 0.02892357
#
# Stress axis : x y z
#
# Youngs Moduli (GPa) = 96.13417 60.09336 80.81109
#
# Poissons Ratio (x) = -0.02238 0.36151
# Poissons Ratio (y) = -0.03580 0.09259
# Poissons Ratio (z) = 0.43006 0.06885
#
# Static dielectric constant tensor:
#      x y z
#    x 1.761610 0.000000 0.000000 
#    y 0.000000 1.795550 0.000000 
#    z 0.000000 0.000000 0.855440 
# 
# From -- ./inp_files/19943.got.cif
#   From: 2010.05.17/outbox.cif.g08.bks.cpg/sg22_10_cif.got.tgz:19943.got - 2010.06.03 23:40:54.
