data_PCOD9328673
_publ_section_title
;
Structure prediction by ZEFSAII (Michael W. Deem and Ramdas Pophale) SiO2 
 PCOD9328673
Probable space group: F 2 2 2
;
_chemical_formula_sum "Si O2"
_cell_formula_units_Z 64
_cell_length_a 14.949735
_cell_length_b 15.075505
_cell_length_c 15.027269
_cell_angle_alpha 90.000000
_cell_angle_beta 90.000000
_cell_angle_gamma 90.000000
_cell_volume 3386.767817
_symmetry_space_group_name_H-M "F 2 2 2"
_symmetry_group_IT_number 22
_symmetry_cell_setting 'orthorhombic'
loop_
_space_group_symop_operation_xyz
x,y,z
-x,-y,z
x,-y,-z
-x,y,-z
x,1/2+y,1/2+z
-x,1/2-y,1/2+z
x,1/2-y,1/2-z
-x,1/2+y,1/2-z
1/2+x,y,1/2+z
1/2-x,-y,1/2+z
1/2+x,-y,1/2-z
1/2-x,y,1/2-z
1/2+x,1/2+y,z
1/2-x,1/2-y,z
1/2+x,1/2-y,-z
1/2-x,1/2+y,-z
loop_
_atom_site_type_symbol
_atom_site_label
_atom_site_fract_x
_atom_site_fract_y
_atom_site_fract_z
Si Si1 0.250000 0.978128 0.250000
Si Si2 0.244631 0.576123 0.923431
Si Si3 0.627397 0.176952 0.176226
Si Si4 0.965310 0.901451 0.400297
Si Si5 0.250000 0.750000 0.020561
O O1 0.324842 0.913390 0.208176
O O2 0.284741 0.037113 0.332306
O O3 0.141111 0.598819 0.900360
O O4 0.246106 0.500000 0.000000
O O5 0.284325 0.667465 0.961823
O O6 0.644862 0.250000 0.250000
O O7 0.522217 0.162809 0.161841
O O8 0.674806 0.209011 0.085533
O O9 0.000000 0.883774 0.500000
O O10 0.000000 0.000000 0.378820
#
# Coordination Sequence:
#
# PCOD9328673 Si02
#       5
#     8  16  16  16   8
#     4  12  21  37  64  86 120 156 198 256 302 356
#     4  12  22  39  63  90 122 159 205 258 303 368
#     4  12  21  37  62  90 116 157 213 252 298 370
#     4  11  18  36  61  82 111 157 202 244 303 362
#     4  12  21  37  64  86 120 156 198 256 302 356
#
# _framework density 18.897072999999999
#
# number of rings (size 3 to 8) (size 9 to 14) (size 15 to 20)
#    0.000    0.250   12.500    0.000    0.000    0.500 
#    4.500    0.000    0.000    0.000    0.000    0.000 
#    0.000    0.000    0.000    0.000    0.000    0.000 
#
# Total GULP energy -89313.489113 kJ/mol
# GULP energy per Si atom -5582.093070 kJ/mol
# Density = 1.885406 g / cm^3
# Si number density = 18.897073 Si / 1000 Ang^3
#
#
#
# Elastic Constant Matrix: (Units=GPa)
#
#
# Indices 1 2 3 4 5 6 
#
# 1 44.7384 7.5316 6.0676 0.0000 0.0000 0.0000
# 2 7.5316 97.5000 90.1361 0.0000 0.0000 0.0000
# 3 6.0676 90.1361 90.4118 0.0000 0.0000 0.0000
# 4 0.0000 0.0000 0.0000 48.0435 0.0000 0.0000
# 5 0.0000 0.0000 0.0000 0.0000 13.8109 0.0000
# 6 0.0000 0.0000 0.0000 0.0000 0.0000 14.4446
#
#
#
# Elastic Compliance Matrix: (Units=1/GPa)
#
#
# Indices 1 2 3 4 5 6 
#
# 1 0.022705 -0.004406 0.002869 0.000000 0.000000 0.000000
# 2 -0.004406 0.131768 -0.131070 0.000000 0.000000 0.000000
# 3 0.002869 -0.131070 0.141539 0.000000 0.000000 0.000000
# 4 0.000000 0.000000 0.000000 0.020814 0.000000 0.000000
# 5 0.000000 0.000000 0.000000 0.000000 0.072406 0.000000
# 6 0.000000 0.000000 0.000000 0.000000 0.000000 0.069230
#
#
# Mechanical properties :
#
#
# Convention : Reuss Voigt Hill
#
# Bulk Modulus (GPa) = 32.47151 48.90233 40.68692
# Shear Modulus (GPa) = 6.81252 23.85415 15.33333
#
# Velocity S-wave (km/s) = 1.90076 3.55677 2.85162
# Velocity P-wave (km/s) = 4.69445 6.54232 5.69385
#
# Compressibility (1/GPa) = 0.03079623
#
# Stress axis : x y z
#
# Youngs Moduli (GPa) = 44.04355 7.58910 7.06520
#
# Poissons Ratio (x) = 0.03344 -0.02027
# Poissons Ratio (y) = 0.19407 0.92604
# Poissons Ratio (z) = -0.12636 0.99471
#
# Static dielectric constant tensor:
#      x y z
#    x 1.644050 0.000000 0.000000 
#    y 0.000000 1.673990 0.000000 
#    z 0.000000 0.000000 1.671040 
# 
# From -- ./inp_files/27818.got.cif
#   From: 2010.05.17/outbox.cif.g08.bks.cpg/sg22_14_cif.got.tgz:27818.got - 2010.06.03 23:40:54.
