data_PCOD9328790
_publ_section_title
;
Structure prediction by ZEFSAII (Michael W. Deem and Ramdas Pophale) SiO2 
 PCOD9328790
Probable space group: F 2 2 2
;
_chemical_formula_sum "Si O2"
_cell_formula_units_Z 68
_cell_length_a 9.165348
_cell_length_b 23.544207
_cell_length_c 12.058803
_cell_angle_alpha 90.000000
_cell_angle_beta 90.000000
_cell_angle_gamma 90.000000
_cell_volume 2602.179356
_symmetry_space_group_name_H-M "F 2 2 2"
_symmetry_group_IT_number 22
_symmetry_cell_setting 'orthorhombic'
loop_
_space_group_symop_operation_xyz
x,y,z
-x,-y,z
x,-y,-z
-x,y,-z
x,1/2+y,1/2+z
-x,1/2-y,1/2+z
x,1/2-y,1/2-z
-x,1/2+y,1/2-z
1/2+x,y,1/2+z
1/2-x,-y,1/2+z
1/2+x,-y,1/2-z
1/2-x,y,1/2-z
1/2+x,1/2+y,z
1/2-x,1/2-y,z
1/2+x,1/2-y,-z
1/2-x,1/2+y,-z
loop_
_atom_site_type_symbol
_atom_site_label
_atom_site_fract_x
_atom_site_fract_y
_atom_site_fract_z
Si Si1 0.000000 0.000000 0.000000
Si Si2 0.534509 0.441268 0.320846
Si Si3 0.231032 0.574949 0.985096
Si Si4 0.196271 0.688168 0.618811
Si Si5 0.920808 0.316516 0.276746
O O1 0.880775 0.955031 0.047597
O O2 0.500000 0.500000 0.254793
O O3 0.401799 0.444575 0.408336
O O4 0.687167 0.439804 0.388917
O O5 0.528944 0.377795 0.273206
O O6 0.237193 0.641668 0.962326
O O7 0.250000 0.680612 0.750000
O O8 0.250000 0.750000 0.584992
O O9 0.022557 0.681050 0.615809
O O10 0.960123 0.250000 0.250000
O O11 0.750000 0.317587 0.250000
#
# Coordination Sequence:
#
# PCOD9328790 Si02
#       5
#     4  16  16  16  16
#     4  12  24  42  64 100 140 166 234 282 332 418
#     4  11  22  46  67  96 140 189 223 278 360 418
#     4  11  23  41  68  98 136 179 228 283 341 415
#     4  11  21  44  69  95 131 182 230 283 346 413
#     4  11  24  44  70 101 143 178 231 293 344 415
#
# _framework density 26.13194
#
# number of rings (size 3 to 8) (size 9 to 14) (size 15 to 20)
#    0.000    0.941    7.059    0.706    3.294    0.000 
#   10.588    2.353    0.000    0.000    0.000    0.000 
#    0.000    0.000    0.000    0.000    0.000    0.000 
#
# Total GULP energy -94635.798296 kJ/mol
# GULP energy per Si atom -5566.811664 kJ/mol
# Density = 2.607246 g / cm^3
# Si number density = 26.131940 Si / 1000 Ang^3
#
#
#
# Elastic Constant Matrix: (Units=GPa)
#
#
# Indices 1 2 3 4 5 6 
#
# 1 151.3005 42.5551 38.0254 0.0000 0.0000 0.0000
# 2 42.5551 303.0024 71.5553 0.0000 0.0000 0.0000
# 3 38.0254 71.5553 69.7691 0.0000 0.0000 0.0000
# 4 0.0000 0.0000 0.0000 88.5585 0.0000 0.0000
# 5 0.0000 0.0000 0.0000 0.0000 1.8314 0.0000
# 6 0.0000 0.0000 0.0000 0.0000 0.0000 25.4837
#
#
#
# Elastic Compliance Matrix: (Units=1/GPa)
#
#
# Indices 1 2 3 4 5 6 
#
# 1 0.007662 -0.000119 -0.004054 0.000000 0.000000 0.000000
# 2 -0.000119 0.004357 -0.004404 0.000000 0.000000 0.000000
# 3 -0.004054 -0.004404 0.021059 0.000000 0.000000 0.000000
# 4 0.000000 0.000000 0.000000 0.011292 0.000000 0.000000
# 5 0.000000 0.000000 0.000000 0.000000 0.546036 0.000000
# 6 0.000000 0.000000 0.000000 0.000000 0.000000 0.039241
#
#
# Mechanical properties :
#
#
# Convention : Reuss Voigt Hill
#
# Bulk Modulus (GPa) = 62.79575 92.03817 77.41696
# Shear Modulus (GPa) = 7.66745 47.97046 27.81895
#
# Velocity S-wave (km/s) = 1.71479 4.28916 3.26630
# Velocity P-wave (km/s) = 5.29180 7.73474 6.62681
#
# Compressibility (1/GPa) = 0.01592464
#
# Stress axis : x y z
#
# Youngs Moduli (GPa) = 130.52089 229.51828 47.48544
#
# Poissons Ratio (x) = 0.02723 0.19251
# Poissons Ratio (y) = 0.01549 0.20912
# Poissons Ratio (z) = 0.52913 1.01076
#
# Static dielectric constant tensor:
#      x y z
#    x 1.968500 0.000000 0.000000 
#    y 0.000000 2.124110 0.000000 
#    z 0.000000 0.000000 2.208270 
# 
# From -- ./inp_files/34865.got.cif
#   From: 2010.05.17/outbox.cif.g08.bks.cpg/sg22_18_cif.got.tgz:34865.got - 2010.06.03 23:40:54.
