data_PCOD9328639
_publ_section_title
;
Structure prediction by ZEFSAII (Michael W. Deem and Ramdas Pophale) SiO2 
 PCOD9328639
Probable space group: F 2 2 2
;
_chemical_formula_sum "Si O2"
_cell_formula_units_Z 80
_cell_length_a 20.192086
_cell_length_b 12.896831
_cell_length_c 13.975695
_cell_angle_alpha 90.000000
_cell_angle_beta 90.000000
_cell_angle_gamma 90.000000
_cell_volume 3639.465529
_symmetry_space_group_name_H-M "F 2 2 2"
_symmetry_group_IT_number 22
_symmetry_cell_setting 'orthorhombic'
loop_
_space_group_symop_operation_xyz
x,y,z
-x,-y,z
x,-y,-z
-x,y,-z
x,1/2+y,1/2+z
-x,1/2-y,1/2+z
x,1/2-y,1/2-z
-x,1/2+y,1/2-z
1/2+x,y,1/2+z
1/2-x,-y,1/2+z
1/2+x,-y,1/2-z
1/2-x,y,1/2-z
1/2+x,1/2+y,z
1/2-x,1/2-y,z
1/2+x,1/2-y,-z
1/2-x,1/2+y,-z
loop_
_atom_site_type_symbol
_atom_site_label
_atom_site_fract_x
_atom_site_fract_y
_atom_site_fract_z
Si Si1 0.695845 0.982405 0.678777
Si Si2 0.393755 0.653196 0.303952
Si Si3 0.776434 0.000000 0.500000
Si Si4 0.672860 0.707450 0.493255
Si Si5 0.906542 0.167793 0.837657
Si Si6 0.000000 0.500000 0.259226
O O1 0.750000 0.024434 0.750000
O O2 0.662351 0.886604 0.731168
O O3 0.729520 0.951481 0.580127
O O4 0.646912 0.076361 0.665303
O O5 0.426532 0.750000 0.250000
O O6 0.358826 0.688074 0.401825
O O7 0.444858 0.556826 0.306566
O O8 0.819151 0.909683 0.453117
O O9 0.750000 0.750000 0.489496
O O10 0.618536 0.770124 0.431532
O O11 0.904675 0.250000 0.750000
O O12 0.971455 0.094248 0.824755
#
# Coordination Sequence:
#
# PCOD9328639 Si02
#       6
#    16  16   8  16  16   8
#     4  11  22  39  67 106 154 190 232 299 383 456
#     4  11  25  45  72 102 144 197 243 313 363 450
#     4  12  22  38  66 114 152 188 234 298 394 470
#     4  12  25  42  74 119 150 183 247 312 401 454
#     4  11  25  45  75 105 149 200 250 317 368 464
#     4  10  26  54  72  98 146 206 268 294 380 438
#
# _framework density 21.981251
#
# number of rings (size 3 to 8) (size 9 to 14) (size 15 to 20)
#    0.000    0.800    4.000    3.000    2.800    0.000 
#    0.000    6.000    0.000    0.000    0.000    0.000 
#    0.000    0.000    0.000    0.000    0.000    0.000 
#
# Total GULP energy -111488.276948 kJ/mol
# GULP energy per Si atom -5574.413847 kJ/mol
# Density = 2.193122 g / cm^3
# Si number density = 21.981251 Si / 1000 Ang^3
#
#
#
# Elastic Constant Matrix: (Units=GPa)
#
#
# Indices 1 2 3 4 5 6 
#
# 1 74.5858 32.9611 42.9799 0.0000 0.0000 0.0000
# 2 32.9611 131.8600 57.2876 0.0000 0.0000 0.0000
# 3 42.9799 57.2876 130.3393 0.0000 0.0000 0.0000
# 4 0.0000 0.0000 0.0000 45.6573 0.0000 0.0000
# 5 0.0000 0.0000 0.0000 0.0000 125.7488 0.0000
# 6 0.0000 0.0000 0.0000 0.0000 0.0000 -90.5552
#
#
#
# Elastic Compliance Matrix: (Units=1/GPa)
#
#
# Indices 1 2 3 4 5 6 
#
# 1 0.017077 -0.002252 -0.004641 0.000000 0.000000 0.000000
# 2 -0.002252 0.009671 -0.003508 0.000000 0.000000 0.000000
# 3 -0.004641 -0.003508 0.010745 0.000000 0.000000 0.000000
# 4 0.000000 0.000000 0.000000 0.021902 0.000000 0.000000
# 5 0.000000 0.000000 0.000000 0.000000 0.007952 0.000000
# 6 0.000000 0.000000 0.000000 0.000000 0.000000 -0.011043
#
#
# Mechanical properties :
#
#
# Convention : Reuss Voigt Hill
#
# Bulk Modulus (GPa) = 59.91755 67.02692 63.47224
# Shear Modulus (GPa) = 60.48092 29.74063 45.11078
#
# Velocity S-wave (km/s) = 5.25114 3.68231 4.53508
# Velocity P-wave (km/s) = 8.00523 6.97410 7.50739
#
# Compressibility (1/GPa) = 0.01668960
#
# Stress axis : x y z
#
# Youngs Moduli (GPa) = 58.55728 103.40364 93.07012
#
# Poissons Ratio (x) = 0.23290 0.43197
# Poissons Ratio (y) = 0.13189 0.32648
# Poissons Ratio (z) = 0.27178 0.36273
#
# Static dielectric constant tensor:
#      x y z
#    x 1.830620 0.000000 0.000000 
#    y 0.000000 0.304050 0.000000 
#    z 0.000000 0.000000 1.799470 
# 
# From -- ./inp_files/32291.got.cif
#   From: 2010.05.17/outbox.cif.g08.bks.cpg/sg22_17_cif.got.tgz:32291.got - 2010.06.03 23:40:54.
