data_PCOD9328355
_publ_section_title
;
Structure prediction by ZEFSAII (Michael W. Deem and Ramdas Pophale) SiO2 
 PCOD9328355
Probable space group: F 2 2 2
;
_chemical_formula_sum "Si O2"
_cell_formula_units_Z 56
_cell_length_a 16.167890
_cell_length_b 22.345876
_cell_length_c 7.042965
_cell_angle_alpha 90.000000
_cell_angle_beta 90.000000
_cell_angle_gamma 90.000000
_cell_volume 2544.522294
_symmetry_space_group_name_H-M "F 2 2 2"
_symmetry_group_IT_number 22
_symmetry_cell_setting 'orthorhombic'
loop_
_space_group_symop_operation_xyz
x,y,z
-x,-y,z
x,-y,-z
-x,y,-z
x,1/2+y,1/2+z
-x,1/2-y,1/2+z
x,1/2-y,1/2-z
-x,1/2+y,1/2-z
1/2+x,y,1/2+z
1/2-x,-y,1/2+z
1/2+x,-y,1/2-z
1/2-x,y,1/2-z
1/2+x,1/2+y,z
1/2-x,1/2-y,z
1/2+x,1/2-y,-z
1/2-x,1/2+y,-z
loop_
_atom_site_type_symbol
_atom_site_label
_atom_site_fract_x
_atom_site_fract_y
_atom_site_fract_z
Si Si1 0.512418 0.568373 0.273366
Si Si2 0.931668 0.315543 0.170634
Si Si3 0.682238 0.935225 0.411661
Si Si4 0.750000 0.647332 0.750000
O O1 0.500000 0.500000 0.206895
O O2 0.500000 0.563551 0.500000
O O3 0.452913 0.622962 0.215063
O O4 0.602155 0.587169 0.201689
O O5 0.949050 0.250000 0.250000
O O6 0.830846 0.318948 0.160886
O O7 0.000000 0.319123 0.000000
O O8 0.750000 0.943845 0.250000
O O9 0.717006 0.892894 0.576091
O O10 0.664954 0.000000 0.500000
#
# Coordination Sequence:
#
# PCOD9328355 Si02
#       4
#    16  16  16   8
#     4  10  23  44  73 107 147 195 253 314 380 461
#     4  11  26  49  76 107 152 202 254 317 389 467
#     4  12  25  42  73 113 154 199 249 320 392 459
#     4  12  27  48  74 112 150 202 267 316 381 470
#
# _framework density 22.008061000000001
#
# number of rings (size 3 to 8) (size 9 to 14) (size 15 to 20)
#    0.000    0.857    1.429    5.571    8.000    2.857 
#    0.000    0.000    0.000    0.000    0.000    0.000 
#    0.000    0.000    0.000    0.000    0.000    0.000 
#
# Total GULP energy -77981.650733 kJ/mol
# GULP energy per Si atom -5570.117910 kJ/mol
# Density = 2.195797 g / cm^3
# Si number density = 22.008061 Si / 1000 Ang^3
#
#
#
# Elastic Constant Matrix: (Units=GPa)
#
#
# Indices 1 2 3 4 5 6 
#
# 1 185.6708 47.8711 66.6193 0.0000 0.0000 0.0000
# 2 47.8711 165.9698 19.6014 0.0000 0.0000 0.0000
# 3 66.6193 19.6014 138.3422 -0.0001 -0.0001 0.0001
# 4 0.0000 0.0000 -0.0001 13.7304 0.0000 0.0000
# 5 0.0000 0.0000 -0.0001 0.0000 47.4049 0.0000
# 6 0.0000 0.0000 0.0001 0.0000 0.0000 14.3987
#
#
#
# Elastic Compliance Matrix: (Units=1/GPa)
#
#
# Indices 1 2 3 4 5 6 
#
# 1 0.006919 -0.001629 -0.003101 0.000000 0.000000 0.000000
# 2 -0.001629 0.006511 -0.000138 0.000000 0.000000 0.000000
# 3 -0.003101 -0.000138 0.008741 0.000000 0.000000 0.000000
# 4 0.000000 0.000000 0.000000 0.072831 0.000000 0.000000
# 5 0.000000 0.000000 0.000000 0.000000 0.021095 0.000000
# 6 0.000000 0.000000 0.000000 0.000000 0.000000 0.069451
#
#
# Mechanical properties :
#
#
# Convention : Reuss Voigt Hill
#
# Bulk Modulus (GPa) = 80.41834 84.24072 82.32953
# Shear Modulus (GPa) = 25.07159 38.83288 31.95223
#
# Velocity S-wave (km/s) = 3.37887 4.20513 3.81444
# Velocity P-wave (km/s) = 7.20014 7.87006 7.54254
#
# Compressibility (1/GPa) = 0.01243497
#
# Stress axis : x y z
#
# Youngs Moduli (GPa) = 144.53924 153.57589 114.40070
#
# Poissons Ratio (x) = 0.25022 0.35473
# Poissons Ratio (y) = 0.23550 0.01579
# Poissons Ratio (z) = 0.44819 0.02119
#
# Static dielectric constant tensor:
#      x y z
#    x 1.867790 0.000000 0.000000 
#    y 0.000000 1.827540 0.000000 
#    z 0.000000 0.000000 1.898390 
# 
# From -- ./inp_files/9541.got.cif
#   From: 2010.05.17/outbox.cif.g08.bks.cpg/sg22_5_cif.got.tgz:9541.got - 2010.06.03 23:40:54.
