data_PCOD9328795
_publ_section_title
;
Structure prediction by ZEFSAII (Michael W. Deem and Ramdas Pophale) SiO2 
 PCOD9328795
Probable space group: F 2 2 2
;
_chemical_formula_sum "Si O2"
_cell_formula_units_Z 88
_cell_length_a 15.229421
_cell_length_b 11.741284
_cell_length_c 22.489747
_cell_angle_alpha 90.000000
_cell_angle_beta 90.000000
_cell_angle_gamma 90.000000
_cell_volume 4021.458166
_symmetry_space_group_name_H-M "F 2 2 2"
_symmetry_group_IT_number 22
_symmetry_cell_setting 'orthorhombic'
loop_
_space_group_symop_operation_xyz
x,y,z
-x,-y,z
x,-y,-z
-x,y,-z
x,1/2+y,1/2+z
-x,1/2-y,1/2+z
x,1/2-y,1/2-z
-x,1/2+y,1/2-z
1/2+x,y,1/2+z
1/2-x,-y,1/2+z
1/2+x,-y,1/2-z
1/2-x,y,1/2-z
1/2+x,1/2+y,z
1/2-x,1/2-y,z
1/2+x,1/2-y,-z
1/2-x,1/2+y,-z
loop_
_atom_site_type_symbol
_atom_site_label
_atom_site_fract_x
_atom_site_fract_y
_atom_site_fract_z
Si Si1 0.500000 0.500000 0.709805
Si Si2 0.634150 0.653578 0.014649
Si Si3 0.187154 0.944969 0.337554
Si Si4 0.179118 0.346847 0.354901
Si Si5 0.250000 0.250000 0.750000
Si Si6 0.668092 0.611614 0.526395
Si Si7 0.500000 0.000000 0.500000
Si Si8 0.055829 0.250000 0.250000
O O1 0.593018 0.499023 0.676033
O O2 0.503219 0.370627 0.739238
O O3 0.624019 0.630741 0.084851
O O4 0.569667 0.584150 0.971650
O O5 0.617270 0.781892 0.998160
O O6 0.733952 0.623178 0.000372
O O7 0.201047 0.839293 0.293236
O O8 0.181286 0.896387 0.403860
O O9 0.265579 0.040354 0.334976
O O10 0.250000 0.250000 0.372036
O O11 0.119409 0.290167 0.304105
O O12 0.626081 0.500000 0.500000
#
# Coordination Sequence:
#
# PCOD9328795 Si02
#       8
#     8  16  16  16   4  16   4   8
#     4  12  28  45  67 108 148 178 238 316 370 426
#     4  11  23  41  73 103 145 176 241 288 352 433
#     4  12  25  45  73 102 144 186 238 297 360 433
#     4  12  22  46  79 100 126 197 252 281 343 462
#     4  12  26  44  68 104 144 190 240 284 370 444
#     4  11  21  45  71 101 136 191 234 292 345 439
#     4  12  24  42  62 112 140 184 220 302 360 422
#     4  12  28  46  73 105 142 190 242 305 371 442
#
# _framework density 21.88261
#
# number of rings (size 3 to 8) (size 9 to 14) (size 15 to 20)
#    0.000    0.364    6.364    3.000    0.000    2.182 
#    0.000    1.818    0.000    0.000    0.000    0.000 
#    0.000    0.000    0.000    0.000    0.000    0.000 
#
# Total GULP energy -122587.659054 kJ/mol
# GULP energy per Si atom -5572.166321 kJ/mol
# Density = 2.183280 g / cm^3
# Si number density = 21.882610 Si / 1000 Ang^3
#
#
#
# Elastic Constant Matrix: (Units=GPa)
#
#
# Indices 1 2 3 4 5 6 
#
# 1 69.4856 48.1220 31.0502 0.0000 0.0000 0.0000
# 2 48.1220 201.7466 51.8969 0.0000 0.0000 0.0000
# 3 31.0502 51.8969 143.4060 0.0000 0.0000 0.0000
# 4 0.0000 0.0000 0.0000 26.3070 0.0000 0.0000
# 5 0.0000 0.0000 0.0000 0.0000 16.7030 0.0000
# 6 0.0000 0.0000 0.0000 0.0000 0.0000 43.9474
#
#
#
# Elastic Compliance Matrix: (Units=1/GPa)
#
#
# Indices 1 2 3 4 5 6 
#
# 1 0.018074 -0.003644 -0.002595 0.000000 0.000000 0.000000
# 2 -0.003644 0.006200 -0.001455 0.000000 0.000000 0.000000
# 3 -0.002595 -0.001455 0.008062 0.000000 0.000000 0.000000
# 4 0.000000 0.000000 0.000000 0.038013 0.000000 0.000000
# 5 0.000000 0.000000 0.000000 0.000000 0.059869 0.000000
# 6 0.000000 0.000000 0.000000 0.000000 0.000000 0.022754
#
#
# Mechanical properties :
#
#
# Convention : Reuss Voigt Hill
#
# Bulk Modulus (GPa) = 58.99956 75.19737 67.09847
# Shear Modulus (GPa) = 28.73410 36.29608 32.51509
#
# Velocity S-wave (km/s) = 3.62761 4.07710 3.85890
# Velocity P-wave (km/s) = 6.67581 7.52345 7.11227
#
# Compressibility (1/GPa) = 0.01694928
#
# Stress axis : x y z
#
# Youngs Moduli (GPa) = 55.32667 161.28843 124.04611
#
# Poissons Ratio (x) = 0.58769 0.32188
# Poissons Ratio (y) = 0.20160 0.18046
# Poissons Ratio (z) = 0.14356 0.23464
#
# Static dielectric constant tensor:
#      x y z
#    x 1.825830 0.000000 0.000000 
#    y 0.000000 1.823720 0.000000 
#    z 0.000000 0.000000 1.853510 
# 
# From -- ./inp_files/44180.got.cif
#   From: 2010.05.17/outbox.cif.g08.bks.cpg/sg22_23_cif.got.tgz:44180.got - 2010.06.03 23:40:54.
