data_PCOD9328972
_publ_section_title
;
Structure prediction by ZEFSAII (Michael W. Deem and Ramdas Pophale) SiO2 
 PCOD9328972
Probable space group: F 2 2 2
;
_chemical_formula_sum "Si O2"
_cell_formula_units_Z 112
_cell_length_a 15.478996
_cell_length_b 29.975238
_cell_length_c 11.527194
_cell_angle_alpha 90.000000
_cell_angle_beta 90.000000
_cell_angle_gamma 90.000000
_cell_volume 5348.463426
_symmetry_space_group_name_H-M "F 2 2 2"
_symmetry_group_IT_number 22
_symmetry_cell_setting 'orthorhombic'
loop_
_space_group_symop_operation_xyz
x,y,z
-x,-y,z
x,-y,-z
-x,y,-z
x,1/2+y,1/2+z
-x,1/2-y,1/2+z
x,1/2-y,1/2-z
-x,1/2+y,1/2-z
1/2+x,y,1/2+z
1/2-x,-y,1/2+z
1/2+x,-y,1/2-z
1/2-x,y,1/2-z
1/2+x,1/2+y,z
1/2-x,1/2-y,z
1/2+x,1/2-y,-z
1/2-x,1/2+y,-z
loop_
_atom_site_type_symbol
_atom_site_label
_atom_site_fract_x
_atom_site_fract_y
_atom_site_fract_z
Si Si1 0.353555 0.802191 0.750620
Si Si2 0.596852 0.483252 0.189014
Si Si3 0.167998 0.057224 0.035646
Si Si4 0.401528 0.146885 0.018725
Si Si5 0.361577 0.953423 0.055483
Si Si6 0.753279 0.301808 0.388358
Si Si7 0.099123 0.151203 0.025263
O O1 0.374388 0.750000 0.750000
O O2 0.250000 0.805484 0.750000
O O3 0.381206 0.835276 0.853124
O O4 0.398791 0.817294 0.634324
O O5 0.500000 0.500000 0.208933
O O6 0.651828 0.526179 0.146892
O O7 0.628929 0.458951 0.305303
O O8 0.603228 0.453928 0.071670
O O9 0.151851 0.107806 0.064343
O O10 0.261742 0.049235 0.982407
O O11 0.500000 0.161575 0.000000
O O12 0.398282 0.093473 0.992898
O O13 0.328242 0.170822 0.939730
O O14 0.396112 0.000000 0.000000
O O15 0.750000 0.301981 0.250000
O O16 0.750000 0.250000 0.429805
O O17 0.842431 0.325264 0.427491
O O18 0.000000 0.140347 0.000000
#
# Coordination Sequence:
#
# PCOD9328972 Si02
#       7
#    16  16  16  16  16  16  16
#     4  11  24  48  76 104 142 188 243 310 366 431
#     4  11  25  43  69 101 141 184 240 299 351 416
#     4  11  23  46  71 101 135 187 245 298 357 424
#     4  12  29  48  74 110 151 193 248 302 372 445
#     4  12  27  45  71 102 146 195 241 295 364 429
#     4  11  26  49  74 105 149 193 237 300 376 455
#     4  12  26  44  76 108 141 184 242 300 371 440
#
# _framework density 20.940594000000001
#
# number of rings (size 3 to 8) (size 9 to 14) (size 15 to 20)
#    0.000    0.571    4.286    3.000    8.000    2.286 
#    0.000    0.000    0.000    0.000    0.000    0.000 
#    0.000    0.000    0.000    0.000    0.000    0.000 
#
# Total GULP energy -156379.815768 kJ/mol
# GULP energy per Si atom -5584.993420 kJ/mol
# Density = 2.089293 g / cm^3
# Si number density = 20.940594 Si / 1000 Ang^3
#
#
#
# Elastic Constant Matrix: (Units=GPa)
#
#
# Indices 1 2 3 4 5 6 
#
# 1 116.3363 25.6905 20.5381 0.0000 0.0000 0.0000
# 2 25.6905 118.7752 27.6066 0.0000 0.0000 0.0000
# 3 20.5381 27.6066 93.6110 0.0000 0.0000 0.0000
# 4 0.0000 0.0000 0.0000 11.4363 0.0000 0.0000
# 5 0.0000 0.0000 0.0000 0.0000 6.3724 0.0000
# 6 0.0000 0.0000 0.0000 0.0000 0.0000 20.7258
#
#
#
# Elastic Compliance Matrix: (Units=1/GPa)
#
#
# Indices 1 2 3 4 5 6 
#
# 1 0.009230 -0.001638 -0.001542 0.000000 0.000000 0.000000
# 2 -0.001638 0.009330 -0.002392 0.000000 0.000000 0.000000
# 3 -0.001542 -0.002392 0.011726 0.000000 0.000000 0.000000
# 4 0.000000 0.000000 0.000000 0.087441 0.000000 0.000000
# 5 0.000000 0.000000 0.000000 0.000000 0.156928 0.000000
# 6 0.000000 0.000000 0.000000 0.000000 0.000000 0.048249
#
#
# Mechanical properties :
#
#
# Convention : Reuss Voigt Hill
#
# Bulk Modulus (GPa) = 52.24201 52.93256 52.58729
# Shear Modulus (GPa) = 14.68741 24.69938 19.69340
#
# Velocity S-wave (km/s) = 2.65124 3.43811 3.06999
# Velocity P-wave (km/s) = 5.86293 6.41039 6.14276
#
# Compressibility (1/GPa) = 0.01914168
#
# Stress axis : x y z
#
# Youngs Moduli (GPa) = 108.34600 107.18681 85.27902
#
# Poissons Ratio (x) = 0.17557 0.13149
# Poissons Ratio (y) = 0.17747 0.20399
# Poissons Ratio (z) = 0.16706 0.25639
#
# Static dielectric constant tensor:
#      x y z
#    x 1.784490 0.000000 0.000000 
#    y 0.000000 1.984830 0.000000 
#    z 0.000000 0.000000 1.744890 
# 
# From -- ./inp_files/20319.got.cif
#   From: 2010.05.17/outbox.cif.g08.bks.cpg/sg22_11_cif.got.tgz:20319.got - 2010.06.03 23:40:54.
