data_PCOD9328059
_publ_section_title
;
Structure prediction by ZEFSAII (Michael W. Deem and Ramdas Pophale) SiO2 
 PCOD9328059
Probable space group: F 2 2 2
;
_chemical_formula_sum "Si O2"
_cell_formula_units_Z 44
_cell_length_a 4.966971
_cell_length_b 28.563929
_cell_length_c 14.816830
_cell_angle_alpha 90.000000
_cell_angle_beta 90.000000
_cell_angle_gamma 90.000000
_cell_volume 2102.155640
_symmetry_space_group_name_H-M "F 2 2 2"
_symmetry_group_IT_number 22
_symmetry_cell_setting 'orthorhombic'
loop_
_space_group_symop_operation_xyz
x,y,z
-x,-y,z
x,-y,-z
-x,y,-z
x,1/2+y,1/2+z
-x,1/2-y,1/2+z
x,1/2-y,1/2-z
-x,1/2+y,1/2-z
1/2+x,y,1/2+z
1/2-x,-y,1/2+z
1/2+x,-y,1/2-z
1/2-x,y,1/2-z
1/2+x,1/2+y,z
1/2-x,1/2-y,z
1/2+x,1/2-y,-z
1/2-x,1/2+y,-z
loop_
_atom_site_type_symbol
_atom_site_label
_atom_site_fract_x
_atom_site_fract_y
_atom_site_fract_z
Si Si1 0.502851 0.556329 0.687663
Si Si2 0.000000 0.676560 0.500000
Si Si3 0.750000 0.750000 0.863073
Si Si4 0.500000 0.610123 0.500000
Si Si5 0.750000 0.250000 0.750000
O O1 0.500000 0.500000 0.676112
O O2 0.250000 0.569551 0.750000
O O3 0.531960 0.579117 0.589712
O O4 0.750000 0.570019 0.750000
O O5 0.105134 0.710400 0.421174
O O6 0.247682 0.643119 0.521291
O O7 0.487097 0.773444 0.812043
#
# Coordination Sequence:
#
# PCOD9328059 Si02
#       5
#    16   8   8   8   4
#     4  10  22  43  68  97 137 179 221 269 334 409
#     4  12  25  44  69  89 138 169 227 270 347 388
#     4  11  23  46  65  93 128 182 218 281 333 426
#     4  12  24  42  66 107 130 183 214 294 328 402
#     4  10  22  42  70  94 116 164 244 262 342 394
#
# _framework density 20.930897000000002
#
# number of rings (size 3 to 8) (size 9 to 14) (size 15 to 20)
#    0.000    1.091    0.000    7.091    0.000    0.000 
#   32.727    7.273    0.000    0.000    0.000    0.000 
#    0.000    0.000    0.000    0.000    0.000    0.000 
#
# Total GULP energy -61294.052690 kJ/mol
# GULP energy per Si atom -5572.186608 kJ/mol
# Density = 2.088326 g / cm^3
# Si number density = 20.930897 Si / 1000 Ang^3
#
#
#
# Elastic Constant Matrix: (Units=GPa)
#
#
# Indices 1 2 3 4 5 6 
#
# 1 226.8866 50.0307 88.8054 0.0000 0.0000 0.0000
# 2 50.0307 58.6378 71.0800 0.0000 0.0000 0.0000
# 3 88.8054 71.0800 186.2067 0.0000 0.0000 0.0000
# 4 0.0000 0.0000 0.0000 -5.3477 0.0000 0.0000
# 5 0.0000 0.0000 0.0000 0.0000 61.1777 0.0000
# 6 0.0000 0.0000 0.0000 0.0000 0.0000 63.7857
#
#
#
# Elastic Compliance Matrix: (Units=1/GPa)
#
#
# Indices 1 2 3 4 5 6 
#
# 1 0.005673 -0.002905 -0.001597 0.000000 0.000000 0.000000
# 2 -0.002905 0.033229 -0.011299 0.000000 0.000000 0.000000
# 3 -0.001597 -0.011299 0.010445 0.000000 0.000000 0.000000
# 4 0.000000 0.000000 0.000000 -0.186995 0.000000 0.000000
# 5 0.000000 0.000000 0.000000 0.000000 0.016346 0.000000
# 6 0.000000 0.000000 0.000000 0.000000 0.000000 0.015678
#
#
# Mechanical properties :
#
#
# Convention : Reuss Voigt Hill
#
# Bulk Modulus (GPa) = 56.35140 99.06258 77.70699
# Shear Modulus (GPa) = -73.41187 41.37745 -16.01721
#
# Velocity S-wave (km/s) = -5.92871 4.45101 -2.76930
# Velocity P-wave (km/s) = 4.45927 8.59340 5.19430
#
# Compressibility (1/GPa) = 0.01774579
#
# Stress axis : x y z
#
# Youngs Moduli (GPa) = 176.27396 30.09460 95.73981
#
# Poissons Ratio (x) = 0.08742 0.15287
# Poissons Ratio (y) = 0.51203 1.08175
# Poissons Ratio (z) = 0.28146 0.34004
#
# Static dielectric constant tensor:
#      x y z
#    x 1.722390 0.000000 0.000000 
#    y 0.000000 1.739240 0.000000 
#    z 0.000000 0.000000 1.842190 
# 
# From -- ./inp_files/1589.got.cif
#   From: 2010.05.17/outbox.cif.g08.bks.cpg/sg22_1_cif.got.tgz:1589.got - 2010.06.03 23:40:54.
