data_PCOD9328283
_publ_section_title
;
Structure prediction by ZEFSAII (Michael W. Deem and Ramdas Pophale) SiO2 
 PCOD9328283
Probable space group: F 2 2 2
;
_chemical_formula_sum "Si O2"
_cell_formula_units_Z 68
_cell_length_a 5.692652
_cell_length_b 30.116548
_cell_length_c 19.860414
_cell_angle_alpha 90.000000
_cell_angle_beta 90.000000
_cell_angle_gamma 90.000000
_cell_volume 3404.929498
_symmetry_space_group_name_H-M "F 2 2 2"
_symmetry_group_IT_number 22
_symmetry_cell_setting 'orthorhombic'
loop_
_space_group_symop_operation_xyz
x,y,z
-x,-y,z
x,-y,-z
-x,y,-z
x,1/2+y,1/2+z
-x,1/2-y,1/2+z
x,1/2-y,1/2-z
-x,1/2+y,1/2-z
1/2+x,y,1/2+z
1/2-x,-y,1/2+z
1/2+x,-y,1/2-z
1/2-x,y,1/2-z
1/2+x,1/2+y,z
1/2-x,1/2-y,z
1/2+x,1/2-y,-z
1/2-x,1/2+y,-z
loop_
_atom_site_type_symbol
_atom_site_label
_atom_site_fract_x
_atom_site_fract_y
_atom_site_fract_z
Si Si1 0.750000 0.250000 0.750000
Si Si2 0.500000 0.500000 0.213345
Si Si3 0.361245 0.202098 0.821677
Si Si4 0.323469 0.041668 0.110138
Si Si5 0.500000 0.570566 0.000000
Si Si6 0.622685 0.124317 0.072735
O O1 0.618460 0.216657 0.799768
O O2 0.750000 0.485185 0.250000
O O3 0.616845 0.537102 0.165245
O O4 0.250000 0.186949 0.750000
O O5 0.250000 0.250000 0.839652
O O6 0.347878 0.166778 0.880423
O O7 0.468584 0.087187 0.111521
O O8 0.500000 0.000000 0.116123
O O9 0.194927 0.042565 0.038470
O O10 0.631396 0.601516 0.946315
O O11 0.500000 0.133733 0.000000
#
# Coordination Sequence:
#
# PCOD9328283 Si02
#       6
#     4   8  16  16   8  16
#     4   8  18  40  68  86 128 164 216 272 348 418
#     4  12  26  47  64  97 138 182 240 288 350 412
#     4   9  20  41  65  95 128 172 226 277 354 422
#     4  11  24  44  66  94 137 181 231 285 341 412
#     4  10  24  41  66  92 138 174 230 278 349 408
#     4  10  23  42  61 100 135 175 232 284 346 425
#
# _framework density 19.971046999999999
#
# number of rings (size 3 to 8) (size 9 to 14) (size 15 to 20)
#    0.000    2.118    1.176    1.412    0.000   18.824 
#   14.824    0.000    0.000    0.000    0.000    0.000 
#    0.000    0.000    0.000    0.000    0.000    0.000 
#
# Total GULP energy -94697.992865 kJ/mol
# GULP energy per Si atom -5570.470169 kJ/mol
# Density = 1.992559 g / cm^3
# Si number density = 19.971047 Si / 1000 Ang^3
#
#
#
# Elastic Constant Matrix: (Units=GPa)
#
#
# Indices 1 2 3 4 5 6 
#
# 1 116.5124 57.7283 56.0803 0.0000 0.0000 0.0000
# 2 57.7283 115.0859 93.2896 0.0000 0.0000 0.0000
# 3 56.0803 93.2896 113.9917 0.0000 0.0000 0.0000
# 4 0.0000 0.0000 0.0000 -391.2220 0.0000 0.0000
# 5 0.0000 0.0000 0.0000 0.0000 41.1183 0.0000
# 6 0.0000 0.0000 0.0000 0.0000 0.0000 45.8468
#
#
#
# Elastic Compliance Matrix: (Units=1/GPa)
#
#
# Indices 1 2 3 4 5 6 
#
# 1 0.011722 -0.003581 -0.002837 0.000000 0.000000 0.000000
# 2 -0.003581 0.026908 -0.020259 0.000000 0.000000 0.000000
# 3 -0.002837 -0.020259 0.026748 0.000000 0.000000 0.000000
# 4 0.000000 0.000000 0.000000 -0.002556 0.000000 0.000000
# 5 0.000000 0.000000 0.000000 0.000000 0.024320 0.000000
# 6 0.000000 0.000000 0.000000 0.000000 0.000000 0.021812
#
#
# Mechanical properties :
#
#
# Convention : Reuss Voigt Hill
#
# Bulk Modulus (GPa) = 83.16156 84.42073 83.79114
# Shear Modulus (GPa) = 30.06337 -51.61858 -10.77760
#
# Velocity S-wave (km/s) = 3.88409 -5.08948 -2.32558
# Velocity P-wave (km/s) = 7.86424 2.79754 5.90223
#
# Compressibility (1/GPa) = 0.01202479
#
# Stress axis : x y z
#
# Youngs Moduli (GPa) = 85.30839 37.16411 37.38568
#
# Poissons Ratio (x) = 0.13307 0.10605
# Poissons Ratio (y) = 0.30545 0.75741
# Poissons Ratio (z) = 0.24199 0.75292
#
# Static dielectric constant tensor:
#      x y z
#    x 1.852750 0.000000 0.000000 
#    y 0.000000 1.660220 0.000000 
#    z 0.000000 0.000000 1.750400 
# 
# From -- ./inp_files/6300.got.cif
#   From: 2010.05.17/outbox.cif.g08.bks.cpg/sg22_4_cif.got.tgz:6300.got - 2010.06.03 23:40:54.
