data_PCOD9328592
_publ_section_title
;
Structure prediction by ZEFSAII (Michael W. Deem and Ramdas Pophale) SiO2 
 PCOD9328592
Probable space group: F 2 2 2
;
_chemical_formula_sum "Si O2"
_cell_formula_units_Z 68
_cell_length_a 9.188442
_cell_length_b 19.667956
_cell_length_c 15.131542
_cell_angle_alpha 90.000000
_cell_angle_beta 90.000000
_cell_angle_gamma 90.000000
_cell_volume 2734.540085
_symmetry_space_group_name_H-M "F 2 2 2"
_symmetry_group_IT_number 22
_symmetry_cell_setting 'orthorhombic'
loop_
_space_group_symop_operation_xyz
x,y,z
-x,-y,z
x,-y,-z
-x,y,-z
x,1/2+y,1/2+z
-x,1/2-y,1/2+z
x,1/2-y,1/2-z
-x,1/2+y,1/2-z
1/2+x,y,1/2+z
1/2-x,-y,1/2+z
1/2+x,-y,1/2-z
1/2-x,y,1/2-z
1/2+x,1/2+y,z
1/2-x,1/2-y,z
1/2+x,1/2-y,-z
1/2-x,1/2+y,-z
loop_
_atom_site_type_symbol
_atom_site_label
_atom_site_fract_x
_atom_site_fract_y
_atom_site_fract_z
Si Si1 0.750000 0.250000 0.750000
Si Si2 0.474796 0.139985 0.198155
Si Si3 0.284558 0.052355 0.066642
Si Si4 0.161735 0.680491 0.042525
Si Si5 0.613226 0.451546 0.187491
O O1 0.639628 0.201472 0.801780
O O2 0.384622 0.083302 0.143200
O O3 0.618234 0.158166 0.141622
O O4 0.524459 0.119328 0.298301
O O5 0.161493 0.001672 0.107345
O O6 0.251828 0.119507 0.007101
O O7 0.358205 0.000000 0.000000
O O8 0.250000 0.750000 0.038920
O O9 0.000000 0.686722 0.000000
O O10 0.500000 0.500000 0.235161
O O11 0.750000 0.445111 0.250000
#
# Coordination Sequence:
#
# PCOD9328592 Si02
#       5
#     4  16  16  16  16
#     4  12  28  52  78 112 168 212 290 348 412 484
#     4  11  26  47  79 110 156 219 266 331 415 486
#     4  11  25  48  75 112 158 200 262 338 407 479
#     4  10  25  48  76 110 160 215 270 327 415 495
#     4  12  24  45  74 114 152 196 264 332 405 482
#
# _framework density 24.867069999999998
#
# number of rings (size 3 to 8) (size 9 to 14) (size 15 to 20)
#    0.000    0.941    2.353    2.824    6.588    9.412 
#    8.471    0.000    0.000    0.000    0.000    0.000 
#    0.000    0.000    0.000    0.000    0.000    0.000 
#
# Total GULP energy -94649.367402 kJ/mol
# GULP energy per Si atom -5567.609847 kJ/mol
# Density = 2.481047 g / cm^3
# Si number density = 24.867070 Si / 1000 Ang^3
#
#
#
# Elastic Constant Matrix: (Units=GPa)
#
#
# Indices 1 2 3 4 5 6 
#
# 1 95.6406 74.1974 40.8788 0.0000 0.0000 0.0000
# 2 74.1974 193.0355 97.4303 0.0000 0.0000 0.0000
# 3 40.8788 97.4303 102.4309 0.0000 0.0000 0.0000
# 4 0.0000 0.0000 0.0000 82.6439 0.0000 0.0000
# 5 0.0000 0.0000 0.0000 0.0000 10.9977 0.0000
# 6 0.0000 0.0000 0.0000 0.0000 0.0000 6.3395
#
#
#
# Elastic Compliance Matrix: (Units=1/GPa)
#
#
# Indices 1 2 3 4 5 6 
#
# 1 0.014948 -0.005260 -0.000963 0.000000 0.000000 0.000000
# 2 -0.005260 0.011815 -0.009139 0.000000 0.000000 0.000000
# 3 -0.000963 -0.009139 0.018840 0.000000 0.000000 0.000000
# 4 0.000000 0.000000 0.000000 0.012100 0.000000 0.000000
# 5 0.000000 0.000000 0.000000 0.000000 0.090928 0.000000
# 6 0.000000 0.000000 0.000000 0.000000 0.000000 0.157741
#
#
# Mechanical properties :
#
#
# Convention : Reuss Voigt Hill
#
# Bulk Modulus (GPa) = 67.20532 90.68002 78.94267
# Shear Modulus (GPa) = 14.61762 31.90292 23.26027
#
# Velocity S-wave (km/s) = 2.42715 3.58570 3.06172
# Velocity P-wave (km/s) = 5.91094 7.32721 6.65685
#
# Compressibility (1/GPa) = 0.01487977
#
# Stress axis : x y z
#
# Youngs Moduli (GPa) = 66.90034 84.64052 53.07991
#
# Poissons Ratio (x) = 0.44518 0.05109
# Poissons Ratio (y) = 0.35187 0.48509
# Poissons Ratio (z) = 0.06439 0.77352
#
# Static dielectric constant tensor:
#      x y z
#    x 1.928270 0.000000 0.000000 
#    y 0.000000 2.064970 0.000000 
#    z 0.000000 0.000000 2.158050 
# 
# From -- ./inp_files/34857.got.cif
#   From: 2010.05.17/outbox.cif.g08.bks.cpg/sg22_18_cif.got.tgz:34857.got - 2010.06.03 23:40:54.
