data_PCOD9328447
_publ_section_title
;
Structure prediction by ZEFSAII (Michael W. Deem and Ramdas Pophale) SiO2 
 PCOD9328447
Probable space group: F 2 2 2
;
_chemical_formula_sum "Si O2"
_cell_formula_units_Z 92
_cell_length_a 15.195877
_cell_length_b 11.865537
_cell_length_c 24.438066
_cell_angle_alpha 90.000000
_cell_angle_beta 90.000000
_cell_angle_gamma 90.000000
_cell_volume 4406.360251
_symmetry_space_group_name_H-M "F 2 2 2"
_symmetry_group_IT_number 22
_symmetry_cell_setting 'orthorhombic'
loop_
_space_group_symop_operation_xyz
x,y,z
-x,-y,z
x,-y,-z
-x,y,-z
x,1/2+y,1/2+z
-x,1/2-y,1/2+z
x,1/2-y,1/2-z
-x,1/2+y,1/2-z
1/2+x,y,1/2+z
1/2-x,-y,1/2+z
1/2+x,-y,1/2-z
1/2-x,y,1/2-z
1/2+x,1/2+y,z
1/2-x,1/2-y,z
1/2+x,1/2-y,-z
1/2-x,1/2+y,-z
loop_
_atom_site_type_symbol
_atom_site_label
_atom_site_fract_x
_atom_site_fract_y
_atom_site_fract_z
Si Si1 0.905800 0.784591 0.989952
Si Si2 0.464424 0.184162 0.194003
Si Si3 0.000000 0.500000 0.500000
Si Si4 0.750000 0.750000 0.915148
Si Si5 0.621840 0.056530 0.218215
Si Si6 0.342139 0.685862 0.887122
Si Si7 0.812842 0.056805 0.165587
O O1 0.833398 0.720793 0.954149
O O2 0.938663 0.909161 0.968161
O O3 0.862859 0.811010 0.048661
O O4 0.000000 0.724146 0.000000
O O5 0.448358 0.250000 0.250000
O O6 0.567347 0.155421 0.188938
O O7 0.419876 0.249391 0.144547
O O8 0.420064 0.062970 0.203265
O O9 0.792817 0.846061 0.877719
O O10 0.719479 0.048776 0.196113
O O11 0.620340 0.076939 0.283787
O O12 0.250000 0.750000 0.876355
O O13 0.335639 0.559984 0.863842
#
# Coordination Sequence:
#
# PCOD9328447 Si02
#       7
#    16  16   4   8  16  16  16
#     4  10  24  45  68 101 136 178 245 289 349 418
#     4  11  23  41  67  96 142 180 233 282 346 421
#     4   8  20  44  72  96 136 180 240 300 340 426
#     4  12  26  45  68 104 143 186 232 302 352 416
#     4  10  24  42  61 106 138 179 230 288 347 429
#     4  12  23  44  74 101 135 191 238 291 350 423
#     4  11  25  42  69 100 141 184 232 282 365 413
#
# _framework density 20.878910000000001
#
# number of rings (size 3 to 8) (size 9 to 14) (size 15 to 20)
#    0.522    0.696    4.348    1.043    4.870    1.043 
#    0.000    0.000    0.000    1.043    0.000    0.000 
#    0.000    0.000    0.000    0.000    0.000    0.000 
#
# Total GULP energy -128309.664051 kJ/mol
# GULP energy per Si atom -5578.681046 kJ/mol
# Density = 2.083139 g / cm^3
# Si number density = 20.878910 Si / 1000 Ang^3
#
#
#
# Elastic Constant Matrix: (Units=GPa)
#
#
# Indices 1 2 3 4 5 6 
#
# 1 78.3412 33.5995 29.3628 0.0000 0.0000 0.0000
# 2 33.5995 100.6988 50.7021 0.0000 0.0000 0.0000
# 3 29.3628 50.7021 105.3683 0.0000 0.0000 0.0000
# 4 0.0000 0.0000 0.0000 17.7032 0.0000 0.0000
# 5 0.0000 0.0000 0.0000 0.0000 19.6692 0.0000
# 6 0.0000 0.0000 0.0000 0.0000 0.0000 22.3025
#
#
#
# Elastic Compliance Matrix: (Units=1/GPa)
#
#
# Indices 1 2 3 4 5 6 
#
# 1 0.015340 -0.003914 -0.002391 0.000000 0.000000 0.000000
# 2 -0.003914 0.014105 -0.005696 0.000000 0.000000 0.000000
# 3 -0.002391 -0.005696 0.012898 0.000000 0.000000 0.000000
# 4 0.000000 0.000000 0.000000 0.056487 0.000000 0.000000
# 5 0.000000 0.000000 0.000000 0.000000 0.050841 0.000000
# 6 0.000000 0.000000 0.000000 0.000000 0.000000 0.044838
#
#
# Mechanical properties :
#
#
# Convention : Reuss Voigt Hill
#
# Bulk Modulus (GPa) = 54.52919 56.85967 55.69443
# Shear Modulus (GPa) = 22.25937 23.31791 22.78864
#
# Velocity S-wave (km/s) = 3.26869 3.34551 3.30732
# Velocity P-wave (km/s) = 6.35762 6.49734 6.42786
#
# Compressibility (1/GPa) = 0.01833880
#
# Stress axis : x y z
#
# Youngs Moduli (GPa) = 65.19027 70.89807 77.53236
#
# Poissons Ratio (x) = 0.27752 0.18539
# Poissons Ratio (y) = 0.25518 0.44164
# Poissons Ratio (z) = 0.15588 0.40385
#
# Static dielectric constant tensor:
#      x y z
#    x 1.851120 0.000000 0.000000 
#    y 0.000000 1.763150 0.000000 
#    z 0.000000 0.000000 1.771310 
# 
# From -- ./inp_files/44154.got.cif
#   From: 2010.05.17/outbox.cif.g08.bks.cpg/sg22_23_cif.got.tgz:44154.got - 2010.06.03 23:40:54.
