data_PCOD9328721
_publ_section_title
;
Structure prediction by ZEFSAII (Michael W. Deem and Ramdas Pophale) SiO2 
 PCOD9328721
Probable space group: F 2 2 2
;
_chemical_formula_sum "Si O2"
_cell_formula_units_Z 100
_cell_length_a 14.631069
_cell_length_b 14.250483
_cell_length_c 20.269991
_cell_angle_alpha 90.000000
_cell_angle_beta 90.000000
_cell_angle_gamma 90.000000
_cell_volume 4226.289071
_symmetry_space_group_name_H-M "F 2 2 2"
_symmetry_group_IT_number 22
_symmetry_cell_setting 'orthorhombic'
loop_
_space_group_symop_operation_xyz
x,y,z
-x,-y,z
x,-y,-z
-x,y,-z
x,1/2+y,1/2+z
-x,1/2-y,1/2+z
x,1/2-y,1/2-z
-x,1/2+y,1/2-z
1/2+x,y,1/2+z
1/2-x,-y,1/2+z
1/2+x,-y,1/2-z
1/2-x,y,1/2-z
1/2+x,1/2+y,z
1/2-x,1/2-y,z
1/2+x,1/2-y,-z
1/2-x,1/2+y,-z
loop_
_atom_site_type_symbol
_atom_site_label
_atom_site_fract_x
_atom_site_fract_y
_atom_site_fract_z
Si Si1 0.850733 0.945926 0.212523
Si Si2 0.142335 0.279352 0.394423
Si Si3 0.360002 0.237886 0.958115
Si Si4 0.115666 0.402920 0.616505
Si Si5 0.570497 0.586712 0.348521
Si Si6 0.500000 0.500000 0.000000
Si Si7 0.807609 0.458079 0.067670
O O1 0.750000 0.953937 0.250000
O O2 0.858396 0.872777 0.150898
O O3 0.912423 0.909330 0.271229
O O4 0.894930 0.042214 0.184542
O O5 0.250000 0.250000 0.392281
O O6 0.114294 0.284141 0.471709
O O7 0.077320 0.195454 0.369103
O O8 0.250000 0.250000 0.958162
O O9 0.399248 0.293210 0.895571
O O10 0.376273 0.126642 0.951563
O O11 0.064196 0.447706 0.553755
O O12 0.223986 0.417206 0.607445
O O13 0.500000 0.500000 0.359648
O O14 0.653206 0.542427 0.390553
O O15 0.771671 0.500000 0.000000
#
# Coordination Sequence:
#
# PCOD9328721 Si02
#       7
#    16  16  16  16  16   4  16
#     4  12  24  43  75 101 142 198 254 305 377 468
#     4  11  20  40  73 108 132 182 258 318 366 453
#     4   9  21  39  70  99 129 180 244 301 369 447
#     4  11  23  42  65 105 143 183 241 312 381 452
#     4  12  27  44  65 107 150 187 244 318 393 447
#     4  12  24  40  72 108 144 188 242 328 400 416
#     4  11  20  44  71  94 138 191 237 297 376 467
#
# _framework density 23.66142
#
# number of rings (size 3 to 8) (size 9 to 14) (size 15 to 20)
#    0.000    0.960    5.600    1.440    3.360    0.320 
#    5.760    2.400    0.000    0.000    0.000    0.000 
#    0.000    0.000    0.000    0.000    0.000    0.000 
#
# Total GULP energy -139312.241663 kJ/mol
# GULP energy per Si atom -5572.489667 kJ/mol
# Density = 2.360757 g / cm^3
# Si number density = 23.661420 Si / 1000 Ang^3
#
#
#
# Elastic Constant Matrix: (Units=GPa)
#
#
# Indices 1 2 3 4 5 6 
#
# 1 55.9539 16.7223 21.1620 0.0000 0.0000 0.0000
# 2 16.7223 76.3985 53.4289 0.0000 0.0000 0.0000
# 3 21.1620 53.4289 91.9600 0.0000 0.0000 0.0000
# 4 0.0000 0.0000 0.0000 36.2497 0.0000 0.0000
# 5 0.0000 0.0000 0.0000 0.0000 8.0940 0.0000
# 6 0.0000 0.0000 0.0000 0.0000 0.0000 28.6252
#
#
#
# Elastic Compliance Matrix: (Units=1/GPa)
#
#
# Indices 1 2 3 4 5 6 
#
# 1 0.019743 -0.001927 -0.003424 0.000000 0.000000 0.000000
# 2 -0.001927 0.022236 -0.012476 0.000000 0.000000 0.000000
# 3 -0.003424 -0.012476 0.018910 0.000000 0.000000 0.000000
# 4 0.000000 0.000000 0.000000 0.027586 0.000000 0.000000
# 5 0.000000 0.000000 0.000000 0.000000 0.123548 0.000000
# 6 0.000000 0.000000 0.000000 0.000000 0.000000 0.034934
#
#
# Mechanical properties :
#
#
# Convention : Reuss Voigt Hill
#
# Bulk Modulus (GPa) = 39.62526 45.21543 42.42034
# Shear Modulus (GPa) = 17.18080 23.46040 20.32060
#
# Velocity S-wave (km/s) = 2.69757 3.15223 2.93372
# Velocity P-wave (km/s) = 5.14642 5.69206 5.42610
#
# Compressibility (1/GPa) = 0.02523643
#
# Stress axis : x y z
#
# Youngs Moduli (GPa) = 50.65198 44.97249 52.88071
#
# Poissons Ratio (x) = 0.08666 0.18104
# Poissons Ratio (y) = 0.09761 0.65972
# Poissons Ratio (z) = 0.17341 0.56106
#
# Static dielectric constant tensor:
#      x y z
#    x 2.011410 0.000000 0.000000 
#    y 0.000000 2.052640 0.000000 
#    z 0.000000 0.000000 1.852570 
# 
# From -- ./inp_files/44253.got.cif
#   From: 2010.05.17/outbox.cif.g08.bks.cpg/sg22_23_cif.got.tgz:44253.got - 2010.06.03 23:40:54.
