data_PCOD9328220
_publ_section_title
;
Structure prediction by ZEFSAII (Michael W. Deem and Ramdas Pophale) SiO2 
 PCOD9328220
Probable space group: F 2 2 2
;
_chemical_formula_sum "Si O2"
_cell_formula_units_Z 100
_cell_length_a 25.718943
_cell_length_b 8.827573
_cell_length_c 23.324523
_cell_angle_alpha 90.000000
_cell_angle_beta 90.000000
_cell_angle_gamma 90.000000
_cell_volume 5295.502831
_symmetry_space_group_name_H-M "F 2 2 2"
_symmetry_group_IT_number 22
_symmetry_cell_setting 'orthorhombic'
loop_
_space_group_symop_operation_xyz
x,y,z
-x,-y,z
x,-y,-z
-x,y,-z
x,1/2+y,1/2+z
-x,1/2-y,1/2+z
x,1/2-y,1/2-z
-x,1/2+y,1/2-z
1/2+x,y,1/2+z
1/2-x,-y,1/2+z
1/2+x,-y,1/2-z
1/2-x,y,1/2-z
1/2+x,1/2+y,z
1/2-x,1/2-y,z
1/2+x,1/2-y,-z
1/2-x,1/2+y,-z
loop_
_atom_site_type_symbol
_atom_site_label
_atom_site_fract_x
_atom_site_fract_y
_atom_site_fract_z
Si Si1 0.942257 0.781708 0.991929
Si Si2 0.806764 0.679361 0.188086
Si Si3 0.693251 0.184240 0.187350
Si Si4 0.500499 0.817977 0.813543
Si Si5 0.000000 0.000000 0.500000
Si Si6 0.400498 0.157818 0.627100
Si Si7 0.098887 0.693111 0.620167
O O1 0.912937 0.787930 0.052316
O O2 0.960395 0.614065 0.969720
O O3 0.909772 0.849043 0.940934
O O4 0.000000 0.849199 0.000000
O O5 0.822511 0.750000 0.250000
O O6 0.750000 0.750000 0.175774
O O7 0.804438 0.497375 0.191005
O O8 0.848686 0.726628 0.140821
O O9 0.679188 0.250000 0.250000
O O10 0.750000 0.250000 0.173067
O O11 0.650524 0.249543 0.144246
O O12 0.497116 0.750000 0.750000
O O13 0.551092 0.742638 0.843008
O O14 0.450467 0.767763 0.849337
O O15 0.500000 0.000000 0.811708
O O16 0.397941 0.980440 0.642226
#
# Coordination Sequence:
#
# PCOD9328220 Si02
#       7
#    16  16  16  16   4  16  16
#     4  10  23  38  65  86 129 163 211 247 310 362
#     4  11  23  42  67  93 125 162 207 256 312 369
#     4  11  23  42  67  93 125 162 207 256 312 369
#     4  12  25  39  58  88 124 161 202 254 313 367
#     4   8  20  36  58  84 124 152 214 240 300 356
#     4  12  24  40  63  91 125 163 208 253 307 368
#     4  12  24  40  63  91 125 163 208 253 307 368
#
# _framework density 18.883948
#
# number of rings (size 3 to 8) (size 9 to 14) (size 15 to 20)
#    0.480    0.320    1.600    7.680    6.720    0.640 
#    0.000    0.800    0.000    0.000    0.000    0.000 
#    0.000    0.000    0.000    0.000    0.000    0.000 
#
# Total GULP energy -139565.206005 kJ/mol
# GULP energy per Si atom -5582.608240 kJ/mol
# Density = 1.884097 g / cm^3
# Si number density = 18.883948 Si / 1000 Ang^3
#
#
#
# Elastic Constant Matrix: (Units=GPa)
#
#
# Indices 1 2 3 4 5 6 
#
# 1 98.4508 42.9929 75.3330 0.0000 0.0000 0.0000
# 2 42.9929 198.5667 35.6340 0.0000 0.0000 0.0000
# 3 75.3330 35.6340 124.0355 0.0000 0.0000 0.0000
# 4 0.0000 0.0000 0.0000 19.4507 0.0000 0.0000
# 5 0.0000 0.0000 0.0000 0.0000 61.8466 0.0000
# 6 0.0000 0.0000 0.0000 0.0000 0.0000 42.4336
#
#
#
# Elastic Compliance Matrix: (Units=1/GPa)
#
#
# Indices 1 2 3 4 5 6 
#
# 1 0.019890 -0.002255 -0.011432 0.000000 0.000000 0.000000
# 2 -0.002255 0.005565 -0.000229 0.000000 0.000000 0.000000
# 3 -0.011432 -0.000229 0.015072 0.000000 0.000000 0.000000
# 4 0.000000 0.000000 0.000000 0.051412 0.000000 0.000000
# 5 0.000000 0.000000 0.000000 0.000000 0.016169 0.000000
# 6 0.000000 0.000000 0.000000 0.000000 0.000000 0.023566
#
#
# Mechanical properties :
#
#
# Convention : Reuss Voigt Hill
#
# Bulk Modulus (GPa) = 78.77928 80.99698 79.88813
# Shear Modulus (GPa) = 30.53646 42.55239 36.54443
#
# Velocity S-wave (km/s) = 4.02563 4.75211 4.40388
# Velocity P-wave (km/s) = 7.96340 8.54957 8.26169
#
# Compressibility (1/GPa) = 0.01269369
#
# Stress axis : x y z
#
# Youngs Moduli (GPa) = 50.27684 179.67916 66.35027
#
# Poissons Ratio (x) = 0.40515 0.75854
# Poissons Ratio (y) = 0.11337 0.01522
# Poissons Ratio (z) = 0.57478 0.04122
#
# Static dielectric constant tensor:
#      x y z
#    x 1.627810 0.000000 0.000000 
#    y 0.000000 1.679540 0.000000 
#    z 0.000000 0.000000 1.643300 
# 
# From -- ./inp_files/45803.got.cif
#   From: 2010.05.17/outbox.cif.g08.bks.cpg/sg22_23_cif.got.tgz:45803.got - 2010.06.03 23:40:54.
