data_PCOD9328000
_publ_section_title
;
Structure prediction by ZEFSAII (Michael W. Deem and Ramdas Pophale) SiO2 
 PCOD9328000
Probable space group: F 2 2 2
;
_chemical_formula_sum "Si O2"
_cell_formula_units_Z 104
_cell_length_a 30.459686
_cell_length_b 21.783085
_cell_length_c 7.480660
_cell_angle_alpha 90.000000
_cell_angle_beta 90.000000
_cell_angle_gamma 90.000000
_cell_volume 4963.462264
_symmetry_space_group_name_H-M "F 2 2 2"
_symmetry_group_IT_number 22
_symmetry_cell_setting 'orthorhombic'
loop_
_space_group_symop_operation_xyz
x,y,z
-x,-y,z
x,-y,-z
-x,y,-z
x,1/2+y,1/2+z
-x,1/2-y,1/2+z
x,1/2-y,1/2-z
-x,1/2+y,1/2-z
1/2+x,y,1/2+z
1/2-x,-y,1/2+z
1/2+x,-y,1/2-z
1/2-x,y,1/2-z
1/2+x,1/2+y,z
1/2-x,1/2-y,z
1/2+x,1/2-y,-z
1/2-x,1/2+y,-z
loop_
_atom_site_type_symbol
_atom_site_label
_atom_site_fract_x
_atom_site_fract_y
_atom_site_fract_z
Si Si1 0.500000 0.653864 0.000000
Si Si2 0.085160 0.879019 0.594379
Si Si3 0.200481 0.037645 0.184985
Si Si4 0.969900 0.941044 0.692880
Si Si5 0.128996 0.556013 0.210773
Si Si6 0.863079 0.367058 0.568553
Si Si7 0.416571 0.758830 0.465709
O O1 0.487222 0.610264 0.168150
O O2 0.458383 0.699276 0.983021
O O3 0.124495 0.904799 0.469696
O O4 0.098063 0.889784 0.798280
O O5 0.080502 0.806969 0.557693
O O6 0.043654 0.911205 0.499677
O O7 0.250000 0.039277 0.250000
O O8 0.180650 0.105678 0.157692
O O9 0.165449 0.996269 0.294090
O O10 0.200951 0.000000 0.000000
O O11 0.920931 0.966285 0.744757
O O12 0.000000 0.000000 0.698050
O O13 0.136299 0.601179 0.376231
O O14 0.873819 0.296140 0.532808
O O15 0.416091 0.750000 0.250000
#
# Coordination Sequence:
#
# PCOD9328000 Si02
#       7
#     8  16  16  16  16  16  16
#     4  12  23  38  70  88 143 190 246 302 338 420
#     4  10  23  43  66  93 133 181 239 296 334 425
#     4  10  24  41  73 112 139 178 222 285 375 447
#     4  10  22  41  67  96 142 196 232 297 354 416
#     4   9  21  44  65  96 142 181 222 290 348 432
#     4  11  22  42  71  97 132 183 225 288 359 415
#     4  12  22  44  66  94 134 191 245 296 346 408
#
# _framework density 20.953115
#
# number of rings (size 3 to 8) (size 9 to 14) (size 15 to 20)
#    0.923    0.615    4.615    0.692    4.308    2.462 
#    0.000    0.769    3.385    1.846    0.000    2.154 
#    0.000    0.000    0.000    0.000    0.000    0.000 
#
# Total GULP energy -145129.485832 kJ/mol
# GULP energy per Si atom -5581.903301 kJ/mol
# Density = 2.090542 g / cm^3
# Si number density = 20.953115 Si / 1000 Ang^3
#
#
#
# Elastic Constant Matrix: (Units=GPa)
#
#
# Indices 1 2 3 4 5 6 
#
# 1 113.4507 61.5215 8.3462 0.0004 0.0000 0.0000
# 2 61.5215 142.8590 12.0884 0.0003 -0.0001 0.0001
# 3 8.3462 12.0884 86.7846 -0.0001 -0.0004 0.0003
# 4 0.0004 0.0003 -0.0001 32.1459 -0.0002 0.0002
# 5 0.0000 -0.0001 -0.0004 -0.0002 32.5545 0.0000
# 6 0.0000 0.0001 0.0003 0.0002 0.0000 26.6574
#
#
#
# Elastic Compliance Matrix: (Units=1/GPa)
#
#
# Indices 1 2 3 4 5 6 
#
# 1 0.011515 -0.004923 -0.000422 0.000000 0.000000 0.000000
# 2 -0.004923 0.009188 -0.000806 0.000000 0.000000 0.000000
# 3 -0.000422 -0.000806 0.011676 0.000000 0.000000 0.000000
# 4 0.000000 0.000000 0.000000 0.031108 0.000000 0.000000
# 5 0.000000 0.000000 0.000000 0.000000 0.030718 0.000000
# 6 0.000000 0.000000 0.000000 0.000000 0.000000 0.037513
#
#
# Mechanical properties :
#
#
# Convention : Reuss Voigt Hill
#
# Bulk Modulus (GPa) = 49.80938 56.33406 53.07172
# Shear Modulus (GPa) = 33.17566 35.68078 34.42822
#
# Velocity S-wave (km/s) = 3.98342 4.13108 4.05792
# Velocity P-wave (km/s) = 6.70674 7.04972 6.88037
#
# Compressibility (1/GPa) = 0.02007654
#
# Stress axis : x y z
#
# Youngs Moduli (GPa) = 86.84175 108.83368 85.64824
#
# Poissons Ratio (x) = 0.53582 0.03611
# Poissons Ratio (y) = 0.42755 0.06907
# Poissons Ratio (z) = 0.03662 0.08776
#
# Static dielectric constant tensor:
#      x y z
#    x 1.817790 0.000000 0.000000 
#    y 0.000000 1.739660 0.000000 
#    z 0.000000 0.000000 1.827060 
# 
# From -- ./inp_files/14927.got.cif
#   From: 2010.05.17/outbox.cif.g08.bks.cpg/sg22_8_cif.got.tgz:14927.got - 2010.06.03 23:40:54.
