data_PCOD9328796
_publ_section_title
;
Structure prediction by ZEFSAII (Michael W. Deem and Ramdas Pophale) SiO2 
 PCOD9328796
Probable space group: F 2 2 2
;
_chemical_formula_sum "Si O2"
_cell_formula_units_Z 56
_cell_length_a 15.208552
_cell_length_b 13.829564
_cell_length_c 11.788249
_cell_angle_alpha 90.000000
_cell_angle_beta 90.000000
_cell_angle_gamma 90.000000
_cell_volume 2479.394630
_symmetry_space_group_name_H-M "F 2 2 2"
_symmetry_group_IT_number 22
_symmetry_cell_setting 'orthorhombic'
loop_
_space_group_symop_operation_xyz
x,y,z
-x,-y,z
x,-y,-z
-x,y,-z
x,1/2+y,1/2+z
-x,1/2-y,1/2+z
x,1/2-y,1/2-z
-x,1/2+y,1/2-z
1/2+x,y,1/2+z
1/2-x,-y,1/2+z
1/2+x,-y,1/2-z
1/2-x,y,1/2-z
1/2+x,1/2+y,z
1/2-x,1/2-y,z
1/2+x,1/2-y,-z
1/2-x,1/2+y,-z
loop_
_atom_site_type_symbol
_atom_site_label
_atom_site_fract_x
_atom_site_fract_y
_atom_site_fract_z
Si Si1 0.026047 0.750000 0.250000
Si Si2 0.767884 0.139608 0.560988
Si Si3 0.338018 0.108910 0.823795
Si Si4 0.115954 0.093185 0.224508
O O1 0.093548 0.803383 0.333775
O O2 0.966065 0.836751 0.202254
O O3 0.750000 0.250000 0.527862
O O4 0.804168 0.089129 0.449415
O O5 0.835829 0.140626 0.665981
O O6 0.680274 0.095791 0.616757
O O7 0.250000 0.128462 0.750000
O O8 0.388332 0.018045 0.766012
#
# Coordination Sequence:
#
# PCOD9328796 Si02
#       4
#     8  16  16  16
#     4  12  25  47  68 114 152 186 250 315 371 430
#     4  11  21  45  77 103 144 198 249 291 375 444
#     4  12  26  45  73 109 150 194 246 307 374 446
#     4  11  23  45  77 105 143 200 251 306 362 451
#
# _framework density 22.586158999999999
#
# number of rings (size 3 to 8) (size 9 to 14) (size 15 to 20)
#    0.000    0.571    5.714    4.714    0.000    1.143 
#    5.143    2.857    0.000    3.429    0.000    0.000 
#    0.000    0.000    0.000    0.000    0.000    0.000 
#
# Total GULP energy -78188.363821 kJ/mol
# GULP energy per Si atom -5584.883130 kJ/mol
# Density = 2.253475 g / cm^3
# Si number density = 22.586159 Si / 1000 Ang^3
#
#
#
# Elastic Constant Matrix: (Units=GPa)
#
#
# Indices 1 2 3 4 5 6 
#
# 1 131.2827 71.2833 59.5771 0.0000 0.0000 0.0000
# 2 71.2833 129.3938 44.0880 0.0000 0.0000 0.0000
# 3 59.5771 44.0880 129.4888 0.0000 0.0000 0.0000
# 4 0.0000 0.0000 0.0000 23.8641 0.0000 0.0000
# 5 0.0000 0.0000 0.0000 0.0000 9.7148 0.0000
# 6 0.0000 0.0000 0.0000 0.0000 0.0000 35.0789
#
#
#
# Elastic Compliance Matrix: (Units=1/GPa)
#
#
# Indices 1 2 3 4 5 6 
#
# 1 0.012325 -0.005495 -0.003800 0.000000 0.000000 0.000000
# 2 -0.005495 0.011193 -0.001282 0.000000 0.000000 0.000000
# 3 -0.003800 -0.001282 0.009908 0.000000 0.000000 0.000000
# 4 0.000000 0.000000 0.000000 0.041904 0.000000 0.000000
# 5 0.000000 0.000000 0.000000 0.000000 0.102935 0.000000
# 6 0.000000 0.000000 0.000000 0.000000 0.000000 0.028507
#
#
# Mechanical properties :
#
#
# Convention : Reuss Voigt Hill
#
# Bulk Modulus (GPa) = 81.49684 82.22912 81.86298
# Shear Modulus (GPa) = 21.55008 28.07935 24.81472
#
# Velocity S-wave (km/s) = 3.09225 3.52974 3.31821
# Velocity P-wave (km/s) = 6.99359 7.28684 7.14172
#
# Compressibility (1/GPa) = 0.01227041
#
# Stress axis : x y z
#
# Youngs Moduli (GPa) = 81.13333 89.34361 100.93265
#
# Poissons Ratio (x) = 0.49098 0.38352
# Poissons Ratio (y) = 0.44586 0.12944
# Poissons Ratio (z) = 0.30829 0.11458
#
# Static dielectric constant tensor:
#      x y z
#    x 1.855740 0.000000 0.000000 
#    y 0.000000 2.024630 0.000000 
#    z 0.000000 0.000000 1.767610 
# 
# From -- ./inp_files/19052.got.cif
#   From: 2010.05.17/outbox.cif.g08.bks.cpg/sg22_10_cif.got.tgz:19052.got - 2010.06.03 23:40:54.
