data_PCOD9328097
_publ_section_title
;
Structure prediction by ZEFSAII (Michael W. Deem and Ramdas Pophale) SiO2 
 PCOD9328097
Probable space group: F 2 2 2
;
_chemical_formula_sum "Si O2"
_cell_formula_units_Z 112
_cell_length_a 5.235059
_cell_length_b 30.365736
_cell_length_c 32.677383
_cell_angle_alpha 90.000000
_cell_angle_beta 90.000000
_cell_angle_gamma 90.000000
_cell_volume 5194.606575
_symmetry_space_group_name_H-M "F 2 2 2"
_symmetry_group_IT_number 22
_symmetry_cell_setting 'orthorhombic'
loop_
_space_group_symop_operation_xyz
x,y,z
-x,-y,z
x,-y,-z
-x,y,-z
x,1/2+y,1/2+z
-x,1/2-y,1/2+z
x,1/2-y,1/2-z
-x,1/2+y,1/2-z
1/2+x,y,1/2+z
1/2-x,-y,1/2+z
1/2+x,-y,1/2-z
1/2-x,y,1/2-z
1/2+x,1/2+y,z
1/2-x,1/2-y,z
1/2+x,1/2-y,-z
1/2-x,1/2+y,-z
loop_
_atom_site_type_symbol
_atom_site_label
_atom_site_fract_x
_atom_site_fract_y
_atom_site_fract_z
Si Si1 0.412255 0.548086 0.403573
Si Si2 0.072969 0.583011 0.636537
Si Si3 0.946947 0.218159 0.043682
Si Si4 0.625844 0.368078 0.454639
Si Si5 0.762600 0.827757 0.105151
Si Si6 0.992622 0.127899 0.223625
Si Si7 0.984518 0.721868 0.315652
O O1 0.500000 0.500000 0.417550
O O2 0.649224 0.564342 0.375164
O O3 0.353330 0.581085 0.441253
O O4 0.153187 0.550944 0.377180
O O5 0.060864 0.628865 0.610600
O O6 0.037923 0.598592 0.683131
O O7 0.750000 0.250000 0.066321
O O8 0.835228 0.169311 0.037752
O O9 0.190370 0.206355 0.069135
O O10 0.000000 0.238924 0.000000
O O11 0.500000 0.368889 0.500000
O O12 0.495472 0.349066 0.412271
O O13 0.834726 0.799580 0.145068
O O14 0.750000 0.112769 0.250000
O O15 0.942215 0.178497 0.209953
O O16 0.250000 0.127085 0.250000
O O17 0.250000 0.750000 0.322859
O O18 0.750000 0.750000 0.296762
#
# Coordination Sequence:
#
# PCOD9328097 Si02
#       7
#    16  16  16  16  16  16  16
#     4  11  23  42  71  99 128 169 214 268 332 399
#     4  10  22  43  67  96 129 164 210 258 321 391
#     4  12  24  36  56  85 124 171 225 266 328 376
#     4  11  23  41  61  88 130 171 220 281 338 383
#     4  10  23  38  59  83 120 174 218 269 317 379
#     4  11  23  41  68  96 129 174 213 256 327 398
#     4  11  25  39  59  91 129 171 226 278 321 372
#
# _framework density 21.560822999999999
#
# number of rings (size 3 to 8) (size 9 to 14) (size 15 to 20)
#    0.000    1.143    2.857    3.000    4.000    4.286 
#    0.000    0.000    0.000   10.286    0.000    0.000 
#    0.000    0.000    0.000    0.000    0.000    0.000 
#
# Total GULP energy -155889.072413 kJ/mol
# GULP energy per Si atom -5567.466872 kJ/mol
# Density = 2.151175 g / cm^3
# Si number density = 21.560823 Si / 1000 Ang^3
#
#
#
# Elastic Constant Matrix: (Units=GPa)
#
#
# Indices 1 2 3 4 5 6 
#
# 1 107.5379 15.2042 21.2742 0.0000 0.0000 0.0000
# 2 15.2042 96.7355 0.8690 0.0000 0.0000 0.0000
# 3 21.2742 0.8690 64.5772 0.0000 0.0000 0.0000
# 4 0.0000 0.0000 0.0000 7.2824 0.0000 0.0000
# 5 0.0000 0.0000 0.0000 0.0000 22.3068 0.0000
# 6 0.0000 0.0000 0.0000 0.0000 0.0000 33.0374
#
#
#
# Elastic Compliance Matrix: (Units=1/GPa)
#
#
# Indices 1 2 3 4 5 6 
#
# 1 0.010180 -0.001570 -0.003333 0.000000 0.000000 0.000000
# 2 -0.001570 0.010581 0.000375 0.000000 0.000000 0.000000
# 3 -0.003333 0.000375 0.016578 0.000000 0.000000 0.000000
# 4 0.000000 0.000000 0.000000 0.137318 0.000000 0.000000
# 5 0.000000 0.000000 0.000000 0.000000 0.044829 0.000000
# 6 0.000000 0.000000 0.000000 0.000000 0.000000 0.030269
#
#
# Mechanical properties :
#
#
# Convention : Reuss Voigt Hill
#
# Bulk Modulus (GPa) = 35.35621 38.17172 36.76396
# Shear Modulus (GPa) = 18.64007 27.95886 23.29946
#
# Velocity S-wave (km/s) = 2.94349 3.60494 3.29087
# Velocity P-wave (km/s) = 5.29019 5.92200 5.61499
#
# Compressibility (1/GPa) = 0.02828357
#
# Stress axis : x y z
#
# Youngs Moduli (GPa) = 98.22853 94.51012 60.32022
#
# Poissons Ratio (x) = 0.14839 0.20103
# Poissons Ratio (y) = 0.15423 -0.02261
# Poissons Ratio (z) = 0.32736 -0.03543
#
# Static dielectric constant tensor:
#      x y z
#    x 1.886710 0.000000 0.000000 
#    y 0.000000 1.822370 0.000000 
#    z 0.000000 0.000000 1.821260 
# 
# From -- ./inp_files/55167.got.cif
#   From: 2010.05.17/outbox.cif.g08.bks.cpg/sg22_28_cif.got.tgz:55167.got - 2010.06.03 23:40:54.
