data_PCOD9328718
_publ_section_title
;
Structure prediction by ZEFSAII (Michael W. Deem and Ramdas Pophale) SiO2 
 PCOD9328718
Probable space group: F 2 2 2
;
_chemical_formula_sum "Si O2"
_cell_formula_units_Z 80
_cell_length_a 11.298608
_cell_length_b 23.966888
_cell_length_c 12.271753
_cell_angle_alpha 90.000000
_cell_angle_beta 90.000000
_cell_angle_gamma 90.000000
_cell_volume 3323.098337
_symmetry_space_group_name_H-M "F 2 2 2"
_symmetry_group_IT_number 22
_symmetry_cell_setting 'orthorhombic'
loop_
_space_group_symop_operation_xyz
x,y,z
-x,-y,z
x,-y,-z
-x,y,-z
x,1/2+y,1/2+z
-x,1/2-y,1/2+z
x,1/2-y,1/2-z
-x,1/2+y,1/2-z
1/2+x,y,1/2+z
1/2-x,-y,1/2+z
1/2+x,-y,1/2-z
1/2-x,y,1/2-z
1/2+x,1/2+y,z
1/2-x,1/2-y,z
1/2+x,1/2-y,-z
1/2-x,1/2+y,-z
loop_
_atom_site_type_symbol
_atom_site_label
_atom_site_fract_x
_atom_site_fract_y
_atom_site_fract_z
Si Si1 0.968942 0.889833 0.843194
Si Si2 0.164836 0.208083 0.421046
Si Si3 0.550094 0.561968 0.387817
Si Si4 0.204924 0.908060 0.971247
Si Si5 0.563278 0.241802 0.361624
O O1 0.970584 0.823282 0.868271
O O2 0.997852 0.905782 0.717619
O O3 0.084234 0.914349 0.903913
O O4 0.846656 0.910688 0.903858
O O5 0.250000 0.250000 0.361376
O O6 0.266836 0.348143 0.447277
O O7 0.130449 0.239114 0.532347
O O8 0.043505 0.212956 0.355786
O O9 0.500000 0.500000 0.377870
O O10 0.500000 0.588860 0.500000
O O11 0.690413 0.555566 0.415908
O O12 0.629851 0.250000 0.250000
#
# Coordination Sequence:
#
# PCOD9328718 Si02
#       5
#    16  16  16  16  16
#     4  11  23  47  76 110 143 195 254 309 378 462
#     4  11  20  40  63  99 153 189 227 288 353 448
#     4  11  28  53  72 104 145 189 254 327 394 451
#     4  11  23  46  78 109 151 197 248 311 379 457
#     4  11  23  36  61 101 149 193 242 286 355 450
#
# _framework density 24.073919
#
# number of rings (size 3 to 8) (size 9 to 14) (size 15 to 20)
#    0.000    1.000    4.000    3.000    5.600    1.600 
#   14.400    1.000    0.000    0.000    0.000    0.000 
#    0.000    0.000    0.000    0.000    0.000    0.000 
#
# Total GULP energy -111454.319878 kJ/mol
# GULP energy per Si atom -5572.715994 kJ/mol
# Density = 2.401913 g / cm^3
# Si number density = 24.073919 Si / 1000 Ang^3
#
#
#
# Elastic Constant Matrix: (Units=GPa)
#
#
# Indices 1 2 3 4 5 6 
#
# 1 180.3942 48.8510 44.2025 0.0000 0.0000 0.0000
# 2 48.8510 99.0603 38.6666 0.0000 0.0000 0.0000
# 3 44.2025 38.6666 194.9357 0.0000 0.0000 0.0000
# 4 0.0000 0.0000 0.0000 42.4670 0.0000 0.0000
# 5 0.0000 0.0000 0.0000 0.0000 -22.3584 0.0000
# 6 0.0000 0.0000 0.0000 0.0000 0.0000 74.7086
#
#
#
# Elastic Compliance Matrix: (Units=1/GPa)
#
#
# Indices 1 2 3 4 5 6 
#
# 1 0.006545 -0.002871 -0.000915 0.000000 0.000000 0.000000
# 2 -0.002871 0.012201 -0.001769 0.000000 0.000000 0.000000
# 3 -0.000915 -0.001769 0.005688 0.000000 0.000000 0.000000
# 4 0.000000 0.000000 0.000000 0.023548 0.000000 0.000000
# 5 0.000000 0.000000 0.000000 0.000000 -0.044726 0.000000
# 6 0.000000 0.000000 0.000000 0.000000 0.000000 0.013385
#
#
# Mechanical properties :
#
#
# Convention : Reuss Voigt Hill
#
# Bulk Modulus (GPa) = 75.04558 81.98117 78.51337
# Shear Modulus (GPa) = 155.31814 41.80810 98.56312
#
# Velocity S-wave (km/s) = 8.04097 4.17184 6.40552
# Velocity P-wave (km/s) = 10.83745 7.57189 9.34836
#
# Compressibility (1/GPa) = 0.01332524
#
# Stress axis : x y z
#
# Youngs Moduli (GPa) = 152.79091 81.96022 175.80110
#
# Poissons Ratio (x) = 0.23527 0.16080
# Poissons Ratio (y) = 0.43859 0.31103
# Poissons Ratio (z) = 0.13976 0.14501
#
# Static dielectric constant tensor:
#      x y z
#    x 1.656260 0.000000 0.000000 
#    y 0.000000 1.964890 0.000000 
#    z 0.000000 0.000000 2.006020 
# 
# From -- ./inp_files/18288.got.cif
#   From: 2010.05.17/outbox.cif.g08.bks.cpg/sg22_10_cif.got.tgz:18288.got - 2010.06.03 23:40:54.
