data_PCOD9328862
_publ_section_title
;
Structure prediction by ZEFSAII (Michael W. Deem and Ramdas Pophale) SiO2 
 PCOD9328862
Probable space group: F 2 2 2
;
_chemical_formula_sum "Si O2"
_cell_formula_units_Z 92
_cell_length_a 8.664929
_cell_length_b 20.471827
_cell_length_c 23.034541
_cell_angle_alpha 90.000000
_cell_angle_beta 90.000000
_cell_angle_gamma 90.000000
_cell_volume 4086.026453
_symmetry_space_group_name_H-M "F 2 2 2"
_symmetry_group_IT_number 22
_symmetry_cell_setting 'orthorhombic'
loop_
_space_group_symop_operation_xyz
x,y,z
-x,-y,z
x,-y,-z
-x,y,-z
x,1/2+y,1/2+z
-x,1/2-y,1/2+z
x,1/2-y,1/2-z
-x,1/2+y,1/2-z
1/2+x,y,1/2+z
1/2-x,-y,1/2+z
1/2+x,-y,1/2-z
1/2-x,y,1/2-z
1/2+x,1/2+y,z
1/2-x,1/2-y,z
1/2+x,1/2-y,-z
1/2-x,1/2+y,-z
loop_
_atom_site_type_symbol
_atom_site_label
_atom_site_fract_x
_atom_site_fract_y
_atom_site_fract_z
Si Si1 0.527322 0.576738 0.687684
Si Si2 0.500000 0.000000 0.606146
Si Si3 0.181150 0.818659 0.990284
Si Si4 0.207374 0.613306 0.627629
Si Si5 0.226021 0.914349 0.421619
Si Si6 0.500000 0.000000 0.000000
Si Si7 0.072929 0.320291 0.272678
O O1 0.500000 0.500000 0.699712
O O2 0.379039 0.603958 0.651686
O O3 0.672134 0.585866 0.644983
O O4 0.527002 0.621857 0.744651
O O5 0.382553 0.953802 0.640277
O O6 0.609994 0.950621 0.571604
O O7 0.250000 0.750000 0.971262
O O8 0.213358 0.871659 0.940209
O O9 0.259663 0.843962 0.049245
O O10 0.000000 0.812606 0.000000
O O11 0.104144 0.668932 0.659183
O O12 0.103581 0.956115 0.457898
O O13 0.018283 0.250000 0.250000
O O14 0.250000 0.327387 0.250000
#
# Coordination Sequence:
#
# PCOD9328862 Si02
#       7
#    16   8  16  16  16   4  16
#     4  11  22  42  70 107 137 172 232 296 350 414
#     4  12  22  43  67  98 135 178 228 283 362 418
#     4  12  29  44  66  99 140 189 233 285 347 425
#     4  11  24  43  70  98 137 181 231 290 347 420
#     4  12  24  43  67 103 141 180 225 288 354 426
#     4  12  24  38  70 100 138 178 228 270 358 410
#     4   9  22  42  69  97 131 186 233 282 343 414
#
# _framework density 22.515761999999999
#
# number of rings (size 3 to 8) (size 9 to 14) (size 15 to 20)
#    0.000    0.870    4.348    2.087    9.739    0.696 
#    0.000    0.870    0.000    1.043    0.000    0.000 
#    0.000    0.000    0.000    0.000    0.000    0.000 
#
# Total GULP energy -128603.659978 kJ/mol
# GULP energy per Si atom -5591.463477 kJ/mol
# Density = 2.246452 g / cm^3
# Si number density = 22.515762 Si / 1000 Ang^3
#
#
#
# Elastic Constant Matrix: (Units=GPa)
#
#
# Indices 1 2 3 4 5 6 
#
# 1 70.7782 10.2763 5.7898 0.0000 0.0000 0.0000
# 2 10.2763 89.6952 22.4773 0.0000 0.0000 0.0000
# 3 5.7898 22.4773 58.5884 0.0000 0.0000 0.0000
# 4 0.0000 0.0000 0.0000 25.9648 0.0000 0.0000
# 5 0.0000 0.0000 0.0000 0.0000 12.0210 0.0000
# 6 0.0000 0.0000 0.0000 0.0000 0.0000 30.6504
#
#
#
# Elastic Compliance Matrix: (Units=1/GPa)
#
#
# Indices 1 2 3 4 5 6 
#
# 1 0.014408 -0.001432 -0.000875 0.000000 0.000000 0.000000
# 2 -0.001432 0.012477 -0.004645 0.000000 0.000000 0.000000
# 3 -0.000875 -0.004645 0.018937 0.000000 0.000000 0.000000
# 4 0.000000 0.000000 0.000000 0.038514 0.000000 0.000000
# 5 0.000000 0.000000 0.000000 0.000000 0.083188 0.000000
# 6 0.000000 0.000000 0.000000 0.000000 0.000000 0.032626
#
#
# Mechanical properties :
#
#
# Convention : Reuss Voigt Hill
#
# Bulk Modulus (GPa) = 31.32940 32.90541 32.11741
# Shear Modulus (GPa) = 22.25268 25.76179 24.00723
#
# Velocity S-wave (km/s) = 3.14716 3.38622 3.26888
# Velocity P-wave (km/s) = 5.21064 5.47127 5.34255
#
# Compressibility (1/GPa) = 0.03191890
#
# Stress axis : x y z
#
# Youngs Moduli (GPa) = 69.40568 80.14758 52.80723
#
# Poissons Ratio (x) = 0.11474 0.04619
# Poissons Ratio (y) = 0.09936 0.24531
# Poissons Ratio (z) = 0.06070 0.37231
#
# Static dielectric constant tensor:
#      x y z
#    x 1.821530 0.000000 0.000000 
#    y 0.000000 1.840810 0.000000 
#    z 0.000000 0.000000 1.864270 
# 
# From -- ./inp_files/47313.got.cif
#   From: 2010.05.17/outbox.cif.g08.bks.cpg/sg22_24_cif.got.tgz:47313.got - 2010.06.03 23:40:54.
