data_PCOD9328392
_publ_section_title
;
Structure prediction by ZEFSAII (Michael W. Deem and Ramdas Pophale) SiO2 
 PCOD9328392
Probable space group: F 2 2 2
;
_chemical_formula_sum "Si O2"
_cell_formula_units_Z 52
_cell_length_a 5.287660
_cell_length_b 19.178676
_cell_length_c 23.782582
_cell_angle_alpha 90.000000
_cell_angle_beta 90.000000
_cell_angle_gamma 90.000000
_cell_volume 2411.799202
_symmetry_space_group_name_H-M "F 2 2 2"
_symmetry_group_IT_number 22
_symmetry_cell_setting 'orthorhombic'
loop_
_space_group_symop_operation_xyz
x,y,z
-x,-y,z
x,-y,-z
-x,y,-z
x,1/2+y,1/2+z
-x,1/2-y,1/2+z
x,1/2-y,1/2-z
-x,1/2+y,1/2-z
1/2+x,y,1/2+z
1/2-x,-y,1/2+z
1/2+x,-y,1/2-z
1/2-x,y,1/2-z
1/2+x,1/2+y,z
1/2-x,1/2-y,z
1/2+x,1/2-y,-z
1/2-x,1/2+y,-z
loop_
_atom_site_type_symbol
_atom_site_label
_atom_site_fract_x
_atom_site_fract_y
_atom_site_fract_z
Si Si1 0.720533 0.831098 0.373911
Si Si2 0.000000 0.000000 0.500000
Si Si3 0.731157 0.100794 0.088242
Si Si4 0.070554 0.924805 0.204752
O O1 0.750000 0.750000 0.361385
O O2 0.479146 0.850146 0.413525
O O3 0.655570 0.876261 0.317919
O O4 0.976264 0.856041 0.402839
O O5 0.821023 0.047766 0.461492
O O6 0.777284 0.060140 0.146927
O O7 0.250000 0.888062 0.250000
O O8 0.000000 0.000000 0.228354
#
# Coordination Sequence:
#
# PCOD9328392 Si02
#       4
#    16   4  16  16
#     4  10  23  47  70 102 144 187 242 291 369 437
#     4  12  24  46  72 114 144 182 262 296 376 410
#     4  10  25  41  71 103 138 192 231 306 351 429
#     4  10  24  39  70 104 142 185 244 298 360 418
#
# _framework density 21.560666000000001
#
# number of rings (size 3 to 8) (size 9 to 14) (size 15 to 20)
#    1.846    0.000    0.000    2.769    6.462    2.462 
#    0.000    7.692    0.000    0.000    0.000    0.000 
#    0.000    0.000    0.000    0.000    0.000    0.000 
#
# Total GULP energy -72505.547791 kJ/mol
# GULP energy per Si atom -5577.349830 kJ/mol
# Density = 2.151159 g / cm^3
# Si number density = 21.560666 Si / 1000 Ang^3
#
#
#
# Elastic Constant Matrix: (Units=GPa)
#
#
# Indices 1 2 3 4 5 6 
#
# 1 152.9536 41.9119 4.7933 0.0000 0.0000 0.0000
# 2 41.9119 110.7555 0.8751 0.0000 0.0000 0.0000
# 3 4.7933 0.8751 51.9432 0.0000 0.0000 0.0000
# 4 0.0000 0.0000 0.0000 18.1578 0.0000 0.0000
# 5 0.0000 0.0000 0.0000 0.0000 14.1654 0.0000
# 6 0.0000 0.0000 0.0000 0.0000 0.0000 21.3360
#
#
#
# Elastic Compliance Matrix: (Units=1/GPa)
#
#
# Indices 1 2 3 4 5 6 
#
# 1 0.007315 -0.002763 -0.000628 0.000000 0.000000 0.000000
# 2 -0.002763 0.010074 0.000085 0.000000 0.000000 0.000000
# 3 -0.000628 0.000085 0.019308 0.000000 0.000000 0.000000
# 4 0.000000 0.000000 0.000000 0.055073 0.000000 0.000000
# 5 0.000000 0.000000 0.000000 0.000000 0.070595 0.000000
# 6 0.000000 0.000000 0.000000 0.000000 0.000000 0.046869
#
#
# Mechanical properties :
#
#
# Convention : Reuss Voigt Hill
#
# Bulk Modulus (GPa) = 33.23983 45.64589 39.44286
# Shear Modulus (GPa) = 22.13623 28.60331 25.36977
#
# Velocity S-wave (km/s) = 3.20768 3.64626 3.43398
# Velocity P-wave (km/s) = 5.40086 6.24050 5.83580
#
# Compressibility (1/GPa) = 0.03008439
#
# Stress axis : x y z
#
# Youngs Moduli (GPa) = 136.70994 99.26721 51.79105
#
# Poissons Ratio (x) = 0.27428 0.03255
# Poissons Ratio (y) = 0.37774 -0.00442
# Poissons Ratio (z) = 0.08592 -0.00846
#
# Static dielectric constant tensor:
#      x y z
#    x 1.830500 0.000000 0.000000 
#    y 0.000000 1.742840 0.000000 
#    z 0.000000 0.000000 1.838760 
# 
# From -- ./inp_files/34050.got.cif
#   From: 2010.05.17/outbox.cif.g08.bks.cpg/sg22_18_cif.got.tgz:34050.got - 2010.06.03 23:40:54.
