data_PCOD9328188
_publ_section_title
;
Structure prediction by ZEFSAII (Michael W. Deem and Ramdas Pophale) SiO2 
 PCOD9328188
Probable space group: F 2 2 2
;
_chemical_formula_sum "Si O2"
_cell_formula_units_Z 60
_cell_length_a 18.753257
_cell_length_b 5.589486
_cell_length_c 23.917022
_cell_angle_alpha 90.000000
_cell_angle_beta 90.000000
_cell_angle_gamma 90.000000
_cell_volume 2507.007776
_symmetry_space_group_name_H-M "F 2 2 2"
_symmetry_group_IT_number 22
_symmetry_cell_setting 'orthorhombic'
loop_
_space_group_symop_operation_xyz
x,y,z
-x,-y,z
x,-y,-z
-x,y,-z
x,1/2+y,1/2+z
-x,1/2-y,1/2+z
x,1/2-y,1/2-z
-x,1/2+y,1/2-z
1/2+x,y,1/2+z
1/2-x,-y,1/2+z
1/2+x,-y,1/2-z
1/2-x,y,1/2-z
1/2+x,1/2+y,z
1/2-x,1/2-y,z
1/2+x,1/2-y,-z
1/2-x,1/2+y,-z
loop_
_atom_site_type_symbol
_atom_site_label
_atom_site_fract_x
_atom_site_fract_y
_atom_site_fract_z
Si Si1 0.795733 0.500000 0.000000
Si Si2 0.776114 0.495132 0.314727
Si Si3 0.000000 0.500000 0.500000
Si Si4 0.575004 0.872819 0.074879
Si Si5 0.068627 0.149139 0.188120
O O1 0.750000 0.250000 0.000928
O O2 0.852983 0.485819 0.949017
O O3 0.750000 0.497314 0.250000
O O4 0.750000 0.750000 0.339010
O O5 0.860886 0.490939 0.313099
O O6 0.750000 0.250000 0.341804
O O7 0.943554 0.370661 0.541814
O O8 0.580525 0.847446 0.141220
O O9 0.500000 0.000000 0.062953
O O10 0.059369 0.250000 0.250000
O O11 0.000000 0.000000 0.171983
#
# Coordination Sequence:
#
# PCOD9328188 Si02
#       5
#     8  16   4  16  16
#     4  12  28  52  85 127 162 204 280 344 396 488
#     4  10  22  46  71  96 150 211 244 304 391 462
#     4  12  20  52  80 108 148 214 282 312 422 462
#     4  12  26  50  84 111 159 217 262 340 407 477
#     4  12  27  46  74 122 155 205 273 331 390 487
#
# _framework density 23.932915999999999
#
# number of rings (size 3 to 8) (size 9 to 14) (size 15 to 20)
#    0.000    0.533    6.667    1.600    3.733    3.200 
#    0.000    6.667    0.000    0.000    0.000    0.000 
#    0.000    0.000    0.000    0.000    0.000    0.000 
#
# Total GULP energy -83852.408985 kJ/mol
# GULP energy per Si atom -5590.160599 kJ/mol
# Density = 2.387844 g / cm^3
# Si number density = 23.932916 Si / 1000 Ang^3
#
#
#
# Elastic Constant Matrix: (Units=GPa)
#
#
# Indices 1 2 3 4 5 6 
#
# 1 209.0452 63.9623 23.5155 0.0000 -0.0012 0.0013
# 2 63.9623 133.9072 21.5887 0.0001 -0.0042 0.0024
# 3 23.5155 21.5887 145.3950 -0.0001 0.0000 0.0002
# 4 0.0000 0.0001 -0.0001 35.8778 -0.0002 0.0005
# 5 -0.0012 -0.0042 0.0000 -0.0002 -23.8095 0.0019
# 6 0.0013 0.0024 0.0002 0.0005 0.0019 40.0413
#
#
#
# Elastic Compliance Matrix: (Units=1/GPa)
#
#
# Indices 1 2 3 4 5 6 
#
# 1 0.005641 -0.002610 -0.000525 0.000000 0.000000 0.000000
# 2 -0.002610 0.008859 -0.000893 0.000000 -0.000001 0.000000
# 3 -0.000525 -0.000893 0.007095 0.000000 0.000000 0.000000
# 4 0.000000 0.000000 0.000000 0.027872 0.000000 0.000000
# 5 0.000000 -0.000001 0.000000 0.000000 -0.042000 0.000002
# 6 0.000000 0.000000 0.000000 0.000000 0.000002 0.024974
#
#
# Mechanical properties :
#
#
# Convention : Reuss Voigt Hill
#
# Bulk Modulus (GPa) = 73.86055 78.49782 76.17919
# Shear Modulus (GPa) = 111.08407 35.70731 73.39569
#
# Velocity S-wave (km/s) = 6.82023 3.86680 5.54381
# Velocity P-wave (km/s) = 9.64102 7.26681 8.53685
#
# Compressibility (1/GPa) = 0.01353903
#
# Stress axis : x y z
#
# Youngs Moduli (GPa) = 177.26446 112.88512 140.93779
#
# Poissons Ratio (x) = 0.29463 0.07397
# Poissons Ratio (y) = 0.46266 0.12589
# Poissons Ratio (z) = 0.09304 0.10083
#
# Static dielectric constant tensor:
#      x y z
#    x 1.876700 0.000000 0.000000 
#    y 0.000000 2.202600 0.000000 
#    z 0.000000 0.000000 1.964650 
# 
# From -- ./inp_files/53365.got.cif
#   From: 2010.05.17/outbox.cif.g08.bks.cpg/sg22_27_cif.got.tgz:53365.got - 2010.06.03 23:40:54.
