data_PCOD9328237
_publ_section_title
;
Structure prediction by ZEFSAII (Michael W. Deem and Ramdas Pophale) SiO2 
 PCOD9328237
Probable space group: F 2 2 2
;
_chemical_formula_sum "Si O2"
_cell_formula_units_Z 88
_cell_length_a 27.445886
_cell_length_b 30.676226
_cell_length_c 5.499088
_cell_angle_alpha 90.000000
_cell_angle_beta 90.000000
_cell_angle_gamma 90.000000
_cell_volume 4629.881264
_symmetry_space_group_name_H-M "F 2 2 2"
_symmetry_group_IT_number 22
_symmetry_cell_setting 'orthorhombic'
loop_
_space_group_symop_operation_xyz
x,y,z
-x,-y,z
x,-y,-z
-x,y,-z
x,1/2+y,1/2+z
-x,1/2-y,1/2+z
x,1/2-y,1/2-z
-x,1/2+y,1/2-z
1/2+x,y,1/2+z
1/2-x,-y,1/2+z
1/2+x,-y,1/2-z
1/2-x,y,1/2-z
1/2+x,1/2+y,z
1/2-x,1/2-y,z
1/2+x,1/2-y,-z
1/2-x,1/2+y,-z
loop_
_atom_site_type_symbol
_atom_site_label
_atom_site_fract_x
_atom_site_fract_y
_atom_site_fract_z
Si Si1 0.699088 0.546574 0.365099
Si Si2 0.912541 0.346832 0.503395
Si Si3 0.000000 0.777372 0.000000
Si Si4 0.125696 0.380391 0.998081
Si Si5 0.500000 0.914967 0.500000
Si Si6 0.556804 0.455112 0.364858
Si Si7 0.127465 0.500000 0.500000
O O1 0.708390 0.500000 0.500000
O O2 0.750000 0.560892 0.250000
O O3 0.672666 0.587027 0.501130
O O4 0.660970 0.530628 0.163842
O O5 0.949644 0.305667 0.503643
O O6 0.881746 0.352818 0.252213
O O7 0.952525 0.385416 0.501857
O O8 0.880835 0.352852 0.751149
O O9 0.000618 0.750000 0.250000
O O10 0.080480 0.414192 0.996854
O O11 0.506031 0.943909 0.738223
O O12 0.557619 0.500000 0.500000
O O13 0.594116 0.466994 0.147349
#
# Coordination Sequence:
#
# PCOD9328237 Si02
#       7
#    16  16   8  16   8  16   8
#     4  12  23  34  56  79 109 160 223 281 317 352
#     4  10  23  40  59  84 117 153 184 230 301 363
#     4  11  22  42  71 100 127 150 191 232 283 360
#     4  11  21  40  56  74 117 157 195 250 314 349
#     4   9  22  37  43  70 102 142 196 240 277 334
#     4  11  22  35  49  65 102 152 211 258 299 336
#     4  12  20  39  44  70 102 144 214 273 326 340
#
# _framework density 19.006967
#
# number of rings (size 3 to 8) (size 9 to 14) (size 15 to 20)
#    0.000    1.091    4.545    3.273    0.000    6.182 
#    3.273    0.000    0.000    0.000    0.000    0.000 
#    0.000   10.909    0.000    0.000    0.000    0.000 
#
# Total GULP energy -122772.900805 kJ/mol
# GULP energy per Si atom -5580.586400 kJ/mol
# Density = 1.896371 g / cm^3
# Si number density = 19.006967 Si / 1000 Ang^3
#
#
#
# Elastic Constant Matrix: (Units=GPa)
#
#
# Indices 1 2 3 4 5 6 
#
# 1 83.3599 22.9497 29.6130 -0.0683 0.1154 0.0336
# 2 22.9497 83.0091 52.6435 -0.0497 -0.0072 -0.0126
# 3 29.6130 52.6435 128.3391 -0.1516 0.0897 -0.1659
# 4 -0.0683 -0.0497 -0.1516 30.7326 0.0471 -0.0791
# 5 0.1154 -0.0072 0.0897 0.0471 29.1258 0.0113
# 6 0.0336 -0.0126 -0.1659 -0.0791 0.0113 20.6887
#
#
#
# Elastic Compliance Matrix: (Units=1/GPa)
#
#
# Indices 1 2 3 4 5 6 
#
# 1 0.013400 -0.002357 -0.002125 0.000015 -0.000047 -0.000040
# 2 -0.002357 0.016697 -0.006305 -0.000010 0.000033 -0.000037
# 3 -0.002125 -0.006305 0.010869 0.000039 -0.000027 0.000087
# 4 0.000015 -0.000010 0.000039 0.032539 -0.000053 0.000125
# 5 -0.000047 0.000033 -0.000027 -0.000053 0.034334 -0.000019
# 6 -0.000040 -0.000037 0.000087 0.000125 -0.000019 0.048337
#
#
# Mechanical properties :
#
#
# Convention : Reuss Voigt Hill
#
# Bulk Modulus (GPa) = 51.56961 56.12450 53.84705
# Shear Modulus (GPa) = 27.14218 28.74287 27.94252
#
# Velocity S-wave (km/s) = 3.78300 3.89296 3.83837
# Velocity P-wave (km/s) = 6.80238 7.05686 6.93079
#
# Compressibility (1/GPa) = 0.01939127
#
# Stress axis : x y z
#
# Youngs Moduli (GPa) = 74.62622 59.89010 92.00696
#
# Poissons Ratio (x) = 0.14116 0.19552
# Poissons Ratio (y) = 0.17590 0.58013
# Poissons Ratio (z) = 0.15859 0.37762
#
# Static dielectric constant tensor:
#      x y z
#    x 1.698360 -0.000070 0.000130 
#    y -0.000070 1.676470 -0.000140 
#    z 0.000130 -0.000140 1.826470 
# 
# From -- ./inp_files/6575.got.cif
#   From: 2010.05.17/outbox.cif.g08.bks.cpg/sg22_4_cif.got.tgz:6575.got - 2010.06.03 23:40:54.
