data_PCOD9328106
_publ_section_title
;
Structure prediction by ZEFSAII (Michael W. Deem and Ramdas Pophale) SiO2 
 PCOD9328106
Probable space group: F 2 2 2
;
_chemical_formula_sum "Si O2"
_cell_formula_units_Z 60
_cell_length_a 8.923924
_cell_length_b 23.619055
_cell_length_c 13.005786
_cell_angle_alpha 90.000000
_cell_angle_beta 90.000000
_cell_angle_gamma 90.000000
_cell_volume 2741.290015
_symmetry_space_group_name_H-M "F 2 2 2"
_symmetry_group_IT_number 22
_symmetry_cell_setting 'orthorhombic'
loop_
_space_group_symop_operation_xyz
x,y,z
-x,-y,z
x,-y,-z
-x,y,-z
x,1/2+y,1/2+z
-x,1/2-y,1/2+z
x,1/2-y,1/2-z
-x,1/2+y,1/2-z
1/2+x,y,1/2+z
1/2-x,-y,1/2+z
1/2+x,-y,1/2-z
1/2-x,y,1/2-z
1/2+x,1/2+y,z
1/2-x,1/2-y,z
1/2+x,1/2-y,-z
1/2-x,1/2+y,-z
loop_
_atom_site_type_symbol
_atom_site_label
_atom_site_fract_x
_atom_site_fract_y
_atom_site_fract_z
Si Si1 0.750000 0.250000 0.250000
Si Si2 0.621812 0.408043 0.414746
Si Si3 0.250000 0.505037 0.250000
Si Si4 0.086569 0.107715 0.232376
Si Si5 0.107264 0.670814 0.419164
O O1 0.845140 0.288723 0.326806
O O2 0.500000 0.427225 0.500000
O O3 0.707911 0.456855 0.349078
O O4 0.521835 0.378653 0.326731
O O5 0.745044 0.363465 0.455713
O O6 0.118616 0.459390 0.268891
O O7 0.250000 0.134338 0.250000
O O8 0.005406 0.125043 0.129382
O O9 0.000000 0.701976 0.500000
#
# Coordination Sequence:
#
# PCOD9328106 Si02
#       5
#     4  16   8  16  16
#     4  12  26  56  82  94 148 168 252 316 372 448
#     4  12  23  44  73 107 154 195 243 289 349 422
#     4  10  23  40  68 102 158 202 237 278 338 412
#     4  10  22  43  69 103 156 185 239 296 339 421
#     4  12  26  51  75 108 141 187 237 310 376 427
#
# _framework density 21.887505000000001
#
# number of rings (size 3 to 8) (size 9 to 14) (size 15 to 20)
#    0.800    0.000    5.333    2.400    0.000    3.200 
#    4.800    1.333    0.000    0.000    0.000    0.000 
#    0.000    0.000    0.000    0.000    0.000    0.000 
#
# Total GULP energy -83652.273588 kJ/mol
# GULP energy per Si atom -5576.818239 kJ/mol
# Density = 2.183769 g / cm^3
# Si number density = 21.887505 Si / 1000 Ang^3
#
#
#
# Elastic Constant Matrix: (Units=GPa)
#
#
# Indices 1 2 3 4 5 6 
#
# 1 138.4044 32.3913 45.8068 0.0000 0.0000 0.0000
# 2 32.3913 66.8037 25.0539 0.0000 0.0000 0.0000
# 3 45.8068 25.0539 101.6089 0.0000 0.0000 0.0000
# 4 0.0000 0.0000 0.0000 1.7894 0.0000 0.0000
# 5 0.0000 0.0000 0.0000 0.0000 65.9161 0.0000
# 6 0.0000 0.0000 0.0000 0.0000 0.0000 68.4631
#
#
#
# Elastic Compliance Matrix: (Units=1/GPa)
#
#
# Indices 1 2 3 4 5 6 
#
# 1 0.009057 -0.003152 -0.003306 0.000000 0.000000 0.000000
# 2 -0.003152 0.017591 -0.002917 0.000000 0.000000 0.000000
# 3 -0.003306 -0.002917 0.012051 0.000000 0.000000 0.000000
# 4 0.000000 0.000000 0.000000 0.558850 0.000000 0.000000
# 5 0.000000 0.000000 0.000000 0.000000 0.015171 0.000000
# 6 0.000000 0.000000 0.000000 0.000000 0.000000 0.014606
#
#
# Mechanical properties :
#
#
# Convention : Reuss Voigt Hill
#
# Bulk Modulus (GPa) = 50.12303 57.03565 53.57934
# Shear Modulus (GPa) = 7.66019 40.80473 24.23246
#
# Velocity S-wave (km/s) = 1.87281 4.32243 3.33098
# Velocity P-wave (km/s) = 5.25610 7.14327 6.27108
#
# Compressibility (1/GPa) = 0.01995091
#
# Stress axis : x y z
#
# Youngs Moduli (GPa) = 110.41289 56.84645 82.97949
#
# Poissons Ratio (x) = 0.17916 0.27432
# Poissons Ratio (y) = 0.34798 0.24203
# Poissons Ratio (z) = 0.36501 0.16580
#
# Static dielectric constant tensor:
#      x y z
#    x 1.874600 0.000000 0.000000 
#    y 0.000000 1.795160 0.000000 
#    z 0.000000 0.000000 1.850380 
# 
# From -- ./inp_files/16818.got.cif
#   From: 2010.05.17/outbox.cif.g08.bks.cpg/sg22_9_cif.got.tgz:16818.got - 2010.06.03 23:40:54.
