data_PCOD9328945
_publ_section_title
;
Structure prediction by ZEFSAII (Michael W. Deem and Ramdas Pophale) SiO2 
 PCOD9328945
Probable space group: F 2 2 2
;
_chemical_formula_sum "Si O2"
_cell_formula_units_Z 88
_cell_length_a 27.540472
_cell_length_b 6.414017
_cell_length_c 24.961857
_cell_angle_alpha 90.000000
_cell_angle_beta 90.000000
_cell_angle_gamma 90.000000
_cell_volume 4409.388618
_symmetry_space_group_name_H-M "F 2 2 2"
_symmetry_group_IT_number 22
_symmetry_cell_setting 'orthorhombic'
loop_
_space_group_symop_operation_xyz
x,y,z
-x,-y,z
x,-y,-z
-x,y,-z
x,1/2+y,1/2+z
-x,1/2-y,1/2+z
x,1/2-y,1/2-z
-x,1/2+y,1/2-z
1/2+x,y,1/2+z
1/2-x,-y,1/2+z
1/2+x,-y,1/2-z
1/2-x,y,1/2-z
1/2+x,1/2+y,z
1/2-x,1/2-y,z
1/2+x,1/2-y,-z
1/2-x,1/2+y,-z
loop_
_atom_site_type_symbol
_atom_site_label
_atom_site_fract_x
_atom_site_fract_y
_atom_site_fract_z
Si Si1 0.390085 0.582350 0.615737
Si Si2 0.297141 0.114764 0.364928
Si Si3 0.875688 0.500000 0.000000
Si Si4 0.365556 0.179474 0.689619
Si Si5 0.953594 0.855618 0.191042
Si Si6 0.300192 0.326162 0.964950
O O1 0.342072 0.731874 0.619814
O O2 0.404128 0.581797 0.552202
O O3 0.375298 0.366007 0.646745
O O4 0.435094 0.679138 0.649535
O O5 0.250000 0.250000 0.352137
O O6 0.317893 0.958094 0.321156
O O7 0.285606 0.951547 0.412426
O O8 0.838212 0.643610 0.966223
O O9 0.362662 0.250000 0.750000
O O10 0.409951 0.019787 0.688630
O O11 0.959074 0.750000 0.250000
O O12 0.000000 0.000000 0.178571
O O13 0.250000 0.250000 0.991080
O O14 0.325906 0.500000 0.000000
#
# Coordination Sequence:
#
# PCOD9328945 Si02
#       6
#    16  16   8  16  16  16
#     4  11  24  42  65 101 136 176 225 275 340 406
#     4  11  24  39  61  93 134 181 238 283 331 396
#     4  12  22  38  62  93 134 190 216 268 343 404
#     4  11  23  43  68  94 137 176 221 285 341 412
#     4  11  24  43  76 109 126 159 222 289 350 410
#     4  12  21  34  58  91 123 170 242 290 317 367
#
# _framework density 19.957415999999998
#
# number of rings (size 3 to 8) (size 9 to 14) (size 15 to 20)
#    0.000    0.727    6.364    2.182    0.000    0.000 
#    0.000    2.727    0.000    3.273    0.000    0.000 
#    0.000    0.000    0.000    0.000    0.000    0.000 
#
# Total GULP energy -122511.203304 kJ/mol
# GULP energy per Si atom -5568.691059 kJ/mol
# Density = 1.991199 g / cm^3
# Si number density = 19.957416 Si / 1000 Ang^3
#
#
#
# Elastic Constant Matrix: (Units=GPa)
#
#
# Indices 1 2 3 4 5 6 
#
# 1 82.1039 29.9790 33.2701 0.0001 0.0003 -0.0010
# 2 29.9790 95.1388 35.4873 0.0000 0.0010 -0.0007
# 3 33.2701 35.4873 123.8996 -0.0001 0.0001 0.0002
# 4 0.0001 0.0000 -0.0001 23.8813 0.0003 -0.0001
# 5 0.0003 0.0010 0.0001 0.0003 0.3711 -0.0004
# 6 -0.0010 -0.0007 0.0002 -0.0001 -0.0004 22.4368
#
#
#
# Elastic Compliance Matrix: (Units=1/GPa)
#
#
# Indices 1 2 3 4 5 6 
#
# 1 0.014652 -0.003526 -0.002925 0.000000 0.000000 0.000001
# 2 -0.003526 0.012617 -0.002667 0.000000 -0.000030 0.000000
# 3 -0.002925 -0.002667 0.009620 0.000000 0.000006 0.000000
# 4 0.000000 0.000000 0.000000 0.041874 -0.000036 0.000000
# 5 0.000000 -0.000030 0.000006 -0.000036 2.694915 0.000044
# 6 0.000001 0.000000 0.000000 0.000000 0.000044 0.044570
#
#
# Mechanical properties :
#
#
# Convention : Reuss Voigt Hill
#
# Bulk Modulus (GPa) = 53.60724 55.40169 54.50447
# Shear Modulus (GPa) = 1.75889 22.83157 12.29523
#
# Velocity S-wave (km/s) = 0.93981 3.38600 2.48477
# Velocity P-wave (km/s) = 5.30064 6.56558 5.96673
#
# Compressibility (1/GPa) = 0.01865420
#
# Stress axis : x y z
#
# Youngs Moduli (GPa) = 68.24870 79.25912 103.94800
#
# Poissons Ratio (x) = 0.27948 0.30400
# Poissons Ratio (y) = 0.24066 0.27721
# Poissons Ratio (z) = 0.19960 0.21137
#
# Static dielectric constant tensor:
#      x y z
#    x 1.688760 0.000000 0.000000 
#    y 0.000000 1.879830 0.000000 
#    z 0.000000 0.000000 1.792460 
# 
# From -- ./inp_files/4878.got.cif
#   From: 2010.05.17/outbox.cif.g08.bks.cpg/sg22_3_cif.got.tgz:4878.got - 2010.06.03 23:40:54.
