data_PCOD9328433
_publ_section_title
;
Structure prediction by ZEFSAII (Michael W. Deem and Ramdas Pophale) SiO2 
 PCOD9328433
Probable space group: F 2 2 2
;
_chemical_formula_sum "Si O2"
_cell_formula_units_Z 96
_cell_length_a 20.622525
_cell_length_b 13.989492
_cell_length_c 16.746522
_cell_angle_alpha 90.000000
_cell_angle_beta 90.000000
_cell_angle_gamma 90.000000
_cell_volume 4831.348964
_symmetry_space_group_name_H-M "F 2 2 2"
_symmetry_group_IT_number 22
_symmetry_cell_setting 'orthorhombic'
loop_
_space_group_symop_operation_xyz
x,y,z
-x,-y,z
x,-y,-z
-x,y,-z
x,1/2+y,1/2+z
-x,1/2-y,1/2+z
x,1/2-y,1/2-z
-x,1/2+y,1/2-z
1/2+x,y,1/2+z
1/2-x,-y,1/2+z
1/2+x,-y,1/2-z
1/2-x,y,1/2-z
1/2+x,1/2+y,z
1/2-x,1/2-y,z
1/2+x,1/2-y,-z
1/2-x,1/2+y,-z
loop_
_atom_site_type_symbol
_atom_site_label
_atom_site_fract_x
_atom_site_fract_y
_atom_site_fract_z
Si Si1 0.601648 0.414835 0.372080
Si Si2 0.846831 0.125097 0.647484
Si Si3 0.250000 0.750000 0.750000
Si Si4 0.826189 0.274191 0.017513
Si Si5 0.055971 0.250000 0.250000
Si Si6 0.425420 0.607790 0.028111
Si Si7 0.462862 0.600557 0.202151
Si Si8 0.500000 0.000000 0.000000
O O1 0.641710 0.511878 0.353253
O O2 0.646136 0.330629 0.406136
O O3 0.569439 0.386734 0.288175
O O4 0.546863 0.440487 0.439517
O O5 0.788539 0.176644 0.693844
O O6 0.838749 0.155682 0.556538
O O7 0.905697 0.175970 0.694325
O O8 0.750000 0.250000 0.023971
O O9 0.871537 0.182410 0.999760
O O10 0.013913 0.314895 0.307798
O O11 0.419507 0.604973 0.124040
O O12 0.413284 0.500000 0.000000
O O13 0.500000 0.630996 0.000000
O O14 0.500000 0.500000 0.202167
#
# Coordination Sequence:
#
# PCOD9328433 Si02
#       8
#    16  16   4  16   8  16  16   4
#     4  12  25  42  70 104 139 180 233 291 358 423
#     4  11  22  43  67 100 130 179 239 289 349 415
#     4  10  24  40  72  96 126 182 242 296 350 410
#     4  12  27  47  67  97 145 193 233 289 357 436
#     4  11  22  37  68 100 143 174 219 298 356 423
#     4  11  25  44  72 104 135 185 240 291 352 421
#     4  12  22  42  65 106 140 174 225 289 363 417
#     4  12  20  36  68 108 128 176 226 284 352 408
#
# _framework density 19.870225999999999
#
# number of rings (size 3 to 8) (size 9 to 14) (size 15 to 20)
#    0.000    0.500    6.667    2.000    1.167    1.333 
#    3.000    0.833    0.000    0.000    0.000    0.000 
#    0.000    0.000    0.000    0.000    0.000    0.000 
#
# Total GULP energy -134021.364171 kJ/mol
# GULP energy per Si atom -5584.223507 kJ/mol
# Density = 1.982500 g / cm^3
# Si number density = 19.870226 Si / 1000 Ang^3
#
#
#
# Elastic Constant Matrix: (Units=GPa)
#
#
# Indices 1 2 3 4 5 6 
#
# 1 83.8387 46.4694 8.0170 0.0000 0.0000 0.0000
# 2 46.4694 94.6035 -16.4595 0.0000 0.0000 0.0000
# 3 8.0170 -16.4595 85.2765 0.0000 0.0000 0.0000
# 4 0.0000 0.0000 0.0000 34.8673 0.0000 0.0000
# 5 0.0000 0.0000 0.0000 0.0000 -472.0924 0.0000
# 6 0.0000 0.0000 0.0000 0.0000 0.0000 6.4914
#
#
#
# Elastic Compliance Matrix: (Units=1/GPa)
#
#
# Indices 1 2 3 4 5 6 
#
# 1 0.017281 -0.009076 -0.003376 0.000000 0.000000 0.000000
# 2 -0.009076 0.015704 0.003884 0.000000 0.000000 0.000000
# 3 -0.003376 0.003884 0.012794 0.000000 0.000000 0.000000
# 4 0.000000 0.000000 0.000000 0.028680 0.000000 0.000000
# 5 0.000000 0.000000 0.000000 0.000000 -0.002118 0.000000
# 6 0.000000 0.000000 0.000000 0.000000 0.000000 0.154050
#
#
# Mechanical properties :
#
#
# Convention : Reuss Voigt Hill
#
# Bulk Modulus (GPa) = 34.91219 37.75250 36.33235
# Shear Modulus (GPa) = 19.75703 -71.10062 -25.67180
#
# Velocity S-wave (km/s) = 3.15668 -5.98834 -3.59830
# Velocity P-wave (km/s) = 5.55827 5.36403 1.02996
#
# Compressibility (1/GPa) = 0.02864329
#
# Stress axis : x y z
#
# Youngs Moduli (GPa) = 57.86688 63.67661 78.16334
#
# Poissons Ratio (x) = 0.57792 0.26391
# Poissons Ratio (y) = 0.52519 -0.30362
# Poissons Ratio (z) = 0.19538 -0.24735
#
# Static dielectric constant tensor:
#      x y z
#    x 1.748970 0.000000 0.000000 
#    y 0.000000 1.723850 0.000000 
#    z 0.000000 0.000000 1.719180 
# 
# From -- ./inp_files/31588.got.cif
#   From: 2010.05.17/outbox.cif.g08.bks.cpg/sg22_16_cif.got.tgz:31588.got - 2010.06.03 23:40:54.
