data_PCOD9328504
_publ_section_title
;
Structure prediction by ZEFSAII (Michael W. Deem and Ramdas Pophale) SiO2 
 PCOD9328504
Probable space group: F 2 2 2
;
_chemical_formula_sum "Si O2"
_cell_formula_units_Z 60
_cell_length_a 10.870889
_cell_length_b 7.686953
_cell_length_c 33.435115
_cell_angle_alpha 90.000000
_cell_angle_beta 90.000000
_cell_angle_gamma 90.000000
_cell_volume 2793.972378
_symmetry_space_group_name_H-M "F 2 2 2"
_symmetry_group_IT_number 22
_symmetry_cell_setting 'orthorhombic'
loop_
_space_group_symop_operation_xyz
x,y,z
-x,-y,z
x,-y,-z
-x,y,-z
x,1/2+y,1/2+z
-x,1/2-y,1/2+z
x,1/2-y,1/2-z
-x,1/2+y,1/2-z
1/2+x,y,1/2+z
1/2-x,-y,1/2+z
1/2+x,-y,1/2-z
1/2-x,y,1/2-z
1/2+x,1/2+y,z
1/2-x,1/2-y,z
1/2+x,1/2-y,-z
1/2-x,1/2+y,-z
loop_
_atom_site_type_symbol
_atom_site_label
_atom_site_fract_x
_atom_site_fract_y
_atom_site_fract_z
Si Si1 0.500000 0.000000 0.887485
Si Si2 0.500000 0.500000 0.000000
Si Si3 0.114482 0.328526 0.574986
Si Si4 0.231142 0.543250 0.643580
Si Si5 0.862476 0.564144 0.728239
O O1 0.515794 0.820585 0.912483
O O2 0.373366 0.010790 0.862891
O O3 0.580784 0.608416 0.968965
O O4 0.250000 0.250000 0.573497
O O5 0.141686 0.484695 0.606927
O O6 0.250000 0.750000 0.648453
O O7 0.174205 0.447624 0.681914
O O8 0.866111 0.750000 0.750000
O O9 0.750000 0.465037 0.750000
O O10 0.000000 0.500000 0.732848
#
# Coordination Sequence:
#
# PCOD9328504 Si02
#       5
#     8   4  16  16  16
#     4  10  24  45  74 101 142 190 239 302 370 441
#     4  12  24  42  72 100 152 178 246 296 354 438
#     4  10  25  44  68 107 141 191 239 305 365 441
#     4  11  26  44  75 102 140 190 251 298 377 441
#     4  11  30  46  69 103 144 187 242 307 373 442
#
# _framework density 21.474799000000001
#
# number of rings (size 3 to 8) (size 9 to 14) (size 15 to 20)
#    0.000    1.333    0.000    1.600   22.400    5.867 
#    0.000    0.000    0.000    0.000    0.000    0.000 
#    0.000    0.000    0.000    0.000    0.000    0.000 
#
# Total GULP energy -83611.215402 kJ/mol
# GULP energy per Si atom -5574.081027 kJ/mol
# Density = 2.142592 g / cm^3
# Si number density = 21.474799 Si / 1000 Ang^3
#
#
#
# Elastic Constant Matrix: (Units=GPa)
#
#
# Indices 1 2 3 4 5 6 
#
# 1 181.7361 51.6291 59.2989 0.0000 0.0000 0.0000
# 2 51.6291 144.0636 77.5871 0.0000 0.0000 0.0000
# 3 59.2989 77.5871 157.9256 0.0000 0.0000 0.0000
# 4 0.0000 0.0000 0.0000 26.1603 0.0000 0.0000
# 5 0.0000 0.0000 0.0000 0.0000 42.4765 0.0000
# 6 0.0000 0.0000 0.0000 0.0000 0.0000 33.1719
#
#
#
# Elastic Compliance Matrix: (Units=1/GPa)
#
#
# Indices 1 2 3 4 5 6 
#
# 1 0.006464 -0.001373 -0.001753 0.000000 0.000000 0.000000
# 2 -0.001373 0.009730 -0.004265 0.000000 0.000000 0.000000
# 3 -0.001753 -0.004265 0.009086 0.000000 0.000000 0.000000
# 4 0.000000 0.000000 0.000000 0.038226 0.000000 0.000000
# 5 0.000000 0.000000 0.000000 0.000000 0.023542 0.000000
# 6 0.000000 0.000000 0.000000 0.000000 0.000000 0.030146
#
#
# Mechanical properties :
#
#
# Convention : Reuss Voigt Hill
#
# Bulk Modulus (GPa) = 95.24515 95.63950 95.44232
# Shear Modulus (GPa) = 36.90711 40.04244 38.47477
#
# Velocity S-wave (km/s) = 4.15013 4.32281 4.23735
# Velocity P-wave (km/s) = 8.21055 8.33954 8.27530
#
# Compressibility (1/GPa) = 0.01049922
#
# Stress axis : x y z
#
# Youngs Moduli (GPa) = 154.69343 102.77248 110.06404
#
# Poissons Ratio (x) = 0.14107 0.19294
# Poissons Ratio (y) = 0.21234 0.46942
# Poissons Ratio (z) = 0.27117 0.43832
#
# Static dielectric constant tensor:
#      x y z
#    x 1.816840 0.000000 0.000000 
#    y 0.000000 1.916380 0.000000 
#    z 0.000000 0.000000 1.759220 
# 
# From -- ./inp_files/8484.got.cif
#   From: 2010.05.17/outbox.cif.g08.bks.cpg/sg22_5_cif.got.tgz:8484.got - 2010.06.03 23:40:54.
