data_PCOD9328982
_publ_section_title
;
Structure prediction by ZEFSAII (Michael W. Deem and Ramdas Pophale) SiO2 
 PCOD9328982
Probable space group: F 2 2 2
;
_chemical_formula_sum "Si O2"
_cell_formula_units_Z 72
_cell_length_a 15.242598
_cell_length_b 14.951423
_cell_length_c 13.181785
_cell_angle_alpha 90.000000
_cell_angle_beta 90.000000
_cell_angle_gamma 90.000000
_cell_volume 3004.109428
_symmetry_space_group_name_H-M "F 2 2 2"
_symmetry_group_IT_number 22
_symmetry_cell_setting 'orthorhombic'
loop_
_space_group_symop_operation_xyz
x,y,z
-x,-y,z
x,-y,-z
-x,y,-z
x,1/2+y,1/2+z
-x,1/2-y,1/2+z
x,1/2-y,1/2-z
-x,1/2+y,1/2-z
1/2+x,y,1/2+z
1/2-x,-y,1/2+z
1/2+x,-y,1/2-z
1/2-x,y,1/2-z
1/2+x,1/2+y,z
1/2-x,1/2-y,z
1/2+x,1/2-y,-z
1/2-x,1/2+y,-z
loop_
_atom_site_type_symbol
_atom_site_label
_atom_site_fract_x
_atom_site_fract_y
_atom_site_fract_z
Si Si1 0.361471 0.925924 0.084414
Si Si2 0.250000 0.750000 0.005753
Si Si3 0.121323 0.181191 0.163056
Si Si4 0.926660 0.156445 0.227439
Si Si5 0.815970 0.008386 0.122437
O O1 0.435313 0.892370 0.162995
O O2 0.286350 0.979857 0.143881
O O3 0.303603 0.837040 0.051654
O O4 0.389500 0.000000 0.000000
O O5 0.171687 0.790339 0.937673
O O6 0.149927 0.250000 0.250000
O O7 0.015966 0.181150 0.169686
O O8 0.146718 0.078841 0.175695
O O9 0.879262 0.250000 0.250000
O O10 0.869930 0.093546 0.157547
O O11 0.824347 0.000000 0.000000
#
# Coordination Sequence:
#
# PCOD9328982 Si02
#       5
#    16   8  16  16  16
#     4  11  24  45  77 114 150 205 256 317 381 459
#     4  12  23  48  81 110 150 200 266 313 373 466
#     4  11  26  45  73 111 150 195 255 318 378 450
#     4  11  26  46  71 111 159 196 253 318 390 447
#     4  11  23  48  76 110 150 202 262 310 379 464
#
# _framework density 23.967168999999998
#
# number of rings (size 3 to 8) (size 9 to 14) (size 15 to 20)
#    0.000    0.889    4.444    3.000    3.111    4.444 
#    4.000    0.000    0.000    0.000    0.000    0.000 
#    0.000    0.000    0.000    0.000    0.000    0.000 
#
# Total GULP energy -100506.385272 kJ/mol
# GULP energy per Si atom -5583.688071 kJ/mol
# Density = 2.391262 g / cm^3
# Si number density = 23.967169 Si / 1000 Ang^3
#
#
#
# Elastic Constant Matrix: (Units=GPa)
#
#
# Indices 1 2 3 4 5 6 
#
# 1 80.7416 17.4816 31.9309 0.0000 0.0000 0.0000
# 2 17.4816 156.7660 50.7958 0.0000 0.0000 0.0000
# 3 31.9309 50.7958 96.3795 0.0000 0.0000 0.0000
# 4 0.0000 0.0000 0.0000 61.4890 0.0000 0.0000
# 5 0.0000 0.0000 0.0000 0.0000 11.5288 0.0000
# 6 0.0000 0.0000 0.0000 0.0000 0.0000 39.8228
#
#
#
# Elastic Compliance Matrix: (Units=1/GPa)
#
#
# Indices 1 2 3 4 5 6 
#
# 1 0.014253 -0.000072 -0.004684 0.000000 0.000000 0.000000
# 2 -0.000072 0.007693 -0.004031 0.000000 0.000000 0.000000
# 3 -0.004684 -0.004031 0.014052 0.000000 0.000000 0.000000
# 4 0.000000 0.000000 0.000000 0.016263 0.000000 0.000000
# 5 0.000000 0.000000 0.000000 0.000000 0.086739 0.000000
# 6 0.000000 0.000000 0.000000 0.000000 0.000000 0.025111
#
#
# Mechanical properties :
#
#
# Convention : Reuss Voigt Hill
#
# Bulk Modulus (GPa) = 54.27515 59.36708 56.82111
# Shear Modulus (GPa) = 26.62027 38.14671 32.38349
#
# Velocity S-wave (km/s) = 3.33633 3.99384 3.67980
# Velocity P-wave (km/s) = 6.12668 6.78908 6.46637
#
# Compressibility (1/GPa) = 0.01842464
#
# Stress axis : x y z
#
# Youngs Moduli (GPa) = 70.15945 129.98856 71.16421
#
# Poissons Ratio (x) = 0.00930 0.33336
# Poissons Ratio (y) = 0.00502 0.28685
# Poissons Ratio (z) = 0.32866 0.52396
#
# Static dielectric constant tensor:
#      x y z
#    x 1.899150 0.000000 0.000000 
#    y 0.000000 1.979570 0.000000 
#    z 0.000000 0.000000 1.992770 
# 
# From -- ./inp_files/30415.got.cif
#   From: 2010.05.17/outbox.cif.g08.bks.cpg/sg22_16_cif.got.tgz:30415.got - 2010.06.03 23:40:54.
