data_PCOD9328206
_publ_section_title
;
Structure prediction by ZEFSAII (Michael W. Deem and Ramdas Pophale) SiO2 
 PCOD9328206
Probable space group: F 2 2 2
;
_chemical_formula_sum "Si O2"
_cell_formula_units_Z 128
_cell_length_a 21.928069
_cell_length_b 23.655919
_cell_length_c 11.653946
_cell_angle_alpha 90.000000
_cell_angle_beta 90.000000
_cell_angle_gamma 90.000000
_cell_volume 6045.235374
_symmetry_space_group_name_H-M "F 2 2 2"
_symmetry_group_IT_number 22
_symmetry_cell_setting 'orthorhombic'
loop_
_space_group_symop_operation_xyz
x,y,z
-x,-y,z
x,-y,-z
-x,y,-z
x,1/2+y,1/2+z
-x,1/2-y,1/2+z
x,1/2-y,1/2-z
-x,1/2+y,1/2-z
1/2+x,y,1/2+z
1/2-x,-y,1/2+z
1/2+x,-y,1/2-z
1/2-x,y,1/2-z
1/2+x,1/2+y,z
1/2-x,1/2-y,z
1/2+x,1/2-y,-z
1/2-x,1/2+y,-z
loop_
_atom_site_type_symbol
_atom_site_label
_atom_site_fract_x
_atom_site_fract_y
_atom_site_fract_z
Si Si1 0.357751 0.441557 0.054112
Si Si2 0.315102 0.846062 0.204316
Si Si3 0.043493 0.693975 0.827023
Si Si4 0.419290 0.718653 0.416650
Si Si5 0.214356 0.932999 0.496299
Si Si6 0.689429 0.214142 0.643129
Si Si7 0.351398 0.889857 0.776394
Si Si8 0.615037 0.164624 0.434750
O O1 0.287710 0.429421 0.013326
O O2 0.356740 0.442986 0.191878
O O3 0.376968 0.500000 0.000000
O O4 0.399955 0.390285 0.009295
O O5 0.250000 0.825020 0.250000
O O6 0.355025 0.800412 0.135043
O O7 0.352927 0.857388 0.320038
O O8 0.303491 0.899364 0.119782
O O9 0.042368 0.750000 0.750000
O O10 0.083485 0.642041 0.781437
O O11 0.972941 0.682735 0.857339
O O12 0.075134 0.707528 0.948799
O O13 0.431416 0.785741 0.399880
O O14 0.178200 0.903913 0.601868
O O15 0.199738 0.000000 0.500000
O O16 0.661385 0.250000 0.750000
O O17 0.750000 0.250000 0.619148
O O18 0.690862 0.153358 0.704134
O O19 0.658086 0.200324 0.522699
#
# Coordination Sequence:
#
# PCOD9328206 Si02
#       8
#    16  16  16  16  16  16  16  16
#     4  10  23  40  63  97 138 178 227 289 345 410
#     4  12  25  41  63  96 141 181 222 283 357 437
#     4  11  22  44  69  98 135 178 236 286 345 427
#     4  11  25  42  66 101 139 183 229 285 360 434
#     4  11  25  42  64  97 135 185 234 281 350 416
#     4  10  23  33  59  93 137 168 212 277 337 417
#     4  11  22  40  66  95 129 177 233 284 343 411
#     4  11  23  38  58  94 134 178 218 268 348 416
#
# _framework density 21.1737
#
# number of rings (size 3 to 8) (size 9 to 14) (size 15 to 20)
#    0.000    1.125    2.500    4.125   10.500    0.500 
#    0.000    0.000    0.000    1.500    0.000    9.625 
#    0.000    0.000    0.000    0.000    0.000    0.000 
#
# Total GULP energy -178537.872245 kJ/mol
# GULP energy per Si atom -5579.308508 kJ/mol
# Density = 2.112551 g / cm^3
# Si number density = 21.173700 Si / 1000 Ang^3
#
#
#
# Elastic Constant Matrix: (Units=GPa)
#
#
# Indices 1 2 3 4 5 6 
#
# 1 67.0798 31.5605 27.3738 0.0000 0.0000 0.0000
# 2 31.5605 103.5961 32.8052 0.0000 0.0000 0.0000
# 3 27.3738 32.8052 147.4614 0.0000 0.0000 0.0000
# 4 0.0000 0.0000 0.0000 39.4959 0.0000 0.0000
# 5 0.0000 0.0000 0.0000 0.0000 25.6289 0.0000
# 6 0.0000 0.0000 0.0000 0.0000 0.0000 22.2808
#
#
#
# Elastic Compliance Matrix: (Units=1/GPa)
#
#
# Indices 1 2 3 4 5 6 
#
# 1 0.018096 -0.004786 -0.002294 0.000000 0.000000 0.000000
# 2 -0.004786 0.011650 -0.001703 0.000000 0.000000 0.000000
# 3 -0.002294 -0.001703 0.007586 0.000000 0.000000 0.000000
# 4 0.000000 0.000000 0.000000 0.025319 0.000000 0.000000
# 5 0.000000 0.000000 0.000000 0.000000 0.039018 0.000000
# 6 0.000000 0.000000 0.000000 0.000000 0.000000 0.044882
#
#
# Mechanical properties :
#
#
# Convention : Reuss Voigt Hill
#
# Bulk Modulus (GPa) = 50.59595 55.73514 53.16555
# Shear Modulus (GPa) = 29.28977 32.57430 30.93203
#
# Velocity S-wave (km/s) = 3.72332 3.92654 3.82628
# Velocity P-wave (km/s) = 6.51396 6.85105 6.68463
#
# Compressibility (1/GPa) = 0.01976443
#
# Stress axis : x y z
#
# Youngs Moduli (GPa) = 55.26133 85.83384 131.81687
#
# Poissons Ratio (x) = 0.41083 0.30244
# Poissons Ratio (y) = 0.26450 0.22453
# Poissons Ratio (z) = 0.12679 0.14620
#
# Static dielectric constant tensor:
#      x y z
#    x 1.835800 0.000000 0.000000 
#    y 0.000000 1.802520 0.000000 
#    z 0.000000 0.000000 1.795010 
# 
# From -- ./inp_files/24079.got.cif
#   From: 2010.05.17/outbox.cif.g08.bks.cpg/sg22_13_cif.got.tgz:24079.got - 2010.06.03 23:40:54.
