data_PCOD9328290
_publ_section_title
;
Structure prediction by ZEFSAII (Michael W. Deem and Ramdas Pophale) SiO2 
 PCOD9328290
Probable space group: F 2 2 2
;
_chemical_formula_sum "Si O2"
_cell_formula_units_Z 64
_cell_length_a 11.166801
_cell_length_b 11.422393
_cell_length_c 23.649169
_cell_angle_alpha 90.000000
_cell_angle_beta 90.000000
_cell_angle_gamma 90.000000
_cell_volume 3016.489098
_symmetry_space_group_name_H-M "F 2 2 2"
_symmetry_group_IT_number 22
_symmetry_cell_setting 'orthorhombic'
loop_
_space_group_symop_operation_xyz
x,y,z
-x,-y,z
x,-y,-z
-x,y,-z
x,1/2+y,1/2+z
-x,1/2-y,1/2+z
x,1/2-y,1/2-z
-x,1/2+y,1/2-z
1/2+x,y,1/2+z
1/2-x,-y,1/2+z
1/2+x,-y,1/2-z
1/2-x,y,1/2-z
1/2+x,1/2+y,z
1/2-x,1/2-y,z
1/2+x,1/2-y,-z
1/2-x,1/2+y,-z
loop_
_atom_site_type_symbol
_atom_site_label
_atom_site_fract_x
_atom_site_fract_y
_atom_site_fract_z
Si Si1 0.552969 0.623394 0.586237
Si Si2 0.663028 0.572908 0.917043
Si Si3 0.892967 0.761945 0.814014
Si Si4 0.374383 0.820112 0.538850
O O1 0.500000 0.500000 0.570323
O O2 0.696831 0.612129 0.577856
O O3 0.547215 0.655666 0.652156
O O4 0.468488 0.720305 0.557639
O O5 0.604954 0.630573 0.860415
O O6 0.641725 0.433661 0.920393
O O7 0.612596 0.623385 0.976128
O O8 0.939810 0.750000 0.750000
O O9 0.750000 0.750000 0.809091
O O10 0.250000 0.750000 0.538847
#
# Coordination Sequence:
#
# PCOD9328290 Si02
#       4
#    16  16  16  16
#     4  11  22  42  68  95 130 180 217 269 345 399
#     4  10  23  42  65  98 135 173 223 278 337 407
#     4   9  20  42  67  92 127 175 224 275 329 397
#     4  11  22  40  65 101 137 169 219 279 342 414
#
# _framework density 21.216718
#
# number of rings (size 3 to 8) (size 9 to 14) (size 15 to 20)
#    0.000    1.750    2.500    2.250    0.000    5.000 
#    4.500    5.000    0.000    0.750    0.000    0.000 
#    0.000    0.000    0.000    0.000    0.000    0.000 
#
# Total GULP energy -89074.603619 kJ/mol
# GULP energy per Si atom -5567.162726 kJ/mol
# Density = 2.116843 g / cm^3
# Si number density = 21.216718 Si / 1000 Ang^3
#
#
#
# Elastic Constant Matrix: (Units=GPa)
#
#
# Indices 1 2 3 4 5 6 
#
# 1 94.0487 59.9112 44.7226 0.0000 0.0000 0.0000
# 2 59.9112 197.1844 73.0043 0.0000 0.0000 0.0000
# 3 44.7226 73.0043 175.6875 0.0000 0.0000 0.0000
# 4 0.0000 0.0000 0.0000 15.6195 0.0000 0.0000
# 5 0.0000 0.0000 0.0000 0.0000 21.6268 0.0000
# 6 0.0000 0.0000 0.0000 0.0000 0.0000 36.6103
#
#
#
# Elastic Compliance Matrix: (Units=1/GPa)
#
#
# Indices 1 2 3 4 5 6 
#
# 1 0.013807 -0.003420 -0.002094 0.000000 0.000000 0.000000
# 2 -0.003420 0.006841 -0.001972 0.000000 0.000000 0.000000
# 3 -0.002094 -0.001972 0.007044 0.000000 0.000000 0.000000
# 4 0.000000 0.000000 0.000000 0.064023 0.000000 0.000000
# 5 0.000000 0.000000 0.000000 0.000000 0.046239 0.000000
# 6 0.000000 0.000000 0.000000 0.000000 0.000000 0.027315
#
#
# Mechanical properties :
#
#
# Convention : Reuss Voigt Hill
#
# Bulk Modulus (GPa) = 78.61060 91.35521 84.98290
# Shear Modulus (GPa) = 27.10336 34.05683 30.58010
#
# Velocity S-wave (km/s) = 3.57803 4.01083 3.80059
# Velocity P-wave (km/s) = 7.36216 8.03745 7.70720
#
# Compressibility (1/GPa) = 0.01272093
#
# Stress axis : x y z
#
# Youngs Moduli (GPa) = 72.42775 146.18727 141.95951
#
# Poissons Ratio (x) = 0.49994 0.29720
# Poissons Ratio (y) = 0.24769 0.27993
# Poissons Ratio (z) = 0.15163 0.28827
#
# Static dielectric constant tensor:
#      x y z
#    x 1.903700 0.000000 0.000000 
#    y 0.000000 1.864980 0.000000 
#    z 0.000000 0.000000 1.821820 
# 
# From -- ./inp_files/17936.got.cif
#   From: 2010.05.17/outbox.cif.g08.bks.cpg/sg22_9_cif.got.tgz:17936.got - 2010.06.03 23:40:54.
