data_PCOD9328045
_publ_section_title
;
Structure prediction by ZEFSAII (Michael W. Deem and Ramdas Pophale) SiO2 
 PCOD9328045
Probable space group: F 2 2 2
;
_chemical_formula_sum "Si O2"
_cell_formula_units_Z 68
_cell_length_a 20.779367
_cell_length_b 9.801325
_cell_length_c 15.812661
_cell_angle_alpha 90.000000
_cell_angle_beta 90.000000
_cell_angle_gamma 90.000000
_cell_volume 3220.490809
_symmetry_space_group_name_H-M "F 2 2 2"
_symmetry_group_IT_number 22
_symmetry_cell_setting 'orthorhombic'
loop_
_space_group_symop_operation_xyz
x,y,z
-x,-y,z
x,-y,-z
-x,y,-z
x,1/2+y,1/2+z
-x,1/2-y,1/2+z
x,1/2-y,1/2-z
-x,1/2+y,1/2-z
1/2+x,y,1/2+z
1/2-x,-y,1/2+z
1/2+x,-y,1/2-z
1/2-x,y,1/2-z
1/2+x,1/2+y,z
1/2-x,1/2-y,z
1/2+x,1/2-y,-z
1/2-x,1/2+y,-z
loop_
_atom_site_type_symbol
_atom_site_label
_atom_site_fract_x
_atom_site_fract_y
_atom_site_fract_z
Si Si1 0.555653 0.891344 0.697781
Si Si2 0.500000 0.000000 0.000000
Si Si3 0.098564 0.208804 0.566905
Si Si4 0.182702 0.561600 0.205196
Si Si5 0.302742 0.365115 0.441562
O O1 0.542985 0.750000 0.750000
O O2 0.565639 0.843639 0.601295
O O3 0.500000 0.000000 0.709738
O O4 0.623977 0.948623 0.729900
O O5 0.454749 0.091083 0.940218
O O6 0.132089 0.202916 0.476337
O O7 0.154341 0.169039 0.635440
O O8 0.250000 0.596815 0.250000
O O9 0.192165 0.423631 0.152197
O O10 0.290375 0.500000 0.500000
O O11 0.250000 0.250000 0.450712
#
# Coordination Sequence:
#
# PCOD9328045 Si02
#       5
#    16   4  16  16  16
#     4  10  24  43  69 103 140 184 231 291 350 416
#     4  12  20  48  70  96 140 196 242 268 348 444
#     4  10  23  41  74  97 137 191 235 280 350 421
#     4  10  22  42  67 105 139 180 230 285 354 416
#     4  10  22  43  66 100 135 183 230 279 351 415
#
# _framework density 21.114792999999999
#
# number of rings (size 3 to 8) (size 9 to 14) (size 15 to 20)
#    0.000    1.882    3.529    0.000   13.176    3.765 
#    8.471    0.588    0.000    0.000    0.000    0.000 
#    0.000    0.000    0.000    0.000    0.000    0.000 
#
# Total GULP energy -94866.132829 kJ/mol
# GULP energy per Si atom -5580.360755 kJ/mol
# Density = 2.106673 g / cm^3
# Si number density = 21.114793 Si / 1000 Ang^3
#
#
#
# Elastic Constant Matrix: (Units=GPa)
#
#
# Indices 1 2 3 4 5 6 
#
# 1 172.2716 71.2659 49.4450 0.0000 0.0000 0.0000
# 2 71.2659 100.0527 44.2196 0.0000 0.0000 0.0000
# 3 49.4450 44.2196 72.6251 0.0000 0.0000 0.0000
# 4 0.0000 0.0000 0.0000 10.2121 0.0000 0.0000
# 5 0.0000 0.0000 0.0000 0.0000 -13.0468 0.0000
# 6 0.0000 0.0000 0.0000 0.0000 0.0000 13.2702
#
#
#
# Elastic Compliance Matrix: (Units=1/GPa)
#
#
# Indices 1 2 3 4 5 6 
#
# 1 0.008662 -0.004876 -0.002929 0.000000 0.000000 0.000000
# 2 -0.004876 0.016419 -0.006678 0.000000 0.000000 0.000000
# 3 -0.002929 -0.006678 0.019829 0.000000 0.000000 0.000000
# 4 0.000000 0.000000 0.000000 0.097923 0.000000 0.000000
# 5 0.000000 0.000000 0.000000 0.000000 -0.076647 0.000000
# 6 0.000000 0.000000 0.000000 0.000000 0.000000 0.075357
#
#
# Mechanical properties :
#
#
# Convention : Reuss Voigt Hill
#
# Bulk Modulus (GPa) = 62.71080 74.97894 68.84487
# Shear Modulus (GPa) = 28.43768 14.08835 21.26301
#
# Velocity S-wave (km/s) = 3.67388 2.58588 3.17680
# Velocity P-wave (km/s) = 6.91093 6.67105 6.79205
#
# Compressibility (1/GPa) = 0.01594622
#
# Stress axis : x y z
#
# Youngs Moduli (GPa) = 115.44134 60.90592 50.43061
#
# Poissons Ratio (x) = 0.29695 0.14771
# Poissons Ratio (y) = 0.56285 0.33675
# Poissons Ratio (z) = 0.33812 0.40670
#
# Static dielectric constant tensor:
#      x y z
#    x 1.768950 0.000000 0.000000 
#    y 0.000000 1.780040 0.000000 
#    z 0.000000 0.000000 1.843660 
# 
# From -- ./inp_files/37763.got.cif
#   From: 2010.05.17/outbox.cif.g08.bks.cpg/sg22_19_cif.got.tgz:37763.got - 2010.06.03 23:40:54.
