data_PCOD9328865
_publ_section_title
;
Structure prediction by ZEFSAII (Michael W. Deem and Ramdas Pophale) SiO2 
 PCOD9328865
Probable space group: F 2 2 2
;
_chemical_formula_sum "Si O2"
_cell_formula_units_Z 88
_cell_length_a 19.724440
_cell_length_b 9.723224
_cell_length_c 21.460953
_cell_angle_alpha 90.000000
_cell_angle_beta 90.000000
_cell_angle_gamma 90.000000
_cell_volume 4115.892056
_symmetry_space_group_name_H-M "F 2 2 2"
_symmetry_group_IT_number 22
_symmetry_cell_setting 'orthorhombic'
loop_
_space_group_symop_operation_xyz
x,y,z
-x,-y,z
x,-y,-z
-x,y,-z
x,1/2+y,1/2+z
-x,1/2-y,1/2+z
x,1/2-y,1/2-z
-x,1/2+y,1/2-z
1/2+x,y,1/2+z
1/2-x,-y,1/2+z
1/2+x,-y,1/2-z
1/2-x,y,1/2-z
1/2+x,1/2+y,z
1/2-x,1/2-y,z
1/2+x,1/2-y,-z
1/2-x,1/2+y,-z
loop_
_atom_site_type_symbol
_atom_site_label
_atom_site_fract_x
_atom_site_fract_y
_atom_site_fract_z
Si Si1 0.918452 0.196275 0.934378
Si Si2 0.388315 0.557689 0.637108
Si Si3 0.751495 0.594234 0.823814
Si Si4 0.500000 0.000000 0.239058
Si Si5 0.572918 0.297552 0.432938
Si Si6 0.602321 0.559385 0.850218
O O1 0.875141 0.291340 0.888884
O O2 0.993575 0.261649 0.932865
O O3 0.922488 0.044801 0.904796
O O4 0.896328 0.226818 0.005166
O O5 0.318823 0.488270 0.658898
O O6 0.446931 0.569781 0.690279
O O7 0.414497 0.457145 0.581184
O O8 0.750000 0.607132 0.750000
O O9 0.750000 0.750000 0.850577
O O10 0.680480 0.522347 0.839991
O O11 0.445494 0.940212 0.289127
O O12 0.600584 0.214574 0.374167
#
# Coordination Sequence:
#
# PCOD9328865 Si02
#       6
#    16  16  16   8  16  16
#     4  11  24  41  66  99 133 170 218 278 330 373
#     4  12  24  42  67 100 131 171 219 272 326 391
#     4  11  24  43  66  96 137 178 219 262 330 403
#     4  12  24  40  68 104 128 164 220 274 326 388
#     4  11  22  43  68  95 131 176 222 268 320 393
#     4  12  24  42  67 100 131 171 219 272 326 391
#
# _framework density 21.38054
#
# number of rings (size 3 to 8) (size 9 to 14) (size 15 to 20)
#    0.000    0.545    7.273    1.091    0.000    6.545 
#    0.000    6.364    0.000    0.000    0.000    0.000 
#    0.000    0.000    0.000    0.000    0.000    0.000 
#
# Total GULP energy -122627.366469 kJ/mol
# GULP energy per Si atom -5573.971203 kJ/mol
# Density = 2.133188 g / cm^3
# Si number density = 21.380540 Si / 1000 Ang^3
#
#
#
# Elastic Constant Matrix: (Units=GPa)
#
#
# Indices 1 2 3 4 5 6 
#
# 1 123.2319 10.8174 18.5102 0.0000 0.0000 0.0000
# 2 10.8174 75.7807 8.7170 0.0000 0.0000 0.0000
# 3 18.5102 8.7170 94.2902 0.0000 0.0000 0.0000
# 4 0.0000 0.0000 0.0000 10.0379 0.0000 0.0000
# 5 0.0000 0.0000 0.0000 0.0000 14.0010 0.0000
# 6 0.0000 0.0000 0.0000 0.0000 0.0000 40.4315
#
#
#
# Elastic Compliance Matrix: (Units=1/GPa)
#
#
# Indices 1 2 3 4 5 6 
#
# 1 0.008439 -0.001025 -0.001562 0.000000 0.000000 0.000000
# 2 -0.001025 0.013462 -0.001043 0.000000 0.000000 0.000000
# 3 -0.001562 -0.001043 0.011009 0.000000 0.000000 0.000000
# 4 0.000000 0.000000 0.000000 0.099623 0.000000 0.000000
# 5 0.000000 0.000000 0.000000 0.000000 0.071423 0.000000
# 6 0.000000 0.000000 0.000000 0.000000 0.000000 0.024733
#
#
# Mechanical properties :
#
#
# Convention : Reuss Voigt Hill
#
# Bulk Modulus (GPa) = 38.98692 41.04357 40.01524
# Shear Modulus (GPa) = 20.44989 29.91129 25.18059
#
# Velocity S-wave (km/s) = 3.09604 3.74437 3.43554
# Velocity P-wave (km/s) = 5.57270 6.15891 5.87312
#
# Compressibility (1/GPa) = 0.02564963
#
# Stress axis : x y z
#
# Youngs Moduli (GPa) = 118.49213 74.28148 90.83769
#
# Poissons Ratio (x) = 0.07614 0.14189
# Poissons Ratio (y) = 0.12146 0.09478
# Poissons Ratio (z) = 0.18508 0.07750
#
# Static dielectric constant tensor:
#      x y z
#    x 1.983360 0.000000 0.000000 
#    y 0.000000 1.773230 0.000000 
#    z 0.000000 0.000000 1.784310 
# 
# From -- ./inp_files/49794.got.cif
#   From: 2010.05.17/outbox.cif.g08.bks.cpg/sg22_25_cif.got.tgz:49794.got - 2010.06.03 23:40:54.
