data_PCOD9328769
_publ_section_title
;
Structure prediction by ZEFSAII (Michael W. Deem and Ramdas Pophale) SiO2 
 PCOD9328769
Probable space group: F 2 2 2
;
_chemical_formula_sum "Si O2"
_cell_formula_units_Z 116
_cell_length_a 9.023322
_cell_length_b 23.443608
_cell_length_c 26.954241
_cell_angle_alpha 90.000000
_cell_angle_beta 90.000000
_cell_angle_gamma 90.000000
_cell_volume 5701.879220
_symmetry_space_group_name_H-M "F 2 2 2"
_symmetry_group_IT_number 22
_symmetry_cell_setting 'orthorhombic'
loop_
_space_group_symop_operation_xyz
x,y,z
-x,-y,z
x,-y,-z
-x,y,-z
x,1/2+y,1/2+z
-x,1/2-y,1/2+z
x,1/2-y,1/2-z
-x,1/2+y,1/2-z
1/2+x,y,1/2+z
1/2-x,-y,1/2+z
1/2+x,-y,1/2-z
1/2-x,y,1/2-z
1/2+x,1/2+y,z
1/2-x,1/2-y,z
1/2+x,1/2-y,-z
1/2-x,1/2+y,-z
loop_
_atom_site_type_symbol
_atom_site_label
_atom_site_fract_x
_atom_site_fract_y
_atom_site_fract_z
Si Si1 0.125243 0.788627 0.371839
Si Si2 0.639231 0.579372 0.418318
Si Si3 0.379958 0.797193 0.955373
Si Si4 0.915375 0.607438 0.265381
Si Si5 0.156890 0.485987 0.343482
Si Si6 0.615452 0.409289 0.334368
Si Si7 0.000000 0.500000 0.000000
Si Si8 0.408612 0.773072 0.694813
O O1 0.250000 0.750000 0.395813
O O2 0.182946 0.849133 0.352064
O O3 0.986394 0.789604 0.408334
O O4 0.053304 0.756775 0.326013
O O5 0.681399 0.639560 0.443359
O O6 0.761958 0.555116 0.381792
O O7 0.498874 0.580197 0.380020
O O8 0.598295 0.538386 0.463605
O O9 0.250000 0.750000 0.960614
O O10 0.500000 0.797895 0.000000
O O11 0.750000 0.625131 0.250000
O O12 0.889723 0.548630 0.294225
O O13 0.946630 0.659621 0.302859
O O14 0.023386 0.599414 0.217572
O O15 0.265001 0.539601 0.331540
O O16 0.000000 0.500000 0.367453
O O17 0.398996 0.750000 0.750000
O O18 0.250000 0.750000 0.671854
#
# Coordination Sequence:
#
# PCOD9328769 Si02
#       8
#    16  16  16  16  16  16   4  16
#     4  11  25  42  67  96 137 181 225 284 345 408
#     4  11  24  45  76  99 133 183 238 281 349 421
#     4  11  25  45  73 107 136 174 223 284 356 416
#     4  12  24  39  68  97 138 183 239 285 349 409
#     4  12  29  43  64 100 142 183 233 293 350 417
#     4  11  24  46  65  98 135 185 236 287 340 422
#     4  12  20  48  78 100 124 184 246 286 332 426
#     4  11  21  41  62  95 129 178 230 279 334 413
#
# _framework density 20.344169000000001
#
# number of rings (size 3 to 8) (size 9 to 14) (size 15 to 20)
#    0.000    0.690    6.207    0.828    7.724    0.276 
#    0.000    1.724    0.000    0.000    0.000    0.000 
#    0.000    0.000    0.000    0.000    0.000    0.000 
#
# Total GULP energy -161656.828604 kJ/mol
# GULP energy per Si atom -5574.373400 kJ/mol
# Density = 2.029787 g / cm^3
# Si number density = 20.344169 Si / 1000 Ang^3
#
#
#
# Elastic Constant Matrix: (Units=GPa)
#
#
# Indices 1 2 3 4 5 6 
#
# 1 79.4877 62.8728 19.5585 0.0000 0.0000 0.0000
# 2 62.8728 167.9827 50.2625 0.0000 0.0000 0.0000
# 3 19.5585 50.2625 74.8054 0.0000 0.0000 0.0000
# 4 0.0000 0.0000 0.0000 24.1796 0.0000 0.0000
# 5 0.0000 0.0000 0.0000 0.0000 -34.8636 0.0000
# 6 0.0000 0.0000 0.0000 0.0000 0.0000 26.4332
#
#
#
# Elastic Compliance Matrix: (Units=1/GPa)
#
#
# Indices 1 2 3 4 5 6 
#
# 1 0.017874 -0.006623 -0.000223 0.000000 0.000000 0.000000
# 2 -0.006623 0.009905 -0.004924 0.000000 0.000000 0.000000
# 3 -0.000223 -0.004924 0.016735 0.000000 0.000000 0.000000
# 4 0.000000 0.000000 0.000000 0.041357 0.000000 0.000000
# 5 0.000000 0.000000 0.000000 0.000000 -0.028683 0.000000
# 6 0.000000 0.000000 0.000000 0.000000 0.000000 0.037831
#
#
# Mechanical properties :
#
#
# Convention : Reuss Voigt Hill
#
# Bulk Modulus (GPa) = 47.67824 65.29594 56.48709
# Shear Modulus (GPa) = 39.82453 15.78864 27.80658
#
# Velocity S-wave (km/s) = 4.42921 2.78884 3.70105
# Velocity P-wave (km/s) = 7.04584 6.52192 6.78894
#
# Compressibility (1/GPa) = 0.02097393
#
# Stress axis : x y z
#
# Youngs Moduli (GPa) = 55.94623 100.95734 59.75632
#
# Poissons Ratio (x) = 0.66866 0.01334
# Poissons Ratio (y) = 0.37055 0.29422
# Poissons Ratio (z) = 0.01249 0.49708
#
# Static dielectric constant tensor:
#      x y z
#    x 2.078140 0.000000 0.000000 
#    y 0.000000 2.120190 0.000000 
#    z 0.000000 0.000000 1.774090 
# 
# From -- ./inp_files/52124.got.cif
#   From: 2010.05.17/outbox.cif.g08.bks.cpg/sg22_27_cif.got.tgz:52124.got - 2010.06.03 23:40:54.
