data_PCOD9328451
_publ_section_title
;
Structure prediction by ZEFSAII (Michael W. Deem and Ramdas Pophale) SiO2 
 PCOD9328451
Probable space group: F 2 2 2
;
_chemical_formula_sum "Si O2"
_cell_formula_units_Z 56
_cell_length_a 17.356846
_cell_length_b 22.665399
_cell_length_c 6.970366
_cell_angle_alpha 90.000000
_cell_angle_beta 90.000000
_cell_angle_gamma 90.000000
_cell_volume 2742.140869
_symmetry_space_group_name_H-M "F 2 2 2"
_symmetry_group_IT_number 22
_symmetry_cell_setting 'orthorhombic'
loop_
_space_group_symop_operation_xyz
x,y,z
-x,-y,z
x,-y,-z
-x,y,-z
x,1/2+y,1/2+z
-x,1/2-y,1/2+z
x,1/2-y,1/2-z
-x,1/2+y,1/2-z
1/2+x,y,1/2+z
1/2-x,-y,1/2+z
1/2+x,-y,1/2-z
1/2-x,y,1/2-z
1/2+x,1/2+y,z
1/2-x,1/2-y,z
1/2+x,1/2-y,-z
1/2-x,1/2+y,-z
loop_
_atom_site_type_symbol
_atom_site_label
_atom_site_fract_x
_atom_site_fract_y
_atom_site_fract_z
Si Si1 0.929487 0.577699 0.362522
Si Si2 0.665672 0.597906 0.791919
Si Si3 0.019840 0.180528 0.718256
Si Si4 0.610281 0.000000 0.000000
O O1 0.852929 0.573882 0.492939
O O2 0.930144 0.541596 0.163077
O O3 0.000000 0.558835 0.500000
O O4 0.950391 0.646192 0.323749
O O5 0.750000 0.622421 0.750000
O O6 0.598975 0.646184 0.760450
O O7 0.654746 0.545719 0.636794
O O8 0.024341 0.250000 0.750000
O O9 0.000000 0.170826 0.500000
#
# Coordination Sequence:
#
# PCOD9328451 Si02
#       4
#    16  16  16   8
#     4  10  24  42  67 102 131 176 224 272 329 394
#     4  11  26  42  66 101 136 177 219 269 336 394
#     4  11  22  45  69  95 130 173 223 278 329 392
#     4  12  24  43  66  98 145 172 224 266 333 402
#
# _framework density 20.421999
#
# number of rings (size 3 to 8) (size 9 to 14) (size 15 to 20)
#    0.000    1.143    2.857    3.429    4.000   13.143 
#    0.000    0.000    0.000    0.000    0.000    0.000 
#    0.000    0.000    0.000    0.000    0.000    0.000 
#
# Total GULP energy -78084.223588 kJ/mol
# GULP energy per Si atom -5577.444542 kJ/mol
# Density = 2.037552 g / cm^3
# Si number density = 20.421999 Si / 1000 Ang^3
#
#
#
# Elastic Constant Matrix: (Units=GPa)
#
#
# Indices 1 2 3 4 5 6 
#
# 1 95.7487 25.0202 48.0223 0.0000 0.0002 -0.0001
# 2 25.0202 136.2923 36.8471 0.0000 0.0000 0.0000
# 3 48.0223 36.8471 156.8492 0.0000 0.0003 -0.0001
# 4 0.0000 0.0000 0.0000 41.1734 0.0000 0.0000
# 5 0.0002 0.0000 0.0003 0.0000 22.3020 0.0001
# 6 -0.0001 0.0000 -0.0001 0.0000 0.0001 12.1153
#
#
#
# Elastic Compliance Matrix: (Units=1/GPa)
#
#
# Indices 1 2 3 4 5 6 
#
# 1 0.012568 -0.001353 -0.003530 0.000000 0.000000 0.000000
# 2 -0.001353 0.007980 -0.001461 0.000000 0.000000 0.000000
# 3 -0.003530 -0.001461 0.007799 0.000000 0.000000 0.000000
# 4 0.000000 0.000000 0.000000 0.024288 0.000000 0.000000
# 5 0.000000 0.000000 0.000000 0.000000 0.044839 0.000000
# 6 0.000000 0.000000 0.000000 0.000000 0.000000 0.082540
#
#
# Mechanical properties :
#
#
# Convention : Reuss Voigt Hill
#
# Bulk Modulus (GPa) = 63.85343 67.62993 65.74168
# Shear Modulus (GPa) = 25.26249 33.71819 29.49034
#
# Velocity S-wave (km/s) = 3.52095 4.06775 3.80419
# Velocity P-wave (km/s) = 6.91840 7.43305 7.18034
#
# Compressibility (1/GPa) = 0.01566087
#
# Stress axis : x y z
#
# Youngs Moduli (GPa) = 79.56694 125.30722 128.21367
#
# Poissons Ratio (x) = 0.16952 0.45261
# Poissons Ratio (y) = 0.10764 0.18726
# Poissons Ratio (z) = 0.28088 0.18302
#
# Static dielectric constant tensor:
#      x y z
#    x 1.743510 0.000000 0.000000 
#    y 0.000000 1.872320 0.000000 
#    z 0.000000 0.000000 1.338580 
# 
# From -- ./inp_files/2599.got.cif
#   From: 2010.05.17/outbox.cif.g08.bks.cpg/sg22_2_cif.got.tgz:2599.got - 2010.06.03 23:40:54.
