data_PCOD9328236
_publ_section_title
;
Structure prediction by ZEFSAII (Michael W. Deem and Ramdas Pophale) SiO2 
 PCOD9328236
Probable space group: F 2 2 2
;
_chemical_formula_sum "Si O2"
_cell_formula_units_Z 68
_cell_length_a 29.758328
_cell_length_b 6.140368
_cell_length_c 20.021208
_cell_angle_alpha 90.000000
_cell_angle_beta 90.000000
_cell_angle_gamma 90.000000
_cell_volume 3658.416976
_symmetry_space_group_name_H-M "F 2 2 2"
_symmetry_group_IT_number 22
_symmetry_cell_setting 'orthorhombic'
loop_
_space_group_symop_operation_xyz
x,y,z
-x,-y,z
x,-y,-z
-x,y,-z
x,1/2+y,1/2+z
-x,1/2-y,1/2+z
x,1/2-y,1/2-z
-x,1/2+y,1/2-z
1/2+x,y,1/2+z
1/2-x,-y,1/2+z
1/2+x,-y,1/2-z
1/2-x,y,1/2-z
1/2+x,1/2+y,z
1/2-x,1/2-y,z
1/2+x,1/2-y,-z
1/2-x,1/2+y,-z
loop_
_atom_site_type_symbol
_atom_site_label
_atom_site_fract_x
_atom_site_fract_y
_atom_site_fract_z
Si Si1 0.706493 0.594270 0.352963
Si Si2 0.824740 0.250000 0.250000
Si Si3 0.728289 0.500000 0.500000
Si Si4 0.547088 0.114933 0.568640
Si Si5 0.119924 0.125092 0.183854
Si Si6 0.000000 0.000000 0.500000
O O1 0.750000 0.750000 0.344641
O O2 0.704250 0.405483 0.297760
O O3 0.705139 0.500199 0.427738
O O4 0.661814 0.733826 0.342067
O O5 0.857615 0.398698 0.294552
O O6 0.750000 0.750000 0.498971
O O7 0.582683 0.104463 0.627238
O O8 0.531897 0.354146 0.546220
O O9 0.500000 0.000000 0.587477
O O10 0.563474 0.000000 0.500000
O O11 0.102392 0.250000 0.250000
#
# Coordination Sequence:
#
# PCOD9328236 Si02
#       6
#    16   8   8  16  16   4
#     4  10  24  42  62  91 125 171 221 265 326 391
#     4  10  24  41  62  86 132 166 212 272 315 396
#     4  10  24  43  62  94 130 169 227 278 329 392
#     4   9  20  39  63  94 118 160 210 255 324 394
#     4  10  23  40  57  93 127 162 215 257 325 389
#     4   8  18  38  68  86 124 152 200 260 318 378
#
# _framework density 18.587273
#
# number of rings (size 3 to 8) (size 9 to 14) (size 15 to 20)
#    0.000    2.588    0.000    0.000    6.588   15.529 
#    6.353    0.000    0.000    0.000    0.000    0.000 
#    0.000    0.000    0.000    0.000    0.000    0.000 
#
# Total GULP energy -94749.875278 kJ/mol
# GULP energy per Si atom -5573.522075 kJ/mol
# Density = 1.854497 g / cm^3
# Si number density = 18.587273 Si / 1000 Ang^3
#
#
#
# Elastic Constant Matrix: (Units=GPa)
#
#
# Indices 1 2 3 4 5 6 
#
# 1 102.6936 52.2724 107.3497 0.0000 0.0000 0.0000
# 2 52.2724 125.5409 79.4718 0.0002 -0.0002 0.0000
# 3 107.3497 79.4718 192.3701 0.0001 -0.0001 0.0000
# 4 0.0000 0.0002 0.0001 12.2952 -0.0001 0.0000
# 5 0.0000 -0.0002 -0.0001 -0.0001 57.9123 0.0001
# 6 0.0000 0.0000 0.0000 0.0000 0.0001 -8.0040
#
#
#
# Elastic Compliance Matrix: (Units=1/GPa)
#
#
# Indices 1 2 3 4 5 6 
#
# 1 0.023747 -0.002030 -0.012413 0.000000 0.000000 0.000000
# 2 -0.002030 0.010960 -0.003395 0.000000 0.000000 0.000000
# 3 -0.012413 -0.003395 0.013528 0.000000 0.000000 0.000000
# 4 0.000000 0.000000 0.000000 0.081332 0.000000 0.000000
# 5 0.000000 0.000000 0.000000 0.000000 0.017267 0.000000
# 6 0.000000 0.000000 0.000000 0.000000 0.000000 -0.124938
#
#
# Mechanical properties :
#
#
# Convention : Reuss Voigt Hill
#
# Bulk Modulus (GPa) = 79.62581 99.86582 89.74582
# Shear Modulus (GPa) = 80.96042 24.54142 52.75092
#
# Velocity S-wave (km/s) = 6.60693 3.63758 5.33308
# Velocity P-wave (km/s) = 10.05653 8.45502 9.29035
#
# Compressibility (1/GPa) = 0.01255874
#
# Stress axis : x y z
#
# Youngs Moduli (GPa) = 42.11115 91.24211 73.92170
#
# Poissons Ratio (x) = 0.18519 0.91759
# Poissons Ratio (y) = 0.08547 0.25097
# Poissons Ratio (z) = 0.52273 0.30977
#
# Static dielectric constant tensor:
#      x y z
#    x 1.610150 0.000000 0.000000 
#    y 0.000000 1.689260 0.000000 
#    z 0.000000 0.000000 1.643080 
# 
# From -- ./inp_files/3992.got.cif
#   From: 2010.05.17/outbox.cif.g08.bks.cpg/sg22_2_cif.got.tgz:3992.got - 2010.06.03 23:40:54.
