data_PCOD9328797
_publ_section_title
;
Structure prediction by ZEFSAII (Michael W. Deem and Ramdas Pophale) SiO2 
 PCOD9328797
Probable space group: F 2 2 2
;
_chemical_formula_sum "Si O2"
_cell_formula_units_Z 60
_cell_length_a 13.586403
_cell_length_b 14.684085
_cell_length_c 13.586674
_cell_angle_alpha 90.000000
_cell_angle_beta 90.000000
_cell_angle_gamma 90.000000
_cell_volume 2710.594403
_symmetry_space_group_name_H-M "F 2 2 2"
_symmetry_group_IT_number 22
_symmetry_cell_setting 'orthorhombic'
loop_
_space_group_symop_operation_xyz
x,y,z
-x,-y,z
x,-y,-z
-x,y,-z
x,1/2+y,1/2+z
-x,1/2-y,1/2+z
x,1/2-y,1/2-z
-x,1/2+y,1/2-z
1/2+x,y,1/2+z
1/2-x,-y,1/2+z
1/2+x,-y,1/2-z
1/2-x,y,1/2-z
1/2+x,1/2+y,z
1/2-x,1/2-y,z
1/2+x,1/2-y,-z
1/2-x,1/2+y,-z
loop_
_atom_site_type_symbol
_atom_site_label
_atom_site_fract_x
_atom_site_fract_y
_atom_site_fract_z
Si Si1 0.750000 0.398038 0.750000
Si Si2 0.923741 0.287216 0.423746
Si Si3 0.000000 0.500000 0.000000
Si Si4 0.099379 0.832427 0.599382
Si Si5 0.385840 0.022673 0.614157
O O1 0.819426 0.339068 0.819421
O O2 0.682043 0.461277 0.817960
O O3 0.867744 0.221456 0.500202
O O4 0.870243 0.368595 0.370249
O O5 0.000000 0.337814 0.500000
O O6 0.000195 0.221455 0.367747
O O7 0.065847 0.567225 0.934153
O O8 0.500000 0.000000 0.636610
O O9 0.363387 0.000000 0.500000
#
# Coordination Sequence:
#
# PCOD9328797 Si02
#       5
#     8  16   4  16  16
#     4  12  26  34  75 117 124 164 246 288 317 399
#     4   7  16  42  72  86 126 198 206 260 346 401
#     4   8  16  36  72  88 134 188 208 276 340 404
#     4   8  18  38  67 100 126 175 233 266 329 394
#     4  11  21  46  68  95 140 187 216 274 346 409
#
# _framework density 22.135365
#
# number of rings (size 3 to 8) (size 9 to 14) (size 15 to 20)
#    1.600    1.333    2.667    0.000    3.733    0.000 
#    0.000   16.000    0.000    6.400    0.000    0.000 
#    0.000    0.000    0.000    0.000    0.000    0.000 
#
# Total GULP energy -83632.312979 kJ/mol
# GULP energy per Si atom -5575.487532 kJ/mol
# Density = 2.208498 g / cm^3
# Si number density = 22.135365 Si / 1000 Ang^3
#
#
#
# Elastic Constant Matrix: (Units=GPa)
#
#
# Indices 1 2 3 4 5 6 
#
# 1 107.9057 59.8016 94.4929 0.0000 0.0000 0.0000
# 2 59.8016 166.7849 59.8054 0.0000 0.0000 0.0000
# 3 94.4929 59.8054 107.9197 0.0000 0.0000 0.0000
# 4 0.0000 0.0000 0.0000 25.6702 0.0000 0.0000
# 5 0.0000 0.0000 0.0000 0.0000 45.5832 0.0000
# 6 0.0000 0.0000 0.0000 0.0000 0.0000 25.6698
#
#
#
# Elastic Compliance Matrix: (Units=1/GPa)
#
#
# Indices 1 2 3 4 5 6 
#
# 1 0.040395 -0.002248 -0.034124 0.000000 0.000000 0.000000
# 2 -0.002248 0.007608 -0.002248 0.000000 0.000000 0.000000
# 3 -0.034124 -0.002248 0.040390 0.000000 0.000000 0.000000
# 4 0.000000 0.000000 0.000000 0.038956 0.000000 0.000000
# 5 0.000000 0.000000 0.000000 0.000000 0.021938 0.000000
# 6 0.000000 0.000000 0.000000 0.000000 0.000000 0.038956
#
#
# Mechanical properties :
#
#
# Convention : Reuss Voigt Hill
#
# Bulk Modulus (GPa) = 89.65209 90.09001 89.87105
# Shear Modulus (GPa) = 18.57352 30.61867 24.59609
#
# Velocity S-wave (km/s) = 2.89984 3.72324 3.33703
# Velocity P-wave (km/s) = 7.19735 7.69878 7.45228
#
# Compressibility (1/GPa) = 0.01115423
#
# Stress axis : x y z
#
# Youngs Moduli (GPa) = 24.75526 131.44541 24.75849
#
# Poissons Ratio (x) = 0.29547 0.84486
# Poissons Ratio (y) = 0.05565 0.05565
# Poissons Ratio (z) = 0.84475 0.29545
#
# Static dielectric constant tensor:
#      x y z
#    x 1.811310 0.000000 0.000000 
#    y 0.000000 1.845050 0.000000 
#    z 0.000000 0.000000 1.811300 
# 
# From -- ./inp_files/28881.got.cif
#   From: 2010.05.17/outbox.cif.g08.bks.cpg/sg22_15_cif.got.tgz:28881.got - 2010.06.03 23:40:54.
