data_PCOD9328540
_publ_section_title
;
Structure prediction by ZEFSAII (Michael W. Deem and Ramdas Pophale) SiO2 
 PCOD9328540
Probable space group: F 2 2 2
;
_chemical_formula_sum "Si O2"
_cell_formula_units_Z 88
_cell_length_a 23.412418
_cell_length_b 9.946043
_cell_length_c 15.476451
_cell_angle_alpha 90.000000
_cell_angle_beta 90.000000
_cell_angle_gamma 90.000000
_cell_volume 3603.860559
_symmetry_space_group_name_H-M "F 2 2 2"
_symmetry_group_IT_number 22
_symmetry_cell_setting 'orthorhombic'
loop_
_space_group_symop_operation_xyz
x,y,z
-x,-y,z
x,-y,-z
-x,y,-z
x,1/2+y,1/2+z
-x,1/2-y,1/2+z
x,1/2-y,1/2-z
-x,1/2+y,1/2-z
1/2+x,y,1/2+z
1/2-x,-y,1/2+z
1/2+x,-y,1/2-z
1/2-x,y,1/2-z
1/2+x,1/2+y,z
1/2-x,1/2-y,z
1/2+x,1/2-y,-z
1/2-x,1/2+y,-z
loop_
_atom_site_type_symbol
_atom_site_label
_atom_site_fract_x
_atom_site_fract_y
_atom_site_fract_z
Si Si1 0.096495 0.382752 0.298348
Si Si2 0.811699 0.448769 0.216393
Si Si3 0.796865 0.366158 0.944049
Si Si4 0.916250 0.214580 0.348106
Si Si5 0.610963 0.352788 0.988684
Si Si6 0.000000 0.000000 0.323772
O O1 0.118594 0.250000 0.250000
O O2 0.147039 0.493221 0.291174
O O3 0.078898 0.360947 0.397051
O O4 0.044325 0.426364 0.238990
O O5 0.750000 0.403493 0.250000
O O6 0.801656 0.571988 0.151124
O O7 0.851244 0.339814 0.166627
O O8 0.750000 0.250000 0.948488
O O9 0.786399 0.500000 0.000000
O O10 0.851825 0.281946 0.974593
O O11 0.934462 0.250000 0.250000
O O12 0.920151 0.326948 0.420773
O O13 0.959133 0.097453 0.377092
O O14 0.640279 0.500000 0.000000
#
# Coordination Sequence:
#
# PCOD9328540 Si02
#       6
#    16  16  16  16  16   8
#     4  11  23  44  75 105 149 196 254 316 382 454
#     4  11  24  44  73 109 151 204 251 309 383 456
#     4  12  25  44  70 107 153 197 258 312 380 456
#     4  11  25  50  76 111 156 196 260 316 384 460
#     4  12  25  46  76 110 151 197 251 319 383 450
#     4  10  24  48  76 106 148 206 250 322 384 458
#
# _framework density 24.418258999999999
#
# number of rings (size 3 to 8) (size 9 to 14) (size 15 to 20)
#    0.000    0.727    3.636    4.364    0.000    1.818 
#    0.000    9.545    0.000    0.000    0.000    0.000 
#    0.000    0.000    0.000    0.000    0.000    0.000 
#
# Total GULP energy -122967.662069 kJ/mol
# GULP energy per Si atom -5589.439185 kJ/mol
# Density = 2.436268 g / cm^3
# Si number density = 24.418259 Si / 1000 Ang^3
#
#
#
# Elastic Constant Matrix: (Units=GPa)
#
#
# Indices 1 2 3 4 5 6 
#
# 1 93.6493 24.5484 12.3224 0.0000 0.0000 0.0000
# 2 24.5484 136.7988 55.1903 0.0000 0.0000 0.0000
# 3 12.3224 55.1903 125.2712 0.0000 0.0000 0.0000
# 4 0.0000 0.0000 0.0000 42.1188 0.0000 0.0000
# 5 0.0000 0.0000 0.0000 0.0000 -4.7363 0.0000
# 6 0.0000 0.0000 0.0000 0.0000 0.0000 31.8814
#
#
#
# Elastic Compliance Matrix: (Units=1/GPa)
#
#
# Indices 1 2 3 4 5 6 
#
# 1 0.011212 -0.001906 -0.000263 0.000000 0.000000 0.000000
# 2 -0.001906 0.009214 -0.003872 0.000000 0.000000 0.000000
# 3 -0.000263 -0.003872 0.009714 0.000000 0.000000 0.000000
# 4 0.000000 0.000000 0.000000 0.023742 0.000000 0.000000
# 5 0.000000 0.000000 0.000000 0.000000 -0.211137 0.000000
# 6 0.000000 0.000000 0.000000 0.000000 0.000000 0.031366
#
#
# Mechanical properties :
#
#
# Convention : Reuss Voigt Hill
#
# Bulk Modulus (GPa) = 55.37473 59.98240 57.67856
# Shear Modulus (GPa) = -46.38812 31.43000 -7.47906
#
# Velocity S-wave (km/s) = -4.36332 3.59158 -1.75201
# Velocity P-wave (km/s) = 1.63031 6.46662 4.42489
#
# Compressibility (1/GPa) = 0.01805878
#
# Stress axis : x y z
#
# Youngs Moduli (GPa) = 89.18737 108.52907 102.93960
#
# Poissons Ratio (x) = 0.20684 0.02710
# Poissons Ratio (y) = 0.16998 0.39858
# Poissons Ratio (z) = 0.02348 0.42022
#
# Static dielectric constant tensor:
#      x y z
#    x 1.959910 0.000000 0.000000 
#    y 0.000000 2.036810 0.000000 
#    z 0.000000 0.000000 1.951220 
# 
# From -- ./inp_files/33031.got.cif
#   From: 2010.05.17/outbox.cif.g08.bks.cpg/sg22_17_cif.got.tgz:33031.got - 2010.06.03 23:40:54.
