data_PCOD9328932
_publ_section_title
;
Structure prediction by ZEFSAII (Michael W. Deem and Ramdas Pophale) SiO2 
 PCOD9328932
Probable space group: F 2 2 2
;
_chemical_formula_sum "Si O2"
_cell_formula_units_Z 68
_cell_length_a 24.730440
_cell_length_b 4.957096
_cell_length_c 22.595020
_cell_angle_alpha 90.000000
_cell_angle_beta 90.000000
_cell_angle_gamma 90.000000
_cell_volume 2769.949830
_symmetry_space_group_name_H-M "F 2 2 2"
_symmetry_group_IT_number 22
_symmetry_cell_setting 'orthorhombic'
loop_
_space_group_symop_operation_xyz
x,y,z
-x,-y,z
x,-y,-z
-x,y,-z
x,1/2+y,1/2+z
-x,1/2-y,1/2+z
x,1/2-y,1/2-z
-x,1/2+y,1/2-z
1/2+x,y,1/2+z
1/2-x,-y,1/2+z
1/2+x,-y,1/2-z
1/2-x,y,1/2-z
1/2+x,1/2+y,z
1/2-x,1/2-y,z
1/2+x,1/2-y,-z
1/2-x,1/2+y,-z
loop_
_atom_site_type_symbol
_atom_site_label
_atom_site_fract_x
_atom_site_fract_y
_atom_site_fract_z
Si Si1 0.250000 0.250000 0.250000
Si Si2 0.403500 0.992077 0.208411
Si Si3 0.848605 0.259437 0.541078
Si Si4 0.299215 0.943003 0.143459
Si Si5 0.536076 0.237653 0.900659
O O1 0.281370 0.439198 0.294164
O O2 0.386221 0.250000 0.250000
O O3 0.444857 0.121772 0.162470
O O4 0.423297 0.750000 0.250000
O O5 0.358892 0.846085 0.164105
O O6 0.828372 0.500000 0.500000
O O7 0.909084 0.310822 0.564514
O O8 0.850713 0.000000 0.500000
O O9 0.811507 0.177303 0.596438
O O10 0.250000 0.750000 0.123983
O O11 0.500000 0.500000 0.894441
O O12 0.500000 0.000000 0.929018
#
# Coordination Sequence:
#
# PCOD9328932 Si02
#       5
#     4  16  16  16  16
#     4  12  22  44  76 110 144 196 250 302 370 464
#     4  11  23  42  68 106 158 202 245 312 380 454
#     4  11  27  50  76 108 154 202 255 326 388 447
#     4  11  26  45  76 111 154 201 261 309 379 465
#     4  11  24  43  72 109 146 200 259 314 384 462
#
# _framework density 24.549181999999998
#
# number of rings (size 3 to 8) (size 9 to 14) (size 15 to 20)
#    0.000    0.941    1.176    4.588    3.294    8.471 
#    2.118    0.000    0.000    0.000    0.000    0.000 
#    0.000    0.000    0.000    0.000    0.000    0.000 
#
# Total GULP energy -95098.609707 kJ/mol
# GULP energy per Si atom -5594.035865 kJ/mol
# Density = 2.449331 g / cm^3
# Si number density = 24.549182 Si / 1000 Ang^3
#
#
#
# Elastic Constant Matrix: (Units=GPa)
#
#
# Indices 1 2 3 4 5 6 
#
# 1 116.9879 53.0834 54.1450 0.0077 0.0020 -0.0039
# 2 53.0834 153.0217 66.7854 0.1396 0.0142 -0.0189
# 3 54.1450 66.7854 154.9261 0.0038 0.0017 -0.0008
# 4 0.0077 0.1396 0.0038 -11.4741 -0.0225 0.0017
# 5 0.0020 0.0142 0.0017 -0.0225 -2.2420 0.0018
# 6 -0.0039 -0.0189 -0.0008 0.0017 0.0018 44.9874
#
#
#
# Elastic Compliance Matrix: (Units=1/GPa)
#
#
# Indices 1 2 3 4 5 6 
#
# 1 0.010996 -0.002632 -0.002708 -0.000026 -0.000009 0.000000
# 2 -0.002632 0.008680 -0.002822 0.000103 0.000049 0.000003
# 3 -0.002708 -0.002822 0.008617 -0.000033 -0.000013 -0.000001
# 4 -0.000026 0.000103 -0.000033 -0.087154 0.000877 0.000003
# 5 -0.000009 0.000049 -0.000013 0.000877 -0.446038 0.000018
# 6 0.000000 0.000003 -0.000001 0.000003 0.000018 0.022228
#
#
# Mechanical properties :
#
#
# Convention : Reuss Voigt Hill
#
# Bulk Modulus (GPa) = 83.55252 85.88481 84.71867
# Shear Modulus (GPa) = -10.81418 22.98238 6.08410
#
# Velocity S-wave (km/s) = -2.10111 3.06302 1.57598
# Velocity P-wave (km/s) = 5.31248 6.89712 6.15600
#
# Compressibility (1/GPa) = 0.01196852
#
# Stress axis : x y z
#
# Youngs Moduli (GPa) = 90.94409 115.21275 116.04349
#
# Poissons Ratio (x) = 0.30330 0.31426
# Poissons Ratio (y) = 0.23941 0.32742
# Poissons Ratio (z) = 0.24629 0.32508
#
# Static dielectric constant tensor:
#      x y z
#    x 7.251600 0.000330 0.000400 
#    y 0.000330 1.935820 0.000000 
#    z 0.000400 0.000000 1.907480 
# 
# From -- ./inp_files/45577.got.cif
#   From: 2010.05.17/outbox.cif.g08.bks.cpg/sg22_23_cif.got.tgz:45577.got - 2010.06.03 23:40:54.
