data_PCOD9328430
_publ_section_title
;
Structure prediction by ZEFSAII (Michael W. Deem and Ramdas Pophale) SiO2 
 PCOD9328430
Probable space group: F 2 2 2
;
_chemical_formula_sum "Si O2"
_cell_formula_units_Z 84
_cell_length_a 4.952256
_cell_length_b 25.568497
_cell_length_c 29.228595
_cell_angle_alpha 90.000000
_cell_angle_beta 90.000000
_cell_angle_gamma 90.000000
_cell_volume 3700.975635
_symmetry_space_group_name_H-M "F 2 2 2"
_symmetry_group_IT_number 22
_symmetry_cell_setting 'orthorhombic'
loop_
_space_group_symop_operation_xyz
x,y,z
-x,-y,z
x,-y,-z
-x,y,-z
x,1/2+y,1/2+z
-x,1/2-y,1/2+z
x,1/2-y,1/2-z
-x,1/2+y,1/2-z
1/2+x,y,1/2+z
1/2-x,-y,1/2+z
1/2+x,-y,1/2-z
1/2-x,y,1/2-z
1/2+x,1/2+y,z
1/2-x,1/2-y,z
1/2+x,1/2-y,-z
1/2-x,1/2+y,-z
loop_
_atom_site_type_symbol
_atom_site_label
_atom_site_fract_x
_atom_site_fract_y
_atom_site_fract_z
Si Si1 0.500000 0.920134 0.500000
Si Si2 0.750000 0.750000 0.128939
Si Si3 0.424518 0.318750 0.295511
Si Si4 0.000000 0.500000 0.000000
Si Si5 0.750000 0.967022 0.750000
Si Si6 0.250000 0.750000 0.032376
Si Si7 0.080215 0.118041 0.820700
Si Si8 0.571632 0.842669 0.581675
O O1 0.457279 0.881519 0.543353
O O2 0.236854 0.955878 0.487915
O O3 0.548079 0.774340 0.166189
O O4 0.627773 0.702898 0.100143
O O5 0.250000 0.304767 0.250000
O O6 0.723310 0.341365 0.295032
O O7 0.229558 0.364528 0.315243
O O8 0.866568 0.933996 0.792424
O O9 0.500000 0.000000 0.767956
O O10 0.202677 0.696501 0.060712
O O11 0.500000 0.738776 0.000000
O O12 0.151400 0.123127 0.874125
#
# Coordination Sequence:
#
# PCOD9328430 Si02
#       8
#     8   8  16   4   8   8  16  16
#     4  11  26  50  79  98 147 186 244 319 374 426
#     4  10  24  40  66 115 144 181 240 271 343 464
#     4  11  20  40  65  94 144 191 222 273 332 428
#     4  10  28  54  74 102 122 190 260 302 364 448
#     4  12  24  46  72  99 130 173 240 318 370 422
#     4  12  25  42  70 110 152 190 230 278 357 460
#     4  11  24  43  68  96 138 181 234 286 364 427
#     4  11  25  45  74 109 149 194 234 300 370 442
#
# _framework density 22.696718000000001
#
# number of rings (size 3 to 8) (size 9 to 14) (size 15 to 20)
#    0.000    0.952    2.857    3.143    1.333    6.857 
#    5.143    3.810    0.000    0.000    0.000    0.000 
#    0.000    0.000    0.000    0.000    0.000    0.000 
#
# Total GULP energy -116966.739488 kJ/mol
# GULP energy per Si atom -5569.844738 kJ/mol
# Density = 2.264506 g / cm^3
# Si number density = 22.696718 Si / 1000 Ang^3
#
#
#
# Elastic Constant Matrix: (Units=GPa)
#
#
# Indices 1 2 3 4 5 6 
#
# 1 78.5410 15.4534 -1.4069 0.0000 0.0000 0.0000
# 2 15.4534 109.1177 42.8459 0.0000 0.0000 0.0000
# 3 -1.4069 42.8459 156.4029 0.0000 0.0000 0.0000
# 4 0.0000 0.0000 0.0000 -57.6053 0.0000 0.0000
# 5 0.0000 0.0000 0.0000 0.0000 17.3974 0.0000
# 6 0.0000 0.0000 0.0000 0.0000 0.0000 32.8902
#
#
#
# Elastic Compliance Matrix: (Units=1/GPa)
#
#
# Indices 1 2 3 4 5 6 
#
# 1 0.013166 -0.002141 0.000705 0.000000 0.000000 0.000000
# 2 -0.002141 0.010617 -0.002928 0.000000 0.000000 0.000000
# 3 0.000705 -0.002928 0.007202 0.000000 0.000000 0.000000
# 4 0.000000 0.000000 0.000000 -0.017360 0.000000 0.000000
# 5 0.000000 0.000000 0.000000 0.000000 0.057480 0.000000
# 6 0.000000 0.000000 0.000000 0.000000 0.000000 0.030404
#
#
# Mechanical properties :
#
#
# Convention : Reuss Voigt Hill
#
# Bulk Modulus (GPa) = 44.92924 50.87182 47.90053
# Shear Modulus (GPa) = 42.49619 17.68107 30.08863
#
# Velocity S-wave (km/s) = 4.33176 2.79411 3.64494
# Velocity P-wave (km/s) = 6.69756 5.73339 6.23414
#
# Compressibility (1/GPa) = 0.02225722
#
# Stress axis : x y z
#
# Youngs Moduli (GPa) = 75.95217 94.18559 138.84733
#
# Poissons Ratio (x) = 0.20170 -0.09790
# Poissons Ratio (y) = 0.16265 0.40652
# Poissons Ratio (z) = -0.05355 0.27576
#
# Static dielectric constant tensor:
#      x y z
#    x 1.921360 0.000000 0.000000 
#    y 0.000000 1.885120 0.000000 
#    z 0.000000 0.000000 1.913130 
# 
# From -- ./inp_files/55039.got.cif
#   From: 2010.05.17/outbox.cif.g08.bks.cpg/sg22_28_cif.got.tgz:55039.got - 2010.06.03 23:40:54.
