data_PCOD9328667
_publ_section_title
;
Structure prediction by ZEFSAII (Michael W. Deem and Ramdas Pophale) SiO2 
 PCOD9328667
Probable space group: F 2 2 2
;
_chemical_formula_sum "Si O2"
_cell_formula_units_Z 92
_cell_length_a 16.630982
_cell_length_b 13.454877
_cell_length_c 22.554657
_cell_angle_alpha 90.000000
_cell_angle_beta 90.000000
_cell_angle_gamma 90.000000
_cell_volume 5047.006365
_symmetry_space_group_name_H-M "F 2 2 2"
_symmetry_group_IT_number 22
_symmetry_cell_setting 'orthorhombic'
loop_
_space_group_symop_operation_xyz
x,y,z
-x,-y,z
x,-y,-z
-x,y,-z
x,1/2+y,1/2+z
-x,1/2-y,1/2+z
x,1/2-y,1/2-z
-x,1/2+y,1/2-z
1/2+x,y,1/2+z
1/2-x,-y,1/2+z
1/2+x,-y,1/2-z
1/2-x,y,1/2-z
1/2+x,1/2+y,z
1/2-x,1/2-y,z
1/2+x,1/2-y,-z
1/2-x,1/2+y,-z
loop_
_atom_site_type_symbol
_atom_site_label
_atom_site_fract_x
_atom_site_fract_y
_atom_site_fract_z
Si Si1 0.917576 0.719852 0.128468
Si Si2 0.221642 0.000000 0.000000
Si Si3 0.295224 0.342742 0.186739
Si Si4 0.500000 0.500000 0.500000
Si Si5 0.585692 0.648173 0.592792
Si Si6 0.159619 0.713413 0.505424
Si Si7 0.810573 0.977596 0.377747
O O1 0.884860 0.800742 0.176793
O O2 0.873191 0.612304 0.134371
O O3 0.011863 0.696513 0.128053
O O4 0.893722 0.761407 0.063118
O O5 0.167142 0.096888 0.993342
O O6 0.280320 0.981313 0.944921
O O7 0.250000 0.347422 0.250000
O O8 0.250000 0.250000 0.154581
O O9 0.270194 0.445265 0.156881
O O10 0.549626 0.570532 0.544227
O O11 0.629431 0.729455 0.552534
O O12 0.645947 0.582287 0.632586
O O13 0.250000 0.750000 0.517902
#
# Coordination Sequence:
#
# PCOD9328667 Si02
#       7
#    16   8  16   4  16  16  16
#     4  11  18  32  52  81 116 142 184 240 291 331
#     4  12  21  30  50  80 115 156 186 228 281 356
#     4   9  19  34  56  86 105 145 195 243 284 338
#     4  12  18  28  52  78 118 140 182 224 286 344
#     4  12  21  30  50  86 117 152 181 237 294 351
#     4  12  20  31  48  78 120 157 185 221 282 358
#     4  11  18  31  55  83 113 137 188 238 285 334
#
# _framework density 18.228628
#
# number of rings (size 3 to 8) (size 9 to 14) (size 15 to 20)
#    0.000    0.870    8.696    1.043    0.000    0.000 
#    0.000    1.739    0.000    0.000   36.174    1.217 
#    0.000    0.000    0.000    0.000    0.000    0.000 
#
# Total GULP energy -128115.161588 kJ/mol
# GULP energy per Si atom -5570.224417 kJ/mol
# Density = 1.818714 g / cm^3
# Si number density = 18.228628 Si / 1000 Ang^3
#
#
#
# Elastic Constant Matrix: (Units=GPa)
#
#
# Indices 1 2 3 4 5 6 
#
# 1 78.5378 49.8260 27.1514 0.0000 0.0000 0.0000
# 2 49.8260 120.3735 26.4116 0.0000 0.0000 0.0000
# 3 27.1514 26.4116 63.9622 0.0000 0.0000 0.0000
# 4 0.0000 0.0000 0.0000 5.7654 0.0000 0.0000
# 5 0.0000 0.0000 0.0000 0.0000 14.7815 0.0000
# 6 0.0000 0.0000 0.0000 0.0000 0.0000 38.8601
#
#
#
# Elastic Compliance Matrix: (Units=1/GPa)
#
#
# Indices 1 2 3 4 5 6 
#
# 1 0.018730 -0.006607 -0.005222 0.000000 0.000000 0.000000
# 2 -0.006607 0.011466 -0.001930 0.000000 0.000000 0.000000
# 3 -0.005222 -0.001930 0.018648 0.000000 0.000000 0.000000
# 4 0.000000 0.000000 0.000000 0.173449 0.000000 0.000000
# 5 0.000000 0.000000 0.000000 0.000000 0.067652 0.000000
# 6 0.000000 0.000000 0.000000 0.000000 0.000000 0.025733
#
#
# Mechanical properties :
#
#
# Convention : Reuss Voigt Hill
#
# Bulk Modulus (GPa) = 46.89342 52.18350 49.53846
# Shear Modulus (GPa) = 14.27330 22.51370 18.39350
#
# Velocity S-wave (km/s) = 2.80128 3.51817 3.17999
# Velocity P-wave (km/s) = 6.02029 6.72256 6.38109
#
# Compressibility (1/GPa) = 0.02132495
#
# Stress axis : x y z
#
# Youngs Moduli (GPa) = 53.39102 87.21663 53.62498
#
# Poissons Ratio (x) = 0.57623 0.28005
# Poissons Ratio (y) = 0.35275 0.10349
# Poissons Ratio (z) = 0.27883 0.16832
#
# Static dielectric constant tensor:
#      x y z
#    x 1.705850 0.000000 0.000000 
#    y 0.000000 1.655630 0.000000 
#    z 0.000000 0.000000 1.676200 
# 
# From -- ./inp_files/53564.got.cif
#   From: 2010.05.17/outbox.cif.g08.bks.cpg/sg22_27_cif.got.tgz:53564.got - 2010.06.03 23:40:54.
