data_PCOD9328755
_publ_section_title
;
Structure prediction by ZEFSAII (Michael W. Deem and Ramdas Pophale) SiO2 
 PCOD9328755
Probable space group: F 2 2 2
;
_chemical_formula_sum "Si O2"
_cell_formula_units_Z 88
_cell_length_a 17.536348
_cell_length_b 12.919194
_cell_length_c 20.461178
_cell_angle_alpha 90.000000
_cell_angle_beta 90.000000
_cell_angle_gamma 90.000000
_cell_volume 4635.592041
_symmetry_space_group_name_H-M "F 2 2 2"
_symmetry_group_IT_number 22
_symmetry_cell_setting 'orthorhombic'
loop_
_space_group_symop_operation_xyz
x,y,z
-x,-y,z
x,-y,-z
-x,y,-z
x,1/2+y,1/2+z
-x,1/2-y,1/2+z
x,1/2-y,1/2-z
-x,1/2+y,1/2-z
1/2+x,y,1/2+z
1/2-x,-y,1/2+z
1/2+x,-y,1/2-z
1/2-x,y,1/2-z
1/2+x,1/2+y,z
1/2-x,1/2-y,z
1/2+x,1/2-y,-z
1/2-x,1/2+y,-z
loop_
_atom_site_type_symbol
_atom_site_label
_atom_site_fract_x
_atom_site_fract_y
_atom_site_fract_z
Si Si1 0.289598 0.500000 0.000000
Si Si2 0.660265 0.134417 0.262367
Si Si3 0.695795 0.651958 0.414514
Si Si4 0.082129 0.347251 0.966152
Si Si5 0.409593 0.996294 0.851133
Si Si6 0.329726 0.321011 0.906097
O O1 0.245082 0.554350 0.939847
O O2 0.327989 0.401794 0.965348
O O3 0.629230 0.250000 0.250000
O O4 0.750000 0.136862 0.250000
O O5 0.625556 0.057833 0.209473
O O6 0.656049 0.116542 0.339565
O O7 0.750000 0.750000 0.399022
O O8 0.644114 0.674463 0.478017
O O9 0.636509 0.610959 0.359976
O O10 0.098317 0.448158 0.922446
O O11 0.098981 0.255288 0.915787
O O12 0.000000 0.351884 0.000000
O O13 0.500000 0.000000 0.840832
O O14 0.250000 0.250000 0.902578
#
# Coordination Sequence:
#
# PCOD9328755 Si02
#       6
#     8  16  16  16  16  16
#     4  12  20  34  64  96 124 158 212 268 336 398
#     4  11  21  39  68  95 120 164 231 284 317 388
#     4  12  22  36  63 100 138 169 211 280 344 402
#     4  12  21  36  61 100 132 164 219 283 336 394
#     4  12  24  40  68  98 134 181 228 280 339 402
#     4  12  21  40  65  94 125 164 216 277 332 396
#
# _framework density 18.983550999999999
#
# number of rings (size 3 to 8) (size 9 to 14) (size 15 to 20)
#    0.000    0.182   10.909    1.091    0.000    0.000 
#    0.000    2.273    8.000    2.182    0.000    0.000 
#    0.000    0.000    0.000    0.000    0.000    0.000 
#
# Total GULP energy -122601.723062 kJ/mol
# GULP energy per Si atom -5572.805594 kJ/mol
# Density = 1.894034 g / cm^3
# Si number density = 18.983551 Si / 1000 Ang^3
#
#
#
# Elastic Constant Matrix: (Units=GPa)
#
#
# Indices 1 2 3 4 5 6 
#
# 1 86.9333 54.7253 38.5019 0.0000 0.0000 0.0000
# 2 54.7253 85.5483 26.3489 0.0000 0.0000 0.0000
# 3 38.5019 26.3489 101.6890 0.0000 0.0000 0.0000
# 4 0.0000 0.0000 0.0000 29.9009 0.0000 0.0000
# 5 0.0000 0.0000 0.0000 0.0000 9.0471 0.0000
# 6 0.0000 0.0000 0.0000 0.0000 0.0000 19.1815
#
#
#
# Elastic Compliance Matrix: (Units=1/GPa)
#
#
# Indices 1 2 3 4 5 6 
#
# 1 0.021314 -0.012116 -0.004931 0.000000 0.000000 0.000000
# 2 -0.012116 0.019590 -0.000489 0.000000 0.000000 0.000000
# 3 -0.004931 -0.000489 0.011827 0.000000 0.000000 0.000000
# 4 0.000000 0.000000 0.000000 0.033444 0.000000 0.000000
# 5 0.000000 0.000000 0.000000 0.000000 0.110533 0.000000
# 6 0.000000 0.000000 0.000000 0.000000 0.000000 0.052133
#
#
# Mechanical properties :
#
#
# Convention : Reuss Voigt Hill
#
# Bulk Modulus (GPa) = 56.62120 57.03586 56.82853
# Shear Modulus (GPa) = 17.25334 21.93220 19.59277
#
# Velocity S-wave (km/s) = 3.01800 3.40270 3.21610
# Velocity P-wave (km/s) = 6.48349 6.74892 6.61753
#
# Compressibility (1/GPa) = 0.01766123
#
# Stress axis : x y z
#
# Youngs Moduli (GPa) = 46.91799 51.04559 84.54957
#
# Poissons Ratio (x) = 0.61846 0.41688
# Poissons Ratio (y) = 0.56845 0.04132
# Poissons Ratio (z) = 0.23133 0.02495
#
# Static dielectric constant tensor:
#      x y z
#    x 1.691350 0.000000 0.000000 
#    y 0.000000 1.715170 0.000000 
#    z 0.000000 0.000000 1.703490 
# 
# From -- ./inp_files/21390.got.cif
#   From: 2010.05.17/outbox.cif.g08.bks.cpg/sg22_11_cif.got.tgz:21390.got - 2010.06.03 23:40:54.
