data_PCOD9328986
_publ_section_title
;
Structure prediction by ZEFSAII (Michael W. Deem and Ramdas Pophale) SiO2 
 PCOD9328986
Probable space group: F 2 2 2
;
_chemical_formula_sum "Si O2"
_cell_formula_units_Z 64
_cell_length_a 7.244522
_cell_length_b 14.194120
_cell_length_c 26.804127
_cell_angle_alpha 90.000000
_cell_angle_beta 90.000000
_cell_angle_gamma 90.000000
_cell_volume 2756.258049
_symmetry_space_group_name_H-M "F 2 2 2"
_symmetry_group_IT_number 22
_symmetry_cell_setting 'orthorhombic'
loop_
_space_group_symop_operation_xyz
x,y,z
-x,-y,z
x,-y,-z
-x,y,-z
x,1/2+y,1/2+z
-x,1/2-y,1/2+z
x,1/2-y,1/2-z
-x,1/2+y,1/2-z
1/2+x,y,1/2+z
1/2-x,-y,1/2+z
1/2+x,-y,1/2-z
1/2-x,y,1/2-z
1/2+x,1/2+y,z
1/2-x,1/2-y,z
1/2+x,1/2-y,-z
1/2-x,1/2+y,-z
loop_
_atom_site_type_symbol
_atom_site_label
_atom_site_fract_x
_atom_site_fract_y
_atom_site_fract_z
Si Si1 0.750000 0.250000 0.250000
Si Si2 0.000000 0.000000 0.500000
Si Si3 0.500000 0.000000 0.643136
Si Si4 0.997779 0.148499 0.426839
Si Si5 0.937390 0.357967 0.554442
Si Si6 0.873751 0.916730 0.682683
O O1 0.862488 0.177311 0.284486
O O2 0.899765 0.928561 0.537938
O O3 0.518742 0.085061 0.604124
O O4 0.324065 0.032773 0.674857
O O5 0.961887 0.257020 0.438544
O O6 0.214683 0.143826 0.441387
O O7 0.955122 0.116463 0.370921
O O8 0.000000 0.392630 0.500000
O O9 0.000000 0.000000 0.703698
#
# Coordination Sequence:
#
# PCOD9328986 Si02
#       6
#     4   4   8  16  16  16
#     4  12  32  56  94 118 156 218 292 376 434 508
#     4  12  20  40  64 102 148 226 242 312 384 482
#     4  12  25  46  79 110 156 213 268 339 412 500
#     4  11  24  43  69 104 166 216 264 333 394 483
#     4  11  24  38  65 113 158 215 269 310 389 488
#     4  12  27  55  81 117 156 212 280 359 432 489
#
# _framework density 23.219887
#
# number of rings (size 3 to 8) (size 9 to 14) (size 15 to 20)
#    0.000    0.500    5.000    1.875    8.750    0.000 
#    0.000    1.250    0.000    0.000    0.000    0.000 
#    0.000    0.000    0.000    0.000    0.000    0.000 
#
# Total GULP energy -89417.044290 kJ/mol
# GULP energy per Si atom -5588.565268 kJ/mol
# Density = 2.316704 g / cm^3
# Si number density = 23.219887 Si / 1000 Ang^3
#
#
#
# Elastic Constant Matrix: (Units=GPa)
#
#
# Indices 1 2 3 4 5 6 
#
# 1 144.2081 43.6893 43.4292 0.0000 0.0000 0.0000
# 2 43.6893 211.8457 71.0457 0.0000 0.0000 0.0000
# 3 43.4292 71.0457 139.4030 0.0000 0.0000 0.0000
# 4 0.0000 0.0000 0.0000 67.9798 0.0000 0.0000
# 5 0.0000 0.0000 0.0000 0.0000 30.5367 0.0000
# 6 0.0000 0.0000 0.0000 0.0000 0.0000 27.4104
#
#
#
# Elastic Compliance Matrix: (Units=1/GPa)
#
#
# Indices 1 2 3 4 5 6 
#
# 1 0.007811 -0.000959 -0.001945 0.000000 0.000000 0.000000
# 2 -0.000959 0.005811 -0.002663 0.000000 0.000000 0.000000
# 3 -0.001945 -0.002663 0.009136 0.000000 0.000000 0.000000
# 4 0.000000 0.000000 0.000000 0.014710 0.000000 0.000000
# 5 0.000000 0.000000 0.000000 0.000000 0.032747 0.000000
# 6 0.000000 0.000000 0.000000 0.000000 0.000000 0.036482
#
#
# Mechanical properties :
#
#
# Convention : Reuss Voigt Hill
#
# Bulk Modulus (GPa) = 86.01735 90.19836 88.10785
# Shear Modulus (GPa) = 41.08256 47.67156 44.37706
#
# Velocity S-wave (km/s) = 4.21085 4.53597 4.37643
# Velocity P-wave (km/s) = 7.79530 8.14635 7.97276
#
# Compressibility (1/GPa) = 0.01162556
#
# Stress axis : x y z
#
# Youngs Moduli (GPa) = 128.03272 172.08206 109.45137
#
# Poissons Ratio (x) = 0.16495 0.21285
# Poissons Ratio (y) = 0.12273 0.29147
# Poissons Ratio (z) = 0.24899 0.45825
#
# Static dielectric constant tensor:
#      x y z
#    x 1.713850 0.000000 0.000000 
#    y 0.000000 1.906190 0.000000 
#    z 0.000000 0.000000 1.875040 
# 
# From -- ./inp_files/27012.got.cif
#   From: 2010.05.17/outbox.cif.g08.bks.cpg/sg22_14_cif.got.tgz:27012.got - 2010.06.03 23:40:54.
