data_PCOD9328727
_publ_section_title
;
Structure prediction by ZEFSAII (Michael W. Deem and Ramdas Pophale) SiO2 
 PCOD9328727
Probable space group: F 2 2 2
;
_chemical_formula_sum "Si O2"
_cell_formula_units_Z 64
_cell_length_a 24.657516
_cell_length_b 8.523352
_cell_length_c 16.116334
_cell_angle_alpha 90.000000
_cell_angle_beta 90.000000
_cell_angle_gamma 90.000000
_cell_volume 3387.084312
_symmetry_space_group_name_H-M "F 2 2 2"
_symmetry_group_IT_number 22
_symmetry_cell_setting 'orthorhombic'
loop_
_space_group_symop_operation_xyz
x,y,z
-x,-y,z
x,-y,-z
-x,y,-z
x,1/2+y,1/2+z
-x,1/2-y,1/2+z
x,1/2-y,1/2-z
-x,1/2+y,1/2-z
1/2+x,y,1/2+z
1/2-x,-y,1/2+z
1/2+x,-y,1/2-z
1/2-x,y,1/2-z
1/2+x,1/2+y,z
1/2-x,1/2-y,z
1/2+x,1/2-y,-z
1/2-x,1/2+y,-z
loop_
_atom_site_type_symbol
_atom_site_label
_atom_site_fract_x
_atom_site_fract_y
_atom_site_fract_z
Si Si1 0.912170 0.113544 0.420171
Si Si2 0.123926 0.305424 0.157291
Si Si3 0.491950 0.685714 0.844363
Si Si4 0.691609 0.312531 0.501417
O O1 0.860300 0.220881 0.443281
O O2 0.963663 0.215240 0.395045
O O3 0.922919 0.000000 0.500000
O O4 0.892489 0.989834 0.349827
O O5 0.135450 0.250000 0.250000
O O6 0.069114 0.220471 0.126884
O O7 0.172453 0.269395 0.094140
O O8 0.500000 0.500000 0.846714
O O9 0.495213 0.750000 0.750000
O O10 0.695744 0.500000 0.500000
O O11 0.750000 0.250000 0.477650
#
# Coordination Sequence:
#
# PCOD9328727 Si02
#       4
#    16  16  16  16
#     4   9  20  38  57  78 113 149 178 226 278 322
#     4   9  18  34  55  80 109 143 179 220 274 327
#     4  11  21  34  57  87 115 146 182 225 276 331
#     4   9  20  36  55  77 106 142 180 226 274 317
#
# _framework density 18.895306999999999
#
# number of rings (size 3 to 8) (size 9 to 14) (size 15 to 20)
#    0.000    3.000    0.000    3.750    0.000   10.500 
#    0.000    8.750    0.000    6.750    0.000    0.000 
#    0.000    0.000    0.000    0.000    0.000    0.000 
#
# Total GULP energy -89199.271032 kJ/mol
# GULP energy per Si atom -5574.954439 kJ/mol
# Density = 1.885230 g / cm^3
# Si number density = 18.895307 Si / 1000 Ang^3
#
#
#
# Elastic Constant Matrix: (Units=GPa)
#
#
# Indices 1 2 3 4 5 6 
#
# 1 101.2554 20.7679 31.8908 0.0000 0.0000 0.0000
# 2 20.7679 58.1837 32.7630 0.0000 0.0000 0.0000
# 3 31.8908 32.7630 80.2592 0.0000 0.0000 0.0000
# 4 0.0000 0.0000 0.0000 28.7858 0.0000 0.0000
# 5 0.0000 0.0000 0.0000 0.0000 16.1950 0.0000
# 6 0.0000 0.0000 0.0000 0.0000 0.0000 35.3795
#
#
#
# Elastic Compliance Matrix: (Units=1/GPa)
#
#
# Indices 1 2 3 4 5 6 
#
# 1 0.011462 -0.001982 -0.003745 0.000000 0.000000 0.000000
# 2 -0.001982 0.022660 -0.008462 0.000000 0.000000 0.000000
# 3 -0.003745 -0.008462 0.017402 0.000000 0.000000 0.000000
# 4 0.000000 0.000000 0.000000 0.034739 0.000000 0.000000
# 5 0.000000 0.000000 0.000000 0.000000 0.061747 0.000000
# 6 0.000000 0.000000 0.000000 0.000000 0.000000 0.028265
#
#
# Mechanical properties :
#
#
# Convention : Reuss Voigt Hill
#
# Bulk Modulus (GPa) = 43.20733 45.61574 44.41153
# Shear Modulus (GPa) = 23.54379 26.35718 24.95048
#
# Velocity S-wave (km/s) = 3.53372 3.73890 3.63775
# Velocity P-wave (km/s) = 6.29014 6.54468 6.41867
#
# Compressibility (1/GPa) = 0.02314422
#
# Stress axis : x y z
#
# Youngs Moduli (GPa) = 87.24340 44.13139 57.46385
#
# Poissons Ratio (x) = 0.08748 0.21522
# Poissons Ratio (y) = 0.17295 0.48628
# Poissons Ratio (z) = 0.32675 0.37345
#
# Static dielectric constant tensor:
#      x y z
#    x 1.684160 0.000000 0.000000 
#    y 0.000000 1.671170 0.000000 
#    z 0.000000 0.000000 1.697330 
# 
# From -- ./inp_files/11350.got.cif
#   From: 2010.05.17/outbox.cif.g08.bks.cpg/sg22_6_cif.got.tgz:11350.got - 2010.06.03 23:40:54.
