data_PCOD9328848
_publ_section_title
;
Structure prediction by ZEFSAII (Michael W. Deem and Ramdas Pophale) SiO2 
 PCOD9328848
Probable space group: F 2 2 2
;
_chemical_formula_sum "Si O2"
_cell_formula_units_Z 96
_cell_length_a 14.386285
_cell_length_b 15.456392
_cell_length_c 20.507651
_cell_angle_alpha 90.000000
_cell_angle_beta 90.000000
_cell_angle_gamma 90.000000
_cell_volume 4560.082515
_symmetry_space_group_name_H-M "F 2 2 2"
_symmetry_group_IT_number 22
_symmetry_cell_setting 'orthorhombic'
loop_
_space_group_symop_operation_xyz
x,y,z
-x,-y,z
x,-y,-z
-x,y,-z
x,1/2+y,1/2+z
-x,1/2-y,1/2+z
x,1/2-y,1/2-z
-x,1/2+y,1/2-z
1/2+x,y,1/2+z
1/2-x,-y,1/2+z
1/2+x,-y,1/2-z
1/2-x,y,1/2-z
1/2+x,1/2+y,z
1/2-x,1/2-y,z
1/2+x,1/2-y,-z
1/2-x,1/2+y,-z
loop_
_atom_site_type_symbol
_atom_site_label
_atom_site_fract_x
_atom_site_fract_y
_atom_site_fract_z
Si Si1 0.632816 0.076356 0.635481
Si Si2 0.601683 0.970439 0.851433
Si Si3 0.250000 0.552349 0.750000
Si Si4 0.640227 0.228878 0.177009
Si Si5 0.920789 0.609740 0.596724
Si Si6 0.712038 0.654075 0.012521
Si Si7 0.149683 0.000000 0.500000
O O1 0.670145 0.097514 0.707003
O O2 0.527134 0.092515 0.614247
O O3 0.694638 0.133644 0.587609
O O4 0.638224 0.972085 0.623881
O O5 0.613757 0.866816 0.846036
O O6 0.500000 0.000000 0.825646
O O7 0.685823 0.004391 0.804906
O O8 0.604779 0.004260 0.927118
O O9 0.606984 0.250000 0.250000
O O10 0.750000 0.250000 0.176263
O O11 0.599366 0.300321 0.130446
O O12 0.883108 0.625956 0.523939
O O13 0.750000 0.750000 0.999639
O O14 0.788718 0.585402 0.991379
#
# Coordination Sequence:
#
# PCOD9328848 Si02
#       7
#    16  16   8  16  16  16   8
#     4  11  24  42  70 101 144 192 244 302 373 449
#     4  12  27  45  79 109 154 202 249 314 391 463
#     4  12  24  48  72 104 146 202 250 298 382 454
#     4  11  23  42  70 110 143 183 254 321 372 444
#     4  11  22  41  71 104 139 188 247 307 365 446
#     4  12  23  42  72 104 144 190 243 309 381 444
#     4  12  23  48  69 108 154 198 247 308 383 468
#
# _framework density 21.052250999999998
#
# number of rings (size 3 to 8) (size 9 to 14) (size 15 to 20)
#    0.000    0.500    3.333    6.250    4.667    2.667 
#    0.000    3.750    0.000    0.000    0.000    0.000 
#    0.000    0.000    0.000    0.000    0.000    0.000 
#
# Total GULP energy -133796.459377 kJ/mol
# GULP energy per Si atom -5574.852474 kJ/mol
# Density = 2.100434 g / cm^3
# Si number density = 21.052251 Si / 1000 Ang^3
#
#
#
# Elastic Constant Matrix: (Units=GPa)
#
#
# Indices 1 2 3 4 5 6 
#
# 1 114.0013 41.4456 39.8905 0.0000 0.0000 0.0000
# 2 41.4456 76.5951 6.5979 0.0000 0.0000 0.0000
# 3 39.8905 6.5979 123.8880 0.0000 0.0000 0.0000
# 4 0.0000 0.0000 0.0000 39.0681 0.0000 0.0000
# 5 0.0000 0.0000 0.0000 0.0000 46.5745 0.0000
# 6 0.0000 0.0000 0.0000 0.0000 0.0000 30.6421
#
#
#
# Elastic Compliance Matrix: (Units=1/GPa)
#
#
# Indices 1 2 3 4 5 6 
#
# 1 0.012364 -0.006377 -0.003642 0.000000 0.000000 0.000000
# 2 -0.006377 0.016404 0.001180 0.000000 0.000000 0.000000
# 3 -0.003642 0.001180 0.009182 0.000000 0.000000 0.000000
# 4 0.000000 0.000000 0.000000 0.025596 0.000000 0.000000
# 5 0.000000 0.000000 0.000000 0.000000 0.021471 0.000000
# 6 0.000000 0.000000 0.000000 0.000000 0.000000 0.032635
#
#
# Mechanical properties :
#
#
# Convention : Reuss Voigt Hill
#
# Bulk Modulus (GPa) = 49.32671 54.48359 51.90515
# Shear Modulus (GPa) = 35.18960 38.36028 36.77494
#
# Velocity S-wave (km/s) = 4.09288 4.27329 4.18406
# Velocity P-wave (km/s) = 6.76883 7.09115 6.93186
#
# Compressibility (1/GPa) = 0.02027299
#
# Stress axis : x y z
#
# Youngs Moduli (GPa) = 80.87798 60.95907 108.91433
#
# Poissons Ratio (x) = 0.38871 0.39662
# Poissons Ratio (y) = 0.51573 -0.12847
# Poissons Ratio (z) = 0.29452 -0.07190
#
# Static dielectric constant tensor:
#      x y z
#    x 1.568430 0.000000 0.000000 
#    y 0.000000 1.702550 0.000000 
#    z 0.000000 0.000000 1.888440 
# 
# From -- ./inp_files/43514.got.cif
#   From: 2010.05.17/outbox.cif.g08.bks.cpg/sg22_22_cif.got.tgz:43514.got - 2010.06.03 23:40:54.
