data_PCOD9328130
_publ_section_title
;
Structure prediction by ZEFSAII (Michael W. Deem and Ramdas Pophale) SiO2 
 PCOD9328130
Probable space group: F 2 2 2
;
_chemical_formula_sum "Si O2"
_cell_formula_units_Z 108
_cell_length_a 28.073936
_cell_length_b 30.757364
_cell_length_c 5.838800
_cell_angle_alpha 90.000000
_cell_angle_beta 90.000000
_cell_angle_gamma 90.000000
_cell_volume 5041.688592
_symmetry_space_group_name_H-M "F 2 2 2"
_symmetry_group_IT_number 22
_symmetry_cell_setting 'orthorhombic'
loop_
_space_group_symop_operation_xyz
x,y,z
-x,-y,z
x,-y,-z
-x,y,-z
x,1/2+y,1/2+z
-x,1/2-y,1/2+z
x,1/2-y,1/2-z
-x,1/2+y,1/2-z
1/2+x,y,1/2+z
1/2-x,-y,1/2+z
1/2+x,-y,1/2-z
1/2-x,y,1/2-z
1/2+x,1/2+y,z
1/2-x,1/2-y,z
1/2+x,1/2-y,-z
1/2-x,1/2+y,-z
loop_
_atom_site_type_symbol
_atom_site_label
_atom_site_fract_x
_atom_site_fract_y
_atom_site_fract_z
Si Si1 0.750000 0.750000 0.750000
Si Si2 0.927984 0.270689 0.493348
Si Si3 0.194667 0.600528 0.201371
Si Si4 0.000000 0.846306 0.000000
Si Si5 0.045525 0.905066 0.386168
Si Si6 0.630708 0.120976 0.810035
Si Si7 0.171179 0.188322 0.964972
Si Si8 0.117893 0.950611 0.070479
O O1 0.782785 0.781475 0.911610
O O2 0.948349 0.250000 0.250000
O O3 0.955724 0.315072 0.540873
O O4 0.874140 0.281678 0.428431
O O5 0.929098 0.250000 0.750000
O O6 0.250000 0.600448 0.250000
O O7 0.175259 0.646853 0.296973
O O8 0.169609 0.561055 0.330860
O O9 0.174542 0.599022 0.945976
O O10 0.982652 0.874751 0.790132
O O11 0.084097 0.875548 0.526803
O O12 0.079021 0.939311 0.260962
O O13 0.000000 0.927833 0.500000
O O14 0.655549 0.163894 0.702381
O O15 0.612087 0.086241 0.624062
O O16 0.113953 0.000000 0.000000
#
# Coordination Sequence:
#
# PCOD9328130 Si02
#       8
#     4  16  16   8  16  16  16  16
#     4  12  24  48  66 104 142 188 258 304 370 422
#     4  12  28  46  68 105 145 192 248 319 384 439
#     4  10  22  44  69 102 136 186 243 288 358 440
#     4  12  26  46  71  96 136 190 242 300 365 448
#     4  11  23  43  73 102 133 188 241 284 362 445
#     4  10  23  44  73  98 137 191 226 299 360 436
#     4  11  24  45  68  97 144 189 242 307 361 437
#     4  10  23  45  67 107 147 176 226 291 361 436
#
# _framework density 21.421393999999999
#
# number of rings (size 3 to 8) (size 9 to 14) (size 15 to 20)
#    0.000    1.185    1.481    4.889    6.222    4.741 
#    5.333    6.296    0.000    0.000    0.000    0.000 
#    0.000    0.000    0.000    0.000    0.000    0.000 
#
# Total GULP energy -150461.265262 kJ/mol
# GULP energy per Si atom -5572.639454 kJ/mol
# Density = 2.137264 g / cm^3
# Si number density = 21.421394 Si / 1000 Ang^3
#
#
#
# Elastic Constant Matrix: (Units=GPa)
#
#
# Indices 1 2 3 4 5 6 
#
# 1 -1421.8046 -654.5034 353.3445 -2.0556 0.7010 0.6138
# 2 -654.5034 -198.6676 174.8605 -0.8656 0.3024 0.1630
# 3 353.3445 174.8605 31.2030 0.3655 0.1348 -0.0947
# 4 -2.0556 -0.8656 0.3655 18.9042 0.1008 -0.0016
# 5 0.7010 0.3024 0.1348 0.1008 24.1943 -0.1669
# 6 0.6138 0.1630 -0.0947 -0.0016 -0.1669 17.2091
#
#
#
# Elastic Compliance Matrix: (Units=1/GPa)
#
#
# Indices 1 2 3 4 5 6 
#
# 1 0.002144 -0.004792 0.002580 -0.000036 -0.000017 -0.000017
# 2 -0.004792 0.009865 -0.001012 -0.000050 0.000022 0.000072
# 3 0.002580 -0.001012 0.008506 0.000070 -0.000110 -0.000037
# 4 -0.000036 -0.000050 0.000070 0.052892 -0.000219 0.000005
# 5 -0.000017 0.000022 -0.000110 -0.000219 0.041337 0.000401
# 6 -0.000017 0.000072 -0.000037 0.000005 0.000401 0.058113
#
#
# Mechanical properties :
#
#
# Convention : Reuss Voigt Hill
#
# Bulk Modulus (GPa) = 71.09380 -204.65178 -66.77899
# Shear Modulus (GPa) = 27.17475 -85.46988 -29.14756
#
# Velocity S-wave (km/s) = 3.56558 -6.32344 -3.69274
# Velocity P-wave (km/s) = 7.08600 12.20894 7.03018
#
# Compressibility (1/GPa) = 0.01406592
#
# Stress axis : x y z
#
# Youngs Moduli (GPa) = 466.43554 101.36877 117.55853
#
# Poissons Ratio (x) = 0.48581 -0.30325
# Poissons Ratio (y) = 2.23539 0.11894
# Poissons Ratio (z) = -1.20320 0.10256
#
# Static dielectric constant tensor:
#      x y z
#    x 1.676140 0.000260 0.000310 
#    y 0.000260 1.779550 -0.000050 
#    z 0.000310 -0.000050 1.931780 
# 
# From -- ./inp_files/6731.got.cif
#   From: 2010.05.17/outbox.cif.g08.bks.cpg/sg22_4_cif.got.tgz:6731.got - 2010.06.03 23:40:54.
