data_PCOD9328027
_publ_section_title
;
Structure prediction by ZEFSAII (Michael W. Deem and Ramdas Pophale) SiO2 
 PCOD9328027
Probable space group: F 2 2 2
;
_chemical_formula_sum "Si O2"
_cell_formula_units_Z 108
_cell_length_a 14.063191
_cell_length_b 25.353719
_cell_length_c 14.484848
_cell_angle_alpha 90.000000
_cell_angle_beta 90.000000
_cell_angle_gamma 90.000000
_cell_volume 5164.633287
_symmetry_space_group_name_H-M "F 2 2 2"
_symmetry_group_IT_number 22
_symmetry_cell_setting 'orthorhombic'
loop_
_space_group_symop_operation_xyz
x,y,z
-x,-y,z
x,-y,-z
-x,y,-z
x,1/2+y,1/2+z
-x,1/2-y,1/2+z
x,1/2-y,1/2-z
-x,1/2+y,1/2-z
1/2+x,y,1/2+z
1/2-x,-y,1/2+z
1/2+x,-y,1/2-z
1/2-x,y,1/2-z
1/2+x,1/2+y,z
1/2-x,1/2-y,z
1/2+x,1/2-y,-z
1/2-x,1/2+y,-z
loop_
_atom_site_type_symbol
_atom_site_label
_atom_site_fract_x
_atom_site_fract_y
_atom_site_fract_z
Si Si1 0.740519 0.873092 0.853981
Si Si2 0.548179 0.830057 0.831585
Si Si3 0.105687 0.914040 0.878522
Si Si4 0.500000 0.734004 0.500000
Si Si5 0.053806 0.325863 0.621454
Si Si6 0.791946 0.559147 0.026638
Si Si7 0.046914 0.057659 0.322915
Si Si8 0.000000 0.500000 0.500000
O O1 0.750000 0.894793 0.750000
O O2 0.661424 0.826760 0.851798
O O3 0.847391 0.857148 0.880118
O O4 0.700996 0.912491 0.929290
O O5 0.535437 0.808868 0.727806
O O6 0.524125 0.892504 0.827812
O O7 0.484013 0.804286 0.912072
O O8 0.212154 0.909698 0.915367
O O9 0.104124 0.929421 0.770993
O O10 0.036304 0.864219 0.897573
O O11 0.060891 0.962354 0.934856
O O12 0.565913 0.776895 0.552380
O O13 0.886704 0.557634 0.087267
O O14 0.762765 0.500000 0.000000
O O15 0.000000 0.000000 0.314500
#
# Coordination Sequence:
#
# PCOD9328027 Si02
#       8
#    16  16  16   8  16  16  16   4
#     4  10  22  42  63  92 126 164 211 268 320 384
#     4  10  23  40  66  93 125 167 214 256 320 387
#     4  11  23  40  62  94 124 164 211 267 316 381
#     4  12  21  40  63  91 126 163 204 260 310 368
#     4  10  23  41  65  92 128 162 209 266 324 372
#     4  12  24  36  60  92 127 170 215 255 320 389
#     4  11  24  44  63  89 131 173 210 264 319 383
#     4  12  18  36  64  88 120 158 212 256 318 368
#
# _framework density 20.911456000000001
#
# number of rings (size 3 to 8) (size 9 to 14) (size 15 to 20)
#    0.000    1.185    1.481    4.889    0.000    4.444 
#    0.000    3.704    0.000    0.000    0.000   10.370 
#    0.000    0.000    0.000    0.000    0.000    0.000 
#
# Total GULP energy -150610.317544 kJ/mol
# GULP energy per Si atom -5578.159909 kJ/mol
# Density = 2.086386 g / cm^3
# Si number density = 20.911456 Si / 1000 Ang^3
#
#
#
# Elastic Constant Matrix: (Units=GPa)
#
#
# Indices 1 2 3 4 5 6 
#
# 1 63.2810 3.2946 23.8795 0.0000 0.0000 0.0000
# 2 3.2946 60.8586 29.3701 0.0000 0.0000 0.0000
# 3 23.8795 29.3701 153.8500 0.0000 0.0000 0.0000
# 4 0.0000 0.0000 0.0000 31.5929 0.0000 0.0000
# 5 0.0000 0.0000 0.0000 0.0000 -17.2901 0.0000
# 6 0.0000 0.0000 0.0000 0.0000 0.0000 22.8287
#
#
#
# Elastic Compliance Matrix: (Units=1/GPa)
#
#
# Indices 1 2 3 4 5 6 
#
# 1 0.016794 0.000384 -0.002680 0.000000 0.000000 0.000000
# 2 0.000384 0.018108 -0.003516 0.000000 0.000000 0.000000
# 3 -0.002680 -0.003516 0.007587 0.000000 0.000000 0.000000
# 4 0.000000 0.000000 0.000000 0.031653 0.000000 0.000000
# 5 0.000000 0.000000 0.000000 0.000000 -0.057836 0.000000
# 6 0.000000 0.000000 0.000000 0.000000 0.000000 0.043805
#
#
# Mechanical properties :
#
#
# Convention : Reuss Voigt Hill
#
# Bulk Modulus (GPa) = 32.39988 43.45311 37.92649
# Shear Modulus (GPa) = 60.95936 22.18933 41.57434
#
# Velocity S-wave (km/s) = 5.40504 3.26100 4.46366
# Velocity P-wave (km/s) = 7.38106 5.91638 6.68893
#
# Compressibility (1/GPa) = 0.03086431
#
# Stress axis : x y z
#
# Youngs Moduli (GPa) = 59.54570 55.22500 131.80291
#
# Poissons Ratio (x) = -0.02122 0.35323
# Poissons Ratio (y) = -0.02288 0.46347
# Poissons Ratio (z) = 0.15958 0.19419
#
# Static dielectric constant tensor:
#      x y z
#    x 1.778380 0.000000 0.000000 
#    y 0.000000 1.784670 0.000000 
#    z 0.000000 0.000000 1.710650 
# 
# From -- ./inp_files/29662.got.cif
#   From: 2010.05.17/outbox.cif.g08.bks.cpg/sg22_15_cif.got.tgz:29662.got - 2010.06.03 23:40:54.
