data_PCOD9328031
_publ_section_title
;
Structure prediction by ZEFSAII (Michael W. Deem and Ramdas Pophale) SiO2 
 PCOD9328031
Probable space group: F 2 2 2
;
_chemical_formula_sum "Si O2"
_cell_formula_units_Z 52
_cell_length_a 30.929149
_cell_length_b 14.649153
_cell_length_c 5.436159
_cell_angle_alpha 90.000000
_cell_angle_beta 90.000000
_cell_angle_gamma 90.000000
_cell_volume 2463.046644
_symmetry_space_group_name_H-M "F 2 2 2"
_symmetry_group_IT_number 22
_symmetry_cell_setting 'orthorhombic'
loop_
_space_group_symop_operation_xyz
x,y,z
-x,-y,z
x,-y,-z
-x,y,-z
x,1/2+y,1/2+z
-x,1/2-y,1/2+z
x,1/2-y,1/2-z
-x,1/2+y,1/2-z
1/2+x,y,1/2+z
1/2-x,-y,1/2+z
1/2+x,-y,1/2-z
1/2-x,y,1/2-z
1/2+x,1/2+y,z
1/2-x,1/2-y,z
1/2+x,1/2-y,-z
1/2-x,1/2+y,-z
loop_
_atom_site_type_symbol
_atom_site_label
_atom_site_fract_x
_atom_site_fract_y
_atom_site_fract_z
Si Si1 0.226761 0.109574 0.000936
Si Si2 0.457468 0.144656 0.661796
Si Si3 0.367903 0.809524 0.501152
Si Si4 0.500000 0.500000 0.500000
O O1 0.250000 0.142191 0.750000
O O2 0.176724 0.136204 0.010381
O O3 0.250000 0.142799 0.250000
O O4 0.230063 0.000000 0.000000
O O5 0.500000 0.135658 0.500000
O O6 0.457187 0.250000 0.750000
O O7 0.411863 0.132076 0.525630
O O8 0.467121 0.068935 0.864049
O O9 0.365495 0.750000 0.250000
O O10 0.371730 0.750000 0.750000
#
# Coordination Sequence:
#
# PCOD9328031 Si02
#       4
#    16  16  16   4
#     4  10  22  42  64  96 137 177 225 287 342 410
#     4  11  24  46  70 101 148 180 244 300 352 425
#     4  11  25  43  70 101 135 182 227 288 352 408
#     4  12  26  44  76 104 132 216 222 292 378 422
#
# _framework density 21.112064
#
# number of rings (size 3 to 8) (size 9 to 14) (size 15 to 20)
#    0.000    1.231    1.538    3.231    4.308    6.154 
#    8.308    0.000    0.000    0.000    0.000    0.000 
#    0.000    0.000    0.000    0.000    0.000    0.000 
#
# Total GULP energy -72614.159625 kJ/mol
# GULP energy per Si atom -5585.704587 kJ/mol
# Density = 2.106401 g / cm^3
# Si number density = 21.112064 Si / 1000 Ang^3
#
#
#
# Elastic Constant Matrix: (Units=GPa)
#
#
# Indices 1 2 3 4 5 6 
#
# 1 219.7647 41.9823 84.2511 0.0000 0.0000 0.0000
# 2 41.9823 110.0787 56.2547 0.0000 0.0000 0.0000
# 3 84.2511 56.2547 165.1323 0.0000 0.0000 0.0001
# 4 0.0000 0.0000 0.0000 3.5998 0.0000 0.0000
# 5 0.0000 0.0000 0.0000 0.0000 48.4345 0.0000
# 6 0.0000 0.0000 0.0001 0.0000 0.0000 112.3744
#
#
#
# Elastic Compliance Matrix: (Units=1/GPa)
#
#
# Indices 1 2 3 4 5 6 
#
# 1 0.005720 -0.000836 -0.002633 0.000000 0.000000 0.000000
# 2 -0.000836 0.011121 -0.003362 0.000000 0.000000 0.000000
# 3 -0.002633 -0.003362 0.008545 0.000000 0.000000 0.000000
# 4 0.000000 0.000000 0.000000 0.277791 0.000000 0.000000
# 5 0.000000 0.000000 0.000000 0.000000 0.020646 0.000000
# 6 0.000000 0.000000 0.000000 0.000000 0.000000 0.008899
#
#
# Mechanical properties :
#
#
# Convention : Reuss Voigt Hill
#
# Bulk Modulus (GPa) = 85.30278 95.55022 90.42650
# Shear Modulus (GPa) = 14.27377 53.71425 33.99401
#
# Velocity S-wave (km/s) = 2.60300 5.04952 4.01705
# Velocity P-wave (km/s) = 7.03752 8.90807 8.02747
#
# Compressibility (1/GPa) = 0.01172295
#
# Stress axis : x y z
#
# Youngs Moduli (GPa) = 174.83937 89.91693 117.03007
#
# Poissons Ratio (x) = 0.07513 0.30820
# Poissons Ratio (y) = 0.14608 0.39350
# Poissons Ratio (z) = 0.46044 0.30233
#
# Static dielectric constant tensor:
#      x y z
#    x 1.735210 0.000000 0.000000 
#    y 0.000000 1.696560 0.000000 
#    z 0.000000 0.000000 1.743170 
# 
# From -- ./inp_files/1834.got.cif
#   From: 2010.05.17/outbox.cif.g08.bks.cpg/sg22_1_cif.got.tgz:1834.got - 2010.06.03 23:40:54.
