data_PCOD9328043
_publ_section_title
;
Structure prediction by ZEFSAII (Michael W. Deem and Ramdas Pophale) SiO2 
 PCOD9328043
Probable space group: F 2 2 2
;
_chemical_formula_sum "Si O2"
_cell_formula_units_Z 80
_cell_length_a 23.161644
_cell_length_b 5.895984
_cell_length_c 27.772198
_cell_angle_alpha 90.000000
_cell_angle_beta 90.000000
_cell_angle_gamma 90.000000
_cell_volume 3792.590312
_symmetry_space_group_name_H-M "F 2 2 2"
_symmetry_group_IT_number 22
_symmetry_cell_setting 'orthorhombic'
loop_
_space_group_symop_operation_xyz
x,y,z
-x,-y,z
x,-y,-z
-x,y,-z
x,1/2+y,1/2+z
-x,1/2-y,1/2+z
x,1/2-y,1/2-z
-x,1/2+y,1/2-z
1/2+x,y,1/2+z
1/2-x,-y,1/2+z
1/2+x,-y,1/2-z
1/2-x,y,1/2-z
1/2+x,1/2+y,z
1/2-x,1/2-y,z
1/2+x,1/2-y,-z
1/2-x,1/2+y,-z
loop_
_atom_site_type_symbol
_atom_site_label
_atom_site_fract_x
_atom_site_fract_y
_atom_site_fract_z
Si Si1 0.889169 0.023331 0.338250
Si Si2 0.307255 0.103136 0.682595
Si Si3 0.685706 0.728008 0.093075
Si Si4 0.075806 0.755356 0.974313
Si Si5 0.643230 0.750000 0.250000
Si Si6 0.000000 0.500000 0.903145
O O1 0.865061 0.249948 0.315747
O O2 0.945925 0.058515 0.369547
O O3 0.838163 0.933974 0.373738
O O4 0.894049 0.847045 0.294330
O O5 0.250000 0.250000 0.686622
O O6 0.308860 0.974633 0.631536
O O7 0.314611 0.931504 0.726047
O O8 0.750000 0.750000 0.072347
O O9 0.635948 0.704406 0.053785
O O10 0.023620 0.701640 0.937162
O O11 0.081008 0.500000 0.000000
O O12 0.066267 0.000000 0.000000
#
# Coordination Sequence:
#
# PCOD9328043 Si02
#       6
#    16  16  16  16   8   8
#     4  10  22  44  65  98 136 193 229 291 344 416
#     4  11  22  40  70  98 143 187 231 288 353 427
#     4  10  22  42  67 101 142 180 232 280 361 430
#     4  11  27  48  75 111 140 183 242 301 363 432
#     4  10  24  41  58 112 136 178 249 282 352 412
#     4  10  25  50  72 100 140 188 244 290 363 428
#
# _framework density 21.093764
#
# number of rings (size 3 to 8) (size 9 to 14) (size 15 to 20)
#    0.000    1.600    2.000    0.900    5.600    4.800 
#   10.800    0.000    0.000    0.000    0.000    0.000 
#    0.000    0.000    0.000    0.000    0.000    0.000 
#
# Total GULP energy -111603.462630 kJ/mol
# GULP energy per Si atom -5580.173132 kJ/mol
# Density = 2.104575 g / cm^3
# Si number density = 21.093764 Si / 1000 Ang^3
#
#
#
# Elastic Constant Matrix: (Units=GPa)
#
#
# Indices 1 2 3 4 5 6 
#
# 1 167.6379 76.8699 83.6730 0.0009 0.0001 -0.0030
# 2 76.8699 133.4533 74.1922 0.0039 0.0016 0.0024
# 3 83.6730 74.1922 115.2962 0.0003 0.0000 0.0003
# 4 0.0009 0.0039 0.0003 31.2516 0.0002 0.0006
# 5 0.0001 0.0016 0.0000 0.0002 24.7058 0.0012
# 6 -0.0030 0.0024 0.0003 0.0006 0.0012 15.3903
#
#
#
# Elastic Compliance Matrix: (Units=1/GPa)
#
#
# Indices 1 2 3 4 5 6 
#
# 1 0.009928 -0.002667 -0.005488 0.000000 0.000000 0.000002
# 2 -0.002667 0.012384 -0.006033 -0.000001 -0.000001 -0.000002
# 3 -0.005488 -0.006033 0.016539 0.000001 0.000000 0.000000
# 4 0.000000 -0.000001 0.000001 0.031998 0.000000 -0.000001
# 5 0.000000 -0.000001 0.000000 0.000000 0.040476 -0.000003
# 6 0.000002 -0.000002 0.000000 -0.000001 -0.000003 0.064976
#
#
# Mechanical properties :
#
#
# Convention : Reuss Voigt Hill
#
# Bulk Modulus (GPa) = 95.48827 98.42862 96.95844
# Shear Modulus (GPa) = 24.01892 26.37968 25.19930
#
# Velocity S-wave (km/s) = 3.37809 3.54021 3.46010
# Velocity P-wave (km/s) = 7.78345 7.96709 7.87580
#
# Compressibility (1/GPa) = 0.01047249
#
# Stress axis : x y z
#
# Youngs Moduli (GPa) = 100.72816 80.75172 60.46428
#
# Poissons Ratio (x) = 0.21538 0.33186
# Poissons Ratio (y) = 0.26866 0.36479
# Poissons Ratio (z) = 0.55284 0.48719
#
# Static dielectric constant tensor:
#      x y z
#    x 1.722170 0.000000 0.000000 
#    y 0.000000 1.833080 0.000000 
#    z 0.000000 0.000000 1.847800 
# 
# From -- ./inp_files/57065.got.cif
#   From: 2010.05.17/outbox.cif.g08.bks.cpg/sg22_29_cif.got.tgz:57065.got - 2010.06.03 23:40:54.
