data_PCOD9328839
_publ_section_title
;
Structure prediction by ZEFSAII (Michael W. Deem and Ramdas Pophale) SiO2 
 PCOD9328839
Probable space group: F 2 2 2
;
_chemical_formula_sum "Si O2"
_cell_formula_units_Z 68
_cell_length_a 15.036913
_cell_length_b 11.131074
_cell_length_c 18.171286
_cell_angle_alpha 90.000000
_cell_angle_beta 90.000000
_cell_angle_gamma 90.000000
_cell_volume 3041.455179
_symmetry_space_group_name_H-M "F 2 2 2"
_symmetry_group_IT_number 22
_symmetry_cell_setting 'orthorhombic'
loop_
_space_group_symop_operation_xyz
x,y,z
-x,-y,z
x,-y,-z
-x,y,-z
x,1/2+y,1/2+z
-x,1/2-y,1/2+z
x,1/2-y,1/2-z
-x,1/2+y,1/2-z
1/2+x,y,1/2+z
1/2-x,-y,1/2+z
1/2+x,-y,1/2-z
1/2-x,y,1/2-z
1/2+x,1/2+y,z
1/2-x,1/2-y,z
1/2+x,1/2-y,-z
1/2-x,1/2+y,-z
loop_
_atom_site_type_symbol
_atom_site_label
_atom_site_fract_x
_atom_site_fract_y
_atom_site_fract_z
Si Si1 0.870922 0.020367 0.414212
Si Si2 0.647190 0.226532 0.836930
Si Si3 0.195810 0.635702 0.392721
Si Si4 0.022566 0.261883 0.583262
Si Si5 0.250000 0.750000 0.250000
O O1 0.885162 0.906360 0.362236
O O2 0.893176 0.000000 0.500000
O O3 0.764146 0.032476 0.409112
O O4 0.922270 0.141964 0.388756
O O5 0.645061 0.250000 0.750000
O O6 0.750000 0.250000 0.860853
O O7 0.566673 0.299200 0.874693
O O8 0.250000 0.750000 0.427139
O O9 0.096278 0.634235 0.418136
O O10 0.195662 0.665883 0.305438
O O11 0.000000 0.232426 0.500000
#
# Coordination Sequence:
#
# PCOD9328839 Si02
#       5
#    16  16  16  16   4
#     4  11  22  41  71  99 129 177 238 273 342 425
#     4  11  27  44  60  97 146 188 220 291 359 401
#     4   8  20  36  64  97 124 164 209 289 333 396
#     4  11  22  40  73 102 128 171 236 288 339 414
#     4   8  16  36  56  88 120 152 210 252 340 376
#
# _framework density 22.35772
#
# number of rings (size 3 to 8) (size 9 to 14) (size 15 to 20)
#    0.706    1.176    2.353    0.706    4.941    1.882 
#    0.000    5.882    0.000    0.000    0.000    0.000 
#    0.000    0.000    0.000    0.000    0.000    0.000 
#
# Total GULP energy -94646.136086 kJ/mol
# GULP energy per Si atom -5567.419770 kJ/mol
# Density = 2.230683 g / cm^3
# Si number density = 22.357720 Si / 1000 Ang^3
#
#
#
# Elastic Constant Matrix: (Units=GPa)
#
#
# Indices 1 2 3 4 5 6 
#
# 1 215.8835 8.5727 34.6483 0.0000 0.0000 0.0000
# 2 8.5727 27.7421 17.2629 0.0000 0.0000 0.0000
# 3 34.6483 17.2629 86.4835 0.0000 0.0000 0.0000
# 4 0.0000 0.0000 0.0000 1.6951 0.0000 0.0000
# 5 0.0000 0.0000 0.0000 0.0000 27.9860 0.0000
# 6 0.0000 0.0000 0.0000 0.0000 0.0000 38.5862
#
#
#
# Elastic Compliance Matrix: (Units=1/GPa)
#
#
# Indices 1 2 3 4 5 6 
#
# 1 0.004953 -0.000338 -0.001917 0.000000 0.000000 0.000000
# 2 -0.000338 0.041182 -0.008085 0.000000 0.000000 0.000000
# 3 -0.001917 -0.008085 0.013945 0.000000 0.000000 0.000000
# 4 0.000000 0.000000 0.000000 0.589937 0.000000 0.000000
# 5 0.000000 0.000000 0.000000 0.000000 0.035732 0.000000
# 6 0.000000 0.000000 0.000000 0.000000 0.000000 0.025916
#
#
# Mechanical properties :
#
#
# Convention : Reuss Voigt Hill
#
# Bulk Modulus (GPa) = 25.38053 50.11967 37.75010
# Shear Modulus (GPa) = 6.70711 31.62848 19.16779
#
# Velocity S-wave (km/s) = 1.73390 3.76527 2.93118
# Velocity P-wave (km/s) = 3.92240 6.43186 5.32701
#
# Compressibility (1/GPa) = 0.03940028
#
# Stress axis : x y z
#
# Youngs Moduli (GPa) = 201.88924 24.28265 71.71162
#
# Poissons Ratio (x) = 0.00820 0.13747
# Poissons Ratio (y) = 0.06818 0.57978
# Poissons Ratio (z) = 0.38703 0.19632
#
# Static dielectric constant tensor:
#      x y z
#    x 2.003710 0.000000 0.000000 
#    y 0.000000 1.921740 0.000000 
#    z 0.000000 0.000000 1.778610 
# 
# From -- ./inp_files/43296.got.cif
#   From: 2010.05.17/outbox.cif.g08.bks.cpg/sg22_22_cif.got.tgz:43296.got - 2010.06.03 23:40:54.
