data_PCOD9328649
_publ_section_title
;
Structure prediction by ZEFSAII (Michael W. Deem and Ramdas Pophale) SiO2 
 PCOD9328649
Probable space group: F 2 2 2
;
_chemical_formula_sum "Si O2"
_cell_formula_units_Z 96
_cell_length_a 23.835767
_cell_length_b 19.453346
_cell_length_c 9.243997
_cell_angle_alpha 90.000000
_cell_angle_beta 90.000000
_cell_angle_gamma 90.000000
_cell_volume 4286.306656
_symmetry_space_group_name_H-M "F 2 2 2"
_symmetry_group_IT_number 22
_symmetry_cell_setting 'orthorhombic'
loop_
_space_group_symop_operation_xyz
x,y,z
-x,-y,z
x,-y,-z
-x,y,-z
x,1/2+y,1/2+z
-x,1/2-y,1/2+z
x,1/2-y,1/2-z
-x,1/2+y,1/2-z
1/2+x,y,1/2+z
1/2-x,-y,1/2+z
1/2+x,-y,1/2-z
1/2-x,y,1/2-z
1/2+x,1/2+y,z
1/2-x,1/2-y,z
1/2+x,1/2-y,-z
1/2-x,1/2+y,-z
loop_
_atom_site_type_symbol
_atom_site_label
_atom_site_fract_x
_atom_site_fract_y
_atom_site_fract_z
Si Si1 0.163517 0.144488 0.012341
Si Si2 0.553658 0.137107 0.916535
Si Si3 0.886494 0.500000 0.000000
Si Si4 0.185986 0.575760 0.220883
Si Si5 0.250000 0.644314 0.750000
Si Si6 0.957743 0.314722 0.634784
Si Si7 0.671698 0.200736 0.995789
O O1 0.206930 0.113178 0.130438
O O2 0.104198 0.165079 0.081014
O O3 0.183846 0.220790 0.960873
O O4 0.158926 0.096678 0.873190
O O5 0.532541 0.126183 0.753364
O O6 0.606913 0.186795 0.949349
O O7 0.575522 0.065533 0.975901
O O8 0.500000 0.163406 0.000000
O O9 0.846586 0.516485 0.864153
O O10 0.250000 0.556461 0.250000
O O11 0.185141 0.643510 0.116760
O O12 0.292334 0.685509 0.646948
O O13 0.961566 0.250000 0.750000
O O14 0.000000 0.312154 0.500000
#
# Coordination Sequence:
#
# PCOD9328649 Si02
#       7
#    16  16   8  16   8  16  16
#     4  12  23  40  69 110 152 190 228 287 364 437
#     4  11  24  48  74  97 139 192 242 296 356 424
#     4  10  27  52  74  92 136 194 255 304 370 398
#     4  11  25  45  69 104 136 188 243 305 353 428
#     4  12  21  38  66 102 160 196 218 274 351 448
#     4  12  26  43  71 115 147 185 231 292 369 433
#     4  11  22  39  69 107 149 184 231 282 366 431
#
# _framework density 22.396905
#
# number of rings (size 3 to 8) (size 9 to 14) (size 15 to 20)
#    0.000    0.667    5.000    2.750    4.667    0.667 
#    9.000    0.000    0.000    0.000    0.000    0.000 
#    0.000    0.000    0.000    0.000    0.000    0.000 
#
# Total GULP energy -133992.290916 kJ/mol
# GULP energy per Si atom -5583.012121 kJ/mol
# Density = 2.234593 g / cm^3
# Si number density = 22.396905 Si / 1000 Ang^3
#
#
#
# Elastic Constant Matrix: (Units=GPa)
#
#
# Indices 1 2 3 4 5 6 
#
# 1 159.2949 11.8140 75.9159 0.0000 0.0000 0.0000
# 2 11.8140 17.4653 7.1130 0.0000 0.0000 -0.0001
# 3 75.9159 7.1130 120.4040 0.0000 0.0000 -0.0001
# 4 0.0000 0.0000 0.0000 32.0383 0.0000 0.0000
# 5 0.0000 0.0000 0.0000 0.0000 57.0819 0.0000
# 6 0.0000 -0.0001 -0.0001 0.0000 0.0000 -51.2213
#
#
#
# Elastic Compliance Matrix: (Units=1/GPa)
#
#
# Indices 1 2 3 4 5 6 
#
# 1 0.009236 -0.003971 -0.005588 0.000000 0.000000 0.000000
# 2 -0.003971 0.060375 -0.001063 0.000000 0.000000 0.000000
# 3 -0.005588 -0.001063 0.011892 0.000000 0.000000 0.000000
# 4 0.000000 0.000000 0.000000 0.031213 0.000000 0.000000
# 5 0.000000 0.000000 0.000000 0.000000 0.017519 0.000000
# 6 0.000000 0.000000 0.000000 0.000000 0.000000 -0.019523
#
#
# Mechanical properties :
#
#
# Convention : Reuss Voigt Hill
#
# Bulk Modulus (GPa) = 16.59542 54.09444 35.34493
# Shear Modulus (GPa) = 32.88571 21.06787 26.97679
#
# Velocity S-wave (km/s) = 3.83602 3.07035 3.47434
# Velocity P-wave (km/s) = 5.20056 6.06419 5.64890
#
# Compressibility (1/GPa) = 0.06025760
#
# Stress axis : x y z
#
# Youngs Moduli (GPa) = 108.27772 16.56305 84.09196
#
# Poissons Ratio (x) = 0.06577 0.46995
# Poissons Ratio (y) = 0.42999 0.08938
# Poissons Ratio (z) = 0.60511 0.01760
#
# Static dielectric constant tensor:
#      x y z
#    x 1.846680 0.000000 0.000000 
#    y 0.000000 1.919950 0.000000 
#    z 0.000000 0.000000 1.922040 
# 
# From -- ./inp_files/13924.got.cif
#   From: 2010.05.17/outbox.cif.g08.bks.cpg/sg22_7_cif.got.tgz:13924.got - 2010.06.03 23:40:54.
