data_PCOD9328836
_publ_section_title
;
Structure prediction by ZEFSAII (Michael W. Deem and Ramdas Pophale) SiO2 
 PCOD9328836
Probable space group: F 2 2 2
;
_chemical_formula_sum "Si O2"
_cell_formula_units_Z 116
_cell_length_a 18.858535
_cell_length_b 15.943237
_cell_length_c 20.084517
_cell_angle_alpha 90.000000
_cell_angle_beta 90.000000
_cell_angle_gamma 90.000000
_cell_volume 6038.733256
_symmetry_space_group_name_H-M "F 2 2 2"
_symmetry_group_IT_number 22
_symmetry_cell_setting 'orthorhombic'
loop_
_space_group_symop_operation_xyz
x,y,z
-x,-y,z
x,-y,-z
-x,y,-z
x,1/2+y,1/2+z
-x,1/2-y,1/2+z
x,1/2-y,1/2-z
-x,1/2+y,1/2-z
1/2+x,y,1/2+z
1/2-x,-y,1/2+z
1/2+x,-y,1/2-z
1/2-x,y,1/2-z
1/2+x,1/2+y,z
1/2-x,1/2-y,z
1/2+x,1/2-y,-z
1/2-x,1/2+y,-z
loop_
_atom_site_type_symbol
_atom_site_label
_atom_site_fract_x
_atom_site_fract_y
_atom_site_fract_z
Si Si1 0.923947 0.225510 0.529108
Si Si2 0.929703 0.541485 0.073278
Si Si3 0.500000 0.500000 0.000000
Si Si4 0.067343 0.377261 0.390946
Si Si5 0.852520 0.509357 0.697533
Si Si6 0.173136 0.711109 0.097978
Si Si7 0.931807 0.815106 0.811030
Si Si8 0.802587 0.527706 0.845687
O O1 0.940796 0.140603 0.568564
O O2 0.892538 0.300394 0.573376
O O3 0.871260 0.201051 0.469649
O O4 0.000000 0.255286 0.500000
O O5 0.854208 0.523325 0.106034
O O6 0.000000 0.500000 0.106602
O O7 0.927069 0.500000 0.000000
O O8 0.544533 0.558936 0.050092
O O9 0.105954 0.432374 0.335109
O O10 0.001081 0.332467 0.354989
O O11 0.901165 0.592308 0.704036
O O12 0.825170 0.498090 0.772348
O O13 0.782450 0.521124 0.651779
O O14 0.250000 0.750000 0.084759
O O15 0.128340 0.772856 0.144046
O O16 0.180307 0.624325 0.137818
O O17 0.944550 0.750000 0.750000
#
# Coordination Sequence:
#
# PCOD9328836 Si02
#       8
#    16  16   4  16  16  16  16  16
#     4  12  23  42  65  97 137 174 222 283 344 400
#     4  11  22  40  69 101 134 171 222 289 347 404
#     4  12  20  40  68  88 138 180 216 276 332 416
#     4  12  26  43  66 100 139 185 228 272 342 417
#     4  11  25  45  64  96 139 183 227 276 342 417
#     4  12  23  38  67 103 133 168 221 287 354 399
#     4  12  23  39  69 100 130 171 224 286 341 397
#     4  11  24  43  69  95 135 181 225 284 344 408
#
# _framework density 19.209326000000001
#
# number of rings (size 3 to 8) (size 9 to 14) (size 15 to 20)
#    0.000    0.414    8.966    0.000    0.000    3.586 
#    1.241    0.000    0.000    1.655    0.000    0.000 
#    0.000    0.000    0.000    0.000    0.000    0.000 
#
# Total GULP energy -161869.615513 kJ/mol
# GULP energy per Si atom -5581.710880 kJ/mol
# Density = 1.916561 g / cm^3
# Si number density = 19.209326 Si / 1000 Ang^3
#
#
#
# Elastic Constant Matrix: (Units=GPa)
#
#
# Indices 1 2 3 4 5 6 
#
# 1 78.4711 18.0735 40.2136 0.0000 0.0000 0.0000
# 2 18.0735 118.0066 31.8207 0.0000 0.0000 0.0000
# 3 40.2136 31.8207 65.8321 0.0000 0.0000 0.0000
# 4 0.0000 0.0000 0.0000 34.5709 0.0000 0.0000
# 5 0.0000 0.0000 0.0000 0.0000 27.9611 0.0000
# 6 0.0000 0.0000 0.0000 0.0000 0.0000 9.1098
#
#
#
# Elastic Compliance Matrix: (Units=1/GPa)
#
#
# Indices 1 2 3 4 5 6 
#
# 1 0.018557 0.000247 -0.011455 0.000000 0.000000 0.000000
# 2 0.000247 0.009747 -0.004862 0.000000 0.000000 0.000000
# 3 -0.011455 -0.004862 0.024537 0.000000 0.000000 0.000000
# 4 0.000000 0.000000 0.000000 0.028926 0.000000 0.000000
# 5 0.000000 0.000000 0.000000 0.000000 0.035764 0.000000
# 6 0.000000 0.000000 0.000000 0.000000 0.000000 0.109772
#
#
# Mechanical properties :
#
#
# Convention : Reuss Voigt Hill
#
# Bulk Modulus (GPa) = 48.30617 49.16946 48.73782
# Shear Modulus (GPa) = 18.77270 25.80850 22.29060
#
# Velocity S-wave (km/s) = 3.12952 3.66941 3.41017
# Velocity P-wave (km/s) = 6.18550 6.60341 6.39787
#
# Compressibility (1/GPa) = 0.02070129
#
# Stress axis : x y z
#
# Youngs Moduli (GPa) = 53.88848 102.59122 40.75403
#
# Poissons Ratio (x) = -0.02531 0.46682
# Poissons Ratio (y) = -0.01329 0.19815
# Poissons Ratio (z) = 0.61728 0.49882
#
# Static dielectric constant tensor:
#      x y z
#    x 1.684600 0.000000 0.000000 
#    y 0.000000 1.679290 0.000000 
#    z 0.000000 0.000000 1.691720 
# 
# From -- ./inp_files/38138.got.cif
#   From: 2010.05.17/outbox.cif.g08.bks.cpg/sg22_20_cif.got.tgz:38138.got - 2010.06.03 23:40:54.
