data_PCOD9328524
_publ_section_title
;
Structure prediction by ZEFSAII (Michael W. Deem and Ramdas Pophale) SiO2 
 PCOD9328524
Probable space group: F 2 2 2
;
_chemical_formula_sum "Si O2"
_cell_formula_units_Z 96
_cell_length_a 10.742093
_cell_length_b 25.075933
_cell_length_c 18.265342
_cell_angle_alpha 90.000000
_cell_angle_beta 90.000000
_cell_angle_gamma 90.000000
_cell_volume 4920.098723
_symmetry_space_group_name_H-M "F 2 2 2"
_symmetry_group_IT_number 22
_symmetry_cell_setting 'orthorhombic'
loop_
_space_group_symop_operation_xyz
x,y,z
-x,-y,z
x,-y,-z
-x,y,-z
x,1/2+y,1/2+z
-x,1/2-y,1/2+z
x,1/2-y,1/2-z
-x,1/2+y,1/2-z
1/2+x,y,1/2+z
1/2-x,-y,1/2+z
1/2+x,-y,1/2-z
1/2-x,y,1/2-z
1/2+x,1/2+y,z
1/2-x,1/2-y,z
1/2+x,1/2-y,-z
1/2-x,1/2+y,-z
loop_
_atom_site_type_symbol
_atom_site_label
_atom_site_fract_x
_atom_site_fract_y
_atom_site_fract_z
Si Si1 0.055752 0.059224 0.806266
Si Si2 0.275299 0.187216 0.165554
Si Si3 0.092619 0.615508 0.569926
Si Si4 0.493849 0.359202 0.420297
Si Si5 0.319695 0.461325 0.433477
Si Si6 0.344933 0.436223 0.655672
O O1 0.200688 0.065736 0.824252
O O2 0.055673 0.071677 0.720448
O O3 0.987231 0.099019 0.859802
O O4 0.000000 0.000000 0.817816
O O5 0.250000 0.167518 0.250000
O O6 0.250000 0.250000 0.165852
O O7 0.185484 0.160533 0.103381
O O8 0.416578 0.174637 0.139010
O O9 0.182876 0.564204 0.556559
O O10 0.000000 0.625496 0.500000
O O11 0.500000 0.331893 0.500000
O O12 0.411043 0.412132 0.430860
O O13 0.624136 0.386636 0.397703
O O14 0.344655 0.500000 0.500000
O O15 0.348915 0.501754 0.367964
#
# Coordination Sequence:
#
# PCOD9328524 Si02
#       6
#    16  16  16  16  16  16
#     4  11  22  36  53  82 128 169 210 249 303 370
#     4  10  24  47  71  91 119 162 213 274 342 399
#     4  11  24  38  64  91 122 163 212 268 316 382
#     4  11  22  35  61  91 120 158 208 260 311 371
#     4  11  20  34  54  82 127 166 206 238 301 368
#     4  11  22  34  54  83 125 174 210 251 298 370
#
# _framework density 19.511803
#
# number of rings (size 3 to 8) (size 9 to 14) (size 15 to 20)
#    0.000    1.167    3.333    3.500    2.333    2.000 
#    0.000    0.000    0.000    0.000    0.000    4.667 
#    0.000    0.000    0.000    0.000    0.000    0.000 
#
# Total GULP energy -133651.060780 kJ/mol
# GULP energy per Si atom -5568.794199 kJ/mol
# Density = 1.946739 g / cm^3
# Si number density = 19.511803 Si / 1000 Ang^3
#
#
#
# Elastic Constant Matrix: (Units=GPa)
#
#
# Indices 1 2 3 4 5 6 
#
# 1 75.7456 12.7007 16.2689 0.0000 0.0000 0.0000
# 2 12.7007 56.6929 16.4612 0.0000 0.0000 0.0000
# 3 16.2689 16.4612 75.3069 0.0000 0.0000 0.0000
# 4 0.0000 0.0000 0.0000-1366.6379 0.0000 0.0000
# 5 0.0000 0.0000 0.0000 0.0000 40.3407 0.0000
# 6 0.0000 0.0000 0.0000 0.0000 0.0000 30.7769
#
#
#
# Elastic Compliance Matrix: (Units=1/GPa)
#
#
# Indices 1 2 3 4 5 6 
#
# 1 0.014153 -0.002438 -0.002525 0.000000 0.000000 0.000000
# 2 -0.002438 0.019254 -0.003682 0.000000 0.000000 0.000000
# 3 -0.002525 -0.003682 0.014629 0.000000 0.000000 0.000000
# 4 0.000000 0.000000 0.000000 -0.000732 0.000000 0.000000
# 5 0.000000 0.000000 0.000000 0.000000 0.024789 0.000000
# 6 0.000000 0.000000 0.000000 0.000000 0.000000 0.032492
#
#
# Mechanical properties :
#
#
# Convention : Reuss Voigt Hill
#
# Bulk Modulus (GPa) = 32.52286 33.17856 32.85071
# Shear Modulus (GPa) = 37.84335 -248.28309 -105.21987
#
# Velocity S-wave (km/s) = 4.40877 -11.29265 -7.35142
# Velocity P-wave (km/s) = 6.52846 12.36894 7.42865
#
# Compressibility (1/GPa) = 0.03074761
#
# Stress axis : x y z
#
# Youngs Moduli (GPa) = 70.65603 51.93691 68.35601
#
# Poissons Ratio (x) = 0.12660 0.17258
# Poissons Ratio (y) = 0.17223 0.25170
# Poissons Ratio (z) = 0.17839 0.19124
#
# Static dielectric constant tensor:
#      x y z
#    x 1.962770 0.000000 0.000000 
#    y 0.000000 1.473220 0.000000 
#    z 0.000000 0.000000 1.805240 
# 
# From -- ./inp_files/36224.got.cif
#   From: 2010.05.17/outbox.cif.g08.bks.cpg/sg22_19_cif.got.tgz:36224.got - 2010.06.03 23:40:54.
