data_PCOD9328970
_publ_section_title
;
Structure prediction by ZEFSAII (Michael W. Deem and Ramdas Pophale) SiO2 
 PCOD9328970
Probable space group: F 2 2 2
;
_chemical_formula_sum "Si O2"
_cell_formula_units_Z 64
_cell_length_a 11.560085
_cell_length_b 15.299135
_cell_length_c 15.299104
_cell_angle_alpha 90.000000
_cell_angle_beta 90.000000
_cell_angle_gamma 90.000000
_cell_volume 2705.788840
_symmetry_space_group_name_H-M "F 2 2 2"
_symmetry_group_IT_number 22
_symmetry_cell_setting 'orthorhombic'
loop_
_space_group_symop_operation_xyz
x,y,z
-x,-y,z
x,-y,-z
-x,y,-z
x,1/2+y,1/2+z
-x,1/2-y,1/2+z
x,1/2-y,1/2-z
-x,1/2+y,1/2-z
1/2+x,y,1/2+z
1/2-x,-y,1/2+z
1/2+x,-y,1/2-z
1/2-x,y,1/2-z
1/2+x,1/2+y,z
1/2-x,1/2-y,z
1/2+x,1/2-y,-z
1/2-x,1/2+y,-z
loop_
_atom_site_type_symbol
_atom_site_label
_atom_site_fract_x
_atom_site_fract_y
_atom_site_fract_z
Si Si1 0.308543 0.908477 0.028135
Si Si2 0.441455 0.221866 0.841523
Si Si3 0.445079 0.083957 0.595345
Si Si4 0.304922 0.845345 0.833957
O O1 0.374999 0.835188 0.085189
O O2 0.192367 0.927174 0.083184
O O3 0.277356 0.875451 0.931562
O O4 0.368419 0.000000 0.000000
O O5 0.381580 0.250000 0.750000
O O6 0.472642 0.318438 0.874549
O O7 0.557633 0.166818 0.822827
O O8 0.500000 0.082688 0.500000
O O9 0.500000 0.000000 0.644081
O O10 0.250000 0.894080 0.750000
O O11 0.250000 0.750000 0.832689
#
# Coordination Sequence:
#
# PCOD9328970 Si02
#       4
#    16  16  16  16
#     4  12  26  47  75 116 163 213 273 353 421 487
#     4  12  26  47  75 116 163 213 273 353 421 487
#     4  11  23  45  77 105 150 213 280 321 412 499
#     4  11  23  45  77 105 150 213 280 321 412 499
#
# _framework density 23.652989999999999
#
# number of rings (size 3 to 8) (size 9 to 14) (size 15 to 20)
#    0.000    0.500    5.000    6.000    0.000    4.000 
#    9.000    0.000    0.000    0.000    0.000    0.000 
#    0.000    0.000    0.000    0.000    0.000    0.000 
#
# Total GULP energy -89263.733848 kJ/mol
# GULP energy per Si atom -5578.983366 kJ/mol
# Density = 2.359916 g / cm^3
# Si number density = 23.652990 Si / 1000 Ang^3
#
#
#
# Elastic Constant Matrix: (Units=GPa)
#
#
# Indices 1 2 3 4 5 6 
#
# 1 129.1123 29.8847 29.8844 0.0000 0.0000 0.0000
# 2 29.8847 148.9185 65.2772 0.0000 0.0000 0.0000
# 3 29.8844 65.2772 148.9164 0.0000 0.0000 0.0000
# 4 0.0000 0.0000 0.0000 2.7256 0.0000 0.0000
# 5 0.0000 0.0000 0.0000 0.0000 33.5012 0.0000
# 6 0.0000 0.0000 0.0000 0.0000 0.0000 33.5052
#
#
#
# Elastic Compliance Matrix: (Units=1/GPa)
#
#
# Indices 1 2 3 4 5 6 
#
# 1 0.008280 -0.001155 -0.001155 0.000000 0.000000 0.000000
# 2 -0.001155 0.008473 -0.003482 0.000000 0.000000 0.000000
# 3 -0.001155 -0.003482 0.008474 0.000000 0.000000 0.000000
# 4 0.000000 0.000000 0.000000 0.366893 0.000000 0.000000
# 5 0.000000 0.000000 0.000000 0.000000 0.029850 0.000000
# 6 0.000000 0.000000 0.000000 0.000000 0.000000 0.029846
#
#
# Mechanical properties :
#
#
# Convention : Reuss Voigt Hill
#
# Bulk Modulus (GPa) = 73.30797 75.22666 74.26731
# Shear Modulus (GPa) = 10.68492 34.07312 22.37902
#
# Velocity S-wave (km/s) = 2.12772 3.79956 3.07927
# Velocity P-wave (km/s) = 6.09070 7.14998 6.64149
#
# Compressibility (1/GPa) = 0.01364108
#
# Stress axis : x y z
#
# Youngs Moduli (GPa) = 120.77327 118.01600 118.01431
#
# Poissons Ratio (x) = 0.13633 0.13633
# Poissons Ratio (y) = 0.13952 0.41098
# Poissons Ratio (z) = 0.13952 0.41099
#
# Static dielectric constant tensor:
#      x y z
#    x 1.955780 0.000000 0.000000 
#    y 0.000000 2.080450 0.000000 
#    z 0.000000 0.000000 2.080450 
# 
# From -- ./inp_files/27792.got.cif
#   From: 2010.05.17/outbox.cif.g08.bks.cpg/sg22_14_cif.got.tgz:27792.got - 2010.06.03 23:40:54.
