data_PCOD9328129
_publ_section_title
;
Structure prediction by ZEFSAII (Michael W. Deem and Ramdas Pophale) SiO2 
 PCOD9328129
Probable space group: F 2 2 2
;
_chemical_formula_sum "Si O2"
_cell_formula_units_Z 80
_cell_length_a 21.445876
_cell_length_b 11.608534
_cell_length_c 15.184791
_cell_angle_alpha 90.000000
_cell_angle_beta 90.000000
_cell_angle_gamma 90.000000
_cell_volume 3780.332387
_symmetry_space_group_name_H-M "F 2 2 2"
_symmetry_group_IT_number 22
_symmetry_cell_setting 'orthorhombic'
loop_
_space_group_symop_operation_xyz
x,y,z
-x,-y,z
x,-y,-z
-x,y,-z
x,1/2+y,1/2+z
-x,1/2-y,1/2+z
x,1/2-y,1/2-z
-x,1/2+y,1/2-z
1/2+x,y,1/2+z
1/2-x,-y,1/2+z
1/2+x,-y,1/2-z
1/2-x,y,1/2-z
1/2+x,1/2+y,z
1/2-x,1/2-y,z
1/2+x,1/2-y,-z
1/2-x,1/2+y,-z
loop_
_atom_site_type_symbol
_atom_site_label
_atom_site_fract_x
_atom_site_fract_y
_atom_site_fract_z
Si Si1 0.804548 0.180551 0.089566
Si Si2 0.500000 0.345984 0.500000
Si Si3 0.097138 0.453729 0.688880
Si Si4 0.224549 0.000000 0.500000
Si Si5 0.118114 0.407096 0.894126
Si Si6 0.972071 0.316322 0.657685
O O1 0.750000 0.250000 0.139128
O O2 0.839067 0.083681 0.144250
O O3 0.768514 0.112292 0.011580
O O4 0.854591 0.282100 0.077118
O O5 0.552645 0.412287 0.444363
O O6 0.533518 0.266446 0.574015
O O7 0.103094 0.424259 0.791902
O O8 0.079071 0.583791 0.665972
O O9 0.039561 0.378095 0.652154
O O10 0.174007 0.005723 0.579436
O O11 0.971188 0.250000 0.750000
#
# Coordination Sequence:
#
# PCOD9328129 Si02
#       6
#    16   8  16   8  16  16
#     4  10  22  44  68  93 133 177 241 289 338 413
#     4  12  24  42  74  96 148 182 220 302 356 422
#     4  11  23  42  71  97 143 182 237 284 363 425
#     4  10  26  39  62 103 126 178 242 284 338 408
#     4  11  24  43  68  99 137 183 230 287 359 424
#     4  11  24  42  65 111 144 177 232 295 364 431
#
# _framework density 21.16216
#
# number of rings (size 3 to 8) (size 9 to 14) (size 15 to 20)
#    0.000    1.200    4.000    0.600    5.600    7.600 
#    0.000    0.000    0.000    0.000    0.000    0.000 
#    0.000    0.000    0.000    0.000    0.000    0.000 
#
# Total GULP energy -111561.202126 kJ/mol
# GULP energy per Si atom -5578.060106 kJ/mol
# Density = 2.111399 g / cm^3
# Si number density = 21.162160 Si / 1000 Ang^3
#
#
#
# Elastic Constant Matrix: (Units=GPa)
#
#
# Indices 1 2 3 4 5 6 
#
# 1 123.4606 46.9645 31.8186 0.0000 0.0000 0.0000
# 2 46.9645 82.7261 24.2915 0.0000 0.0000 0.0000
# 3 31.8186 24.2915 81.6391 0.0000 0.0000 0.0000
# 4 0.0000 0.0000 0.0000 20.8127 0.0000 0.0000
# 5 0.0000 0.0000 0.0000 0.0000 21.2117 0.0000
# 6 0.0000 0.0000 0.0000 0.0000 0.0000 36.9930
#
#
#
# Elastic Compliance Matrix: (Units=1/GPa)
#
#
# Indices 1 2 3 4 5 6 
#
# 1 0.010818 -0.005373 -0.002618 0.000000 0.000000 0.000000
# 2 -0.005373 0.015914 -0.002641 0.000000 0.000000 0.000000
# 3 -0.002618 -0.002641 0.014055 0.000000 0.000000 0.000000
# 4 0.000000 0.000000 0.000000 0.048048 0.000000 0.000000
# 5 0.000000 0.000000 0.000000 0.000000 0.047144 0.000000
# 6 0.000000 0.000000 0.000000 0.000000 0.000000 0.027032
#
#
# Mechanical properties :
#
#
# Convention : Reuss Voigt Hill
#
# Bulk Modulus (GPa) = 51.21938 54.88613 53.05276
# Shear Modulus (GPa) = 26.20790 28.12022 27.16406
#
# Velocity S-wave (km/s) = 3.52295 3.64922 3.58664
# Velocity P-wave (km/s) = 6.38781 6.61423 6.50201
#
# Compressibility (1/GPa) = 0.01952386
#
# Stress axis : x y z
#
# Youngs Moduli (GPa) = 92.43612 62.83813 71.14865
#
# Poissons Ratio (x) = 0.33763 0.18624
# Poissons Ratio (y) = 0.49666 0.18791
# Poissons Ratio (z) = 0.24197 0.16596
#
# Static dielectric constant tensor:
#      x y z
#    x 1.805600 0.000000 0.000000 
#    y 0.000000 1.867670 0.000000 
#    z 0.000000 0.000000 1.727930 
# 
# From -- ./inp_files/32284.got.cif
#   From: 2010.05.17/outbox.cif.g08.bks.cpg/sg22_17_cif.got.tgz:32284.got - 2010.06.03 23:40:54.
