data_PCOD9328084
_publ_section_title
;
Structure prediction by ZEFSAII (Michael W. Deem and Ramdas Pophale) SiO2 
 PCOD9328084
Probable space group: F 2 2 2
;
_chemical_formula_sum "Si O2"
_cell_formula_units_Z 64
_cell_length_a 26.121967
_cell_length_b 10.234274
_cell_length_c 11.115304
_cell_angle_alpha 90.000000
_cell_angle_beta 90.000000
_cell_angle_gamma 90.000000
_cell_volume 2971.558343
_symmetry_space_group_name_H-M "F 2 2 2"
_symmetry_group_IT_number 22
_symmetry_cell_setting 'orthorhombic'
loop_
_space_group_symop_operation_xyz
x,y,z
-x,-y,z
x,-y,-z
-x,y,-z
x,1/2+y,1/2+z
-x,1/2-y,1/2+z
x,1/2-y,1/2-z
-x,1/2+y,1/2-z
1/2+x,y,1/2+z
1/2-x,-y,1/2+z
1/2+x,-y,1/2-z
1/2-x,y,1/2-z
1/2+x,1/2+y,z
1/2-x,1/2-y,z
1/2+x,1/2-y,-z
1/2-x,1/2+y,-z
loop_
_atom_site_type_symbol
_atom_site_label
_atom_site_fract_x
_atom_site_fract_y
_atom_site_fract_z
Si Si1 0.833606 0.860721 0.571576
Si Si2 0.107439 0.750000 0.750000
Si Si3 0.057234 0.345043 0.007572
Si Si4 0.180761 0.889565 0.915050
Si Si5 0.250000 0.453619 0.750000
O O1 0.894066 0.818733 0.581388
O O2 0.811392 0.743260 0.489195
O O3 0.834102 0.000000 0.500000
O O4 0.797891 0.877925 0.688977
O O5 0.076379 0.695353 0.861003
O O6 0.144023 0.860038 0.804079
O O7 0.051661 0.500000 0.000000
O O8 0.000000 0.286495 0.000000
O O9 0.230241 0.955269 0.857739
O O10 0.157076 0.000000 0.000000
#
# Coordination Sequence:
#
# PCOD9328084 Si02
#       5
#    16   8  16  16   8
#     4  10  23  41  63  94 126 166 216 258 314 389
#     4  10  22  43  64  88 126 165 202 264 322 366
#     4   9  18  39  67  91 120 161 211 260 314 379
#     4  11  25  41  62  91 126 169 214 253 307 382
#     4  12  24  40  64  90 130 172 204 264 320 362
#
# _framework density 21.537520000000001
#
# number of rings (size 3 to 8) (size 9 to 14) (size 15 to 20)
#    0.000    1.750    0.000    5.250    0.000   11.500 
#    0.000   15.000    0.000    6.750    0.000    0.000 
#    0.000    0.000    0.000    0.000    0.000    0.000 
#
# Total GULP energy -89262.849138 kJ/mol
# GULP energy per Si atom -5578.928071 kJ/mol
# Density = 2.148850 g / cm^3
# Si number density = 21.537520 Si / 1000 Ang^3
#
#
#
# Elastic Constant Matrix: (Units=GPa)
#
#
# Indices 1 2 3 4 5 6 
#
# 1 188.6518 34.8123 61.4235 0.0000 0.0000 0.0000
# 2 34.8123 99.4701 38.3936 0.0000 0.0000 0.0000
# 3 61.4235 38.3936 72.0652 0.0000 0.0000 0.0000
# 4 0.0000 0.0000 0.0000 22.0668 0.0000 0.0000
# 5 0.0000 0.0000 0.0000 0.0000 48.6599 0.0000
# 6 0.0000 0.0000 0.0000 0.0000 0.0000 -4.7445
#
#
#
# Elastic Compliance Matrix: (Units=1/GPa)
#
#
# Indices 1 2 3 4 5 6 
#
# 1 0.007340 -0.000194 -0.006153 0.000000 0.000000 0.000000
# 2 -0.000194 0.012661 -0.006580 0.000000 0.000000 0.000000
# 3 -0.006153 -0.006580 0.022626 0.000000 0.000000 0.000000
# 4 0.000000 0.000000 0.000000 0.045317 0.000000 0.000000
# 5 0.000000 0.000000 0.000000 0.000000 0.020551 0.000000
# 6 0.000000 0.000000 0.000000 0.000000 0.000000 -0.210770
#
#
# Mechanical properties :
#
#
# Convention : Reuss Voigt Hill
#
# Bulk Modulus (GPa) = 59.61745 69.93844 64.77794
# Shear Modulus (GPa) = -70.59060 28.23361 -21.17850
#
# Velocity S-wave (km/s) = -5.73121 3.62457 -3.13921
# Velocity P-wave (km/s) = 4.00686 7.07531 4.12341
#
# Compressibility (1/GPa) = 0.01677361
#
# Stress axis : x y z
#
# Youngs Moduli (GPa) = 136.24341 78.98338 44.19710
#
# Poissons Ratio (x) = 0.01532 0.27193
# Poissons Ratio (y) = 0.02643 0.29081
# Poissons Ratio (z) = 0.83825 0.51970
#
# Static dielectric constant tensor:
#      x y z
#    x 1.885730 0.000000 0.000000 
#    y 0.000000 1.750850 0.000000 
#    z 0.000000 0.000000 1.761820 
# 
# From -- ./inp_files/18059.got.cif
#   From: 2010.05.17/outbox.cif.g08.bks.cpg/sg22_10_cif.got.tgz:18059.got - 2010.06.03 23:40:54.
