data_PCOD9328669
_publ_section_title
;
Structure prediction by ZEFSAII (Michael W. Deem and Ramdas Pophale) SiO2 
 PCOD9328669
Probable space group: F 2 2 2
;
_chemical_formula_sum "Si O2"
_cell_formula_units_Z 108
_cell_length_a 14.303051
_cell_length_b 11.706323
_cell_length_c 28.835617
_cell_angle_alpha 90.000000
_cell_angle_beta 90.000000
_cell_angle_gamma 90.000000
_cell_volume 4828.124258
_symmetry_space_group_name_H-M "F 2 2 2"
_symmetry_group_IT_number 22
_symmetry_cell_setting 'orthorhombic'
loop_
_space_group_symop_operation_xyz
x,y,z
-x,-y,z
x,-y,-z
-x,y,-z
x,1/2+y,1/2+z
-x,1/2-y,1/2+z
x,1/2-y,1/2-z
-x,1/2+y,1/2-z
1/2+x,y,1/2+z
1/2-x,-y,1/2+z
1/2+x,-y,1/2-z
1/2-x,y,1/2-z
1/2+x,1/2+y,z
1/2-x,1/2-y,z
1/2+x,1/2-y,-z
1/2-x,1/2+y,-z
loop_
_atom_site_type_symbol
_atom_site_label
_atom_site_fract_x
_atom_site_fract_y
_atom_site_fract_z
Si Si1 0.147826 0.696520 0.704122
Si Si2 0.256603 0.564065 0.380679
Si Si3 0.910666 0.938310 0.949818
Si Si4 0.405913 0.872530 0.857807
Si Si5 0.165655 0.572165 0.284330
Si Si6 0.072207 0.827046 0.428780
Si Si7 0.000000 0.500000 0.000000
Si Si8 0.000000 0.000000 0.272394
O O1 0.102739 0.750000 0.750000
O O2 0.250000 0.750000 0.702206
O O3 0.104019 0.740650 0.656989
O O4 0.159787 0.564193 0.710039
O O5 0.181935 0.542803 0.420509
O O6 0.315309 0.446376 0.371890
O O7 0.199217 0.608271 0.335490
O O8 0.335179 0.652248 0.398329
O O9 0.930136 0.801810 0.948405
O O10 0.000000 0.000000 0.927124
O O11 0.900957 0.000000 0.000000
O O12 0.485225 0.866467 0.896592
O O13 0.435629 0.934015 0.809707
O O14 0.250000 0.604758 0.250000
O O15 0.064537 0.585098 0.259082
O O16 0.066293 0.917028 0.470407
#
# Coordination Sequence:
#
# PCOD9328669 Si02
#       8
#    16  16  16  16  16  16   4   8
#     4  11  18  33  58  94 132 186 245 290 337 400
#     4  12  24  45  72 111 144 193 245 300 372 439
#     4  11  29  55  72 103 149 192 239 310 386 460
#     4  12  22  41  70 108 147 187 250 308 354 431
#     4  12  22  38  64  99 151 194 243 303 355 430
#     4  12  26  48  78 107 149 182 239 314 371 452
#     4  12  22  44  86 112 126 180 252 292 384 436
#     4  12  21  38  64 101 153 206 242 301 362 424
#
# _framework density 22.368936000000001
#
# number of rings (size 3 to 8) (size 9 to 14) (size 15 to 20)
#    0.000    0.296    8.889    1.333    4.148    0.000 
#    0.000    0.000    0.000    0.889    0.000    0.000 
#    0.000    0.000    0.000    0.000    0.000    0.000 
#
# Total GULP energy -150710.193211 kJ/mol
# GULP energy per Si atom -5581.859008 kJ/mol
# Density = 2.231802 g / cm^3
# Si number density = 22.368936 Si / 1000 Ang^3
#
#
#
# Elastic Constant Matrix: (Units=GPa)
#
#
# Indices 1 2 3 4 5 6 
#
# 1 118.8132 24.4685 57.8081 0.0000 0.0000 0.0000
# 2 24.4685 121.4917 46.5888 0.0000 0.0000 0.0000
# 3 57.8081 46.5888 126.5607 0.0000 0.0000 0.0000
# 4 0.0000 0.0000 0.0000 27.1830 0.0000 0.0000
# 5 0.0000 0.0000 0.0000 0.0000 53.8266 0.0000
# 6 0.0000 0.0000 0.0000 0.0000 0.0000 17.2908
#
#
#
# Elastic Compliance Matrix: (Units=1/GPa)
#
#
# Indices 1 2 3 4 5 6 
#
# 1 0.010833 -0.000331 -0.004826 0.000000 0.000000 0.000000
# 2 -0.000331 0.009594 -0.003380 0.000000 0.000000 0.000000
# 3 -0.004826 -0.003380 0.011350 0.000000 0.000000 0.000000
# 4 0.000000 0.000000 0.000000 0.036788 0.000000 0.000000
# 5 0.000000 0.000000 0.000000 0.000000 0.018578 0.000000
# 6 0.000000 0.000000 0.000000 0.000000 0.000000 0.057834
#
#
# Mechanical properties :
#
#
# Convention : Reuss Voigt Hill
#
# Bulk Modulus (GPa) = 68.01957 69.39959 68.70958
# Shear Modulus (GPa) = 29.94853 35.52677 32.73765
#
# Velocity S-wave (km/s) = 3.66299 3.98957 3.82976
# Velocity P-wave (km/s) = 6.95443 7.23288 7.09502
#
# Compressibility (1/GPa) = 0.01470165
#
# Stress axis : x y z
#
# Youngs Moduli (GPa) = 92.31127 104.23165 88.10433
#
# Poissons Ratio (x) = 0.03450 0.42521
# Poissons Ratio (y) = 0.03056 0.29784
# Poissons Ratio (z) = 0.44551 0.35235
#
# Static dielectric constant tensor:
#      x y z
#    x 1.890880 0.000000 0.000000 
#    y 0.000000 1.878000 0.000000 
#    z 0.000000 0.000000 1.878270 
# 
# From -- ./inp_files/56508.got.cif
#   From: 2010.05.17/outbox.cif.g08.bks.cpg/sg22_29_cif.got.tgz:56508.got - 2010.06.03 23:40:54.
