data_PCOD9328486
_publ_section_title
;
Structure prediction by ZEFSAII (Michael W. Deem and Ramdas Pophale) SiO2 
 PCOD9328486
Probable space group: F 2 2 2
;
_chemical_formula_sum "Si O2"
_cell_formula_units_Z 56
_cell_length_a 27.081770
_cell_length_b 7.529087
_cell_length_c 10.743503
_cell_angle_alpha 90.000000
_cell_angle_beta 90.000000
_cell_angle_gamma 90.000000
_cell_volume 2190.611031
_symmetry_space_group_name_H-M "F 2 2 2"
_symmetry_group_IT_number 22
_symmetry_cell_setting 'orthorhombic'
loop_
_space_group_symop_operation_xyz
x,y,z
-x,-y,z
x,-y,-z
-x,y,-z
x,1/2+y,1/2+z
-x,1/2-y,1/2+z
x,1/2-y,1/2-z
-x,1/2+y,1/2-z
1/2+x,y,1/2+z
1/2-x,-y,1/2+z
1/2+x,-y,1/2-z
1/2-x,y,1/2-z
1/2+x,1/2+y,z
1/2-x,1/2-y,z
1/2+x,1/2-y,-z
1/2-x,1/2+y,-z
loop_
_atom_site_type_symbol
_atom_site_label
_atom_site_fract_x
_atom_site_fract_y
_atom_site_fract_z
Si Si1 0.719495 0.071651 0.863138
Si Si2 0.883804 0.250000 0.250000
Si Si3 0.447737 0.085121 0.340178
Si Si4 0.643269 0.203001 0.515612
O O1 0.750000 0.974924 0.750000
O O2 0.750000 0.250000 0.867832
O O3 0.665064 0.167358 0.878180
O O4 0.726373 0.000000 0.000000
O O5 0.915631 0.426250 0.277487
O O6 0.852236 0.219410 0.375791
O O7 0.457379 0.250000 0.250000
O O8 0.413967 0.170606 0.448817
O O9 0.500000 0.000000 0.372237
O O10 0.663399 0.000000 0.500000
#
# Coordination Sequence:
#
# PCOD9328486 Si02
#       4
#    16   8  16  16
#     4  11  27  47  75 112 154 200 260 324 395 477
#     4  10  24  44  69 112 148 214 257 320 392 466
#     4  11  24  45  74 111 159 205 263 324 385 463
#     4  10  25  47  77 108 155 202 259 322 392 469
#
# _framework density 25.563644
#
# number of rings (size 3 to 8) (size 9 to 14) (size 15 to 20)
#    0.000    1.429    1.429    0.857    8.000   12.571 
#    0.000    2.857    0.000    0.000    0.000    0.000 
#    0.000    0.000    0.000    0.000    0.000    0.000 
#
# Total GULP energy -77984.585940 kJ/mol
# GULP energy per Si atom -5570.327567 kJ/mol
# Density = 2.550546 g / cm^3
# Si number density = 25.563644 Si / 1000 Ang^3
#
#
#
# Elastic Constant Matrix: (Units=GPa)
#
#
# Indices 1 2 3 4 5 6 
#
# 1 133.1715 10.3704 63.9248 0.0000 0.0000 0.0000
# 2 10.3704 116.9229 58.4418 0.0000 0.0000 0.0000
# 3 63.9248 58.4418 218.0297 0.0000 0.0000 0.0000
# 4 0.0000 0.0000 0.0000 41.4597 0.0000 0.0000
# 5 0.0000 0.0000 0.0000 0.0000 33.2418 0.0000
# 6 0.0000 0.0000 0.0000 0.0000 0.0000 63.7898
#
#
#
# Elastic Compliance Matrix: (Units=1/GPa)
#
#
# Indices 1 2 3 4 5 6 
#
# 1 0.008774 0.000586 -0.002729 0.000000 0.000000 0.000000
# 2 0.000586 0.009915 -0.002829 0.000000 0.000000 0.000000
# 3 -0.002729 -0.002829 0.006145 0.000000 0.000000 0.000000
# 4 0.000000 0.000000 0.000000 0.024120 0.000000 0.000000
# 5 0.000000 0.000000 0.000000 0.000000 0.030083 0.000000
# 6 0.000000 0.000000 0.000000 0.000000 0.000000 0.015676
#
#
# Mechanical properties :
#
#
# Convention : Reuss Voigt Hill
#
# Bulk Modulus (GPa) = 67.16775 81.51090 74.33933
# Shear Modulus (GPa) = 45.61162 50.05740 47.83451
#
# Velocity S-wave (km/s) = 4.22861 4.42990 4.33042
# Velocity P-wave (km/s) = 7.08331 7.62365 7.35844
#
# Compressibility (1/GPa) = 0.01488810
#
# Stress axis : x y z
#
# Youngs Moduli (GPa) = 113.97735 100.85798 162.72796
#
# Poissons Ratio (x) = -0.05911 0.44416
# Poissons Ratio (y) = -0.06680 0.46044
# Poissons Ratio (z) = 0.31110 0.28538
#
# Static dielectric constant tensor:
#      x y z
#    x 2.152930 0.000000 0.000000 
#    y 0.000000 2.031820 0.000000 
#    z 0.000000 0.000000 1.931570 
# 
# From -- ./inp_files/24296.got.cif
#   From: 2010.05.17/outbox.cif.g08.bks.cpg/sg22_13_cif.got.tgz:24296.got - 2010.06.03 23:40:54.
