data_PCOD9328819
_publ_section_title
;
Structure prediction by ZEFSAII (Michael W. Deem and Ramdas Pophale) SiO2 
 PCOD9328819
Probable space group: F 2 2 2
;
_chemical_formula_sum "Si O2"
_cell_formula_units_Z 64
_cell_length_a 7.545049
_cell_length_b 17.718767
_cell_length_c 22.730888
_cell_angle_alpha 90.000000
_cell_angle_beta 90.000000
_cell_angle_gamma 90.000000
_cell_volume 3038.868896
_symmetry_space_group_name_H-M "F 2 2 2"
_symmetry_group_IT_number 22
_symmetry_cell_setting 'orthorhombic'
loop_
_space_group_symop_operation_xyz
x,y,z
-x,-y,z
x,-y,-z
-x,y,-z
x,1/2+y,1/2+z
-x,1/2-y,1/2+z
x,1/2-y,1/2-z
-x,1/2+y,1/2-z
1/2+x,y,1/2+z
1/2-x,-y,1/2+z
1/2+x,-y,1/2-z
1/2-x,y,1/2-z
1/2+x,1/2+y,z
1/2-x,1/2-y,z
1/2+x,1/2-y,-z
1/2-x,1/2+y,-z
loop_
_atom_site_type_symbol
_atom_site_label
_atom_site_fract_x
_atom_site_fract_y
_atom_site_fract_z
Si Si1 0.791611 0.336935 0.130835
Si Si2 0.851788 0.899828 0.340776
Si Si3 0.209377 0.981811 0.065281
Si Si4 0.495388 0.911725 0.290241
O O1 0.750000 0.250000 0.124528
O O2 0.729924 0.394013 0.080264
O O3 0.683736 0.371709 0.187635
O O4 0.003535 0.344946 0.132615
O O5 0.813208 0.969189 0.385214
O O6 0.657038 0.870719 0.323899
O O7 0.945381 0.916712 0.277781
O O8 0.000000 0.000000 0.066560
O O9 0.275292 0.000000 0.000000
O O10 0.500000 0.000000 0.308107
#
# Coordination Sequence:
#
# PCOD9328819 Si02
#       4
#    16  16  16  16
#     4  12  25  42  65 104 139 176 224 288 354 408
#     4  11  23  39  70  94 133 186 230 275 338 417
#     4  11  23  47  74  99 133 181 241 295 335 414
#     4  11  22  39  64 100 137 177 233 280 337 408
#
# _framework density 21.060468
#
# number of rings (size 3 to 8) (size 9 to 14) (size 15 to 20)
#    0.000    0.750    5.000    3.000    3.500    5.000 
#    0.000    7.500    0.000    0.000    0.000    0.000 
#    0.000    0.000    0.000    0.000    0.000    0.000 
#
# Total GULP energy -89229.637427 kJ/mol
# GULP energy per Si atom -5576.852339 kJ/mol
# Density = 2.101253 g / cm^3
# Si number density = 21.060468 Si / 1000 Ang^3
#
#
#
# Elastic Constant Matrix: (Units=GPa)
#
#
# Indices 1 2 3 4 5 6 
#
# 1 151.0879 45.2373 23.7023 0.0000 0.0000 0.0000
# 2 45.2373 148.0659 50.1988 0.0000 0.0000 0.0000
# 3 23.7023 50.1988 141.7277 0.0000 0.0000 0.0000
# 4 0.0000 0.0000 0.0000 -1.2165 0.0000 0.0000
# 5 0.0000 0.0000 0.0000 0.0000 13.4791 0.0000
# 6 0.0000 0.0000 0.0000 0.0000 0.0000 15.5844
#
#
#
# Elastic Compliance Matrix: (Units=1/GPa)
#
#
# Indices 1 2 3 4 5 6 
#
# 1 0.007315 -0.002069 -0.000491 0.000000 0.000000 0.000000
# 2 -0.002069 0.008260 -0.002580 0.000000 0.000000 0.000000
# 3 -0.000491 -0.002580 0.008052 0.000000 0.000000 0.000000
# 4 0.000000 0.000000 0.000000 -0.822004 0.000000 0.000000
# 5 0.000000 0.000000 0.000000 0.000000 0.074189 0.000000
# 6 0.000000 0.000000 0.000000 0.000000 0.000000 0.064167
#
#
# Mechanical properties :
#
#
# Convention : Reuss Voigt Hill
#
# Bulk Modulus (GPa) = 74.91268 75.46205 75.18736
# Shear Modulus (GPa) = -7.74841 27.01893 9.63526
#
# Velocity S-wave (km/s) = -1.92019 3.58568 2.14126
# Velocity P-wave (km/s) = 5.54359 7.28366 6.47237
#
# Compressibility (1/GPa) = 0.01334887
#
# Stress axis : x y z
#
# Youngs Moduli (GPa) = 136.70575 121.06004 124.19897
#
# Poissons Ratio (x) = 0.25042 0.06094
# Poissons Ratio (y) = 0.28278 0.32041
# Poissons Ratio (z) = 0.06708 0.31231
#
# Static dielectric constant tensor:
#      x y z
#    x 1.793530 0.000000 0.000000 
#    y 0.000000 1.725680 0.000000 
#    z 0.000000 0.000000 1.840060 
# 
# From -- ./inp_files/34936.got.cif
#   From: 2010.05.17/outbox.cif.g08.bks.cpg/sg22_18_cif.got.tgz:34936.got - 2010.06.03 23:40:54.
