data_PCOD9328021
_publ_section_title
;
Structure prediction by ZEFSAII (Michael W. Deem and Ramdas Pophale) SiO2 
 PCOD9328021
Probable space group: F 2 2 2
;
_chemical_formula_sum "Si O2"
_cell_formula_units_Z 104
_cell_length_a 9.652921
_cell_length_b 21.387941
_cell_length_c 26.954102
_cell_angle_alpha 90.000000
_cell_angle_beta 90.000000
_cell_angle_gamma 90.000000
_cell_volume 5564.838908
_symmetry_space_group_name_H-M "F 2 2 2"
_symmetry_group_IT_number 22
_symmetry_cell_setting 'orthorhombic'
loop_
_space_group_symop_operation_xyz
x,y,z
-x,-y,z
x,-y,-z
-x,y,-z
x,1/2+y,1/2+z
-x,1/2-y,1/2+z
x,1/2-y,1/2-z
-x,1/2+y,1/2-z
1/2+x,y,1/2+z
1/2-x,-y,1/2+z
1/2+x,-y,1/2-z
1/2-x,y,1/2-z
1/2+x,1/2+y,z
1/2-x,1/2-y,z
1/2+x,1/2-y,-z
1/2-x,1/2+y,-z
loop_
_atom_site_type_symbol
_atom_site_label
_atom_site_fract_x
_atom_site_fract_y
_atom_site_fract_z
Si Si1 0.750000 0.485451 0.750000
Si Si2 0.496479 0.107831 0.554740
Si Si3 0.722582 0.006777 0.554419
Si Si4 0.095241 0.639328 0.740129
Si Si5 0.364553 0.036087 0.847170
Si Si6 0.430204 0.810534 0.350129
Si Si7 0.611109 0.172678 0.171044
O O1 0.623489 0.435467 0.756696
O O2 0.735940 0.526878 0.700402
O O3 0.500000 0.137543 0.500000
O O4 0.643224 0.072586 0.561487
O O5 0.449070 0.154048 0.597951
O O6 0.389491 0.049686 0.553447
O O7 0.791151 0.000000 0.500000
O O8 0.811044 0.995054 0.602922
O O9 0.250000 0.665789 0.750000
O O10 0.041903 0.660608 0.687033
O O11 0.980046 0.661966 0.779458
O O12 0.401297 0.107645 0.857680
O O13 0.500000 0.000000 0.831512
O O14 0.443374 0.735771 0.354229
O O15 0.277951 0.820249 0.325367
#
# Coordination Sequence:
#
# PCOD9328021 Si02
#       7
#     8  16  16  16  16  16  16
#     4  10  24  36  59  85 114 156 198 242 302 340
#     4   9  18  36  64  90 112 145 199 252 290 343
#     4   9  19  36  62  92 112 147 199 247 298 344
#     4  10  22  42  57  86 116 158 200 244 292 359
#     4  12  22  39  59  85 125 153 192 248 296 360
#     4  11  22  39  63  86 121 159 199 242 298 353
#     4  11  24  37  58  89 119 162 196 236 298 362
#
# _framework density 18.688770000000002
#
# number of rings (size 3 to 8) (size 9 to 14) (size 15 to 20)
#    0.462    1.231    3.077    2.769    2.154    2.769 
#    2.769    0.000    3.385    3.692    0.000    0.000 
#    0.000    0.000    0.000    0.000    0.000    0.000 
#
# Total GULP energy -144851.308121 kJ/mol
# GULP energy per Si atom -5571.204158 kJ/mol
# Density = 1.864623 g / cm^3
# Si number density = 18.688770 Si / 1000 Ang^3
#
#
#
# Elastic Constant Matrix: (Units=GPa)
#
#
# Indices 1 2 3 4 5 6 
#
# 1 58.5171 18.5780 52.9068 0.0000 0.0000 0.0000
# 2 18.5780 111.4098 48.3743 0.0000 0.0000 0.0000
# 3 52.9068 48.3743 149.2441 0.0000 0.0000 0.0000
# 4 0.0000 0.0000 0.0000 21.4366 0.0000 0.0000
# 5 0.0000 0.0000 0.0000 0.0000 -0.6204 0.0000
# 6 0.0000 0.0000 0.0000 0.0000 0.0000 14.2030
#
#
#
# Elastic Compliance Matrix: (Units=1/GPa)
#
#
# Indices 1 2 3 4 5 6 
#
# 1 0.025163 -0.000376 -0.008799 0.000000 0.000000 0.000000
# 2 -0.000376 0.010452 -0.003254 0.000000 0.000000 0.000000
# 3 -0.008799 -0.003254 0.010874 0.000000 0.000000 0.000000
# 4 0.000000 0.000000 0.000000 0.046649 0.000000 0.000000
# 5 0.000000 0.000000 0.000000 0.000000 -1.611777 0.000000
# 6 0.000000 0.000000 0.000000 0.000000 0.000000 0.070408
#
#
# Mechanical properties :
#
#
# Convention : Reuss Voigt Hill
#
# Bulk Modulus (GPa) = 46.22828 62.09881 54.16355
# Shear Modulus (GPa) = -3.53067 20.29128 8.38031
#
# Velocity S-wave (km/s) = -1.37597 3.29864 2.11988
# Velocity P-wave (km/s) = 4.71860 6.91434 5.91917
#
# Compressibility (1/GPa) = 0.02163178
#
# Stress axis : x y z
#
# Youngs Moduli (GPa) = 39.74034 95.67884 91.95918
#
# Poissons Ratio (x) = 0.03595 0.80911
# Poissons Ratio (y) = 0.01493 0.29928
# Poissons Ratio (z) = 0.34966 0.31139
#
# Static dielectric constant tensor:
#      x y z
#    x 1.686150 0.000000 0.000000 
#    y 0.000000 1.656540 0.000000 
#    z 0.000000 0.000000 1.655310 
# 
# From -- ./inp_files/51989.got.cif
#   From: 2010.05.17/outbox.cif.g08.bks.cpg/sg22_26_cif.got.tgz:51989.got - 2010.06.03 23:40:54.
