data_PCOD9328028
_publ_section_title
;
Structure prediction by ZEFSAII (Michael W. Deem and Ramdas Pophale) SiO2 
 PCOD9328028
Probable space group: F 2 2 2
;
_chemical_formula_sum "Si O2"
_cell_formula_units_Z 88
_cell_length_a 15.237818
_cell_length_b 23.905333
_cell_length_c 11.350646
_cell_angle_alpha 90.000000
_cell_angle_beta 90.000000
_cell_angle_gamma 90.000000
_cell_volume 4134.644353
_symmetry_space_group_name_H-M "F 2 2 2"
_symmetry_group_IT_number 22
_symmetry_cell_setting 'orthorhombic'
loop_
_space_group_symop_operation_xyz
x,y,z
-x,-y,z
x,-y,-z
-x,y,-z
x,1/2+y,1/2+z
-x,1/2-y,1/2+z
x,1/2-y,1/2-z
-x,1/2+y,1/2-z
1/2+x,y,1/2+z
1/2-x,-y,1/2+z
1/2+x,-y,1/2-z
1/2-x,y,1/2-z
1/2+x,1/2+y,z
1/2-x,1/2-y,z
1/2+x,1/2-y,-z
1/2-x,1/2+y,-z
loop_
_atom_site_type_symbol
_atom_site_label
_atom_site_fract_x
_atom_site_fract_y
_atom_site_fract_z
Si Si1 0.614869 0.239759 0.621921
Si Si2 0.250000 0.250000 0.578503
Si Si3 0.356033 0.858613 0.172828
Si Si4 0.005475 0.369506 0.363029
Si Si5 0.904580 0.977963 0.135858
Si Si6 0.750000 0.454042 0.250000
Si Si7 0.500000 0.167263 0.000000
O O1 0.656017 0.250000 0.750000
O O2 0.679413 0.224202 0.514073
O O3 0.543244 0.192194 0.640582
O O4 0.560818 0.293889 0.581370
O O5 0.304886 0.299002 0.648623
O O6 0.411669 0.866777 0.295125
O O7 0.288296 0.908965 0.157607
O O8 0.432964 0.865510 0.079423
O O9 0.082293 0.413061 0.327389
O O10 0.000000 0.386102 0.500000
O O11 0.827131 0.007545 0.204158
O O12 0.000000 0.000000 0.172185
O O13 0.894128 0.000000 0.000000
#
# Coordination Sequence:
#
# PCOD9328028 Si02
#       7
#    16   8  16  16  16   8   8
#     4  11  22  41  67 100 141 183 230 278 356 427
#     4  10  27  41  64 108 146 178 234 290 350 442
#     4  11  25  44  70 101 145 180 232 290 357 428
#     4  12  23  42  75  97 134 191 234 289 357 417
#     4  11  23  47  70  98 134 178 246 299 348 424
#     4  12  26  45  70 102 133 184 238 300 360 414
#     4  10  22  42  64 105 141 178 222 280 354 436
#
# _framework density 21.283570999999998
#
# number of rings (size 3 to 8) (size 9 to 14) (size 15 to 20)
#    0.000    0.909    6.364    0.273    5.091    1.818 
#    6.545    0.000    0.000    0.000    0.000    0.000 
#    0.000    0.000    0.000    0.000    0.000    0.000 
#
# Total GULP energy -122586.373622 kJ/mol
# GULP energy per Si atom -5572.107892 kJ/mol
# Density = 2.123513 g / cm^3
# Si number density = 21.283571 Si / 1000 Ang^3
#
#
#
# Elastic Constant Matrix: (Units=GPa)
#
#
# Indices 1 2 3 4 5 6 
#
# 1 143.0980 34.6220 51.7873 0.0000 0.0000 0.0000
# 2 34.6220 52.7710 26.8125 0.0000 0.0000 0.0000
# 3 51.7873 26.8125 93.5429 0.0000 0.0000 0.0000
# 4 0.0000 0.0000 0.0000 -18.6489 0.0000 0.0000
# 5 0.0000 0.0000 0.0000 0.0000 40.8430 0.0000
# 6 0.0000 0.0000 0.0000 0.0000 0.0000 -783.4005
#
#
#
# Elastic Compliance Matrix: (Units=1/GPa)
#
#
# Indices 1 2 3 4 5 6 
#
# 1 0.009456 -0.004148 -0.004046 0.000000 0.000000 0.000000
# 2 -0.004148 0.024000 -0.004583 0.000000 0.000000 0.000000
# 3 -0.004046 -0.004583 0.014244 0.000000 0.000000 0.000000
# 4 0.000000 0.000000 0.000000 -0.053622 0.000000 0.000000
# 5 0.000000 0.000000 0.000000 0.000000 0.024484 0.000000
# 6 0.000000 0.000000 0.000000 0.000000 0.000000 -0.001276
#
#
# Mechanical properties :
#
#
# Convention : Reuss Voigt Hill
#
# Bulk Modulus (GPa) = 45.15512 57.31729 51.23621
# Shear Modulus (GPa) = 99.56072 -140.49527 -20.46728
#
# Velocity S-wave (km/s) = 6.84688 -8.13354 -3.10441
# Velocity P-wave (km/s) = 9.15250 7.82414 3.35792
#
# Compressibility (1/GPa) = 0.02214588
#
# Stress axis : x y z
#
# Youngs Moduli (GPa) = 105.75134 41.66715 70.20588
#
# Poissons Ratio (x) = 0.17284 0.28406
# Poissons Ratio (y) = 0.43868 0.32173
# Poissons Ratio (z) = 0.42788 0.19094
#
# Static dielectric constant tensor:
#      x y z
#    x 2.020610 0.000000 0.000000 
#    y 0.000000 1.968610 0.000000 
#    z 0.000000 0.000000 4.692080 
# 
# From -- ./inp_files/19990.got.cif
#   From: 2010.05.17/outbox.cif.g08.bks.cpg/sg22_10_cif.got.tgz:19990.got - 2010.06.03 23:40:54.
