data_PCOD9328271
_publ_section_title
;
Structure prediction by ZEFSAII (Michael W. Deem and Ramdas Pophale) SiO2 
 PCOD9328271
Probable space group: F 2 2 2
;
_chemical_formula_sum "Si O2"
_cell_formula_units_Z 92
_cell_length_a 9.382935
_cell_length_b 21.614357
_cell_length_c 21.646763
_cell_angle_alpha 90.000000
_cell_angle_beta 90.000000
_cell_angle_gamma 90.000000
_cell_volume 4390.095729
_symmetry_space_group_name_H-M "F 2 2 2"
_symmetry_group_IT_number 22
_symmetry_cell_setting 'orthorhombic'
loop_
_space_group_symop_operation_xyz
x,y,z
-x,-y,z
x,-y,-z
-x,y,-z
x,1/2+y,1/2+z
-x,1/2-y,1/2+z
x,1/2-y,1/2-z
-x,1/2+y,1/2-z
1/2+x,y,1/2+z
1/2-x,-y,1/2+z
1/2+x,-y,1/2-z
1/2-x,y,1/2-z
1/2+x,1/2+y,z
1/2-x,1/2-y,z
1/2+x,1/2-y,-z
1/2-x,1/2+y,-z
loop_
_atom_site_type_symbol
_atom_site_label
_atom_site_fract_x
_atom_site_fract_y
_atom_site_fract_z
Si Si1 0.595477 0.599300 0.406649
Si Si2 0.791250 0.117784 0.464175
Si Si3 0.250000 0.250000 0.250000
Si Si4 0.931732 0.929883 0.868996
Si Si5 0.750000 0.430369 0.250000
Si Si6 0.000000 0.000000 0.316867
Si Si7 0.750000 0.750000 0.026941
Si Si8 0.843105 0.821444 0.135396
O O1 0.432528 0.614151 0.422536
O O2 0.672732 0.584678 0.471009
O O3 0.593578 0.543070 0.360421
O O4 0.681726 0.654508 0.375194
O O5 0.660174 0.084878 0.430472
O O6 0.776498 0.189877 0.484801
O O7 0.154843 0.210321 0.202216
O O8 0.824005 0.907164 0.813771
O O9 0.060470 0.881446 0.867752
O O10 0.000000 0.000000 0.865064
O O11 0.887073 0.465509 0.224412
O O12 0.867955 0.776173 0.076458
#
# Coordination Sequence:
#
# PCOD9328271 Si02
#       8
#    16  16   4  16   8   8   8  16
#     4  10  23  41  67 100 129 179 225 282 351 415
#     4  10  23  44  70  98 136 182 233 289 356 426
#     4  10  24  42  72 102 132 192 260 286 336 430
#     4  12  26  46  69 110 146 188 231 299 371 433
#     4  12  26  43  66  97 142 194 224 278 348 428
#     4  12  24  45  68  96 145 182 226 278 348 428
#     4   9  22  47  66  97 136 185 232 294 360 417
#     4  10  24  42  70 101 137 183 238 298 354 414
#
# _framework density 20.956261999999999
#
# number of rings (size 3 to 8) (size 9 to 14) (size 15 to 20)
#    0.000    1.391    2.609    1.043    2.435   11.826 
#    3.130    6.957    0.000    1.043    0.000    0.000 
#    0.000    0.000    0.000    0.000    0.000    0.000 
#
# Total GULP energy -128139.808255 kJ/mol
# GULP energy per Si atom -5571.296011 kJ/mol
# Density = 2.090856 g / cm^3
# Si number density = 20.956262 Si / 1000 Ang^3
#
#
#
# Elastic Constant Matrix: (Units=GPa)
#
#
# Indices 1 2 3 4 5 6 
#
# 1 65.1886 19.5458 21.6398 0.0000 0.0000 0.0000
# 2 19.5458 73.5742 25.9628 0.0000 0.0000 0.0000
# 3 21.6398 25.9628 96.8511 0.0000 0.0000 0.0000
# 4 0.0000 0.0000 0.0000 32.4456 0.0000 0.0000
# 5 0.0000 0.0000 0.0000 0.0000 -63.7522 0.0000
# 6 0.0000 0.0000 0.0000 0.0000 0.0000 34.6213
#
#
#
# Elastic Compliance Matrix: (Units=1/GPa)
#
#
# Indices 1 2 3 4 5 6 
#
# 1 0.017386 -0.003587 -0.002923 0.000000 0.000000 0.000000
# 2 -0.003587 0.015752 -0.003421 0.000000 0.000000 0.000000
# 3 -0.002923 -0.003421 0.011895 0.000000 0.000000 0.000000
# 4 0.000000 0.000000 0.000000 0.030821 0.000000 0.000000
# 5 0.000000 0.000000 0.000000 0.000000 -0.015686 0.000000
# 6 0.000000 0.000000 0.000000 0.000000 0.000000 0.028884
#
#
# Mechanical properties :
#
#
# Convention : Reuss Voigt Hill
#
# Bulk Modulus (GPa) = 39.72905 41.10120 40.41512
# Shear Modulus (GPa) = 42.62383 11.89397 27.25890
#
# Velocity S-wave (km/s) = 4.51482 2.38494 3.61051
# Velocity P-wave (km/s) = 6.79539 5.21913 6.05874
#
# Compressibility (1/GPa) = 0.02517050
#
# Stress axis : x y z
#
# Youngs Moduli (GPa) = 57.51756 63.48417 84.06672
#
# Poissons Ratio (x) = 0.22774 0.24572
# Poissons Ratio (y) = 0.20633 0.28760
# Poissons Ratio (z) = 0.16812 0.21719
#
# Static dielectric constant tensor:
#      x y z
#    x 1.750270 0.000000 0.000000 
#    y 0.000000 2.269060 0.000000 
#    z 0.000000 0.000000 1.782670 
# 
# From -- ./inp_files/41897.got.cif
#   From: 2010.05.17/outbox.cif.g08.bks.cpg/sg22_21_cif.got.tgz:41897.got - 2010.06.03 23:40:54.
