data_PCOD9328818
_publ_section_title
;
Structure prediction by ZEFSAII (Michael W. Deem and Ramdas Pophale) SiO2 
 PCOD9328818
Probable space group: F 2 2 2
;
_chemical_formula_sum "Si O2"
_cell_formula_units_Z 88
_cell_length_a 12.101216
_cell_length_b 24.480086
_cell_length_c 14.817097
_cell_angle_alpha 90.000000
_cell_angle_beta 90.000000
_cell_angle_gamma 90.000000
_cell_volume 4389.399159
_symmetry_space_group_name_H-M "F 2 2 2"
_symmetry_group_IT_number 22
_symmetry_cell_setting 'orthorhombic'
loop_
_space_group_symop_operation_xyz
x,y,z
-x,-y,z
x,-y,-z
-x,y,-z
x,1/2+y,1/2+z
-x,1/2-y,1/2+z
x,1/2-y,1/2-z
-x,1/2+y,1/2-z
1/2+x,y,1/2+z
1/2-x,-y,1/2+z
1/2+x,-y,1/2-z
1/2-x,y,1/2-z
1/2+x,1/2+y,z
1/2-x,1/2-y,z
1/2+x,1/2-y,-z
1/2-x,1/2+y,-z
loop_
_atom_site_type_symbol
_atom_site_label
_atom_site_fract_x
_atom_site_fract_y
_atom_site_fract_z
Si Si1 0.304316 0.641899 0.664753
Si Si2 0.922679 0.250000 0.750000
Si Si3 0.207491 0.366082 0.850366
Si Si4 0.571427 0.736319 0.581341
Si Si5 0.130903 0.151418 0.000426
Si Si6 0.001607 0.937857 0.392088
O O1 0.250000 0.612973 0.750000
O O2 0.354136 0.698977 0.707035
O O3 0.208491 0.648758 0.589347
O O4 0.402871 0.603504 0.632318
O O5 0.000402 0.236969 0.836664
O O6 0.250000 0.360756 0.750000
O O7 0.150199 0.309041 0.878318
O O8 0.113318 0.410802 0.857671
O O9 0.304279 0.379096 0.920971
O O10 0.500000 0.709494 0.500000
O O11 0.629833 0.785388 0.529759
O O12 0.000000 0.135976 0.000000
O O13 0.000000 0.940250 0.500000
O O14 0.000000 0.000000 0.357555
#
# Coordination Sequence:
#
# PCOD9328818 Si02
#       6
#    16   8  16  16  16  16
#     4  12  25  43  70 102 142 183 229 285 345 419
#     4  12  23  40  67 104 142 185 228 277 342 424
#     4  12  24  42  69  99 137 178 227 287 345 405
#     4  11  22  39  63  96 145 183 221 271 337 415
#     4  11  25  41  61 100 146 188 221 272 344 422
#     4  11  25  51  78  98 127 183 245 295 341 403
#
# _framework density 20.048302
#
# number of rings (size 3 to 8) (size 9 to 14) (size 15 to 20)
#    0.000    0.545    3.636    5.727    2.545    4.364 
#    0.000    0.000    0.000    1.091    0.000    0.000 
#    0.000    0.000    0.000    0.000    0.000    0.000 
#
# Total GULP energy -122862.798036 kJ/mol
# GULP energy per Si atom -5584.672638 kJ/mol
# Density = 2.000267 g / cm^3
# Si number density = 20.048302 Si / 1000 Ang^3
#
#
#
# Elastic Constant Matrix: (Units=GPa)
#
#
# Indices 1 2 3 4 5 6 
#
# 1 184.7350 81.5730 95.8047 0.0000 0.0000 0.0000
# 2 81.5730 98.3094 43.3439 0.0000 0.0000 0.0000
# 3 95.8047 43.3439 177.6200 0.0000 0.0000 0.0000
# 4 0.0000 0.0000 0.0000 -5.2570 0.0000 0.0000
# 5 0.0000 0.0000 0.0000 0.0000 29.9676 0.0000
# 6 0.0000 0.0000 0.0000 0.0000 0.0000 2.9987
#
#
#
# Elastic Compliance Matrix: (Units=1/GPa)
#
#
# Indices 1 2 3 4 5 6 
#
# 1 0.010587 -0.007022 -0.003997 0.000000 0.000000 0.000000
# 2 -0.007022 0.016056 -0.000130 0.000000 0.000000 0.000000
# 3 -0.003997 -0.000130 0.007818 0.000000 0.000000 0.000000
# 4 0.000000 0.000000 0.000000 -0.190223 0.000000 0.000000
# 5 0.000000 0.000000 0.000000 0.000000 0.033369 0.000000
# 6 0.000000 0.000000 0.000000 0.000000 0.000000 0.333475
#
#
# Mechanical properties :
#
#
# Convention : Reuss Voigt Hill
#
# Bulk Modulus (GPa) = 82.22513 100.23419 91.22966
# Shear Modulus (GPa) = 21.05847 21.53805 21.29826
#
# Velocity S-wave (km/s) = 3.24448 3.28122 3.26290
# Velocity P-wave (km/s) = 7.42550 8.02870 7.73299
#
# Compressibility (1/GPa) = 0.01216173
#
# Stress axis : x y z
#
# Youngs Moduli (GPa) = 94.45874 62.28096 127.91769
#
# Poissons Ratio (x) = 0.43735 0.51124
# Poissons Ratio (y) = 0.66331 0.01669
# Poissons Ratio (z) = 0.37751 0.00813
#
# Static dielectric constant tensor:
#      x y z
#    x 1.742140 0.000000 0.000000 
#    y 0.000000 1.695090 0.000000 
#    z 0.000000 0.000000 1.743900 
# 
# From -- ./inp_files/28189.got.cif
#   From: 2010.05.17/outbox.cif.g08.bks.cpg/sg22_15_cif.got.tgz:28189.got - 2010.06.03 23:40:54.
