data_PCOD9328754
_publ_section_title
;
Structure prediction by ZEFSAII (Michael W. Deem and Ramdas Pophale) SiO2 
 PCOD9328754
Probable space group: F 2 2 2
;
_chemical_formula_sum "Si O2"
_cell_formula_units_Z 68
_cell_length_a 20.021756
_cell_length_b 28.325300
_cell_length_c 5.207317
_cell_angle_alpha 90.000000
_cell_angle_beta 90.000000
_cell_angle_gamma 90.000000
_cell_volume 2953.185309
_symmetry_space_group_name_H-M "F 2 2 2"
_symmetry_group_IT_number 22
_symmetry_cell_setting 'orthorhombic'
loop_
_space_group_symop_operation_xyz
x,y,z
-x,-y,z
x,-y,-z
-x,y,-z
x,1/2+y,1/2+z
-x,1/2-y,1/2+z
x,1/2-y,1/2-z
-x,1/2+y,1/2-z
1/2+x,y,1/2+z
1/2-x,-y,1/2+z
1/2+x,-y,1/2-z
1/2-x,y,1/2-z
1/2+x,1/2+y,z
1/2-x,1/2-y,z
1/2+x,1/2-y,-z
1/2-x,1/2+y,-z
loop_
_atom_site_type_symbol
_atom_site_label
_atom_site_fract_x
_atom_site_fract_y
_atom_site_fract_z
Si Si1 0.541230 0.852334 0.745830
Si Si2 0.818335 0.433923 0.873166
Si Si3 0.185391 0.171465 0.577169
Si Si4 0.250000 0.250000 0.250000
Si Si5 0.097746 0.049143 0.876227
O O1 0.500000 0.836083 0.500000
O O2 0.615067 0.830562 0.774319
O O3 0.549467 0.909653 0.722840
O O4 0.500000 0.841831 0.000000
O O5 0.750000 0.454425 0.750000
O O6 0.866637 0.431243 0.629325
O O7 0.808575 0.379501 0.946007
O O8 0.850429 0.456592 0.134435
O O9 0.250000 0.174142 0.750000
O O10 0.198502 0.215538 0.395764
O O11 0.072345 0.000000 0.000000
#
# Coordination Sequence:
#
# PCOD9328754 Si02
#       5
#    16  16  16   4  16
#     4  11  25  46  77 106 149 205 242 298 376 437
#     4  11  21  39  67  99 147 195 234 301 370 427
#     4  11  25  46  77 110 146 188 248 303 372 455
#     4  12  26  44  88 114 136 188 260 312 374 452
#     4  11  24  41  65 102 145 194 255 300 344 423
#
# _framework density 23.025987000000001
#
# number of rings (size 3 to 8) (size 9 to 14) (size 15 to 20)
#    0.000    0.941    1.176    7.412    3.294    2.353 
#    0.000    4.706    5.176    0.000    0.000    0.000 
#    0.000    0.000    0.000    0.000    0.000    0.000 
#
# Total GULP energy -94948.376660 kJ/mol
# GULP energy per Si atom -5585.198627 kJ/mol
# Density = 2.297358 g / cm^3
# Si number density = 23.025987 Si / 1000 Ang^3
#
#
#
# Elastic Constant Matrix: (Units=GPa)
#
#
# Indices 1 2 3 4 5 6 
#
# 1 132.6898 18.8150 55.3743 -0.0230 0.0620 0.0369
# 2 18.8150 96.6786 29.7031 -0.0438 0.0343 0.0222
# 3 55.3743 29.7031 159.7919 -0.0396 0.0898 0.0629
# 4 -0.0230 -0.0438 -0.0396 46.7125 -0.0152 -0.0010
# 5 0.0620 0.0343 0.0898 -0.0152 43.4481 -0.0284
# 6 0.0369 0.0222 0.0629 -0.0010 -0.0284 21.8948
#
#
#
# Elastic Compliance Matrix: (Units=1/GPa)
#
#
# Indices 1 2 3 4 5 6 
#
# 1 0.008873 -0.000829 -0.002921 0.000001 -0.000006 -0.000006
# 2 -0.000829 0.011048 -0.001766 0.000008 -0.000004 -0.000005
# 3 -0.002921 -0.001766 0.007599 0.000003 -0.000010 -0.000015
# 4 0.000001 0.000008 0.000003 0.021408 0.000007 0.000001
# 5 -0.000006 -0.000004 -0.000010 0.000007 0.023016 0.000030
# 6 -0.000006 -0.000005 -0.000015 0.000001 0.000030 0.045673
#
#
# Mechanical properties :
#
#
# Convention : Reuss Voigt Hill
#
# Bulk Modulus (GPa) = 60.65543 66.32724 63.49134
# Shear Modulus (GPa) = 37.27353 41.42896 39.35124
#
# Velocity S-wave (km/s) = 4.02775 4.24633 4.13848
# Velocity P-wave (km/s) = 6.93034 7.27390 7.10420
#
# Compressibility (1/GPa) = 0.01648657
#
# Stress axis : x y z
#
# Youngs Moduli (GPa) = 112.70376 90.51740 131.60394
#
# Poissons Ratio (x) = 0.07508 0.38436
# Poissons Ratio (y) = 0.09348 0.23243
# Poissons Ratio (z) = 0.32916 0.15987
#
# Static dielectric constant tensor:
#      x y z
#    x 1.857540 -0.000100 0.000250 
#    y -0.000100 1.857840 0.000820 
#    z 0.000250 0.000820 1.506790 
# 
# From -- ./inp_files/3977.got.cif
#   From: 2010.05.17/outbox.cif.g08.bks.cpg/sg22_2_cif.got.tgz:3977.got - 2010.06.03 23:40:54.
