data_PCOD9328653
_publ_section_title
;
Structure prediction by ZEFSAII (Michael W. Deem and Ramdas Pophale) SiO2 
 PCOD9328653
Probable space group: F 2 2 2
;
_chemical_formula_sum "Si O2"
_cell_formula_units_Z 88
_cell_length_a 20.074824
_cell_length_b 16.114741
_cell_length_c 11.374833
_cell_angle_alpha 90.000000
_cell_angle_beta 90.000000
_cell_angle_gamma 90.000000
_cell_volume 3679.765180
_symmetry_space_group_name_H-M "F 2 2 2"
_symmetry_group_IT_number 22
_symmetry_cell_setting 'orthorhombic'
loop_
_space_group_symop_operation_xyz
x,y,z
-x,-y,z
x,-y,-z
-x,y,-z
x,1/2+y,1/2+z
-x,1/2-y,1/2+z
x,1/2-y,1/2-z
-x,1/2+y,1/2-z
1/2+x,y,1/2+z
1/2-x,-y,1/2+z
1/2+x,-y,1/2-z
1/2-x,y,1/2-z
1/2+x,1/2+y,z
1/2-x,1/2-y,z
1/2+x,1/2-y,-z
1/2-x,1/2+y,-z
loop_
_atom_site_type_symbol
_atom_site_label
_atom_site_fract_x
_atom_site_fract_y
_atom_site_fract_z
Si Si1 0.138446 0.436432 0.754963
Si Si2 0.355996 0.311910 0.955049
Si Si3 0.790154 0.631106 0.971734
Si Si4 0.000000 0.500000 0.741957
Si Si5 0.949449 0.323286 0.671754
Si Si6 0.178634 0.105334 0.275280
O O1 0.127567 0.360646 0.665299
O O2 0.192077 0.413004 0.851645
O O3 0.067279 0.468910 0.805872
O O4 0.167861 0.521325 0.700966
O O5 0.288676 0.360262 0.994670
O O6 0.326327 0.219656 0.950563
O O7 0.419887 0.307759 0.041185
O O8 0.821889 0.589720 0.085718
O O9 0.018248 0.584511 0.672008
O O10 0.984864 0.250000 0.750000
O O11 0.882211 0.336829 0.746501
O O12 0.250000 0.144148 0.250000
#
# Coordination Sequence:
#
# PCOD9328653 Si02
#       6
#    16  16  16   8  16  16
#     4  11  25  43  62  97 143 193 241 294 358 425
#     4  11  23  39  71 103 144 177 228 305 375 447
#     4  11  22  40  67 107 141 180 229 295 378 449
#     4  10  28  49  69  98 144 198 255 305 338 442
#     4  11  23  44  71 102 136 185 245 294 365 425
#     4  11  21  38  68 101 138 181 232 293 361 439
#
# _framework density 23.914569
#
# number of rings (size 3 to 8) (size 9 to 14) (size 15 to 20)
#    0.000    1.091    3.636    2.727    0.000    7.636 
#    0.000    7.273    0.000    0.000    0.000    0.000 
#    0.000    0.000    0.000    0.000    0.000    0.000 
#
# Total GULP energy -122643.305472 kJ/mol
# GULP energy per Si atom -5574.695703 kJ/mol
# Density = 2.386014 g / cm^3
# Si number density = 23.914569 Si / 1000 Ang^3
#
#
#
# Elastic Constant Matrix: (Units=GPa)
#
#
# Indices 1 2 3 4 5 6 
#
# 1 84.5927 20.4441 -7.9266 0.0000 0.0000 0.0000
# 2 20.4441 145.8836 34.1867 0.0000 0.0000 0.0000
# 3 -7.9266 34.1867 74.1351 0.0000 0.0000 0.0000
# 4 0.0000 0.0000 0.0000 41.9969 0.0000 0.0000
# 5 0.0000 0.0000 0.0000 0.0000 5.6505 0.0000
# 6 0.0000 0.0000 0.0000 0.0000 0.0000 35.0144
#
#
#
# Elastic Compliance Matrix: (Units=1/GPa)
#
#
# Indices 1 2 3 4 5 6 
#
# 1 0.012613 -0.002336 0.002426 0.000000 0.000000 0.000000
# 2 -0.002336 0.008118 -0.003993 0.000000 0.000000 0.000000
# 3 0.002426 -0.003993 0.015590 0.000000 0.000000 0.000000
# 4 0.000000 0.000000 0.000000 0.023811 0.000000 0.000000
# 5 0.000000 0.000000 0.000000 0.000000 0.176974 0.000000
# 6 0.000000 0.000000 0.000000 0.000000 0.000000 0.028560
#
#
# Mechanical properties :
#
#
# Convention : Reuss Voigt Hill
#
# Bulk Modulus (GPa) = 35.07059 44.22444 39.64752
# Shear Modulus (GPa) = 17.66922 33.72617 25.69770
#
# Velocity S-wave (km/s) = 2.72112 3.75944 3.28161
# Velocity P-wave (km/s) = 4.95676 6.11370 5.56538
#
# Compressibility (1/GPa) = 0.02851392
#
# Stress axis : x y z
#
# Youngs Moduli (GPa) = 79.28166 123.18356 64.14475
#
# Poissons Ratio (x) = 0.28777 -0.15561
# Poissons Ratio (y) = 0.18521 0.25615
# Poissons Ratio (z) = -0.19233 0.49191
#
# Static dielectric constant tensor:
#      x y z
#    x 1.937720 0.000000 0.000000 
#    y 0.000000 1.920550 0.000000 
#    z 0.000000 0.000000 1.953890 
# 
# From -- ./inp_files/22601.got.cif
#   From: 2010.05.17/outbox.cif.g08.bks.cpg/sg22_12_cif.got.tgz:22601.got - 2010.06.03 23:40:54.
