data_PCOD9328576
_publ_section_title
;
Structure prediction by ZEFSAII (Michael W. Deem and Ramdas Pophale) SiO2 
 PCOD9328576
Probable space group: F 2 2 2
;
_chemical_formula_sum "Si O2"
_cell_formula_units_Z 60
_cell_length_a 9.321816
_cell_length_b 15.885433
_cell_length_c 18.032105
_cell_angle_alpha 90.000000
_cell_angle_beta 90.000000
_cell_angle_gamma 90.000000
_cell_volume 2670.213646
_symmetry_space_group_name_H-M "F 2 2 2"
_symmetry_group_IT_number 22
_symmetry_cell_setting 'orthorhombic'
loop_
_space_group_symop_operation_xyz
x,y,z
-x,-y,z
x,-y,-z
-x,y,-z
x,1/2+y,1/2+z
-x,1/2-y,1/2+z
x,1/2-y,1/2-z
-x,1/2+y,1/2-z
1/2+x,y,1/2+z
1/2-x,-y,1/2+z
1/2+x,-y,1/2-z
1/2-x,y,1/2-z
1/2+x,1/2+y,z
1/2-x,1/2-y,z
1/2+x,1/2-y,-z
1/2-x,1/2+y,-z
loop_
_atom_site_type_symbol
_atom_site_label
_atom_site_fract_x
_atom_site_fract_y
_atom_site_fract_z
Si Si1 0.100047 0.701453 0.068903
Si Si2 0.775030 0.449256 0.370670
Si Si3 0.750000 0.411395 0.750000
Si Si4 0.972521 0.318522 0.302691
Si Si5 0.500000 0.000000 0.500000
O O1 0.250000 0.750000 0.051156
O O2 0.147320 0.613577 0.106445
O O3 0.014737 0.767395 0.120769
O O4 0.000000 0.683311 0.000000
O O5 0.730596 0.532023 0.324747
O O6 0.873063 0.397977 0.313700
O O7 0.883379 0.461252 0.441165
O O8 0.616430 0.352107 0.766967
O O9 0.903641 0.250000 0.250000
#
# Coordination Sequence:
#
# PCOD9328576 Si02
#       5
#    16  16   8  16   4
#     4  10  25  45  74 106 149 195 252 313 381 451
#     4  11  25  46  77 104 154 197 253 311 390 448
#     4  12  23  44  71 106 142 194 246 308 367 454
#     4  11  24  43  69 105 146 189 247 309 369 445
#     4  12  24  48  78 116 152 202 252 324 392 448
#
# _framework density 22.470112
#
# number of rings (size 3 to 8) (size 9 to 14) (size 15 to 20)
#    0.000    1.067    2.667    2.000    7.467    8.000 
#    0.000    3.333    0.000    0.000    0.000    0.000 
#    0.000    0.000    0.000    0.000    0.000    0.000 
#
# Total GULP energy -83789.113229 kJ/mol
# GULP energy per Si atom -5585.940882 kJ/mol
# Density = 2.241897 g / cm^3
# Si number density = 22.470112 Si / 1000 Ang^3
#
#
#
# Elastic Constant Matrix: (Units=GPa)
#
#
# Indices 1 2 3 4 5 6 
#
# 1 133.2137 78.7309 83.3442 0.0000 0.0000 0.0000
# 2 78.7309 107.1432 44.8540 0.0000 0.0000 0.0000
# 3 83.3442 44.8540 86.7484 0.0000 0.0000 0.0000
# 4 0.0000 0.0000 0.0000 1.2099 0.0000 0.0000
# 5 0.0000 0.0000 0.0000 0.0000 13.7583 0.0000
# 6 0.0000 0.0000 0.0000 0.0000 0.0000 7.8955
#
#
#
# Elastic Compliance Matrix: (Units=1/GPa)
#
#
# Indices 1 2 3 4 5 6 
#
# 1 0.026307 -0.011167 -0.019501 0.000000 0.000000 0.000000
# 2 -0.011167 0.016652 0.002119 0.000000 0.000000 0.000000
# 3 -0.019501 0.002119 0.029167 0.000000 0.000000 0.000000
# 4 0.000000 0.000000 0.000000 0.826515 0.000000 0.000000
# 5 0.000000 0.000000 0.000000 0.000000 0.072683 0.000000
# 6 0.000000 0.000000 0.000000 0.000000 0.000000 0.126654
#
#
# Mechanical properties :
#
#
# Convention : Reuss Voigt Hill
#
# Bulk Modulus (GPa) = 66.53950 82.32929 74.43439
# Shear Modulus (GPa) = 4.31002 12.58448 8.44725
#
# Velocity S-wave (km/s) = 1.38646 2.36911 1.94100
# Velocity P-wave (km/s) = 5.67801 6.64850 6.18233
#
# Compressibility (1/GPa) = 0.01502867
#
# Stress axis : x y z
#
# Youngs Moduli (GPa) = 38.01223 60.05189 34.28477
#
# Poissons Ratio (x) = 0.67062 0.66858
# Poissons Ratio (y) = 0.42450 -0.07265
# Poissons Ratio (z) = 0.74127 -0.12725
#
# Static dielectric constant tensor:
#      x y z
#    x 1.838600 0.000000 0.000000 
#    y 0.000000 1.965010 0.000000 
#    z 0.000000 0.000000 1.755580 
# 
# From -- ./inp_files/10983.got.cif
#   From: 2010.05.17/outbox.cif.g08.bks.cpg/sg22_6_cif.got.tgz:10983.got - 2010.06.03 23:40:54.
