data_PCOD9328668
_publ_section_title
;
Structure prediction by ZEFSAII (Michael W. Deem and Ramdas Pophale) SiO2 
 PCOD9328668
Probable space group: F 2 2 2
;
_chemical_formula_sum "Si O2"
_cell_formula_units_Z 96
_cell_length_a 15.995227
_cell_length_b 19.851000
_cell_length_c 15.995267
_cell_angle_alpha 90.000000
_cell_angle_beta 90.000000
_cell_angle_gamma 90.000000
_cell_volume 5078.837191
_symmetry_space_group_name_H-M "F 2 2 2"
_symmetry_group_IT_number 22
_symmetry_cell_setting 'orthorhombic'
loop_
_space_group_symop_operation_xyz
x,y,z
-x,-y,z
x,-y,-z
-x,y,-z
x,1/2+y,1/2+z
-x,1/2-y,1/2+z
x,1/2-y,1/2-z
-x,1/2+y,1/2-z
1/2+x,y,1/2+z
1/2-x,-y,1/2+z
1/2+x,-y,1/2-z
1/2-x,y,1/2-z
1/2+x,1/2+y,z
1/2-x,1/2-y,z
1/2+x,1/2-y,-z
1/2-x,1/2+y,-z
loop_
_atom_site_type_symbol
_atom_site_label
_atom_site_fract_x
_atom_site_fract_y
_atom_site_fract_z
Si Si1 0.070760 0.255480 0.429240
Si Si2 0.500000 0.500000 0.221788
Si Si3 0.748726 0.383148 0.112803
Si Si4 0.221788 0.000000 0.000000
Si Si5 0.250000 0.750000 0.496194
Si Si6 0.070509 0.083662 0.070509
Si Si7 0.112803 0.116852 0.751274
Si Si8 0.503806 0.750000 0.750000
O O1 0.164468 0.233763 0.454241
O O2 0.074600 0.336428 0.425400
O O3 0.000000 0.237295 0.500000
O O4 0.045759 0.233763 0.335532
O O5 0.545957 0.551064 0.158381
O O6 0.560417 0.449833 0.271015
O O7 0.771015 0.449833 0.060417
O O8 0.733076 0.316280 0.059266
O O9 0.821107 0.367890 0.178893
O O10 0.664270 0.399026 0.164270
O O11 0.158381 0.051064 0.045957
O O12 0.000000 0.069333 0.000000
O O13 0.059266 0.183720 0.766924
#
# Coordination Sequence:
#
# PCOD9328668 Si02
#       8
#    16   8  16   8   8  16  16   8
#     4  11  24  41  65  97 129 167 213 266 320 382
#     4  12  19  36  62  91 120 152 202 262 319 378
#     4  11  23  39  62  91 123 161 209 263 319 383
#     4  12  19  36  62  91 120 152 202 262 319 378
#     4  12  24  42  66  92 126 166 214 261 322 379
#     4  11  18  32  62  92 116 151 202 257 311 371
#     4  11  23  39  62  91 123 161 209 263 319 383
#     4  12  24  42  66  92 126 166 214 261 322 379
#
# _framework density 18.901965000000001
#
# number of rings (size 3 to 8) (size 9 to 14) (size 15 to 20)
#    0.000    0.667    6.667    3.000    0.000    1.667 
#    3.000    0.000    3.667    0.000    0.000    0.000 
#    0.000    0.000    0.000    0.000    0.000    0.000 
#
# Total GULP energy -133967.585349 kJ/mol
# GULP energy per Si atom -5581.982723 kJ/mol
# Density = 1.885894 g / cm^3
# Si number density = 18.901965 Si / 1000 Ang^3
#
#
#
# Elastic Constant Matrix: (Units=GPa)
#
#
# Indices 1 2 3 4 5 6 
#
# 1 83.3678 6.0753 32.1078 0.0000 0.0000 0.0000
# 2 6.0753 64.4717 6.0755 0.0000 0.0000 0.0000
# 3 32.1078 6.0755 83.3685 0.0000 0.0000 0.0000
# 4 0.0000 0.0000 0.0000 -4.8119 0.0000 0.0000
# 5 0.0000 0.0000 0.0000 0.0000 21.1876 0.0000
# 6 0.0000 0.0000 0.0000 0.0000 0.0000 -4.8183
#
#
#
# Elastic Compliance Matrix: (Units=1/GPa)
#
#
# Indices 1 2 3 4 5 6 
#
# 1 0.014127 -0.000824 -0.005381 0.000000 0.000000 0.000000
# 2 -0.000824 0.015666 -0.000824 0.000000 0.000000 0.000000
# 3 -0.005381 -0.000824 0.014127 0.000000 0.000000 0.000000
# 4 0.000000 0.000000 0.000000 -0.207818 0.000000 0.000000
# 5 0.000000 0.000000 0.000000 0.000000 0.047197 0.000000
# 6 0.000000 0.000000 0.000000 0.000000 0.000000 -0.207542
#
#
# Mechanical properties :
#
#
# Convention : Reuss Voigt Hill
#
# Bulk Modulus (GPa) = 33.48713 35.52503 34.50608
# Shear Modulus (GPa) = -16.65397 14.77477 -0.93960
#
# Velocity S-wave (km/s) = -2.97150 2.79884 -0.70581
# Velocity P-wave (km/s) = 2.44572 5.41108 4.19889
#
# Compressibility (1/GPa) = 0.02986222
#
# Stress axis : x y z
#
# Youngs Moduli (GPa) = 70.78412 63.83245 70.78475
#
# Poissons Ratio (x) = 0.05261 0.38088
# Poissons Ratio (y) = 0.05834 0.05834
# Poissons Ratio (z) = 0.38088 0.05261
#
# Static dielectric constant tensor:
#      x y z
#    x 1.706840 0.000000 0.000000 
#    y 0.000000 1.631270 0.000000 
#    z 0.000000 0.000000 1.706840 
# 
# From -- ./inp_files/29447.got.cif
#   From: 2010.05.17/outbox.cif.g08.bks.cpg/sg22_15_cif.got.tgz:29447.got - 2010.06.03 23:40:54.
