data_PCOD9328781
_publ_section_title
;
Structure prediction by ZEFSAII (Michael W. Deem and Ramdas Pophale) SiO2 
 PCOD9328781
Probable space group: F 2 2 2
;
_chemical_formula_sum "Si O2"
_cell_formula_units_Z 88
_cell_length_a 29.692383
_cell_length_b 12.175371
_cell_length_c 11.231905
_cell_angle_alpha 90.000000
_cell_angle_beta 90.000000
_cell_angle_gamma 90.000000
_cell_volume 4060.510885
_symmetry_space_group_name_H-M "F 2 2 2"
_symmetry_group_IT_number 22
_symmetry_cell_setting 'orthorhombic'
loop_
_space_group_symop_operation_xyz
x,y,z
-x,-y,z
x,-y,-z
-x,y,-z
x,1/2+y,1/2+z
-x,1/2-y,1/2+z
x,1/2-y,1/2-z
-x,1/2+y,1/2-z
1/2+x,y,1/2+z
1/2-x,-y,1/2+z
1/2+x,-y,1/2-z
1/2-x,y,1/2-z
1/2+x,1/2+y,z
1/2-x,1/2-y,z
1/2+x,1/2-y,-z
1/2-x,1/2+y,-z
loop_
_atom_site_type_symbol
_atom_site_label
_atom_site_fract_x
_atom_site_fract_y
_atom_site_fract_z
Si Si1 0.698569 0.500000 0.500000
Si Si2 0.877352 0.081354 0.653163
Si Si3 0.955495 0.168830 0.075010
Si Si4 0.541612 0.080536 0.156108
Si Si5 0.765505 0.372271 0.620625
Si Si6 0.629859 0.833643 0.415722
O O1 0.666934 0.485119 0.613788
O O2 0.734468 0.404050 0.509092
O O3 0.884954 0.117488 0.788858
O O4 0.871684 0.200004 0.589467
O O5 0.916437 0.996226 0.626252
O O6 0.957973 0.114916 0.204782
O O7 0.957518 0.302215 0.089390
O O8 0.908120 0.137014 0.012540
O O9 0.000000 0.137647 0.000000
O O10 0.500000 0.000000 0.133833
O O11 0.750000 0.425834 0.750000
O O12 0.750000 0.250000 0.638806
O O13 0.818044 0.374217 0.583383
#
# Coordination Sequence:
#
# PCOD9328781 Si02
#       6
#     8  16  16  16  16  16
#     4  12  22  38  69  96 129 174 220 286 338 398
#     4  11  22  39  68  97 129 172 230 274 337 406
#     4  11  25  44  66  97 142 178 220 284 344 408
#     4  11  25  43  65 100 135 176 229 279 341 419
#     4  11  21  42  65  97 133 173 232 281 337 412
#     4  11  22  42  67  98 132 178 223 284 339 404
#
# _framework density 21.672149999999998
#
# number of rings (size 3 to 8) (size 9 to 14) (size 15 to 20)
#    0.000    0.909    3.636    4.364    0.000    8.727 
#    0.000    0.000    0.000    0.545    0.000    0.000 
#    0.000    0.000    0.000    0.000    0.000    0.000 
#
# Total GULP energy -122587.086827 kJ/mol
# GULP energy per Si atom -5572.140310 kJ/mol
# Density = 2.162282 g / cm^3
# Si number density = 21.672150 Si / 1000 Ang^3
#
#
#
# Elastic Constant Matrix: (Units=GPa)
#
#
# Indices 1 2 3 4 5 6 
#
# 1 183.2835 42.4777 54.2467 0.0000 0.0000 0.0000
# 2 42.4777 97.2914 30.5217 0.0000 0.0000 0.0000
# 3 54.2467 30.5217 97.6620 0.0000 0.0000 0.0000
# 4 0.0000 0.0000 0.0000 12.5288 0.0000 0.0000
# 5 0.0000 0.0000 0.0000 0.0000 44.3614 0.0000
# 6 0.0000 0.0000 0.0000 0.0000 0.0000 28.3022
#
#
#
# Elastic Compliance Matrix: (Units=1/GPa)
#
#
# Indices 1 2 3 4 5 6 
#
# 1 0.006862 -0.001996 -0.003188 0.000000 0.000000 0.000000
# 2 -0.001996 0.011976 -0.002634 0.000000 0.000000 0.000000
# 3 -0.003188 -0.002634 0.012833 0.000000 0.000000 0.000000
# 4 0.000000 0.000000 0.000000 0.079816 0.000000 0.000000
# 5 0.000000 0.000000 0.000000 0.000000 0.022542 0.000000
# 6 0.000000 0.000000 0.000000 0.000000 0.000000 0.035333
#
#
# Mechanical properties :
#
#
# Convention : Reuss Voigt Hill
#
# Bulk Modulus (GPa) = 62.36067 70.30324 66.33195
# Shear Modulus (GPa) = 26.26819 33.77118 30.01969
#
# Velocity S-wave (km/s) = 3.48526 3.95178 3.72583
# Velocity P-wave (km/s) = 6.71067 7.30287 7.01302
#
# Compressibility (1/GPa) = 0.01603575
#
# Stress axis : x y z
#
# Youngs Moduli (GPa) = 145.72781 83.49872 77.92218
#
# Poissons Ratio (x) = 0.16666 0.24840
# Poissons Ratio (y) = 0.29087 0.20526
# Poissons Ratio (z) = 0.46455 0.21995
#
# Static dielectric constant tensor:
#      x y z
#    x 1.981120 0.000000 0.000000 
#    y 0.000000 1.863840 0.000000 
#    z 0.000000 0.000000 1.893360 
# 
# From -- ./inp_files/18386.got.cif
#   From: 2010.05.17/outbox.cif.g08.bks.cpg/sg22_10_cif.got.tgz:18386.got - 2010.06.03 23:40:54.
