data_PCOD9328473
_publ_section_title
;
Structure prediction by ZEFSAII (Michael W. Deem and Ramdas Pophale) SiO2 
 PCOD9328473
Probable space group: F 2 2 2
;
_chemical_formula_sum "Si O2"
_cell_formula_units_Z 92
_cell_length_a 17.658471
_cell_length_b 10.927527
_cell_length_c 19.608645
_cell_angle_alpha 90.000000
_cell_angle_beta 90.000000
_cell_angle_gamma 90.000000
_cell_volume 3783.751174
_symmetry_space_group_name_H-M "F 2 2 2"
_symmetry_group_IT_number 22
_symmetry_cell_setting 'orthorhombic'
loop_
_space_group_symop_operation_xyz
x,y,z
-x,-y,z
x,-y,-z
-x,y,-z
x,1/2+y,1/2+z
-x,1/2-y,1/2+z
x,1/2-y,1/2-z
-x,1/2+y,1/2-z
1/2+x,y,1/2+z
1/2-x,-y,1/2+z
1/2+x,-y,1/2-z
1/2-x,y,1/2-z
1/2+x,1/2+y,z
1/2-x,1/2-y,z
1/2+x,1/2-y,-z
1/2-x,1/2+y,-z
loop_
_atom_site_type_symbol
_atom_site_label
_atom_site_fract_x
_atom_site_fract_y
_atom_site_fract_z
Si Si1 0.628113 0.881206 0.665737
Si Si2 0.750000 0.250000 0.250000
Si Si3 0.361871 0.355654 0.573403
Si Si4 0.603057 0.647069 0.106652
Si Si5 0.000000 0.774840 0.500000
Si Si6 0.402018 0.750000 0.750000
Si Si7 0.750000 0.250000 0.970202
Si Si8 0.588181 0.508060 0.698696
O O1 0.707235 0.842418 0.699767
O O2 0.619094 0.770987 0.613358
O O3 0.582424 0.898141 0.737110
O O4 0.616007 0.005864 0.624843
O O5 0.435087 0.363669 0.527095
O O6 0.289925 0.344090 0.523750
O O7 0.362640 0.451986 0.634219
O O8 0.570097 0.711885 0.174882
O O9 0.683123 0.698226 0.077705
O O10 0.542044 0.683159 0.051205
O O11 0.372812 0.614395 0.728705
O O12 0.500000 0.500000 0.676849
#
# Coordination Sequence:
#
# PCOD9328473 Si02
#       8
#    16   4  16  16   8   8   8  16
#     4  11  25  41  75 104 142 190 253 311 377 440
#     4  12  22  46  68 118 136 192 260 312 382 450
#     4  11  23  46  70 106 145 202 246 309 373 466
#     4  10  24  47  70 113 148 203 248 326 378 466
#     4  10  24  43  73 108 162 192 262 296 398 456
#     4  10  24  44  70 110 143 189 252 308 392 437
#     4  10  25  47  71 108 149 206 256 298 390 460
#     4  11  24  41  72 106 145 189 243 315 374 449
#
# _framework density 24.314495000000001
#
# number of rings (size 3 to 8) (size 9 to 14) (size 15 to 20)
#    0.000    1.391    1.739    1.565    7.304    6.609 
#    3.130    7.391    0.000    0.000    0.000    0.000 
#    0.000    0.000    0.000    0.000    0.000    0.000 
#
# Total GULP energy -128221.995705 kJ/mol
# GULP energy per Si atom -5574.869378 kJ/mol
# Density = 2.425915 g / cm^3
# Si number density = 24.314495 Si / 1000 Ang^3
#
#
#
# Elastic Constant Matrix: (Units=GPa)
#
#
# Indices 1 2 3 4 5 6 
#
# 1 105.9158 3.5019 40.4423 0.0000 0.0000 0.0000
# 2 3.5019 101.5442 45.0690 0.0000 0.0000 0.0000
# 3 40.4423 45.0690 144.4201 0.0000 0.0000 0.0000
# 4 0.0000 0.0000 0.0000 44.6662 0.0000 0.0000
# 5 0.0000 0.0000 0.0000 0.0000 27.7207 0.0000
# 6 0.0000 0.0000 0.0000 0.0000 0.0000 8.8550
#
#
#
# Elastic Compliance Matrix: (Units=1/GPa)
#
#
# Indices 1 2 3 4 5 6 
#
# 1 0.010679 0.001113 -0.003338 0.000000 0.000000 0.000000
# 2 0.001113 0.011547 -0.003915 0.000000 0.000000 0.000000
# 3 -0.003338 -0.003915 0.009081 0.000000 0.000000 0.000000
# 4 0.000000 0.000000 0.000000 0.022388 0.000000 0.000000
# 5 0.000000 0.000000 0.000000 0.000000 0.036074 0.000000
# 6 0.000000 0.000000 0.000000 0.000000 0.000000 0.112931
#
#
# Mechanical properties :
#
#
# Convention : Reuss Voigt Hill
#
# Bulk Modulus (GPa) = 52.55609 58.87850 55.71730
# Shear Modulus (GPa) = 22.59141 33.77284 28.18213
#
# Velocity S-wave (km/s) = 3.05148 3.73097 3.40820
# Velocity P-wave (km/s) = 5.83758 6.54432 6.20103
#
# Compressibility (1/GPa) = 0.01902729
#
# Stress axis : x y z
#
# Youngs Moduli (GPa) = 93.64008 86.60045 110.12243
#
# Poissons Ratio (x) = -0.09640 0.36758
# Poissons Ratio (y) = -0.10424 0.43116
# Poissons Ratio (z) = 0.31256 0.33907
#
# Static dielectric constant tensor:
#      x y z
#    x 2.036790 0.000000 0.000000 
#    y 0.000000 1.953840 0.000000 
#    z 0.000000 0.000000 2.027280 
# 
# From -- ./inp_files/44176.got.cif
#   From: 2010.05.17/outbox.cif.g08.bks.cpg/sg22_23_cif.got.tgz:44176.got - 2010.06.03 23:40:54.
