data_PCOD9328526
_publ_section_title
;
Structure prediction by ZEFSAII (Michael W. Deem and Ramdas Pophale) SiO2 
 PCOD9328526
Probable space group: F 2 2 2
;
_chemical_formula_sum "Si O2"
_cell_formula_units_Z 80
_cell_length_a 22.770068
_cell_length_b 24.160661
_cell_length_c 5.625334
_cell_angle_alpha 90.000000
_cell_angle_beta 90.000000
_cell_angle_gamma 90.000000
_cell_volume 3094.720650
_symmetry_space_group_name_H-M "F 2 2 2"
_symmetry_group_IT_number 22
_symmetry_cell_setting 'orthorhombic'
loop_
_space_group_symop_operation_xyz
x,y,z
-x,-y,z
x,-y,-z
-x,y,-z
x,1/2+y,1/2+z
-x,1/2-y,1/2+z
x,1/2-y,1/2-z
-x,1/2+y,1/2-z
1/2+x,y,1/2+z
1/2-x,-y,1/2+z
1/2+x,-y,1/2-z
1/2-x,y,1/2-z
1/2+x,1/2+y,z
1/2-x,1/2-y,z
1/2+x,1/2-y,-z
1/2-x,1/2+y,-z
loop_
_atom_site_type_symbol
_atom_site_label
_atom_site_fract_x
_atom_site_fract_y
_atom_site_fract_z
Si Si1 0.500000 0.835536 0.000000
Si Si2 0.379495 0.781411 0.009544
Si Si3 0.175256 0.562261 0.400172
Si Si4 0.555981 0.576444 0.146279
Si Si5 0.375470 0.500000 0.500000
Si Si6 0.732655 0.841047 0.999908
O O1 0.445426 0.798603 0.071683
O O2 0.470933 0.873734 0.798054
O O3 0.377866 0.750000 0.750000
O O4 0.359596 0.750000 0.250000
O O5 0.337652 0.835547 0.991303
O O6 0.184806 0.500000 0.500000
O O7 0.113489 0.588716 0.486746
O O8 0.273154 0.603209 0.018321
O O9 0.164459 0.546251 0.125486
O O10 0.582087 0.529087 0.313569
O O11 0.500000 0.557679 0.000000
O O12 0.750000 0.814108 0.750000
O O13 0.750000 0.814484 0.250000
#
# Coordination Sequence:
#
# PCOD9328526 Si02
#       6
#     8  16  16  16   8  16
#     4  12  28  47  84 118 164 206 273 344 436 508
#     4  12  30  57  86 121 161 212 276 357 438 511
#     4  10  25  46  75 115 169 223 277 336 407 494
#     4  11  25  42  76 117 166 223 273 339 405 501
#     4  10  24  47  72 122 168 226 287 334 416 500
#     4  12  29  50  84 117 165 216 281 345 420 506
#
# _framework density 25.850474999999999
#
# number of rings (size 3 to 8) (size 9 to 14) (size 15 to 20)
#    0.000    0.800    0.000    4.200   14.000   12.800 
#    0.000    0.000    2.200    0.000    0.000    0.000 
#    0.000    0.000    0.000    0.000    0.000    0.000 
#
# Total GULP energy -111772.640176 kJ/mol
# GULP energy per Si atom -5588.632009 kJ/mol
# Density = 2.579164 g / cm^3
# Si number density = 25.850475 Si / 1000 Ang^3
#
#
#
# Elastic Constant Matrix: (Units=GPa)
#
#
# Indices 1 2 3 4 5 6 
#
# 1 255.0747 93.3515 51.8861 0.0247 0.0126 0.0510
# 2 93.3515 146.6265 56.3802 0.0389 -0.0070 0.0708
# 3 51.8861 56.3802 167.0132 0.0203 0.0398 0.0785
# 4 0.0247 0.0389 0.0203 -6.4682 -0.0277 0.0761
# 5 0.0126 -0.0070 0.0398 -0.0277 39.8481 -0.0957
# 6 0.0510 0.0708 0.0785 0.0761 -0.0957 109.8753
#
#
#
# Elastic Compliance Matrix: (Units=1/GPa)
#
#
# Indices 1 2 3 4 5 6 
#
# 1 0.005158 -0.003066 -0.000568 -0.000001 -0.000002 0.000000
# 2 -0.003066 0.009659 -0.002308 0.000039 0.000005 -0.000003
# 3 -0.000568 -0.002308 0.006943 0.000006 -0.000007 -0.000003
# 4 -0.000001 0.000039 0.000006 -0.154600 -0.000107 0.000107
# 5 -0.000002 0.000005 -0.000007 -0.000107 0.025095 0.000022
# 6 0.000000 -0.000003 -0.000003 0.000107 0.000022 0.009101
#
#
# Mechanical properties :
#
#
# Convention : Reuss Voigt Hill
#
# Bulk Modulus (GPa) = 101.24195 107.99445 104.61820
# Shear Modulus (GPa) = -59.90352 53.12414 -3.38969
#
# Velocity S-wave (km/s) = -4.81907 4.53819 -1.14635
# Velocity P-wave (km/s) = 2.87836 8.32631 6.22946
#
# Compressibility (1/GPa) = 0.00987733
#
# Stress axis : x y z
#
# Youngs Moduli (GPa) = 193.88195 103.52628 144.02698
#
# Poissons Ratio (x) = 0.31736 0.08174
# Poissons Ratio (y) = 0.59435 0.33248
# Poissons Ratio (z) = 0.11003 0.23898
#
# Static dielectric constant tensor:
#      x y z
#    x 1.957290 0.000070 -0.000090 
#    y 0.000070 2.085630 -0.000230 
#    z -0.000090 -0.000230 2.073400 
# 
# From -- ./inp_files/4814.got.cif
#   From: 2010.05.17/outbox.cif.g08.bks.cpg/sg22_3_cif.got.tgz:4814.got - 2010.06.03 23:40:54.
