data_PCOD9328020
_publ_section_title
;
Structure prediction by ZEFSAII (Michael W. Deem and Ramdas Pophale) SiO2 
 PCOD9328020
Probable space group: F 2 2 2
;
_chemical_formula_sum "Si O2"
_cell_formula_units_Z 104
_cell_length_a 14.837901
_cell_length_b 16.810089
_cell_length_c 19.654938
_cell_angle_alpha 90.000000
_cell_angle_beta 90.000000
_cell_angle_gamma 90.000000
_cell_volume 4902.461143
_symmetry_space_group_name_H-M "F 2 2 2"
_symmetry_group_IT_number 22
_symmetry_cell_setting 'orthorhombic'
loop_
_space_group_symop_operation_xyz
x,y,z
-x,-y,z
x,-y,-z
-x,y,-z
x,1/2+y,1/2+z
-x,1/2-y,1/2+z
x,1/2-y,1/2-z
-x,1/2+y,1/2-z
1/2+x,y,1/2+z
1/2-x,-y,1/2+z
1/2+x,-y,1/2-z
1/2-x,y,1/2-z
1/2+x,1/2+y,z
1/2-x,1/2-y,z
1/2+x,1/2-y,-z
1/2-x,1/2+y,-z
loop_
_atom_site_type_symbol
_atom_site_label
_atom_site_fract_x
_atom_site_fract_y
_atom_site_fract_z
Si Si1 0.327135 0.070333 0.693019
Si Si2 0.301514 0.538460 0.429343
Si Si3 0.750000 0.750000 0.038479
Si Si4 0.089026 0.298919 0.953973
Si Si5 0.035808 0.292983 0.679946
Si Si6 0.117745 0.597786 0.711359
Si Si7 0.185103 0.382866 0.145130
O O1 0.250000 0.066985 0.750000
O O2 0.280472 0.061265 0.619787
O O3 0.378130 0.152521 0.694143
O O4 0.393934 0.997232 0.709661
O O5 0.269881 0.500000 0.500000
O O6 0.362579 0.615558 0.443036
O O7 0.347845 0.464062 0.390450
O O8 0.793483 0.683663 0.088820
O O9 0.836178 0.760270 0.988182
O O10 0.056444 0.264641 0.882101
O O11 0.000000 0.306927 0.000000
O O12 0.016019 0.250000 0.750000
O O13 0.952410 0.352427 0.667525
O O14 0.122929 0.630578 0.788879
O O15 0.216524 0.605460 0.678482
#
# Coordination Sequence:
#
# PCOD9328020 Si02
#       7
#    16  16   8  16  16  16  16
#     4  11  22  47  71 101 136 187 242 285 361 426
#     4  11  22  44  71 100 131 189 238 291 357 427
#     4  12  24  45  71  98 152 188 232 302 358 424
#     4  12  28  47  68 108 146 191 241 298 364 436
#     4  12  28  42  69 104 146 185 233 298 361 428
#     4  10  22  44  70 102 136 180 239 296 354 430
#     4  10  22  41  75 101 132 187 237 295 359 427
#
# _framework density 21.213835
#
# number of rings (size 3 to 8) (size 9 to 14) (size 15 to 20)
#    0.000    0.923    4.615    3.231    4.308    2.462 
#    0.000    0.000    0.000    0.000    0.000    0.000 
#    0.000    0.000    0.000    0.000    0.000    0.000 
#
# Total GULP energy -145171.438933 kJ/mol
# GULP energy per Si atom -5583.516882 kJ/mol
# Density = 2.116555 g / cm^3
# Si number density = 21.213835 Si / 1000 Ang^3
#
#
#
# Elastic Constant Matrix: (Units=GPa)
#
#
# Indices 1 2 3 4 5 6 
#
# 1 78.6214 33.6072 23.5022 0.0000 0.0000 0.0000
# 2 33.6072 108.0149 37.4850 0.0000 0.0000 0.0000
# 3 23.5022 37.4850 105.2451 0.0000 0.0000 0.0000
# 4 0.0000 0.0000 0.0000 28.6641 0.0000 0.0000
# 5 0.0000 0.0000 0.0000 0.0000 26.0182 0.0000
# 6 0.0000 0.0000 0.0000 0.0000 0.0000 83.1609
#
#
#
# Elastic Compliance Matrix: (Units=1/GPa)
#
#
# Indices 1 2 3 4 5 6 
#
# 1 0.015005 -0.004000 -0.001926 0.000000 0.000000 0.000000
# 2 -0.004000 0.011630 -0.003249 0.000000 0.000000 0.000000
# 3 -0.001926 -0.003249 0.011089 0.000000 0.000000 0.000000
# 4 0.000000 0.000000 0.000000 0.034887 0.000000 0.000000
# 5 0.000000 0.000000 0.000000 0.000000 0.038435 0.000000
# 6 0.000000 0.000000 0.000000 0.000000 0.000000 0.012025
#
#
# Mechanical properties :
#
#
# Convention : Reuss Voigt Hill
#
# Bulk Modulus (GPa) = 51.61676 53.45224 52.53450
# Shear Modulus (GPa) = 33.81159 40.72110 37.26635
#
# Velocity S-wave (km/s) = 3.99663 4.38602 4.19585
# Velocity P-wave (km/s) = 6.75884 7.13451 6.94921
#
# Compressibility (1/GPa) = 0.01937355
#
# Stress axis : x y z
#
# Youngs Moduli (GPa) = 66.64533 85.98391 90.18019
#
# Poissons Ratio (x) = 0.34395 0.17369
# Poissons Ratio (y) = 0.26659 0.29300
# Poissons Ratio (z) = 0.12836 0.27936
#
# Static dielectric constant tensor:
#      x y z
#    x 1.740990 0.000000 0.000000 
#    y 0.000000 1.819400 0.000000 
#    z 0.000000 0.000000 1.747210 
# 
# From -- ./inp_files/43635.got.cif
#   From: 2010.05.17/outbox.cif.g08.bks.cpg/sg22_22_cif.got.tgz:43635.got - 2010.06.03 23:40:54.
