data_PCOD9328117
_publ_section_title
;
Structure prediction by ZEFSAII (Michael W. Deem and Ramdas Pophale) SiO2 
 PCOD9328117
Probable space group: F 2 2 2
;
_chemical_formula_sum "Si O2"
_cell_formula_units_Z 64
_cell_length_a 32.952391
_cell_length_b 15.198099
_cell_length_c 4.862278
_cell_angle_alpha 90.000000
_cell_angle_beta 90.000000
_cell_angle_gamma 90.000000
_cell_volume 2435.095439
_symmetry_space_group_name_H-M "F 2 2 2"
_symmetry_group_IT_number 22
_symmetry_cell_setting 'orthorhombic'
loop_
_space_group_symop_operation_xyz
x,y,z
-x,-y,z
x,-y,-z
-x,y,-z
x,1/2+y,1/2+z
-x,1/2-y,1/2+z
x,1/2-y,1/2-z
-x,1/2+y,1/2-z
1/2+x,y,1/2+z
1/2-x,-y,1/2+z
1/2+x,-y,1/2-z
1/2-x,y,1/2-z
1/2+x,1/2+y,z
1/2-x,1/2-y,z
1/2+x,1/2-y,-z
1/2-x,1/2+y,-z
loop_
_atom_site_type_symbol
_atom_site_label
_atom_site_fract_x
_atom_site_fract_y
_atom_site_fract_z
Si Si1 0.544056 0.601838 0.897703
Si Si2 0.208860 0.404628 0.630006
Si Si3 0.897377 0.250000 0.250000
Si Si4 0.152293 0.378193 0.136065
Si Si5 0.584425 0.500000 0.500000
O O1 0.575436 0.681284 0.925346
O O2 0.553777 0.578459 0.579699
O O3 0.549989 0.500000 0.000000
O O4 0.500000 0.628238 0.000000
O O5 0.219186 0.500000 0.500000
O O6 0.250000 0.362581 0.750000
O O7 0.181190 0.359271 0.395443
O O8 0.181194 0.413635 0.895419
O O9 0.870613 0.198791 0.472865
O O10 0.117328 0.450869 0.198053
#
# Coordination Sequence:
#
# PCOD9328117 Si02
#       5
#    16  16   8  16   8
#     4  10  24  50  77 112 162 215 269 349 426 491
#     4  12  23  43  76 123 163 218 268 343 418 507
#     4  10  26  50  75 126 156 224 280 346 413 512
#     4  11  24  43  76 116 164 211 281 336 412 497
#     4  10  22  43  74 114 158 200 276 338 408 498
#
# _framework density 26.282339
#
# number of rings (size 3 to 8) (size 9 to 14) (size 15 to 20)
#    0.000    1.250    2.500    2.250    7.000    3.000 
#   22.500    0.625    0.000    6.000    0.000    0.000 
#    0.000    0.000    0.000    0.000    0.000    0.000 
#
# Total GULP energy -89283.200132 kJ/mol
# GULP energy per Si atom -5580.200008 kJ/mol
# Density = 2.622252 g / cm^3
# Si number density = 26.282339 Si / 1000 Ang^3
#
#
#
# Elastic Constant Matrix: (Units=GPa)
#
#
# Indices 1 2 3 4 5 6 
#
# 1 231.6548 79.4875 105.7009 0.0004 -0.0008 -0.0003
# 2 79.4875 119.7434 35.7774 0.0006 -0.0009 -0.0007
# 3 105.7009 35.7774 145.5014 0.0019 -0.0018 -0.0019
# 4 0.0004 0.0006 0.0019 47.7853 -0.0012 -0.0006
# 5 -0.0008 -0.0009 -0.0018 -0.0012 59.1163 0.0001
# 6 -0.0003 -0.0007 -0.0019 -0.0006 0.0001 17.1834
#
#
#
# Elastic Compliance Matrix: (Units=1/GPa)
#
#
# Indices 1 2 3 4 5 6 
#
# 1 0.007748 -0.003736 -0.004710 0.000000 0.000000 -0.000001
# 2 -0.003736 0.010815 0.000055 0.000000 0.000000 0.000000
# 3 -0.004710 0.000055 0.010281 0.000000 0.000000 0.000001
# 4 0.000000 0.000000 0.000000 0.020927 0.000000 0.000001
# 5 0.000000 0.000000 0.000000 0.000000 0.016916 0.000000
# 6 -0.000001 0.000000 0.000001 0.000001 0.000000 0.058196
#
#
# Mechanical properties :
#
#
# Convention : Reuss Voigt Hill
#
# Bulk Modulus (GPa) = 82.90911 104.31458 93.61185
# Shear Modulus (GPa) = 34.32089 43.21259 38.76674
#
# Velocity S-wave (km/s) = 3.61758 4.05923 3.84475
# Velocity P-wave (km/s) = 7.00451 7.85786 7.44343
#
# Compressibility (1/GPa) = 0.01206140
#
# Stress axis : x y z
#
# Youngs Moduli (GPa) = 129.07197 92.46647 97.26894
#
# Poissons Ratio (x) = 0.34544 0.45811
# Poissons Ratio (y) = 0.48219 -0.00532
# Poissons Ratio (z) = 0.60789 -0.00506
#
# Static dielectric constant tensor:
#      x y z
#    x 2.043330 0.000000 0.000000 
#    y 0.000000 2.120230 0.000000 
#    z 0.000000 0.000000 2.607000 
# 
# From -- ./inp_files/6168.got.cif
#   From: 2010.05.17/outbox.cif.g08.bks.cpg/sg22_4_cif.got.tgz:6168.got - 2010.06.03 23:40:54.
