data_PCOD9328149
_publ_section_title
;
Structure prediction by ZEFSAII (Michael W. Deem and Ramdas Pophale) SiO2 
 PCOD9328149
Probable space group: F 2 2 2
;
_chemical_formula_sum "Si O2"
_cell_formula_units_Z 60
_cell_length_a 18.487178
_cell_length_b 10.493114
_cell_length_c 13.265812
_cell_angle_alpha 90.000000
_cell_angle_beta 90.000000
_cell_angle_gamma 90.000000
_cell_volume 2573.409218
_symmetry_space_group_name_H-M "F 2 2 2"
_symmetry_group_IT_number 22
_symmetry_cell_setting 'orthorhombic'
loop_
_space_group_symop_operation_xyz
x,y,z
-x,-y,z
x,-y,-z
-x,y,-z
x,1/2+y,1/2+z
-x,1/2-y,1/2+z
x,1/2-y,1/2-z
-x,1/2+y,1/2-z
1/2+x,y,1/2+z
1/2-x,-y,1/2+z
1/2+x,-y,1/2-z
1/2-x,y,1/2-z
1/2+x,1/2+y,z
1/2-x,1/2-y,z
1/2+x,1/2-y,-z
1/2-x,1/2+y,-z
loop_
_atom_site_type_symbol
_atom_site_label
_atom_site_fract_x
_atom_site_fract_y
_atom_site_fract_z
Si Si1 0.331460 0.000000 0.000000
Si Si2 0.879469 0.419861 0.197796
Si Si3 0.490877 0.750000 0.750000
Si Si4 0.887352 0.916520 0.106189
Si Si5 0.750000 0.250000 0.947661
Si Si6 0.750000 0.750000 0.750000
O O1 0.376805 0.011303 0.102386
O O2 0.283695 0.126440 0.000075
O O3 0.872820 0.480178 0.307666
O O4 0.807497 0.335083 0.191033
O O5 0.953899 0.344449 0.194059
O O6 0.449119 0.830126 0.662474
O O7 0.819071 0.820384 0.102681
O O8 0.899021 0.000000 0.000000
#
# Coordination Sequence:
#
# PCOD9328149 Si02
#       6
#     8  16   8  16   8   4
#     4  12  26  48  81 116 165 208 278 368 408 524
#     4  11  26  48  76 119 160 214 278 339 431 499
#     4  11  28  52  74 119 166 230 276 335 442 514
#     4  12  28  53  83 120 168 218 286 355 428 516
#     4  12  27  51  82 126 154 221 287 346 452 492
#     4  10  22  44  78 104 162 208 260 350 408 506
#
# _framework density 23.315373999999998
#
# number of rings (size 3 to 8) (size 9 to 14) (size 15 to 20)
#    0.000    0.533    1.333    4.800    7.467    5.867 
#    4.800    5.333    2.933    0.000    0.000    0.000 
#    0.000    0.000    0.000    0.000    0.000    0.000 
#
# Total GULP energy -83526.928447 kJ/mol
# GULP energy per Si atom -5568.461896 kJ/mol
# Density = 2.326231 g / cm^3
# Si number density = 23.315374 Si / 1000 Ang^3
#
#
#
# Elastic Constant Matrix: (Units=GPa)
#
#
# Indices 1 2 3 4 5 6 
#
# 1 172.6184 74.3989 74.0776 0.0000 0.0000 0.0000
# 2 74.3989 145.7418 75.2575 0.0000 0.0000 0.0000
# 3 74.0776 75.2575 194.2480 0.0000 0.0000 0.0000
# 4 0.0000 0.0000 0.0000 25.8102 0.0000 0.0000
# 5 0.0000 0.0000 0.0000 0.0000 46.3649 0.0000
# 6 0.0000 0.0000 0.0000 0.0000 0.0000 79.9549
#
#
#
# Elastic Compliance Matrix: (Units=1/GPa)
#
#
# Indices 1 2 3 4 5 6 
#
# 1 0.007908 -0.003100 -0.001815 0.000000 0.000000 0.000000
# 2 -0.003100 0.009792 -0.002612 0.000000 0.000000 0.000000
# 3 -0.001815 -0.002612 0.006852 0.000000 0.000000 0.000000
# 4 0.000000 0.000000 0.000000 0.038744 0.000000 0.000000
# 5 0.000000 0.000000 0.000000 0.000000 0.021568 0.000000
# 6 0.000000 0.000000 0.000000 0.000000 0.000000 0.012507
#
#
# Mechanical properties :
#
#
# Convention : Reuss Voigt Hill
#
# Bulk Modulus (GPa) = 105.26586 106.67512 105.97049
# Shear Modulus (GPa) = 43.25588 49.68429 46.47008
#
# Velocity S-wave (km/s) = 4.31194 4.62125 4.46927
# Velocity P-wave (km/s) = 8.36882 8.62131 8.49600
#
# Compressibility (1/GPa) = 0.00949976
#
# Stress axis : x y z
#
# Youngs Moduli (GPa) = 126.45536 102.11907 145.94225
#
# Poissons Ratio (x) = 0.31654 0.26486
# Poissons Ratio (y) = 0.39198 0.38117
# Poissons Ratio (z) = 0.22949 0.26671
#
# Static dielectric constant tensor:
#      x y z
#    x 2.012620 0.000000 0.000000 
#    y 0.000000 1.976880 0.000000 
#    z 0.000000 0.000000 2.511920 
# 
# From -- ./inp_files/22242.got.cif
#   From: 2010.05.17/outbox.cif.g08.bks.cpg/sg22_12_cif.got.tgz:22242.got - 2010.06.03 23:40:54.
