data_PCOD9328250
_publ_section_title
;
Structure prediction by ZEFSAII (Michael W. Deem and Ramdas Pophale) SiO2 
 PCOD9328250
Probable space group: F 2 2 2
;
_chemical_formula_sum "Si O2"
_cell_formula_units_Z 96
_cell_length_a 22.158918
_cell_length_b 14.286935
_cell_length_c 14.596998
_cell_angle_alpha 90.000000
_cell_angle_beta 90.000000
_cell_angle_gamma 90.000000
_cell_volume 4621.161726
_symmetry_space_group_name_H-M "F 2 2 2"
_symmetry_group_IT_number 22
_symmetry_cell_setting 'orthorhombic'
loop_
_space_group_symop_operation_xyz
x,y,z
-x,-y,z
x,-y,-z
-x,y,-z
x,1/2+y,1/2+z
-x,1/2-y,1/2+z
x,1/2-y,1/2-z
-x,1/2+y,1/2-z
1/2+x,y,1/2+z
1/2-x,-y,1/2+z
1/2+x,-y,1/2-z
1/2-x,y,1/2-z
1/2+x,1/2+y,z
1/2-x,1/2-y,z
1/2+x,1/2-y,-z
1/2-x,1/2+y,-z
loop_
_atom_site_type_symbol
_atom_site_label
_atom_site_fract_x
_atom_site_fract_y
_atom_site_fract_z
Si Si1 0.882631 0.878352 0.820615
Si Si2 0.918804 0.858153 0.462388
Si Si3 0.681526 0.280447 0.029949
Si Si4 0.610154 0.062397 0.581103
Si Si5 0.012727 0.797572 0.849471
Si Si6 0.934641 0.966483 0.646174
O O1 0.833775 0.809447 0.864955
O O2 0.899980 0.898165 0.715444
O O3 0.945595 0.838038 0.863624
O O4 0.864059 0.981885 0.854185
O O5 0.860027 0.804535 0.497104
O O6 0.962431 0.780922 0.418252
O O7 0.943827 0.910664 0.551905
O O8 0.903966 0.936890 0.386039
O O9 0.750000 0.250000 0.018741
O O10 0.658143 0.368078 0.966982
O O11 0.560432 0.119407 0.636714
O O12 0.581235 0.000000 0.500000
O O13 0.014034 0.750000 0.750000
O O14 0.000000 0.000000 0.683914
#
# Coordination Sequence:
#
# PCOD9328250 Si02
#       6
#    16  16  16  16  16  16
#     4  11  23  38  65  97 135 168 214 268 343 397
#     4  10  23  40  64  94 131 181 218 267 331 409
#     4  10  24  44  68  90 126 171 238 281 322 380
#     4   9  20  40  62  95 126 169 214 269 334 398
#     4  11  22  35  65 100 140 166 211 266 342 407
#     4  11  23  39  63  97 142 168 213 258 349 406
#
# _framework density 20.773996
#
# number of rings (size 3 to 8) (size 9 to 14) (size 15 to 20)
#    0.000    1.667    0.000    4.500    7.000    7.333 
#    9.000    1.667    0.000   17.000    0.000    0.000 
#    0.000    0.000    0.000    0.000    0.000    0.000 
#
# Total GULP energy -133974.361523 kJ/mol
# GULP energy per Si atom -5582.265063 kJ/mol
# Density = 2.072671 g / cm^3
# Si number density = 20.773996 Si / 1000 Ang^3
#
#
#
# Elastic Constant Matrix: (Units=GPa)
#
#
# Indices 1 2 3 4 5 6 
#
# 1 99.0376 58.5825 39.4944 0.0000 0.0000 0.0000
# 2 58.5825 124.2021 34.4630 0.0000 0.0000 0.0000
# 3 39.4944 34.4630 97.8903 0.0000 0.0000 0.0000
# 4 0.0000 0.0000 0.0000 37.3823 0.0000 0.0000
# 5 0.0000 0.0000 0.0000 0.0000 6.7583 0.0000
# 6 0.0000 0.0000 0.0000 0.0000 0.0000 12.0614
#
#
#
# Elastic Compliance Matrix: (Units=1/GPa)
#
#
# Indices 1 2 3 4 5 6 
#
# 1 0.015316 -0.006106 -0.004030 0.000000 0.000000 0.000000
# 2 -0.006106 0.011357 -0.001535 0.000000 0.000000 0.000000
# 3 -0.004030 -0.001535 0.012382 0.000000 0.000000 0.000000
# 4 0.000000 0.000000 0.000000 0.026751 0.000000 0.000000
# 5 0.000000 0.000000 0.000000 0.000000 0.147966 0.000000
# 6 0.000000 0.000000 0.000000 0.000000 0.000000 0.082909
#
#
# Mechanical properties :
#
#
# Convention : Reuss Voigt Hill
#
# Bulk Modulus (GPa) = 63.63821 65.13442 64.38632
# Shear Modulus (GPa) = 15.37233 23.81309 19.59271
#
# Velocity S-wave (km/s) = 2.72321 3.38937 3.07438
# Velocity P-wave (km/s) = 6.37086 6.83659 6.60783
#
# Compressibility (1/GPa) = 0.01571383
#
# Stress axis : x y z
#
# Youngs Moduli (GPa) = 65.29171 88.04920 80.76443
#
# Poissons Ratio (x) = 0.53762 0.32545
# Poissons Ratio (y) = 0.39867 0.12397
# Poissons Ratio (z) = 0.26310 0.13515
#
# Static dielectric constant tensor:
#      x y z
#    x 1.706130 0.000000 0.000000 
#    y 0.000000 1.815590 0.000000 
#    z 0.000000 0.000000 1.812850 
# 
# From -- ./inp_files/29342.got.cif
#   From: 2010.05.17/outbox.cif.g08.bks.cpg/sg22_15_cif.got.tgz:29342.got - 2010.06.03 23:40:54.
