data_PCOD9328207
_publ_section_title
;
Structure prediction by ZEFSAII (Michael W. Deem and Ramdas Pophale) SiO2 
 PCOD9328207
Probable space group: F 2 2 2
;
_chemical_formula_sum "Si O2"
_cell_formula_units_Z 96
_cell_length_a 25.541067
_cell_length_b 17.035223
_cell_length_c 11.245496
_cell_angle_alpha 90.000000
_cell_angle_beta 90.000000
_cell_angle_gamma 90.000000
_cell_volume 4892.890255
_symmetry_space_group_name_H-M "F 2 2 2"
_symmetry_group_IT_number 22
_symmetry_cell_setting 'orthorhombic'
loop_
_space_group_symop_operation_xyz
x,y,z
-x,-y,z
x,-y,-z
-x,y,-z
x,1/2+y,1/2+z
-x,1/2-y,1/2+z
x,1/2-y,1/2-z
-x,1/2+y,1/2-z
1/2+x,y,1/2+z
1/2-x,-y,1/2+z
1/2+x,-y,1/2-z
1/2-x,y,1/2-z
1/2+x,1/2+y,z
1/2-x,1/2-y,z
1/2+x,1/2-y,-z
1/2-x,1/2+y,-z
loop_
_atom_site_type_symbol
_atom_site_label
_atom_site_fract_x
_atom_site_fract_y
_atom_site_fract_z
Si Si1 0.414042 0.709432 0.375099
Si Si2 0.500000 0.603753 0.500000
Si Si3 0.661385 0.420005 0.274687
Si Si4 0.633254 0.274204 0.621944
Si Si5 0.750000 0.750000 0.444176
Si Si6 0.263493 0.918861 0.430169
Si Si7 0.102167 0.952768 0.615768
O O1 0.428322 0.750000 0.250000
O O2 0.462127 0.656379 0.419166
O O3 0.366265 0.653679 0.335567
O O4 0.394824 0.752354 0.497639
O O5 0.459204 0.559871 0.587971
O O6 0.684439 0.402036 0.146247
O O7 0.713167 0.439502 0.349639
O O8 0.620400 0.491748 0.277904
O O9 0.609528 0.250000 0.750000
O O10 0.693709 0.248839 0.619673
O O11 0.628389 0.368426 0.620493
O O12 0.750127 0.834909 0.510309
O O13 0.273133 0.000000 0.500000
O O14 0.121680 0.000000 0.500000
#
# Coordination Sequence:
#
# PCOD9328207 Si02
#       7
#    16   8  16  16   8  16  16
#     4  11  23  44  67  97 135 176 225 282 348 415
#     4  10  23  36  72  96 120 169 236 282 339 390
#     4  11  22  38  66  92 131 176 228 283 329 415
#     4  11  24  38  64  98 134 177 224 281 337 399
#     4  12  21  41  60  86 141 182 227 274 341 410
#     4  11  25  39  60  97 136 183 228 277 338 413
#     4  11  20  41  64  94 126 167 227 285 333 401
#
# _framework density 19.620304999999998
#
# number of rings (size 3 to 8) (size 9 to 14) (size 15 to 20)
#    0.000    1.000    5.000    3.000    2.333    3.333 
#    0.000    0.000    0.000    0.000    0.000    0.000 
#    0.000    0.000    0.000    0.000    0.000    0.000 
#
# Total GULP energy -133637.263559 kJ/mol
# GULP energy per Si atom -5568.219315 kJ/mol
# Density = 1.957565 g / cm^3
# Si number density = 19.620305 Si / 1000 Ang^3
#
#
#
# Elastic Constant Matrix: (Units=GPa)
#
#
# Indices 1 2 3 4 5 6 
#
# 1 95.9197 14.5728 25.8907 0.0000 0.0000 0.0000
# 2 14.5728 75.7789 42.2969 0.0000 0.0000 0.0000
# 3 25.8907 42.2969 106.3452 0.0000 0.0000 0.0000
# 4 0.0000 0.0000 0.0000 4.9287 0.0000 0.0000
# 5 0.0000 0.0000 0.0000 0.0000 13.3888 0.0000
# 6 0.0000 0.0000 0.0000 0.0000 0.0000 29.2346
#
#
#
# Elastic Compliance Matrix: (Units=1/GPa)
#
#
# Indices 1 2 3 4 5 6 
#
# 1 0.011197 -0.000812 -0.002403 0.000000 0.000000 0.000000
# 2 -0.000812 0.017021 -0.006572 0.000000 0.000000 0.000000
# 3 -0.002403 -0.006572 0.012602 0.000000 0.000000 0.000000
# 4 0.000000 0.000000 0.000000 0.202895 0.000000 0.000000
# 5 0.000000 0.000000 0.000000 0.000000 0.074689 0.000000
# 6 0.000000 0.000000 0.000000 0.000000 0.000000 0.034206
#
#
# Mechanical properties :
#
#
# Convention : Reuss Voigt Hill
#
# Bulk Modulus (GPa) = 47.06742 49.28497 48.17620
# Shear Modulus (GPa) = 13.18332 22.52929 17.85630
#
# Velocity S-wave (km/s) = 2.59496 3.39228 3.02005
# Velocity P-wave (km/s) = 5.74627 6.36532 6.06370
#
# Compressibility (1/GPa) = 0.02124612
#
# Stress axis : x y z
#
# Youngs Moduli (GPa) = 89.30638 58.75208 79.35053
#
# Poissons Ratio (x) = 0.04771 0.19069
# Poissons Ratio (y) = 0.07252 0.52149
# Poissons Ratio (z) = 0.21462 0.38612
#
# Static dielectric constant tensor:
#      x y z
#    x 1.677580 0.000000 0.000000 
#    y 0.000000 1.783940 0.000000 
#    z 0.000000 0.000000 1.772910 
# 
# From -- ./inp_files/23824.got.cif
#   From: 2010.05.17/outbox.cif.g08.bks.cpg/sg22_12_cif.got.tgz:23824.got - 2010.06.03 23:40:54.
