data_PCOD9328940
_publ_section_title
;
Structure prediction by ZEFSAII (Michael W. Deem and Ramdas Pophale) SiO2 
 PCOD9328940
Probable space group: F 2 2 2
;
_chemical_formula_sum "Si O2"
_cell_formula_units_Z 84
_cell_length_a 25.334684
_cell_length_b 10.617610
_cell_length_c 15.328977
_cell_angle_alpha 90.000000
_cell_angle_beta 90.000000
_cell_angle_gamma 90.000000
_cell_volume 4123.399684
_symmetry_space_group_name_H-M "F 2 2 2"
_symmetry_group_IT_number 22
_symmetry_cell_setting 'orthorhombic'
loop_
_space_group_symop_operation_xyz
x,y,z
-x,-y,z
x,-y,-z
-x,y,-z
x,1/2+y,1/2+z
-x,1/2-y,1/2+z
x,1/2-y,1/2-z
-x,1/2+y,1/2-z
1/2+x,y,1/2+z
1/2-x,-y,1/2+z
1/2+x,-y,1/2-z
1/2-x,y,1/2-z
1/2+x,1/2+y,z
1/2-x,1/2-y,z
1/2+x,1/2-y,-z
1/2-x,1/2+y,-z
loop_
_atom_site_type_symbol
_atom_site_label
_atom_site_fract_x
_atom_site_fract_y
_atom_site_fract_z
Si Si1 0.713897 0.080292 0.163358
Si Si2 0.000000 0.000000 0.500000
Si Si3 0.384786 0.999161 0.252330
Si Si4 0.848943 0.673661 0.595292
Si Si5 0.283379 0.000000 0.500000
Si Si6 0.046256 0.250000 0.250000
Si Si7 0.049077 0.316889 0.865570
O O1 0.750000 0.091397 0.250000
O O2 0.688191 0.215727 0.135756
O O3 0.663565 0.993292 0.184893
O O4 0.746813 0.020542 0.084352
O O5 0.035949 0.918459 0.437625
O O6 0.417853 0.126171 0.259013
O O7 0.357436 0.943876 0.339007
O O8 0.423407 0.889365 0.215661
O O9 0.821747 0.621212 0.508373
O O10 0.907769 0.727040 0.591294
O O11 0.006004 0.260984 0.168359
#
# Coordination Sequence:
#
# PCOD9328940 Si02
#       7
#    16   4  16  16   8   8  16
#     4  11  24  48  75  99 139 196 238 289 361 439
#     4  12  24  42  64 106 144 182 230 284 366 412
#     4  11  23  42  74 104 133 193 245 285 356 442
#     4  11  25  44  75 106 136 185 247 292 357 441
#     4  12  26  41  72 115 137 174 249 302 354 424
#     4  12  22  44  71 104 145 184 238 302 352 430
#     4  11  23  43  73 103 139 188 235 288 360 438
#
# _framework density 20.371538999999999
#
# number of rings (size 3 to 8) (size 9 to 14) (size 15 to 20)
#    0.000    0.762    5.714    2.286    2.667    4.571 
#    6.857    0.476    0.000    0.000    0.000    0.000 
#    0.000    0.000    0.000    0.000    0.000    0.000 
#
# Total GULP energy -117238.324125 kJ/mol
# GULP energy per Si atom -5582.777339 kJ/mol
# Density = 2.032517 g / cm^3
# Si number density = 20.371539 Si / 1000 Ang^3
#
#
#
# Elastic Constant Matrix: (Units=GPa)
#
#
# Indices 1 2 3 4 5 6 
#
# 1 162.9100 94.5442 57.5725 0.0000 0.0000 0.0000
# 2 94.5442 113.8514 54.6440 0.0000 0.0000 0.0000
# 3 57.5725 54.6440 99.3142 0.0000 0.0000 0.0000
# 4 0.0000 0.0000 0.0000 58.2630 0.0000 0.0000
# 5 0.0000 0.0000 0.0000 0.0000 29.8727 0.0000
# 6 0.0000 0.0000 0.0000 0.0000 0.0000 72.5289
#
#
#
# Elastic Compliance Matrix: (Units=1/GPa)
#
#
# Indices 1 2 3 4 5 6 
#
# 1 0.012141 -0.009110 -0.002026 0.000000 0.000000 0.000000
# 2 -0.009110 0.018771 -0.005047 0.000000 0.000000 0.000000
# 3 -0.002026 -0.005047 0.014020 0.000000 0.000000 0.000000
# 4 0.000000 0.000000 0.000000 0.017164 0.000000 0.000000
# 5 0.000000 0.000000 0.000000 0.000000 0.033475 0.000000
# 6 0.000000 0.000000 0.000000 0.000000 0.000000 0.013788
#
#
# Mechanical properties :
#
#
# Convention : Reuss Voigt Hill
#
# Bulk Modulus (GPa) = 79.57409 87.73300 83.65354
# Shear Modulus (GPa) = 34.26698 43.42059 38.84378
#
# Velocity S-wave (km/s) = 4.10579 4.62175 4.37139
# Velocity P-wave (km/s) = 7.85003 8.46409 8.16283
#
# Compressibility (1/GPa) = 0.01256690
#
# Stress axis : x y z
#
# Youngs Moduli (GPa) = 82.36397 53.27440 71.32518
#
# Poissons Ratio (x) = 0.48533 0.14449
# Poissons Ratio (y) = 0.75033 0.35997
# Poissons Ratio (z) = 0.16686 0.26887
#
# Static dielectric constant tensor:
#      x y z
#    x 1.760080 0.000000 0.000000 
#    y 0.000000 1.734310 0.000000 
#    z 0.000000 0.000000 1.673960 
# 
# From -- ./inp_files/32371.got.cif
#   From: 2010.05.17/outbox.cif.g08.bks.cpg/sg22_17_cif.got.tgz:32371.got - 2010.06.03 23:40:54.
