data_PCOD9328139
_publ_section_title
;
Structure prediction by ZEFSAII (Michael W. Deem and Ramdas Pophale) SiO2 
 PCOD9328139
Probable space group: F 2 2 2
;
_chemical_formula_sum "Si O2"
_cell_formula_units_Z 64
_cell_length_a 12.784125
_cell_length_b 8.484661
_cell_length_c 24.558201
_cell_angle_alpha 90.000000
_cell_angle_beta 90.000000
_cell_angle_gamma 90.000000
_cell_volume 2663.802689
_symmetry_space_group_name_H-M "F 2 2 2"
_symmetry_group_IT_number 22
_symmetry_cell_setting 'orthorhombic'
loop_
_space_group_symop_operation_xyz
x,y,z
-x,-y,z
x,-y,-z
-x,y,-z
x,1/2+y,1/2+z
-x,1/2-y,1/2+z
x,1/2-y,1/2-z
-x,1/2+y,1/2-z
1/2+x,y,1/2+z
1/2-x,-y,1/2+z
1/2+x,-y,1/2-z
1/2-x,y,1/2-z
1/2+x,1/2+y,z
1/2-x,1/2-y,z
1/2+x,1/2-y,-z
1/2-x,1/2+y,-z
loop_
_atom_site_type_symbol
_atom_site_label
_atom_site_fract_x
_atom_site_fract_y
_atom_site_fract_z
Si Si1 0.500000 0.249218 0.000000
Si Si2 0.316704 0.000000 0.500000
Si Si3 0.980390 0.250000 0.750000
Si Si4 0.850791 0.539083 0.715713
Si Si5 0.500000 0.500000 0.595811
Si Si6 0.273265 0.937778 0.115571
O O1 0.503199 0.147189 0.945368
O O2 0.395347 0.352738 0.998838
O O3 0.248056 0.006433 0.554158
O O4 0.065330 0.320325 0.707087
O O5 0.904472 0.399847 0.750287
O O6 0.750000 0.588146 0.750000
O O7 0.807904 0.484119 0.657489
O O8 0.392717 0.482009 0.628624
O O9 0.250000 0.750000 0.118952
#
# Coordination Sequence:
#
# PCOD9328139 Si02
#       6
#     8   8   8  16   8  16
#     4  10  22  44  72 102 156 212 260 314 378 466
#     4  11  24  45  70 112 162 203 264 321 388 476
#     4  10  24  48  80 104 146 188 250 312 388 468
#     4  11  25  50  76 110 148 196 257 321 390 461
#     4  11  24  44  72 106 148 208 260 311 384 464
#     4  12  26  46  76 111 159 211 261 325 395 464
#
# _framework density 24.025804000000001
#
# number of rings (size 3 to 8) (size 9 to 14) (size 15 to 20)
#    0.000    1.000    2.500    3.750    0.000    8.000 
#   13.500    0.000    0.000    0.000    0.000    0.000 
#    0.000    0.000    0.000    0.000    0.000    0.000 
#
# Total GULP energy -89456.615896 kJ/mol
# GULP energy per Si atom -5591.038494 kJ/mol
# Density = 2.397112 g / cm^3
# Si number density = 24.025804 Si / 1000 Ang^3
#
#
#
# Elastic Constant Matrix: (Units=GPa)
#
#
# Indices 1 2 3 4 5 6 
#
# 1 191.6342 63.5255 50.8574 0.0000 0.0000 0.0000
# 2 63.5255 109.9867 31.8922 0.0000 0.0000 0.0000
# 3 50.8574 31.8922 123.2786 0.0000 0.0000 0.0000
# 4 0.0000 0.0000 0.0000 47.5839 0.0000 0.0000
# 5 0.0000 0.0000 0.0000 0.0000 32.6980 0.0000
# 6 0.0000 0.0000 0.0000 0.0000 0.0000 -15.2114
#
#
#
# Elastic Compliance Matrix: (Units=1/GPa)
#
#
# Indices 1 2 3 4 5 6 
#
# 1 0.006863 -0.003398 -0.001952 0.000000 0.000000 0.000000
# 2 -0.003398 0.011511 -0.001576 0.000000 0.000000 0.000000
# 3 -0.001952 -0.001576 0.009325 0.000000 0.000000 0.000000
# 4 0.000000 0.000000 0.000000 0.021016 0.000000 0.000000
# 5 0.000000 0.000000 0.000000 0.000000 0.030583 0.000000
# 6 0.000000 0.000000 0.000000 0.000000 0.000000 -0.065740
#
#
# Mechanical properties :
#
#
# Convention : Reuss Voigt Hill
#
# Bulk Modulus (GPa) = 72.21944 79.71663 75.96803
# Shear Modulus (GPa) = 156.12699 31.58906 93.85803
#
# Velocity S-wave (km/s) = 8.06995 3.62995 6.25702
# Velocity P-wave (km/s) = 10.81464 7.12884 9.15906
#
# Compressibility (1/GPa) = 0.01384669
#
# Stress axis : x y z
#
# Youngs Moduli (GPa) = 145.71643 86.86978 107.24027
#
# Poissons Ratio (x) = 0.29515 0.20935
# Poissons Ratio (y) = 0.49509 0.16905
# Poissons Ratio (z) = 0.28446 0.13694
#
# Static dielectric constant tensor:
#      x y z
#    x 1.908260 0.000000 0.000000 
#    y 0.000000 1.938700 0.000000 
#    z 0.000000 0.000000 1.928060 
# 
# From -- ./inp_files/9879.got.cif
#   From: 2010.05.17/outbox.cif.g08.bks.cpg/sg22_5_cif.got.tgz:9879.got - 2010.06.03 23:40:54.
