data_PCOD9328152
_publ_section_title
;
Structure prediction by ZEFSAII (Michael W. Deem and Ramdas Pophale) SiO2 
 PCOD9328152
Probable space group: F 2 2 2
;
_chemical_formula_sum "Si O2"
_cell_formula_units_Z 88
_cell_length_a 15.513204
_cell_length_b 21.279021
_cell_length_c 11.926578
_cell_angle_alpha 90.000000
_cell_angle_beta 90.000000
_cell_angle_gamma 90.000000
_cell_volume 3937.032497
_symmetry_space_group_name_H-M "F 2 2 2"
_symmetry_group_IT_number 22
_symmetry_cell_setting 'orthorhombic'
loop_
_space_group_symop_operation_xyz
x,y,z
-x,-y,z
x,-y,-z
-x,y,-z
x,1/2+y,1/2+z
-x,1/2-y,1/2+z
x,1/2-y,1/2-z
-x,1/2+y,1/2-z
1/2+x,y,1/2+z
1/2-x,-y,1/2+z
1/2+x,-y,1/2-z
1/2-x,y,1/2-z
1/2+x,1/2+y,z
1/2-x,1/2-y,z
1/2+x,1/2-y,-z
1/2-x,1/2+y,-z
loop_
_atom_site_type_symbol
_atom_site_label
_atom_site_fract_x
_atom_site_fract_y
_atom_site_fract_z
Si Si1 0.000000 0.000000 0.192601
Si Si2 0.250000 0.250000 0.041834
Si Si3 0.453653 0.750000 0.250000
Si Si4 0.391237 0.320879 0.140094
Si Si5 0.172569 0.522919 0.170832
Si Si6 0.686565 0.161334 0.141693
Si Si7 0.250000 0.591350 0.750000
Si Si8 0.500000 0.102787 0.500000
O O1 0.085081 0.997025 0.267796
O O2 0.005780 0.940825 0.109248
O O3 0.264392 0.190189 0.963837
O O4 0.333987 0.260260 0.115691
O O5 0.518304 0.700721 0.191195
O O6 0.393060 0.791945 0.169694
O O7 0.330294 0.367134 0.210850
O O8 0.417127 0.355093 0.024206
O O9 0.250000 0.545702 0.250000
O O10 0.155996 0.589904 0.112066
O O11 0.218031 0.454855 0.147044
O O12 0.750000 0.167536 0.250000
#
# Coordination Sequence:
#
# PCOD9328152 Si02
#       8
#     8   8   8  16  16  16   8   8
#     4  11  20  38  60 102 129 152 218 277 332 374
#     4  12  25  43  60 100 130 170 216 279 321 382
#     4  12  23  43  66  92 126 186 220 269 323 402
#     4  12  25  40  66  94 136 167 225 269 334 388
#     4   9  21  37  64  91 127 177 206 263 331 412
#     4  11  22  41  66  92 129 166 222 268 331 393
#     4  10  22  45  60  95 134 184 206 262 348 408
#     4  11  22  34  64  98 122 152 215 294 308 366
#
# _framework density 22.351861
#
# number of rings (size 3 to 8) (size 9 to 14) (size 15 to 20)
#    0.545    0.545    3.636    3.273    5.091    0.000 
#    0.000    0.000    0.000    0.000    0.000    0.000 
#    0.000    0.000    0.000    0.000    0.000    0.000 
#
# Total GULP energy -122510.810107 kJ/mol
# GULP energy per Si atom -5568.673187 kJ/mol
# Density = 2.230099 g / cm^3
# Si number density = 22.351861 Si / 1000 Ang^3
#
#
#
# Elastic Constant Matrix: (Units=GPa)
#
#
# Indices 1 2 3 4 5 6 
#
# 1 139.6312 45.5469 20.9731 0.0000 0.0000 0.0000
# 2 45.5469 133.8943 34.1630 0.0000 0.0000 0.0000
# 3 20.9731 34.1630 30.6983 0.0000 0.0000 0.0000
# 4 0.0000 0.0000 0.0000 -6.9251 0.0000 0.0000
# 5 0.0000 0.0000 0.0000 0.0000 20.2883 0.0000
# 6 0.0000 0.0000 0.0000 0.0000 0.0000 10.4813
#
#
#
# Elastic Compliance Matrix: (Units=1/GPa)
#
#
# Indices 1 2 3 4 5 6 
#
# 1 0.008322 -0.001928 -0.003541 0.000000 0.000000 0.000000
# 2 -0.001928 0.010877 -0.010787 0.000000 0.000000 0.000000
# 3 -0.003541 -0.010787 0.046999 0.000000 0.000000 0.000000
# 4 0.000000 0.000000 0.000000 -0.144403 0.000000 0.000000
# 5 0.000000 0.000000 0.000000 0.000000 0.049290 0.000000
# 6 0.000000 0.000000 0.000000 0.000000 0.000000 0.095408
#
#
# Mechanical properties :
#
#
# Convention : Reuss Voigt Hill
#
# Bulk Modulus (GPa) = 29.68533 56.17667 42.93100
# Shear Modulus (GPa) = 45.35906 18.33830 31.84868
#
# Velocity S-wave (km/s) = 4.50968 2.86744 3.77885
# Velocity P-wave (km/s) = 6.35815 6.01252 6.18775
#
# Compressibility (1/GPa) = 0.03368667
#
# Stress axis : x y z
#
# Youngs Moduli (GPa) = 120.15883 91.94009 21.27718
#
# Poissons Ratio (x) = 0.17723 0.07533
# Poissons Ratio (y) = 0.23162 0.22952
# Poissons Ratio (z) = 0.42544 0.99178
#
# Static dielectric constant tensor:
#      x y z
#    x 1.772610 0.000000 0.000000 
#    y 0.000000 1.950940 0.000000 
#    z 0.000000 0.000000 1.858450 
# 
# From -- ./inp_files/20026.got.cif
#   From: 2010.05.17/outbox.cif.g08.bks.cpg/sg22_11_cif.got.tgz:20026.got - 2010.06.03 23:40:54.
