data_PCOD9328262
_publ_section_title
;
Structure prediction by ZEFSAII (Michael W. Deem and Ramdas Pophale) SiO2 
 PCOD9328262
Probable space group: F 2 2 2
;
_chemical_formula_sum "Si O2"
_cell_formula_units_Z 64
_cell_length_a 12.423213
_cell_length_b 21.719744
_cell_length_c 9.169517
_cell_angle_alpha 90.000000
_cell_angle_beta 90.000000
_cell_angle_gamma 90.000000
_cell_volume 2474.201658
_symmetry_space_group_name_H-M "F 2 2 2"
_symmetry_group_IT_number 22
_symmetry_cell_setting 'orthorhombic'
loop_
_space_group_symop_operation_xyz
x,y,z
-x,-y,z
x,-y,-z
-x,y,-z
x,1/2+y,1/2+z
-x,1/2-y,1/2+z
x,1/2-y,1/2-z
-x,1/2+y,1/2-z
1/2+x,y,1/2+z
1/2-x,-y,1/2+z
1/2+x,-y,1/2-z
1/2-x,y,1/2-z
1/2+x,1/2+y,z
1/2-x,1/2-y,z
1/2+x,1/2-y,-z
1/2-x,1/2+y,-z
loop_
_atom_site_type_symbol
_atom_site_label
_atom_site_fract_x
_atom_site_fract_y
_atom_site_fract_z
Si Si1 0.365537 0.988484 0.674853
Si Si2 0.500000 0.690756 0.000000
Si Si3 0.656084 0.290983 0.498803
Si Si4 0.750000 0.373833 0.750000
Si Si5 0.618617 0.619123 0.748358
O O1 0.250000 0.001123 0.750000
O O2 0.353904 0.915333 0.701628
O O3 0.370093 0.000000 0.500000
O O4 0.425690 0.047972 0.745947
O O5 0.581677 0.739439 0.072439
O O6 0.568290 0.650859 0.888876
O O7 0.750000 0.250000 0.423330
O O8 0.711417 0.334064 0.616209
O O9 0.595415 0.336780 0.388107
O O10 0.750000 0.619909 0.750000
#
# Coordination Sequence:
#
# PCOD9328262 Si02
#       5
#    16   8  16   8  16
#     4   9  20  40  72 109 141 203 273 332 405 478
#     4  12  28  44  77 115 160 214 274 326 408 506
#     4  12  26  46  75 115 167 216 268 340 411 499
#     4  10  23  40  78 116 157 212 276 334 420 482
#     4  11  23  48  79 110 156 211 273 335 411 478
#
# _framework density 25.86693
#
# number of rings (size 3 to 8) (size 9 to 14) (size 15 to 20)
#    0.750    0.500    2.500    4.125    0.000    4.000 
#    0.000    0.625    0.000    1.500    0.000    0.000 
#    0.000    0.000    0.000    0.000    0.000    0.000 
#
# Total GULP energy -89232.322620 kJ/mol
# GULP energy per Si atom -5577.020164 kJ/mol
# Density = 2.580806 g / cm^3
# Si number density = 25.866930 Si / 1000 Ang^3
#
#
#
# Elastic Constant Matrix: (Units=GPa)
#
#
# Indices 1 2 3 4 5 6 
#
# 1 97.1396 57.2037 30.0233 0.0000 0.0000 0.0000
# 2 57.2037 228.8788 83.0410 0.0000 0.0000 0.0000
# 3 30.0233 83.0410 144.1951 0.0000 0.0000 0.0000
# 4 0.0000 0.0000 0.0000 316.5598 0.0000 0.0000
# 5 0.0000 0.0000 0.0000 0.0000 27.3179 0.0000
# 6 0.0000 0.0000 0.0000 0.0000 0.0000 70.4966
#
#
#
# Elastic Compliance Matrix: (Units=1/GPa)
#
#
# Indices 1 2 3 4 5 6 
#
# 1 0.012182 -0.002685 -0.000990 0.000000 0.000000 0.000000
# 2 -0.002685 0.006115 -0.002963 0.000000 0.000000 0.000000
# 3 -0.000990 -0.002963 0.008847 0.000000 0.000000 0.000000
# 4 0.000000 0.000000 0.000000 0.003159 0.000000 0.000000
# 5 0.000000 0.000000 0.000000 0.000000 0.036606 0.000000
# 6 0.000000 0.000000 0.000000 0.000000 0.000000 0.014185
#
#
# Mechanical properties :
#
#
# Convention : Reuss Voigt Hill
#
# Bulk Modulus (GPa) = 72.10586 90.08327 81.09457
# Shear Modulus (GPa) = 50.50871 102.87123 76.68997
#
# Velocity S-wave (km/s) = 4.42366 6.31314 5.45089
# Velocity P-wave (km/s) = 7.35037 9.38308 8.42823
#
# Compressibility (1/GPa) = 0.01386850
#
# Stress axis : x y z
#
# Youngs Moduli (GPa) = 82.08955 163.52817 113.02945
#
# Poissons Ratio (x) = 0.43915 0.11189
# Poissons Ratio (y) = 0.22045 0.33485
# Poissons Ratio (z) = 0.08126 0.48446
#
# Static dielectric constant tensor:
#      x y z
#    x 2.064590 0.000000 0.000000 
#    y 0.000000 2.154560 0.000000 
#    z 0.000000 0.000000 1.911020 
# 
# From -- ./inp_files/9842.got.cif
#   From: 2010.05.17/outbox.cif.g08.bks.cpg/sg22_5_cif.got.tgz:9842.got - 2010.06.03 23:40:54.
