data_PCOD9328491
_publ_section_title
;
Structure prediction by ZEFSAII (Michael W. Deem and Ramdas Pophale) SiO2 
 PCOD9328491
Probable space group: F 2 2 2
;
_chemical_formula_sum "Si O2"
_cell_formula_units_Z 72
_cell_length_a 15.626934
_cell_length_b 15.661457
_cell_length_c 11.295929
_cell_angle_alpha 90.000000
_cell_angle_beta 90.000000
_cell_angle_gamma 90.000000
_cell_volume 2764.571931
_symmetry_space_group_name_H-M "F 2 2 2"
_symmetry_group_IT_number 22
_symmetry_cell_setting 'orthorhombic'
loop_
_space_group_symop_operation_xyz
x,y,z
-x,-y,z
x,-y,-z
-x,y,-z
x,1/2+y,1/2+z
-x,1/2-y,1/2+z
x,1/2-y,1/2-z
-x,1/2+y,1/2-z
1/2+x,y,1/2+z
1/2-x,-y,1/2+z
1/2+x,-y,1/2-z
1/2-x,y,1/2-z
1/2+x,1/2+y,z
1/2-x,1/2-y,z
1/2+x,1/2-y,-z
1/2-x,1/2+y,-z
loop_
_atom_site_type_symbol
_atom_site_label
_atom_site_fract_x
_atom_site_fract_y
_atom_site_fract_z
Si Si1 0.180623 0.109195 0.349817
Si Si2 0.000339 0.343574 0.773615
Si Si3 0.250000 0.451084 0.750000
Si Si4 0.895499 0.089786 0.071336
Si Si5 0.841267 0.728355 0.932695
O O1 0.250000 0.141430 0.250000
O O2 0.206792 0.010905 0.349642
O O3 0.187843 0.164178 0.465944
O O4 0.079136 0.107477 0.327503
O O5 0.962374 0.250000 0.750000
O O6 0.021743 0.393469 0.652549
O O7 0.083926 0.183086 0.646250
O O8 0.176051 0.410648 0.674043
O O9 0.879321 0.183015 0.013305
O O10 0.893615 0.000000 0.000000
O O11 0.750000 0.750000 0.872670
#
# Coordination Sequence:
#
# PCOD9328491 Si02
#       5
#    16  16   8  16  16
#     4  10  25  46  74 107 146 204 259 315 381 468
#     4  10  24  44  73 110 149 193 261 322 380 463
#     4  10  24  46  74 104 152 194 250 310 395 462
#     4  11  24  46  72 111 151 195 247 314 396 455
#     4  11  23  44  79 110 145 198 257 319 386 460
#
# _framework density 26.043814999999999
#
# number of rings (size 3 to 8) (size 9 to 14) (size 15 to 20)
#    0.667    0.889    0.000    3.333    3.111    4.000 
#    2.000    8.889    0.000    5.333    0.000    0.000 
#    0.000    0.000    0.000    0.000    0.000    0.000 
#
# Total GULP energy -100405.866582 kJ/mol
# GULP energy per Si atom -5578.103699 kJ/mol
# Density = 2.598454 g / cm^3
# Si number density = 26.043815 Si / 1000 Ang^3
#
#
#
# Elastic Constant Matrix: (Units=GPa)
#
#
# Indices 1 2 3 4 5 6 
#
# 1 152.4972 15.1781 23.9827 0.0000 0.0000 0.0000
# 2 15.1781 129.7110 47.4862 0.0000 0.0000 0.0000
# 3 23.9827 47.4862 87.9415 0.0000 0.0000 0.0000
# 4 0.0000 0.0000 0.0000 6.5809 0.0000 0.0000
# 5 0.0000 0.0000 0.0000 0.0000 41.5997 0.0000
# 6 0.0000 0.0000 0.0000 0.0000 0.0000 41.1452
#
#
#
# Elastic Compliance Matrix: (Units=1/GPa)
#
#
# Indices 1 2 3 4 5 6 
#
# 1 0.006854 -0.000147 -0.001790 0.000000 0.000000 0.000000
# 2 -0.000147 0.009612 -0.005150 0.000000 0.000000 0.000000
# 3 -0.001790 -0.005150 0.014640 0.000000 0.000000 0.000000
# 4 0.000000 0.000000 0.000000 0.151955 0.000000 0.000000
# 5 0.000000 0.000000 0.000000 0.000000 0.024039 0.000000
# 6 0.000000 0.000000 0.000000 0.000000 0.000000 0.024304
#
#
# Mechanical properties :
#
#
# Convention : Reuss Voigt Hill
#
# Bulk Modulus (GPa) = 59.05858 60.38264 59.72061
# Shear Modulus (GPa) = 19.90278 36.76534 28.33406
#
# Velocity S-wave (km/s) = 2.76742 3.76130 3.30197
# Velocity P-wave (km/s) = 5.73911 6.48834 6.12519
#
# Compressibility (1/GPa) = 0.01693234
#
# Stress axis : x y z
#
# Youngs Moduli (GPa) = 145.90916 104.03561 68.30449
#
# Poissons Ratio (x) = 0.01527 0.12225
# Poissons Ratio (y) = 0.02141 0.35179
# Poissons Ratio (z) = 0.26115 0.53581
#
# Static dielectric constant tensor:
#      x y z
#    x 2.104330 0.000000 0.000000 
#    y 0.000000 1.807710 0.000000 
#    z 0.000000 0.000000 2.000760 
# 
# From -- ./inp_files/21101.got.cif
#   From: 2010.05.17/outbox.cif.g08.bks.cpg/sg22_11_cif.got.tgz:21101.got - 2010.06.03 23:40:54.
