data_PCOD9328931
_publ_section_title
;
Structure prediction by ZEFSAII (Michael W. Deem and Ramdas Pophale) SiO2 
 PCOD9328931
Probable space group: F 2 2 2
;
_chemical_formula_sum "Si O2"
_cell_formula_units_Z 116
_cell_length_a 11.402020
_cell_length_b 25.815497
_cell_length_c 18.052966
_cell_angle_alpha 90.000000
_cell_angle_beta 90.000000
_cell_angle_gamma 90.000000
_cell_volume 5313.869115
_symmetry_space_group_name_H-M "F 2 2 2"
_symmetry_group_IT_number 22
_symmetry_cell_setting 'orthorhombic'
loop_
_space_group_symop_operation_xyz
x,y,z
-x,-y,z
x,-y,-z
-x,y,-z
x,1/2+y,1/2+z
-x,1/2-y,1/2+z
x,1/2-y,1/2-z
-x,1/2+y,1/2-z
1/2+x,y,1/2+z
1/2-x,-y,1/2+z
1/2+x,-y,1/2-z
1/2-x,y,1/2-z
1/2+x,1/2+y,z
1/2-x,1/2-y,z
1/2+x,1/2-y,-z
1/2-x,1/2+y,-z
loop_
_atom_site_type_symbol
_atom_site_label
_atom_site_fract_x
_atom_site_fract_y
_atom_site_fract_z
Si Si1 0.731345 0.897947 0.412227
Si Si2 0.832182 0.666071 0.551801
Si Si3 0.916042 0.222005 0.434004
Si Si4 0.866075 0.010708 0.627071
Si Si5 0.690021 0.579263 0.825481
Si Si6 0.581506 0.169913 0.826497
Si Si7 0.437224 0.926566 0.724947
Si Si8 0.250000 0.250000 0.250000
O O1 0.661444 0.867626 0.476187
O O2 0.800346 0.951001 0.429915
O O3 0.836362 0.861235 0.383843
O O4 0.647919 0.915140 0.344038
O O5 0.915472 0.715401 0.565723
O O6 0.707693 0.695509 0.551232
O O7 0.835407 0.625273 0.617999
O O8 0.000000 0.205558 0.500000
O O9 0.969651 0.197356 0.360814
O O10 0.882532 0.039040 0.708274
O O11 0.782980 0.961360 0.640255
O O12 0.000000 0.000000 0.603970
O O13 0.750000 0.598390 0.750000
O O14 0.563932 0.554666 0.803871
O O15 0.545064 0.129167 0.764034
O O16 0.667044 0.213753 0.797252
#
# Coordination Sequence:
#
# PCOD9328931 Si02
#       8
#    16  16  16  16  16  16  16   4
#     4  11  24  45  68 105 144 183 238 294 354 435
#     4  11  28  45  67 105 141 190 237 292 365 427
#     4  11  25  44  69  93 143 198 234 288 356 426
#     4  11  24  44  74 103 134 185 235 293 365 426
#     4  12  25  45  72 101 141 183 236 295 360 431
#     4  11  23  42  68 103 139 181 243 293 347 417
#     4  11  24  43  71 105 140 186 232 295 360 427
#     4  12  24  36  72 106 132 176 246 296 348 408
#
# _framework density 21.829667000000001
#
# number of rings (size 3 to 8) (size 9 to 14) (size 15 to 20)
#    0.000    0.828    4.138    2.897    7.724    0.552 
#    0.000    1.379    0.000    1.655    0.000    0.000 
#    0.000    0.000    0.000    0.000    0.000    0.000 
#
# Total GULP energy -162109.586936 kJ/mol
# GULP energy per Si atom -5589.985756 kJ/mol
# Density = 2.177998 g / cm^3
# Si number density = 21.829667 Si / 1000 Ang^3
#
#
#
# Elastic Constant Matrix: (Units=GPa)
#
#
# Indices 1 2 3 4 5 6 
#
# 1 81.9051 7.7955 -1.2716 0.0000 0.0000 0.0000
# 2 7.7955 74.2562 8.2944 0.0000 0.0000 0.0000
# 3 -1.2716 8.2944 33.4409 0.0000 0.0000 0.0000
# 4 0.0000 0.0000 0.0000 52.3118 0.0000 0.0000
# 5 0.0000 0.0000 0.0000 0.0000 21.0338 0.0000
# 6 0.0000 0.0000 0.0000 0.0000 0.0000 50.1851
#
#
#
# Elastic Compliance Matrix: (Units=1/GPa)
#
#
# Indices 1 2 3 4 5 6 
#
# 1 0.012354 -0.001388 0.000814 0.000000 0.000000 0.000000
# 2 -0.001388 0.014007 -0.003527 0.000000 0.000000 0.000000
# 3 0.000814 -0.003527 0.030809 0.000000 0.000000 0.000000
# 4 0.000000 0.000000 0.000000 0.019116 0.000000 0.000000
# 5 0.000000 0.000000 0.000000 0.000000 0.047542 0.000000
# 6 0.000000 0.000000 0.000000 0.000000 0.000000 0.019926
#
#
# Mechanical properties :
#
#
# Convention : Reuss Voigt Hill
#
# Bulk Modulus (GPa) = 20.42136 24.35986 22.39061
# Shear Modulus (GPa) = 29.71261 36.35840 33.03551
#
# Velocity S-wave (km/s) = 3.69333 4.08554 3.89438
# Velocity P-wave (km/s) = 5.25002 5.78263 5.52275
#
# Compressibility (1/GPa) = 0.04896833
#
# Stress axis : x y z
#
# Youngs Moduli (GPa) = 80.94561 71.39526 32.45782
#
# Poissons Ratio (x) = 0.09909 -0.02642
# Poissons Ratio (y) = 0.11234 0.11447
# Poissons Ratio (z) = -0.06589 0.25180
#
# Static dielectric constant tensor:
#      x y z
#    x 1.819640 0.000000 0.000000 
#    y 0.000000 1.801300 0.000000 
#    z 0.000000 0.000000 1.797160 
# 
# From -- ./inp_files/36413.got.cif
#   From: 2010.05.17/outbox.cif.g08.bks.cpg/sg22_19_cif.got.tgz:36413.got - 2010.06.03 23:40:54.
