data_PCOD9328879
_publ_section_title
;
Structure prediction by ZEFSAII (Michael W. Deem and Ramdas Pophale) SiO2 
 PCOD9328879
Probable space group: F 2 2 2
;
_chemical_formula_sum "Si O2"
_cell_formula_units_Z 56
_cell_length_a 7.399585
_cell_length_b 25.753704
_cell_length_c 12.060586
_cell_angle_alpha 90.000000
_cell_angle_beta 90.000000
_cell_angle_gamma 90.000000
_cell_volume 2298.346337
_symmetry_space_group_name_H-M "F 2 2 2"
_symmetry_group_IT_number 22
_symmetry_cell_setting 'orthorhombic'
loop_
_space_group_symop_operation_xyz
x,y,z
-x,-y,z
x,-y,-z
-x,y,-z
x,1/2+y,1/2+z
-x,1/2-y,1/2+z
x,1/2-y,1/2-z
-x,1/2+y,1/2-z
1/2+x,y,1/2+z
1/2-x,-y,1/2+z
1/2+x,-y,1/2-z
1/2-x,y,1/2-z
1/2+x,1/2+y,z
1/2-x,1/2-y,z
1/2+x,1/2-y,-z
1/2-x,1/2+y,-z
loop_
_atom_site_type_symbol
_atom_site_label
_atom_site_fract_x
_atom_site_fract_y
_atom_site_fract_z
Si Si1 0.250000 0.619219 0.250000
Si Si2 0.785038 0.058503 0.473291
Si Si3 0.494028 0.805405 0.808730
Si Si4 0.353479 0.340839 0.084967
O O1 0.263901 0.576508 0.150348
O O2 0.325680 0.665174 0.339233
O O3 0.694522 0.101431 0.550964
O O4 0.000000 0.062000 0.500000
O O5 0.728808 0.000000 0.500000
O O6 0.508998 0.750000 0.750000
O O7 0.443149 0.843994 0.706770
O O8 0.330498 0.808171 0.894858
O O9 0.500000 0.317824 0.000000
#
# Coordination Sequence:
#
# PCOD9328879 Si02
#       4
#     8  16  16  16
#     4  12  23  48  74 102 146 190 245 320 362 452
#     4  11  25  47  71 105 140 190 246 307 378 443
#     4  11  25  46  68 106 147 192 248 304 369 442
#     4  11  22  44  68 101 146 184 239 299 364 442
#
# _framework density 24.365344
#
# number of rings (size 3 to 8) (size 9 to 14) (size 15 to 20)
#    0.000    0.857    5.714    2.143    0.000    2.857 
#   10.286    0.000    0.000    0.000    0.000    0.000 
#    0.000    0.000    0.000    0.000    0.000    0.000 
#
# Total GULP energy -77967.618032 kJ/mol
# GULP energy per Si atom -5569.115574 kJ/mol
# Density = 2.430989 g / cm^3
# Si number density = 24.365344 Si / 1000 Ang^3
#
#
#
# Elastic Constant Matrix: (Units=GPa)
#
#
# Indices 1 2 3 4 5 6 
#
# 1 118.5068 41.1361 31.3920 0.0000 0.0000 0.0000
# 2 41.1361 221.5399 80.4132 0.0000 0.0000 0.0000
# 3 31.3920 80.4132 126.3202 0.0000 0.0000 0.0000
# 4 0.0000 0.0000 0.0000 50.4706 0.0000 0.0000
# 5 0.0000 0.0000 0.0000 0.0000 33.9903 0.0000
# 6 0.0000 0.0000 0.0000 0.0000 0.0000 42.2148
#
#
#
# Elastic Compliance Matrix: (Units=1/GPa)
#
#
# Indices 1 2 3 4 5 6 
#
# 1 0.009252 -0.001149 -0.001568 0.000000 0.000000 0.000000
# 2 -0.001149 0.006013 -0.003542 0.000000 0.000000 0.000000
# 3 -0.001568 -0.003542 0.010561 0.000000 0.000000 0.000000
# 4 0.000000 0.000000 0.000000 0.019814 0.000000 0.000000
# 5 0.000000 0.000000 0.000000 0.000000 0.029420 0.000000
# 6 0.000000 0.000000 0.000000 0.000000 0.000000 0.023688
#
#
# Mechanical properties :
#
#
# Convention : Reuss Voigt Hill
#
# Bulk Modulus (GPa) = 75.14162 85.80552 80.47357
# Shear Modulus (GPa) = 43.21422 46.23017 44.72219
#
# Velocity S-wave (km/s) = 4.21597 4.36061 4.28890
# Velocity P-wave (km/s) = 7.38957 7.78755 7.59117
#
# Compressibility (1/GPa) = 0.01330820
#
# Stress axis : x y z
#
# Youngs Moduli (GPa) = 108.07894 166.30867 94.68840
#
# Poissons Ratio (x) = 0.19107 0.14847
# Poissons Ratio (y) = 0.12417 0.33541
# Poissons Ratio (z) = 0.16947 0.58910
#
# Static dielectric constant tensor:
#      x y z
#    x 1.452520 0.000000 0.000000 
#    y 0.000000 1.913350 0.000000 
#    z 0.000000 0.000000 1.971070 
# 
# From -- ./inp_files/14329.got.cif
#   From: 2010.05.17/outbox.cif.g08.bks.cpg/sg22_8_cif.got.tgz:14329.got - 2010.06.03 23:40:54.
