data_PCOD9328268
_publ_section_title
;
Structure prediction by ZEFSAII (Michael W. Deem and Ramdas Pophale) SiO2 
 PCOD9328268
Probable space group: F 2 2 2
;
_chemical_formula_sum "Si O2"
_cell_formula_units_Z 84
_cell_length_a 23.617864
_cell_length_b 6.164932
_cell_length_c 27.982842
_cell_angle_alpha 90.000000
_cell_angle_beta 90.000000
_cell_angle_gamma 90.000000
_cell_volume 4074.372467
_symmetry_space_group_name_H-M "F 2 2 2"
_symmetry_group_IT_number 22
_symmetry_cell_setting 'orthorhombic'
loop_
_space_group_symop_operation_xyz
x,y,z
-x,-y,z
x,-y,-z
-x,y,-z
x,1/2+y,1/2+z
-x,1/2-y,1/2+z
x,1/2-y,1/2-z
-x,1/2+y,1/2-z
1/2+x,y,1/2+z
1/2-x,-y,1/2+z
1/2+x,-y,1/2-z
1/2-x,y,1/2-z
1/2+x,1/2+y,z
1/2-x,1/2-y,z
1/2+x,1/2-y,-z
1/2-x,1/2+y,-z
loop_
_atom_site_type_symbol
_atom_site_label
_atom_site_fract_x
_atom_site_fract_y
_atom_site_fract_z
Si Si1 0.250000 0.250000 0.250000
Si Si2 0.943899 0.615852 0.644989
Si Si3 0.169675 0.618681 0.297643
Si Si4 0.204352 0.918868 0.947382
Si Si5 0.750000 0.250000 0.127336
Si Si6 0.000000 0.000000 0.405793
Si Si7 0.075506 0.360165 0.452459
O O1 0.209703 0.411013 0.282724
O O2 0.889691 0.567369 0.677185
O O3 0.959919 0.860564 0.629687
O O4 0.933464 0.510256 0.593300
O O5 0.000000 0.500000 0.665407
O O6 0.158614 0.750000 0.250000
O O7 0.200894 0.789012 0.333413
O O8 0.250000 0.750000 0.930161
O O9 0.142612 0.814296 0.952600
O O10 0.212695 0.106450 0.908983
O O11 0.220361 0.000000 0.000000
O O12 0.037359 0.153098 0.440404
O O13 0.063076 0.500000 0.500000
#
# Coordination Sequence:
#
# PCOD9328268 Si02
#       7
#     4  16  16  16   8   8  16
#     4  12  26  48  74 102 140 178 226 298 360 398
#     4  10  24  46  66 101 136 179 237 288 345 422
#     4  12  26  47  70 104 139 179 239 286 351 422
#     4  11  24  40  65 102 143 185 227 272 343 414
#     4  12  23  42  71 102 140 179 225 290 334 414
#     4  10  24  45  72  92 142 188 230 290 355 390
#     4  10  23  41  66 101 138 181 239 284 338 422
#
# _framework density 20.616669999999999
#
# number of rings (size 3 to 8) (size 9 to 14) (size 15 to 20)
#    0.000    1.143    4.762    0.000    4.000    8.000 
#    3.429    0.000    0.000    0.000    0.000    0.000 
#    0.000    0.000    0.000    0.000    0.000    0.000 
#
# Total GULP energy -116957.890677 kJ/mol
# GULP energy per Si atom -5569.423366 kJ/mol
# Density = 2.056975 g / cm^3
# Si number density = 20.616670 Si / 1000 Ang^3
#
#
#
# Elastic Constant Matrix: (Units=GPa)
#
#
# Indices 1 2 3 4 5 6 
#
# 1 154.0572 52.3344 59.5408 0.0200 -0.0053 -0.0010
# 2 52.3344 88.6809 44.1738 0.0234 -0.0112 0.0054
# 3 59.5408 44.1738 143.6408 -0.0047 -0.0002 0.0006
# 4 0.0200 0.0234 -0.0047 -25.4143 -0.0887 0.0038
# 5 -0.0053 -0.0112 -0.0002 -0.0887 129.5263 0.0005
# 6 -0.0010 0.0054 0.0006 0.0038 0.0005 6.9324
#
#
#
# Elastic Compliance Matrix: (Units=1/GPa)
#
#
# Indices 1 2 3 4 5 6 
#
# 1 0.008775 -0.003976 -0.002415 0.000004 0.000000 0.000005
# 2 -0.003976 0.015117 -0.003001 0.000011 0.000001 -0.000012
# 3 -0.002415 -0.003001 0.008886 -0.000006 0.000000 0.000001
# 4 0.000004 0.000011 -0.000006 -0.039348 -0.000027 0.000022
# 5 0.000000 0.000001 0.000000 -0.000027 0.007720 -0.000001
# 6 0.000005 -0.000012 0.000001 0.000022 -0.000001 0.144250
#
#
# Mechanical properties :
#
#
# Convention : Reuss Voigt Hill
#
# Bulk Modulus (GPa) = 71.45323 77.60855 74.53089
# Shear Modulus (GPa) = 29.61240 37.56422 33.58831
#
# Velocity S-wave (km/s) = 3.79401 4.27316 4.04069
# Velocity P-wave (km/s) = 7.34343 7.87857 7.61570
#
# Compressibility (1/GPa) = 0.01399517
#
# Stress axis : x y z
#
# Youngs Moduli (GPa) = 113.96162 66.14852 112.54094
#
# Poissons Ratio (x) = 0.26298 0.27175
# Poissons Ratio (y) = 0.45307 0.33775
# Poissons Ratio (z) = 0.27518 0.19852
#
# Static dielectric constant tensor:
#      x y z
#    x 3.138710 0.000380 0.000020 
#    y 0.000380 1.817680 0.000000 
#    z 0.000020 0.000000 1.700200 
# 
# From -- ./inp_files/57131.got.cif
#   From: 2010.05.17/outbox.cif.g08.bks.cpg/sg22_29_cif.got.tgz:57131.got - 2010.06.03 23:40:54.
