data_PCOD9328887
_publ_section_title
;
Structure prediction by ZEFSAII (Michael W. Deem and Ramdas Pophale) SiO2 
 PCOD9328887
Probable space group: F 2 2 2
;
_chemical_formula_sum "Si O2"
_cell_formula_units_Z 108
_cell_length_a 12.121711
_cell_length_b 28.739847
_cell_length_c 15.588583
_cell_angle_alpha 90.000000
_cell_angle_beta 90.000000
_cell_angle_gamma 90.000000
_cell_volume 5430.690054
_symmetry_space_group_name_H-M "F 2 2 2"
_symmetry_group_IT_number 22
_symmetry_cell_setting 'orthorhombic'
loop_
_space_group_symop_operation_xyz
x,y,z
-x,-y,z
x,-y,-z
-x,y,-z
x,1/2+y,1/2+z
-x,1/2-y,1/2+z
x,1/2-y,1/2-z
-x,1/2+y,1/2-z
1/2+x,y,1/2+z
1/2-x,-y,1/2+z
1/2+x,-y,1/2-z
1/2-x,y,1/2-z
1/2+x,1/2+y,z
1/2-x,1/2-y,z
1/2+x,1/2-y,-z
1/2-x,1/2+y,-z
loop_
_atom_site_type_symbol
_atom_site_label
_atom_site_fract_x
_atom_site_fract_y
_atom_site_fract_z
Si Si1 0.719330 0.339318 0.494111
Si Si2 0.000000 0.221759 0.500000
Si Si3 0.765725 0.594658 0.346610
Si Si4 0.869091 0.503824 0.102335
Si Si5 0.493957 0.898489 0.397058
Si Si6 0.908262 0.796999 0.886667
Si Si7 0.250000 0.750000 0.250000
Si Si8 0.744759 0.913288 0.654284
O O1 0.608935 0.309660 0.501888
O O2 0.742309 0.366718 0.581400
O O3 0.824090 0.308557 0.465176
O O4 0.711709 0.377073 0.416895
O O5 0.985755 0.255450 0.418035
O O6 0.750000 0.611627 0.250000
O O7 0.685120 0.551287 0.364178
O O8 0.893903 0.581354 0.359525
O O9 0.813366 0.460213 0.148428
O O10 0.000000 0.500000 0.114835
O O11 0.847155 0.500000 0.000000
O O12 0.500000 0.899295 0.500000
O O13 0.474452 0.844522 0.369858
O O14 0.382374 0.923473 0.368362
O O15 0.829721 0.780840 0.809731
O O16 0.750000 0.893396 0.750000
#
# Coordination Sequence:
#
# PCOD9328887 Si02
#       8
#    16   8  16  16  16  16   4  16
#     4  11  24  41  66 100 134 178 228 283 345 400
#     4  12  22  38  72  91 136 183 216 274 350 414
#     4  12  26  44  67  99 138 183 227 279 345 414
#     4  11  24  45  68  95 142 175 221 292 350 409
#     4  11  22  45  72  93 139 179 227 287 340 404
#     4  11  23  43  65 101 137 176 230 287 340 395
#     4  12  24  40  68 104 136 180 240 288 336 422
#     4  11  25  42  70 101 132 179 235 282 339 413
#
# _framework density 19.886973999999999
#
# number of rings (size 3 to 8) (size 9 to 14) (size 15 to 20)
#    0.000    0.741    6.667    0.444    8.296    1.778 
#    0.000    1.481    0.000    3.556    0.000    0.000 
#    0.000    0.000    0.000    0.000    0.000    0.000 
#
# Total GULP energy -150973.509434 kJ/mol
# GULP energy per Si atom -5591.611461 kJ/mol
# Density = 1.984171 g / cm^3
# Si number density = 19.886974 Si / 1000 Ang^3
#
#
#
# Elastic Constant Matrix: (Units=GPa)
#
#
# Indices 1 2 3 4 5 6 
#
# 1 100.9947 37.0141 29.3248 0.0000 0.0000 0.0000
# 2 37.0141 63.5357 36.7496 0.0000 0.0000 0.0000
# 3 29.3248 36.7496 144.8226 0.0000 0.0000 0.0000
# 4 0.0000 0.0000 0.0000 4.1138 0.0000 0.0000
# 5 0.0000 0.0000 0.0000 0.0000 32.4359 0.0000
# 6 0.0000 0.0000 0.0000 0.0000 0.0000 39.5225
#
#
#
# Elastic Compliance Matrix: (Units=1/GPa)
#
#
# Indices 1 2 3 4 5 6 
#
# 1 0.012670 -0.006912 -0.000812 0.000000 0.000000 0.000000
# 2 -0.006912 0.022217 -0.004238 0.000000 0.000000 0.000000
# 3 -0.000812 -0.004238 0.008145 0.000000 0.000000 0.000000
# 4 0.000000 0.000000 0.000000 0.243086 0.000000 0.000000
# 5 0.000000 0.000000 0.000000 0.000000 0.030830 0.000000
# 6 0.000000 0.000000 0.000000 0.000000 0.000000 0.025302
#
#
# Mechanical properties :
#
#
# Convention : Reuss Voigt Hill
#
# Bulk Modulus (GPa) = 52.33157 57.28113 54.80635
# Shear Modulus (GPa) = 13.42125 28.96541 21.19333
#
# Velocity S-wave (km/s) = 2.60066 3.82055 3.26803
# Velocity P-wave (km/s) = 5.94891 6.95184 6.46984
#
# Compressibility (1/GPa) = 0.01910892
#
# Stress axis : x y z
#
# Youngs Moduli (GPa) = 78.92429 45.01001 122.77755
#
# Poissons Ratio (x) = 0.31111 0.09965
# Poissons Ratio (y) = 0.54552 0.52035
# Poissons Ratio (z) = 0.06406 0.19076
#
# Static dielectric constant tensor:
#      x y z
#    x 1.692140 0.000000 0.000000 
#    y 0.000000 1.704020 0.000000 
#    z 0.000000 0.000000 1.700690 
# 
# From -- ./inp_files/28478.got.cif
#   From: 2010.05.17/outbox.cif.g08.bks.cpg/sg22_15_cif.got.tgz:28478.got - 2010.06.03 23:40:54.
