data_PCOD9328637
_publ_section_title
;
Structure prediction by ZEFSAII (Michael W. Deem and Ramdas Pophale) SiO2 
 PCOD9328637
Probable space group: F 2 2 2
;
_chemical_formula_sum "Si O2"
_cell_formula_units_Z 60
_cell_length_a 5.655006
_cell_length_b 17.731188
_cell_length_c 23.600738
_cell_angle_alpha 90.000000
_cell_angle_beta 90.000000
_cell_angle_gamma 90.000000
_cell_volume 2366.445398
_symmetry_space_group_name_H-M "F 2 2 2"
_symmetry_group_IT_number 22
_symmetry_cell_setting 'orthorhombic'
loop_
_space_group_symop_operation_xyz
x,y,z
-x,-y,z
x,-y,-z
-x,y,-z
x,1/2+y,1/2+z
-x,1/2-y,1/2+z
x,1/2-y,1/2-z
-x,1/2+y,1/2-z
1/2+x,y,1/2+z
1/2-x,-y,1/2+z
1/2+x,-y,1/2-z
1/2-x,y,1/2-z
1/2+x,1/2+y,z
1/2-x,1/2-y,z
1/2+x,1/2-y,-z
1/2-x,1/2+y,-z
loop_
_atom_site_type_symbol
_atom_site_label
_atom_site_fract_x
_atom_site_fract_y
_atom_site_fract_z
Si Si1 0.746459 0.479841 0.647989
Si Si2 0.250000 0.750000 0.250000
Si Si3 0.250000 0.750000 0.070713
Si Si4 0.915255 0.688158 0.161877
Si Si5 0.746513 0.917047 0.531889
O O1 0.500000 0.500000 0.678322
O O2 0.713138 0.389048 0.643461
O O3 0.744424 0.532778 0.590239
O O4 0.000000 0.500000 0.674030
O O5 0.373835 0.689437 0.292805
O O6 0.477918 0.768773 0.108257
O O7 0.277934 0.671788 0.040267
O O8 0.750000 0.750000 0.189449
O O9 0.500000 0.932431 0.500000
O O10 0.000000 0.926271 0.500000
#
# Coordination Sequence:
#
# PCOD9328637 Si02
#       5
#    16   4   8  16  16
#     4  12  26  49  76 115 157 218 257 325 408 470
#     4  10  26  52  88 126 144 204 276 344 406 510
#     4  11  24  45  74 112 154 220 270 331 396 457
#     4  11  25  49  86 111 157 204 265 334 417 490
#     4  12  27  46  71 112 164 215 280 327 378 462
#
# _framework density 25.354482000000001
#
# number of rings (size 3 to 8) (size 9 to 14) (size 15 to 20)
#    0.000    0.533    2.667    4.400    7.467    3.200 
#    0.000    0.000    5.867    0.000    0.000    0.000 
#    0.000    0.000    0.000    0.000    0.000    0.000 
#
# Total GULP energy -83611.919011 kJ/mol
# GULP energy per Si atom -5574.127934 kJ/mol
# Density = 2.529677 g / cm^3
# Si number density = 25.354482 Si / 1000 Ang^3
#
#
#
# Elastic Constant Matrix: (Units=GPa)
#
#
# Indices 1 2 3 4 5 6 
#
# 1 193.3259 58.6608 40.9535 0.0000 0.0000 0.0000
# 2 58.6608 275.5076 55.5729 0.0000 0.0000 0.0000
# 3 40.9535 55.5729 72.7101 0.0000 0.0000 0.0000
# 4 0.0000 0.0000 0.0000 -22.8272 0.0000 0.0000
# 5 0.0000 0.0000 0.0000 0.0000 46.6426 0.0000
# 6 0.0000 0.0000 0.0000 0.0000 0.0000 48.2836
#
#
#
# Elastic Compliance Matrix: (Units=1/GPa)
#
#
# Indices 1 2 3 4 5 6 
#
# 1 0.005986 -0.000703 -0.002835 0.000000 0.000000 0.000000
# 2 -0.000703 0.004374 -0.002947 0.000000 0.000000 0.000000
# 3 -0.002835 -0.002947 0.017602 0.000000 0.000000 0.000000
# 4 0.000000 0.000000 0.000000 -0.043807 0.000000 0.000000
# 5 0.000000 0.000000 0.000000 0.000000 0.021440 0.000000
# 6 0.000000 0.000000 0.000000 0.000000 0.000000 0.020711
#
#
# Mechanical properties :
#
#
# Convention : Reuss Voigt Hill
#
# Bulk Modulus (GPa) = 66.69581 94.65757 80.67669
# Shear Modulus (GPa) = 112.93759 40.17689 76.55724
#
# Velocity S-wave (km/s) = 6.68133 3.98503 5.50094
# Velocity P-wave (km/s) = 9.26729 7.65432 8.49916
#
# Compressibility (1/GPa) = 0.01499345
#
# Stress axis : x y z
#
# Youngs Moduli (GPa) = 167.04687 228.63620 56.81091
#
# Poissons Ratio (x) = 0.16069 0.16104
# Poissons Ratio (y) = 0.11741 0.16742
# Poissons Ratio (z) = 0.47351 0.67380
#
# Static dielectric constant tensor:
#      x y z
#    x 2.113050 0.000000 0.000000 
#    y 0.000000 1.708650 0.000000 
#    z 0.000000 0.000000 2.074170 
# 
# From -- ./inp_files/51020.got.cif
#   From: 2010.05.17/outbox.cif.g08.bks.cpg/sg22_26_cif.got.tgz:51020.got - 2010.06.03 23:40:54.
