data_PCOD9328318
_publ_section_title
;
Structure prediction by ZEFSAII (Michael W. Deem and Ramdas Pophale) SiO2 
 PCOD9328318
Probable space group: F 2 2 2
;
_chemical_formula_sum "Si O2"
_cell_formula_units_Z 80
_cell_length_a 5.434549
_cell_length_b 22.011057
_cell_length_c 31.450524
_cell_angle_alpha 90.000000
_cell_angle_beta 90.000000
_cell_angle_gamma 90.000000
_cell_volume 3762.116959
_symmetry_space_group_name_H-M "F 2 2 2"
_symmetry_group_IT_number 22
_symmetry_cell_setting 'orthorhombic'
loop_
_space_group_symop_operation_xyz
x,y,z
-x,-y,z
x,-y,-z
-x,y,-z
x,1/2+y,1/2+z
-x,1/2-y,1/2+z
x,1/2-y,1/2-z
-x,1/2+y,1/2-z
1/2+x,y,1/2+z
1/2-x,-y,1/2+z
1/2+x,-y,1/2-z
1/2-x,y,1/2-z
1/2+x,1/2+y,z
1/2-x,1/2-y,z
1/2+x,1/2-y,-z
1/2-x,1/2+y,-z
loop_
_atom_site_type_symbol
_atom_site_label
_atom_site_fract_x
_atom_site_fract_y
_atom_site_fract_z
Si Si1 0.500000 0.000000 0.085888
Si Si2 0.996018 0.606980 0.846030
Si Si3 0.000000 0.842680 0.500000
Si Si4 0.127601 0.070940 0.955058
Si Si5 0.006520 0.656140 0.620984
Si Si6 0.250000 0.250000 0.435942
Si Si7 0.500000 0.500000 0.722745
O O1 0.500973 0.941450 0.115475
O O2 0.257207 0.991959 0.058018
O O3 0.748774 0.646895 0.853304
O O4 0.987201 0.561577 0.805731
O O5 0.250311 0.644254 0.850377
O O6 0.148815 0.883947 0.467510
O O7 0.156725 0.800929 0.531577
O O8 0.999210 0.103783 0.915441
O O9 0.000000 0.068897 0.000000
O O10 0.048717 0.718470 0.594816
O O11 0.750000 0.497335 0.750000
#
# Coordination Sequence:
#
# PCOD9328318 Si02
#       7
#     8  16   8  16  16   8   8
#     4   9  22  39  55  74 118 170 206 252 333 386
#     4  10  23  43  61  96 133 159 205 258 312 399
#     4  12  24  41  50  84 116 159 240 324 324 376
#     4  11  23  41  52  80 117 167 231 289 333 377
#     4  11  23  41  60  86 127 171 221 278 323 374
#     4  12  22  38  66  82 115 182 232 294 351 358
#     4  11  22  42  77 110 135 168 195 236 319 404
#
# _framework density 21.264623
#
# number of rings (size 3 to 8) (size 9 to 14) (size 15 to 20)
#    0.000    1.200    2.000    4.800    0.000    9.200 
#    3.600    0.000    0.000    0.000    0.000   10.500 
#    0.000    0.000    0.000    0.000    0.000    0.000 
#
# Total GULP energy -111782.046290 kJ/mol
# GULP energy per Si atom -5589.102314 kJ/mol
# Density = 2.121622 g / cm^3
# Si number density = 21.264623 Si / 1000 Ang^3
#
#
#
# Elastic Constant Matrix: (Units=GPa)
#
#
# Indices 1 2 3 4 5 6 
#
# 1 140.5137 12.7499 54.5614 0.0000 0.0000 0.0000
# 2 12.7499 48.7837 16.5619 0.0000 0.0000 0.0000
# 3 54.5614 16.5619 104.5002 0.0000 0.0000 0.0000
# 4 0.0000 0.0000 0.0000 142.1622 0.0000 0.0000
# 5 0.0000 0.0000 0.0000 0.0000 32.6524 0.0000
# 6 0.0000 0.0000 0.0000 0.0000 0.0000 29.6471
#
#
#
# Elastic Compliance Matrix: (Units=1/GPa)
#
#
# Indices 1 2 3 4 5 6 
#
# 1 0.008956 -0.000796 -0.004550 0.000000 0.000000 0.000000
# 2 -0.000796 0.021735 -0.003029 0.000000 0.000000 0.000000
# 3 -0.004550 -0.003029 0.012425 0.000000 0.000000 0.000000
# 4 0.000000 0.000000 0.000000 0.007034 0.000000 0.000000
# 5 0.000000 0.000000 0.000000 0.000000 0.030626 0.000000
# 6 0.000000 0.000000 0.000000 0.000000 0.000000 0.033730
#
#
# Mechanical properties :
#
#
# Convention : Reuss Voigt Hill
#
# Bulk Modulus (GPa) = 37.92771 51.28267 44.60519
# Shear Modulus (GPa) = 35.70306 54.88728 45.29517
#
# Velocity S-wave (km/s) = 4.10199 5.08602 4.62028
# Velocity P-wave (km/s) = 6.34901 7.65891 7.03451
#
# Compressibility (1/GPa) = 0.02636595
#
# Stress axis : x y z
#
# Youngs Moduli (GPa) = 111.66161 46.00855 80.48328
#
# Poissons Ratio (x) = 0.03662 0.36618
# Poissons Ratio (y) = 0.08888 0.24379
# Poissons Ratio (z) = 0.50803 0.13937
#
# Static dielectric constant tensor:
#      x y z
#    x 1.866280 0.000000 0.000000 
#    y 0.000000 1.789550 0.000000 
#    z 0.000000 0.000000 1.725440 
# 
# From -- ./inp_files/54983.got.cif
#   From: 2010.05.17/outbox.cif.g08.bks.cpg/sg22_28_cif.got.tgz:54983.got - 2010.06.03 23:40:54.
