data_PCOD9328171
_publ_section_title
;
Structure prediction by ZEFSAII (Michael W. Deem and Ramdas Pophale) SiO2 
 PCOD9328171
Probable space group: F 2 2 2
;
_chemical_formula_sum "Si O2"
_cell_formula_units_Z 100
_cell_length_a 11.701900
_cell_length_b 28.988377
_cell_length_c 13.232840
_cell_angle_alpha 90.000000
_cell_angle_beta 90.000000
_cell_angle_gamma 90.000000
_cell_volume 4488.831927
_symmetry_space_group_name_H-M "F 2 2 2"
_symmetry_group_IT_number 22
_symmetry_cell_setting 'orthorhombic'
loop_
_space_group_symop_operation_xyz
x,y,z
-x,-y,z
x,-y,-z
-x,y,-z
x,1/2+y,1/2+z
-x,1/2-y,1/2+z
x,1/2-y,1/2-z
-x,1/2+y,1/2-z
1/2+x,y,1/2+z
1/2-x,-y,1/2+z
1/2+x,-y,1/2-z
1/2-x,y,1/2-z
1/2+x,1/2+y,z
1/2-x,1/2-y,z
1/2+x,1/2-y,-z
1/2-x,1/2+y,-z
loop_
_atom_site_type_symbol
_atom_site_label
_atom_site_fract_x
_atom_site_fract_y
_atom_site_fract_z
Si Si1 0.256988 0.165796 0.486638
Si Si2 0.171498 0.933840 0.572736
Si Si3 0.110968 0.274858 0.147546
Si Si4 0.250000 0.005900 0.250000
Si Si5 0.412169 0.935927 0.155774
Si Si6 0.896058 0.830516 0.684654
Si Si7 0.500000 0.702136 0.000000
Si Si8 0.750000 0.250000 0.250000
O O1 0.224492 0.116926 0.439375
O O2 0.220532 0.204400 0.407235
O O3 0.175661 0.176771 0.581631
O O4 0.388367 0.171115 0.517169
O O5 0.251153 0.963357 0.647986
O O6 0.148399 0.946021 0.453945
O O7 0.046408 0.935835 0.626754
O O8 0.134146 0.250000 0.250000
O O9 0.037511 0.238033 0.085193
O O10 0.026989 0.318443 0.164709
O O11 0.360225 0.973060 0.232560
O O12 0.384348 0.885166 0.200936
O O13 0.847094 0.791473 0.759403
#
# Coordination Sequence:
#
# PCOD9328171 Si02
#       8
#    16  16  16   8  16  16   8   4
#     4  11  24  46  66  98 146 192 245 293 356 431
#     4  10  23  45  74  98 136 191 236 295 373 448
#     4  12  24  41  70 101 139 192 250 293 348 424
#     4  12  23  40  70 111 131 164 238 311 362 444
#     4  10  22  45  73 100 134 187 242 296 371 450
#     4  11  21  40  68  99 135 188 239 301 353 429
#     4  12  26  42  66 102 149 197 238 296 356 414
#     4  12  22  32  64 112 148 176 248 314 366 408
#
# _framework density 22.277508999999998
#
# number of rings (size 3 to 8) (size 9 to 14) (size 15 to 20)
#    0.000    0.960    4.000    2.880    0.000    3.840 
#    0.000    3.200    0.000    3.840    0.000    0.000 
#    0.000    0.000    0.000    0.000    0.000    0.000 
#
# Total GULP energy -139398.606372 kJ/mol
# GULP energy per Si atom -5575.944255 kJ/mol
# Density = 2.222680 g / cm^3
# Si number density = 22.277509 Si / 1000 Ang^3
#
#
#
# Elastic Constant Matrix: (Units=GPa)
#
#
# Indices 1 2 3 4 5 6 
#
# 1 135.4593 53.3213 51.7500 0.0000 0.0000 0.0000
# 2 53.3213 122.0157 67.4588 0.0000 0.0000 0.0000
# 3 51.7500 67.4588 75.8078 0.0000 0.0000 0.0000
# 4 0.0000 0.0000 0.0000 31.9225 0.0000 0.0000
# 5 0.0000 0.0000 0.0000 0.0000 30.1373 0.0000
# 6 0.0000 0.0000 0.0000 0.0000 0.0000 36.2269
#
#
#
# Elastic Compliance Matrix: (Units=1/GPa)
#
#
# Indices 1 2 3 4 5 6 
#
# 1 0.010073 -0.001181 -0.005825 0.000000 0.000000 0.000000
# 2 -0.001181 0.016271 -0.013673 0.000000 0.000000 0.000000
# 3 -0.005825 -0.013673 0.029334 0.000000 0.000000 0.000000
# 4 0.000000 0.000000 0.000000 0.031326 0.000000 0.000000
# 5 0.000000 0.000000 0.000000 0.000000 0.033181 0.000000
# 6 0.000000 0.000000 0.000000 0.000000 0.000000 0.027604
#
#
# Mechanical properties :
#
#
# Convention : Reuss Voigt Hill
#
# Bulk Modulus (GPa) = 69.83013 75.37144 72.60079
# Shear Modulus (GPa) = 25.78381 30.37419 28.07900
#
# Velocity S-wave (km/s) = 3.40574 3.69649 3.55409
# Velocity P-wave (km/s) = 6.84683 7.21978 7.03577
#
# Compressibility (1/GPa) = 0.01432046
#
# Stress axis : x y z
#
# Youngs Moduli (GPa) = 99.27949 61.45837 34.08983
#
# Poissons Ratio (x) = 0.07261 0.19856
# Poissons Ratio (y) = 0.11730 0.46610
# Poissons Ratio (z) = 0.57827 0.84030
#
# Static dielectric constant tensor:
#      x y z
#    x 1.878450 0.000000 0.000000 
#    y 0.000000 1.850900 0.000000 
#    z 0.000000 0.000000 1.818070 
# 
# From -- ./inp_files/28437.got.cif
#   From: 2010.05.17/outbox.cif.g08.bks.cpg/sg22_15_cif.got.tgz:28437.got - 2010.06.03 23:40:54.
