data_PCOD9328088
_publ_section_title
;
Structure prediction by ZEFSAII (Michael W. Deem and Ramdas Pophale) SiO2 
 PCOD9328088
Probable space group: F 2 2 2
;
_chemical_formula_sum "Si O2"
_cell_formula_units_Z 112
_cell_length_a 14.136777
_cell_length_b 29.033502
_cell_length_c 12.519107
_cell_angle_alpha 90.000000
_cell_angle_beta 90.000000
_cell_angle_gamma 90.000000
_cell_volume 5138.344071
_symmetry_space_group_name_H-M "F 2 2 2"
_symmetry_group_IT_number 22
_symmetry_cell_setting 'orthorhombic'
loop_
_space_group_symop_operation_xyz
x,y,z
-x,-y,z
x,-y,-z
-x,y,-z
x,1/2+y,1/2+z
-x,1/2-y,1/2+z
x,1/2-y,1/2-z
-x,1/2+y,1/2-z
1/2+x,y,1/2+z
1/2-x,-y,1/2+z
1/2+x,-y,1/2-z
1/2-x,y,1/2-z
1/2+x,1/2+y,z
1/2-x,1/2-y,z
1/2+x,1/2-y,-z
1/2-x,1/2+y,-z
loop_
_atom_site_type_symbol
_atom_site_label
_atom_site_fract_x
_atom_site_fract_y
_atom_site_fract_z
Si Si1 0.605333 0.992530 0.812827
Si Si2 0.589477 0.641504 0.928876
Si Si3 0.694674 0.832182 0.978101
Si Si4 0.658750 0.700935 0.306534
Si Si5 0.656532 0.565095 0.489427
Si Si6 0.138574 0.038534 0.919221
Si Si7 0.440572 0.696217 0.284083
O O1 0.655892 0.978957 0.702007
O O2 0.500000 0.000000 0.772484
O O3 0.638143 0.037343 0.880137
O O4 0.599250 0.954331 0.907820
O O5 0.694042 0.656097 0.968198
O O6 0.582673 0.586360 0.915900
O O7 0.585101 0.664890 0.815085
O O8 0.500000 0.657176 0.000000
O O9 0.635171 0.815185 0.876461
O O10 0.683827 0.795099 0.070227
O O11 0.648331 0.880364 0.017707
O O12 0.652933 0.750000 0.250000
O O13 0.750000 0.676162 0.250000
O O14 0.550654 0.683492 0.305818
O O15 0.761902 0.552461 0.527433
O O16 0.100556 0.000000 0.000000
O O17 0.434867 0.750000 0.250000
#
# Coordination Sequence:
#
# PCOD9328088 Si02
#       7
#    16  16  16  16  16  16  16
#     4  11  23  38  64  93 129 170 228 283 342 419
#     4  11  26  45  69 102 143 182 242 299 360 437
#     4  11  24  45  68  99 139 184 235 291 358 426
#     4  10  23  44  69 100 138 183 231 289 360 421
#     4  10  22  43  65  94 127 182 230 283 344 414
#     4  11  24  43  67  95 137 183 229 288 363 422
#     4  11  25  44  73 107 137 186 237 293 365 432
#
# _framework density 21.796904999999999
#
# number of rings (size 3 to 8) (size 9 to 14) (size 15 to 20)
#    0.000    1.286    1.429    3.857    2.000   11.429 
#    5.143    0.000    0.000    0.000    0.000    0.000 
#    0.000    0.000    0.000    0.000    0.000    0.000 
#
# Total GULP energy -156215.550872 kJ/mol
# GULP energy per Si atom -5579.126817 kJ/mol
# Density = 2.174729 g / cm^3
# Si number density = 21.796905 Si / 1000 Ang^3
#
#
#
# Elastic Constant Matrix: (Units=GPa)
#
#
# Indices 1 2 3 4 5 6 
#
# 1 82.7047 20.7902 35.9799 0.0000 0.0000 0.0000
# 2 20.7902 101.6370 55.4264 0.0000 0.0000 0.0000
# 3 35.9799 55.4264 174.3718 0.0000 0.0000 0.0000
# 4 0.0000 0.0000 0.0000 17.8590 0.0000 0.0000
# 5 0.0000 0.0000 0.0000 0.0000 38.3779 0.0000
# 6 0.0000 0.0000 0.0000 0.0000 0.0000 27.4492
#
#
#
# Elastic Compliance Matrix: (Units=1/GPa)
#
#
# Indices 1 2 3 4 5 6 
#
# 1 0.013470 -0.001500 -0.002303 0.000000 0.000000 0.000000
# 2 -0.001500 0.012069 -0.003527 0.000000 0.000000 0.000000
# 3 -0.002303 -0.003527 0.007331 0.000000 0.000000 0.000000
# 4 0.000000 0.000000 0.000000 0.055994 0.000000 0.000000
# 5 0.000000 0.000000 0.000000 0.000000 0.026057 0.000000
# 6 0.000000 0.000000 0.000000 0.000000 0.000000 0.036431
#
#
# Mechanical properties :
#
#
# Convention : Reuss Voigt Hill
#
# Bulk Modulus (GPa) = 54.90975 64.78961 59.84968
# Shear Modulus (GPa) = 29.05615 33.17170 31.11393
#
# Velocity S-wave (km/s) = 3.65504 3.90533 3.78226
# Velocity P-wave (km/s) = 6.56191 7.07984 6.82579
#
# Compressibility (1/GPa) = 0.01821170
#
# Stress axis : x y z
#
# Youngs Moduli (GPa) = 74.23934 82.85684 136.40550
#
# Poissons Ratio (x) = 0.12425 0.31411
# Poissons Ratio (y) = 0.11133 0.48109
# Poissons Ratio (z) = 0.17095 0.29223
#
# Static dielectric constant tensor:
#      x y z
#    x 2.278950 0.000000 0.000000 
#    y 0.000000 1.823470 0.000000 
#    z 0.000000 0.000000 1.752940 
# 
# From -- ./inp_files/20300.got.cif
#   From: 2010.05.17/outbox.cif.g08.bks.cpg/sg22_11_cif.got.tgz:20300.got - 2010.06.03 23:40:54.
