data_PCOD9328086
_publ_section_title
;
Structure prediction by ZEFSAII (Michael W. Deem and Ramdas Pophale) SiO2 
 PCOD9328086
Probable space group: F 2 2 2
;
_chemical_formula_sum "Si O2"
_cell_formula_units_Z 72
_cell_length_a 16.039160
_cell_length_b 17.152704
_cell_length_c 10.888917
_cell_angle_alpha 90.000000
_cell_angle_beta 90.000000
_cell_angle_gamma 90.000000
_cell_volume 2995.704007
_symmetry_space_group_name_H-M "F 2 2 2"
_symmetry_group_IT_number 22
_symmetry_cell_setting 'orthorhombic'
loop_
_space_group_symop_operation_xyz
x,y,z
-x,-y,z
x,-y,-z
-x,y,-z
x,1/2+y,1/2+z
-x,1/2-y,1/2+z
x,1/2-y,1/2-z
-x,1/2+y,1/2-z
1/2+x,y,1/2+z
1/2-x,-y,1/2+z
1/2+x,-y,1/2-z
1/2-x,y,1/2-z
1/2+x,1/2+y,z
1/2-x,1/2-y,z
1/2+x,1/2-y,-z
1/2-x,1/2+y,-z
loop_
_atom_site_type_symbol
_atom_site_label
_atom_site_fract_x
_atom_site_fract_y
_atom_site_fract_z
Si Si1 0.906434 0.992758 0.224461
Si Si2 0.420757 0.768422 0.436476
Si Si3 0.280763 0.000000 0.500000
Si Si4 0.071665 0.328350 0.312334
Si Si5 0.315211 0.376847 0.636369
O O1 0.905201 0.902850 0.265951
O O2 0.883674 0.059433 0.319942
O O3 0.838247 0.996325 0.118912
O O4 0.000000 0.000000 0.173684
O O5 0.500000 0.723796 0.500000
O O6 0.470931 0.817584 0.333682
O O7 0.395452 0.826820 0.546575
O O8 0.353167 0.707031 0.395993
O O9 0.227407 0.921897 0.477053
O O10 0.102281 0.250000 0.250000
O O11 0.250000 0.367563 0.750000
#
# Coordination Sequence:
#
# PCOD9328086 Si02
#       5
#    16  16   8  16  16
#     4  11  23  39  73  94 124 176 229 272 314 395
#     4   8  21  38  66  95 135 168 219 274 324 393
#     4  10  25  38  65  92 146 160 222 266 343 384
#     4   9  20  38  65  98 129 160 228 275 323 373
#     4  10  22  43  65 100 132 178 215 274 336 397
#
# _framework density 24.034416
#
# number of rings (size 3 to 8) (size 9 to 14) (size 15 to 20)
#    1.333    0.889    0.000    1.667    9.333    0.000 
#    0.000    1.111    4.889    0.000    0.000    0.000 
#    0.000    0.000    0.000    0.000    0.000    0.000 
#
# Total GULP energy -100441.653460 kJ/mol
# GULP energy per Si atom -5580.091859 kJ/mol
# Density = 2.397971 g / cm^3
# Si number density = 24.034416 Si / 1000 Ang^3
#
#
#
# Elastic Constant Matrix: (Units=GPa)
#
#
# Indices 1 2 3 4 5 6 
#
# 1 93.3444 46.3801 24.4653 0.0000 0.0000 0.0000
# 2 46.3801 117.6301 1.8644 0.0000 0.0000 0.0000
# 3 24.4653 1.8644 32.9954 0.0000 0.0000 0.0000
# 4 0.0000 0.0000 0.0000 31.6609 0.0000 0.0000
# 5 0.0000 0.0000 0.0000 0.0000 29.5607 0.0000
# 6 0.0000 0.0000 0.0000 0.0000 0.0000 49.8402
#
#
#
# Elastic Compliance Matrix: (Units=1/GPa)
#
#
# Indices 1 2 3 4 5 6 
#
# 1 0.017249 -0.006604 -0.012416 0.000000 0.000000 0.000000
# 2 -0.006604 0.011037 0.004273 0.000000 0.000000 0.000000
# 3 -0.012416 0.004273 0.039272 0.000000 0.000000 0.000000
# 4 0.000000 0.000000 0.000000 0.031585 0.000000 0.000000
# 5 0.000000 0.000000 0.000000 0.000000 0.033829 0.000000
# 6 0.000000 0.000000 0.000000 0.000000 0.000000 0.020064
#
#
# Mechanical properties :
#
#
# Convention : Reuss Voigt Hill
#
# Bulk Modulus (GPa) = 26.27174 43.26551 34.76863
# Shear Modulus (GPa) = 25.61231 33.62969 29.62100
#
# Velocity S-wave (km/s) = 3.26797 3.74469 3.51442
# Velocity P-wave (km/s) = 5.01938 6.06114 5.56469
#
# Compressibility (1/GPa) = 0.03806371
#
# Stress axis : x y z
#
# Youngs Moduli (GPa) = 57.97524 90.60071 25.46324
#
# Poissons Ratio (x) = 0.59834 0.31616
# Poissons Ratio (y) = 0.38288 -0.10881
# Poissons Ratio (z) = 0.71984 -0.38715
#
# Static dielectric constant tensor:
#      x y z
#    x 1.998220 0.000000 0.000000 
#    y 0.000000 1.929300 0.000000 
#    z 0.000000 0.000000 1.977150 
# 
# From -- ./inp_files/21095.got.cif
#   From: 2010.05.17/outbox.cif.g08.bks.cpg/sg22_11_cif.got.tgz:21095.got - 2010.06.03 23:40:54.
