data_PCOD9328757
_publ_section_title
;
Structure prediction by ZEFSAII (Michael W. Deem and Ramdas Pophale) SiO2 
 PCOD9328757
Probable space group: F 2 2 2
;
_chemical_formula_sum "Si O2"
_cell_formula_units_Z 104
_cell_length_a 8.923994
_cell_length_b 25.257079
_cell_length_c 23.693798
_cell_angle_alpha 90.000000
_cell_angle_beta 90.000000
_cell_angle_gamma 90.000000
_cell_volume 5340.440415
_symmetry_space_group_name_H-M "F 2 2 2"
_symmetry_group_IT_number 22
_symmetry_cell_setting 'orthorhombic'
loop_
_space_group_symop_operation_xyz
x,y,z
-x,-y,z
x,-y,-z
-x,y,-z
x,1/2+y,1/2+z
-x,1/2-y,1/2+z
x,1/2-y,1/2-z
-x,1/2+y,1/2-z
1/2+x,y,1/2+z
1/2-x,-y,1/2+z
1/2+x,-y,1/2-z
1/2-x,y,1/2-z
1/2+x,1/2+y,z
1/2-x,1/2-y,z
1/2+x,1/2-y,-z
1/2-x,1/2+y,-z
loop_
_atom_site_type_symbol
_atom_site_label
_atom_site_fract_x
_atom_site_fract_y
_atom_site_fract_z
Si Si1 0.916958 0.189822 0.272577
Si Si2 0.016914 0.371393 0.564268
Si Si3 0.750000 0.633520 0.250000
Si Si4 0.793694 0.191108 0.398527
Si Si5 0.304470 0.521135 0.064296
Si Si6 0.237292 0.915954 0.870553
Si Si7 0.538227 0.404463 0.436779
O O1 0.926021 0.250000 0.250000
O O2 0.750000 0.168493 0.250000
O O3 0.883163 0.191535 0.339581
O O4 0.083943 0.163784 0.258940
O O5 0.135484 0.339577 0.601646
O O6 0.073997 0.432166 0.560676
O O7 0.000000 0.351656 0.500000
O O8 0.860873 0.373153 0.595685
O O9 0.770932 0.597539 0.305268
O O10 0.750000 0.250000 0.416169
O O11 0.892378 0.154191 0.438964
O O12 0.317706 0.473705 0.108806
O O13 0.159582 0.553559 0.082930
O O14 0.289579 0.500000 0.000000
O O15 0.401993 0.908725 0.894815
O O16 0.500000 0.420344 0.500000
#
# Coordination Sequence:
#
# PCOD9328757 Si02
#       7
#    16  16   8  16  16  16  16
#     4  11  22  44  74  95 128 187 244 291 335 413
#     4  11  23  41  69 102 134 176 230 284 346 417
#     4  12  27  44  66 106 146 178 237 292 358 422
#     4  11  23  43  66  96 133 177 224 281 358 408
#     4  11  21  39  69  98 129 176 234 276 332 415
#     4  12  23  39  65 101 139 169 224 289 338 409
#     4  11  22  40  66  99 132 175 225 280 340 415
#
# _framework density 19.474049000000001
#
# number of rings (size 3 to 8) (size 9 to 14) (size 15 to 20)
#    0.000    0.769    6.154    3.000    0.000    0.615 
#    0.000    3.846    3.385    0.000    0.000    0.000 
#    0.000    0.000    0.000    0.000    0.000    0.000 
#
# Total GULP energy -144800.560581 kJ/mol
# GULP energy per Si atom -5569.252330 kJ/mol
# Density = 1.942973 g / cm^3
# Si number density = 19.474049 Si / 1000 Ang^3
#
#
#
# Elastic Constant Matrix: (Units=GPa)
#
#
# Indices 1 2 3 4 5 6 
#
# 1 123.6652 28.6959 27.3865 0.0000 0.0000 0.0000
# 2 28.6959 90.2952 21.5432 0.0000 0.0000 0.0000
# 3 27.3865 21.5432 99.7473 0.0000 0.0000 0.0000
# 4 0.0000 0.0000 0.0000 20.7711 0.0000 0.0000
# 5 0.0000 0.0000 0.0000 0.0000 27.2048 0.0000
# 6 0.0000 0.0000 0.0000 0.0000 0.0000 12.6263
#
#
#
# Elastic Compliance Matrix: (Units=1/GPa)
#
#
# Indices 1 2 3 4 5 6 
#
# 1 0.009084 -0.002416 -0.001972 0.000000 0.000000 0.000000
# 2 -0.002416 0.012319 -0.001997 0.000000 0.000000 0.000000
# 3 -0.001972 -0.001997 0.010998 0.000000 0.000000 0.000000
# 4 0.000000 0.000000 0.000000 0.048144 0.000000 0.000000
# 5 0.000000 0.000000 0.000000 0.000000 0.036758 0.000000
# 6 0.000000 0.000000 0.000000 0.000000 0.000000 0.079200
#
#
# Mechanical properties :
#
#
# Convention : Reuss Voigt Hill
#
# Bulk Modulus (GPa) = 50.94316 52.10653 51.52485
# Shear Modulus (GPa) = 23.16771 27.85924 25.51347
#
# Velocity S-wave (km/s) = 3.45290 3.78641 3.62349
# Velocity P-wave (km/s) = 6.48945 6.77723 6.63490
#
# Compressibility (1/GPa) = 0.01962972
#
# Stress axis : x y z
#
# Youngs Moduli (GPa) = 110.08621 81.17405 90.92415
#
# Poissons Ratio (x) = 0.19614 0.17932
# Poissons Ratio (y) = 0.26600 0.18160
# Poissons Ratio (z) = 0.21711 0.16213
#
# Static dielectric constant tensor:
#      x y z
#    x 1.816430 0.000000 0.000000 
#    y 0.000000 1.690900 0.000000 
#    z 0.000000 0.000000 1.561700 
# 
# From -- ./inp_files/42019.got.cif
#   From: 2010.05.17/outbox.cif.g08.bks.cpg/sg22_22_cif.got.tgz:42019.got - 2010.06.03 23:40:54.
