data_PCOD9328488
_publ_section_title
;
Structure prediction by ZEFSAII (Michael W. Deem and Ramdas Pophale) SiO2 
 PCOD9328488
Probable space group: F 2 2 2
;
_chemical_formula_sum "Si O2"
_cell_formula_units_Z 120
_cell_length_a 21.658358
_cell_length_b 21.420250
_cell_length_c 12.564501
_cell_angle_alpha 90.000000
_cell_angle_beta 90.000000
_cell_angle_gamma 90.000000
_cell_volume 5829.016821
_symmetry_space_group_name_H-M "F 2 2 2"
_symmetry_group_IT_number 22
_symmetry_cell_setting 'orthorhombic'
loop_
_space_group_symop_operation_xyz
x,y,z
-x,-y,z
x,-y,-z
-x,y,-z
x,1/2+y,1/2+z
-x,1/2-y,1/2+z
x,1/2-y,1/2-z
-x,1/2+y,1/2-z
1/2+x,y,1/2+z
1/2-x,-y,1/2+z
1/2+x,-y,1/2-z
1/2-x,y,1/2-z
1/2+x,1/2+y,z
1/2-x,1/2-y,z
1/2+x,1/2-y,-z
1/2-x,1/2+y,-z
loop_
_atom_site_type_symbol
_atom_site_label
_atom_site_fract_x
_atom_site_fract_y
_atom_site_fract_z
Si Si1 0.056435 0.067170 0.188665
Si Si2 0.558274 0.405393 0.575477
Si Si3 0.116455 0.776753 0.630509
Si Si4 0.158656 0.500000 0.000000
Si Si5 0.581816 0.074114 0.348105
Si Si6 0.271894 0.682120 0.499913
Si Si7 0.863291 0.145806 0.951232
Si Si8 0.309969 0.414422 0.675586
O O1 0.050745 0.058544 0.314091
O O2 0.110888 0.112766 0.154073
O O3 0.989736 0.095230 0.158418
O O4 0.072766 0.000300 0.139067
O O5 0.500000 0.411605 0.500000
O O6 0.570190 0.333107 0.604895
O O7 0.615687 0.440358 0.522421
O O8 0.113270 0.750000 0.750000
O O9 0.182953 0.805460 0.599031
O O10 0.111392 0.716582 0.553654
O O11 0.194533 0.477500 0.895660
O O12 0.611474 0.107622 0.448799
O O13 0.627338 0.085345 0.246888
O O14 0.250000 0.750000 0.459308
O O15 0.210299 0.647813 0.539376
O O16 0.304333 0.643677 0.405922
O O17 0.250000 0.411150 0.750000
#
# Coordination Sequence:
#
# PCOD9328488 Si02
#       8
#    16  16  16   8  16  16  16  16
#     4  11  24  43  70 102 140 189 232 303 371 436
#     4  12  25  44  73 101 141 187 238 301 365 445
#     4  11  24  48  70 106 143 185 244 300 361 434
#     4  12  25  46  70 106 138 183 246 302 372 430
#     4  11  24  43  69 106 139 188 236 299 373 432
#     4  10  24  44  70 100 135 193 233 296 360 436
#     4  11  23  44  69  97 145 184 243 289 356 445
#     4  12  24  45  70 104 144 182 244 304 365 447
#
# _framework density 20.586662
#
# number of rings (size 3 to 8) (size 9 to 14) (size 15 to 20)
#    0.000    0.800    5.333    1.800    1.867    5.867 
#    0.000    0.000    0.000    0.000    0.000    0.000 
#    0.000    0.000    0.000    0.000    0.000    0.000 
#
# Total GULP energy -167529.044146 kJ/mol
# GULP energy per Si atom -5584.301472 kJ/mol
# Density = 2.053981 g / cm^3
# Si number density = 20.586662 Si / 1000 Ang^3
#
#
#
# Elastic Constant Matrix: (Units=GPa)
#
#
# Indices 1 2 3 4 5 6 
#
# 1 79.6799 33.4181 35.0115 0.0000 0.0000 0.0000
# 2 33.4181 87.7102 38.9096 0.0000 0.0000 0.0000
# 3 35.0115 38.9096 102.2673 0.0000 0.0000 0.0000
# 4 0.0000 0.0000 0.0000 41.3829 0.0000 0.0000
# 5 0.0000 0.0000 0.0000 0.0000 32.6645 0.0000
# 6 0.0000 0.0000 0.0000 0.0000 0.0000 33.2031
#
#
#
# Elastic Compliance Matrix: (Units=1/GPa)
#
#
# Indices 1 2 3 4 5 6 
#
# 1 0.016089 -0.004435 -0.003821 0.000000 0.000000 0.000000
# 2 -0.004435 0.014939 -0.004165 0.000000 0.000000 0.000000
# 3 -0.003821 -0.004165 0.012671 0.000000 0.000000 0.000000
# 4 0.000000 0.000000 0.000000 0.024165 0.000000 0.000000
# 5 0.000000 0.000000 0.000000 0.000000 0.030614 0.000000
# 6 0.000000 0.000000 0.000000 0.000000 0.000000 0.030118
#
#
# Mechanical properties :
#
#
# Convention : Reuss Voigt Hill
#
# Bulk Modulus (GPa) = 53.03178 53.81509 53.42343
# Shear Modulus (GPa) = 31.30404 32.27130 31.78767
#
# Velocity S-wave (km/s) = 3.90372 3.96357 3.93375
# Velocity P-wave (km/s) = 6.79226 6.86615 6.82931
#
# Compressibility (1/GPa) = 0.01885662
#
# Stress axis : x y z
#
# Youngs Moduli (GPa) = 62.15361 66.93966 78.91944
#
# Poissons Ratio (x) = 0.29689 0.30153
# Poissons Ratio (y) = 0.27566 0.32873
# Poissons Ratio (z) = 0.23747 0.27883
#
# Static dielectric constant tensor:
#      x y z
#    x 1.758470 0.000000 0.000000 
#    y 0.000000 1.745050 0.000000 
#    z 0.000000 0.000000 1.764540 
# 
# From -- ./inp_files/23011.got.cif
#   From: 2010.05.17/outbox.cif.g08.bks.cpg/sg22_12_cif.got.tgz:23011.got - 2010.06.03 23:40:54.
