data_PCOD9328579
_publ_section_title
;
Structure prediction by ZEFSAII (Michael W. Deem and Ramdas Pophale) SiO2 
 PCOD9328579
Probable space group: F 2 2 2
;
_chemical_formula_sum "Si O2"
_cell_formula_units_Z 56
_cell_length_a 12.632531
_cell_length_b 13.939004
_cell_length_c 13.458027
_cell_angle_alpha 90.000000
_cell_angle_beta 90.000000
_cell_angle_gamma 90.000000
_cell_volume 2369.755340
_symmetry_space_group_name_H-M "F 2 2 2"
_symmetry_group_IT_number 22
_symmetry_cell_setting 'orthorhombic'
loop_
_space_group_symop_operation_xyz
x,y,z
-x,-y,z
x,-y,-z
-x,y,-z
x,1/2+y,1/2+z
-x,1/2-y,1/2+z
x,1/2-y,1/2-z
-x,1/2+y,1/2-z
1/2+x,y,1/2+z
1/2-x,-y,1/2+z
1/2+x,-y,1/2-z
1/2-x,y,1/2-z
1/2+x,1/2+y,z
1/2-x,1/2-y,z
1/2+x,1/2-y,-z
1/2-x,1/2+y,-z
loop_
_atom_site_type_symbol
_atom_site_label
_atom_site_fract_x
_atom_site_fract_y
_atom_site_fract_z
Si Si1 0.678088 0.156698 0.927737
Si Si2 0.806599 0.940238 0.614885
Si Si3 0.081067 0.916032 0.173922
Si Si4 0.552618 0.750000 0.250000
O O1 0.750000 0.250000 0.945612
O O2 0.616629 0.185647 0.827986
O O3 0.725001 0.051787 0.901463
O O4 0.628178 0.120047 0.032385
O O5 0.873163 0.938511 0.715738
O O6 0.689477 0.895263 0.616029
O O7 0.015627 0.819653 0.182203
O O8 0.000000 0.000000 0.141639
#
# Coordination Sequence:
#
# PCOD9328579 Si02
#       4
#    16  16  16   8
#     4  11  24  45  72 105 144 201 247 307 369 452
#     4  10  25  46  70 105 157 192 245 319 384 434
#     4  11  23  45  72 107 145 199 246 312 376 451
#     4  12  25  41  76 104 140 190 260 300 366 448
#
# _framework density 23.631129999999999
#
# number of rings (size 3 to 8) (size 9 to 14) (size 15 to 20)
#    0.000    1.143    2.857    2.143    8.000    2.286 
#    0.000    8.571    0.000    0.000    0.000    0.000 
#    0.000    0.000    0.000    0.000    0.000    0.000 
#
# Total GULP energy -78024.361850 kJ/mol
# GULP energy per Si atom -5573.168704 kJ/mol
# Density = 2.357734 g / cm^3
# Si number density = 23.631130 Si / 1000 Ang^3
#
#
#
# Elastic Constant Matrix: (Units=GPa)
#
#
# Indices 1 2 3 4 5 6 
#
# 1 71.6007 29.0669 24.8713 0.0000 0.0000 0.0000
# 2 29.0669 129.7646 18.6567 0.0000 0.0000 0.0000
# 3 24.8713 18.6567 79.7449 0.0000 0.0000 0.0000
# 4 0.0000 0.0000 0.0000 28.7536 0.0000 0.0000
# 5 0.0000 0.0000 0.0000 0.0000 12.6199 0.0000
# 6 0.0000 0.0000 0.0000 0.0000 0.0000 24.0516
#
#
#
# Elastic Compliance Matrix: (Units=1/GPa)
#
#
# Indices 1 2 3 4 5 6 
#
# 1 0.016797 -0.003114 -0.004510 0.000000 0.000000 0.000000
# 2 -0.003114 0.008552 -0.001030 0.000000 0.000000 0.000000
# 3 -0.004510 -0.001030 0.014188 0.000000 0.000000 0.000000
# 4 0.000000 0.000000 0.000000 0.034778 0.000000 0.000000
# 5 0.000000 0.000000 0.000000 0.000000 0.079240 0.000000
# 6 0.000000 0.000000 0.000000 0.000000 0.000000 0.041577
#
#
# Mechanical properties :
#
#
# Convention : Reuss Voigt Hill
#
# Bulk Modulus (GPa) = 44.98650 47.36667 46.17658
# Shear Modulus (GPa) = 22.74284 26.98605 24.86445
#
# Velocity S-wave (km/s) = 3.10564 3.38297 3.24727
# Velocity P-wave (km/s) = 5.65140 5.94534 5.80023
#
# Compressibility (1/GPa) = 0.02222889
#
# Stress axis : x y z
#
# Youngs Moduli (GPa) = 59.53370 116.93419 70.48445
#
# Poissons Ratio (x) = 0.36414 0.31790
# Poissons Ratio (y) = 0.18539 0.07256
# Poissons Ratio (z) = 0.26851 0.12038
#
# Static dielectric constant tensor:
#      x y z
#    x 1.927050 0.000000 0.000000 
#    y 0.000000 1.843640 0.000000 
#    z 0.000000 0.000000 2.060110 
# 
# From -- ./inp_files/27605.got.cif
#   From: 2010.05.17/outbox.cif.g08.bks.cpg/sg22_14_cif.got.tgz:27605.got - 2010.06.03 23:40:54.
