data_PCOD9328080
_publ_section_title
;
Structure prediction by ZEFSAII (Michael W. Deem and Ramdas Pophale) SiO2 
 PCOD9328080
Probable space group: F 2 2 2
;
_chemical_formula_sum "Si O2"
_cell_formula_units_Z 100
_cell_length_a 23.691121
_cell_length_b 27.391207
_cell_length_c 8.358254
_cell_angle_alpha 90.000000
_cell_angle_beta 90.000000
_cell_angle_gamma 90.000000
_cell_volume 5423.908390
_symmetry_space_group_name_H-M "F 2 2 2"
_symmetry_group_IT_number 22
_symmetry_cell_setting 'orthorhombic'
loop_
_space_group_symop_operation_xyz
x,y,z
-x,-y,z
x,-y,-z
-x,y,-z
x,1/2+y,1/2+z
-x,1/2-y,1/2+z
x,1/2-y,1/2-z
-x,1/2+y,1/2-z
1/2+x,y,1/2+z
1/2-x,-y,1/2+z
1/2+x,-y,1/2-z
1/2-x,y,1/2-z
1/2+x,1/2+y,z
1/2-x,1/2-y,z
1/2+x,1/2-y,-z
1/2-x,1/2+y,-z
loop_
_atom_site_type_symbol
_atom_site_label
_atom_site_fract_x
_atom_site_fract_y
_atom_site_fract_z
Si Si1 0.105863 0.954720 0.885881
Si Si2 0.512561 0.401176 0.687192
Si Si3 0.311672 0.983343 0.181839
Si Si4 0.886676 0.397529 0.308919
Si Si5 0.448621 0.706850 0.622450
Si Si6 0.359687 0.704426 0.349451
Si Si7 0.750000 0.750000 0.750000
O O1 0.057005 0.937599 0.766879
O O2 0.158922 0.974463 0.786936
O O3 0.122685 0.911357 0.006394
O O4 0.087608 0.000000 0.000000
O O5 0.500000 0.411198 0.500000
O O6 0.453019 0.403583 0.776306
O O7 0.536333 0.345873 0.697210
O O8 0.250000 0.972441 0.250000
O O9 0.351706 0.936537 0.205103
O O10 0.308384 0.000000 0.000000
O O11 0.869055 0.344125 0.252718
O O12 0.500000 0.717762 0.500000
O O13 0.443525 0.750000 0.750000
O O14 0.392306 0.700949 0.515881
O O15 0.385179 0.750000 0.250000
O O16 0.293218 0.717624 0.354617
#
# Coordination Sequence:
#
# PCOD9328080 Si02
#       7
#    16  16  16  16  16  16   4
#     4  10  24  42  61  94 124 171 216 267 327 388
#     4  11  22  38  60  96 131 165 206 262 336 393
#     4  11  24  43  66  90 123 165 221 273 322 386
#     4  11  22  39  64  90 129 164 212 265 321 393
#     4  11  23  38  65  99 134 171 217 271 338 399
#     4  10  22  43  62  97 127 176 219 261 329 388
#     4   8  24  40  70  84 136 172 230 258 324 384
#
# _framework density 18.436889000000001
#
# number of rings (size 3 to 8) (size 9 to 14) (size 15 to 20)
#    0.480    0.960    3.200    3.360    3.360    4.480 
#    0.000    4.400    0.000    0.000    0.000    0.000 
#    0.000    0.000    0.000    0.000    0.000    0.000 
#
# Total GULP energy -139565.653599 kJ/mol
# GULP energy per Si atom -5582.626144 kJ/mol
# Density = 1.839493 g / cm^3
# Si number density = 18.436889 Si / 1000 Ang^3
#
#
#
# Elastic Constant Matrix: (Units=GPa)
#
#
# Indices 1 2 3 4 5 6 
#
# 1 105.6520 36.9575 12.6291 -0.0017 0.0021 -0.0111
# 2 36.9575 80.0924 49.6211 0.0007 -0.0016 -0.0032
# 3 12.6291 49.6211 79.1046 -0.0085 0.0121 0.0199
# 4 -0.0017 0.0007 -0.0085 33.4099 0.0060 0.0168
# 5 0.0021 -0.0016 0.0121 0.0060 29.3229 -0.0319
# 6 -0.0111 -0.0032 0.0199 0.0168 -0.0319 17.5404
#
#
#
# Elastic Compliance Matrix: (Units=1/GPa)
#
#
# Indices 1 2 3 4 5 6 
#
# 1 0.011572 -0.006862 0.002457 0.000001 -0.000002 0.000003
# 2 -0.006862 0.024491 -0.014268 -0.000004 0.000008 0.000016
# 3 0.002457 -0.014268 0.021199 0.000006 -0.000010 -0.000025
# 4 0.000001 -0.000004 0.000006 0.029931 -0.000006 -0.000029
# 5 -0.000002 0.000008 -0.000010 -0.000006 0.034103 0.000062
# 6 0.000003 0.000016 -0.000025 -0.000029 0.000062 0.057011
#
#
# Mechanical properties :
#
#
# Convention : Reuss Voigt Hill
#
# Bulk Modulus (GPa) = 50.20800 51.47383 50.84091
# Shear Modulus (GPa) = 22.49299 27.09740 24.79519
#
# Velocity S-wave (km/s) = 3.49664 3.83788 3.67122
# Velocity P-wave (km/s) = 6.60253 6.90062 6.75322
#
# Compressibility (1/GPa) = 0.01991714
#
# Stress axis : x y z
#
# Youngs Moduli (GPa) = 86.41847 40.83092 47.17183
#
# Poissons Ratio (x) = 0.28017 -0.11589
# Poissons Ratio (y) = 0.59297 0.67303
# Poissons Ratio (z) = -0.21231 0.58256
#
# Static dielectric constant tensor:
#      x y z
#    x 1.620550 0.000000 0.000030 
#    y 0.000000 1.639950 0.000060 
#    z 0.000030 0.000060 1.455450 
# 
# From -- ./inp_files/12955.got.cif
#   From: 2010.05.17/outbox.cif.g08.bks.cpg/sg22_7_cif.got.tgz:12955.got - 2010.06.03 23:40:54.
