data_PCOD9328426
_publ_section_title
;
Structure prediction by ZEFSAII (Michael W. Deem and Ramdas Pophale) SiO2 
 PCOD9328426
Probable space group: F 2 2 2
;
_chemical_formula_sum "Si O2"
_cell_formula_units_Z 72
_cell_length_a 10.792958
_cell_length_b 18.099307
_cell_length_c 18.414933
_cell_angle_alpha 90.000000
_cell_angle_beta 90.000000
_cell_angle_gamma 90.000000
_cell_volume 3597.266197
_symmetry_space_group_name_H-M "F 2 2 2"
_symmetry_group_IT_number 22
_symmetry_cell_setting 'orthorhombic'
loop_
_space_group_symop_operation_xyz
x,y,z
-x,-y,z
x,-y,-z
-x,y,-z
x,1/2+y,1/2+z
-x,1/2-y,1/2+z
x,1/2-y,1/2-z
-x,1/2+y,1/2-z
1/2+x,y,1/2+z
1/2-x,-y,1/2+z
1/2+x,-y,1/2-z
1/2-x,y,1/2-z
1/2+x,1/2+y,z
1/2-x,1/2-y,z
1/2+x,1/2-y,-z
1/2-x,1/2+y,-z
loop_
_atom_site_type_symbol
_atom_site_label
_atom_site_fract_x
_atom_site_fract_y
_atom_site_fract_z
Si Si1 0.143337 0.644683 0.002342
Si Si2 0.550765 0.250000 0.250000
Si Si3 0.696622 0.500000 0.000000
Si Si4 0.750000 0.250000 0.887880
Si Si5 0.750000 0.750000 0.873483
Si Si6 0.500000 0.000000 0.375450
Si Si7 0.376110 0.629408 0.785674
O O1 0.198705 0.684412 0.074619
O O2 0.222890 0.572321 0.984888
O O3 0.159199 0.705494 0.939970
O O4 0.000000 0.623982 0.000000
O O5 0.637378 0.269606 0.181232
O O6 0.464880 0.321501 0.265795
O O7 0.611708 0.518196 0.930459
O O8 0.675276 0.308758 0.840789
O O9 0.545546 0.932745 0.325833
O O10 0.250000 0.598506 0.750000
#
# Coordination Sequence:
#
# PCOD9328426 Si02
#       7
#    16   8   8   8   8   8  16
#     4  11  23  40  68  97 132 170 223 284 327 403
#     4  11  21  42  68  94 135 171 224 284 318 409
#     4  11  23  44  66  94 133 175 216 280 346 393
#     4  11  21  43  69  99 125 172 242 266 333 403
#     4  10  24  39  63 102 128 170 220 274 346 380
#     4  11  26  44  66  96 138 173 220 282 344 403
#     4  12  23  44  70  97 129 182 229 274 338 403
#
# _framework density 20.0152
#
# number of rings (size 3 to 8) (size 9 to 14) (size 15 to 20)
#    0.000    0.889    4.444    3.000    0.000    1.778 
#    8.000    0.000    0.000    0.000    0.000    0.000 
#    0.000    0.000    0.000    0.000    0.000    0.000 
#
# Total GULP energy -100538.266550 kJ/mol
# GULP energy per Si atom -5585.459253 kJ/mol
# Density = 1.996964 g / cm^3
# Si number density = 20.015200 Si / 1000 Ang^3
#
#
#
# Elastic Constant Matrix: (Units=GPa)
#
#
# Indices 1 2 3 4 5 6 
#
# 1 142.9582 56.6607 43.2097 0.0000 0.0000 0.0000
# 2 56.6607 105.1431 40.1910 0.0000 0.0000 0.0000
# 3 43.2097 40.1910 86.4027 0.0000 0.0000 0.0000
# 4 0.0000 0.0000 0.0000 28.4268 0.0000 0.0000
# 5 0.0000 0.0000 0.0000 0.0000 13.3267 0.0000
# 6 0.0000 0.0000 0.0000 0.0000 0.0000 36.4082
#
#
#
# Elastic Compliance Matrix: (Units=1/GPa)
#
#
# Indices 1 2 3 4 5 6 
#
# 1 0.009444 -0.003994 -0.002865 0.000000 0.000000 0.000000
# 2 -0.003994 0.013257 -0.004169 0.000000 0.000000 0.000000
# 3 -0.002865 -0.004169 0.014946 0.000000 0.000000 0.000000
# 4 0.000000 0.000000 0.000000 0.035178 0.000000 0.000000
# 5 0.000000 0.000000 0.000000 0.000000 0.075037 0.000000
# 6 0.000000 0.000000 0.000000 0.000000 0.000000 0.027466
#
#
# Mechanical properties :
#
#
# Convention : Reuss Voigt Hill
#
# Bulk Modulus (GPa) = 64.14292 68.29189 66.21740
# Shear Modulus (GPa) = 24.68139 28.59517 26.63828
#
# Velocity S-wave (km/s) = 3.51541 3.78388 3.65211
# Velocity P-wave (km/s) = 6.97095 7.29962 7.13718
#
# Compressibility (1/GPa) = 0.01559019
#
# Stress axis : x y z
#
# Youngs Moduli (GPa) = 105.88630 75.43231 66.90838
#
# Poissons Ratio (x) = 0.30129 0.19169
# Poissons Ratio (y) = 0.42293 0.27895
# Poissons Ratio (z) = 0.30337 0.31449
#
# Static dielectric constant tensor:
#      x y z
#    x 1.754330 0.000000 0.000000 
#    y 0.000000 1.712210 0.000000 
#    z 0.000000 0.000000 1.728400 
# 
# From -- ./inp_files/21172.got.cif
#   From: 2010.05.17/outbox.cif.g08.bks.cpg/sg22_11_cif.got.tgz:21172.got - 2010.06.03 23:40:54.
