data_PCOD9328591
_publ_section_title
;
Structure prediction by ZEFSAII (Michael W. Deem and Ramdas Pophale) SiO2 
 PCOD9328591
Probable space group: F 2 2 2
;
_chemical_formula_sum "Si O2"
_cell_formula_units_Z 36
_cell_length_a 34.759265
_cell_length_b 4.604213
_cell_length_c 9.074934
_cell_angle_alpha 90.000000
_cell_angle_beta 90.000000
_cell_angle_gamma 90.000000
_cell_volume 1452.343905
_symmetry_space_group_name_H-M "F 2 2 2"
_symmetry_group_IT_number 22
_symmetry_cell_setting 'orthorhombic'
loop_
_space_group_symop_operation_xyz
x,y,z
-x,-y,z
x,-y,-z
-x,y,-z
x,1/2+y,1/2+z
-x,1/2-y,1/2+z
x,1/2-y,1/2-z
-x,1/2+y,1/2-z
1/2+x,y,1/2+z
1/2-x,-y,1/2+z
1/2+x,-y,1/2-z
1/2-x,y,1/2-z
1/2+x,1/2+y,z
1/2-x,1/2-y,z
1/2+x,1/2-y,-z
1/2-x,1/2+y,-z
loop_
_atom_site_type_symbol
_atom_site_label
_atom_site_fract_x
_atom_site_fract_y
_atom_site_fract_z
Si Si1 0.195608 0.000000 0.500000
Si Si2 0.917351 0.000000 0.500000
Si Si3 0.750000 0.250000 0.250000
Si Si4 0.361603 0.500000 0.000000
Si Si5 0.028242 0.750000 0.750000
O O1 0.222135 0.916195 0.362762
O O2 0.168823 0.736990 0.559871
O O3 0.891234 0.262049 0.433261
O O4 0.944336 0.129457 0.624311
O O5 0.000000 0.500000 0.692736
#
# Coordination Sequence:
#
# PCOD9328591 Si02
#       5
#     8   8   4   8   8
#     4  11  27  48  79 112 151 199 252 311 375 448
#     4  11  25  48  74 110 150 197 248 309 368 446
#     4  12  28  52  78 114 152 196 252 314 376 444
#     4  10  25  48  76 108 150 198 250 304 374 444
#     4  12  26  46  77 110 150 195 250 307 374 440
#
# _framework density 24.787517999999999
#
# number of rings (size 3 to 8) (size 9 to 14) (size 15 to 20)
#    0.000    0.889    0.000    4.667    0.000   16.889 
#    0.000    0.000    0.000    0.000    0.000    0.000 
#    0.000    0.000    0.000    0.000    0.000    0.000 
#
# Total GULP energy -50252.155133 kJ/mol
# GULP energy per Si atom -5583.572793 kJ/mol
# Density = 2.473110 g / cm^3
# Si number density = 24.787518 Si / 1000 Ang^3
#
#
#
# Elastic Constant Matrix: (Units=GPa)
#
#
# Indices 1 2 3 4 5 6 
#
# 1 220.4975 121.3498 104.6322 0.0003 -0.0003 -0.0021
# 2 121.3498 200.1660 66.7585 0.0003 -0.0001 -0.0015
# 3 104.6322 66.7585 181.7213 0.0001 -0.0001 -0.0004
# 4 0.0003 0.0003 0.0001 34.4916 -0.0001 -0.0008
# 5 -0.0003 -0.0001 -0.0001 -0.0001 -6.1855 0.0005
# 6 -0.0021 -0.0015 -0.0004 -0.0008 0.0005 -90.0778
#
#
#
# Elastic Compliance Matrix: (Units=1/GPa)
#
#
# Indices 1 2 3 4 5 6 
#
# 1 0.008257 -0.003898 -0.003322 0.000000 0.000000 0.000000
# 2 -0.003898 0.007533 -0.000523 0.000000 0.000000 0.000000
# 3 -0.003322 -0.000523 0.007608 0.000000 0.000000 0.000000
# 4 0.000000 0.000000 0.000000 0.028993 -0.000001 0.000000
# 5 0.000000 0.000000 0.000000 -0.000001 -0.161668 -0.000001
# 6 0.000000 0.000000 0.000000 0.000000 -0.000001 -0.011102
#
#
# Mechanical properties :
#
#
# Convention : Reuss Voigt Hill
#
# Bulk Modulus (GPa) = 126.39358 131.98508 129.18933
# Shear Modulus (GPa) = -48.89696 8.28864 -20.30416
#
# Velocity S-wave (km/s) = -4.44626 1.83061 -2.86515
# Velocity P-wave (km/s) = 4.97418 7.60463 6.42545
#
# Compressibility (1/GPa) = 0.00791179
#
# Stress axis : x y z
#
# Youngs Moduli (GPa) = 121.11372 132.74441 131.43934
#
# Poissons Ratio (x) = 0.51738 0.43667
# Poissons Ratio (y) = 0.47205 0.06878
# Poissons Ratio (z) = 0.40237 0.06947
#
# Static dielectric constant tensor:
#      x y z
#    x 1.950860 0.000000 0.000000 
#    y 0.000000 1.968910 0.000000 
#    z 0.000000 0.000000 1.901920 
# 
# From -- ./inp_files/24893.got.cif
#   From: 2010.05.17/outbox.cif.g08.bks.cpg/sg22_13_cif.got.tgz:24893.got - 2010.06.03 23:40:54.
