data_PCOD9328549
_publ_section_title
;
Structure prediction by ZEFSAII (Michael W. Deem and Ramdas Pophale) SiO2 
 PCOD9328549
Probable space group: F 2 2 2
;
_chemical_formula_sum "Si O2"
_cell_formula_units_Z 88
_cell_length_a 21.606850
_cell_length_b 9.014002
_cell_length_c 19.901065
_cell_angle_alpha 90.000000
_cell_angle_beta 90.000000
_cell_angle_gamma 90.000000
_cell_volume 3876.014787
_symmetry_space_group_name_H-M "F 2 2 2"
_symmetry_group_IT_number 22
_symmetry_cell_setting 'orthorhombic'
loop_
_space_group_symop_operation_xyz
x,y,z
-x,-y,z
x,-y,-z
-x,y,-z
x,1/2+y,1/2+z
-x,1/2-y,1/2+z
x,1/2-y,1/2-z
-x,1/2+y,1/2-z
1/2+x,y,1/2+z
1/2-x,-y,1/2+z
1/2+x,-y,1/2-z
1/2-x,y,1/2-z
1/2+x,1/2+y,z
1/2-x,1/2-y,z
1/2+x,1/2-y,-z
1/2-x,1/2+y,-z
loop_
_atom_site_type_symbol
_atom_site_label
_atom_site_fract_x
_atom_site_fract_y
_atom_site_fract_z
Si Si1 0.496455 0.322397 0.824563
Si Si2 0.636085 0.276732 0.829050
Si Si3 0.697622 0.978787 0.083793
Si Si4 0.708527 0.583814 0.816755
Si Si5 0.124214 0.758907 0.094352
Si Si6 0.692625 0.000000 0.500000
O O1 0.500000 0.500000 0.815006
O O2 0.485587 0.250000 0.750000
O O3 0.564933 0.281502 0.850398
O O4 0.446407 0.276475 0.881088
O O5 0.635183 0.250000 0.750000
O O6 0.669559 0.148037 0.869843
O O7 0.672209 0.431240 0.830791
O O8 0.752679 0.909388 0.038637
O O9 0.740863 0.088726 0.125766
O O10 0.643914 0.098123 0.064159
O O11 0.750000 0.583498 0.750000
O O12 0.657746 0.706822 0.833319
O O13 0.149280 0.886974 0.042705
#
# Coordination Sequence:
#
# PCOD9328549 Si02
#       6
#    16  16  16  16  16   8
#     4  11  26  46  70 107 151 198 240 298 374 451
#     4  11  23  41  65 105 151 192 233 295 376 444
#     4  11  25  41  72 105 140 187 240 307 369 436
#     4  11  21  37  62 100 144 180 234 292 368 436
#     4  11  26  45  73 102 142 195 249 302 364 439
#     4  10  24  50  71 103 146 188 248 308 368 418
#
# _framework density 22.70373
#
# number of rings (size 3 to 8) (size 9 to 14) (size 15 to 20)
#    0.000    1.091    3.636    2.727    7.636    6.545 
#    0.000    0.455    0.000    1.091    0.000    0.000 
#    0.000    0.000    0.000    0.000    0.000    0.000 
#
# Total GULP energy -122484.626179 kJ/mol
# GULP energy per Si atom -5567.483008 kJ/mol
# Density = 2.265206 g / cm^3
# Si number density = 22.703730 Si / 1000 Ang^3
#
#
#
# Elastic Constant Matrix: (Units=GPa)
#
#
# Indices 1 2 3 4 5 6 
#
# 1 169.4676 56.7441 52.9837 0.0000 0.0000 0.0000
# 2 56.7441 118.9106 28.7141 0.0000 0.0000 0.0000
# 3 52.9837 28.7141 72.6134 0.0000 0.0000 0.0000
# 4 0.0000 0.0000 0.0000 4.0433 0.0000 0.0000
# 5 0.0000 0.0000 0.0000 0.0000 43.9649 0.0000
# 6 0.0000 0.0000 0.0000 0.0000 0.0000 0.2350
#
#
#
# Elastic Compliance Matrix: (Units=1/GPa)
#
#
# Indices 1 2 3 4 5 6 
#
# 1 0.008411 -0.002799 -0.005030 0.000000 0.000000 0.000000
# 2 -0.002799 0.010229 -0.002003 0.000000 0.000000 0.000000
# 3 -0.005030 -0.002003 0.018234 0.000000 0.000000 0.000000
# 4 0.000000 0.000000 0.000000 0.247323 0.000000 -0.000002
# 5 0.000000 0.000000 0.000000 0.000000 0.022745 0.000000
# 6 0.000000 0.000000 0.000000 -0.000002 0.000000 4.255082
#
#
# Mechanical properties :
#
#
# Convention : Reuss Voigt Hill
#
# Bulk Modulus (GPa) = 58.10587 70.87506 64.49046
# Shear Modulus (GPa) = 1.08994 24.48529 12.78761
#
# Velocity S-wave (km/s) = 0.69362 3.28757 2.37584
# Velocity P-wave (km/s) = 5.12739 6.75988 5.99942
#
# Compressibility (1/GPa) = 0.01720997
#
# Stress axis : x y z
#
# Youngs Moduli (GPa) = 118.89615 97.76224 54.84295
#
# Poissons Ratio (x) = 0.27363 0.27587
# Poissons Ratio (y) = 0.33278 0.10983
# Poissons Ratio (z) = 0.59808 0.19578
#
# Static dielectric constant tensor:
#      x y z
#    x 2.016860 0.000000 0.000000 
#    y 0.000000 1.886360 0.000000 
#    z 0.000000 0.000000 2.203800 
# 
# From -- ./inp_files/45210.got.cif
#   From: 2010.05.17/outbox.cif.g08.bks.cpg/sg22_23_cif.got.tgz:45210.got - 2010.06.03 23:40:54.
