data_PCOD9328706
_publ_section_title
;
Structure prediction by ZEFSAII (Michael W. Deem and Ramdas Pophale) SiO2 
 PCOD9328706
Probable space group: F 2 2 2
;
_chemical_formula_sum "Si O2"
_cell_formula_units_Z 112
_cell_length_a 11.601701
_cell_length_b 20.563929
_cell_length_c 24.503583
_cell_angle_alpha 90.000000
_cell_angle_beta 90.000000
_cell_angle_gamma 90.000000
_cell_volume 5845.980433
_symmetry_space_group_name_H-M "F 2 2 2"
_symmetry_group_IT_number 22
_symmetry_cell_setting 'orthorhombic'
loop_
_space_group_symop_operation_xyz
x,y,z
-x,-y,z
x,-y,-z
-x,y,-z
x,1/2+y,1/2+z
-x,1/2-y,1/2+z
x,1/2-y,1/2-z
-x,1/2+y,1/2-z
1/2+x,y,1/2+z
1/2-x,-y,1/2+z
1/2+x,-y,1/2-z
1/2-x,y,1/2-z
1/2+x,1/2+y,z
1/2-x,1/2-y,z
1/2+x,1/2-y,-z
1/2-x,1/2+y,-z
loop_
_atom_site_type_symbol
_atom_site_label
_atom_site_fract_x
_atom_site_fract_y
_atom_site_fract_z
Si Si1 0.845476 0.940977 0.596069
Si Si2 0.823018 0.807024 0.306429
Si Si3 0.935076 0.747845 0.668614
Si Si4 0.739370 0.357870 0.493889
Si Si5 0.259354 0.141981 0.689841
Si Si6 0.614753 0.594083 0.398032
Si Si7 0.091205 0.740571 0.457988
O O1 0.785098 0.922780 0.539373
O O2 0.767701 0.909800 0.643425
O O3 0.974418 0.908342 0.596999
O O4 0.854737 0.018014 0.601922
O O5 0.750000 0.818840 0.250000
O O6 0.750000 0.750000 0.335923
O O7 0.843618 0.870260 0.343063
O O8 0.949663 0.774634 0.303912
O O9 0.837128 0.801979 0.680205
O O10 0.880857 0.679771 0.687872
O O11 0.951483 0.736350 0.603779
O O12 0.680656 0.368729 0.552510
O O13 0.865781 0.326507 0.487108
O O14 0.679966 0.300509 0.458519
O O15 0.250000 0.113201 0.750000
O O16 0.000000 0.767326 0.500000
#
# Coordination Sequence:
#
# PCOD9328706 Si02
#       7
#    16  16  16  16  16  16  16
#     4  11  21  42  62  94 128 171 204 275 303 388
#     4  11  26  40  63  89 130 169 209 272 328 389
#     4  11  20  41  60  95 129 156 208 265 321 379
#     4  11  20  37  59  97 126 165 208 259 318 383
#     4  11  22  36  67  92 120 162 214 265 317 371
#     4  11  24  38  66  91 131 167 218 247 331 387
#     4  11  21  33  62  92 132 161 203 260 321 384
#
# _framework density 19.158463000000001
#
# number of rings (size 3 to 8) (size 9 to 14) (size 15 to 20)
#    0.000    1.000    4.286    4.286    8.000    1.714 
#    0.000    0.000    0.000    4.286    0.000    0.000 
#    0.000    0.000    0.000    0.000    0.000    0.000 
#
# Total GULP energy -155935.533186 kJ/mol
# GULP energy per Si atom -5569.126185 kJ/mol
# Density = 1.911486 g / cm^3
# Si number density = 19.158463 Si / 1000 Ang^3
#
#
#
# Elastic Constant Matrix: (Units=GPa)
#
#
# Indices 1 2 3 4 5 6 
#
# 1 70.7203 26.8473 27.0457 0.0000 0.0000 0.0000
# 2 26.8473 90.7438 24.5054 0.0000 0.0000 0.0000
# 3 27.0457 24.5054 126.0500 0.0000 0.0000 0.0000
# 4 0.0000 0.0000 0.0000 10.3224 0.0000 0.0000
# 5 0.0000 0.0000 0.0000 0.0000 21.8015 0.0000
# 6 0.0000 0.0000 0.0000 0.0000 0.0000 22.2579
#
#
#
# Elastic Compliance Matrix: (Units=1/GPa)
#
#
# Indices 1 2 3 4 5 6 
#
# 1 0.016808 -0.004220 -0.002786 0.000000 0.000000 0.000000
# 2 -0.004220 0.012690 -0.001562 0.000000 0.000000 0.000000
# 3 -0.002786 -0.001562 0.008835 0.000000 0.000000 0.000000
# 4 0.000000 0.000000 0.000000 0.096877 0.000000 0.000000
# 5 0.000000 0.000000 0.000000 0.000000 0.045868 0.000000
# 6 0.000000 0.000000 0.000000 0.000000 0.000000 0.044928
#
#
# Mechanical properties :
#
#
# Convention : Reuss Voigt Hill
#
# Bulk Modulus (GPa) = 47.17608 49.36786 48.27197
# Shear Modulus (GPa) = 19.98343 24.81741 22.40042
#
# Velocity S-wave (km/s) = 3.23315 3.60304 3.42309
# Velocity P-wave (km/s) = 6.21412 6.56759 6.39330
#
# Compressibility (1/GPa) = 0.02119718
#
# Stress axis : x y z
#
# Youngs Moduli (GPa) = 59.49627 78.79986 113.19016
#
# Poissons Ratio (x) = 0.33257 0.31533
# Poissons Ratio (y) = 0.25110 0.17676
# Poissons Ratio (z) = 0.16575 0.12305
#
# Static dielectric constant tensor:
#      x y z
#    x 2.698370 0.000000 0.000000 
#    y 0.000000 1.658520 0.000000 
#    z 0.000000 0.000000 1.700470 
# 
# From -- ./inp_files/48285.got.cif
#   From: 2010.05.17/outbox.cif.g08.bks.cpg/sg22_25_cif.got.tgz:48285.got - 2010.06.03 23:40:54.
