data_PCOD9328960
_publ_section_title
;
Structure prediction by ZEFSAII (Michael W. Deem and Ramdas Pophale) SiO2 
 PCOD9328960
Probable space group: F 2 2 2
;
_chemical_formula_sum "Si O2"
_cell_formula_units_Z 80
_cell_length_a 23.729717
_cell_length_b 11.325636
_cell_length_c 14.249944
_cell_angle_alpha 90.000000
_cell_angle_beta 90.000000
_cell_angle_gamma 90.000000
_cell_volume 3829.731404
_symmetry_space_group_name_H-M "F 2 2 2"
_symmetry_group_IT_number 22
_symmetry_cell_setting 'orthorhombic'
loop_
_space_group_symop_operation_xyz
x,y,z
-x,-y,z
x,-y,-z
-x,y,-z
x,1/2+y,1/2+z
-x,1/2-y,1/2+z
x,1/2-y,1/2-z
-x,1/2+y,1/2-z
1/2+x,y,1/2+z
1/2-x,-y,1/2+z
1/2+x,-y,1/2-z
1/2-x,y,1/2-z
1/2+x,1/2+y,z
1/2-x,1/2-y,z
1/2+x,1/2-y,-z
1/2-x,1/2+y,-z
loop_
_atom_site_type_symbol
_atom_site_label
_atom_site_fract_x
_atom_site_fract_y
_atom_site_fract_z
Si Si1 0.226954 0.371152 0.048009
Si Si2 0.603170 0.870626 0.986254
Si Si3 0.351031 0.875701 0.225768
Si Si4 0.025506 0.620458 0.295549
Si Si5 0.750000 0.555434 0.250000
Si Si6 0.500000 0.304718 0.000000
O O1 0.250000 0.250000 0.000852
O O2 0.252798 0.376903 0.151787
O O3 0.238896 0.500000 0.000000
O O4 0.159120 0.360234 0.049591
O O5 0.626500 0.867557 0.880343
O O6 0.556117 0.774662 0.004088
O O7 0.577781 0.000000 0.000000
O O8 0.324525 0.750000 0.250000
O O9 0.406995 0.891033 0.288279
O O10 0.305579 0.975836 0.239922
O O11 0.011709 0.750000 0.250000
O O12 0.004936 0.627248 0.402332
O O13 0.000000 0.500000 0.251104
#
# Coordination Sequence:
#
# PCOD9328960 Si02
#       6
#    16  16  16  16   8   8
#     4  11  26  45  70 108 143 186 241 291 364 429
#     4  11  23  44  69 108 141 188 244 291 357 438
#     4  11  23  44  69 108 141 188 244 291 357 438
#     4  11  26  45  70 108 143 186 241 291 364 429
#     4  12  24  44  74  98 149 186 233 312 349 426
#     4  12  24  44  74  98 149 186 233 312 349 426
#
# _framework density 20.889194
#
# number of rings (size 3 to 8) (size 9 to 14) (size 15 to 20)
#    0.000    0.800    8.000    1.200    5.600    1.600 
#    0.000    0.000    0.000    0.000    0.000    0.000 
#    0.000    0.000    0.000    0.000    0.000    0.000 
#
# Total GULP energy -111674.863535 kJ/mol
# GULP energy per Si atom -5583.743177 kJ/mol
# Density = 2.084165 g / cm^3
# Si number density = 20.889194 Si / 1000 Ang^3
#
#
#
# Elastic Constant Matrix: (Units=GPa)
#
#
# Indices 1 2 3 4 5 6 
#
# 1 79.3308 26.5583 11.1811 0.0000 0.0000 0.0000
# 2 26.5583 130.4829 -3.8879 0.0000 0.0000 0.0000
# 3 11.1811 -3.8879 88.1718 0.0000 0.0000 0.0000
# 4 0.0000 0.0000 0.0000 26.3635 0.0000 0.0000
# 5 0.0000 0.0000 0.0000 0.0000 36.4070 0.0000
# 6 0.0000 0.0000 0.0000 0.0000 0.0000 -4.7643
#
#
#
# Elastic Compliance Matrix: (Units=1/GPa)
#
#
# Indices 1 2 3 4 5 6 
#
# 1 0.013832 -0.002871 -0.001881 0.000000 0.000000 0.000000
# 2 -0.002871 0.008270 0.000729 0.000000 0.000000 0.000000
# 3 -0.001881 0.000729 0.011612 0.000000 0.000000 0.000000
# 4 0.000000 0.000000 0.000000 0.037931 0.000000 0.000000
# 5 0.000000 0.000000 0.000000 0.000000 0.027467 0.000000
# 6 0.000000 0.000000 0.000000 0.000000 0.000000 -0.209894
#
#
# Mechanical properties :
#
#
# Convention : Reuss Voigt Hill
#
# Bulk Modulus (GPa) = 38.95975 40.63204 39.79589
# Shear Modulus (GPa) = -53.09022 29.21018 -11.94002
#
# Velocity S-wave (km/s) = -5.04681 3.74349 -2.39339
# Velocity P-wave (km/s) = 3.90759 6.17887 3.38446
#
# Compressibility (1/GPa) = 0.02566752
#
# Stress axis : x y z
#
# Youngs Moduli (GPa) = 72.29729 120.91921 86.11695
#
# Poissons Ratio (x) = 0.34720 0.16195
# Poissons Ratio (y) = 0.20759 -0.06276
# Poissons Ratio (z) = 0.13596 -0.08812
#
# Static dielectric constant tensor:
#      x y z
#    x 1.709460 0.000000 0.000000 
#    y 0.000000 1.802920 0.000000 
#    z 0.000000 0.000000 1.791990 
# 
# From -- ./inp_files/23587.got.cif
#   From: 2010.05.17/outbox.cif.g08.bks.cpg/sg22_12_cif.got.tgz:23587.got - 2010.06.03 23:40:54.
