data_PCOD9328272
_publ_section_title
;
Structure prediction by ZEFSAII (Michael W. Deem and Ramdas Pophale) SiO2 
 PCOD9328272
Probable space group: F 2 2 2
;
_chemical_formula_sum "Si O2"
_cell_formula_units_Z 108
_cell_length_a 14.616726
_cell_length_b 14.766981
_cell_length_c 23.737472
_cell_angle_alpha 90.000000
_cell_angle_beta 90.000000
_cell_angle_gamma 90.000000
_cell_volume 5123.612629
_symmetry_space_group_name_H-M "F 2 2 2"
_symmetry_group_IT_number 22
_symmetry_cell_setting 'orthorhombic'
loop_
_space_group_symop_operation_xyz
x,y,z
-x,-y,z
x,-y,-z
-x,y,-z
x,1/2+y,1/2+z
-x,1/2-y,1/2+z
x,1/2-y,1/2-z
-x,1/2+y,1/2-z
1/2+x,y,1/2+z
1/2-x,-y,1/2+z
1/2+x,-y,1/2-z
1/2-x,y,1/2-z
1/2+x,1/2+y,z
1/2-x,1/2-y,z
1/2+x,1/2-y,-z
1/2-x,1/2+y,-z
loop_
_atom_site_type_symbol
_atom_site_label
_atom_site_fract_x
_atom_site_fract_y
_atom_site_fract_z
Si Si1 0.750000 0.250000 0.250000
Si Si2 0.717802 0.348122 0.901001
Si Si3 0.000000 0.306489 0.000000
Si Si4 0.476345 0.719656 0.879766
Si Si5 0.960060 0.902513 0.684017
Si Si6 0.200250 0.604450 0.015866
Si Si7 0.767256 0.459911 0.136182
Si Si8 0.390587 0.383046 0.805421
O O1 0.682483 0.307953 0.212487
O O2 0.750000 0.250000 0.881473
O O3 0.614491 0.342305 0.879321
O O4 0.776715 0.433824 0.879636
O O5 0.733416 0.351926 0.968890
O O6 0.096232 0.358739 0.988793
O O7 0.984867 0.249999 0.943834
O O8 0.490329 0.814328 0.843389
O O9 0.554661 0.654643 0.857705
O O10 0.853766 0.914232 0.666508
O O11 0.956477 0.896666 0.751954
O O12 0.000000 0.000000 0.665938
O O13 0.240696 0.600056 0.079032
O O14 0.192942 0.500000 0.000000
O O15 0.676848 0.461376 0.174644
#
# Coordination Sequence:
#
# PCOD9328272 Si02
#       8
#     4  16   8  16  16  16  16  16
#     4  12  20  48  72 104 132 172 236 300 342 400
#     4  11  24  44  66  99 150 185 229 287 366 440
#     4  12  23  40  70 107 134 180 232 286 355 424
#     4  12  26  43  69 104 141 185 230 296 361 431
#     4  12  25  44  73 102 135 183 244 296 353 425
#     4  10  23  41  67 101 139 182 231 287 354 425
#     4  11  24  44  72 102 136 189 235 303 360 428
#     4  12  25  46  71 100 138 181 244 295 356 419
#
# _framework density 21.078876999999999
#
# number of rings (size 3 to 8) (size 9 to 14) (size 15 to 20)
#    0.000    0.593    5.926    1.111    6.222    0.000 
#    0.000    0.000    0.000    0.000    0.000    0.000 
#    0.000    0.000    0.000    0.000    0.000    0.000 
#
# Total GULP energy -150508.073441 kJ/mol
# GULP energy per Si atom -5574.373090 kJ/mol
# Density = 2.103090 g / cm^3
# Si number density = 21.078877 Si / 1000 Ang^3
#
#
#
# Elastic Constant Matrix: (Units=GPa)
#
#
# Indices 1 2 3 4 5 6 
#
# 1 88.9309 16.0681 8.3787 0.0000 0.0000 0.0000
# 2 16.0681 66.8396 9.5539 0.0000 0.0000 0.0000
# 3 8.3787 9.5539 69.5027 0.0000 0.0000 0.0000
# 4 0.0000 0.0000 0.0000 20.6569 0.0000 0.0000
# 5 0.0000 0.0000 0.0000 0.0000 31.2458 0.0000
# 6 0.0000 0.0000 0.0000 0.0000 0.0000 40.6893
#
#
#
# Elastic Compliance Matrix: (Units=1/GPa)
#
#
# Indices 1 2 3 4 5 6 
#
# 1 0.011831 -0.002693 -0.001056 0.000000 0.000000 0.000000
# 2 -0.002693 0.015874 -0.001857 0.000000 0.000000 0.000000
# 3 -0.001056 -0.001857 0.014771 0.000000 0.000000 0.000000
# 4 0.000000 0.000000 0.000000 0.048410 0.000000 0.000000
# 5 0.000000 0.000000 0.000000 0.000000 0.032004 0.000000
# 6 0.000000 0.000000 0.000000 0.000000 0.000000 0.024577
#
#
# Mechanical properties :
#
#
# Convention : Reuss Voigt Hill
#
# Bulk Modulus (GPa) = 31.98738 32.58603 32.28671
# Shear Modulus (GPa) = 29.56829 31.26990 30.41909
#
# Velocity S-wave (km/s) = 3.74939 3.85576 3.80295
# Velocity P-wave (km/s) = 5.82683 5.94266 5.88503
#
# Compressibility (1/GPa) = 0.03126233
#
# Stress axis : x y z
#
# Youngs Moduli (GPa) = 84.52527 62.99565 67.70225
#
# Poissons Ratio (x) = 0.16966 0.07149
# Poissons Ratio (y) = 0.22764 0.12575
# Poissons Ratio (z) = 0.08926 0.11701
#
# Static dielectric constant tensor:
#      x y z
#    x 1.886440 0.000000 0.000000 
#    y 0.000000 1.820730 0.000000 
#    z 0.000000 0.000000 1.839950 
# 
# From -- ./inp_files/49006.got.cif
#   From: 2010.05.17/outbox.cif.g08.bks.cpg/sg22_25_cif.got.tgz:49006.got - 2010.06.03 23:40:54.
