data_PCOD9328284
_publ_section_title
;
Structure prediction by ZEFSAII (Michael W. Deem and Ramdas Pophale) SiO2 
 PCOD9328284
Probable space group: F 2 2 2
;
_chemical_formula_sum "Si O2"
_cell_formula_units_Z 100
_cell_length_a 20.462279
_cell_length_b 8.508842
_cell_length_c 26.691054
_cell_angle_alpha 90.000000
_cell_angle_beta 90.000000
_cell_angle_gamma 90.000000
_cell_volume 4647.187392
_symmetry_space_group_name_H-M "F 2 2 2"
_symmetry_group_IT_number 22
_symmetry_cell_setting 'orthorhombic'
loop_
_space_group_symop_operation_xyz
x,y,z
-x,-y,z
x,-y,-z
-x,y,-z
x,1/2+y,1/2+z
-x,1/2-y,1/2+z
x,1/2-y,1/2-z
-x,1/2+y,1/2-z
1/2+x,y,1/2+z
1/2-x,-y,1/2+z
1/2+x,-y,1/2-z
1/2-x,y,1/2-z
1/2+x,1/2+y,z
1/2-x,1/2-y,z
1/2+x,1/2-y,-z
1/2-x,1/2+y,-z
loop_
_atom_site_type_symbol
_atom_site_label
_atom_site_fract_x
_atom_site_fract_y
_atom_site_fract_z
Si Si1 0.544102 0.638749 0.863867
Si Si2 0.367228 0.587955 0.331325
Si Si3 0.863826 0.467832 0.558638
Si Si4 0.500000 0.000000 0.000000
Si Si5 0.428954 0.657368 0.590597
Si Si6 0.827674 0.573435 0.263642
Si Si7 0.767161 0.938432 0.136203
O O1 0.500000 0.500000 0.838775
O O2 0.598666 0.743776 0.836376
O O3 0.580491 0.565541 0.912325
O O4 0.489604 0.759395 0.882894
O O5 0.403081 0.471437 0.370521
O O6 0.367797 0.536848 0.273184
O O7 0.291922 0.551852 0.346911
O O8 0.866746 0.500000 0.500000
O O9 0.876521 0.288443 0.575453
O O10 0.793668 0.499167 0.583418
O O11 0.454154 0.093373 0.037880
O O12 0.848024 0.750000 0.250000
O O13 0.750000 0.562670 0.250000
O O14 0.825903 0.549234 0.322951
O O15 0.750000 0.750000 0.137272
#
# Coordination Sequence:
#
# PCOD9328284 Si02
#       7
#    16  16  16   4  16  16  16
#     4  10  23  42  63  93 138 186 237 295 356 418
#     4  11  20  38  68 103 133 173 237 300 357 426
#     4  11  24  42  60  91 140 193 226 286 361 426
#     4  12  20  32  62 100 128 172 250 296 344 436
#     4  11  21  38  64  94 128 180 241 293 345 421
#     4   9  15  32  65  99 129 170 224 283 350 423
#     4  11  20  40  66 101 135 181 232 294 361 436
#
# _framework density 21.518391999999999
#
# number of rings (size 3 to 8) (size 9 to 14) (size 15 to 20)
#    0.000    1.440    6.400    0.960    0.000    2.880 
#    4.320    0.800    0.000   16.320    0.000    0.000 
#    0.000    0.000    0.000    0.000    0.000    0.000 
#
# Total GULP energy -139484.972663 kJ/mol
# GULP energy per Si atom -5579.398907 kJ/mol
# Density = 2.146941 g / cm^3
# Si number density = 21.518392 Si / 1000 Ang^3
#
#
#
# Elastic Constant Matrix: (Units=GPa)
#
#
# Indices 1 2 3 4 5 6 
#
# 1 73.6367 55.9462 40.1170 0.0000 0.0000 0.0000
# 2 55.9462 112.7963 55.3131 0.0000 0.0000 0.0000
# 3 40.1170 55.3131 117.8524 0.0000 0.0000 0.0000
# 4 0.0000 0.0000 0.0000 35.9150 0.0000 0.0000
# 5 0.0000 0.0000 0.0000 0.0000 51.6950 0.0000
# 6 0.0000 0.0000 0.0000 0.0000 0.0000 43.8848
#
#
#
# Elastic Compliance Matrix: (Units=1/GPa)
#
#
# Indices 1 2 3 4 5 6 
#
# 1 0.022668 -0.009689 -0.003169 0.000000 0.000000 0.000000
# 2 -0.009689 0.015658 -0.004051 0.000000 0.000000 0.000000
# 3 -0.003169 -0.004051 0.011465 0.000000 0.000000 0.000000
# 4 0.000000 0.000000 0.000000 0.027843 0.000000 0.000000
# 5 0.000000 0.000000 0.000000 0.000000 0.019344 0.000000
# 6 0.000000 0.000000 0.000000 0.000000 0.000000 0.022787
#
#
# Mechanical properties :
#
#
# Convention : Reuss Voigt Hill
#
# Bulk Modulus (GPa) = 62.60331 67.44865 65.02598
# Shear Modulus (GPa) = 31.46498 36.49291 33.97895
#
# Velocity S-wave (km/s) = 3.82807 4.12259 3.97806
# Velocity P-wave (km/s) = 6.97817 7.35348 7.16828
#
# Compressibility (1/GPa) = 0.01597360
#
# Stress axis : x y z
#
# Youngs Moduli (GPa) = 44.11500 63.86623 87.22294
#
# Poissons Ratio (x) = 0.61882 0.27637
# Poissons Ratio (y) = 0.42745 0.35330
# Poissons Ratio (z) = 0.13978 0.25869
#
# Static dielectric constant tensor:
#      x y z
#    x 1.803030 0.000000 0.000000 
#    y 0.000000 1.819280 0.000000 
#    z 0.000000 0.000000 1.742890 
# 
# From -- ./inp_files/53941.got.cif
#   From: 2010.05.17/outbox.cif.g08.bks.cpg/sg22_27_cif.got.tgz:53941.got - 2010.06.03 23:40:54.
