data_PCOD9328460
_publ_section_title
;
Structure prediction by ZEFSAII (Michael W. Deem and Ramdas Pophale) SiO2 
 PCOD9328460
Probable space group: F 2 2 2
;
_chemical_formula_sum "Si O2"
_cell_formula_units_Z 56
_cell_length_a 13.567453
_cell_length_b 5.151491
_cell_length_c 34.190019
_cell_angle_alpha 90.000000
_cell_angle_beta 90.000000
_cell_angle_gamma 90.000000
_cell_volume 2389.629733
_symmetry_space_group_name_H-M "F 2 2 2"
_symmetry_group_IT_number 22
_symmetry_cell_setting 'orthorhombic'
loop_
_space_group_symop_operation_xyz
x,y,z
-x,-y,z
x,-y,-z
-x,y,-z
x,1/2+y,1/2+z
-x,1/2-y,1/2+z
x,1/2-y,1/2-z
-x,1/2+y,1/2-z
1/2+x,y,1/2+z
1/2-x,-y,1/2+z
1/2+x,-y,1/2-z
1/2-x,y,1/2-z
1/2+x,1/2+y,z
1/2-x,1/2-y,z
1/2+x,1/2-y,-z
1/2-x,1/2+y,-z
loop_
_atom_site_type_symbol
_atom_site_label
_atom_site_fract_x
_atom_site_fract_y
_atom_site_fract_z
Si Si1 0.750000 0.250000 0.750000
Si Si2 0.500000 0.500000 0.875303
Si Si3 0.364308 0.211282 0.934308
Si Si4 0.250000 0.750000 0.196257
Si Si5 0.854217 0.893544 0.359814
Si Si6 0.000000 0.000000 0.500000
O O1 0.714268 0.486065 0.780178
O O2 0.413078 0.417663 0.905129
O O3 0.448649 0.722173 0.849889
O O4 0.250000 0.250000 0.943903
O O5 0.369470 0.968209 0.905032
O O6 0.430167 0.169520 0.972156
O O7 0.164040 0.640192 0.168244
O O8 0.750000 0.750000 0.357874
#
# Coordination Sequence:
#
# PCOD9328460 Si02
#       6
#     4   8  16   8  16   4
#     4  10  24  42  76 130 174 206 260 322 428 490
#     4  12  24  43  76 112 151 198 282 341 396 476
#     4  12  26  45  70 106 151 207 274 335 415 485
#     4  11  22  44  78 126 169 212 265 334 400 506
#     4  12  22  44  78 116 153 208 276 332 399 492
#     4  12  28  46  64 106 160 212 260 368 412 456
#
# _framework density 23.43459
#
# number of rings (size 3 to 8) (size 9 to 14) (size 15 to 20)
#    0.000    0.286    8.571    0.000    0.000    4.000 
#    0.000    0.000    0.000    0.000   14.857    0.000 
#    0.000    0.000    0.000    0.000    0.000    0.000 
#
# Total GULP energy -77984.751639 kJ/mol
# GULP energy per Si atom -5570.339403 kJ/mol
# Density = 2.338125 g / cm^3
# Si number density = 23.434590 Si / 1000 Ang^3
#
#
#
# Elastic Constant Matrix: (Units=GPa)
#
#
# Indices 1 2 3 4 5 6 
#
# 1 171.4366 72.1789 47.2859 0.0000 0.0000 0.0000
# 2 72.1789 181.2512 56.1434 0.0000 0.0000 0.0000
# 3 47.2859 56.1434 117.1279 0.0000 0.0000 0.0000
# 4 0.0000 0.0000 0.0000 22.8855 0.0000 0.0000
# 5 0.0000 0.0000 0.0000 0.0000 3.1173 0.0000
# 6 0.0000 0.0000 0.0000 0.0000 0.0000 57.2993
#
#
#
# Elastic Compliance Matrix: (Units=1/GPa)
#
#
# Indices 1 2 3 4 5 6 
#
# 1 0.007328 -0.002351 -0.001832 0.000000 0.000000 0.000000
# 2 -0.002351 0.007233 -0.002518 0.000000 0.000000 0.000000
# 3 -0.001832 -0.002518 0.010484 0.000000 0.000000 0.000000
# 4 0.000000 0.000000 0.000000 0.043696 0.000000 0.000000
# 5 0.000000 0.000000 0.000000 0.000000 0.320789 0.000000
# 6 0.000000 0.000000 0.000000 0.000000 0.000000 0.017452
#
#
# Mechanical properties :
#
#
# Convention : Reuss Voigt Hill
#
# Bulk Modulus (GPa) = 85.87814 91.22579 88.55197
# Shear Modulus (GPa) = 11.78509 36.27424 24.02966
#
# Velocity S-wave (km/s) = 2.24496 3.93860 3.20565
# Velocity P-wave (km/s) = 6.59130 7.72630 7.18126
#
# Compressibility (1/GPa) = 0.01164441
#
# Stress axis : x y z
#
# Youngs Moduli (GPa) = 136.46257 138.24783 95.38229
#
# Poissons Ratio (x) = 0.32500 0.17470
# Poissons Ratio (y) = 0.32081 0.24019
# Poissons Ratio (z) = 0.24994 0.34813
#
# Static dielectric constant tensor:
#      x y z
#    x 1.853450 0.000000 0.000000 
#    y 0.000000 2.098310 0.000000 
#    z 0.000000 0.000000 1.901180 
# 
# From -- ./inp_files/56299.got.cif
#   From: 2010.05.17/outbox.cif.g08.bks.cpg/sg22_29_cif.got.tgz:56299.got - 2010.06.03 23:40:54.
