data_PCOD9328443
_publ_section_title
;
Structure prediction by ZEFSAII (Michael W. Deem and Ramdas Pophale) SiO2 
 PCOD9328443
Probable space group: F 2 2 2
;
_chemical_formula_sum "Si O2"
_cell_formula_units_Z 60
_cell_length_a 25.771419
_cell_length_b 20.640134
_cell_length_c 5.080999
_cell_angle_alpha 90.000000
_cell_angle_beta 90.000000
_cell_angle_gamma 90.000000
_cell_volume 2702.713145
_symmetry_space_group_name_H-M "F 2 2 2"
_symmetry_group_IT_number 22
_symmetry_cell_setting 'orthorhombic'
loop_
_space_group_symop_operation_xyz
x,y,z
-x,-y,z
x,-y,-z
-x,y,-z
x,1/2+y,1/2+z
-x,1/2-y,1/2+z
x,1/2-y,1/2-z
-x,1/2+y,1/2-z
1/2+x,y,1/2+z
1/2-x,-y,1/2+z
1/2+x,-y,1/2-z
1/2-x,y,1/2-z
1/2+x,1/2+y,z
1/2-x,1/2-y,z
1/2+x,1/2-y,-z
1/2-x,1/2+y,-z
loop_
_atom_site_type_symbol
_atom_site_label
_atom_site_fract_x
_atom_site_fract_y
_atom_site_fract_z
Si Si1 0.161885 0.750000 0.750000
Si Si2 0.698158 0.143376 0.422009
Si Si3 0.250000 0.543290 0.750000
Si Si4 0.402467 0.677175 0.370271
Si Si5 0.500000 0.500000 0.000000
Si Si6 0.000000 0.590119 0.000000
O O1 0.196552 0.715898 0.534407
O O2 0.124276 0.805590 0.646034
O O3 0.750000 0.135573 0.250000
O O4 0.704747 0.090479 0.650029
O O5 0.643229 0.138643 0.278299
O O6 0.265153 0.500000 0.500000
O O7 0.411290 0.750000 0.250000
O O8 0.453369 0.635223 0.399037
O O9 0.480434 0.550323 0.764269
#
# Coordination Sequence:
#
# PCOD9328443 Si02
#       6
#     8  16   8  16   4   8
#     4  10  24  41  70 116 140 192 229 300 398 420
#     4  11  24  46  70 108 151 193 239 309 360 464
#     4  12  26  47  70 101 148 206 254 298 360 430
#     4  10  25  43  77 114 146 189 242 313 397 431
#     4  10  28  52  80 100 148 210 252 300 368 424
#     4  11  26  53  76 111 150 193 258 310 360 461
#
# _framework density 22.199912999999999
#
# number of rings (size 3 to 8) (size 9 to 14) (size 15 to 20)
#    0.000    1.333    1.333    1.600    9.333   12.800 
#    2.400    2.667    0.000    0.000    0.000    0.000 
#    0.000    0.000    0.000    0.000    0.000    0.000 
#
# Total GULP energy -83551.618617 kJ/mol
# GULP energy per Si atom -5570.107908 kJ/mol
# Density = 2.214938 g / cm^3
# Si number density = 22.199913 Si / 1000 Ang^3
#
#
#
# Elastic Constant Matrix: (Units=GPa)
#
#
# Indices 1 2 3 4 5 6 
#
# 1 153.8073 71.8028 48.6837 0.0113 0.0064 -0.0060
# 2 71.8028 73.6679 27.9262 0.0619 -0.0022 -0.0099
# 3 48.6837 27.9262 115.9391 0.0943 -0.0023 -0.0194
# 4 0.0113 0.0619 0.0943 16.7496 0.0031 -0.0379
# 5 0.0064 -0.0022 -0.0023 0.0031 5.3804 0.0181
# 6 -0.0060 -0.0099 -0.0194 -0.0379 0.0181 -6.3383
#
#
#
# Elastic Compliance Matrix: (Units=1/GPa)
#
#
# Indices 1 2 3 4 5 6 
#
# 1 0.012587 -0.011296 -0.002564 0.000048 -0.000021 0.000013
# 2 -0.011296 0.025076 -0.001297 -0.000078 0.000023 -0.000024
# 3 -0.002564 -0.001297 0.010014 -0.000050 0.000007 -0.000026
# 4 0.000048 -0.000078 -0.000050 0.059703 -0.000034 -0.000357
# 5 -0.000021 0.000023 0.000007 -0.000034 0.185857 0.000532
# 6 0.000013 -0.000024 -0.000026 -0.000357 0.000532 -0.157767
#
#
# Mechanical properties :
#
#
# Convention : Reuss Voigt Hill
#
# Bulk Modulus (GPa) = 57.59404 71.13775 64.36590
# Shear Modulus (GPa) = 29.14242 16.15844 22.65043
#
# Velocity S-wave (km/s) = 3.62709 2.70082 3.19767
# Velocity P-wave (km/s) = 6.59854 6.46835 6.53377
#
# Compressibility (1/GPa) = 0.01736291
#
# Stress axis : x y z
#
# Youngs Moduli (GPa) = 79.44896 39.87874 99.85588
#
# Poissons Ratio (x) = 0.45047 0.25607
# Poissons Ratio (y) = 0.89745 0.12949
# Poissons Ratio (z) = 0.20374 0.05171
#
# Static dielectric constant tensor:
#      x y z
#    x 1.798080 0.000020 0.000020 
#    y 0.000020 1.840410 -0.000010 
#    z 0.000020 -0.000010 1.971320 
# 
# From -- ./inp_files/4433.got.cif
#   From: 2010.05.17/outbox.cif.g08.bks.cpg/sg22_3_cif.got.tgz:4433.got - 2010.06.03 23:40:54.
