data_PCOD9328267
_publ_section_title
;
Structure prediction by ZEFSAII (Michael W. Deem and Ramdas Pophale) SiO2 
 PCOD9328267
Probable space group: F 2 2 2
;
_chemical_formula_sum "Si O2"
_cell_formula_units_Z 48
_cell_length_a 12.657466
_cell_length_b 21.628043
_cell_length_c 7.187509
_cell_angle_alpha 90.000000
_cell_angle_beta 90.000000
_cell_angle_gamma 90.000000
_cell_volume 1967.625287
_symmetry_space_group_name_H-M "F 2 2 2"
_symmetry_group_IT_number 22
_symmetry_cell_setting 'orthorhombic'
loop_
_space_group_symop_operation_xyz
x,y,z
-x,-y,z
x,-y,-z
-x,y,-z
x,1/2+y,1/2+z
-x,1/2-y,1/2+z
x,1/2-y,1/2-z
-x,1/2+y,1/2-z
1/2+x,y,1/2+z
1/2-x,-y,1/2+z
1/2+x,-y,1/2-z
1/2-x,y,1/2-z
1/2+x,1/2+y,z
1/2-x,1/2-y,z
1/2+x,1/2-y,-z
1/2-x,1/2+y,-z
loop_
_atom_site_type_symbol
_atom_site_label
_atom_site_fract_x
_atom_site_fract_y
_atom_site_fract_z
Si Si1 0.099787 0.678842 0.252762
Si Si2 0.624962 0.432470 0.525002
Si Si3 0.862168 0.342431 0.681886
O O1 0.136735 0.750000 0.250000
O O2 0.122465 0.658281 0.463068
O O3 0.971563 0.682615 0.228642
O O4 0.146924 0.627197 0.111072
O O5 0.674937 0.500000 0.500000
O O6 0.500000 0.439327 0.500000
O O7 0.640548 0.410947 0.735404
O O8 0.750000 0.315003 0.750000
#
# Coordination Sequence:
#
# PCOD9328267 Si02
#       3
#    16  16  16
#     4  10  23  42  67  97 136 177 221 280 342 403
#     4   9  20  41  66  93 133 176 218 276 343 405
#     4  10  23  41  66 101 130 172 225 278 338 410
#
# _framework density 24.394888999999999
#
# number of rings (size 3 to 8) (size 9 to 14) (size 15 to 20)
#    0.000    2.333    0.000    0.000   14.000    3.333 
#    6.000    8.333    0.000    0.000    0.000    0.000 
#    0.000    0.000    0.000    0.000    0.000    0.000 
#
# Total GULP energy -66873.777223 kJ/mol
# GULP energy per Si atom -5572.814769 kJ/mol
# Density = 2.433936 g / cm^3
# Si number density = 24.394889 Si / 1000 Ang^3
#
#
#
# Elastic Constant Matrix: (Units=GPa)
#
#
# Indices 1 2 3 4 5 6 
#
# 1 169.0977 -1.2296 -8.3880 0.0000 0.0000 0.0000
# 2 -1.2296 240.8375 91.9679 0.0000 0.0000 0.0000
# 3 -8.3880 91.9679 149.0552 0.0000 0.0000 0.0000
# 4 0.0000 0.0000 0.0000 -6.2603 0.0000 0.0000
# 5 0.0000 0.0000 0.0000 0.0000 0.0798 0.0000
# 6 0.0000 0.0000 0.0000 0.0000 0.0000 -50.5466
#
#
#
# Elastic Compliance Matrix: (Units=1/GPa)
#
#
# Indices 1 2 3 4 5 6 
#
# 1 0.005933 -0.000127 0.000412 0.000000 0.000000 0.000000
# 2 -0.000127 0.005435 -0.003360 0.000000 -0.000001 0.000000
# 3 0.000412 -0.003360 0.008806 0.000000 0.000001 0.000000
# 4 0.000000 0.000000 0.000000 -0.159736 0.000005 0.000000
# 5 0.000000 -0.000001 0.000001 0.000005 12.535414 0.000000
# 6 0.000000 0.000000 0.000000 0.000000 0.000000 -0.019784
#
#
# Mechanical properties :
#
#
# Convention : Reuss Voigt Hill
#
# Bulk Modulus (GPa) = 71.31106 80.41012 75.86059
# Shear Modulus (GPa) = 0.40365 20.43058 10.41712
#
# Velocity S-wave (km/s) = 0.40722 2.89709 2.06869
# Velocity P-wave (km/s) = 5.43291 6.65013 6.07210
#
# Compressibility (1/GPa) = 0.01402307
#
# Stress axis : x y z
#
# Youngs Moduli (GPa) = 168.54105 184.00054 113.56494
#
# Poissons Ratio (x) = 0.02340 -0.04683
# Poissons Ratio (y) = 0.02143 0.38163
# Poissons Ratio (z) = -0.06950 0.61832
#
# Static dielectric constant tensor:
#      x y z
#    x 2.033030 0.000000 0.000000 
#    y 0.000000 1.980990 0.000000 
#    z 0.000000 0.000000 1.967100 
# 
# From -- ./inp_files/9198.got.cif
#   From: 2010.05.17/outbox.cif.g08.bks.cpg/sg22_5_cif.got.tgz:9198.got - 2010.06.03 23:40:54.
