data_PCOD9328632
_publ_section_title
;
Structure prediction by ZEFSAII (Michael W. Deem and Ramdas Pophale) SiO2 
 PCOD9328632
Probable space group: F 2 2 2
;
_chemical_formula_sum "Si O2"
_cell_formula_units_Z 84
_cell_length_a 13.473578
_cell_length_b 12.852433
_cell_length_c 22.002415
_cell_angle_alpha 90.000000
_cell_angle_beta 90.000000
_cell_angle_gamma 90.000000
_cell_volume 3810.119889
_symmetry_space_group_name_H-M "F 2 2 2"
_symmetry_group_IT_number 22
_symmetry_cell_setting 'orthorhombic'
loop_
_space_group_symop_operation_xyz
x,y,z
-x,-y,z
x,-y,-z
-x,y,-z
x,1/2+y,1/2+z
-x,1/2-y,1/2+z
x,1/2-y,1/2-z
-x,1/2+y,1/2-z
1/2+x,y,1/2+z
1/2-x,-y,1/2+z
1/2+x,-y,1/2-z
1/2-x,y,1/2-z
1/2+x,1/2+y,z
1/2-x,1/2-y,z
1/2+x,1/2-y,-z
1/2-x,1/2+y,-z
loop_
_atom_site_type_symbol
_atom_site_label
_atom_site_fract_x
_atom_site_fract_y
_atom_site_fract_z
Si Si1 0.250000 0.250000 0.250000
Si Si2 0.000000 0.500000 0.705253
Si Si3 0.399772 0.666274 0.294435
Si Si4 0.000000 0.000000 0.000000
Si Si5 0.500000 0.500000 0.500000
Si Si6 0.138223 0.411173 0.400396
Si Si7 0.652331 0.976383 0.901879
Si Si8 0.396448 0.306422 0.349177
O O1 0.321805 0.316933 0.292328
O O2 0.946609 0.580075 0.750150
O O3 0.915931 0.452982 0.660628
O O4 0.351781 0.750000 0.250000
O O5 0.341657 0.608596 0.348353
O O6 0.494203 0.721762 0.326384
O O7 0.933303 0.069831 0.956617
O O8 0.581209 0.439729 0.457392
O O9 0.238158 0.476588 0.413631
O O10 0.146262 0.287731 0.389161
O O11 0.597276 0.081162 0.879066
#
# Coordination Sequence:
#
# PCOD9328632 Si02
#       8
#     4   8  16   4   4  16  16  16
#     4  12  20  32  68 104 138 174 252 280 334 444
#     4  11  21  39  68  95 137 181 222 290 344 431
#     4  12  23  41  66 105 149 186 224 288 376 433
#     4  10  26  50  70  90 130 202 242 316 348 426
#     4  12  24  42  70  94 146 194 238 308 368 406
#     4  11  24  43  70  97 135 186 250 288 358 424
#     4  12  25  43  66 108 142 187 235 306 357 426
#     4  12  21  37  67 105 135 185 237 288 344 437
#
# _framework density 22.04655
#
# number of rings (size 3 to 8) (size 9 to 14) (size 15 to 20)
#    0.000    0.381    8.571    0.571    0.000    1.524 
#    0.000    1.905    0.000    0.000    0.000    0.000 
#    0.000    0.000    0.000    0.000    0.000    0.000 
#
# Total GULP energy -117283.865873 kJ/mol
# GULP energy per Si atom -5584.945994 kJ/mol
# Density = 2.199637 g / cm^3
# Si number density = 22.046550 Si / 1000 Ang^3
#
#
#
# Elastic Constant Matrix: (Units=GPa)
#
#
# Indices 1 2 3 4 5 6 
#
# 1 119.7524 27.4559 43.8257 0.0000 0.0000 0.0000
# 2 27.4559 96.7364 42.0919 0.0000 0.0000 0.0000
# 3 43.8257 42.0919 114.0784 0.0000 0.0000 0.0000
# 4 0.0000 0.0000 0.0000 6.4391 0.0000 0.0000
# 5 0.0000 0.0000 0.0000 0.0000 -6.0239 0.0000
# 6 0.0000 0.0000 0.0000 0.0000 0.0000 17.7910
#
#
#
# Elastic Compliance Matrix: (Units=1/GPa)
#
#
# Indices 1 2 3 4 5 6 
#
# 1 0.009867 -0.001371 -0.003285 0.000000 0.000000 0.000000
# 2 -0.001371 0.012505 -0.004087 0.000000 0.000000 0.000000
# 3 -0.003285 -0.004087 0.011536 0.000000 0.000000 0.000000
# 4 0.000000 0.000000 0.000000 0.155301 0.000000 0.000000
# 5 0.000000 0.000000 0.000000 0.000000 -0.166005 0.000000
# 6 0.000000 0.000000 0.000000 0.000000 0.000000 0.056208
#
#
# Mechanical properties :
#
#
# Convention : Reuss Voigt Hill
#
# Bulk Modulus (GPa) = 60.89541 61.92378 61.40960
# Shear Modulus (GPa) = 48.84149 18.12082 33.48115
#
# Velocity S-wave (km/s) = 4.71189 2.87005 3.90122
# Velocity P-wave (km/s) = 7.56860 6.25553 6.94318
#
# Compressibility (1/GPa) = 0.01642160
#
# Stress axis : x y z
#
# Youngs Moduli (GPa) = 101.34744 79.96806 86.68616
#
# Poissons Ratio (x) = 0.10966 0.28474
# Poissons Ratio (y) = 0.13897 0.35431
# Poissons Ratio (z) = 0.33289 0.32685
#
# Static dielectric constant tensor:
#      x y z
#    x 1.978700 0.000000 0.000000 
#    y 0.000000 1.836070 0.000000 
#    z 0.000000 0.000000 1.863500 
# 
# From -- ./inp_files/43452.got.cif
#   From: 2010.05.17/outbox.cif.g08.bks.cpg/sg22_22_cif.got.tgz:43452.got - 2010.06.03 23:40:54.
