data_PCOD9328266
_publ_section_title
;
Structure prediction by ZEFSAII (Michael W. Deem and Ramdas Pophale) SiO2 
 PCOD9328266
Probable space group: F 2 2 2
;
_chemical_formula_sum "Si O2"
_cell_formula_units_Z 116
_cell_length_a 24.067476
_cell_length_b 27.550779
_cell_length_c 8.340522
_cell_angle_alpha 90.000000
_cell_angle_beta 90.000000
_cell_angle_gamma 90.000000
_cell_volume 5530.414248
_symmetry_space_group_name_H-M "F 2 2 2"
_symmetry_group_IT_number 22
_symmetry_cell_setting 'orthorhombic'
loop_
_space_group_symop_operation_xyz
x,y,z
-x,-y,z
x,-y,-z
-x,y,-z
x,1/2+y,1/2+z
-x,1/2-y,1/2+z
x,1/2-y,1/2-z
-x,1/2+y,1/2-z
1/2+x,y,1/2+z
1/2-x,-y,1/2+z
1/2+x,-y,1/2-z
1/2-x,y,1/2-z
1/2+x,1/2+y,z
1/2-x,1/2-y,z
1/2+x,1/2-y,-z
1/2-x,1/2+y,-z
loop_
_atom_site_type_symbol
_atom_site_label
_atom_site_fract_x
_atom_site_fract_y
_atom_site_fract_z
Si Si1 0.122760 0.695076 0.259538
Si Si2 0.191617 0.498595 0.309845
Si Si3 0.250000 0.750000 0.750000
Si Si4 0.056780 0.104672 0.907088
Si Si5 0.850132 0.099681 0.856821
Si Si6 0.723584 0.326828 0.017171
Si Si7 0.648688 0.860648 0.034542
Si Si8 0.591897 0.955175 0.883235
O O1 0.103660 0.750000 0.250000
O O2 0.086501 0.655474 0.357319
O O3 0.186569 0.693548 0.333186
O O4 0.118760 0.677615 0.077129
O O5 0.190159 0.500000 0.500000
O O6 0.250000 0.518216 0.250000
O O7 0.183384 0.442258 0.266909
O O8 0.140799 0.524589 0.228026
O O9 0.280389 0.713665 0.875682
O O10 0.051438 0.071022 0.747133
O O11 0.097669 0.081367 0.042001
O O12 0.000000 0.112799 0.000000
O O13 0.809116 0.124086 0.980651
O O14 0.863017 0.139775 0.722923
O O15 0.787160 0.346571 0.007372
O O16 0.622394 0.912089 0.979933
O O17 0.573245 0.000000 0.000000
#
# Coordination Sequence:
#
# PCOD9328266 Si02
#       8
#    16  16   4  16  16  16  16  16
#     4  10  23  41  65  96 132 172 227 290 356 424
#     4  12  24  37  61  93 134 178 221 260 320 412
#     4  12  20  32  58  88 124 176 226 252 328 436
#     4  10  24  48  72  93 131 176 229 301 365 409
#     4  11  22  40  60  90 130 176 221 276 335 397
#     4  11  22  35  57  91 134 175 216 262 340 411
#     4  11  21  38  61  91 137 175 215 272 332 422
#     4  11  23  40  68  97 133 174 231 279 342 413
#
# _framework density 20.974920000000001
#
# number of rings (size 3 to 8) (size 9 to 14) (size 15 to 20)
#    0.000    1.103    4.138    2.483    1.931    0.552 
#    0.000    5.517    3.034    0.000    0.000    0.000 
#    0.000    0.000    0.000    0.000    0.000    0.000 
#
# Total GULP energy -161475.079275 kJ/mol
# GULP energy per Si atom -5568.106182 kJ/mol
# Density = 2.092718 g / cm^3
# Si number density = 20.974920 Si / 1000 Ang^3
#
#
#
# Elastic Constant Matrix: (Units=GPa)
#
#
# Indices 1 2 3 4 5 6 
#
# 1 61.7406 15.0099 15.9229 0.0013 0.0013 0.0007
# 2 15.0099 93.7264 14.9458 0.0012 0.0006 0.0001
# 3 15.9229 14.9458 94.0568 -0.0005 0.0048 0.0018
# 4 0.0013 0.0012 -0.0005 27.9392 -0.0010 -0.0011
# 5 0.0013 0.0006 0.0048 -0.0010 25.8791 -0.0009
# 6 0.0007 0.0001 0.0018 -0.0011 -0.0009 2.2128
#
#
#
# Elastic Compliance Matrix: (Units=1/GPa)
#
#
# Indices 1 2 3 4 5 6 
#
# 1 0.017440 -0.002382 -0.002574 -0.000001 0.000000 -0.000003
# 2 -0.002382 0.011272 -0.001388 0.000000 0.000000 0.000001
# 3 -0.002574 -0.001388 0.011288 0.000000 -0.000002 -0.000008
# 4 -0.000001 0.000000 0.000000 0.035792 0.000001 0.000017
# 5 0.000000 0.000000 -0.000002 0.000001 0.038641 0.000016
# 6 -0.000003 0.000001 -0.000008 0.000017 0.000016 0.451924
#
#
# Mechanical properties :
#
#
# Convention : Reuss Voigt Hill
#
# Bulk Modulus (GPa) = 36.61413 37.92010 37.26711
# Shear Modulus (GPa) = 8.50124 24.78257 16.64190
#
# Velocity S-wave (km/s) = 2.01540 3.44107 2.81983
# Velocity P-wave (km/s) = 4.78642 5.82289 5.32991
#
# Compressibility (1/GPa) = 0.02731186
#
# Stress axis : x y z
#
# Youngs Moduli (GPa) = 57.34008 88.71379 88.58868
#
# Poissons Ratio (x) = 0.21136 0.22801
# Poissons Ratio (y) = 0.13661 0.12295
# Poissons Ratio (z) = 0.14758 0.12312
#
# Static dielectric constant tensor:
#      x y z
#    x 1.763860 0.000000 0.000000 
#    y 0.000000 1.912970 -0.000030 
#    z 0.000000 -0.000030 1.877880 
# 
# From -- ./inp_files/14092.got.cif
#   From: 2010.05.17/outbox.cif.g08.bks.cpg/sg22_8_cif.got.tgz:14092.got - 2010.06.03 23:40:54.
