data_PCOD9328160
_publ_section_title
;
Structure prediction by ZEFSAII (Michael W. Deem and Ramdas Pophale) SiO2 
 PCOD9328160
Probable space group: F 2 2 2
;
_chemical_formula_sum "Si O2"
_cell_formula_units_Z 80
_cell_length_a 10.228193
_cell_length_b 13.886441
_cell_length_c 25.378657
_cell_angle_alpha 90.000000
_cell_angle_beta 90.000000
_cell_angle_gamma 90.000000
_cell_volume 3604.611831
_symmetry_space_group_name_H-M "F 2 2 2"
_symmetry_group_IT_number 22
_symmetry_cell_setting 'orthorhombic'
loop_
_space_group_symop_operation_xyz
x,y,z
-x,-y,z
x,-y,-z
-x,y,-z
x,1/2+y,1/2+z
-x,1/2-y,1/2+z
x,1/2-y,1/2-z
-x,1/2+y,1/2-z
1/2+x,y,1/2+z
1/2-x,-y,1/2+z
1/2+x,-y,1/2-z
1/2-x,y,1/2-z
1/2+x,1/2+y,z
1/2-x,1/2-y,z
1/2+x,1/2-y,-z
1/2-x,1/2+y,-z
loop_
_atom_site_type_symbol
_atom_site_label
_atom_site_fract_x
_atom_site_fract_y
_atom_site_fract_z
Si Si1 0.953471 0.859144 0.231294
Si Si2 0.370872 0.613041 0.562209
Si Si3 0.206335 0.142592 0.840124
Si Si4 0.168924 0.381528 0.947713
Si Si5 0.808635 0.568295 0.176107
O O1 0.958679 0.750000 0.250000
O O2 0.931957 0.911223 0.287092
O O3 0.821863 0.888340 0.201391
O O4 0.072437 0.877792 0.191320
O O5 0.303132 0.646860 0.508137
O O6 0.519872 0.652362 0.563514
O O7 0.356253 0.496752 0.555782
O O8 0.318797 0.623623 0.620716
O O9 0.250000 0.250000 0.822569
O O10 0.222684 0.144843 0.904173
O O11 0.290822 0.047114 0.827842
#
# Coordination Sequence:
#
# PCOD9328160 Si02
#       5
#    16  16  16  16  16
#     4  11  26  46  62  90 133 171 221 272 325 393
#     4   8  15  34  68  92 123 161 220 260 312 389
#     4  11  25  42  64  98 135 168 215 274 327 385
#     4   8  16  35  61  99 124 161 208 270 320 375
#     4  10  22  45  68  93 125 180 220 263 327 390
#
# _framework density 22.193792999999999
#
# number of rings (size 3 to 8) (size 9 to 14) (size 15 to 20)
#    0.000    2.400    0.000    3.000    2.800    5.200 
#   18.000    3.000    0.000    4.800    0.000    0.000 
#    0.000    0.000    0.000    0.000    0.000    0.000 
#
# Total GULP energy -111348.912803 kJ/mol
# GULP energy per Si atom -5567.445640 kJ/mol
# Density = 2.214328 g / cm^3
# Si number density = 22.193793 Si / 1000 Ang^3
#
#
#
# Elastic Constant Matrix: (Units=GPa)
#
#
# Indices 1 2 3 4 5 6 
#
# 1 92.1975 41.4859 87.5830 0.0000 0.0000 0.0000
# 2 41.4859 90.9599 48.0046 0.0000 0.0000 0.0000
# 3 87.5830 48.0046 198.8372 0.0000 0.0000 0.0000
# 4 0.0000 0.0000 0.0000 113.6329 0.0000 0.0000
# 5 0.0000 0.0000 0.0000 0.0000 37.1595 0.0000
# 6 0.0000 0.0000 0.0000 0.0000 0.0000 15.5606
#
#
#
# Elastic Compliance Matrix: (Units=1/GPa)
#
#
# Indices 1 2 3 4 5 6 
#
# 1 0.020658 -0.005294 -0.007821 0.000000 0.000000 0.000000
# 2 -0.005294 0.013956 -0.001037 0.000000 0.000000 0.000000
# 3 -0.007821 -0.001037 0.008725 0.000000 0.000000 0.000000
# 4 0.000000 0.000000 0.000000 0.008800 0.000000 0.000000
# 5 0.000000 0.000000 0.000000 0.000000 0.026911 0.000000
# 6 0.000000 0.000000 0.000000 0.000000 0.000000 0.064265
#
#
# Mechanical properties :
#
#
# Convention : Reuss Voigt Hill
#
# Bulk Modulus (GPa) = 66.51940 81.79351 74.15645
# Shear Modulus (GPa) = 28.30739 46.93203 37.61971
#
# Velocity S-wave (km/s) = 3.57524 4.60352 4.12157
# Velocity P-wave (km/s) = 6.86150 8.07408 7.49236
#
# Compressibility (1/GPa) = 0.01503321
#
# Stress axis : x y z
#
# Youngs Moduli (GPa) = 48.40634 71.65370 114.61598
#
# Poissons Ratio (x) = 0.37936 0.89645
# Poissons Ratio (y) = 0.25628 0.11889
# Poissons Ratio (z) = 0.37860 0.07433
#
# Static dielectric constant tensor:
#      x y z
#    x 1.801480 0.000000 0.000000 
#    y 0.000000 1.822340 0.000000 
#    z 0.000000 0.000000 1.914680 
# 
# From -- ./inp_files/52544.got.cif
#   From: 2010.05.17/outbox.cif.g08.bks.cpg/sg22_27_cif.got.tgz:52544.got - 2010.06.03 23:40:54.
