data_PCOD9328849
_publ_section_title
;
Structure prediction by ZEFSAII (Michael W. Deem and Ramdas Pophale) SiO2 
 PCOD9328849
Probable space group: F 2 2 2
;
_chemical_formula_sum "Si O2"
_cell_formula_units_Z 88
_cell_length_a 14.797967
_cell_length_b 14.247341
_cell_length_c 20.109577
_cell_angle_alpha 90.000000
_cell_angle_beta 90.000000
_cell_angle_gamma 90.000000
_cell_volume 4239.735942
_symmetry_space_group_name_H-M "F 2 2 2"
_symmetry_group_IT_number 22
_symmetry_cell_setting 'orthorhombic'
loop_
_space_group_symop_operation_xyz
x,y,z
-x,-y,z
x,-y,-z
-x,y,-z
x,1/2+y,1/2+z
-x,1/2-y,1/2+z
x,1/2-y,1/2-z
-x,1/2+y,1/2-z
1/2+x,y,1/2+z
1/2-x,-y,1/2+z
1/2+x,-y,1/2-z
1/2-x,y,1/2-z
1/2+x,1/2+y,z
1/2-x,1/2-y,z
1/2+x,1/2-y,-z
1/2-x,1/2+y,-z
loop_
_atom_site_type_symbol
_atom_site_label
_atom_site_fract_x
_atom_site_fract_y
_atom_site_fract_z
Si Si1 0.624507 0.892853 0.521294
Si Si2 0.772656 0.643251 0.871410
Si Si3 0.481985 0.607483 0.373893
Si Si4 0.250000 0.998026 0.250000
Si Si5 0.443270 0.589282 0.772612
Si Si6 0.952052 0.299136 0.594752
O O1 0.713568 0.881897 0.564612
O O2 0.542463 0.849268 0.565164
O O3 0.626756 0.835564 0.452729
O O4 0.607983 0.000000 0.500000
O O5 0.750000 0.750000 0.851158
O O6 0.621622 0.866436 0.884868
O O7 0.750266 0.930486 0.813798
O O8 0.500000 0.500000 0.393135
O O9 0.504787 0.615367 0.295114
O O10 0.539313 0.687612 0.409506
O O11 0.342034 0.057974 0.252997
O O12 0.500000 0.500000 0.800193
O O13 0.441472 0.666995 0.829666
#
# Coordination Sequence:
#
# PCOD9328849 Si02
#       6
#    16  16  16   8  16  16
#     4  11  24  44  70 102 137 183 248 300 355 437
#     4  12  24  43  70 106 142 189 254 293 362 450
#     4  11  24  46  68 104 149 188 238 309 381 432
#     4  12  23  40  73 108 144 188 238 311 371 444
#     4  11  22  41  71 108 146 181 234 306 379 429
#     4  11  22  43  72  99 140 188 240 301 363 437
#
# _framework density 20.756008999999999
#
# number of rings (size 3 to 8) (size 9 to 14) (size 15 to 20)
#    0.000    0.727    5.455    5.182    0.000    1.455 
#    3.273    3.636    0.000    0.000    0.000    0.000 
#    0.000    0.000    0.000    0.000    0.000    0.000 
#
# Total GULP energy -123047.861976 kJ/mol
# GULP energy per Si atom -5593.084635 kJ/mol
# Density = 2.070877 g / cm^3
# Si number density = 20.756009 Si / 1000 Ang^3
#
#
#
# Elastic Constant Matrix: (Units=GPa)
#
#
# Indices 1 2 3 4 5 6 
#
# 1 108.4455 38.8881 33.8140 0.0000 0.0000 0.0000
# 2 38.8881 154.9675 56.8771 0.0000 0.0000 0.0000
# 3 33.8140 56.8771 57.8028 0.0000 0.0000 0.0000
# 4 0.0000 0.0000 0.0000 19.3955 0.0000 0.0000
# 5 0.0000 0.0000 0.0000 0.0000 41.7462 0.0000
# 6 0.0000 0.0000 0.0000 0.0000 0.0000 -30.6580
#
#
#
# Elastic Compliance Matrix: (Units=1/GPa)
#
#
# Indices 1 2 3 4 5 6 
#
# 1 0.011319 -0.000642 -0.005990 0.000000 0.000000 0.000000
# 2 -0.000642 0.010137 -0.009599 0.000000 0.000000 0.000000
# 3 -0.005990 -0.009599 0.030250 0.000000 0.000000 0.000000
# 4 0.000000 0.000000 0.000000 0.051558 0.000000 0.000000
# 5 0.000000 0.000000 0.000000 0.000000 0.023954 0.000000
# 6 0.000000 0.000000 0.000000 0.000000 0.000000 -0.032618
#
#
# Mechanical properties :
#
#
# Convention : Reuss Voigt Hill
#
# Bulk Modulus (GPa) = 51.96480 64.48603 58.22542
# Shear Modulus (GPa) = 37.45939 18.87252 28.16595
#
# Velocity S-wave (km/s) = 4.25284 3.01866 3.68775
# Velocity P-wave (km/s) = 7.01469 6.57919 6.80043
#
# Compressibility (1/GPa) = 0.01924380
#
# Stress axis : x y z
#
# Youngs Moduli (GPa) = 88.34622 98.64557 33.05810
#
# Poissons Ratio (x) = 0.06334 0.19801
# Poissons Ratio (y) = 0.05672 0.31734
# Poissons Ratio (z) = 0.52917 0.94693
#
# Static dielectric constant tensor:
#      x y z
#    x 1.508020 0.000000 0.000000 
#    y 0.000000 1.757590 0.000000 
#    z 0.000000 0.000000 1.737040 
# 
# From -- ./inp_files/44206.got.cif
#   From: 2010.05.17/outbox.cif.g08.bks.cpg/sg22_23_cif.got.tgz:44206.got - 2010.06.03 23:40:54.
