data_PCOD9328349
_publ_section_title
;
Structure prediction by ZEFSAII (Michael W. Deem and Ramdas Pophale) SiO2 
 PCOD9328349
Probable space group: F 2 2 2
;
_chemical_formula_sum "Si O2"
_cell_formula_units_Z 60
_cell_length_a 32.144957
_cell_length_b 16.927694
_cell_length_c 5.071079
_cell_angle_alpha 90.000000
_cell_angle_beta 90.000000
_cell_angle_gamma 90.000000
_cell_volume 2759.376905
_symmetry_space_group_name_H-M "F 2 2 2"
_symmetry_group_IT_number 22
_symmetry_cell_setting 'orthorhombic'
loop_
_space_group_symop_operation_xyz
x,y,z
-x,-y,z
x,-y,-z
-x,y,-z
x,1/2+y,1/2+z
-x,1/2-y,1/2+z
x,1/2-y,1/2-z
-x,1/2+y,1/2-z
1/2+x,y,1/2+z
1/2-x,-y,1/2+z
1/2+x,-y,1/2-z
1/2-x,y,1/2-z
1/2+x,1/2+y,z
1/2-x,1/2-y,z
1/2+x,1/2-y,-z
1/2-x,1/2+y,-z
loop_
_atom_site_type_symbol
_atom_site_label
_atom_site_fract_x
_atom_site_fract_y
_atom_site_fract_z
Si Si1 0.798151 0.056776 0.747828
Si Si2 0.000000 0.000000 0.000000
Si Si3 0.521253 0.750000 0.750000
Si Si4 0.378084 0.345947 0.280854
Si Si5 0.571743 0.393966 0.194047
O O1 0.750000 0.083133 0.750000
O O2 0.829962 0.128856 0.713127
O O3 0.804672 0.000000 0.500000
O O4 0.804976 0.000000 0.000000
O O5 0.966642 0.954208 0.815997
O O6 0.500000 0.708409 0.500000
O O7 0.548529 0.685987 0.893763
O O8 0.381800 0.250000 0.250000
O O9 0.404207 0.375937 0.535513
O O10 0.395380 0.399812 0.040380
#
# Coordination Sequence:
#
# PCOD9328349 Si02
#       5
#    16   4   8  16  16
#     4  10  23  44  70 104 142 179 219 274 346 415
#     4  12  32  46  68 102 140 184 244 290 364 402
#     4  12  22  44  66  86 127 178 223 280 354 400
#     4  12  25  45  71 101 135 179 232 283 342 407
#     4  12  27  44  66  98 134 177 230 290 341 411
#
# _framework density 21.744039000000001
#
# number of rings (size 3 to 8) (size 9 to 14) (size 15 to 20)
#    0.000    0.533    4.000    3.200    5.600    1.600 
#    0.000    0.000    0.000    8.000    0.000    0.000 
#    0.000    0.000    0.000    0.000    0.000    0.000 
#
# Total GULP energy -83638.444198 kJ/mol
# GULP energy per Si atom -5575.896280 kJ/mol
# Density = 2.169455 g / cm^3
# Si number density = 21.744039 Si / 1000 Ang^3
#
#
#
# Elastic Constant Matrix: (Units=GPa)
#
#
# Indices 1 2 3 4 5 6 
#
# 1 159.3189 81.8710 60.6949 0.0000 -0.0004 -0.0002
# 2 81.8710 93.6839 40.1009 0.0007 0.0005 -0.0005
# 3 60.6949 40.1009 164.7748 0.0021 -0.0019 -0.0034
# 4 0.0000 0.0007 0.0021 4.4290 0.0007 -0.0008
# 5 -0.0004 0.0005 -0.0019 0.0007 22.4939 0.0014
# 6 -0.0002 -0.0005 -0.0034 -0.0008 0.0014 33.4086
#
#
#
# Elastic Compliance Matrix: (Units=1/GPa)
#
#
# Indices 1 2 3 4 5 6 
#
# 1 0.012003 -0.009597 -0.002086 0.000003 0.000000 0.000000
# 2 -0.009597 0.019588 -0.001232 -0.000003 -0.000001 0.000000
# 3 -0.002086 -0.001232 0.007137 -0.000003 0.000001 0.000001
# 4 0.000003 -0.000003 -0.000003 0.225782 -0.000007 0.000006
# 5 0.000000 -0.000001 0.000001 -0.000007 0.044457 -0.000002
# 6 0.000000 0.000000 0.000001 0.000006 -0.000002 0.029932
#
#
# Mechanical properties :
#
#
# Convention : Reuss Voigt Hill
#
# Bulk Modulus (GPa) = 77.52568 87.01234 82.26901
# Shear Modulus (GPa) = 13.54911 27.74037 20.64474
#
# Velocity S-wave (km/s) = 2.49894 3.57567 3.08465
# Velocity P-wave (km/s) = 6.63758 7.55981 7.11365
#
# Compressibility (1/GPa) = 0.01289895
#
# Stress axis : x y z
#
# Youngs Moduli (GPa) = 83.31400 51.05145 140.11371
#
# Poissons Ratio (x) = 0.48992 0.29224
# Poissons Ratio (y) = 0.79952 0.17265
# Poissons Ratio (z) = 0.17377 0.06291
#
# Static dielectric constant tensor:
#      x y z
#    x 1.887310 0.000000 0.000000 
#    y 0.000000 1.835390 0.000000 
#    z 0.000000 0.000000 1.792130 
# 
# From -- ./inp_files/2627.got.cif
#   From: 2010.05.17/outbox.cif.g08.bks.cpg/sg22_2_cif.got.tgz:2627.got - 2010.06.03 23:40:54.
