data_PCOD9328776
_publ_section_title
;
Structure prediction by ZEFSAII (Michael W. Deem and Ramdas Pophale) SiO2 
 PCOD9328776
Probable space group: F 2 2 2
;
_chemical_formula_sum "Si O2"
_cell_formula_units_Z 80
_cell_length_a 15.323157
_cell_length_b 26.201576
_cell_length_c 9.607893
_cell_angle_alpha 90.000000
_cell_angle_beta 90.000000
_cell_angle_gamma 90.000000
_cell_volume 3857.481249
_symmetry_space_group_name_H-M "F 2 2 2"
_symmetry_group_IT_number 22
_symmetry_cell_setting 'orthorhombic'
loop_
_space_group_symop_operation_xyz
x,y,z
-x,-y,z
x,-y,-z
-x,y,-z
x,1/2+y,1/2+z
-x,1/2-y,1/2+z
x,1/2-y,1/2-z
-x,1/2+y,1/2-z
1/2+x,y,1/2+z
1/2-x,-y,1/2+z
1/2+x,-y,1/2-z
1/2-x,y,1/2-z
1/2+x,1/2+y,z
1/2-x,1/2-y,z
1/2+x,1/2-y,-z
1/2-x,1/2+y,-z
loop_
_atom_site_type_symbol
_atom_site_label
_atom_site_fract_x
_atom_site_fract_y
_atom_site_fract_z
Si Si1 0.147103 0.693021 0.715689
Si Si2 0.752343 0.053343 0.419317
Si Si3 0.096165 0.629951 0.458263
Si Si4 0.599631 0.870792 0.031877
Si Si5 0.852197 0.806793 0.711519
O O1 0.112839 0.750000 0.750000
O O2 0.250000 0.693752 0.750000
O O3 0.127865 0.676044 0.558473
O O4 0.109762 0.647080 0.809896
O O5 0.750000 0.048448 0.250000
O O6 0.667183 0.085586 0.462577
O O7 0.835062 0.086000 0.474960
O O8 0.752705 0.000000 0.500000
O O9 0.096050 0.652902 0.303935
O O10 0.000000 0.613299 0.500000
O O11 0.629043 0.820265 0.946599
O O12 0.500000 0.883790 0.000000
O O13 0.877816 0.750000 0.750000
O O14 0.750000 0.813270 0.750000
#
# Coordination Sequence:
#
# PCOD9328776 Si02
#       5
#    16  16  16  16  16
#     4  11  23  39  65 103 145 182 219 262 318 386
#     4  12  28  52  73  96 128 170 225 286 347 398
#     4  12  24  43  69 100 137 176 222 271 330 398
#     4  12  24  43  69 100 137 176 222 271 330 398
#     4  11  21  41  69  97 139 188 225 266 322 394
#
# _framework density 20.738921999999999
#
# number of rings (size 3 to 8) (size 9 to 14) (size 15 to 20)
#    0.000    0.400    6.000    2.400    2.800    8.800 
#    0.000    2.000    0.000    0.000    0.000    0.000 
#    0.000    0.000    0.000    0.000    0.000    0.000 
#
# Total GULP energy -111881.191841 kJ/mol
# GULP energy per Si atom -5594.059592 kJ/mol
# Density = 2.069172 g / cm^3
# Si number density = 20.738922 Si / 1000 Ang^3
#
#
#
# Elastic Constant Matrix: (Units=GPa)
#
#
# Indices 1 2 3 4 5 6 
#
# 1 152.7725 47.3974 4.4953 0.0000 0.0000 0.0000
# 2 47.3974 131.9568 19.7059 0.0000 0.0000 0.0000
# 3 4.4953 19.7059 59.3902 0.0000 0.0000 0.0000
# 4 0.0000 0.0000 0.0000 36.2233 0.0000 0.0000
# 5 0.0000 0.0000 0.0000 0.0000 30.2244 0.0000
# 6 0.0000 0.0000 0.0000 0.0000 0.0000 -9.3126
#
#
#
# Elastic Compliance Matrix: (Units=1/GPa)
#
#
# Indices 1 2 3 4 5 6 
#
# 1 0.007373 -0.002699 0.000337 0.000000 0.000000 0.000000
# 2 -0.002699 0.008961 -0.002769 0.000000 0.000000 0.000000
# 3 0.000337 -0.002769 0.017731 0.000000 0.000000 0.000000
# 4 0.000000 0.000000 0.000000 0.027607 0.000000 0.000000
# 5 0.000000 0.000000 0.000000 0.000000 0.033086 0.000000
# 6 0.000000 0.000000 0.000000 0.000000 0.000000 -0.107382
#
#
# Mechanical properties :
#
#
# Convention : Reuss Voigt Hill
#
# Bulk Modulus (GPa) = 42.00907 54.14630 48.07769
# Shear Modulus (GPa) = 897.48952 29.59510 463.54231
#
# Velocity S-wave (km/s) = 20.82536 3.78171 14.96658
# Velocity P-wave (km/s) = 24.46550 6.72559 17.94150
#
# Compressibility (1/GPa) = 0.02380438
#
# Stress axis : x y z
#
# Youngs Moduli (GPa) = 135.62969 111.59346 56.39829
#
# Poissons Ratio (x) = 0.30116 -0.01903
# Poissons Ratio (y) = 0.36602 0.15617
# Poissons Ratio (z) = -0.04576 0.30901
#
# Static dielectric constant tensor:
#      x y z
#    x 1.768430 0.000000 0.000000 
#    y 0.000000 1.712610 0.000000 
#    z 0.000000 0.000000 1.709740 
# 
# From -- ./inp_files/19851.got.cif
#   From: 2010.05.17/outbox.cif.g08.bks.cpg/sg22_10_cif.got.tgz:19851.got - 2010.06.03 23:40:54.
