data_PCOD9328844
_publ_section_title
;
Structure prediction by ZEFSAII (Michael W. Deem and Ramdas Pophale) SiO2 
 PCOD9328844
Probable space group: F 2 2 2
;
_chemical_formula_sum "Si O2"
_cell_formula_units_Z 56
_cell_length_a 12.486411
_cell_length_b 12.967604
_cell_length_c 14.304466
_cell_angle_alpha 90.000000
_cell_angle_beta 90.000000
_cell_angle_gamma 90.000000
_cell_volume 2316.162445
_symmetry_space_group_name_H-M "F 2 2 2"
_symmetry_group_IT_number 22
_symmetry_cell_setting 'orthorhombic'
loop_
_space_group_symop_operation_xyz
x,y,z
-x,-y,z
x,-y,-z
-x,y,-z
x,1/2+y,1/2+z
-x,1/2-y,1/2+z
x,1/2-y,1/2-z
-x,1/2+y,1/2-z
1/2+x,y,1/2+z
1/2-x,-y,1/2+z
1/2+x,-y,1/2-z
1/2-x,y,1/2-z
1/2+x,1/2+y,z
1/2-x,1/2-y,z
1/2+x,1/2-y,-z
1/2-x,1/2+y,-z
loop_
_atom_site_type_symbol
_atom_site_label
_atom_site_fract_x
_atom_site_fract_y
_atom_site_fract_z
Si Si1 0.917876 0.840511 0.826324
Si Si2 0.126758 0.075586 0.232626
Si Si3 0.250000 0.750000 0.026931
Si Si4 0.094921 0.894360 0.556718
O O1 0.904846 0.750000 0.750000
O O2 0.841974 0.801905 0.909544
O O3 0.046976 0.860535 0.835683
O O4 0.876617 0.954669 0.795595
O O5 0.250000 0.106359 0.250000
O O6 0.073407 0.089913 0.335069
O O7 0.202527 0.664591 0.960171
O O8 0.000000 0.839268 0.500000
O O9 0.107111 0.000000 0.500000
#
# Coordination Sequence:
#
# PCOD9328844 Si02
#       4
#    16  16   8  16
#     4  11  22  41  69  96 125 177 227 261 317 404
#     4  11  24  42  66  97 132 171 219 275 328 386
#     4  12  25  42  69  98 130 170 224 274 323 388
#     4  11  23  42  64  95 132 171 213 268 330 390
#
# _framework density 24.177923
#
# number of rings (size 3 to 8) (size 9 to 14) (size 15 to 20)
#    0.000    0.857    0.000   10.714    0.000    5.143 
#    0.000    0.000    0.000    5.143    0.000    0.000 
#    0.000    0.000    0.000    0.000    0.000    0.000 
#
# Total GULP energy -78273.331758 kJ/mol
# GULP energy per Si atom -5590.952268 kJ/mol
# Density = 2.412289 g / cm^3
# Si number density = 24.177923 Si / 1000 Ang^3
#
#
#
# Elastic Constant Matrix: (Units=GPa)
#
#
# Indices 1 2 3 4 5 6 
#
# 1 160.8960 26.8232 29.6302 0.0000 0.0000 0.0000
# 2 26.8232 96.9069 31.4071 0.0000 0.0000 0.0000
# 3 29.6302 31.4071 75.0448 0.0000 0.0000 0.0000
# 4 0.0000 0.0000 0.0000 14.5717 0.0000 0.0000
# 5 0.0000 0.0000 0.0000 0.0000 -6.4687 0.0000
# 6 0.0000 0.0000 0.0000 0.0000 0.0000 34.8330
#
#
#
# Elastic Compliance Matrix: (Units=1/GPa)
#
#
# Indices 1 2 3 4 5 6 
#
# 1 0.006816 -0.001174 -0.002200 0.000000 0.000000 0.000000
# 2 -0.001174 0.012141 -0.004618 0.000000 0.000000 0.000000
# 3 -0.002200 -0.004618 0.016127 0.000000 0.000000 0.000000
# 4 0.000000 0.000000 0.000000 0.068626 0.000000 0.000000
# 5 0.000000 0.000000 0.000000 0.000000 -0.154592 0.000000
# 6 0.000000 0.000000 0.000000 0.000000 0.000000 0.028708
#
#
# Mechanical properties :
#
#
# Convention : Reuss Voigt Hill
#
# Bulk Modulus (GPa) = 52.35419 56.50765 54.43092
# Shear Modulus (GPa) = 28561.08954 24.91970 14293.00462
#
# Velocity S-wave (km/s) = 108.80498 3.21390 76.97030
# Velocity P-wave (km/s) = 125.72351 6.09873 89.00448
#
# Compressibility (1/GPa) = 0.01910067
#
# Stress axis : x y z
#
# Youngs Moduli (GPa) = 146.71362 82.36853 62.00968
#
# Poissons Ratio (x) = 0.09667 0.13642
# Poissons Ratio (y) = 0.17218 0.28633
# Poissons Ratio (z) = 0.32277 0.38034
#
# Static dielectric constant tensor:
#      x y z
#    x 1.286540 0.000000 0.000000 
#    y 0.000000 1.906170 0.000000 
#    z 0.000000 0.000000 1.872420 
# 
# From -- ./inp_files/28725.got.cif
#   From: 2010.05.17/outbox.cif.g08.bks.cpg/sg22_15_cif.got.tgz:28725.got - 2010.06.03 23:40:54.
