data_PCOD9328981
_publ_section_title
;
Structure prediction by ZEFSAII (Michael W. Deem and Ramdas Pophale) SiO2 
 PCOD9328981
Probable space group: F 2 2 2
;
_chemical_formula_sum "Si O2"
_cell_formula_units_Z 96
_cell_length_a 17.664078
_cell_length_b 23.096067
_cell_length_c 11.181437
_cell_angle_alpha 90.000000
_cell_angle_beta 90.000000
_cell_angle_gamma 90.000000
_cell_volume 4561.699004
_symmetry_space_group_name_H-M "F 2 2 2"
_symmetry_group_IT_number 22
_symmetry_cell_setting 'orthorhombic'
loop_
_space_group_symop_operation_xyz
x,y,z
-x,-y,z
x,-y,-z
-x,y,-z
x,1/2+y,1/2+z
-x,1/2-y,1/2+z
x,1/2-y,1/2-z
-x,1/2+y,1/2-z
1/2+x,y,1/2+z
1/2-x,-y,1/2+z
1/2+x,-y,1/2-z
1/2-x,y,1/2-z
1/2+x,1/2+y,z
1/2-x,1/2-y,z
1/2+x,1/2-y,-z
1/2-x,1/2+y,-z
loop_
_atom_site_type_symbol
_atom_site_label
_atom_site_fract_x
_atom_site_fract_y
_atom_site_fract_z
Si Si1 0.750000 0.750000 0.566256
Si Si2 0.911306 0.893523 0.659063
Si Si3 0.480584 0.067995 0.364860
Si Si4 0.750000 0.649782 0.750000
Si Si5 0.000000 0.802364 0.500000
Si Si6 0.633072 0.283689 0.632750
Si Si7 0.382522 0.000000 0.000000
Si Si8 0.835857 0.085881 0.707202
O O1 0.773083 0.694738 0.645573
O O2 0.683178 0.732539 0.479366
O O3 0.823655 0.885071 0.701273
O O4 0.923155 0.951989 0.581697
O O5 0.964866 0.898530 0.773708
O O6 0.942035 0.842210 0.575383
O O7 0.500000 0.086691 0.500000
O O8 0.394946 0.073372 0.314821
O O9 0.500000 0.000000 0.357966
O O10 0.048054 0.767410 0.595884
O O11 0.657829 0.250000 0.750000
O O12 0.639550 0.351743 0.657507
O O13 0.340664 0.039039 0.100139
O O14 0.750000 0.088807 0.750000
#
# Coordination Sequence:
#
# PCOD9328981 Si02
#       8
#     8  16  16   8   8  16   8  16
#     4  11  23  48  70 100 139 189 232 300 368 419
#     4  12  24  45  72 107 140 191 238 293 363 433
#     4  11  25  44  68 102 150 190 229 296 365 427
#     4  11  26  44  76 102 144 186 237 304 362 430
#     4  12  24  47  72 108 136 180 261 284 358 444
#     4  12  26  46  74 101 142 188 240 303 356 434
#     4  12  24  43  78 100 147 186 240 294 349 452
#     4  12  26  45  71 109 142 194 244 293 366 436
#
# _framework density 21.044791
#
# number of rings (size 3 to 8) (size 9 to 14) (size 15 to 20)
#    0.000    0.333    6.667    1.250    1.167    7.333 
#    1.500    0.000    0.000    0.000    0.000    0.000 
#    0.000    0.000    0.000    0.000    0.000    0.000 
#
# Total GULP energy -134106.513874 kJ/mol
# GULP energy per Si atom -5587.771411 kJ/mol
# Density = 2.099689 g / cm^3
# Si number density = 21.044791 Si / 1000 Ang^3
#
#
#
# Elastic Constant Matrix: (Units=GPa)
#
#
# Indices 1 2 3 4 5 6 
#
# 1 137.9180 12.3889 57.4070 0.0000 0.0000 0.0000
# 2 12.3889 45.8380 24.1670 0.0000 0.0000 0.0000
# 3 57.4070 24.1670 153.2088 0.0000 0.0000 0.0000
# 4 0.0000 0.0000 0.0000 27.0698 0.0000 0.0000
# 5 0.0000 0.0000 0.0000 0.0000 42.4201 0.0000
# 6 0.0000 0.0000 0.0000 0.0000 0.0000 36.9700
#
#
#
# Elastic Compliance Matrix: (Units=1/GPa)
#
#
# Indices 1 2 3 4 5 6 
#
# 1 0.008610 -0.000683 -0.003118 0.000000 0.000000 0.000000
# 2 -0.000683 0.023849 -0.003506 0.000000 0.000000 0.000000
# 3 -0.003118 -0.003506 0.008249 0.000000 0.000000 0.000000
# 4 0.000000 0.000000 0.000000 0.036942 0.000000 0.000000
# 5 0.000000 0.000000 0.000000 0.000000 0.023574 0.000000
# 6 0.000000 0.000000 0.000000 0.000000 0.000000 0.027049
#
#
# Mechanical properties :
#
#
# Convention : Reuss Voigt Hill
#
# Bulk Modulus (GPa) = 38.32478 58.32118 48.32298
# Shear Modulus (GPa) = 32.98495 37.49210 35.23852
#
# Velocity S-wave (km/s) = 3.96330 4.22541 4.09645
# Velocity P-wave (km/s) = 6.26053 7.18181 6.73694
#
# Compressibility (1/GPa) = 0.02609278
#
# Stress axis : x y z
#
# Youngs Moduli (GPa) = 116.14331 41.93044 121.23351
#
# Poissons Ratio (x) = 0.02864 0.37806
# Poissons Ratio (y) = 0.07932 0.42505
# Poissons Ratio (z) = 0.36219 0.14701
#
# Static dielectric constant tensor:
#      x y z
#    x 1.748540 0.000000 0.000000 
#    y 0.000000 1.728500 0.000000 
#    z 0.000000 0.000000 1.767830 
# 
# From -- ./inp_files/21661.got.cif
#   From: 2010.05.17/outbox.cif.g08.bks.cpg/sg22_11_cif.got.tgz:21661.got - 2010.06.03 23:40:54.
