data_PCOD9328870
_publ_section_title
;
Structure prediction by ZEFSAII (Michael W. Deem and Ramdas Pophale) SiO2 
 PCOD9328870
Probable space group: F 2 2 2
;
_chemical_formula_sum "Si O2"
_cell_formula_units_Z 72
_cell_length_a 14.204279
_cell_length_b 14.524311
_cell_length_c 14.450104
_cell_angle_alpha 90.000000
_cell_angle_beta 90.000000
_cell_angle_gamma 90.000000
_cell_volume 2981.162891
_symmetry_space_group_name_H-M "F 2 2 2"
_symmetry_group_IT_number 22
_symmetry_cell_setting 'orthorhombic'
loop_
_space_group_symop_operation_xyz
x,y,z
-x,-y,z
x,-y,-z
-x,y,-z
x,1/2+y,1/2+z
-x,1/2-y,1/2+z
x,1/2-y,1/2-z
-x,1/2+y,1/2-z
1/2+x,y,1/2+z
1/2-x,-y,1/2+z
1/2+x,-y,1/2-z
1/2-x,y,1/2-z
1/2+x,1/2+y,z
1/2-x,1/2-y,z
1/2+x,1/2-y,-z
1/2-x,1/2+y,-z
loop_
_atom_site_type_symbol
_atom_site_label
_atom_site_fract_x
_atom_site_fract_y
_atom_site_fract_z
Si Si1 0.107729 0.335460 0.303852
Si Si2 0.312430 0.598151 0.344940
Si Si3 0.446101 0.742731 0.418134
Si Si4 0.000000 0.500000 0.200419
Si Si5 0.201095 0.851117 0.982295
O O1 0.154394 0.250000 0.250000
O O2 0.179533 0.381569 0.377709
O O3 0.028740 0.276252 0.355346
O O4 0.046400 0.414622 0.255524
O O5 0.250000 0.590283 0.250000
O O6 0.363638 0.697190 0.357960
O O7 0.405310 0.535015 0.348770
O O8 0.255142 0.590249 0.440886
O O9 0.500000 0.685542 0.500000
O O10 0.397851 0.828208 0.469455
O O11 0.250000 0.750000 0.973083
#
# Coordination Sequence:
#
# PCOD9328870 Si02
#       5
#    16  16  16   8  16
#     4  11  22  43  73 104 150 196 252 310 381 453
#     4  11  23  45  72 109 148 196 260 320 383 462
#     4   9  19  40  73 103 136 192 250 311 382 460
#     4  12  26  44  74 110 148 208 254 322 390 440
#     4   9  21  40  71 104 138 194 251 304 380 453
#
# _framework density 24.151648000000002
#
# number of rings (size 3 to 8) (size 9 to 14) (size 15 to 20)
#    0.000    1.778    2.222    1.333    0.000    5.333 
#    4.000   16.667    4.889    0.000    0.000    0.000 
#    0.000    0.000    0.000    0.000    0.000    0.000 
#
# Total GULP energy -100260.712527 kJ/mol
# GULP energy per Si atom -5570.039585 kJ/mol
# Density = 2.409668 g / cm^3
# Si number density = 24.151648 Si / 1000 Ang^3
#
#
#
# Elastic Constant Matrix: (Units=GPa)
#
#
# Indices 1 2 3 4 5 6 
#
# 1 169.7848 31.1642 79.7205 0.0000 0.0000 0.0000
# 2 31.1642 70.7114 53.0102 0.0000 0.0000 0.0000
# 3 79.7205 53.0102 116.1541 0.0000 0.0000 0.0000
# 4 0.0000 0.0000 0.0000 3902.1094 0.0000 0.0000
# 5 0.0000 0.0000 0.0000 0.0000 63.1098 0.0000
# 6 0.0000 0.0000 0.0000 0.0000 0.0000 -13.0532
#
#
#
# Elastic Compliance Matrix: (Units=1/GPa)
#
#
# Indices 1 2 3 4 5 6 
#
# 1 0.008735 0.000980 -0.006442 0.000000 0.000000 0.000000
# 2 0.000980 0.021607 -0.010533 0.000000 0.000000 0.000000
# 3 -0.006442 -0.010533 0.017838 0.000000 0.000000 0.000000
# 4 0.000000 0.000000 0.000000 0.000256 0.000000 0.000000
# 5 0.000000 0.000000 0.000000 0.000000 0.015845 0.000000
# 6 0.000000 0.000000 0.000000 0.000000 0.000000 -0.076610
#
#
# Mechanical properties :
#
#
# Convention : Reuss Voigt Hill
#
# Bulk Modulus (GPa) = 61.77373 76.04890 68.91131
# Shear Modulus (GPa) = 199.53041 803.28356 501.40698
#
# Velocity S-wave (km/s) = 9.09918 18.25711 14.42423
# Velocity P-wave (km/s) = 11.66303 21.81710 17.49303
#
# Compressibility (1/GPa) = 0.01618811
#
# Stress axis : x y z
#
# Youngs Moduli (GPa) = 114.48454 46.28197 56.06030
#
# Poissons Ratio (x) = -0.04535 0.36115
# Poissons Ratio (y) = -0.11218 0.59050
# Poissons Ratio (z) = 0.73753 0.48750
#
# Static dielectric constant tensor:
#      x y z
#    x -23.845280 0.000000 0.000000 
#    y 0.000000 1.927240 0.000000 
#    z 0.000000 0.000000 2.205580 
# 
# From -- ./inp_files/29088.got.cif
#   From: 2010.05.17/outbox.cif.g08.bks.cpg/sg22_15_cif.got.tgz:29088.got - 2010.06.03 23:40:54.
