data_PCOD9328485
_publ_section_title
;
Structure prediction by ZEFSAII (Michael W. Deem and Ramdas Pophale) SiO2 
 PCOD9328485
Probable space group: F 2 2 2
;
_chemical_formula_sum "Si O2"
_cell_formula_units_Z 72
_cell_length_a 9.051608
_cell_length_b 20.129312
_cell_length_c 17.079532
_cell_angle_alpha 90.000000
_cell_angle_beta 90.000000
_cell_angle_gamma 90.000000
_cell_volume 3111.935847
_symmetry_space_group_name_H-M "F 2 2 2"
_symmetry_group_IT_number 22
_symmetry_cell_setting 'orthorhombic'
loop_
_space_group_symop_operation_xyz
x,y,z
-x,-y,z
x,-y,-z
-x,y,-z
x,1/2+y,1/2+z
-x,1/2-y,1/2+z
x,1/2-y,1/2-z
-x,1/2+y,1/2-z
1/2+x,y,1/2+z
1/2-x,-y,1/2+z
1/2+x,-y,1/2-z
1/2-x,y,1/2-z
1/2+x,1/2+y,z
1/2-x,1/2-y,z
1/2+x,1/2-y,-z
1/2-x,1/2+y,-z
loop_
_atom_site_type_symbol
_atom_site_label
_atom_site_fract_x
_atom_site_fract_y
_atom_site_fract_z
Si Si1 0.938687 0.073625 0.919599
Si Si2 0.912998 0.895930 0.759453
Si Si3 0.519152 0.750000 0.750000
Si Si4 0.912471 0.776676 0.423039
Si Si5 0.588322 0.932393 0.111320
O O1 0.763060 0.065530 0.906823
O O2 0.020647 0.103680 0.845451
O O3 0.000000 0.000000 0.920596
O O4 0.000000 0.104870 0.000000
O O5 0.750000 0.927671 0.750000
O O6 0.897765 0.818779 0.739211
O O7 0.034782 0.926830 0.701485
O O8 0.437939 0.748106 0.834687
O O9 0.750000 0.750000 0.440405
O O10 0.943847 0.856696 0.418167
O O11 0.000000 0.754330 0.500000
O O12 0.500000 0.000000 0.083981
#
# Coordination Sequence:
#
# PCOD9328485 Si02
#       5
#    16  16   8  16  16
#     4  11  25  43  66  98 137 180 229 290 359 434
#     4  11  23  43  70 100 136 184 240 297 360 434
#     4  10  24  44  68  98 138 186 240 296 360 434
#     4  11  26  46  73 105 142 188 244 302 364 439
#     4  11  25  46  73 103 143 192 243 300 369 443
#
# _framework density 23.136724000000001
#
# number of rings (size 3 to 8) (size 9 to 14) (size 15 to 20)
#    0.000    1.111    0.000    4.667    0.000   18.222 
#    0.000    0.000    0.000    0.000    0.000    0.000 
#    0.000    0.000    0.000    0.000    0.000    0.000 
#
# Total GULP energy -100208.629061 kJ/mol
# GULP energy per Si atom -5567.146059 kJ/mol
# Density = 2.308406 g / cm^3
# Si number density = 23.136724 Si / 1000 Ang^3
#
#
#
# Elastic Constant Matrix: (Units=GPa)
#
#
# Indices 1 2 3 4 5 6 
#
# 1 197.3739 17.2863 118.0299 0.0000 0.0000 0.0000
# 2 17.2863 129.0923 22.0670 0.0000 0.0000 0.0000
# 3 118.0299 22.0670 209.1212 0.0000 0.0000 0.0000
# 4 0.0000 0.0000 0.0000 1456.9210 0.0000 0.0000
# 5 0.0000 0.0000 0.0000 0.0000 23.0726 0.0000
# 6 0.0000 0.0000 0.0000 0.0000 0.0000 19.5654
#
#
#
# Elastic Compliance Matrix: (Units=1/GPa)
#
#
# Indices 1 2 3 4 5 6 
#
# 1 0.007659 -0.000292 -0.004292 0.000000 0.000000 0.000000
# 2 -0.000292 0.007900 -0.000669 0.000000 0.000000 0.000000
# 3 -0.004292 -0.000669 0.007275 0.000000 0.000000 0.000000
# 4 0.000000 0.000000 0.000000 0.000686 0.000000 0.000000
# 5 0.000000 0.000000 0.000000 0.000000 0.043342 0.000000
# 6 0.000000 0.000000 0.000000 0.000000 0.000000 0.051111
#
#
# Mechanical properties :
#
#
# Convention : Reuss Voigt Hill
#
# Bulk Modulus (GPa) = 81.11517 94.48376 87.79946
# Shear Modulus (GPa) = 37.71130 325.12539 181.41835
#
# Velocity S-wave (km/s) = 4.04162 11.86712 8.86463
# Velocity P-wave (km/s) = 7.54419 15.12274 11.95015
#
# Compressibility (1/GPa) = 0.01232815
#
# Stress axis : x y z
#
# Youngs Moduli (GPa) = 130.57261 126.58520 137.46072
#
# Poissons Ratio (x) = 0.03695 0.58995
# Poissons Ratio (y) = 0.03811 0.09194
# Poissons Ratio (z) = 0.56039 0.08467
#
# Static dielectric constant tensor:
#      x y z
#    x -3.546450 0.000000 0.000000 
#    y 0.000000 1.901050 0.000000 
#    z 0.000000 0.000000 2.031110 
# 
# From -- ./inp_files/34987.got.cif
#   From: 2010.05.17/outbox.cif.g08.bks.cpg/sg22_18_cif.got.tgz:34987.got - 2010.06.03 23:40:54.
