data_PCOD9328895
_publ_section_title
;
Structure prediction by ZEFSAII (Michael W. Deem and Ramdas Pophale) SiO2 
 PCOD9328895
Probable space group: F 2 2 2
;
_chemical_formula_sum "Si O2"
_cell_formula_units_Z 100
_cell_length_a 23.610496
_cell_length_b 14.277779
_cell_length_c 12.770686
_cell_angle_alpha 90.000000
_cell_angle_beta 90.000000
_cell_angle_gamma 90.000000
_cell_volume 4305.067774
_symmetry_space_group_name_H-M "F 2 2 2"
_symmetry_group_IT_number 22
_symmetry_cell_setting 'orthorhombic'
loop_
_space_group_symop_operation_xyz
x,y,z
-x,-y,z
x,-y,-z
-x,y,-z
x,1/2+y,1/2+z
-x,1/2-y,1/2+z
x,1/2-y,1/2-z
-x,1/2+y,1/2-z
1/2+x,y,1/2+z
1/2-x,-y,1/2+z
1/2+x,-y,1/2-z
1/2-x,y,1/2-z
1/2+x,1/2+y,z
1/2-x,1/2-y,z
1/2+x,1/2-y,-z
1/2-x,1/2+y,-z
loop_
_atom_site_type_symbol
_atom_site_label
_atom_site_fract_x
_atom_site_fract_y
_atom_site_fract_z
Si Si1 0.222054 0.350391 0.075946
Si Si2 0.153948 0.137129 0.624031
Si Si3 0.750000 0.250000 0.250000
Si Si4 0.434878 0.334542 0.122179
Si Si5 0.311878 0.500000 0.000000
Si Si6 0.057602 0.295662 0.616264
Si Si7 0.892068 0.026113 0.199508
Si Si8 0.163611 0.250000 0.250000
O O1 0.250000 0.250000 0.048308
O O2 0.271565 0.423018 0.052629
O O3 0.198614 0.331674 0.192850
O O4 0.172640 0.376674 0.995192
O O5 0.207758 0.185695 0.681689
O O6 0.102475 0.212228 0.622917
O O7 0.139469 0.043429 0.689974
O O8 0.491792 0.273733 0.136784
O O9 0.430064 0.434212 0.180850
O O10 0.377841 0.285600 0.159658
O O11 0.435169 0.343310 0.997621
O O12 0.349523 0.531207 0.099687
O O13 0.071261 0.380298 0.692791
#
# Coordination Sequence:
#
# PCOD9328895 Si02
#       8
#    16  16   4  16   8  16  16   8
#     4  12  26  48  68 102 150 203 250 307 378 461
#     4  12  24  41  71 107 143 187 246 305 372 439
#     4  12  20  38  68  94 142 186 228 292 362 446
#     4  11  25  43  74 100 140 190 243 301 381 439
#     4  12  26  44  75 108 153 194 254 310 388 452
#     4  11  22  47  71 104 140 185 236 308 369 451
#     4  12  23  43  70 107 142 180 242 312 365 444
#     4  12  27  47  68  98 147 195 254 300 372 460
#
# _framework density 23.228438000000001
#
# number of rings (size 3 to 8) (size 9 to 14) (size 15 to 20)
#    0.000    0.320    5.600    3.600    4.480    1.280 
#    0.000    0.000    0.000    0.000    0.000    5.600 
#    0.000    0.000    0.000    0.000    0.000    0.000 
#
# Total GULP energy -139694.556730 kJ/mol
# GULP energy per Si atom -5587.782269 kJ/mol
# Density = 2.317557 g / cm^3
# Si number density = 23.228438 Si / 1000 Ang^3
#
#
#
# Elastic Constant Matrix: (Units=GPa)
#
#
# Indices 1 2 3 4 5 6 
#
# 1 150.3606 45.8318 51.4571 0.0000 0.0000 0.0000
# 2 45.8318 59.0125 12.1896 0.0000 0.0000 0.0000
# 3 51.4571 12.1896 105.9793 0.0000 0.0000 0.0000
# 4 0.0000 0.0000 0.0000 40.6452 0.0000 0.0000
# 5 0.0000 0.0000 0.0000 0.0000 37.0950 0.0000
# 6 0.0000 0.0000 0.0000 0.0000 0.0000 25.9911
#
#
#
# Elastic Compliance Matrix: (Units=1/GPa)
#
#
# Indices 1 2 3 4 5 6 
#
# 1 0.010233 -0.007090 -0.004153 0.000000 0.000000 0.000000
# 2 -0.007090 0.022270 0.000881 0.000000 0.000000 0.000000
# 3 -0.004153 0.000881 0.011351 0.000000 0.000000 0.000000
# 4 0.000000 0.000000 0.000000 0.024603 0.000000 0.000000
# 5 0.000000 0.000000 0.000000 0.000000 0.026958 0.000000
# 6 0.000000 0.000000 0.000000 0.000000 0.000000 0.038475
#
#
# Mechanical properties :
#
#
# Convention : Reuss Voigt Hill
#
# Bulk Modulus (GPa) = 43.23385 59.36771 51.30078
# Shear Modulus (GPa) = 30.80284 34.47120 32.63702
#
# Velocity S-wave (km/s) = 3.64549 3.85646 3.75246
# Velocity P-wave (km/s) = 6.03095 6.74117 6.39593
#
# Compressibility (1/GPa) = 0.02313002
#
# Stress axis : x y z
#
# Youngs Moduli (GPa) = 97.72370 44.90418 88.09819
#
# Poissons Ratio (x) = 0.31835 0.36588
# Poissons Ratio (y) = 0.69281 -0.07760
# Poissons Ratio (z) = 0.40585 -0.03955
#
# Static dielectric constant tensor:
#      x y z
#    x 2.008210 0.000000 0.000000 
#    y 0.000000 1.861700 0.000000 
#    z 0.000000 0.000000 2.137280 
# 
# From -- ./inp_files/33147.got.cif
#   From: 2010.05.17/outbox.cif.g08.bks.cpg/sg22_17_cif.got.tgz:33147.got - 2010.06.03 23:40:54.
