data_PCOD9328410
_publ_section_title
;
Structure prediction by ZEFSAII (Michael W. Deem and Ramdas Pophale) SiO2 
 PCOD9328410
Probable space group: F 2 2 2
;
_chemical_formula_sum "Si O2"
_cell_formula_units_Z 120
_cell_length_a 11.229480
_cell_length_b 27.904301
_cell_length_c 20.007687
_cell_angle_alpha 90.000000
_cell_angle_beta 90.000000
_cell_angle_gamma 90.000000
_cell_volume 6269.424527
_symmetry_space_group_name_H-M "F 2 2 2"
_symmetry_group_IT_number 22
_symmetry_cell_setting 'orthorhombic'
loop_
_space_group_symop_operation_xyz
x,y,z
-x,-y,z
x,-y,-z
-x,y,-z
x,1/2+y,1/2+z
-x,1/2-y,1/2+z
x,1/2-y,1/2-z
-x,1/2+y,1/2-z
1/2+x,y,1/2+z
1/2-x,-y,1/2+z
1/2+x,-y,1/2-z
1/2-x,y,1/2-z
1/2+x,1/2+y,z
1/2-x,1/2-y,z
1/2+x,1/2-y,-z
1/2-x,1/2+y,-z
loop_
_atom_site_type_symbol
_atom_site_label
_atom_site_fract_x
_atom_site_fract_y
_atom_site_fract_z
Si Si1 0.104893 0.961295 0.151978
Si Si2 0.750000 0.475587 0.750000
Si Si3 0.014524 0.052273 0.609378
Si Si4 0.447563 0.304095 0.744005
Si Si5 0.123677 0.880922 0.037007
Si Si6 0.256168 0.195293 0.635778
Si Si7 0.469804 0.597156 0.738656
Si Si8 0.202290 0.947320 0.507130
O O1 0.214629 0.991045 0.185892
O O2 0.113738 0.926510 0.088029
O O3 0.063375 0.925241 0.210108
O O4 0.000000 0.000000 0.140040
O O5 0.641390 0.438766 0.740221
O O6 0.020514 0.091746 0.664779
O O7 0.897484 0.053851 0.563802
O O8 0.126259 0.057293 0.560827
O O9 0.000000 0.000000 0.642589
O O10 0.495296 0.250000 0.750000
O O11 0.354051 0.308005 0.805127
O O12 0.368687 0.311220 0.676252
O O13 0.542575 0.346628 0.751917
O O14 0.195739 0.840388 0.078263
O O15 0.208153 0.904465 0.981195
O O16 0.000000 0.867532 0.000000
O O17 0.250000 0.250000 0.610069
O O18 0.259425 0.000000 0.500000
#
# Coordination Sequence:
#
# PCOD9328410 Si02
#       8
#    16   8  16  16  16  16  16  16
#     4  10  24  37  53  87 122 161 195 232 296 360
#     4  10  24  34  51  88 123 162 194 240 294 366
#     4   9  18  35  54  78 110 162 207 245 281 332
#     4   9  18  35  65  96 111 136 192 259 315 354
#     4  12  25  36  59  88 123 162 196 244 305 370
#     4   9  19  39  65  89 111 144 195 255 307 357
#     4  11  20  36  58  83 118 152 196 253 300 348
#     4   9  21  34  52  79 119 159 204 237 277 357
#
# _framework density 19.140512000000001
#
# number of rings (size 3 to 8) (size 9 to 14) (size 15 to 20)
#    0.000    2.133    1.333    3.600    9.333    1.067 
#    0.000    0.333    8.800    0.000    0.000    0.000 
#    0.000    0.000    0.000    0.000    0.000    0.000 
#
# Total GULP energy -167135.060059 kJ/mol
# GULP energy per Si atom -5571.168669 kJ/mol
# Density = 1.909695 g / cm^3
# Si number density = 19.140512 Si / 1000 Ang^3
#
#
#
# Elastic Constant Matrix: (Units=GPa)
#
#
# Indices 1 2 3 4 5 6 
#
# 1 55.9301 39.7552 13.6238 0.0000 0.0000 0.0000
# 2 39.7552 141.5200 33.3928 0.0000 0.0000 0.0000
# 3 13.6238 33.3928 47.9604 0.0000 0.0000 0.0000
# 4 0.0000 0.0000 0.0000 23.5011 0.0000 0.0000
# 5 0.0000 0.0000 0.0000 0.0000 11.9736 0.0000
# 6 0.0000 0.0000 0.0000 0.0000 0.0000 23.0811
#
#
#
# Elastic Compliance Matrix: (Units=1/GPa)
#
#
# Indices 1 2 3 4 5 6 
#
# 1 0.022567 -0.005776 -0.002389 0.000000 0.000000 0.000000
# 2 -0.005776 0.009933 -0.005276 0.000000 0.000000 0.000000
# 3 -0.002389 -0.005276 0.025202 0.000000 0.000000 0.000000
# 4 0.000000 0.000000 0.000000 0.042551 0.000000 0.000000
# 5 0.000000 0.000000 0.000000 0.000000 0.083517 0.000000
# 6 0.000000 0.000000 0.000000 0.000000 0.000000 0.043325
#
#
# Mechanical properties :
#
#
# Convention : Reuss Voigt Hill
#
# Bulk Modulus (GPa) = 32.44441 46.55045 39.49743
# Shear Modulus (GPa) = 18.92142 22.28708 20.60425
#
# Velocity S-wave (km/s) = 3.14754 3.41602 3.28452
# Velocity P-wave (km/s) = 5.49516 6.31919 5.92152
#
# Compressibility (1/GPa) = 0.03082195
#
# Stress axis : x y z
#
# Youngs Moduli (GPa) = 44.31301 100.67035 39.67889
#
# Poissons Ratio (x) = 0.58143 0.09480
# Poissons Ratio (y) = 0.25594 0.20933
# Poissons Ratio (z) = 0.10587 0.53109
#
# Static dielectric constant tensor:
#      x y z
#    x 1.672570 0.000000 0.000000 
#    y 0.000000 1.692980 0.000000 
#    z 0.000000 0.000000 1.627690 
# 
# From -- ./inp_files/23138.got.cif
#   From: 2010.05.17/outbox.cif.g08.bks.cpg/sg22_12_cif.got.tgz:23138.got - 2010.06.03 23:40:54.
