data_PCOD9328738
_publ_section_title
;
Structure prediction by ZEFSAII (Michael W. Deem and Ramdas Pophale) SiO2 
 PCOD9328738
Probable space group: F 2 2 2
;
_chemical_formula_sum "Si O2"
_cell_formula_units_Z 80
_cell_length_a 14.284308
_cell_length_b 22.051801
_cell_length_c 12.629586
_cell_angle_alpha 90.000000
_cell_angle_beta 90.000000
_cell_angle_gamma 90.000000
_cell_volume 3978.252873
_symmetry_space_group_name_H-M "F 2 2 2"
_symmetry_group_IT_number 22
_symmetry_cell_setting 'orthorhombic'
loop_
_space_group_symop_operation_xyz
x,y,z
-x,-y,z
x,-y,-z
-x,y,-z
x,1/2+y,1/2+z
-x,1/2-y,1/2+z
x,1/2-y,1/2-z
-x,1/2+y,1/2-z
1/2+x,y,1/2+z
1/2-x,-y,1/2+z
1/2+x,-y,1/2-z
1/2-x,y,1/2-z
1/2+x,1/2+y,z
1/2-x,1/2-y,z
1/2+x,1/2-y,-z
1/2-x,1/2+y,-z
loop_
_atom_site_type_symbol
_atom_site_label
_atom_site_fract_x
_atom_site_fract_y
_atom_site_fract_z
Si Si1 0.760163 0.338911 0.078875
Si Si2 0.387943 0.929066 0.520993
Si Si3 0.917352 0.344418 0.693390
Si Si4 0.610737 0.184049 0.269741
Si Si5 0.406737 0.216749 0.077291
O O1 0.682882 0.298925 0.138888
O O2 0.836484 0.347149 0.172694
O O3 0.694312 0.394784 0.044738
O O4 0.817975 0.307889 0.986721
O O5 0.500000 0.916163 0.500000
O O6 0.370442 0.902480 0.639843
O O7 0.376821 0.000000 0.500000
O O8 0.897979 0.286534 0.616255
O O9 0.903630 0.323656 0.814786
O O10 0.028043 0.357072 0.691695
O O11 0.565554 0.250000 0.250000
O O12 0.500000 0.211347 0.000000
#
# Coordination Sequence:
#
# PCOD9328738 Si02
#       5
#    16  16  16  16  16
#     4  11  23  38  66  95 133 175 224 273 333 405
#     4  11  25  44  68  91 126 180 240 286 331 387
#     4  11  22  40  66  98 140 177 218 274 346 417
#     4  11  21  37  63 105 131 170 222 256 333 432
#     4  11  22  38  66 104 145 172 205 281 360 412
#
# _framework density 20.109331000000001
#
# number of rings (size 3 to 8) (size 9 to 14) (size 15 to 20)
#    0.000    1.000    6.000    1.800    5.600    0.800 
#    0.000    6.000    0.000    0.600    0.000    0.000 
#    0.000    0.000    0.000    0.000    0.000    0.000 
#
# Total GULP energy -111354.358065 kJ/mol
# GULP energy per Si atom -5567.717903 kJ/mol
# Density = 2.006356 g / cm^3
# Si number density = 20.109331 Si / 1000 Ang^3
#
#
#
# Elastic Constant Matrix: (Units=GPa)
#
#
# Indices 1 2 3 4 5 6 
#
# 1 104.1201 46.5029 58.8965 0.0000 0.0000 0.0000
# 2 46.5029 89.1540 76.4592 0.0000 0.0000 0.0000
# 3 58.8965 76.4592 153.7756 0.0000 0.0000 0.0000
# 4 0.0000 0.0000 0.0000 18.4740 0.0000 0.0000
# 5 0.0000 0.0000 0.0000 0.0000 31.1990 0.0000
# 6 0.0000 0.0000 0.0000 0.0000 0.0000 24.6399
#
#
#
# Elastic Compliance Matrix: (Units=1/GPa)
#
#
# Indices 1 2 3 4 5 6 
#
# 1 0.013199 -0.004444 -0.002845 0.000000 0.000000 0.000000
# 2 -0.004444 0.021052 -0.008765 0.000000 0.000000 0.000000
# 3 -0.002845 -0.008765 0.011951 0.000000 0.000000 0.000000
# 4 0.000000 0.000000 0.000000 0.054130 0.000000 0.000000
# 5 0.000000 0.000000 0.000000 0.000000 0.032052 0.000000
# 6 0.000000 0.000000 0.000000 0.000000 0.000000 0.040585
#
#
# Mechanical properties :
#
#
# Convention : Reuss Voigt Hill
#
# Bulk Modulus (GPa) = 70.96262 78.97410 74.96836
# Shear Modulus (GPa) = 23.83510 25.87532 24.85521
#
# Velocity S-wave (km/s) = 3.44652 3.59100 3.51950
# Velocity P-wave (km/s) = 7.15563 7.52006 7.34011
#
# Compressibility (1/GPa) = 0.01409193
#
# Stress axis : x y z
#
# Youngs Moduli (GPa) = 75.76472 47.50240 83.67608
#
# Poissons Ratio (x) = 0.21111 0.23810
# Poissons Ratio (y) = 0.33672 0.73342
# Poissons Ratio (z) = 0.21558 0.41636
#
# Static dielectric constant tensor:
#      x y z
#    x 1.763720 0.000000 0.000000 
#    y 0.000000 1.704110 0.000000 
#    z 0.000000 0.000000 1.843580 
# 
# From -- ./inp_files/19803.got.cif
#   From: 2010.05.17/outbox.cif.g08.bks.cpg/sg22_10_cif.got.tgz:19803.got - 2010.06.03 23:40:54.
