data_PCOD9328977
_publ_section_title
;
Structure prediction by ZEFSAII (Michael W. Deem and Ramdas Pophale) SiO2 
 PCOD9328977
Probable space group: F 2 2 2
;
_chemical_formula_sum "Si O2"
_cell_formula_units_Z 88
_cell_length_a 21.281147
_cell_length_b 13.168614
_cell_length_c 12.722355
_cell_angle_alpha 90.000000
_cell_angle_beta 90.000000
_cell_angle_gamma 90.000000
_cell_volume 3565.353608
_symmetry_space_group_name_H-M "F 2 2 2"
_symmetry_group_IT_number 22
_symmetry_cell_setting 'orthorhombic'
loop_
_space_group_symop_operation_xyz
x,y,z
-x,-y,z
x,-y,-z
-x,y,-z
x,1/2+y,1/2+z
-x,1/2-y,1/2+z
x,1/2-y,1/2-z
-x,1/2+y,1/2-z
1/2+x,y,1/2+z
1/2-x,-y,1/2+z
1/2+x,-y,1/2-z
1/2-x,y,1/2-z
1/2+x,1/2+y,z
1/2-x,1/2-y,z
1/2+x,1/2-y,-z
1/2-x,1/2+y,-z
loop_
_atom_site_type_symbol
_atom_site_label
_atom_site_fract_x
_atom_site_fract_y
_atom_site_fract_z
Si Si1 0.715016 0.146640 0.588919
Si Si2 0.500000 0.000000 0.711335
Si Si3 0.393969 0.981606 0.886290
Si Si4 0.539033 0.785331 0.640675
Si Si5 0.738805 0.076468 0.136039
Si Si6 0.403001 0.261370 0.421217
O O1 0.750000 0.250000 0.623408
O O2 0.730868 0.132422 0.464095
O O3 0.641780 0.169706 0.610676
O O4 0.732223 0.037874 0.636560
O O5 0.440957 0.988478 0.789850
O O6 0.518659 0.902655 0.642738
O O7 0.369301 0.866509 0.894910
O O8 0.335319 0.057127 0.879373
O O9 0.425845 0.000000 0.000000
O O10 0.568112 0.750000 0.750000
O O11 0.581522 0.755261 0.543427
O O12 0.471481 0.730383 0.630673
O O13 0.750000 0.123553 0.250000
#
# Coordination Sequence:
#
# PCOD9328977 Si02
#       6
#    16   8  16  16  16  16
#     4  11  23  47  67  98 138 181 225 285 343 408
#     4  12  27  39  76  98 140 178 232 290 336 408
#     4  12  23  46  70 100 134 186 236 282 338 412
#     4  11  25  45  66 109 135 179 230 277 346 410
#     4  11  26  43  70 103 134 178 238 278 345 413
#     4  11  25  44  71  95 148 179 223 286 350 407
#
# _framework density 24.681982999999999
#
# number of rings (size 3 to 8) (size 9 to 14) (size 15 to 20)
#    0.000    0.727    5.455    1.364    7.636    3.636 
#    0.000    0.000    0.000    0.000    0.000    0.000 
#    0.000    0.000    0.000    0.000    0.000    0.000 
#
# Total GULP energy -123189.058017 kJ/mol
# GULP energy per Si atom -5599.502637 kJ/mol
# Density = 2.462581 g / cm^3
# Si number density = 24.681983 Si / 1000 Ang^3
#
#
#
# Elastic Constant Matrix: (Units=GPa)
#
#
# Indices 1 2 3 4 5 6 
#
# 1 85.7339 -3.0583 -10.1061 0.0000 0.0000 0.0000
# 2 -3.0583 86.0132 -16.9159 0.0000 0.0000 0.0000
# 3 -10.1061 -16.9159 96.4534 0.0000 0.0000 0.0000
# 4 0.0000 0.0000 0.0000 20.1760 0.0000 0.0000
# 5 0.0000 0.0000 0.0000 0.0000 10.8163 0.0000
# 6 0.0000 0.0000 0.0000 0.0000 0.0000 17.2814
#
#
#
# Elastic Compliance Matrix: (Units=1/GPa)
#
#
# Indices 1 2 3 4 5 6 
#
# 1 0.011849 0.000689 0.001362 0.000000 0.000000 0.000000
# 2 0.000689 0.012082 0.002191 0.000000 0.000000 0.000000
# 3 0.001362 0.002191 0.010895 0.000000 0.000000 0.000000
# 4 0.000000 0.000000 0.000000 0.049564 0.000000 0.000000
# 5 0.000000 0.000000 0.000000 0.000000 0.092453 0.000000
# 6 0.000000 0.000000 0.000000 0.000000 0.000000 0.057866
#
#
# Mechanical properties :
#
#
# Convention : Reuss Voigt Hill
#
# Bulk Modulus (GPa) = 23.08888 23.11553 23.10221
# Shear Modulus (GPa) = 20.77627 29.54014 25.15820
#
# Velocity S-wave (km/s) = 2.90445 3.46328 3.19610
# Velocity P-wave (km/s) = 4.54122 5.03766 4.79587
#
# Compressibility (1/GPa) = 0.04331089
#
# Stress axis : x y z
#
# Youngs Moduli (GPa) = 84.39406 82.77087 91.78758
#
# Poissons Ratio (x) = -0.05705 -0.12505
# Poissons Ratio (y) = -0.05817 -0.20111
# Poissons Ratio (z) = -0.11498 -0.18136
#
# Static dielectric constant tensor:
#      x y z
#    x 1.942000 0.000000 0.000000 
#    y 0.000000 1.977630 0.000000 
#    z 0.000000 0.000000 1.991020 
# 
# From -- ./inp_files/32334.got.cif
#   From: 2010.05.17/outbox.cif.g08.bks.cpg/sg22_17_cif.got.tgz:32334.got - 2010.06.03 23:40:54.
