data_PCOD9328157
_publ_section_title
;
Structure prediction by ZEFSAII (Michael W. Deem and Ramdas Pophale) SiO2 
 PCOD9328157
Probable space group: F 2 2 2
;
_chemical_formula_sum "Si O2"
_cell_formula_units_Z 72
_cell_length_a 23.478600
_cell_length_b 15.023309
_cell_length_c 9.450923
_cell_angle_alpha 90.000000
_cell_angle_beta 90.000000
_cell_angle_gamma 90.000000
_cell_volume 3333.588749
_symmetry_space_group_name_H-M "F 2 2 2"
_symmetry_group_IT_number 22
_symmetry_cell_setting 'orthorhombic'
loop_
_space_group_symop_operation_xyz
x,y,z
-x,-y,z
x,-y,-z
-x,y,-z
x,1/2+y,1/2+z
-x,1/2-y,1/2+z
x,1/2-y,1/2-z
-x,1/2+y,1/2-z
1/2+x,y,1/2+z
1/2-x,-y,1/2+z
1/2+x,-y,1/2-z
1/2-x,y,1/2-z
1/2+x,1/2+y,z
1/2-x,1/2-y,z
1/2+x,1/2-y,-z
1/2-x,1/2+y,-z
loop_
_atom_site_type_symbol
_atom_site_label
_atom_site_fract_x
_atom_site_fract_y
_atom_site_fract_z
Si Si1 0.131254 0.656356 0.571170
Si Si2 0.750000 0.109365 0.250000
Si Si3 0.369047 0.533929 0.203807
Si Si4 0.042577 0.250000 0.250000
Si Si5 0.750000 0.250000 0.009651
Si Si6 0.026080 0.586278 0.155952
O O1 0.125067 0.571772 0.677507
O O2 0.117615 0.603723 0.424838
O O3 0.084600 0.728495 0.618816
O O4 0.193649 0.706194 0.565851
O O5 0.732295 0.171480 0.118033
O O6 0.697372 0.048278 0.282849
O O7 0.406953 0.569793 0.332768
O O8 0.999920 0.330703 0.232324
O O9 0.000000 0.500000 0.231883
O O10 0.000000 0.589644 0.000000
#
# Coordination Sequence:
#
# PCOD9328157 Si02
#       6
#    16   8  16   8   8  16
#     4  10  23  42  65  98 136 175 228 281 342 416
#     4   9  20  38  70  95 128 176 222 277 346 405
#     4  10  22  45  67  96 138 180 225 278 348 418
#     4  12  26  41  66  99 126 188 226 282 350 398
#     4   9  20  39  64 100 130 169 229 280 340 414
#     4  11  26  46  64  98 138 179 230 284 343 414
#
# _framework density 21.598344000000001
#
# number of rings (size 3 to 8) (size 9 to 14) (size 15 to 20)
#    0.000    1.778    2.222    0.000    6.222    4.000 
#    0.000    2.222    0.000    0.000    0.000    0.000 
#    0.000    0.000    0.000    0.000    0.000    0.000 
#
# Total GULP energy -100255.791932 kJ/mol
# GULP energy per Si atom -5569.766218 kJ/mol
# Density = 2.154919 g / cm^3
# Si number density = 21.598344 Si / 1000 Ang^3
#
#
#
# Elastic Constant Matrix: (Units=GPa)
#
#
# Indices 1 2 3 4 5 6 
#
# 1 85.2264 48.5065 29.5717 0.0000 0.0000 0.0000
# 2 48.5065 114.2290 7.2351 0.0000 0.0000 0.0000
# 3 29.5717 7.2351 35.9861 0.0000 0.0000 0.0000
# 4 0.0000 0.0000 0.0000 -4.4410 0.0000 0.0000
# 5 0.0000 0.0000 0.0000 0.0000 24.3645 0.0000
# 6 0.0000 0.0000 0.0000 0.0000 0.0000 24.6858
#
#
#
# Elastic Compliance Matrix: (Units=1/GPa)
#
#
# Indices 1 2 3 4 5 6 
#
# 1 0.022290 -0.008412 -0.016625 0.000000 0.000000 0.000000
# 2 -0.008412 0.012042 0.004492 0.000000 0.000000 0.000000
# 3 -0.016625 0.004492 0.040547 0.000000 0.000000 0.000000
# 4 0.000000 0.000000 0.000000 -0.225176 0.000000 0.000000
# 5 0.000000 0.000000 0.000000 0.000000 0.041043 0.000000
# 6 0.000000 0.000000 0.000000 0.000000 0.000000 0.040509
#
#
# Mechanical properties :
#
#
# Convention : Reuss Voigt Hill
#
# Bulk Modulus (GPa) = 29.59691 45.11869 37.35780
# Shear Modulus (GPa) = -305.06882 18.93041 -143.06920
#
# Velocity S-wave (km/s) = -11.89761 2.96374 -8.14768
# Velocity P-wave (km/s) = 13.22892 5.71375 8.43675
#
# Compressibility (1/GPa) = 0.03378731
#
# Stress axis : x y z
#
# Youngs Moduli (GPa) = 44.86333 83.04246 24.66249
#
# Poissons Ratio (x) = 0.69857 0.41003
# Poissons Ratio (y) = 0.37740 -0.11078
# Poissons Ratio (z) = 0.74587 -0.37300
#
# Static dielectric constant tensor:
#      x y z
#    x 1.812100 0.000000 0.000000 
#    y 0.000000 2.029950 0.000000 
#    z 0.000000 0.000000 1.901900 
# 
# From -- ./inp_files/23508.got.cif
#   From: 2010.05.17/outbox.cif.g08.bks.cpg/sg22_12_cif.got.tgz:23508.got - 2010.06.03 23:40:54.
