data_PCOD9328060
_publ_section_title
;
Structure prediction by ZEFSAII (Michael W. Deem and Ramdas Pophale) SiO2 
 PCOD9328060
Probable space group: F 2 2 2
;
_chemical_formula_sum "Si O2"
_cell_formula_units_Z 116
_cell_length_a 24.880030
_cell_length_b 9.427349
_cell_length_c 23.398231
_cell_angle_alpha 90.000000
_cell_angle_beta 90.000000
_cell_angle_gamma 90.000000
_cell_volume 5488.118863
_symmetry_space_group_name_H-M "F 2 2 2"
_symmetry_group_IT_number 22
_symmetry_cell_setting 'orthorhombic'
loop_
_space_group_symop_operation_xyz
x,y,z
-x,-y,z
x,-y,-z
-x,y,-z
x,1/2+y,1/2+z
-x,1/2-y,1/2+z
x,1/2-y,1/2-z
-x,1/2+y,1/2-z
1/2+x,y,1/2+z
1/2-x,-y,1/2+z
1/2+x,-y,1/2-z
1/2-x,y,1/2-z
1/2+x,1/2+y,z
1/2-x,1/2-y,z
1/2+x,1/2-y,-z
1/2-x,1/2+y,-z
loop_
_atom_site_type_symbol
_atom_site_label
_atom_site_fract_x
_atom_site_fract_y
_atom_site_fract_z
Si Si1 0.500000 0.000000 0.500000
Si Si2 0.055252 0.707791 0.588671
Si Si3 0.236406 0.406760 0.317633
Si Si4 0.887555 0.875947 0.202475
Si Si5 0.122840 0.189280 0.803934
Si Si6 0.464653 0.117942 0.852850
Si Si7 0.885280 0.033062 0.561537
Si Si8 0.202932 0.847894 0.388409
O O1 0.462854 0.905755 0.541918
O O2 0.071656 0.652970 0.651176
O O3 0.106910 0.799370 0.568890
O O4 0.003462 0.806757 0.600966
O O5 0.250000 0.410586 0.250000
O O6 0.250000 0.250000 0.340469
O O7 0.172265 0.402842 0.322482
O O8 0.268371 0.536693 0.346273
O O9 0.887536 0.750000 0.250000
O O10 0.896196 0.037106 0.220566
O O11 0.154695 0.250000 0.750000
O O12 0.066997 0.267027 0.817371
O O13 0.161630 0.237261 0.856639
O O14 0.500000 0.000000 0.820576
O O15 0.419651 0.031193 0.886892
O O16 0.909462 0.000000 0.500000
O O17 0.829702 0.948405 0.568057
O O18 0.250000 0.750000 0.413428
#
# Coordination Sequence:
#
# PCOD9328060 Si02
#       8
#     4  16  16  16  16  16  16  16
#     4  12  24  44  74  96 136 188 244 296 344 412
#     4  11  24  43  68 101 132 179 229 284 343 414
#     4  11  21  37  62  92 132 181 221 270 330 408
#     4  12  25  40  63 101 144 179 222 280 347 409
#     4  11  24  39  64  94 132 181 222 269 330 403
#     4   9  21  41  65  94 132 168 222 279 335 405
#     4  10  22  42  70  94 127 171 223 287 347 405
#     4  11  23  41  64  95 132 169 231 278 330 401
#
# _framework density 21.136569999999999
#
# number of rings (size 3 to 8) (size 9 to 14) (size 15 to 20)
#    0.000    1.241    2.759    3.310    5.793    3.586 
#    0.000    2.069    0.000    0.000    0.000    0.000 
#    0.000    0.000    0.000    0.000    0.000    0.000 
#
# Total GULP energy -161439.048150 kJ/mol
# GULP energy per Si atom -5566.863729 kJ/mol
# Density = 2.108846 g / cm^3
# Si number density = 21.136570 Si / 1000 Ang^3
#
#
#
# Elastic Constant Matrix: (Units=GPa)
#
#
# Indices 1 2 3 4 5 6 
#
# 1 70.7133 29.7185 -4.0577 0.0000 0.0000 0.0000
# 2 29.7185 140.0799 26.6452 0.0000 0.0000 0.0000
# 3 -4.0577 26.6452 36.0810 0.0000 0.0000 0.0000
# 4 0.0000 0.0000 0.0000 23.3594 0.0000 0.0000
# 5 0.0000 0.0000 0.0000 0.0000 2.6448 0.0000
# 6 0.0000 0.0000 0.0000 0.0000 0.0000 21.1591
#
#
#
# Elastic Compliance Matrix: (Units=1/GPa)
#
#
# Indices 1 2 3 4 5 6 
#
# 1 0.016295 -0.004428 0.005102 0.000000 0.000000 0.000000
# 2 -0.004428 0.009508 -0.007520 0.000000 0.000000 0.000000
# 3 0.005102 -0.007520 0.033842 0.000000 0.000000 0.000000
# 4 0.000000 0.000000 0.000000 0.042809 0.000000 0.000000
# 5 0.000000 0.000000 0.000000 0.000000 0.378094 0.000000
# 6 0.000000 0.000000 0.000000 0.000000 0.000000 0.047261
#
#
# Mechanical properties :
#
#
# Convention : Reuss Voigt Hill
#
# Bulk Modulus (GPa) = 21.75998 39.05400 30.40699
# Shear Modulus (GPa) = 8.97957 22.40390 15.69173
#
# Velocity S-wave (km/s) = 2.06339 3.25923 2.72765
# Velocity P-wave (km/s) = 3.99926 5.71669 4.93329
#
# Compressibility (1/GPa) = 0.04595593
#
# Stress axis : x y z
#
# Youngs Moduli (GPa) = 61.36783 105.16926 29.54867
#
# Poissons Ratio (x) = 0.46565 -0.15077
# Poissons Ratio (y) = 0.27171 0.22220
# Poissons Ratio (z) = -0.31312 0.79085
#
# Static dielectric constant tensor:
#      x y z
#    x 1.943550 0.000000 0.000000 
#    y 0.000000 2.212360 0.000000 
#    z 0.000000 0.000000 1.741130 
# 
# From -- ./inp_files/47528.got.cif
#   From: 2010.05.17/outbox.cif.g08.bks.cpg/sg22_24_cif.got.tgz:47528.got - 2010.06.03 23:40:54.
