data_PCOD9328631
_publ_section_title
;
Structure prediction by ZEFSAII (Michael W. Deem and Ramdas Pophale) SiO2 
 PCOD9328631
Probable space group: F 2 2 2
;
_chemical_formula_sum "Si O2"
_cell_formula_units_Z 64
_cell_length_a 11.560174
_cell_length_b 14.203856
_cell_length_c 15.897021
_cell_angle_alpha 90.000000
_cell_angle_beta 90.000000
_cell_angle_gamma 90.000000
_cell_volume 2610.275696
_symmetry_space_group_name_H-M "F 2 2 2"
_symmetry_group_IT_number 22
_symmetry_cell_setting 'orthorhombic'
loop_
_space_group_symop_operation_xyz
x,y,z
-x,-y,z
x,-y,-z
-x,y,-z
x,1/2+y,1/2+z
-x,1/2-y,1/2+z
x,1/2-y,1/2-z
-x,1/2+y,1/2-z
1/2+x,y,1/2+z
1/2-x,-y,1/2+z
1/2+x,-y,1/2-z
1/2-x,y,1/2-z
1/2+x,1/2+y,z
1/2-x,1/2-y,z
1/2+x,1/2-y,-z
1/2-x,1/2+y,-z
loop_
_atom_site_type_symbol
_atom_site_label
_atom_site_fract_x
_atom_site_fract_y
_atom_site_fract_z
Si Si1 0.304864 0.348231 0.358452
Si Si2 0.371042 0.523764 0.131854
Si Si3 0.551934 0.145829 0.212449
Si Si4 0.329471 0.602087 0.463640
O O1 0.250000 0.250000 0.333891
O O2 0.211834 0.432688 0.358845
O O3 0.415936 0.372758 0.302464
O O4 0.344939 0.334005 0.455324
O O5 0.500000 0.500000 0.103002
O O6 0.389628 0.576735 0.220361
O O7 0.303359 0.589459 0.065724
O O8 0.565805 0.250000 0.250000
O O9 0.607107 0.132456 0.120779
O O10 0.367502 0.500000 0.500000
#
# Coordination Sequence:
#
# PCOD9328631 Si02
#       4
#    16  16  16  16
#     4  11  27  52  77 112 161 213 262 316 401 482
#     4  11  27  46  80 114 160 204 261 326 396 465
#     4  12  28  48  83 120 158 202 271 333 395 467
#     4  10  26  49  79 113 156 210 265 323 400 472
#
# _framework density 24.518481000000001
#
# number of rings (size 3 to 8) (size 9 to 14) (size 15 to 20)
#    0.000    1.000    0.000    3.000   14.000   11.000 
#    4.500    0.000    0.000    0.000    0.000    0.000 
#    0.000    0.000    0.000    0.000    0.000    0.000 
#
# Total GULP energy -89702.615956 kJ/mol
# GULP energy per Si atom -5606.413497 kJ/mol
# Density = 2.446268 g / cm^3
# Si number density = 24.518481 Si / 1000 Ang^3
#
#
#
# Elastic Constant Matrix: (Units=GPa)
#
#
# Indices 1 2 3 4 5 6 
#
# 1 145.5139 33.4170 37.4952 0.0000 0.0000 0.0000
# 2 33.4170 97.8889 45.3926 0.0000 0.0000 0.0000
# 3 37.4952 45.3926 202.1307 0.0000 0.0000 0.0000
# 4 0.0000 0.0000 0.0000 37.6134 0.0000 0.0000
# 5 0.0000 0.0000 0.0000 0.0000 18.7779 0.0000
# 6 0.0000 0.0000 0.0000 0.0000 0.0000 32.9587
#
#
#
# Elastic Compliance Matrix: (Units=1/GPa)
#
#
# Indices 1 2 3 4 5 6 
#
# 1 0.007608 -0.002169 -0.000924 0.000000 0.000000 0.000000
# 2 -0.002169 0.012021 -0.002297 0.000000 0.000000 0.000000
# 3 -0.000924 -0.002297 0.005635 0.000000 0.000000 0.000000
# 4 0.000000 0.000000 0.000000 0.026586 0.000000 0.000000
# 5 0.000000 0.000000 0.000000 0.000000 0.053254 0.000000
# 6 0.000000 0.000000 0.000000 0.000000 0.000000 0.030341
#
#
# Mechanical properties :
#
#
# Convention : Reuss Voigt Hill
#
# Bulk Modulus (GPa) = 69.04342 75.34927 72.19634
# Shear Modulus (GPa) = 33.10068 39.81858 36.45963
#
# Velocity S-wave (km/s) = 3.67826 4.03429 3.86038
# Velocity P-wave (km/s) = 6.80150 7.24562 7.02707
#
# Compressibility (1/GPa) = 0.01448364
#
# Stress axis : x y z
#
# Youngs Moduli (GPa) = 131.43348 83.18552 177.47263
#
# Poissons Ratio (x) = 0.18041 0.16404
# Poissons Ratio (y) = 0.28504 0.40771
# Poissons Ratio (z) = 0.12149 0.19111
#
# Static dielectric constant tensor:
#      x y z
#    x 1.952780 0.000000 0.000000 
#    y 0.000000 1.999830 0.000000 
#    z 0.000000 0.000000 1.974150 
# 
# From -- ./inp_files/35696.got.cif
#   From: 2010.05.17/outbox.cif.g08.bks.cpg/sg22_18_cif.got.tgz:35696.got - 2010.06.03 23:40:54.
