data_PCOD9328522
_publ_section_title
;
Structure prediction by ZEFSAII (Michael W. Deem and Ramdas Pophale) SiO2 
 PCOD9328522
Probable space group: F 2 2 2
;
_chemical_formula_sum "Si O2"
_cell_formula_units_Z 88
_cell_length_a 30.667098
_cell_length_b 10.943424
_cell_length_c 11.628687
_cell_angle_alpha 90.000000
_cell_angle_beta 90.000000
_cell_angle_gamma 90.000000
_cell_volume 3902.622898
_symmetry_space_group_name_H-M "F 2 2 2"
_symmetry_group_IT_number 22
_symmetry_cell_setting 'orthorhombic'
loop_
_space_group_symop_operation_xyz
x,y,z
-x,-y,z
x,-y,-z
-x,y,-z
x,1/2+y,1/2+z
-x,1/2-y,1/2+z
x,1/2-y,1/2-z
-x,1/2+y,1/2-z
1/2+x,y,1/2+z
1/2-x,-y,1/2+z
1/2+x,-y,1/2-z
1/2-x,y,1/2-z
1/2+x,1/2+y,z
1/2-x,1/2-y,z
1/2+x,1/2-y,-z
1/2-x,1/2+y,-z
loop_
_atom_site_type_symbol
_atom_site_label
_atom_site_fract_x
_atom_site_fract_y
_atom_site_fract_z
Si Si1 0.000000 0.200254 0.000000
Si Si2 0.163455 0.383081 0.082440
Si Si3 0.210499 0.500000 0.500000
Si Si4 0.864270 0.997456 0.179883
Si Si5 0.250000 0.750000 0.543330
Si Si6 0.096101 0.250000 0.750000
Si Si7 0.064581 0.500000 0.500000
Si Si8 0.574151 0.645275 0.514209
O O1 0.035239 0.291049 0.056316
O O2 0.033696 0.103053 0.945247
O O3 0.142646 0.432496 0.199522
O O4 0.174088 0.500000 0.000000
O O5 0.205999 0.300609 0.104133
O O6 0.123149 0.315795 0.020211
O O7 0.179545 0.519804 0.608526
O O8 0.235885 0.626374 0.478111
O O9 0.874386 0.140366 0.200449
O O10 0.904180 0.951843 0.100704
O O11 0.069354 0.315172 0.852503
O O12 0.571928 0.500000 0.500000
#
# Coordination Sequence:
#
# PCOD9328522 Si02
#       8
#     8  16   8  16   8   8   8  16
#     4  11  23  44  70 104 151 191 248 322 368 471
#     4  11  24  47  74 107 150 196 256 315 385 466
#     4  11  28  45  76 107 148 193 254 313 395 454
#     4  11  24  46  75 106 145 203 241 314 383 467
#     4  12  26  51  69 116 150 192 259 325 380 478
#     4  12  20  44  76 103 148 198 252 309 380 462
#     4  10  24  47  68 108 146 198 252 301 397 451
#     4  11  23  44  72 106 146 197 253 313 387 458
#
# _framework density 22.548936000000001
#
# number of rings (size 3 to 8) (size 9 to 14) (size 15 to 20)
#    0.000    0.909    6.364    1.364    2.545    2.182 
#    3.273    0.909    0.000    0.000    0.000    0.000 
#    0.000    0.000    0.000    0.000    0.000    0.000 
#
# Total GULP energy -122645.345541 kJ/mol
# GULP energy per Si atom -5574.788434 kJ/mol
# Density = 2.249761 g / cm^3
# Si number density = 22.548936 Si / 1000 Ang^3
#
#
#
# Elastic Constant Matrix: (Units=GPa)
#
#
# Indices 1 2 3 4 5 6 
#
# 1 151.3356 65.5344 28.4231 0.0000 0.0000 0.0000
# 2 65.5344 140.3315 30.4453 0.0000 0.0000 0.0000
# 3 28.4231 30.4453 110.4331 0.0000 0.0000 0.0000
# 4 0.0000 0.0000 0.0000 34.5584 0.0000 0.0000
# 5 0.0000 0.0000 0.0000 0.0000 9.7017 0.0000
# 6 0.0000 0.0000 0.0000 0.0000 0.0000 44.4054
#
#
#
# Elastic Compliance Matrix: (Units=1/GPa)
#
#
# Indices 1 2 3 4 5 6 
#
# 1 0.008418 -0.003681 -0.001152 0.000000 0.000000 0.000000
# 2 -0.003681 0.009189 -0.001586 0.000000 0.000000 0.000000
# 3 -0.001152 -0.001586 0.009789 0.000000 0.000000 0.000000
# 4 0.000000 0.000000 0.000000 0.028937 0.000000 0.000000
# 5 0.000000 0.000000 0.000000 0.000000 0.103075 0.000000
# 6 0.000000 0.000000 0.000000 0.000000 0.000000 0.022520
#
#
# Mechanical properties :
#
#
# Convention : Reuss Voigt Hill
#
# Bulk Modulus (GPa) = 68.68907 72.32287 70.50597
# Shear Modulus (GPa) = 25.04778 36.24625 30.64702
#
# Velocity S-wave (km/s) = 3.33651 4.01365 3.69064
# Velocity P-wave (km/s) = 6.73583 7.32274 7.03541
#
# Compressibility (1/GPa) = 0.01455836
#
# Stress axis : x y z
#
# Youngs Moduli (GPa) = 118.78767 108.82246 102.15655
#
# Poissons Ratio (x) = 0.40063 0.11766
# Poissons Ratio (y) = 0.43731 0.16201
# Poissons Ratio (z) = 0.13682 0.17258
#
# Static dielectric constant tensor:
#      x y z
#    x 1.880600 0.000000 0.000000 
#    y 0.000000 1.888180 0.000000 
#    z 0.000000 0.000000 1.757600 
# 
# From -- ./inp_files/25300.got.cif
#   From: 2010.05.17/outbox.cif.g08.bks.cpg/sg22_13_cif.got.tgz:25300.got - 2010.06.03 23:40:54.
