data_PCOD9328871
_publ_section_title
;
Structure prediction by ZEFSAII (Michael W. Deem and Ramdas Pophale) SiO2 
 PCOD9328871
Probable space group: F 2 2 2
;
_chemical_formula_sum "Si O2"
_cell_formula_units_Z 96
_cell_length_a 13.447093
_cell_length_b 13.581183
_cell_length_c 22.343940
_cell_angle_alpha 90.000000
_cell_angle_beta 90.000000
_cell_angle_gamma 90.000000
_cell_volume 4080.616357
_symmetry_space_group_name_H-M "F 2 2 2"
_symmetry_group_IT_number 22
_symmetry_cell_setting 'orthorhombic'
loop_
_space_group_symop_operation_xyz
x,y,z
-x,-y,z
x,-y,-z
-x,y,-z
x,1/2+y,1/2+z
-x,1/2-y,1/2+z
x,1/2-y,1/2-z
-x,1/2+y,1/2-z
1/2+x,y,1/2+z
1/2-x,-y,1/2+z
1/2+x,-y,1/2-z
1/2-x,y,1/2-z
1/2+x,1/2+y,z
1/2-x,1/2-y,z
1/2+x,1/2-y,-z
1/2-x,1/2+y,-z
loop_
_atom_site_type_symbol
_atom_site_label
_atom_site_fract_x
_atom_site_fract_y
_atom_site_fract_z
Si Si1 0.764039 0.604578 0.178623
Si Si2 0.000000 0.252088 0.500000
Si Si3 0.188932 0.886956 0.486943
Si Si4 0.250000 0.750000 0.910987
Si Si5 0.448064 0.601249 0.891938
Si Si6 0.900887 0.713148 0.685855
Si Si7 0.209719 0.391873 0.854310
O O1 0.750000 0.621999 0.250000
O O2 0.816217 0.692421 0.140379
O O3 0.658927 0.592441 0.141556
O O4 0.817261 0.500330 0.167447
O O5 0.091537 0.180928 0.516580
O O6 0.039324 0.320720 0.445983
O O7 0.253005 0.838751 0.539914
O O8 0.244500 0.888493 0.423340
O O9 0.163290 0.000000 0.500000
O O10 0.500000 0.500000 0.912108
O O11 0.517934 0.643887 0.840952
O O12 0.929827 0.750000 0.750000
O O13 0.877552 0.812616 0.649799
O O14 0.799101 0.650361 0.685495
#
# Coordination Sequence:
#
# PCOD9328871 Si02
#       7
#    16   8  16   8  16  16  16
#     4  12  26  47  74 104 153 205 254 303 380 475
#     4  12  26  50  72 102 152 194 246 326 392 454
#     4  12  25  45  73 105 144 189 253 313 383 457
#     4  12  25  44  70 104 143 192 242 314 374 454
#     4  12  26  46  73 113 148 193 251 322 389 445
#     4  11  23  42  71 106 145 185 240 303 371 445
#     4  11  22  43  73 107 140 190 251 309 373 452
#
# _framework density 23.525857999999999
#
# number of rings (size 3 to 8) (size 9 to 14) (size 15 to 20)
#    0.000    0.333    6.667    3.750    0.000    1.333 
#    3.000    0.000    0.000    0.000    0.000    0.000 
#    0.000    0.000    0.000    0.000    0.000    0.000 
#
# Total GULP energy -133930.549056 kJ/mol
# GULP energy per Si atom -5580.439544 kJ/mol
# Density = 2.347231 g / cm^3
# Si number density = 23.525858 Si / 1000 Ang^3
#
#
#
# Elastic Constant Matrix: (Units=GPa)
#
#
# Indices 1 2 3 4 5 6 
#
# 1 69.7833 15.4579 -8.8214 0.0000 0.0000 0.0000
# 2 15.4579 170.6775 40.4935 0.0000 0.0000 0.0000
# 3 -8.8214 40.4935 149.6480 0.0000 0.0000 0.0000
# 4 0.0000 0.0000 0.0000 -28.7014 0.0000 0.0000
# 5 0.0000 0.0000 0.0000 0.0000 17.1325 0.0000
# 6 0.0000 0.0000 0.0000 0.0000 0.0000 27.7088
#
#
#
# Elastic Compliance Matrix: (Units=1/GPa)
#
#
# Indices 1 2 3 4 5 6 
#
# 1 0.014866 -0.001661 0.001326 0.000000 0.000000 0.000000
# 2 -0.001661 0.006447 -0.001842 0.000000 0.000000 0.000000
# 3 0.001326 -0.001842 0.007259 0.000000 0.000000 0.000000
# 4 0.000000 0.000000 0.000000 -0.034842 0.000000 0.000000
# 5 0.000000 0.000000 0.000000 0.000000 0.058369 0.000000
# 6 0.000000 0.000000 0.000000 0.000000 0.000000 0.036090
#
#
# Mechanical properties :
#
#
# Convention : Reuss Voigt Hill
#
# Bulk Modulus (GPa) = 41.29465 53.81874 47.55669
# Shear Modulus (GPa) = 49.69449 26.09324 37.89386
#
# Velocity S-wave (km/s) = 4.60100 3.33397 4.01775
# Velocity P-wave (km/s) = 6.76880 6.14383 6.46387
#
# Compressibility (1/GPa) = 0.02421621
#
# Stress axis : x y z
#
# Youngs Moduli (GPa) = 67.26956 155.12282 137.76006
#
# Poissons Ratio (x) = 0.25764 -0.18263
# Poissons Ratio (y) = 0.11173 0.25379
# Poissons Ratio (z) = -0.08918 0.28578
#
# Static dielectric constant tensor:
#      x y z
#    x 2.069920 0.000000 0.000000 
#    y 0.000000 2.041010 0.000000 
#    z 0.000000 0.000000 1.903080 
# 
# From -- ./inp_files/43515.got.cif
#   From: 2010.05.17/outbox.cif.g08.bks.cpg/sg22_22_cif.got.tgz:43515.got - 2010.06.03 23:40:54.
