data_PCOD9328257
_publ_section_title
;
Structure prediction by ZEFSAII (Michael W. Deem and Ramdas Pophale) SiO2 
 PCOD9328257
Probable space group: F 2 2 2
;
_chemical_formula_sum "Si O2"
_cell_formula_units_Z 104
_cell_length_a 9.134639
_cell_length_b 19.032993
_cell_length_c 26.780857
_cell_angle_alpha 90.000000
_cell_angle_beta 90.000000
_cell_angle_gamma 90.000000
_cell_volume 4656.106947
_symmetry_space_group_name_H-M "F 2 2 2"
_symmetry_group_IT_number 22
_symmetry_cell_setting 'orthorhombic'
loop_
_space_group_symop_operation_xyz
x,y,z
-x,-y,z
x,-y,-z
-x,y,-z
x,1/2+y,1/2+z
-x,1/2-y,1/2+z
x,1/2-y,1/2-z
-x,1/2+y,1/2-z
1/2+x,y,1/2+z
1/2-x,-y,1/2+z
1/2+x,-y,1/2-z
1/2-x,y,1/2-z
1/2+x,1/2+y,z
1/2-x,1/2-y,z
1/2+x,1/2-y,-z
1/2-x,1/2+y,-z
loop_
_atom_site_type_symbol
_atom_site_label
_atom_site_fract_x
_atom_site_fract_y
_atom_site_fract_z
Si Si1 0.673332 0.492236 0.444754
Si Si2 0.000000 0.224445 0.000000
Si Si3 0.010011 0.862090 0.178221
Si Si4 0.211161 0.843050 0.084193
Si Si5 0.725508 0.615939 0.366914
Si Si6 0.941027 0.799820 0.663276
Si Si7 0.250000 0.250000 0.067623
Si Si8 0.750000 0.134017 0.250000
O O1 0.500000 0.500000 0.448174
O O2 0.740424 0.500000 0.500000
O O3 0.706813 0.413379 0.430502
O O4 0.719828 0.549315 0.403410
O O5 0.891084 0.267734 0.965205
O O6 0.114903 0.184158 0.963151
O O7 0.848864 0.893506 0.174917
O O8 0.095770 0.867490 0.126084
O O9 0.001422 0.776251 0.181570
O O10 0.111846 0.897434 0.220308
O O11 0.344025 0.799268 0.112060
O O12 0.571516 0.644505 0.345329
O O13 0.781931 0.682302 0.399535
O O14 0.829401 0.823645 0.705888
#
# Coordination Sequence:
#
# PCOD9328257 Si02
#       8
#    16   8  16  16  16  16   8   8
#     4  11  25  44  64  91 130 187 237 265 324 397
#     4  12  26  38  65  96 133 190 218 286 334 406
#     4  11  22  41  65 103 133 170 220 275 347 399
#     4  11  23  43  63  90 133 177 233 269 324 400
#     4  12  23  42  64  98 136 172 222 288 329 395
#     4  11  21  41  72  95 137 172 218 279 342 410
#     4  12  26  40  58 101 138 171 226 270 350 394
#     4  10  23  40  70 104 134 178 214 267 354 433
#
# _framework density 22.336255999999999
#
# number of rings (size 3 to 8) (size 9 to 14) (size 15 to 20)
#    0.000    0.769    4.615    3.692    4.308    2.462 
#    0.000    1.538    0.000   14.769    0.000    0.000 
#    0.000    0.000    0.000    0.000    0.000    0.000 
#
# Total GULP energy -145086.415094 kJ/mol
# GULP energy per Si atom -5580.246734 kJ/mol
# Density = 2.228542 g / cm^3
# Si number density = 22.336256 Si / 1000 Ang^3
#
#
#
# Elastic Constant Matrix: (Units=GPa)
#
#
# Indices 1 2 3 4 5 6 
#
# 1 154.5240 10.8868 51.4278 0.0000 0.0000 0.0000
# 2 10.8868 20.3065 12.1773 0.0000 0.0000 0.0000
# 3 51.4278 12.1773 90.5926 0.0000 0.0000 0.0000
# 4 0.0000 0.0000 0.0000 13.1828 0.0000 0.0000
# 5 0.0000 0.0000 0.0000 0.0000 47.9241 0.0000
# 6 0.0000 0.0000 0.0000 0.0000 0.0000 6.2103
#
#
#
# Elastic Compliance Matrix: (Units=1/GPa)
#
#
# Indices 1 2 3 4 5 6 
#
# 1 0.008033 -0.001710 -0.004330 0.000000 0.000000 0.000000
# 2 -0.001710 0.053927 -0.006278 0.000000 0.000000 0.000000
# 3 -0.004330 -0.006278 0.014341 0.000000 0.000000 0.000000
# 4 0.000000 0.000000 0.000000 0.075856 0.000000 0.000000
# 5 0.000000 0.000000 0.000000 0.000000 0.020866 0.000000
# 6 0.000000 0.000000 0.000000 0.000000 0.000000 0.161022
#
#
# Mechanical properties :
#
#
# Convention : Reuss Voigt Hill
#
# Bulk Modulus (GPa) = 19.35592 46.04521 32.70057
# Shear Modulus (GPa) = 13.30131 26.19221 19.74676
#
# Velocity S-wave (km/s) = 2.44294 3.42809 2.97655
# Velocity P-wave (km/s) = 4.07943 6.02730 5.14636
#
# Compressibility (1/GPa) = 0.05166378
#
# Stress axis : x y z
#
# Youngs Moduli (GPa) = 124.48355 18.54365 69.73201
#
# Poissons Ratio (x) = 0.03171 0.30197
# Poissons Ratio (y) = 0.21286 0.43778
# Poissons Ratio (z) = 0.53907 0.11642
#
# Static dielectric constant tensor:
#      x y z
#    x 1.862190 0.000000 0.000000 
#    y 0.000000 2.749780 0.000000 
#    z 0.000000 0.000000 1.889540 
# 
# From -- ./inp_files/52022.got.cif
#   From: 2010.05.17/outbox.cif.g08.bks.cpg/sg22_27_cif.got.tgz:52022.got - 2010.06.03 23:40:54.
