data_PCOD9328867
_publ_section_title
;
Structure prediction by ZEFSAII (Michael W. Deem and Ramdas Pophale) SiO2 
 PCOD9328867
Probable space group: F 2 2 2
;
_chemical_formula_sum "Si O2"
_cell_formula_units_Z 68
_cell_length_a 9.765567
_cell_length_b 17.667961
_cell_length_c 17.088983
_cell_angle_alpha 90.000000
_cell_angle_beta 90.000000
_cell_angle_gamma 90.000000
_cell_volume 2948.493086
_symmetry_space_group_name_H-M "F 2 2 2"
_symmetry_group_IT_number 22
_symmetry_cell_setting 'orthorhombic'
loop_
_space_group_symop_operation_xyz
x,y,z
-x,-y,z
x,-y,-z
-x,y,-z
x,1/2+y,1/2+z
-x,1/2-y,1/2+z
x,1/2-y,1/2-z
-x,1/2+y,1/2-z
1/2+x,y,1/2+z
1/2-x,-y,1/2+z
1/2+x,-y,1/2-z
1/2-x,y,1/2-z
1/2+x,1/2+y,z
1/2-x,1/2-y,z
1/2+x,1/2-y,-z
1/2-x,1/2+y,-z
loop_
_atom_site_type_symbol
_atom_site_label
_atom_site_fract_x
_atom_site_fract_y
_atom_site_fract_z
Si Si1 0.068314 0.376324 0.828753
Si Si2 0.775284 0.841117 0.946517
Si Si3 0.758564 0.159777 0.628054
Si Si4 0.750000 0.750000 0.750000
Si Si5 0.991726 0.082979 0.163224
O O1 0.156614 0.391962 0.905967
O O2 0.146944 0.300817 0.799853
O O3 0.076986 0.424653 0.749210
O O4 0.912280 0.365074 0.853152
O O5 0.750000 0.750000 0.945454
O O6 0.907008 0.862201 0.894272
O O7 0.779929 0.858821 0.038057
O O8 0.750000 0.250000 0.639872
O O9 0.640216 0.118935 0.676593
O O10 0.000000 0.000000 0.127380
#
# Coordination Sequence:
#
# PCOD9328867 Si02
#       5
#    16  16  16   4  16
#     4  12  22  40  68  97 137 179 241 279 349 413
#     4  11  22  43  70 101 138 185 233 286 358 424
#     4  11  25  41  69 106 140 175 238 301 344 415
#     4  12  20  40  74 104 132 200 230 304 364 416
#     4  12  27  46  69 102 146 190 231 286 358 428
#
# _framework density 23.062626999999999
#
# number of rings (size 3 to 8) (size 9 to 14) (size 15 to 20)
#    0.000    0.471    3.529    4.941    0.000   10.353 
#    0.000    0.000    0.000    4.235    0.000    0.000 
#    0.000    0.000    0.000    0.000    0.000    0.000 
#
# Total GULP energy -95006.598885 kJ/mol
# GULP energy per Si atom -5588.623464 kJ/mol
# Density = 2.301014 g / cm^3
# Si number density = 23.062627 Si / 1000 Ang^3
#
#
#
# Elastic Constant Matrix: (Units=GPa)
#
#
# Indices 1 2 3 4 5 6 
#
# 1 161.7204 14.7818 8.6310 0.0000 0.0000 0.0000
# 2 14.7818 66.9208 3.4699 0.0000 0.0000 0.0000
# 3 8.6310 3.4699 93.7487 0.0000 0.0000 0.0000
# 4 0.0000 0.0000 0.0000 37.5070 0.0000 0.0000
# 5 0.0000 0.0000 0.0000 0.0000 4.1041 0.0000
# 6 0.0000 0.0000 0.0000 0.0000 0.0000 12.4008
#
#
#
# Elastic Compliance Matrix: (Units=1/GPa)
#
#
# Indices 1 2 3 4 5 6 
#
# 1 0.006337 -0.001372 -0.000533 0.000000 0.000000 0.000000
# 2 -0.001372 0.015269 -0.000439 0.000000 0.000000 0.000000
# 3 -0.000533 -0.000439 0.010732 0.000000 0.000000 0.000000
# 4 0.000000 0.000000 0.000000 0.026662 0.000000 0.000000
# 5 0.000000 0.000000 0.000000 0.000000 0.243660 0.000000
# 6 0.000000 0.000000 0.000000 0.000000 0.000000 0.080640
#
#
# Mechanical properties :
#
#
# Convention : Reuss Voigt Hill
#
# Bulk Modulus (GPa) = 36.16509 41.79505 38.98007
# Shear Modulus (GPa) = 12.58799 30.50285 21.54542
#
# Velocity S-wave (km/s) = 2.33881 3.64072 3.05981
# Velocity P-wave (km/s) = 4.79673 5.98622 5.42418
#
# Compressibility (1/GPa) = 0.02765098
#
# Stress axis : x y z
#
# Youngs Moduli (GPa) = 157.79428 65.49259 93.17847
#
# Poissons Ratio (x) = 0.08987 0.04963
# Poissons Ratio (y) = 0.21653 0.04089
# Poissons Ratio (z) = 0.08405 0.02874
#
# Static dielectric constant tensor:
#      x y z
#    x 1.750790 0.000000 0.000000 
#    y 0.000000 1.853420 0.000000 
#    z 0.000000 0.000000 1.966520 
# 
# From -- ./inp_files/11247.got.cif
#   From: 2010.05.17/outbox.cif.g08.bks.cpg/sg22_6_cif.got.tgz:11247.got - 2010.06.03 23:40:54.
