data_PCOD9328816
_publ_section_title
;
Structure prediction by ZEFSAII (Michael W. Deem and Ramdas Pophale) SiO2 
 PCOD9328816
Probable space group: F 2 2 2
;
_chemical_formula_sum "Si O2"
_cell_formula_units_Z 80
_cell_length_a 8.872689
_cell_length_b 27.916715
_cell_length_c 15.907540
_cell_angle_alpha 90.000000
_cell_angle_beta 90.000000
_cell_angle_gamma 90.000000
_cell_volume 3940.239279
_symmetry_space_group_name_H-M "F 2 2 2"
_symmetry_group_IT_number 22
_symmetry_cell_setting 'orthorhombic'
loop_
_space_group_symop_operation_xyz
x,y,z
-x,-y,z
x,-y,-z
-x,y,-z
x,1/2+y,1/2+z
-x,1/2-y,1/2+z
x,1/2-y,1/2-z
-x,1/2+y,1/2-z
1/2+x,y,1/2+z
1/2-x,-y,1/2+z
1/2+x,-y,1/2-z
1/2-x,y,1/2-z
1/2+x,1/2+y,z
1/2-x,1/2-y,z
1/2+x,1/2-y,-z
1/2-x,1/2+y,-z
loop_
_atom_site_type_symbol
_atom_site_label
_atom_site_fract_x
_atom_site_fract_y
_atom_site_fract_z
Si Si1 0.750032 0.446524 0.495752
Si Si2 0.325981 0.302288 0.666693
Si Si3 0.518679 0.946482 0.141475
Si Si4 0.596123 0.645816 0.928597
Si Si5 0.069710 0.853766 0.749553
O O1 0.814200 0.500000 0.500000
O O2 0.671007 0.438939 0.586492
O O3 0.615221 0.445709 0.427029
O O4 0.861943 0.406195 0.464008
O O5 0.250000 0.325023 0.750000
O O6 0.250000 0.250000 0.661384
O O7 0.258392 0.330419 0.588868
O O8 0.498860 0.311172 0.690652
O O9 0.514450 0.903499 0.207221
O O10 0.500000 0.000000 0.179481
O O11 0.496838 0.647396 0.844004
O O12 0.500000 0.671990 0.000000
O O13 0.250000 0.851688 0.750000
#
# Coordination Sequence:
#
# PCOD9328816 Si02
#       5
#    16  16  16  16  16
#     4   9  18  35  60  85 121 168 213 258 312 372
#     4   9  20  42  68  89 120 165 211 269 338 387
#     4   9  18  36  58  89 124 167 216 258 312 378
#     4  11  22  39  59  88 127 161 214 263 322 380
#     4  11  22  40  63  94 126 169 215 270 326 392
#
# _framework density 20.303336999999999
#
# number of rings (size 3 to 8) (size 9 to 14) (size 15 to 20)
#    0.000    2.200    2.000    2.400    0.000    0.400 
#   10.800   12.000    0.000    0.000    0.000    0.000 
#    0.000    0.000    0.000    0.000    0.000    0.000 
#
# Total GULP energy -111359.070583 kJ/mol
# GULP energy per Si atom -5567.953529 kJ/mol
# Density = 2.025713 g / cm^3
# Si number density = 20.303337 Si / 1000 Ang^3
#
#
#
# Elastic Constant Matrix: (Units=GPa)
#
#
# Indices 1 2 3 4 5 6 
#
# 1 101.8696 45.9724 28.1459 0.0000 0.0000 0.0000
# 2 45.9724 100.3726 38.6598 0.0000 0.0000 0.0000
# 3 28.1459 38.6598 89.5105 0.0000 0.0000 0.0000
# 4 0.0000 0.0000 0.0000 20.8158 0.0000 0.0000
# 5 0.0000 0.0000 0.0000 0.0000 22.4511 0.0000
# 6 0.0000 0.0000 0.0000 0.0000 0.0000 22.3213
#
#
#
# Elastic Compliance Matrix: (Units=1/GPa)
#
#
# Indices 1 2 3 4 5 6 
#
# 1 0.012602 -0.005093 -0.001763 0.000000 0.000000 0.000000
# 2 -0.005093 0.014009 -0.004449 0.000000 0.000000 0.000000
# 3 -0.001763 -0.004449 0.013648 0.000000 0.000000 0.000000
# 4 0.000000 0.000000 0.000000 0.048040 0.000000 0.000000
# 5 0.000000 0.000000 0.000000 0.000000 0.044541 0.000000
# 6 0.000000 0.000000 0.000000 0.000000 0.000000 0.044800
#
#
# Mechanical properties :
#
#
# Convention : Reuss Voigt Hill
#
# Bulk Modulus (GPa) = 56.66076 57.47878 57.06977
# Shear Modulus (GPa) = 24.25611 25.04929 24.65270
#
# Velocity S-wave (km/s) = 3.46017 3.51629 3.48834
# Velocity P-wave (km/s) = 6.62808 6.69755 6.66291
#
# Compressibility (1/GPa) = 0.01764890
#
# Stress axis : x y z
#
# Youngs Moduli (GPa) = 79.35305 71.38186 73.27171
#
# Poissons Ratio (x) = 0.36354 0.12917
# Poissons Ratio (y) = 0.40413 0.32600
# Poissons Ratio (z) = 0.13990 0.31759
#
# Static dielectric constant tensor:
#      x y z
#    x 1.791060 0.000000 0.000000 
#    y 0.000000 1.839610 0.000000 
#    z 0.000000 0.000000 1.731670 
# 
# From -- ./inp_files/35224.got.cif
#   From: 2010.05.17/outbox.cif.g08.bks.cpg/sg22_18_cif.got.tgz:35224.got - 2010.06.03 23:40:54.
