data_PCOD9328023
_publ_section_title
;
Structure prediction by ZEFSAII (Michael W. Deem and Ramdas Pophale) SiO2 
 PCOD9328023
Probable space group: F 2 2 2
;
_chemical_formula_sum "Si O2"
_cell_formula_units_Z 116
_cell_length_a 21.753659
_cell_length_b 9.081425
_cell_length_c 28.770322
_cell_angle_alpha 90.000000
_cell_angle_beta 90.000000
_cell_angle_gamma 90.000000
_cell_volume 5683.698599
_symmetry_space_group_name_H-M "F 2 2 2"
_symmetry_group_IT_number 22
_symmetry_cell_setting 'orthorhombic'
loop_
_space_group_symop_operation_xyz
x,y,z
-x,-y,z
x,-y,-z
-x,y,-z
x,1/2+y,1/2+z
-x,1/2-y,1/2+z
x,1/2-y,1/2-z
-x,1/2+y,1/2-z
1/2+x,y,1/2+z
1/2-x,-y,1/2+z
1/2+x,-y,1/2-z
1/2-x,y,1/2-z
1/2+x,1/2+y,z
1/2-x,1/2-y,z
1/2+x,1/2-y,-z
1/2-x,1/2+y,-z
loop_
_atom_site_type_symbol
_atom_site_label
_atom_site_fract_x
_atom_site_fract_y
_atom_site_fract_z
Si Si1 0.518461 0.660834 0.792008
Si Si2 0.513977 0.822774 0.447223
Si Si3 0.117949 0.733798 0.804150
Si Si4 0.408679 0.787708 0.382499
Si Si5 0.860104 0.449028 0.553348
Si Si6 0.289039 0.109057 0.365162
Si Si7 0.682044 0.926413 0.829529
Si Si8 0.750000 0.750000 0.750000
O O1 0.500000 0.500000 0.774747
O O2 0.548562 0.750000 0.750000
O O3 0.455620 0.745390 0.805972
O O4 0.561439 0.644820 0.836222
O O5 0.500000 0.780398 0.500000
O O6 0.468652 0.738787 0.412536
O O7 0.586845 0.825602 0.440458
O O8 0.500000 0.000000 0.443003
O O9 0.135805 0.750000 0.750000
O O10 0.149319 0.861554 0.835448
O O11 0.142221 0.573854 0.819683
O O12 0.359283 0.671762 0.363924
O O13 0.377287 0.908613 0.415461
O O14 0.856268 0.500000 0.500000
O O15 0.801375 0.389001 0.580004
O O16 0.250000 0.250000 0.351004
O O17 0.247332 0.971371 0.352294
O O18 0.704694 0.845918 0.782727
#
# Coordination Sequence:
#
# PCOD9328023 Si02
#       8
#    16  16  16  16  16  16  16   4
#     4  11  25  39  63  98 134 178 218 271 340 408
#     4   9  15  33  59  92 117 152 212 263 323 385
#     4  10  22  42  69  88 127 175 229 267 328 400
#     4  11  22  36  62  96 135 159 213 286 332 391
#     4  11  20  39  66  93 122 166 221 278 327 398
#     4  10  22  42  60  88 120 169 224 267 325 389
#     4  11  25  39  61  94 134 180 217 283 327 398
#     4  12  24  40  62  96 136 180 238 260 330 404
#
# _framework density 20.409246
#
# number of rings (size 3 to 8) (size 9 to 14) (size 15 to 20)
#    0.000    1.517    2.759    4.552    4.828    1.931 
#    2.483    0.000    0.000    0.000    7.172    0.000 
#    0.000    0.000    0.000    0.000    0.000    0.000 
#
# Total GULP energy -161790.281585 kJ/mol
# GULP energy per Si atom -5578.975227 kJ/mol
# Density = 2.036279 g / cm^3
# Si number density = 20.409246 Si / 1000 Ang^3
#
#
#
# Elastic Constant Matrix: (Units=GPa)
#
#
# Indices 1 2 3 4 5 6 
#
# 1 69.6551 35.4764 42.9017 0.0000 0.0000 0.0000
# 2 35.4764 73.3095 46.0079 0.0000 0.0000 0.0000
# 3 42.9017 46.0079 140.8087 0.0000 0.0000 0.0000
# 4 0.0000 0.0000 0.0000 13.2046 0.0000 0.0000
# 5 0.0000 0.0000 0.0000 0.0000 16.3691 0.0000
# 6 0.0000 0.0000 0.0000 0.0000 0.0000 13.6569
#
#
#
# Elastic Compliance Matrix: (Units=1/GPa)
#
#
# Indices 1 2 3 4 5 6 
#
# 1 0.020541 -0.007564 -0.003787 0.000000 0.000000 0.000000
# 2 -0.007564 0.019945 -0.004212 0.000000 0.000000 0.000000
# 3 -0.003787 -0.004212 0.009632 0.000000 0.000000 0.000000
# 4 0.000000 0.000000 0.000000 0.075731 0.000000 0.000000
# 5 0.000000 0.000000 0.000000 0.000000 0.061091 0.000000
# 6 0.000000 0.000000 0.000000 0.000000 0.000000 0.073223
#
#
# Mechanical properties :
#
#
# Convention : Reuss Voigt Hill
#
# Bulk Modulus (GPa) = 52.65439 59.17171 55.91305
# Shear Modulus (GPa) = 16.79997 19.27194 18.03596
#
# Velocity S-wave (km/s) = 2.87218 3.07624 2.97596
# Velocity P-wave (km/s) = 6.07079 6.45548 6.26609
#
# Compressibility (1/GPa) = 0.01899177
#
# Stress axis : x y z
#
# Youngs Moduli (GPa) = 48.68220 50.13886 103.82056
#
# Poissons Ratio (x) = 0.37924 0.39319
# Poissons Ratio (y) = 0.36822 0.43731
# Poissons Ratio (z) = 0.18437 0.21119
#
# Static dielectric constant tensor:
#      x y z
#    x 1.812580 0.000000 0.000000 
#    y 0.000000 1.749010 0.000000 
#    z 0.000000 0.000000 1.721440 
# 
# From -- ./inp_files/54201.got.cif
#   From: 2010.05.17/outbox.cif.g08.bks.cpg/sg22_28_cif.got.tgz:54201.got - 2010.06.03 23:40:54.
