data_PCOD9328158
_publ_section_title
;
Structure prediction by ZEFSAII (Michael W. Deem and Ramdas Pophale) SiO2 
 PCOD9328158
Probable space group: F 2 2 2
;
_chemical_formula_sum "Si O2"
_cell_formula_units_Z 92
_cell_length_a 21.797113
_cell_length_b 11.210683
_cell_length_c 16.274478
_cell_angle_alpha 90.000000
_cell_angle_beta 90.000000
_cell_angle_gamma 90.000000
_cell_volume 3976.839974
_symmetry_space_group_name_H-M "F 2 2 2"
_symmetry_group_IT_number 22
_symmetry_cell_setting 'orthorhombic'
loop_
_space_group_symop_operation_xyz
x,y,z
-x,-y,z
x,-y,-z
-x,y,-z
x,1/2+y,1/2+z
-x,1/2-y,1/2+z
x,1/2-y,1/2-z
-x,1/2+y,1/2-z
1/2+x,y,1/2+z
1/2-x,-y,1/2+z
1/2+x,-y,1/2-z
1/2-x,y,1/2-z
1/2+x,1/2+y,z
1/2-x,1/2-y,z
1/2+x,1/2-y,-z
1/2-x,1/2+y,-z
loop_
_atom_site_type_symbol
_atom_site_label
_atom_site_fract_x
_atom_site_fract_y
_atom_site_fract_z
Si Si1 0.457749 0.378215 0.863165
Si Si2 0.954663 0.250000 0.750000
Si Si3 0.357482 0.750000 0.250000
Si Si4 0.312679 0.387516 0.602044
Si Si5 0.619117 0.702542 0.015329
Si Si6 0.250000 0.250000 0.250000
Si Si7 0.293540 0.500000 0.000000
Si Si8 0.137822 0.127934 0.339897
O O1 0.500000 0.500000 0.860955
O O2 0.501924 0.276928 0.826509
O O3 0.398934 0.347370 0.802287
O O4 0.433142 0.349521 0.955034
O O5 0.910145 0.137288 0.734412
O O6 0.315185 0.677045 0.311645
O O7 0.341788 0.294213 0.539599
O O8 0.249125 0.433001 0.565186
O O9 0.354680 0.503647 0.614954
O O10 0.662298 0.594186 0.042452
O O11 0.609215 0.778476 0.096316
O O12 0.204080 0.171374 0.306356
#
# Coordination Sequence:
#
# PCOD9328158 Si02
#       8
#    16   8   8  16  16   4   8  16
#     4  10  22  45  68 101 141 185 245 307 358 433
#     4  10  24  41  71  99 139 190 242 294 368 442
#     4   9  22  43  70 107 143 191 245 294 374 434
#     4  11  22  45  71 103 150 186 237 300 359 441
#     4  11  25  43  70 103 141 187 244 296 364 433
#     4  10  24  42  68 102 146 186 238 284 360 452
#     4  12  24  42  67 102 145 188 236 306 360 438
#     4  11  22  44  69 104 142 188 237 295 367 435
#
# _framework density 23.133946000000002
#
# number of rings (size 3 to 8) (size 9 to 14) (size 15 to 20)
#    0.000    1.391    1.739    2.609    2.435    0.696 
#   12.522    1.739    0.000    6.261    0.000    0.000 
#    0.000    0.000    0.000    0.000    0.000    0.000 
#
# Total GULP energy -128398.333655 kJ/mol
# GULP energy per Si atom -5582.536246 kJ/mol
# Density = 2.308129 g / cm^3
# Si number density = 23.133946 Si / 1000 Ang^3
#
#
#
# Elastic Constant Matrix: (Units=GPa)
#
#
# Indices 1 2 3 4 5 6 
#
# 1 109.1035 35.8065 51.0787 0.0000 0.0000 0.0000
# 2 35.8065 108.0181 23.7921 0.0000 0.0000 0.0000
# 3 51.0787 23.7921 102.1300 0.0000 0.0000 0.0000
# 4 0.0000 0.0000 0.0000 36.1952 0.0000 0.0000
# 5 0.0000 0.0000 0.0000 0.0000 1.0569 0.0000
# 6 0.0000 0.0000 0.0000 0.0000 0.0000 7.0565
#
#
#
# Elastic Compliance Matrix: (Units=1/GPa)
#
#
# Indices 1 2 3 4 5 6 
#
# 1 0.012824 -0.002992 -0.005717 0.000000 0.000000 0.000000
# 2 -0.002992 0.010456 -0.000940 0.000000 0.000000 0.000000
# 3 -0.005717 -0.000940 0.012869 0.000000 0.000000 0.000000
# 4 0.000000 0.000000 0.000000 0.027628 0.000000 0.000000
# 5 0.000000 0.000000 0.000000 0.000000 0.946121 0.000000
# 6 0.000000 0.000000 0.000000 0.000000 0.000000 0.141713
#
#
# Mechanical properties :
#
#
# Convention : Reuss Voigt Hill
#
# Bulk Modulus (GPa) = 59.33472 60.06733 59.70102
# Shear Modulus (GPa) = 4.24980 22.76668 13.50824
#
# Velocity S-wave (km/s) = 1.35685 3.14048 2.41905
# Velocity P-wave (km/s) = 5.30648 6.25872 5.80217
#
# Compressibility (1/GPa) = 0.01685354
#
# Stress axis : x y z
#
# Youngs Moduli (GPa) = 77.97980 95.63522 77.70348
#
# Poissons Ratio (x) = 0.28612 0.44421
# Poissons Ratio (y) = 0.23330 0.07301
# Poissons Ratio (z) = 0.44579 0.08986
#
# Static dielectric constant tensor:
#      x y z
#    x 1.868140 0.000000 0.000000 
#    y 0.000000 1.863940 0.000000 
#    z 0.000000 0.000000 2.124240 
# 
# From -- ./inp_files/38854.got.cif
#   From: 2010.05.17/outbox.cif.g08.bks.cpg/sg22_20_cif.got.tgz:38854.got - 2010.06.03 23:40:54.
