data_PCOD9328551
_publ_section_title
;
Structure prediction by ZEFSAII (Michael W. Deem and Ramdas Pophale) SiO2 
 PCOD9328551
Probable space group: F 2 2 2
;
_chemical_formula_sum "Si O2"
_cell_formula_units_Z 56
_cell_length_a 8.430390
_cell_length_b 26.712560
_cell_length_c 10.430971
_cell_angle_alpha 90.000000
_cell_angle_beta 90.000000
_cell_angle_gamma 90.000000
_cell_volume 2349.026492
_symmetry_space_group_name_H-M "F 2 2 2"
_symmetry_group_IT_number 22
_symmetry_cell_setting 'orthorhombic'
loop_
_space_group_symop_operation_xyz
x,y,z
-x,-y,z
x,-y,-z
-x,y,-z
x,1/2+y,1/2+z
-x,1/2-y,1/2+z
x,1/2-y,1/2-z
-x,1/2+y,1/2-z
1/2+x,y,1/2+z
1/2-x,-y,1/2+z
1/2+x,-y,1/2-z
1/2-x,y,1/2-z
1/2+x,1/2+y,z
1/2-x,1/2-y,z
1/2+x,1/2-y,-z
1/2-x,1/2+y,-z
loop_
_atom_site_type_symbol
_atom_site_label
_atom_site_fract_x
_atom_site_fract_y
_atom_site_fract_z
Si Si1 0.750000 0.148720 0.250000
Si Si2 0.829650 0.474912 0.619570
Si Si3 0.326474 0.364077 0.027902
Si Si4 0.945146 0.291182 0.857860
O O1 0.724860 0.120591 0.383485
O O2 0.594676 0.180931 0.209668
O O3 0.741317 0.500000 0.500000
O O4 0.750000 0.487626 0.750000
O O5 0.843906 0.415395 0.604259
O O6 0.000000 0.500000 0.623297
O O7 0.500000 0.340966 0.000000
O O8 0.200220 0.328199 0.099877
O O9 0.907557 0.250000 0.750000
O O10 0.000000 0.272272 0.000000
#
# Coordination Sequence:
#
# PCOD9328551 Si02
#       4
#     8  16  16  16
#     4  10  25  48  78 108 156 202 270 344 399 480
#     4  11  26  49  76 114 155 201 257 325 402 485
#     4  11  25  48  78 114 159 205 264 333 404 478
#     4  10  24  50  79 114 156 213 274 338 401 480
#
# _framework density 23.839663999999999
#
# number of rings (size 3 to 8) (size 9 to 14) (size 15 to 20)
#    0.000    1.429    2.857    0.429    6.000    1.714 
#   10.286   22.857    0.000    0.000    0.000    0.000 
#    0.000    0.000    0.000    0.000    0.000    0.000 
#
# Total GULP energy -78206.425576 kJ/mol
# GULP energy per Si atom -5586.173255 kJ/mol
# Density = 2.378540 g / cm^3
# Si number density = 23.839664 Si / 1000 Ang^3
#
#
#
# Elastic Constant Matrix: (Units=GPa)
#
#
# Indices 1 2 3 4 5 6 
#
# 1 143.2749 61.1600 64.7118 0.0000 0.0000 0.0000
# 2 61.1600 122.2342 64.4166 0.0000 0.0000 0.0000
# 3 64.7118 64.4166 240.3963 0.0000 0.0000 0.0000
# 4 0.0000 0.0000 0.0000 58.8910 0.0000 0.0000
# 5 0.0000 0.0000 0.0000 0.0000 44.9823 0.0000
# 6 0.0000 0.0000 0.0000 0.0000 0.0000 7.9128
#
#
#
# Elastic Compliance Matrix: (Units=1/GPa)
#
#
# Indices 1 2 3 4 5 6 
#
# 1 0.009297 -0.003881 -0.001463 0.000000 0.000000 0.000000
# 2 -0.003881 0.011146 -0.001942 0.000000 0.000000 0.000000
# 3 -0.001463 -0.001942 0.005074 0.000000 0.000000 0.000000
# 4 0.000000 0.000000 0.000000 0.016981 0.000000 0.000000
# 5 0.000000 0.000000 0.000000 0.000000 0.022231 0.000000
# 6 0.000000 0.000000 0.000000 0.000000 0.000000 0.126378
#
#
# Mechanical properties :
#
#
# Convention : Reuss Voigt Hill
#
# Bulk Modulus (GPa) = 91.35912 98.49801 94.92856
# Shear Modulus (GPa) = 23.88613 43.39836 33.64224
#
# Velocity S-wave (km/s) = 3.16879 4.27127 3.76065
# Velocity P-wave (km/s) = 7.19679 8.10750 7.66568
#
# Compressibility (1/GPa) = 0.01094582
#
# Stress axis : x y z
#
# Youngs Moduli (GPa) = 107.56319 89.71611 197.08578
#
# Poissons Ratio (x) = 0.34818 0.28827
# Poissons Ratio (y) = 0.41744 0.38275
# Poissons Ratio (z) = 0.15733 0.17424
#
# Static dielectric constant tensor:
#      x y z
#    x 1.972080 0.000000 0.000000 
#    y 0.000000 1.907290 0.000000 
#    z 0.000000 0.000000 2.379390 
# 
# From -- ./inp_files/16796.got.cif
#   From: 2010.05.17/outbox.cif.g08.bks.cpg/sg22_9_cif.got.tgz:16796.got - 2010.06.03 23:40:54.
