data_PCOD9328304
_publ_section_title
;
Structure prediction by ZEFSAII (Michael W. Deem and Ramdas Pophale) SiO2 
 PCOD9328304
Probable space group: F 2 2 2
;
_chemical_formula_sum "Si O2"
_cell_formula_units_Z 88
_cell_length_a 12.341590
_cell_length_b 16.474858
_cell_length_c 19.073265
_cell_angle_alpha 90.000000
_cell_angle_beta 90.000000
_cell_angle_gamma 90.000000
_cell_volume 3878.089587
_symmetry_space_group_name_H-M "F 2 2 2"
_symmetry_group_IT_number 22
_symmetry_cell_setting 'orthorhombic'
loop_
_space_group_symop_operation_xyz
x,y,z
-x,-y,z
x,-y,-z
-x,y,-z
x,1/2+y,1/2+z
-x,1/2-y,1/2+z
x,1/2-y,1/2-z
-x,1/2+y,1/2-z
1/2+x,y,1/2+z
1/2-x,-y,1/2+z
1/2+x,-y,1/2-z
1/2-x,y,1/2-z
1/2+x,1/2+y,z
1/2-x,1/2-y,z
1/2+x,1/2-y,-z
1/2-x,1/2+y,-z
loop_
_atom_site_type_symbol
_atom_site_label
_atom_site_fract_x
_atom_site_fract_y
_atom_site_fract_z
Si Si1 0.250000 0.621337 0.750000
Si Si2 0.855022 0.066089 0.891755
Si Si3 0.008956 0.336705 0.218816
Si Si4 0.421010 0.374076 0.565198
Si Si5 0.284905 0.000000 0.000000
Si Si6 0.750000 0.250000 0.096941
Si Si7 0.420050 0.385752 0.855189
O O1 0.212986 0.577410 0.678990
O O2 0.138394 0.663627 0.773452
O O3 0.785907 0.069369 0.962408
O O4 0.959055 0.126274 0.888891
O O5 0.886955 0.971094 0.888556
O O6 0.972041 0.250000 0.250000
O O7 0.974277 0.356930 0.140368
O O8 0.950554 0.397504 0.273292
O O9 0.500000 0.373596 0.500000
O O10 0.358664 0.459518 0.559806
O O11 0.334834 0.302819 0.554894
O O12 0.673023 0.317517 0.136135
#
# Coordination Sequence:
#
# PCOD9328304 Si02
#       7
#     8  16  16  16   8   8  16
#     4  10  23  42  70 103 138 192 238 312 374 437
#     4  10  23  43  69 105 141 188 247 302 368 458
#     4  11  23  46  74 104 143 185 253 310 371 457
#     4  12  28  46  69 107 150 197 246 312 386 469
#     4  12  25  47  72 104 148 204 238 308 396 446
#     4  12  24  49  72 106 143 200 242 316 387 436
#     4  10  23  43  72 106 136 189 251 312 366 441
#
# _framework density 22.691585
#
# number of rings (size 3 to 8) (size 9 to 14) (size 15 to 20)
#    0.000    1.091    3.636    1.636    2.545    4.364 
#    6.545    0.000    0.000    0.000    0.000    0.000 
#    0.000    0.000    0.000    0.000    0.000    0.000 
#
# Total GULP energy -122712.039410 kJ/mol
# GULP energy per Si atom -5577.819973 kJ/mol
# Density = 2.263994 g / cm^3
# Si number density = 22.691585 Si / 1000 Ang^3
#
#
#
# Elastic Constant Matrix: (Units=GPa)
#
#
# Indices 1 2 3 4 5 6 
#
# 1 122.2921 34.1784 53.8279 0.0000 0.0000 0.0000
# 2 34.1784 54.6882 18.6366 0.0000 0.0000 0.0000
# 3 53.8279 18.6366 127.3440 0.0000 0.0000 0.0000
# 4 0.0000 0.0000 0.0000 20.6889 0.0000 0.0000
# 5 0.0000 0.0000 0.0000 0.0000 35.3754 0.0000
# 6 0.0000 0.0000 0.0000 0.0000 0.0000 35.2591
#
#
#
# Elastic Compliance Matrix: (Units=1/GPa)
#
#
# Indices 1 2 3 4 5 6 
#
# 1 0.011597 -0.005870 -0.004043 0.000000 0.000000 0.000000
# 2 -0.005870 0.022217 -0.000770 0.000000 0.000000 0.000000
# 3 -0.004043 -0.000770 0.009674 0.000000 0.000000 0.000000
# 4 0.000000 0.000000 0.000000 0.048335 0.000000 0.000000
# 5 0.000000 0.000000 0.000000 0.000000 0.028268 0.000000
# 6 0.000000 0.000000 0.000000 0.000000 0.000000 0.028361
#
#
# Mechanical properties :
#
#
# Convention : Reuss Voigt Hill
#
# Bulk Modulus (GPa) = 45.20439 57.51226 51.35832
# Shear Modulus (GPa) = 28.21771 31.44344 29.83058
#
# Velocity S-wave (km/s) = 3.53020 3.72652 3.62969
# Velocity P-wave (km/s) = 6.04821 6.62693 6.34417
#
# Compressibility (1/GPa) = 0.02212175
#
# Stress axis : x y z
#
# Youngs Moduli (GPa) = 86.22665 45.01139 103.36522
#
# Poissons Ratio (x) = 0.26423 0.41791
# Poissons Ratio (y) = 0.50617 0.07960
# Poissons Ratio (z) = 0.34862 0.03466
#
# Static dielectric constant tensor:
#      x y z
#    x 1.928750 0.000000 0.000000 
#    y 0.000000 1.912790 0.000000 
#    z 0.000000 0.000000 1.819310 
# 
# From -- ./inp_files/37156.got.cif
#   From: 2010.05.17/outbox.cif.g08.bks.cpg/sg22_19_cif.got.tgz:37156.got - 2010.06.03 23:40:54.
