data_PCOD9328506
_publ_section_title
;
Structure prediction by ZEFSAII (Michael W. Deem and Ramdas Pophale) SiO2 
 PCOD9328506
Probable space group: F 2 2 2
;
_chemical_formula_sum "Si O2"
_cell_formula_units_Z 48
_cell_length_a 16.937174
_cell_length_b 5.228947
_cell_length_c 21.491616
_cell_angle_alpha 90.000000
_cell_angle_beta 90.000000
_cell_angle_gamma 90.000000
_cell_volume 1903.374564
_symmetry_space_group_name_H-M "F 2 2 2"
_symmetry_group_IT_number 22
_symmetry_cell_setting 'orthorhombic'
loop_
_space_group_symop_operation_xyz
x,y,z
-x,-y,z
x,-y,-z
-x,y,-z
x,1/2+y,1/2+z
-x,1/2-y,1/2+z
x,1/2-y,1/2-z
-x,1/2+y,1/2-z
1/2+x,y,1/2+z
1/2-x,-y,1/2+z
1/2+x,-y,1/2-z
1/2-x,y,1/2-z
1/2+x,1/2+y,z
1/2-x,1/2-y,z
1/2+x,1/2-y,-z
1/2-x,1/2+y,-z
loop_
_atom_site_type_symbol
_atom_site_label
_atom_site_fract_x
_atom_site_fract_y
_atom_site_fract_z
Si Si1 0.500000 0.000000 0.867328
Si Si2 0.804194 0.996183 0.819221
Si Si3 0.411649 0.388825 0.066645
Si Si4 0.933431 0.750000 0.250000
O O1 0.429385 0.911308 0.914716
O O2 0.483774 0.789144 0.812429
O O3 0.750000 0.750000 0.815545
O O4 0.750000 0.250000 0.818495
O O5 0.851861 0.001967 0.883307
O O6 0.871276 0.026748 0.766411
O O7 0.500000 0.500000 0.073506
O O8 0.385943 0.500000 0.000000
#
# Coordination Sequence:
#
# PCOD9328506 Si02
#       4
#     8  16  16   8
#     4  10  24  45  74 114 153 194 266 322 386 468
#     4  11  27  48  72 113 156 203 258 322 401 471
#     4  10  25  48  76 108 145 207 259 321 384 458
#     4  10  25  42  76 114 159 210 248 328 399 478
#
# _framework density 25.218368000000002
#
# number of rings (size 3 to 8) (size 9 to 14) (size 15 to 20)
#    0.000    1.667    0.000    0.500   18.667    6.667 
#    0.000    0.000    0.000    0.000    0.000    0.000 
#    0.000    0.000    0.000    0.000    0.000    0.000 
#
# Total GULP energy -66829.039196 kJ/mol
# GULP energy per Si atom -5569.086600 kJ/mol
# Density = 2.516097 g / cm^3
# Si number density = 25.218368 Si / 1000 Ang^3
#
#
#
# Elastic Constant Matrix: (Units=GPa)
#
#
# Indices 1 2 3 4 5 6 
#
# 1 93.0486 75.3479 51.0556 0.0002 -0.0002 -0.0007
# 2 75.3479 179.8626 43.2231 0.0022 -0.0009 -0.0041
# 3 51.0556 43.2231 219.1076 0.0002 -0.0002 -0.0004
# 4 0.0002 0.0022 0.0002 30.2062 -0.0003 -0.0007
# 5 -0.0002 -0.0009 -0.0002 -0.0003 59.6268 0.0004
# 6 -0.0007 -0.0041 -0.0004 -0.0007 0.0004 64.4553
#
#
#
# Elastic Compliance Matrix: (Units=1/GPa)
#
#
# Indices 1 2 3 4 5 6 
#
# 1 0.017767 -0.006769 -0.002805 0.000000 0.000000 0.000000
# 2 -0.006769 0.008415 -0.000083 -0.000001 0.000000 0.000000
# 3 -0.002805 -0.000083 0.005234 0.000000 0.000000 0.000000
# 4 0.000000 -0.000001 0.000000 0.033106 0.000000 0.000000
# 5 0.000000 0.000000 0.000000 0.000000 0.016771 0.000000
# 6 0.000000 0.000000 0.000000 0.000000 0.000000 0.015515
#
#
# Mechanical properties :
#
#
# Convention : Reuss Voigt Hill
#
# Bulk Modulus (GPa) = 82.62152 92.36358 87.49255
# Shear Modulus (GPa) = 41.61258 52.35047 46.98153
#
# Velocity S-wave (km/s) = 4.06654 4.56113 4.32092
# Velocity P-wave (km/s) = 7.40827 8.02768 7.72419
#
# Compressibility (1/GPa) = 0.01210338
#
# Stress axis : x y z
#
# Youngs Moduli (GPa) = 56.28266 118.82968 191.06376
#
# Poissons Ratio (x) = 0.80437 0.53589
# Poissons Ratio (y) = 0.38098 0.01582
# Poissons Ratio (z) = 0.15786 0.00984
#
# Static dielectric constant tensor:
#      x y z
#    x 1.999410 0.000000 0.000000 
#    y 0.000000 2.387170 0.000000 
#    z 0.000000 0.000000 2.006830 
# 
# From -- ./inp_files/49174.got.cif
#   From: 2010.05.17/outbox.cif.g08.bks.cpg/sg22_25_cif.got.tgz:49174.got - 2010.06.03 23:40:54.
