data_PCOD9328916
_publ_section_title
;
Structure prediction by ZEFSAII (Michael W. Deem and Ramdas Pophale) SiO2 
 PCOD9328916
Probable space group: F 2 2 2
;
_chemical_formula_sum "Si O2"
_cell_formula_units_Z 96
_cell_length_a 14.464352
_cell_length_b 16.183857
_cell_length_c 20.383984
_cell_angle_alpha 90.000000
_cell_angle_beta 90.000000
_cell_angle_gamma 90.000000
_cell_volume 4771.666520
_symmetry_space_group_name_H-M "F 2 2 2"
_symmetry_group_IT_number 22
_symmetry_cell_setting 'orthorhombic'
loop_
_space_group_symop_operation_xyz
x,y,z
-x,-y,z
x,-y,-z
-x,y,-z
x,1/2+y,1/2+z
-x,1/2-y,1/2+z
x,1/2-y,1/2-z
-x,1/2+y,1/2-z
1/2+x,y,1/2+z
1/2-x,-y,1/2+z
1/2+x,-y,1/2-z
1/2-x,y,1/2-z
1/2+x,1/2+y,z
1/2-x,1/2-y,z
1/2+x,1/2-y,-z
1/2-x,1/2+y,-z
loop_
_atom_site_type_symbol
_atom_site_label
_atom_site_fract_x
_atom_site_fract_y
_atom_site_fract_z
Si Si1 0.938585 0.655274 0.559460
Si Si2 0.948055 0.911283 0.172864
Si Si3 0.448056 0.588718 0.672858
Si Si4 0.561415 0.344705 0.440540
Si Si5 0.249999 0.651282 0.624913
Si Si6 0.749997 0.593275 0.522013
O O1 0.919288 0.749989 0.542240
O O2 0.841488 0.610600 0.562692
O O3 0.000000 0.619097 0.500000
O O4 0.994882 0.649170 0.626014
O O5 0.954298 0.893718 0.250003
O O6 0.841493 0.896515 0.151008
O O7 0.000000 0.000000 0.161944
O O8 0.500000 0.500000 0.661936
O O9 0.505117 0.649179 0.626013
O O10 0.341493 0.603484 0.651002
O O11 0.500000 0.380881 0.500000
O O12 0.658515 0.389373 0.437305
O O13 0.250000 0.750000 0.643152
O O14 0.249994 0.645643 0.545589
O O15 0.749977 0.500000 0.500000
#
# Coordination Sequence:
#
# PCOD9328916 Si02
#       6
#    16  16  16  16  16  16
#     4  11  23  40  64  94 130 168 212 268 328 391
#     4  11  25  43  65  97 136 175 218 271 332 393
#     4  11  25  43  65  97 136 175 218 271 332 393
#     4  11  23  40  64  94 130 168 212 268 328 391
#     4  12  23  42  72 101 129 169 228 287 329 380
#     4  12  24  39  66  97 130 170 218 274 332 391
#
# _framework density 20.118756000000001
#
# number of rings (size 3 to 8) (size 9 to 14) (size 15 to 20)
#    0.000    0.667    3.333    5.000    0.000    3.333 
#    0.000    2.500    0.000    2.000    0.000    0.000 
#    0.000    0.000    0.000    0.000    0.000    0.000 
#
# Total GULP energy -134061.752399 kJ/mol
# GULP energy per Si atom -5585.906350 kJ/mol
# Density = 2.007296 g / cm^3
# Si number density = 20.118756 Si / 1000 Ang^3
#
#
#
# Elastic Constant Matrix: (Units=GPa)
#
#
# Indices 1 2 3 4 5 6 
#
# 1 206.8700 51.2835 44.1556 0.0000 0.0000 0.0000
# 2 51.2835 77.5995 6.6246 0.0000 0.0000 0.0000
# 3 44.1556 6.6246 80.1112 0.0000 0.0000 0.0000
# 4 0.0000 0.0000 0.0000 18.2174 0.0000 0.0000
# 5 0.0000 0.0000 0.0000 0.0000 26.7740 0.0000
# 6 0.0000 0.0000 0.0000 0.0000 0.0000 24.9347
#
#
#
# Elastic Compliance Matrix: (Units=1/GPa)
#
#
# Indices 1 2 3 4 5 6 
#
# 1 0.006532 -0.004038 -0.003267 0.000000 0.000000 0.000000
# 2 -0.004038 0.015475 0.000946 0.000000 0.000000 0.000000
# 3 -0.003267 0.000946 0.014205 0.000000 0.000000 0.000000
# 4 0.000000 0.000000 0.000000 0.054892 0.000000 0.000000
# 5 0.000000 0.000000 0.000000 0.000000 0.037350 0.000000
# 6 0.000000 0.000000 0.000000 0.000000 0.000000 0.040105
#
#
# Mechanical properties :
#
#
# Convention : Reuss Voigt Hill
#
# Bulk Modulus (GPa) = 42.56294 63.18978 52.87636
# Shear Modulus (GPa) = 26.44004 31.48637 28.96320
#
# Velocity S-wave (km/s) = 3.62912 3.96033 3.79834
# Velocity P-wave (km/s) = 6.22595 7.23802 6.75098
#
# Compressibility (1/GPa) = 0.02349462
#
# Stress axis : x y z
#
# Youngs Moduli (GPa) = 153.08691 64.62204 70.39848
#
# Poissons Ratio (x) = 0.26095 0.22996
# Poissons Ratio (y) = 0.61818 -0.06660
# Poissons Ratio (z) = 0.50006 -0.06114
#
# Static dielectric constant tensor:
#      x y z
#    x 1.679810 0.000000 0.000000 
#    y 0.000000 1.735090 0.000000 
#    z 0.000000 0.000000 1.687010 
# 
# From -- ./inp_files/29374.got.cif
#   From: 2010.05.17/outbox.cif.g08.bks.cpg/sg22_15_cif.got.tgz:29374.got - 2010.06.03 23:40:54.
