data_PCOD9328927
_publ_section_title
;
Structure prediction by ZEFSAII (Michael W. Deem and Ramdas Pophale) SiO2 
 PCOD9328927
Probable space group: F 2 2 2
;
_chemical_formula_sum "Si O2"
_cell_formula_units_Z 64
_cell_length_a 17.010397
_cell_length_b 15.745696
_cell_length_c 10.909792
_cell_angle_alpha 90.000000
_cell_angle_beta 90.000000
_cell_angle_gamma 90.000000
_cell_volume 2922.084581
_symmetry_space_group_name_H-M "F 2 2 2"
_symmetry_group_IT_number 22
_symmetry_cell_setting 'orthorhombic'
loop_
_space_group_symop_operation_xyz
x,y,z
-x,-y,z
x,-y,-z
-x,y,-z
x,1/2+y,1/2+z
-x,1/2-y,1/2+z
x,1/2-y,1/2-z
-x,1/2+y,1/2-z
1/2+x,y,1/2+z
1/2-x,-y,1/2+z
1/2+x,-y,1/2-z
1/2-x,y,1/2-z
1/2+x,1/2+y,z
1/2-x,1/2-y,z
1/2+x,1/2-y,-z
1/2-x,1/2+y,-z
loop_
_atom_site_type_symbol
_atom_site_label
_atom_site_fract_x
_atom_site_fract_y
_atom_site_fract_z
Si Si1 0.384424 0.843270 0.000880
Si Si2 0.432111 0.844333 0.420743
Si Si3 0.993262 0.904248 0.308507
Si Si4 0.236450 0.071968 0.895723
O O1 0.410850 0.746245 0.019406
O O2 0.440899 0.899912 0.086076
O O3 0.298279 0.857267 0.056119
O O4 0.409446 0.876273 0.865672
O O5 0.500000 0.887580 0.500000
O O6 0.474699 0.839012 0.290755
O O7 0.352215 0.895412 0.406196
O O8 0.000000 0.000000 0.259678
O O9 0.250000 0.051404 0.750000
O O10 0.248033 0.000000 0.000000
#
# Coordination Sequence:
#
# PCOD9328927 Si02
#       4
#    16  16  16  16
#     4  11  23  45  73 100 139 193 243 286 356 440
#     4  12  27  43  72 110 144 185 241 305 361 425
#     4  11  23  41  72 104 143 187 239 290 357 433
#     4  12  28  47  73 104 147 193 246 299 366 435
#
# _framework density 21.902172
#
# number of rings (size 3 to 8) (size 9 to 14) (size 15 to 20)
#    0.000    0.500    5.000    4.500    3.500    1.000 
#    0.000    0.000    0.000    4.500    0.000    0.000 
#    0.000    0.000    0.000    0.000    0.000    0.000 
#
# Total GULP energy -89265.831288 kJ/mol
# GULP energy per Si atom -5579.114456 kJ/mol
# Density = 2.185232 g / cm^3
# Si number density = 21.902172 Si / 1000 Ang^3
#
#
#
# Elastic Constant Matrix: (Units=GPa)
#
#
# Indices 1 2 3 4 5 6 
#
# 1 142.3138 10.1661 69.2229 0.0000 0.0000 0.0000
# 2 10.1661 79.6153 36.3075 0.0000 0.0000 0.0000
# 3 69.2229 36.3075 106.6865 0.0000 0.0000 0.0000
# 4 0.0000 0.0000 0.0000 27.0933 0.0000 0.0000
# 5 0.0000 0.0000 0.0000 0.0000 38.2623 0.0000
# 6 0.0000 0.0000 0.0000 0.0000 0.0000 84.2553
#
#
#
# Elastic Compliance Matrix: (Units=1/GPa)
#
#
# Indices 1 2 3 4 5 6 
#
# 1 0.010556 0.002102 -0.007564 0.000000 0.000000 0.000000
# 2 0.002102 0.015286 -0.006566 0.000000 0.000000 0.000000
# 3 -0.007564 -0.006566 0.016516 0.000000 0.000000 0.000000
# 4 0.000000 0.000000 0.000000 0.036909 0.000000 0.000000
# 5 0.000000 0.000000 0.000000 0.000000 0.026135 0.000000
# 6 0.000000 0.000000 0.000000 0.000000 0.000000 0.011869
#
#
# Mechanical properties :
#
#
# Convention : Reuss Voigt Hill
#
# Bulk Modulus (GPa) = 54.64190 62.22319 58.43254
# Shear Modulus (GPa) = 33.91449 44.11678 39.01564
#
# Velocity S-wave (km/s) = 3.93931 4.49293 4.22519
# Velocity P-wave (km/s) = 6.75967 7.44221 7.10914
#
# Compressibility (1/GPa) = 0.01830098
#
# Stress axis : x y z
#
# Youngs Moduli (GPa) = 94.73258 65.41780 60.54747
#
# Poissons Ratio (x) = -0.13749 0.45801
# Poissons Ratio (y) = -0.19911 0.39755
# Poissons Ratio (z) = 0.71660 0.42953
#
# Static dielectric constant tensor:
#      x y z
#    x 1.790910 0.000000 0.000000 
#    y 0.000000 1.830970 0.000000 
#    z 0.000000 0.000000 1.640880 
# 
# From -- ./inp_files/19367.got.cif
#   From: 2010.05.17/outbox.cif.g08.bks.cpg/sg22_10_cif.got.tgz:19367.got - 2010.06.03 23:40:54.
