data_PCOD9328734
_publ_section_title
;
Structure prediction by ZEFSAII (Michael W. Deem and Ramdas Pophale) SiO2 
 PCOD9328734
Probable space group: F 2 2 2
;
_chemical_formula_sum "Si O2"
_cell_formula_units_Z 60
_cell_length_a 4.943794
_cell_length_b 17.204814
_cell_length_c 31.223334
_cell_angle_alpha 90.000000
_cell_angle_beta 90.000000
_cell_angle_gamma 90.000000
_cell_volume 2655.764876
_symmetry_space_group_name_H-M "F 2 2 2"
_symmetry_group_IT_number 22
_symmetry_cell_setting 'orthorhombic'
loop_
_space_group_symop_operation_xyz
x,y,z
-x,-y,z
x,-y,-z
-x,y,-z
x,1/2+y,1/2+z
-x,1/2-y,1/2+z
x,1/2-y,1/2-z
-x,1/2+y,1/2-z
1/2+x,y,1/2+z
1/2-x,-y,1/2+z
1/2+x,-y,1/2-z
1/2-x,y,1/2-z
1/2+x,1/2+y,z
1/2-x,1/2-y,z
1/2+x,1/2-y,-z
1/2-x,1/2+y,-z
loop_
_atom_site_type_symbol
_atom_site_label
_atom_site_fract_x
_atom_site_fract_y
_atom_site_fract_z
Si Si1 0.608302 0.119415 0.928638
Si Si2 0.000000 0.500000 0.000000
Si Si3 0.750000 0.250000 0.473871
Si Si4 0.997449 0.594811 0.721574
Si Si5 0.905725 0.589714 0.624447
O O1 0.651463 0.056474 0.966562
O O2 0.432548 0.188446 0.948683
O O3 0.895473 0.136241 0.907310
O O4 0.403682 0.091188 0.891046
O O5 0.500000 0.209586 0.500000
O O6 0.750000 0.620688 0.750000
O O7 0.000000 0.500000 0.719934
O O8 0.250000 0.619469 0.750000
O O9 0.959480 0.618945 0.672491
O O10 0.000000 0.500000 0.621776
#
# Coordination Sequence:
#
# PCOD9328734 Si02
#       5
#    16   4   8  16  16
#     4  12  25  39  62  88 124 167 212 263 315 374
#     4  12  24  42  64  90 120 168 220 258 324 358
#     4  12  26  44  62  88 125 172 225 264 320 378
#     4   9  17  30  52  82 121 157 189 241 318 383
#     4  11  21  37  58  91 123 158 208 261 312 376
#
# _framework density 22.592362999999999
#
# number of rings (size 3 to 8) (size 9 to 14) (size 15 to 20)
#    0.000    1.067    4.000    3.200    0.000    5.333 
#    0.000    0.000    0.000    0.000    0.000   14.000 
#    0.000    0.000    0.000    0.000    0.000    0.000 
#
# Total GULP energy -83757.066230 kJ/mol
# GULP energy per Si atom -5583.804415 kJ/mol
# Density = 2.254094 g / cm^3
# Si number density = 22.592363 Si / 1000 Ang^3
#
#
#
# Elastic Constant Matrix: (Units=GPa)
#
#
# Indices 1 2 3 4 5 6 
#
# 1 156.4417 6.7104 55.5588 0.0000 0.0000 0.0000
# 2 6.7104 46.7175 20.6792 0.0000 0.0000 0.0000
# 3 55.5588 20.6792 182.3124 0.0000 0.0000 0.0000
# 4 0.0000 0.0000 0.0000 14.1884 0.0000 0.0000
# 5 0.0000 0.0000 0.0000 0.0000 28.2107 0.0000
# 6 0.0000 0.0000 0.0000 0.0000 0.0000 28.9997
#
#
#
# Elastic Compliance Matrix: (Units=1/GPa)
#
#
# Indices 1 2 3 4 5 6 
#
# 1 0.007168 -0.000066 -0.002177 0.000000 0.000000 0.000000
# 2 -0.000066 0.022537 -0.002536 0.000000 0.000000 0.000000
# 3 -0.002177 -0.002536 0.006436 0.000000 0.000000 0.000000
# 4 0.000000 0.000000 0.000000 0.070480 0.000000 0.000000
# 5 0.000000 0.000000 0.000000 0.000000 0.035448 0.000000
# 6 0.000000 0.000000 0.000000 0.000000 0.000000 0.034483
#
#
# Mechanical properties :
#
#
# Convention : Reuss Voigt Hill
#
# Bulk Modulus (GPa) = 37.61763 61.26316 49.44039
# Shear Modulus (GPa) = 25.64470 34.44797 30.04634
#
# Velocity S-wave (km/s) = 3.37279 3.90906 3.65078
# Velocity P-wave (km/s) = 5.64396 6.89564 6.30096
#
# Compressibility (1/GPa) = 0.02658328
#
# Stress axis : x y z
#
# Youngs Moduli (GPa) = 139.50667 44.37074 155.37149
#
# Poissons Ratio (x) = 0.00293 0.33824
# Poissons Ratio (y) = 0.00921 0.39406
# Poissons Ratio (z) = 0.30370 0.11254
#
# Static dielectric constant tensor:
#      x y z
#    x 1.796450 0.000000 0.000000 
#    y 0.000000 1.896330 0.000000 
#    z 0.000000 0.000000 1.866620 
# 
# From -- ./inp_files/34109.got.cif
#   From: 2010.05.17/outbox.cif.g08.bks.cpg/sg22_18_cif.got.tgz:34109.got - 2010.06.03 23:40:54.
