data_PCOD9328950
_publ_section_title
;
Structure prediction by ZEFSAII (Michael W. Deem and Ramdas Pophale) SiO2 
 PCOD9328950
Probable space group: F 2 2 2
;
_chemical_formula_sum "Si O2"
_cell_formula_units_Z 112
_cell_length_a 11.922934
_cell_length_b 15.217548
_cell_length_c 29.892955
_cell_angle_alpha 90.000000
_cell_angle_beta 90.000000
_cell_angle_gamma 90.000000
_cell_volume 5423.712602
_symmetry_space_group_name_H-M "F 2 2 2"
_symmetry_group_IT_number 22
_symmetry_cell_setting 'orthorhombic'
loop_
_space_group_symop_operation_xyz
x,y,z
-x,-y,z
x,-y,-z
-x,y,-z
x,1/2+y,1/2+z
-x,1/2-y,1/2+z
x,1/2-y,1/2-z
-x,1/2+y,1/2-z
1/2+x,y,1/2+z
1/2-x,-y,1/2+z
1/2+x,-y,1/2-z
1/2-x,y,1/2-z
1/2+x,1/2+y,z
1/2-x,1/2-y,z
1/2+x,1/2-y,-z
1/2-x,1/2+y,-z
loop_
_atom_site_type_symbol
_atom_site_label
_atom_site_fract_x
_atom_site_fract_y
_atom_site_fract_z
Si Si1 0.131277 0.102020 0.555988
Si Si2 0.005363 0.100995 0.151060
Si Si3 0.385467 0.852805 0.746247
Si Si4 0.271415 0.841019 0.625338
Si Si5 0.633025 0.108246 0.954881
Si Si6 0.118674 0.516413 0.826108
Si Si7 0.752409 0.150338 0.350655
O O1 0.165032 0.130432 0.505841
O O2 0.192320 0.141089 0.599595
O O3 0.998318 0.121909 0.555711
O O4 0.149811 0.996324 0.554348
O O5 0.060944 0.114261 0.199979
O O6 0.096681 0.147586 0.120021
O O7 0.878832 0.130509 0.147796
O O8 0.000000 0.000000 0.139394
O O9 0.419002 0.750000 0.750000
O O10 0.250000 0.855861 0.750000
O O11 0.419267 0.923083 0.784328
O O12 0.250000 0.750000 0.651416
O O13 0.207079 0.838078 0.579115
O O14 0.211109 0.922656 0.649710
O O15 0.180298 0.422312 0.821210
O O16 0.000000 0.500000 0.851401
O O17 0.750000 0.250000 0.333849
#
# Coordination Sequence:
#
# PCOD9328950 Si02
#       7
#    16  16  16  16  16  16  16
#     4   9  18  39  65  99 139 178 230 289 345 406
#     4  12  24  46  65  93 136 176 220 288 352 410
#     4  11  23  43  71 101 129 170 229 293 344 407
#     4  12  24  39  68 100 131 174 240 285 338 411
#     4   9  18  36  68 100 132 179 237 290 332 410
#     4  12  25  44  72  99 133 183 235 281 344 420
#     4  12  27  43  69 102 145 186 227 283 360 421
#
# _framework density 20.650061000000001
#
# number of rings (size 3 to 8) (size 9 to 14) (size 15 to 20)
#    0.000    1.000    4.286    3.000    6.000    0.571 
#    0.000    0.714    0.000    2.571    0.000    0.000 
#    0.000    0.000    0.000    0.000    0.000    0.000 
#
# Total GULP energy -156218.240972 kJ/mol
# GULP energy per Si atom -5579.222892 kJ/mol
# Density = 2.060306 g / cm^3
# Si number density = 20.650061 Si / 1000 Ang^3
#
#
#
# Elastic Constant Matrix: (Units=GPa)
#
#
# Indices 1 2 3 4 5 6 
#
# 1 111.7839 39.8057 1.2290 0.0000 0.0000 0.0000
# 2 39.8057 128.5316 1.2738 0.0000 0.0000 0.0000
# 3 1.2290 1.2738 81.2944 0.0000 0.0000 0.0000
# 4 0.0000 0.0000 0.0000 10.3849 0.0000 0.0000
# 5 0.0000 0.0000 0.0000 0.0000 26.0732 0.0000
# 6 0.0000 0.0000 0.0000 0.0000 0.0000 22.1365
#
#
#
# Elastic Compliance Matrix: (Units=1/GPa)
#
#
# Indices 1 2 3 4 5 6 
#
# 1 0.010056 -0.003113 -0.000103 0.000000 0.000000 0.000000
# 2 -0.003113 0.008745 -0.000090 0.000000 0.000000 0.000000
# 3 -0.000103 -0.000090 0.012304 0.000000 0.000000 0.000000
# 4 0.000000 0.000000 0.000000 0.096293 0.000000 0.000000
# 5 0.000000 0.000000 0.000000 0.000000 0.038354 0.000000
# 6 0.000000 0.000000 0.000000 0.000000 0.000000 0.045174
#
#
# Mechanical properties :
#
#
# Convention : Reuss Voigt Hill
#
# Bulk Modulus (GPa) = 40.82964 45.13632 42.98298
# Shear Modulus (GPa) = 22.15305 30.33901 26.24603
#
# Velocity S-wave (km/s) = 3.27889 3.83717 3.56896
# Velocity P-wave (km/s) = 5.84379 6.44492 6.15170
#
# Compressibility (1/GPa) = 0.02449201
#
# Stress axis : x y z
#
# Youngs Moduli (GPa) = 99.44769 114.34842 81.27474
#
# Poissons Ratio (x) = 0.35598 0.00839
# Poissons Ratio (y) = 0.30959 0.00731
# Poissons Ratio (z) = 0.01027 0.01029
#
# Static dielectric constant tensor:
#      x y z
#    x 1.692630 0.000000 0.000000 
#    y 0.000000 1.789290 0.000000 
#    z 0.000000 0.000000 1.818900 
# 
# From -- ./inp_files/56089.got.cif
#   From: 2010.05.17/outbox.cif.g08.bks.cpg/sg22_29_cif.got.tgz:56089.got - 2010.06.03 23:40:54.
