data_PCOD9328967
_publ_section_title
;
Structure prediction by ZEFSAII (Michael W. Deem and Ramdas Pophale) SiO2 
 PCOD9328967
Probable space group: F 2 2 2
;
_chemical_formula_sum "Si O2"
_cell_formula_units_Z 80
_cell_length_a 14.998479
_cell_length_b 11.785250
_cell_length_c 21.111420
_cell_angle_alpha 90.000000
_cell_angle_beta 90.000000
_cell_angle_gamma 90.000000
_cell_volume 3731.672008
_symmetry_space_group_name_H-M "F 2 2 2"
_symmetry_group_IT_number 22
_symmetry_cell_setting 'orthorhombic'
loop_
_space_group_symop_operation_xyz
x,y,z
-x,-y,z
x,-y,-z
-x,y,-z
x,1/2+y,1/2+z
-x,1/2-y,1/2+z
x,1/2-y,1/2-z
-x,1/2+y,1/2-z
1/2+x,y,1/2+z
1/2-x,-y,1/2+z
1/2+x,-y,1/2-z
1/2-x,y,1/2-z
1/2+x,1/2+y,z
1/2-x,1/2-y,z
1/2+x,1/2-y,-z
1/2-x,1/2+y,-z
loop_
_atom_site_type_symbol
_atom_site_label
_atom_site_fract_x
_atom_site_fract_y
_atom_site_fract_z
Si Si1 0.217681 0.538906 0.134932
Si Si2 0.618825 0.873620 0.219000
Si Si3 0.649271 0.000000 0.000000
Si Si4 0.000000 0.687920 0.000000
Si Si5 0.582537 0.944042 0.671465
Si Si6 0.047256 0.796044 0.357214
O O1 0.198683 0.429401 0.178680
O O2 0.319075 0.574545 0.144249
O O3 0.138517 0.631011 0.147409
O O4 0.206847 0.511778 0.061842
O O5 0.635951 0.750000 0.250000
O O6 0.595444 0.967633 0.271560
O O7 0.536418 0.864620 0.169962
O O8 0.584529 0.106465 0.988953
O O9 0.975107 0.739698 0.930688
O O10 0.446699 0.183690 0.685107
O O11 0.500000 0.000000 0.632907
#
# Coordination Sequence:
#
# PCOD9328967 Si02
#       6
#    16  16   8   8  16  16
#     4  11  24  43  73 101 134 182 231 282 333 411
#     4  12  25  44  72 101 140 177 225 285 344 408
#     4   9  18  40  69 106 128 172 237 282 325 404
#     4   9  18  40  75 100 130 178 227 285 338 398
#     4  12  26  45  64 101 142 182 222 277 348 400
#     4  11  23  45  73 101 137 176 231 282 343 408
#
# _framework density 21.438112
#
# number of rings (size 3 to 8) (size 9 to 14) (size 15 to 20)
#    0.000    1.000    4.000    3.000    0.000    1.600 
#    3.600    2.000    4.400    0.000    0.000    0.000 
#    0.000    0.000    0.000    0.000    0.000    0.000 
#
# Total GULP energy -111615.044995 kJ/mol
# GULP energy per Si atom -5580.752250 kJ/mol
# Density = 2.138932 g / cm^3
# Si number density = 21.438112 Si / 1000 Ang^3
#
#
#
# Elastic Constant Matrix: (Units=GPa)
#
#
# Indices 1 2 3 4 5 6 
#
# 1 106.5196 3.8755 17.0975 0.0000 0.0000 0.0000
# 2 3.8755 100.3879 45.6404 0.0000 0.0000 0.0000
# 3 17.0975 45.6404 90.4273 0.0000 0.0000 0.0000
# 4 0.0000 0.0000 0.0000 18.6043 0.0000 0.0000
# 5 0.0000 0.0000 0.0000 0.0000 20.5608 0.0000
# 6 0.0000 0.0000 0.0000 0.0000 0.0000 21.8427
#
#
#
# Elastic Compliance Matrix: (Units=1/GPa)
#
#
# Indices 1 2 3 4 5 6 
#
# 1 0.009709 0.000597 -0.002137 0.000000 0.000000 0.000000
# 2 0.000597 0.012965 -0.006656 0.000000 0.000000 0.000000
# 3 -0.002137 -0.006656 0.014822 0.000000 0.000000 0.000000
# 4 0.000000 0.000000 0.000000 0.053751 0.000000 0.000000
# 5 0.000000 0.000000 0.000000 0.000000 0.048636 0.000000
# 6 0.000000 0.000000 0.000000 0.000000 0.000000 0.045782
#
#
# Mechanical properties :
#
#
# Convention : Reuss Voigt Hill
#
# Bulk Modulus (GPa) = 47.38670 47.84016 47.61343
# Shear Modulus (GPa) = 23.91284 27.58297 25.74790
#
# Velocity S-wave (km/s) = 3.34344 3.59086 3.46935
# Velocity P-wave (km/s) = 6.08742 6.28938 6.18922
#
# Compressibility (1/GPa) = 0.02110297
#
# Stress axis : x y z
#
# Youngs Moduli (GPa) = 102.99475 77.13345 67.46633
#
# Poissons Ratio (x) = -0.04603 0.14417
# Poissons Ratio (y) = -0.06146 0.44908
# Poissons Ratio (z) = 0.22009 0.51342
#
# Static dielectric constant tensor:
#      x y z
#    x 1.809890 0.000000 0.000000 
#    y 0.000000 1.783190 0.000000 
#    z 0.000000 0.000000 1.794700 
# 
# From -- ./inp_files/48762.got.cif
#   From: 2010.05.17/outbox.cif.g08.bks.cpg/sg22_25_cif.got.tgz:48762.got - 2010.06.03 23:40:54.
