data_PCOD9328339
_publ_section_title
;
Structure prediction by ZEFSAII (Michael W. Deem and Ramdas Pophale) SiO2 
 PCOD9328339
Probable space group: F 2 2 2
;
_chemical_formula_sum "Si O2"
_cell_formula_units_Z 116
_cell_length_a 25.793158
_cell_length_b 18.320084
_cell_length_c 12.097755
_cell_angle_alpha 90.000000
_cell_angle_beta 90.000000
_cell_angle_gamma 90.000000
_cell_volume 5716.586300
_symmetry_space_group_name_H-M "F 2 2 2"
_symmetry_group_IT_number 22
_symmetry_cell_setting 'orthorhombic'
loop_
_space_group_symop_operation_xyz
x,y,z
-x,-y,z
x,-y,-z
-x,y,-z
x,1/2+y,1/2+z
-x,1/2-y,1/2+z
x,1/2-y,1/2-z
-x,1/2+y,1/2-z
1/2+x,y,1/2+z
1/2-x,-y,1/2+z
1/2+x,-y,1/2-z
1/2-x,y,1/2-z
1/2+x,1/2+y,z
1/2-x,1/2-y,z
1/2+x,1/2-y,-z
1/2-x,1/2+y,-z
loop_
_atom_site_type_symbol
_atom_site_label
_atom_site_fract_x
_atom_site_fract_y
_atom_site_fract_z
Si Si1 0.346259 0.691226 0.877677
Si Si2 0.415275 0.885341 0.810451
Si Si3 0.843466 0.431745 0.439489
Si Si4 0.528982 0.173667 0.185330
Si Si5 0.250000 0.250000 0.250000
Si Si6 0.188684 0.333223 0.766829
Si Si7 0.445501 0.528609 0.177124
Si Si8 0.376121 0.665478 0.480783
O O1 0.384765 0.663499 0.780614
O O2 0.289737 0.704188 0.824850
O O3 0.344235 0.629455 0.968589
O O4 0.363090 0.763029 0.945729
O O5 0.469166 0.844861 0.841188
O O6 0.427512 0.964042 0.759155
O O7 0.383469 0.893974 0.923445
O O8 0.815371 0.500000 0.500000
O O9 0.826263 0.393010 0.325266
O O10 0.900706 0.458066 0.408920
O O11 0.531188 0.250000 0.250000
O O12 0.545937 0.105195 0.260855
O O13 0.570128 0.176212 0.085823
O O14 0.167272 0.250000 0.750000
O O15 0.250000 0.327812 0.750000
O O16 0.167432 0.351696 0.888881
O O17 0.500000 0.500000 0.131126
#
# Coordination Sequence:
#
# PCOD9328339 Si02
#       8
#    16  16  16  16   4  16  16  16
#     4  12  25  44  73 103 139 184 242 296 358 442
#     4  11  24  43  65 103 147 184 232 289 361 439
#     4  12  24  45  69  99 144 186 236 303 354 428
#     4  11  22  41  69 102 142 185 237 292 350 420
#     4  12  28  48  76 106 140 188 238 300 384 424
#     4  11  25  45  72 105 136 179 245 303 360 425
#     4  10  23  44  66 101 144 189 233 282 359 434
#     4  12  22  41  70 101 138 181 234 296 352 420
#
# _framework density 20.291830999999998
#
# number of rings (size 3 to 8) (size 9 to 14) (size 15 to 20)
#    0.000    0.690    5.517    2.483    1.931    0.828 
#    1.241    4.828    0.000    0.000    0.000    0.000 
#    0.000    0.000    0.000    0.000    0.000    0.000 
#
# Total GULP energy -161864.071931 kJ/mol
# GULP energy per Si atom -5581.519722 kJ/mol
# Density = 2.024565 g / cm^3
# Si number density = 20.291831 Si / 1000 Ang^3
#
#
#
# Elastic Constant Matrix: (Units=GPa)
#
#
# Indices 1 2 3 4 5 6 
#
# 1 102.0722 39.9221 56.5782 0.0000 0.0000 0.0000
# 2 39.9221 122.7531 59.1263 0.0000 0.0000 0.0000
# 3 56.5782 59.1263 150.6558 0.0000 0.0000 0.0000
# 4 0.0000 0.0000 0.0000 33.3066 0.0000 0.0000
# 5 0.0000 0.0000 0.0000 0.0000 22.2510 0.0000
# 6 0.0000 0.0000 0.0000 0.0000 0.0000 23.6835
#
#
#
# Elastic Compliance Matrix: (Units=1/GPa)
#
#
# Indices 1 2 3 4 5 6 
#
# 1 0.012875 -0.002291 -0.003936 0.000000 0.000000 0.000000
# 2 -0.002291 0.010453 -0.003242 0.000000 0.000000 0.000000
# 3 -0.003936 -0.003242 0.009388 0.000000 0.000000 0.000000
# 4 0.000000 0.000000 0.000000 0.030024 0.000000 0.000000
# 5 0.000000 0.000000 0.000000 0.000000 0.044942 0.000000
# 6 0.000000 0.000000 0.000000 0.000000 0.000000 0.042224
#
#
# Mechanical properties :
#
#
# Convention : Reuss Voigt Hill
#
# Bulk Modulus (GPa) = 72.58077 76.30381 74.44229
# Shear Modulus (GPa) = 28.82905 30.50519 29.66712
#
# Velocity S-wave (km/s) = 3.77334 3.88148 3.82779
# Velocity P-wave (km/s) = 7.40474 7.60083 7.50343
#
# Compressibility (1/GPa) = 0.01377775
#
# Stress axis : x y z
#
# Youngs Moduli (GPa) = 77.67114 95.66462 106.51858
#
# Poissons Ratio (x) = 0.21921 0.41923
# Poissons Ratio (y) = 0.17798 0.34532
# Poissons Ratio (z) = 0.30570 0.31014
#
# Static dielectric constant tensor:
#      x y z
#    x 1.732400 0.000000 0.000000 
#    y 0.000000 1.762230 0.000000 
#    z 0.000000 0.000000 1.719220 
# 
# From -- ./inp_files/24720.got.cif
#   From: 2010.05.17/outbox.cif.g08.bks.cpg/sg22_13_cif.got.tgz:24720.got - 2010.06.03 23:40:54.
