data_PCOD9328845
_publ_section_title
;
Structure prediction by ZEFSAII (Michael W. Deem and Ramdas Pophale) SiO2 
 PCOD9328845
Probable space group: F 2 2 2
;
_chemical_formula_sum "Si O2"
_cell_formula_units_Z 60
_cell_length_a 16.870771
_cell_length_b 10.937495
_cell_length_c 17.011093
_cell_angle_alpha 90.000000
_cell_angle_beta 90.000000
_cell_angle_gamma 90.000000
_cell_volume 3138.954473
_symmetry_space_group_name_H-M "F 2 2 2"
_symmetry_group_IT_number 22
_symmetry_cell_setting 'orthorhombic'
loop_
_space_group_symop_operation_xyz
x,y,z
-x,-y,z
x,-y,-z
-x,y,-z
x,1/2+y,1/2+z
-x,1/2-y,1/2+z
x,1/2-y,1/2-z
-x,1/2+y,1/2-z
1/2+x,y,1/2+z
1/2-x,-y,1/2+z
1/2+x,-y,1/2-z
1/2-x,y,1/2-z
1/2+x,1/2+y,z
1/2-x,1/2-y,z
1/2+x,1/2-y,-z
1/2-x,1/2+y,-z
loop_
_atom_site_type_symbol
_atom_site_label
_atom_site_fract_x
_atom_site_fract_y
_atom_site_fract_z
Si Si1 0.677688 0.929810 0.624241
Si Si2 0.309395 0.500000 0.500000
Si Si3 0.594159 0.749544 0.499328
Si Si4 0.750000 0.750000 0.750000
Si Si5 0.839633 0.807469 0.171027
O O1 0.625666 0.855098 0.559462
O O2 0.700957 0.832997 0.690137
O O3 0.750235 0.990404 0.574565
O O4 0.649692 0.046812 0.673488
O O5 0.362935 0.380319 0.512793
O O6 0.500000 0.741090 0.500000
O O7 0.619890 0.777654 0.410860
O O8 0.874990 0.750000 0.250000
O O9 0.750000 0.750000 0.166823
#
# Coordination Sequence:
#
# PCOD9328845 Si02
#       5
#    16   8  16   4  16
#     4  12  23  42  72  98 133 175 235 279 326 403
#     4  12  21  46  67  96 130 186 230 266 329 414
#     4  12  25  43  68 101 139 180 219 276 348 407
#     4  12  24  40  66 112 122 168 234 298 316 380
#     4  11  22  41  70 100 129 177 233 278 326 401
#
# _framework density 19.114644999999999
#
# number of rings (size 3 to 8) (size 9 to 14) (size 15 to 20)
#    0.000    0.267    8.000    2.000    0.000    2.133 
#    2.400    0.000    0.000    0.000    0.000    0.000 
#    0.000    0.000    0.000    0.000    0.000    0.000 
#
# Total GULP energy -83587.781533 kJ/mol
# GULP energy per Si atom -5572.518769 kJ/mol
# Density = 1.907114 g / cm^3
# Si number density = 19.114645 Si / 1000 Ang^3
#
#
#
# Elastic Constant Matrix: (Units=GPa)
#
#
# Indices 1 2 3 4 5 6 
#
# 1 71.0896 29.9404 29.3690 0.0000 0.0000 0.0000
# 2 29.9404 157.6293 55.0203 0.0000 0.0000 0.0000
# 3 29.3690 55.0203 153.5933 0.0000 0.0000 0.0000
# 4 0.0000 0.0000 0.0000 54.4889 0.0000 0.0000
# 5 0.0000 0.0000 0.0000 0.0000 3.7406 0.0000
# 6 0.0000 0.0000 0.0000 0.0000 0.0000 8.8791
#
#
#
# Elastic Compliance Matrix: (Units=1/GPa)
#
#
# Indices 1 2 3 4 5 6 
#
# 1 0.015939 -0.002244 -0.002244 0.000000 0.000000 0.000000
# 2 -0.002244 0.007567 -0.002281 0.000000 0.000000 0.000000
# 3 -0.002244 -0.002281 0.007757 0.000000 0.000000 0.000000
# 4 0.000000 0.000000 0.000000 0.018352 0.000000 0.000000
# 5 0.000000 0.000000 0.000000 0.000000 0.267335 0.000000
# 6 0.000000 0.000000 0.000000 0.000000 0.000000 0.112624
#
#
# Mechanical properties :
#
#
# Convention : Reuss Voigt Hill
#
# Bulk Modulus (GPa) = 56.42190 67.88577 62.15383
# Shear Modulus (GPa) = 11.13534 31.28724 21.21129
#
# Velocity S-wave (km/s) = 2.41624 4.05015 3.33481
# Velocity P-wave (km/s) = 6.11277 7.58049 6.88585
#
# Compressibility (1/GPa) = 0.01772361
#
# Stress axis : x y z
#
# Youngs Moduli (GPa) = 62.73949 132.15991 128.91624
#
# Poissons Ratio (x) = 0.29660 0.28926
# Poissons Ratio (y) = 0.14081 0.29411
# Poissons Ratio (z) = 0.14077 0.30151
#
# Static dielectric constant tensor:
#      x y z
#    x 1.643640 0.000000 0.000000 
#    y 0.000000 1.624970 0.000000 
#    z 0.000000 0.000000 1.665130 
# 
# From -- ./inp_files/10958.got.cif
#   From: 2010.05.17/outbox.cif.g08.bks.cpg/sg22_6_cif.got.tgz:10958.got - 2010.06.03 23:40:54.
