data_PCOD9328954
_publ_section_title
;
Structure prediction by ZEFSAII (Michael W. Deem and Ramdas Pophale) SiO2 
 PCOD9328954
Probable space group: F 2 2 2
;
_chemical_formula_sum "Si O2"
_cell_formula_units_Z 112
_cell_length_a 27.791367
_cell_length_b 15.058920
_cell_length_c 9.913435
_cell_angle_alpha 90.000000
_cell_angle_beta 90.000000
_cell_angle_gamma 90.000000
_cell_volume 4148.851581
_symmetry_space_group_name_H-M "F 2 2 2"
_symmetry_group_IT_number 22
_symmetry_cell_setting 'orthorhombic'
loop_
_space_group_symop_operation_xyz
x,y,z
-x,-y,z
x,-y,-z
-x,y,-z
x,1/2+y,1/2+z
-x,1/2-y,1/2+z
x,1/2-y,1/2-z
-x,1/2+y,1/2-z
1/2+x,y,1/2+z
1/2-x,-y,1/2+z
1/2+x,-y,1/2-z
1/2-x,y,1/2-z
1/2+x,1/2+y,z
1/2-x,1/2-y,z
1/2+x,1/2-y,-z
1/2-x,1/2+y,-z
loop_
_atom_site_type_symbol
_atom_site_label
_atom_site_fract_x
_atom_site_fract_y
_atom_site_fract_z
Si Si1 0.004053 0.893084 0.705572
Si Si2 0.925404 0.309037 0.006256
Si Si3 0.630012 0.522515 0.847378
Si Si4 0.165261 0.651792 0.734097
Si Si5 0.046429 0.892266 0.033090
Si Si6 0.168004 0.415920 0.909999
Si Si7 0.249919 0.348778 0.037579
O O1 0.050438 0.854800 0.626208
O O2 0.961915 0.840744 0.625759
O O3 0.003864 0.878835 0.873748
O O4 0.000000 0.000000 0.685789
O O5 0.930003 0.202841 0.992844
O O6 0.871138 0.341393 0.042249
O O7 0.626760 0.425766 0.778240
O O8 0.584374 0.585754 0.842899
O O9 0.665814 0.571183 0.749182
O O10 0.643062 0.500000 0.000000
O O11 0.144618 0.750000 0.750000
O O12 0.207209 0.646448 0.847941
O O13 0.198638 0.640184 0.602517
O O14 0.048401 0.000000 0.000000
O O15 0.151372 0.500000 0.000000
O O16 0.225208 0.410561 0.931898
O O17 0.250000 0.250000 0.981250
#
# Coordination Sequence:
#
# PCOD9328954 Si02
#       7
#    16  16  16  16  16  16  16
#     4  11  23  43  74 102 139 202 275 340 393 471
#     4  11  24  44  75 104 145 199 268 334 400 479
#     4  12  29  48  71 116 161 211 263 336 413 491
#     4   9  20  47  81 111 155 206 265 321 404 495
#     4  12  28  47  73 105 161 215 260 336 424 491
#     4  12  24  45  80 118 154 205 277 343 399 484
#     4   9  20  43  82 115 151 199 255 335 401 483
#
# _framework density 26.995422000000001
#
# number of rings (size 3 to 8) (size 9 to 14) (size 15 to 20)
#    0.000    1.143    4.286    3.000    2.000    2.857 
#    0.000    0.000    0.000    5.143    0.000    0.000 
#    0.000    0.000    0.000    0.000    0.000    0.000 
#
# Total GULP energy -156084.814589 kJ/mol
# GULP energy per Si atom -5574.457664 kJ/mol
# Density = 2.693398 g / cm^3
# Si number density = 26.995422 Si / 1000 Ang^3
#
#
#
# Elastic Constant Matrix: (Units=GPa)
#
#
# Indices 1 2 3 4 5 6 
#
# 1 90.4724 82.9775 42.0253 0.0000 0.0000 0.0000
# 2 82.9775 166.2087 16.0982 0.0000 0.0000 0.0000
# 3 42.0253 16.0982 118.0639 0.0000 0.0000 0.0000
# 4 0.0000 0.0000 0.0000 35.7571 0.0000 0.0000
# 5 0.0000 0.0000 0.0000 0.0000 33.4871 0.0000
# 6 0.0000 0.0000 0.0000 0.0000 0.0000 305.6710
#
#
#
# Elastic Compliance Matrix: (Units=1/GPa)
#
#
# Indices 1 2 3 4 5 6 
#
# 1 0.025555 -0.012036 -0.007455 0.000000 0.000000 0.000000
# 2 -0.012036 0.011766 0.002680 0.000000 0.000000 0.000000
# 3 -0.007455 0.002680 0.010758 0.000000 0.000000 0.000000
# 4 0.000000 0.000000 0.000000 0.027967 0.000000 0.000000
# 5 0.000000 0.000000 0.000000 0.000000 0.029862 0.000000
# 6 0.000000 0.000000 0.000000 0.000000 0.000000 0.003271
#
#
# Mechanical properties :
#
#
# Convention : Reuss Voigt Hill
#
# Bulk Modulus (GPa) = 69.17278 72.99411 71.08345
# Shear Modulus (GPa) = 33.87065 90.55930 62.21497
#
# Velocity S-wave (km/s) = 3.54599 5.79819 4.80588
# Velocity P-wave (km/s) = 6.51498 8.48077 7.56202
#
# Compressibility (1/GPa) = 0.01445655
#
# Stress axis : x y z
#
# Youngs Moduli (GPa) = 39.13139 84.99271 92.95139
#
# Poissons Ratio (x) = 1.02296 0.69298
# Poissons Ratio (y) = 0.47098 -0.24910
# Poissons Ratio (z) = 0.29174 -0.22778
#
# Static dielectric constant tensor:
#      x y z
#    x 2.407200 0.000000 0.000000 
#    y 0.000000 2.044550 0.000000 
#    z 0.000000 0.000000 0.130370 
# 
# From -- ./inp_files/25405.got.cif
#   From: 2010.05.17/outbox.cif.g08.bks.cpg/sg22_13_cif.got.tgz:25405.got - 2010.06.03 23:40:54.
