data_PCOD9328091
_publ_section_title
;
Structure prediction by ZEFSAII (Michael W. Deem and Ramdas Pophale) SiO2 
 PCOD9328091
Probable space group: F 2 2 2
;
_chemical_formula_sum "Si O2"
_cell_formula_units_Z 64
_cell_length_a 33.571116
_cell_length_b 12.143489
_cell_length_c 7.748462
_cell_angle_alpha 90.000000
_cell_angle_beta 90.000000
_cell_angle_gamma 90.000000
_cell_volume 3158.819206
_symmetry_space_group_name_H-M "F 2 2 2"
_symmetry_group_IT_number 22
_symmetry_cell_setting 'orthorhombic'
loop_
_space_group_symop_operation_xyz
x,y,z
-x,-y,z
x,-y,-z
-x,y,-z
x,1/2+y,1/2+z
-x,1/2-y,1/2+z
x,1/2-y,1/2-z
-x,1/2+y,1/2-z
1/2+x,y,1/2+z
1/2-x,-y,1/2+z
1/2+x,-y,1/2-z
1/2-x,y,1/2-z
1/2+x,1/2+y,z
1/2-x,1/2-y,z
1/2+x,1/2-y,-z
1/2-x,1/2+y,-z
loop_
_atom_site_type_symbol
_atom_site_label
_atom_site_fract_x
_atom_site_fract_y
_atom_site_fract_z
Si Si1 0.250000 0.750000 0.250000
Si Si2 0.930998 0.345750 0.109432
Si Si3 0.600682 0.250000 0.750000
Si Si4 0.000000 0.000000 0.500000
Si Si5 0.708375 0.545057 0.680557
Si Si6 0.373158 0.008489 0.309761
O O1 0.278266 0.669863 0.354562
O O2 0.932828 0.250000 0.250000
O O3 0.896937 0.432207 0.173620
O O4 0.923591 0.286625 0.923182
O O5 0.970697 0.419501 0.103987
O O6 0.626023 0.138910 0.724502
O O7 0.694287 0.500000 0.500000
O O8 0.750000 0.493479 0.750000
O O9 0.672064 0.534876 0.810009
O O10 0.391824 0.000000 0.500000
#
# Coordination Sequence:
#
# PCOD9328091 Si02
#       6
#     4  16   8   4  16  16
#     4   8  24  40  66  88 148 184 230 294 350 406
#     4  12  27  47  74 107 144 187 239 300 363 437
#     4  12  24  48  73 107 142 194 234 301 363 436
#     4  12  28  48  74 110 144 182 248 292 368 444
#     4  10  22  43  65  99 139 185 239 295 352 417
#     4  12  25  45  74 105 144 192 241 297 367 429
#
# _framework density 20.260736000000001
#
# number of rings (size 3 to 8) (size 9 to 14) (size 15 to 20)
#    0.750    0.000    5.000    2.250    3.500    2.000 
#    0.000    1.250    0.000    0.000    0.000    0.000 
#    0.000    0.000    0.000    0.000    0.000    0.000 
#
# Total GULP energy -89105.307586 kJ/mol
# GULP energy per Si atom -5569.081724 kJ/mol
# Density = 2.021462 g / cm^3
# Si number density = 20.260736 Si / 1000 Ang^3
#
#
#
# Elastic Constant Matrix: (Units=GPa)
#
#
# Indices 1 2 3 4 5 6 
#
# 1 119.3084 44.2748 19.9185 0.0000 0.0000 0.0000
# 2 44.2748 161.5747 35.7129 0.0000 0.0000 0.0000
# 3 19.9185 35.7129 112.5321 0.0000 0.0000 0.0000
# 4 0.0000 0.0000 0.0000 23.9548 0.0000 0.0000
# 5 0.0000 0.0000 0.0000 0.0000 19.3450 0.0000
# 6 0.0000 0.0000 0.0000 0.0000 0.0000 27.8858
#
#
#
# Elastic Compliance Matrix: (Units=1/GPa)
#
#
# Indices 1 2 3 4 5 6 
#
# 1 0.009417 -0.002379 -0.000912 0.000000 0.000000 0.000000
# 2 -0.002379 0.007257 -0.001882 0.000000 0.000000 0.000000
# 3 -0.000912 -0.001882 0.009645 0.000000 0.000000 0.000000
# 4 0.000000 0.000000 0.000000 0.041745 0.000000 0.000000
# 5 0.000000 0.000000 0.000000 0.000000 0.051693 0.000000
# 6 0.000000 0.000000 0.000000 0.000000 0.000000 0.035861
#
#
# Mechanical properties :
#
#
# Convention : Reuss Voigt Hill
#
# Bulk Modulus (GPa) = 62.60447 65.91418 64.25932
# Shear Modulus (GPa) = 29.19078 33.80439 31.49759
#
# Velocity S-wave (km/s) = 3.79985 4.08912 3.94713
# Velocity P-wave (km/s) = 7.08649 7.40933 7.24970
#
# Compressibility (1/GPa) = 0.01597330
#
# Stress axis : x y z
#
# Youngs Moduli (GPa) = 106.19505 137.79978 103.68057
#
# Poissons Ratio (x) = 0.32780 0.09454
# Poissons Ratio (y) = 0.25262 0.19512
# Poissons Ratio (z) = 0.09683 0.25934
#
# Static dielectric constant tensor:
#      x y z
#    x 1.723770 0.000000 0.000000 
#    y 0.000000 1.713800 0.000000 
#    z 0.000000 0.000000 1.785930 
# 
# From -- ./inp_files/15358.got.cif
#   From: 2010.05.17/outbox.cif.g08.bks.cpg/sg22_8_cif.got.tgz:15358.got - 2010.06.03 23:40:54.
