data_PCOD9328136
_publ_section_title
;
Structure prediction by ZEFSAII (Michael W. Deem and Ramdas Pophale) SiO2 
 PCOD9328136
Probable space group: F 2 2 2
;
_chemical_formula_sum "Si O2"
_cell_formula_units_Z 104
_cell_length_a 19.745020
_cell_length_b 9.225779
_cell_length_c 27.459555
_cell_angle_alpha 90.000000
_cell_angle_beta 90.000000
_cell_angle_gamma 90.000000
_cell_volume 5002.120159
_symmetry_space_group_name_H-M "F 2 2 2"
_symmetry_group_IT_number 22
_symmetry_cell_setting 'orthorhombic'
loop_
_space_group_symop_operation_xyz
x,y,z
-x,-y,z
x,-y,-z
-x,y,-z
x,1/2+y,1/2+z
-x,1/2-y,1/2+z
x,1/2-y,1/2-z
-x,1/2+y,1/2-z
1/2+x,y,1/2+z
1/2-x,-y,1/2+z
1/2+x,-y,1/2-z
1/2-x,y,1/2-z
1/2+x,1/2+y,z
1/2-x,1/2-y,z
1/2+x,1/2-y,-z
1/2-x,1/2+y,-z
loop_
_atom_site_type_symbol
_atom_site_label
_atom_site_fract_x
_atom_site_fract_y
_atom_site_fract_z
Si Si1 0.750000 0.250000 0.947060
Si Si2 0.658836 0.941704 0.381179
Si Si3 0.621919 0.342295 0.489991
Si Si4 0.032081 0.841319 0.939902
Si Si5 0.899699 0.264592 0.112111
Si Si6 0.062725 0.389622 0.783048
Si Si7 0.325883 0.088681 0.267422
O O1 0.719528 0.379545 0.914070
O O2 0.690257 0.187739 0.980438
O O3 0.637967 0.110113 0.384174
O O4 0.593031 0.859026 0.401427
O O5 0.672773 0.909901 0.325396
O O6 0.592724 0.500000 0.500000
O O7 0.568610 0.225582 0.512277
O O8 0.637807 0.340975 0.432671
O O9 0.974401 0.752097 0.911906
O O10 0.000000 0.000000 0.947752
O O11 0.908909 0.337565 0.164463
O O12 0.043141 0.250000 0.750000
O O13 0.121456 0.474518 0.754278
O O14 0.000000 0.500000 0.789167
O O15 0.343763 0.250000 0.250000
O O16 0.250000 0.054796 0.250000
#
# Coordination Sequence:
#
# PCOD9328136 Si02
#       7
#     8  16  16  16  16  16  16
#     4  10  24  44  71 100 141 188 238 288 354 438
#     4  10  22  44  71 102 137 187 245 291 362 432
#     4  11  26  42  66 104 143 184 236 295 361 430
#     4   9  22  42  70  95 135 179 236 291 355 431
#     4  11  25  43  69 103 139 190 237 299 368 425
#     4  12  28  47  73 110 146 189 245 306 368 434
#     4  11  25  46  73 102 142 190 242 300 362 434
#
# _framework density 20.791184000000001
#
# number of rings (size 3 to 8) (size 9 to 14) (size 15 to 20)
#    0.000    1.385    1.538    1.846    8.615   10.154 
#    0.000    0.000    0.000    0.000    0.000    0.000 
#    0.000    0.000    0.000    0.000    0.000    0.000 
#
# Total GULP energy -145266.502633 kJ/mol
# GULP energy per Si atom -5587.173178 kJ/mol
# Density = 2.074386 g / cm^3
# Si number density = 20.791184 Si / 1000 Ang^3
#
#
#
# Elastic Constant Matrix: (Units=GPa)
#
#
# Indices 1 2 3 4 5 6 
#
# 1 106.3241 40.1014 50.5990 0.0000 0.0000 0.0000
# 2 40.1014 88.8628 45.6120 0.0000 0.0000 0.0000
# 3 50.5990 45.6120 188.9878 0.0000 0.0000 0.0000
# 4 0.0000 0.0000 0.0000 17.0470 0.0000 0.0000
# 5 0.0000 0.0000 0.0000 0.0000 20.6666 0.0000
# 6 0.0000 0.0000 0.0000 0.0000 0.0000 36.8137
#
#
#
# Elastic Compliance Matrix: (Units=1/GPa)
#
#
# Indices 1 2 3 4 5 6 
#
# 1 0.012079 -0.004327 -0.002190 0.000000 0.000000 0.000000
# 2 -0.004327 0.014395 -0.002316 0.000000 0.000000 0.000000
# 3 -0.002190 -0.002316 0.006436 0.000000 0.000000 0.000000
# 4 0.000000 0.000000 0.000000 0.058661 0.000000 0.000000
# 5 0.000000 0.000000 0.000000 0.000000 0.048387 0.000000
# 6 0.000000 0.000000 0.000000 0.000000 0.000000 0.027164
#
#
# Mechanical properties :
#
#
# Convention : Reuss Voigt Hill
#
# Bulk Modulus (GPa) = 65.59311 72.97771 69.28541
# Shear Modulus (GPa) = 26.33388 31.42962 28.88175
#
# Velocity S-wave (km/s) = 3.56278 3.89225 3.73115
# Velocity P-wave (km/s) = 6.96717 7.44151 7.20824
#
# Compressibility (1/GPa) = 0.01524550
#
# Stress axis : x y z
#
# Youngs Moduli (GPa) = 82.78625 69.47068 155.36440
#
# Poissons Ratio (x) = 0.30061 0.34021
# Poissons Ratio (y) = 0.35822 0.35976
# Poissons Ratio (z) = 0.18128 0.16087
#
# Static dielectric constant tensor:
#      x y z
#    x 1.984440 0.000000 0.000000 
#    y 0.000000 1.735800 0.000000 
#    z 0.000000 0.000000 1.742970 
# 
# From -- ./inp_files/53910.got.cif
#   From: 2010.05.17/outbox.cif.g08.bks.cpg/sg22_27_cif.got.tgz:53910.got - 2010.06.03 23:40:54.
