data_PCOD9328682
_publ_section_title
;
Structure prediction by ZEFSAII (Michael W. Deem and Ramdas Pophale) SiO2 
 PCOD9328682
Probable space group: F 2 2 2
;
_chemical_formula_sum "Si O2"
_cell_formula_units_Z 116
_cell_length_a 15.739845
_cell_length_b 12.710802
_cell_length_c 25.309794
_cell_angle_alpha 90.000000
_cell_angle_beta 90.000000
_cell_angle_gamma 90.000000
_cell_volume 5063.630596
_symmetry_space_group_name_H-M "F 2 2 2"
_symmetry_group_IT_number 22
_symmetry_cell_setting 'orthorhombic'
loop_
_space_group_symop_operation_xyz
x,y,z
-x,-y,z
x,-y,-z
-x,y,-z
x,1/2+y,1/2+z
-x,1/2-y,1/2+z
x,1/2-y,1/2-z
-x,1/2+y,1/2-z
1/2+x,y,1/2+z
1/2-x,-y,1/2+z
1/2+x,-y,1/2-z
1/2-x,y,1/2-z
1/2+x,1/2+y,z
1/2-x,1/2-y,z
1/2+x,1/2-y,-z
1/2-x,1/2+y,-z
loop_
_atom_site_type_symbol
_atom_site_label
_atom_site_fract_x
_atom_site_fract_y
_atom_site_fract_z
Si Si1 0.493560 0.167234 0.620649
Si Si2 0.780514 0.871214 0.634702
Si Si3 0.178389 0.886640 0.477611
Si Si4 0.379025 0.330108 0.986989
Si Si5 0.466470 0.166705 0.205053
Si Si6 0.874152 0.474302 0.226076
Si Si7 0.500000 0.500000 0.000000
Si Si8 0.630662 0.987801 0.345214
O O1 0.437484 0.173151 0.566486
O O2 0.499823 0.274262 0.653350
O O3 0.437092 0.082113 0.651598
O O4 0.587455 0.114427 0.629175
O O5 0.750000 0.750000 0.634331
O O6 0.842333 0.880409 0.584732
O O7 0.813535 0.899785 0.692461
O O8 0.710433 0.962151 0.624969
O O9 0.280840 0.864681 0.480399
O O10 0.129558 0.790076 0.505792
O O11 0.159137 0.000000 0.500000
O O12 0.429686 0.416830 0.021292
O O13 0.439555 0.250000 0.250000
O O14 0.542419 0.098531 0.230382
O O15 0.395834 0.079222 0.192773
O O16 0.848386 0.518680 0.283144
#
# Coordination Sequence:
#
# PCOD9328682 Si02
#       8
#    16  16  16  16  16  16   4  16
#     4  11  20  37  66  91 129 173 224 272 324 396
#     4  12  24  40  65  97 132 176 230 284 351 412
#     4  11  23  46  71  98 143 184 222 301 377 431
#     4  11  23  41  72 108 132 175 233 287 353 429
#     4  11  19  37  59  83 126 177 216 264 330 396
#     4  11  23  35  58  98 128 174 229 268 341 404
#     4  12  24  44  74 112 124 174 236 290 340 444
#     4  11  20  34  60  99 132 172 221 282 322 391
#
# _framework density 22.908463999999999
#
# number of rings (size 3 to 8) (size 9 to 14) (size 15 to 20)
#    0.000    0.828    6.207    3.724    0.000    0.552 
#    2.483    1.034    0.000    0.000    0.000    0.000 
#    0.000    0.000    0.000    0.000    0.000    0.000 
#
# Total GULP energy -161522.163322 kJ/mol
# GULP energy per Si atom -5569.729770 kJ/mol
# Density = 2.285632 g / cm^3
# Si number density = 22.908464 Si / 1000 Ang^3
#
#
#
# Elastic Constant Matrix: (Units=GPa)
#
#
# Indices 1 2 3 4 5 6 
#
# 1 45.3123 26.7410 0.0114 0.0000 0.0000 0.0000
# 2 26.7410 154.4643 31.5518 0.0000 0.0000 0.0000
# 3 0.0114 31.5518 67.6524 0.0000 0.0000 0.0000
# 4 0.0000 0.0000 0.0000 14.9065 0.0000 0.0000
# 5 0.0000 0.0000 0.0000 0.0000 13.5495 0.0000
# 6 0.0000 0.0000 0.0000 0.0000 0.0000 39.4840
#
#
#
# Elastic Compliance Matrix: (Units=1/GPa)
#
#
# Indices 1 2 3 4 5 6 
#
# 1 0.024877 -0.004759 0.002215 0.000000 0.000000 0.000000
# 2 -0.004759 0.008066 -0.003761 0.000000 0.000000 0.000000
# 3 0.002215 -0.003761 0.016535 0.000000 0.000000 0.000000
# 4 0.000000 0.000000 0.000000 0.067085 0.000000 0.000000
# 5 0.000000 0.000000 0.000000 0.000000 0.073804 0.000000
# 6 0.000000 0.000000 0.000000 0.000000 0.000000 0.025327
#
#
# Mechanical properties :
#
#
# Convention : Reuss Voigt Hill
#
# Bulk Modulus (GPa) = 27.12331 42.67084 34.89707
# Shear Modulus (GPa) = 20.78197 27.52965 24.15581
#
# Velocity S-wave (km/s) = 3.01520 3.47035 3.25075
# Velocity P-wave (km/s) = 4.89770 5.89278 5.41813
#
# Compressibility (1/GPa) = 0.03686865
#
# Stress axis : x y z
#
# Youngs Moduli (GPa) = 40.19744 123.97413 60.47711
#
# Poissons Ratio (x) = 0.59003 -0.13399
# Poissons Ratio (y) = 0.19131 0.22746
# Poissons Ratio (z) = -0.08906 0.46628
#
# Static dielectric constant tensor:
#      x y z
#    x 1.959030 0.000000 0.000000 
#    y 0.000000 1.845060 0.000000 
#    z 0.000000 0.000000 1.925840 
# 
# From -- ./inp_files/56826.got.cif
#   From: 2010.05.17/outbox.cif.g08.bks.cpg/sg22_29_cif.got.tgz:56826.got - 2010.06.03 23:40:54.
