data_PCOD9328990
_publ_section_title
;
Structure prediction by ZEFSAII (Michael W. Deem and Ramdas Pophale) SiO2 
 PCOD9328990
Probable space group: F 2 2 2
;
_chemical_formula_sum "Si O2"
_cell_formula_units_Z 56
_cell_length_a 16.390552
_cell_length_b 19.304257
_cell_length_c 8.664487
_cell_angle_alpha 90.000000
_cell_angle_beta 90.000000
_cell_angle_gamma 90.000000
_cell_volume 2741.508048
_symmetry_space_group_name_H-M "F 2 2 2"
_symmetry_group_IT_number 22
_symmetry_cell_setting 'orthorhombic'
loop_
_space_group_symop_operation_xyz
x,y,z
-x,-y,z
x,-y,-z
-x,y,-z
x,1/2+y,1/2+z
-x,1/2-y,1/2+z
x,1/2-y,1/2-z
-x,1/2+y,1/2-z
1/2+x,y,1/2+z
1/2-x,-y,1/2+z
1/2+x,-y,1/2-z
1/2-x,y,1/2-z
1/2+x,1/2+y,z
1/2-x,1/2-y,z
1/2+x,1/2-y,-z
1/2-x,1/2+y,-z
loop_
_atom_site_type_symbol
_atom_site_label
_atom_site_fract_x
_atom_site_fract_y
_atom_site_fract_z
Si Si1 0.616382 0.176051 0.749311
Si Si2 0.250000 0.552396 0.250000
Si Si3 0.242013 0.825624 0.005960
Si Si4 0.084766 0.975218 0.678745
O O1 0.571613 0.250000 0.750000
O O2 0.655816 0.166040 0.580811
O O3 0.574971 0.106943 0.805782
O O4 0.690618 0.181348 0.871547
O O5 0.256358 0.606235 0.392756
O O6 0.168841 0.504520 0.252355
O O7 0.250000 0.750000 0.084482
O O8 0.088082 0.000000 0.500000
O O9 0.000000 0.000000 0.750868
#
# Coordination Sequence:
#
# PCOD9328990 Si02
#       4
#    16   8  16  16
#     4   9  18  37  60  84 120 168 203 244 309 378
#     4  12  21  36  63  88 126 162 202 262 319 348
#     4   9  18  33  59  92 122 159 209 250 306 376
#     4  11  24  40  63  94 125 162 211 256 310 375
#
# _framework density 20.426714
#
# number of rings (size 3 to 8) (size 9 to 14) (size 15 to 20)
#    0.000    2.000    2.857    3.857    0.000    0.000 
#    0.000    5.714    0.000    0.000    0.000    0.000 
#    0.000    0.000    0.000    0.000    0.000    0.000 
#
# Total GULP energy -77960.799702 kJ/mol
# GULP energy per Si atom -5568.628550 kJ/mol
# Density = 2.038022 g / cm^3
# Si number density = 20.426714 Si / 1000 Ang^3
#
#
#
# Elastic Constant Matrix: (Units=GPa)
#
#
# Indices 1 2 3 4 5 6 
#
# 1 87.9540 40.2198 -2.6901 0.0000 0.0000 0.0000
# 2 40.2198 187.2903 19.2147 0.0000 0.0000 0.0000
# 3 -2.6901 19.2147 50.7767 0.0000 -0.0003 0.0000
# 4 0.0000 0.0000 0.0000 30.8377 -0.0001 0.0000
# 5 0.0000 0.0000 -0.0003 -0.0001 -124.3083 0.0000
# 6 0.0000 0.0000 0.0000 0.0000 0.0000 -4.8065
#
#
#
# Elastic Compliance Matrix: (Units=1/GPa)
#
#
# Indices 1 2 3 4 5 6 
#
# 1 0.012761 -0.002923 0.001782 0.000000 0.000000 0.000000
# 2 -0.002923 0.006225 -0.002510 0.000000 0.000000 0.000000
# 3 0.001782 -0.002510 0.020738 0.000000 0.000000 0.000000
# 4 0.000000 0.000000 0.000000 0.032428 0.000000 0.000000
# 5 0.000000 0.000000 0.000000 0.000000 -0.008045 0.000000
# 6 0.000000 0.000000 0.000000 0.000000 0.000000 -0.208050
#
#
# Mechanical properties :
#
#
# Convention : Reuss Voigt Hill
#
# Bulk Modulus (GPa) = 30.84399 48.83445 39.83922
# Shear Modulus (GPa) = -39.73505 -1.70366 -20.71936
#
# Velocity S-wave (km/s) = -4.41528 -0.91425 -3.18830
# Velocity P-wave (km/s) = 3.29551 4.77960 2.44788
#
# Compressibility (1/GPa) = 0.03242123
#
# Stress axis : x y z
#
# Youngs Moduli (GPa) = 78.36493 160.65318 48.21964
#
# Poissons Ratio (x) = 0.46962 -0.08594
# Poissons Ratio (y) = 0.22907 0.12105
# Poissons Ratio (z) = -0.13966 0.40330
#
# Static dielectric constant tensor:
#      x y z
#    x 1.735470 0.000000 0.000000 
#    y 0.000000 3.023300 0.000000 
#    z 0.000000 0.000000 1.754990 
# 
# From -- ./inp_files/11072.got.cif
#   From: 2010.05.17/outbox.cif.g08.bks.cpg/sg22_6_cif.got.tgz:11072.got - 2010.06.03 23:40:54.
