data_PCOD9328161
_publ_section_title
;
Structure prediction by ZEFSAII (Michael W. Deem and Ramdas Pophale) SiO2 
 PCOD9328161
Probable space group: F 2 2 2
;
_chemical_formula_sum "Si O2"
_cell_formula_units_Z 52
_cell_length_a 24.045827
_cell_length_b 13.707171
_cell_length_c 7.298479
_cell_angle_alpha 90.000000
_cell_angle_beta 90.000000
_cell_angle_gamma 90.000000
_cell_volume 2405.580594
_symmetry_space_group_name_H-M "F 2 2 2"
_symmetry_group_IT_number 22
_symmetry_cell_setting 'orthorhombic'
loop_
_space_group_symop_operation_xyz
x,y,z
-x,-y,z
x,-y,-z
-x,y,-z
x,1/2+y,1/2+z
-x,1/2-y,1/2+z
x,1/2-y,1/2-z
-x,1/2+y,1/2-z
1/2+x,y,1/2+z
1/2-x,-y,1/2+z
1/2+x,-y,1/2-z
1/2-x,y,1/2-z
1/2+x,1/2+y,z
1/2-x,1/2-y,z
1/2+x,1/2-y,-z
1/2-x,1/2+y,-z
loop_
_atom_site_type_symbol
_atom_site_label
_atom_site_fract_x
_atom_site_fract_y
_atom_site_fract_z
Si Si1 0.000000 0.000000 0.500000
Si Si2 0.401297 0.900261 0.798044
Si Si3 0.187213 0.941515 0.186303
Si Si4 0.108551 0.777875 0.061582
O O1 0.040424 0.063670 0.375342
O O2 0.411852 0.853437 0.596346
O O3 0.357301 0.989323 0.791410
O O4 0.379694 0.817860 0.940061
O O5 0.250000 0.931007 0.250000
O O6 0.160066 0.837496 0.145416
O O7 0.192607 0.000000 0.000000
O O8 0.075367 0.750000 0.250000
#
# Coordination Sequence:
#
# PCOD9328161 Si02
#       4
#     4  16  16  16
#     4  12  24  48  82  96 150 202 244 320 368 456
#     4  10  24  47  69 107 142 195 251 304 375 441
#     4  10  23  43  71 105 149 195 238 304 371 443
#     4  10  22  45  69 104 149 186 249 300 370 448
#
# _framework density 21.616402999999998
#
# number of rings (size 3 to 8) (size 9 to 14) (size 15 to 20)
#    0.000    1.846    0.000    1.846    6.462    0.615 
#   22.154   14.615    0.000    0.000    0.000    0.000 
#    0.000    0.000    0.000    0.000    0.000    0.000 
#
# Total GULP energy -72483.338260 kJ/mol
# GULP energy per Si atom -5575.641405 kJ/mol
# Density = 2.156720 g / cm^3
# Si number density = 21.616403 Si / 1000 Ang^3
#
#
#
# Elastic Constant Matrix: (Units=GPa)
#
#
# Indices 1 2 3 4 5 6 
#
# 1 148.0186 86.7215 64.9327 0.0000 0.0000 0.0000
# 2 86.7215 157.8445 69.5094 0.0000 0.0000 0.0000
# 3 64.9327 69.5094 184.7588 0.0000 0.0000 0.0000
# 4 0.0000 0.0000 0.0000 32.7657 0.0000 0.0000
# 5 0.0000 0.0000 0.0000 0.0000 31.9785 0.0000
# 6 0.0000 0.0000 0.0000 0.0000 0.0000 -3.5774
#
#
#
# Elastic Compliance Matrix: (Units=1/GPa)
#
#
# Indices 1 2 3 4 5 6 
#
# 1 0.010446 -0.004941 -0.001812 0.000000 0.000000 0.000000
# 2 -0.004941 0.009930 -0.002000 0.000000 0.000000 0.000000
# 3 -0.001812 -0.002000 0.006802 0.000000 0.000000 0.000000
# 4 0.000000 0.000000 0.000000 0.030520 0.000000 0.000000
# 5 0.000000 0.000000 0.000000 0.000000 0.031271 0.000000
# 6 0.000000 0.000000 0.000000 0.000000 0.000000 -0.279531
#
#
# Mechanical properties :
#
#
# Convention : Reuss Voigt Hill
#
# Bulk Modulus (GPa) = 103.38712 103.66100 103.52406
# Shear Modulus (GPa) = -29.44070 30.19726 0.37828
#
# Velocity S-wave (km/s) = -3.69448 3.74165 0.41878
# Velocity P-wave (km/s) = 5.45280 8.16857 6.94473
#
# Compressibility (1/GPa) = 0.00967238
#
# Stress axis : x y z
#
# Youngs Moduli (GPa) = 95.73308 100.70002 147.02365
#
# Poissons Ratio (x) = 0.49755 0.26644
# Poissons Ratio (y) = 0.47301 0.29398
# Poissons Ratio (z) = 0.17349 0.20135
#
# Static dielectric constant tensor:
#      x y z
#    x 1.792570 0.000000 0.000000 
#    y 0.000000 1.123720 0.000000 
#    z 0.000000 0.000000 1.863630 
# 
# From -- ./inp_files/9444.got.cif
#   From: 2010.05.17/outbox.cif.g08.bks.cpg/sg22_5_cif.got.tgz:9444.got - 2010.06.03 23:40:54.
