data_PCOD9328397
_publ_section_title
;
Structure prediction by ZEFSAII (Michael W. Deem and Ramdas Pophale) SiO2 
 PCOD9328397
Probable space group: F 2 2 2
;
_chemical_formula_sum "Si O2"
_cell_formula_units_Z 68
_cell_length_a 27.221274
_cell_length_b 21.659189
_cell_length_c 5.189128
_cell_angle_alpha 90.000000
_cell_angle_beta 90.000000
_cell_angle_gamma 90.000000
_cell_volume 3059.461705
_symmetry_space_group_name_H-M "F 2 2 2"
_symmetry_group_IT_number 22
_symmetry_cell_setting 'orthorhombic'
loop_
_space_group_symop_operation_xyz
x,y,z
-x,-y,z
x,-y,-z
-x,y,-z
x,1/2+y,1/2+z
-x,1/2-y,1/2+z
x,1/2-y,1/2-z
-x,1/2+y,1/2-z
1/2+x,y,1/2+z
1/2-x,-y,1/2+z
1/2+x,-y,1/2-z
1/2-x,y,1/2-z
1/2+x,1/2+y,z
1/2-x,1/2-y,z
1/2+x,1/2-y,-z
1/2-x,1/2+y,-z
loop_
_atom_site_type_symbol
_atom_site_label
_atom_site_fract_x
_atom_site_fract_y
_atom_site_fract_z
Si Si1 0.340283 0.397707 0.089422
Si Si2 0.250000 0.096153 0.750000
Si Si3 0.500000 0.500000 0.000000
Si Si4 0.676768 0.000000 0.000000
Si Si5 0.422337 0.821849 0.804704
Si Si6 0.562941 0.106647 0.313766
O O1 0.345489 0.460322 0.261185
O O2 0.365717 0.343786 0.260208
O O3 0.287352 0.377933 0.971871
O O4 0.378765 0.405705 0.852809
O O5 0.212518 0.052208 0.606528
O O6 0.533621 0.456823 0.180635
O O7 0.427432 0.750000 0.750000
O O8 0.449574 0.859097 0.580212
O O9 0.441364 0.847736 0.074363
#
# Coordination Sequence:
#
# PCOD9328397 Si02
#       6
#    16   8   4   8  16  16
#     4  10  24  36  69  98 142 188 248 299 384 440
#     4  12  20  36  60 101 137 186 230 308 372 456
#     4  12  28  48  72 126 160 186 250 312 412 460
#     4  12  20  35  56  97 140 183 231 296 370 456
#     4  10  23  47  74 101 139 201 253 298 365 452
#     4  10  26  43  75 104 150 190 236 315 372 458
#
# _framework density 22.226133000000001
#
# number of rings (size 3 to 8) (size 9 to 14) (size 15 to 20)
#    1.412    0.000    2.353    2.118    6.588    2.824 
#    0.000    2.353    0.000   19.765    0.000    0.000 
#    0.000    0.000    0.000    0.000    0.000    0.000 
#
# Total GULP energy -94639.449028 kJ/mol
# GULP energy per Si atom -5567.026413 kJ/mol
# Density = 2.217555 g / cm^3
# Si number density = 22.226133 Si / 1000 Ang^3
#
#
#
# Elastic Constant Matrix: (Units=GPa)
#
#
# Indices 1 2 3 4 5 6 
#
# 1 68.4771 15.5785 5.2930 0.1287 -0.0076 -0.0417
# 2 15.5785 104.8419 36.1607 0.1423 -0.0226 -0.0409
# 3 5.2930 36.1607 135.8030 0.1769 -0.0384 -0.0607
# 4 0.1287 0.1423 0.1769 33.0933 -0.0307 -0.0581
# 5 -0.0076 -0.0226 -0.0384 -0.0307 16.4902 0.0060
# 6 -0.0417 -0.0409 -0.0607 -0.0581 0.0060 5.8777
#
#
#
# Elastic Compliance Matrix: (Units=1/GPa)
#
#
# Indices 1 2 3 4 5 6 
#
# 1 0.015114 -0.002249 0.000010 -0.000049 0.000004 0.000091
# 2 -0.002249 0.010837 -0.002798 -0.000023 0.000007 0.000030
# 3 0.000010 -0.002798 0.008108 -0.000031 0.000015 0.000064
# 4 -0.000049 -0.000023 -0.000031 0.030219 0.000056 0.000298
# 5 0.000004 0.000007 0.000015 0.000056 0.060642 -0.000061
# 6 0.000091 0.000030 0.000064 0.000298 -0.000061 0.170138
#
#
# Mechanical properties :
#
#
# Convention : Reuss Voigt Hill
#
# Bulk Modulus (GPa) = 41.69148 47.02071 44.35610
# Shear Modulus (GPa) = 15.96787 27.89823 21.93305
#
# Velocity S-wave (km/s) = 2.68326 3.54672 3.14477
# Velocity P-wave (km/s) = 5.32902 6.16229 5.76074
#
# Compressibility (1/GPa) = 0.02398571
#
# Stress axis : x y z
#
# Youngs Moduli (GPa) = 66.16166 92.27235 123.32994
#
# Poissons Ratio (x) = 0.20754 -0.00122
# Poissons Ratio (y) = 0.14881 0.34508
# Poissons Ratio (z) = -0.00066 0.25818
#
# Static dielectric constant tensor:
#      x y z
#    x 1.918500 0.000000 0.000030 
#    y 0.000000 1.783730 -0.000140 
#    z 0.000030 -0.000140 1.628400 
# 
# From -- ./inp_files/6284.got.cif
#   From: 2010.05.17/outbox.cif.g08.bks.cpg/sg22_4_cif.got.tgz:6284.got - 2010.06.03 23:40:54.
