data_PCOD9328202
_publ_section_title
;
Structure prediction by ZEFSAII (Michael W. Deem and Ramdas Pophale) SiO2 
 PCOD9328202
Probable space group: F 2 2 2
;
_chemical_formula_sum "Si O2"
_cell_formula_units_Z 68
_cell_length_a 6.108680
_cell_length_b 24.525633
_cell_length_c 20.240197
_cell_angle_alpha 90.000000
_cell_angle_beta 90.000000
_cell_angle_gamma 90.000000
_cell_volume 3032.371009
_symmetry_space_group_name_H-M "F 2 2 2"
_symmetry_group_IT_number 22
_symmetry_cell_setting 'orthorhombic'
loop_
_space_group_symop_operation_xyz
x,y,z
-x,-y,z
x,-y,-z
-x,y,-z
x,1/2+y,1/2+z
-x,1/2-y,1/2+z
x,1/2-y,1/2-z
-x,1/2+y,1/2-z
1/2+x,y,1/2+z
1/2-x,-y,1/2+z
1/2+x,-y,1/2-z
1/2-x,y,1/2-z
1/2+x,1/2+y,z
1/2-x,1/2-y,z
1/2+x,1/2-y,-z
1/2-x,1/2+y,-z
loop_
_atom_site_type_symbol
_atom_site_label
_atom_site_fract_x
_atom_site_fract_y
_atom_site_fract_z
Si Si1 0.500000 0.500000 0.000000
Si Si2 0.542064 0.165885 0.076288
Si Si3 0.750000 0.527129 0.250000
Si Si4 0.250000 0.250000 0.156904
Si Si5 0.829050 0.550241 0.103561
Si Si6 0.148736 0.689483 0.314655
O O1 0.647101 0.463486 0.951121
O O2 0.407535 0.212886 0.113077
O O3 0.447086 0.106132 0.087119
O O4 0.777140 0.165662 0.114632
O O5 0.500000 0.178213 0.000000
O O6 0.500000 0.500000 0.252421
O O7 0.740320 0.555438 0.178375
O O8 0.396499 0.295559 0.193147
O O9 0.000000 0.500000 0.100929
O O10 0.250000 0.659941 0.250000
O O11 0.250000 0.750000 0.313841
#
# Coordination Sequence:
#
# PCOD9328202 Si02
#       6
#     4  16   8   8  16  16
#     4  12  22  44  72 102 140 198 242 304 352 448
#     4  11  25  42  65 100 137 187 235 296 364 431
#     4  10  22  48  76 109 148 193 248 316 378 448
#     4  10  24  41  70  94 139 176 234 294 359 436
#     4  11  25  45  69 102 144 190 246 304 369 448
#     4   9  21  42  66  97 132 179 233 290 355 430
#
# _framework density 22.424696999999998
#
# number of rings (size 3 to 8) (size 9 to 14) (size 15 to 20)
#    0.000    1.647    1.176    1.765    4.941   13.176 
#    8.471    0.000    0.000    0.000    0.000    0.000 
#    0.000    0.000    0.000    0.000    0.000    0.000 
#
# Total GULP energy -94694.935979 kJ/mol
# GULP energy per Si atom -5570.290352 kJ/mol
# Density = 2.237366 g / cm^3
# Si number density = 22.424697 Si / 1000 Ang^3
#
#
#
# Elastic Constant Matrix: (Units=GPa)
#
#
# Indices 1 2 3 4 5 6 
#
# 1 120.9530 26.5902 82.3321 0.0000 0.0000 0.0000
# 2 26.5902 73.9726 12.0922 0.0000 0.0000 0.0000
# 3 82.3321 12.0922 181.5939 0.0000 0.0000 0.0000
# 4 0.0000 0.0000 0.0000 -7.5318 0.0000 0.0000
# 5 0.0000 0.0000 0.0000 0.0000-4245.0639 0.0000
# 6 0.0000 0.0000 0.0000 0.0000 0.0000 26.1655
#
#
#
# Elastic Compliance Matrix: (Units=1/GPa)
#
#
# Indices 1 2 3 4 5 6 
#
# 1 0.012897 -0.003721 -0.005600 0.000000 0.000000 0.000000
# 2 -0.003721 0.014741 0.000705 0.000000 0.000000 0.000000
# 3 -0.005600 0.000705 0.007999 0.000000 0.000000 0.000000
# 4 0.000000 0.000000 0.000000 -0.132770 0.000000 0.000000
# 5 0.000000 0.000000 0.000000 0.000000 -0.000236 0.000000
# 6 0.000000 0.000000 0.000000 0.000000 0.000000 0.038218
#
#
# Mechanical properties :
#
#
# Convention : Reuss Voigt Hill
#
# Bulk Modulus (GPa) = 54.32859 68.72762 61.52811
# Shear Modulus (GPa) = -139.72310 -828.25238 -483.98774
#
# Velocity S-wave (km/s) = -7.90209 -19.23929 -14.70702
# Velocity P-wave (km/s) = 7.67968 21.51322 16.15234
#
# Compressibility (1/GPa) = 0.01840651
#
# Stress axis : x y z
#
# Youngs Moduli (GPa) = 77.53551 67.83955 125.02108
#
# Poissons Ratio (x) = 0.25241 0.70008
# Poissons Ratio (y) = 0.28849 -0.08818
# Poissons Ratio (z) = 0.43418 -0.04785
#
# Static dielectric constant tensor:
#      x y z
#    x 2.060960 0.000000 0.000000 
#    y 0.000000 1.830360 0.000000 
#    z 0.000000 0.000000 1.931320 
# 
# From -- ./inp_files/41043.got.cif
#   From: 2010.05.17/outbox.cif.g08.bks.cpg/sg22_21_cif.got.tgz:41043.got - 2010.06.03 23:40:54.
