data_PCOD9328030
_publ_section_title
;
Structure prediction by ZEFSAII (Michael W. Deem and Ramdas Pophale) SiO2 
 PCOD9328030
Probable space group: F 2 2 2
;
_chemical_formula_sum "Si O2"
_cell_formula_units_Z 96
_cell_length_a 13.325013
_cell_length_b 22.677643
_cell_length_c 15.552352
_cell_angle_alpha 90.000000
_cell_angle_beta 90.000000
_cell_angle_gamma 90.000000
_cell_volume 4699.607982
_symmetry_space_group_name_H-M "F 2 2 2"
_symmetry_group_IT_number 22
_symmetry_cell_setting 'orthorhombic'
loop_
_space_group_symop_operation_xyz
x,y,z
-x,-y,z
x,-y,-z
-x,y,-z
x,1/2+y,1/2+z
-x,1/2-y,1/2+z
x,1/2-y,1/2-z
-x,1/2+y,1/2-z
1/2+x,y,1/2+z
1/2-x,-y,1/2+z
1/2+x,-y,1/2-z
1/2-x,y,1/2-z
1/2+x,1/2+y,z
1/2-x,1/2-y,z
1/2+x,1/2-y,-z
1/2-x,1/2+y,-z
loop_
_atom_site_type_symbol
_atom_site_label
_atom_site_fract_x
_atom_site_fract_y
_atom_site_fract_z
Si Si1 0.616564 0.992701 0.359383
Si Si2 0.536288 0.773027 0.837145
Si Si3 0.322699 0.194754 0.143447
Si Si4 0.500000 0.313378 0.000000
Si Si5 0.750000 0.587070 0.250000
Si Si6 0.826315 0.410160 0.479365
Si Si7 0.612126 0.857663 0.973068
O O1 0.663846 0.957361 0.280345
O O2 0.642194 0.952422 0.442194
O O3 0.500000 0.000000 0.346408
O O4 0.652029 0.057410 0.388950
O O5 0.585546 0.750000 0.750000
O O6 0.428353 0.799111 0.808420
O O7 0.510189 0.725326 0.912257
O O8 0.598499 0.824255 0.883540
O O9 0.250000 0.250000 0.156569
O O10 0.275411 0.133136 0.173903
O O11 0.354816 0.190260 0.044391
O O12 0.399094 0.353824 0.995457
O O13 0.706748 0.400311 0.477052
O O14 0.500000 0.879487 0.000000
#
# Coordination Sequence:
#
# PCOD9328030 Si02
#       7
#    16  16  16   8   8  16  16
#     4  11  24  46  67  99 125 171 245 288 339 404
#     4  11  24  39  62 105 140 179 226 270 351 434
#     4  11  21  39  68 101 134 176 228 282 344 417
#     4  12  22  41  72  98 130 187 222 294 334 396
#     4  12  25  40  68 100 134 173 222 304 338 402
#     4  11  22  44  72  91 125 183 236 285 339 403
#     4  10  22  42  64  95 144 179 220 276 355 425
#
# _framework density 20.427237000000002
#
# number of rings (size 3 to 8) (size 9 to 14) (size 15 to 20)
#    0.000    1.000    5.833    2.750    2.333    0.000 
#    9.000    2.500    0.000    0.000    0.000    0.000 
#    0.000    0.000    0.000    0.000    0.000    0.000 
#
# Total GULP energy -133782.151623 kJ/mol
# GULP energy per Si atom -5574.256318 kJ/mol
# Density = 2.038074 g / cm^3
# Si number density = 20.427237 Si / 1000 Ang^3
#
#
#
# Elastic Constant Matrix: (Units=GPa)
#
#
# Indices 1 2 3 4 5 6 
#
# 1 161.6605 55.7318 37.1308 0.0000 0.0000 0.0000
# 2 55.7318 68.8297 21.9629 0.0000 0.0000 0.0000
# 3 37.1308 21.9629 77.0667 0.0000 0.0000 0.0000
# 4 0.0000 0.0000 0.0000 12.1761 0.0000 0.0000
# 5 0.0000 0.0000 0.0000 0.0000 12.4202 0.0000
# 6 0.0000 0.0000 0.0000 0.0000 0.0000 8.5841
#
#
#
# Elastic Compliance Matrix: (Units=1/GPa)
#
#
# Indices 1 2 3 4 5 6 
#
# 1 0.008994 -0.006490 -0.002484 0.000000 0.000000 0.000000
# 2 -0.006490 0.020665 -0.002762 0.000000 0.000000 0.000000
# 3 -0.002484 -0.002762 0.014960 0.000000 0.000000 0.000000
# 4 0.000000 0.000000 0.000000 0.082128 0.000000 0.000000
# 5 0.000000 0.000000 0.000000 0.000000 0.080514 0.000000
# 6 0.000000 0.000000 0.000000 0.000000 0.000000 0.116494
#
#
# Mechanical properties :
#
#
# Convention : Reuss Voigt Hill
#
# Bulk Modulus (GPa) = 47.28912 59.68977 53.48944
# Shear Modulus (GPa) = 14.11338 19.48487 16.79913
#
# Velocity S-wave (km/s) = 2.63137 3.09182 2.87084
# Velocity P-wave (km/s) = 5.69495 6.48305 6.10174
#
# Compressibility (1/GPa) = 0.02114651
#
# Stress axis : x y z
#
# Youngs Moduli (GPa) = 111.19125 48.39163 66.84649
#
# Poissons Ratio (x) = 0.31404 0.16602
# Poissons Ratio (y) = 0.72159 0.18466
# Poissons Ratio (z) = 0.27616 0.13368
#
# Static dielectric constant tensor:
#      x y z
#    x 1.749690 0.000000 0.000000 
#    y 0.000000 1.790320 0.000000 
#    z 0.000000 0.000000 1.782720 
# 
# From -- ./inp_files/36260.got.cif
#   From: 2010.05.17/outbox.cif.g08.bks.cpg/sg22_19_cif.got.tgz:36260.got - 2010.06.03 23:40:54.
