data_PCOD9328350
_publ_section_title
;
Structure prediction by ZEFSAII (Michael W. Deem and Ramdas Pophale) SiO2 
 PCOD9328350
Probable space group: F 2 2 2
;
_chemical_formula_sum "Si O2"
_cell_formula_units_Z 100
_cell_length_a 26.485618
_cell_length_b 11.427101
_cell_length_c 14.951849
_cell_angle_alpha 90.000000
_cell_angle_beta 90.000000
_cell_angle_gamma 90.000000
_cell_volume 4525.234394
_symmetry_space_group_name_H-M "F 2 2 2"
_symmetry_group_IT_number 22
_symmetry_cell_setting 'orthorhombic'
loop_
_space_group_symop_operation_xyz
x,y,z
-x,-y,z
x,-y,-z
-x,y,-z
x,1/2+y,1/2+z
-x,1/2-y,1/2+z
x,1/2-y,1/2-z
-x,1/2+y,1/2-z
1/2+x,y,1/2+z
1/2-x,-y,1/2+z
1/2+x,-y,1/2-z
1/2-x,y,1/2-z
1/2+x,1/2+y,z
1/2-x,1/2-y,z
1/2+x,1/2-y,-z
1/2-x,1/2+y,-z
loop_
_atom_site_type_symbol
_atom_site_label
_atom_site_fract_x
_atom_site_fract_y
_atom_site_fract_z
Si Si1 0.810932 0.500000 0.000000
Si Si2 0.610200 0.803686 0.041519
Si Si3 0.628959 0.634938 0.195637
Si Si4 0.301505 0.948150 0.199951
Si Si5 0.500000 0.000000 0.500000
Si Si6 0.127516 0.250000 0.750000
Si Si7 0.965105 0.386735 0.814035
Si Si8 0.546742 0.201380 0.384085
O O1 0.843904 0.382492 0.989786
O O2 0.787420 0.508787 0.900264
O O3 0.626495 0.683999 0.093769
O O4 0.577880 0.882871 0.110108
O O5 0.573457 0.777518 0.960106
O O6 0.645811 0.750000 0.250000
O O7 0.665968 0.536370 0.235762
O O8 0.570665 0.615135 0.226349
O O9 0.250000 0.919799 0.250000
O O10 0.337263 0.835102 0.193710
O O11 0.470267 0.914399 0.434058
O O12 0.089426 0.176071 0.811128
O O13 0.000000 0.500000 0.812899
O O14 0.001963 0.278781 0.841076
#
# Coordination Sequence:
#
# PCOD9328350 Si02
#       8
#     8  16  16  16   4   8  16  16
#     4  12  22  50  80 108 140 186 248 310 360 458
#     4  11  22  44  68 103 150 192 245 300 353 438
#     4  10  23  44  70 108 149 180 243 314 358 428
#     4  12  27  52  79 109 142 187 253 314 382 443
#     4  12  28  44  60 108 160 190 254 290 360 460
#     4  12  29  50  72 100 152 202 245 306 372 448
#     4  11  21  40  69 105 144 199 253 294 347 431
#     4  12  26  43  66 102 152 205 242 294 367 429
#
# _framework density 22.098302
#
# number of rings (size 3 to 8) (size 9 to 14) (size 15 to 20)
#    0.000    0.640    6.400    2.160    5.600    0.960 
#    5.760    0.000    0.000    0.000    0.000    0.000 
#    0.000    0.000    0.000    0.000    0.000    0.000 
#
# Total GULP energy -139610.169259 kJ/mol
# GULP energy per Si atom -5584.406770 kJ/mol
# Density = 2.204801 g / cm^3
# Si number density = 22.098302 Si / 1000 Ang^3
#
#
#
# Elastic Constant Matrix: (Units=GPa)
#
#
# Indices 1 2 3 4 5 6 
#
# 1 84.0552 24.8005 41.0079 0.0000 0.0000 0.0000
# 2 24.8005 70.7566 17.9303 0.0000 0.0000 0.0000
# 3 41.0079 17.9303 126.6887 0.0000 0.0000 0.0000
# 4 0.0000 0.0000 0.0000 22.4905 0.0000 0.0000
# 5 0.0000 0.0000 0.0000 0.0000 20.3034 0.0000
# 6 0.0000 0.0000 0.0000 0.0000 0.0000 7.4535
#
#
#
# Elastic Compliance Matrix: (Units=1/GPa)
#
#
# Indices 1 2 3 4 5 6 
#
# 1 0.015269 -0.004252 -0.004341 0.000000 0.000000 0.000000
# 2 -0.004252 0.015843 -0.000866 0.000000 0.000000 0.000000
# 3 -0.004341 -0.000866 0.009421 0.000000 0.000000 0.000000
# 4 0.000000 0.000000 0.000000 0.044463 0.000000 0.000000
# 5 0.000000 0.000000 0.000000 0.000000 0.049253 0.000000
# 6 0.000000 0.000000 0.000000 0.000000 0.000000 0.134165
#
#
# Mechanical properties :
#
#
# Convention : Reuss Voigt Hill
#
# Bulk Modulus (GPa) = 46.26258 49.88640 48.07449
# Shear Modulus (GPa) = 16.97586 23.23362 20.10474
#
# Velocity S-wave (km/s) = 2.77464 3.24601 3.01954
# Velocity P-wave (km/s) = 5.58974 6.05579 5.82743
#
# Compressibility (1/GPa) = 0.02161574
#
# Stress axis : x y z
#
# Youngs Moduli (GPa) = 65.49146 63.12049 106.14634
#
# Poissons Ratio (x) = 0.26838 0.46075
# Poissons Ratio (y) = 0.27847 0.09191
# Poissons Ratio (z) = 0.28428 0.05466
#
# Static dielectric constant tensor:
#      x y z
#    x 1.773800 0.000000 0.000000 
#    y 0.000000 1.845710 0.000000 
#    z 0.000000 0.000000 1.877350 
# 
# From -- ./inp_files/33492.got.cif
#   From: 2010.05.17/outbox.cif.g08.bks.cpg/sg22_17_cif.got.tgz:33492.got - 2010.06.03 23:40:54.
