data_PCOD9328131
_publ_section_title
;
Structure prediction by ZEFSAII (Michael W. Deem and Ramdas Pophale) SiO2 
 PCOD9328131
Probable space group: F 2 2 2
;
_chemical_formula_sum "Si O2"
_cell_formula_units_Z 96
_cell_length_a 13.805800
_cell_length_b 21.467890
_cell_length_c 13.420239
_cell_angle_alpha 90.000000
_cell_angle_beta 90.000000
_cell_angle_gamma 90.000000
_cell_volume 3977.509166
_symmetry_space_group_name_H-M "F 2 2 2"
_symmetry_group_IT_number 22
_symmetry_cell_setting 'orthorhombic'
loop_
_space_group_symop_operation_xyz
x,y,z
-x,-y,z
x,-y,-z
-x,y,-z
x,1/2+y,1/2+z
-x,1/2-y,1/2+z
x,1/2-y,1/2-z
-x,1/2+y,1/2-z
1/2+x,y,1/2+z
1/2-x,-y,1/2+z
1/2+x,-y,1/2-z
1/2-x,y,1/2-z
1/2+x,1/2+y,z
1/2-x,1/2-y,z
1/2+x,1/2-y,-z
1/2-x,1/2+y,-z
loop_
_atom_site_type_symbol
_atom_site_label
_atom_site_fract_x
_atom_site_fract_y
_atom_site_fract_z
Si Si1 0.250000 0.345800 0.250000
Si Si2 0.754031 0.451472 0.134459
Si Si3 0.362245 0.733101 0.014683
Si Si4 0.172348 0.584351 0.925703
Si Si5 0.934282 0.395415 0.403941
Si Si6 0.500000 0.157209 0.000000
Si Si7 0.549884 0.693853 0.198236
O O1 0.249815 0.381396 0.145049
O O2 0.351154 0.312193 0.258786
O O3 0.750000 0.430989 0.250000
O O4 0.814709 0.514908 0.118541
O O5 0.639285 0.451748 0.110405
O O6 0.795976 0.412736 0.041224
O O7 0.250000 0.750000 0.001172
O O8 0.414597 0.714154 0.911347
O O9 0.377027 0.670899 0.080075
O O10 0.420620 0.795228 0.046748
O O11 0.064696 0.613569 0.927730
O O12 0.000000 0.406564 0.500000
O O13 0.000710 0.373542 0.311969
O O14 0.492581 0.750000 0.250000
#
# Coordination Sequence:
#
# PCOD9328131 Si02
#       7
#     8  16  16  16  16   8  16
#     4  12  23  42  74 110 152 204 259 334 392 484
#     4  11  25  50  73 102 152 204 267 325 393 464
#     4  11  21  40  69 106 151 200 240 311 396 472
#     4  11  26  46  77 107 150 202 264 324 401 459
#     4  10  22  44  69 102 146 198 257 312 382 476
#     4  12  22  43  78 118 164 201 254 334 396 488
#     4  11  21  36  62 106 148 187 252 307 393 470
#
# _framework density 24.135708999999999
#
# number of rings (size 3 to 8) (size 9 to 14) (size 15 to 20)
#    0.000    1.000    3.333    6.250    0.000    4.000 
#    3.000    5.833    0.000    0.000    0.000    0.000 
#    0.000    0.000    0.000    0.000    0.000    0.000 
#
# Total GULP energy -133789.838252 kJ/mol
# GULP energy per Si atom -5574.576594 kJ/mol
# Density = 2.408077 g / cm^3
# Si number density = 24.135709 Si / 1000 Ang^3
#
#
#
# Elastic Constant Matrix: (Units=GPa)
#
#
# Indices 1 2 3 4 5 6 
#
# 1 105.0301 28.2097 3.5134 0.0000 0.0000 0.0000
# 2 28.2097 61.4175 12.8338 0.0000 0.0000 0.0000
# 3 3.5134 12.8338 126.1611 0.0000 0.0000 0.0000
# 4 0.0000 0.0000 0.0000 16.9146 0.0000 0.0000
# 5 0.0000 0.0000 0.0000 0.0000 33.2319 0.0000
# 6 0.0000 0.0000 0.0000 0.0000 0.0000 10.5630
#
#
#
# Elastic Compliance Matrix: (Units=1/GPa)
#
#
# Indices 1 2 3 4 5 6 
#
# 1 0.010866 -0.005035 0.000210 0.000000 0.000000 0.000000
# 2 -0.005035 0.018968 -0.001789 0.000000 0.000000 0.000000
# 3 0.000210 -0.001789 0.008103 0.000000 0.000000 0.000000
# 4 0.000000 0.000000 0.000000 0.059120 0.000000 0.000000
# 5 0.000000 0.000000 0.000000 0.000000 0.030092 0.000000
# 6 0.000000 0.000000 0.000000 0.000000 0.000000 0.094670
#
#
# Mechanical properties :
#
#
# Convention : Reuss Voigt Hill
#
# Bulk Modulus (GPa) = 40.47252 42.41362 41.44307
# Shear Modulus (GPa) = 20.55202 28.67868 24.61535
#
# Velocity S-wave (km/s) = 2.92125 3.45081 3.19701
# Velocity P-wave (km/s) = 5.30880 5.78693 5.55301
#
# Compressibility (1/GPa) = 0.02470812
#
# Stress axis : x y z
#
# Youngs Moduli (GPa) = 92.02722 52.71915 123.41782
#
# Poissons Ratio (x) = 0.26543 -0.02586
# Poissons Ratio (y) = 0.46334 0.22084
# Poissons Ratio (z) = -0.01928 0.09433
#
# Static dielectric constant tensor:
#      x y z
#    x 1.995220 0.000000 0.000000 
#    y 0.000000 2.059080 0.000000 
#    z 0.000000 0.000000 2.003730 
# 
# From -- ./inp_files/29569.got.cif
#   From: 2010.05.17/outbox.cif.g08.bks.cpg/sg22_15_cif.got.tgz:29569.got - 2010.06.03 23:40:54.
