data_PCOD9328078
_publ_section_title
;
Structure prediction by ZEFSAII (Michael W. Deem and Ramdas Pophale) SiO2 
 PCOD9328078
Probable space group: F 2 2 2
;
_chemical_formula_sum "Si O2"
_cell_formula_units_Z 88
_cell_length_a 6.032663
_cell_length_b 28.936202
_cell_length_c 22.437237
_cell_angle_alpha 90.000000
_cell_angle_beta 90.000000
_cell_angle_gamma 90.000000
_cell_volume 3916.696934
_symmetry_space_group_name_H-M "F 2 2 2"
_symmetry_group_IT_number 22
_symmetry_cell_setting 'orthorhombic'
loop_
_space_group_symop_operation_xyz
x,y,z
-x,-y,z
x,-y,-z
-x,y,-z
x,1/2+y,1/2+z
-x,1/2-y,1/2+z
x,1/2-y,1/2-z
-x,1/2+y,1/2-z
1/2+x,y,1/2+z
1/2-x,-y,1/2+z
1/2+x,-y,1/2-z
1/2-x,y,1/2-z
1/2+x,1/2+y,z
1/2-x,1/2-y,z
1/2+x,1/2-y,-z
1/2-x,1/2+y,-z
loop_
_atom_site_type_symbol
_atom_site_label
_atom_site_fract_x
_atom_site_fract_y
_atom_site_fract_z
Si Si1 0.493999 0.765426 0.319469
Si Si2 0.109675 0.135239 0.440001
Si Si3 0.904442 0.450830 0.299937
Si Si4 0.656007 0.458368 0.419030
Si Si5 0.500000 0.083257 0.500000
Si Si6 0.175132 0.860586 0.818684
O O1 0.492244 0.750000 0.250000
O O2 0.750000 0.750000 0.339922
O O3 0.492284 0.820887 0.326282
O O4 0.250000 0.750000 0.344595
O O5 0.347512 0.117197 0.461541
O O6 0.148997 0.151395 0.371548
O O7 0.000000 0.158989 0.500000
O O8 0.967496 0.089475 0.429752
O O9 0.750000 0.427960 0.250000
O O10 0.739832 0.463981 0.352631
O O11 0.000000 0.500000 0.277942
O O12 0.083499 0.413189 0.322174
O O13 0.500000 0.500000 0.435443
O O14 0.869095 0.450938 0.458073
O O15 0.250000 0.855443 0.750000
#
# Coordination Sequence:
#
# PCOD9328078 Si02
#       6
#    16  16  16  16   8  16
#     4  10  22  43  68 113 152 175 230 319 381 442
#     4  10  23  42  63  98 137 181 237 294 372 442
#     4  12  25  41  59  93 144 187 240 293 364 452
#     4  11  23  39  62  87 128 181 244 306 355 419
#     4  10  22  43  56  90 128 170 242 298 356 428
#     4  12  23  42  75 106 140 191 242 300 387 449
#
# _framework density 22.467911999999998
#
# number of rings (size 3 to 8) (size 9 to 14) (size 15 to 20)
#    0.000    1.091    3.636    3.273    2.545    5.455 
#    0.000    0.000    0.000    0.000    2.364    0.000 
#    0.000    0.000    0.000    0.000    0.000    0.000 
#
# Total GULP energy -122608.761749 kJ/mol
# GULP energy per Si atom -5573.125534 kJ/mol
# Density = 2.241677 g / cm^3
# Si number density = 22.467912 Si / 1000 Ang^3
#
#
#
# Elastic Constant Matrix: (Units=GPa)
#
#
# Indices 1 2 3 4 5 6 
#
# 1 106.7736 15.9132 35.9789 0.0000 0.0000 0.0000
# 2 15.9132 84.9765 -2.5337 0.0000 0.0000 0.0000
# 3 35.9789 -2.5337 137.9064 0.0000 0.0000 0.0000
# 4 0.0000 0.0000 0.0000 1.7682 0.0000 0.0000
# 5 0.0000 0.0000 0.0000 0.0000 42.9048 0.0000
# 6 0.0000 0.0000 0.0000 0.0000 0.0000 18.6156
#
#
#
# Elastic Compliance Matrix: (Units=1/GPa)
#
#
# Indices 1 2 3 4 5 6 
#
# 1 0.010621 -0.002073 -0.002809 0.000000 0.000000 0.000000
# 2 -0.002073 0.012179 0.000765 0.000000 0.000000 0.000000
# 3 -0.002809 0.000765 0.007998 0.000000 0.000000 0.000000
# 4 0.000000 0.000000 0.000000 0.565541 0.000000 0.000000
# 5 0.000000 0.000000 0.000000 0.000000 0.023307 0.000000
# 6 0.000000 0.000000 0.000000 0.000000 0.000000 0.053718
#
#
# Mechanical properties :
#
#
# Convention : Reuss Voigt Hill
#
# Bulk Modulus (GPa) = 44.31900 47.59701 45.95800
# Shear Modulus (GPa) = 7.25562 31.34427 19.29994
#
# Velocity S-wave (km/s) = 1.79898 3.73911 2.93405
# Velocity P-wave (km/s) = 4.90748 6.31441 5.65487
#
# Compressibility (1/GPa) = 0.02256369
#
# Stress axis : x y z
#
# Youngs Moduli (GPa) = 94.15243 82.10915 125.02805
#
# Poissons Ratio (x) = 0.17019 0.35121
# Poissons Ratio (y) = 0.19515 -0.09559
# Poissons Ratio (z) = 0.26448 -0.06277
#
# Static dielectric constant tensor:
#      x y z
#    x 1.744190 0.000000 0.000000 
#    y 0.000000 1.788970 0.000000 
#    z 0.000000 0.000000 1.915050 
# 
# From -- ./inp_files/46690.got.cif
#   From: 2010.05.17/outbox.cif.g08.bks.cpg/sg22_24_cif.got.tgz:46690.got - 2010.06.03 23:40:54.
