data_PCOD9328915
_publ_section_title
;
Structure prediction by ZEFSAII (Michael W. Deem and Ramdas Pophale) SiO2 
 PCOD9328915
Probable space group: F 2 2 2
;
_chemical_formula_sum "Si O2"
_cell_formula_units_Z 64
_cell_length_a 23.270226
_cell_length_b 4.736886
_cell_length_c 23.373862
_cell_angle_alpha 90.000000
_cell_angle_beta 90.000000
_cell_angle_gamma 90.000000
_cell_volume 2576.463591
_symmetry_space_group_name_H-M "F 2 2 2"
_symmetry_group_IT_number 22
_symmetry_cell_setting 'orthorhombic'
loop_
_space_group_symop_operation_xyz
x,y,z
-x,-y,z
x,-y,-z
-x,y,-z
x,1/2+y,1/2+z
-x,1/2-y,1/2+z
x,1/2-y,1/2-z
-x,1/2+y,1/2-z
1/2+x,y,1/2+z
1/2-x,-y,1/2+z
1/2+x,-y,1/2-z
1/2-x,y,1/2-z
1/2+x,1/2+y,z
1/2-x,1/2-y,z
1/2+x,1/2-y,-z
1/2-x,1/2+y,-z
loop_
_atom_site_type_symbol
_atom_site_label
_atom_site_fract_x
_atom_site_fract_y
_atom_site_fract_z
Si Si1 0.566193 0.463716 0.417562
Si Si2 0.853380 0.420600 0.559232
Si Si3 0.097579 0.515958 0.209814
Si Si4 0.712544 0.519049 0.349061
O O1 0.500000 0.500000 0.433680
O O2 0.597184 0.699142 0.455079
O O3 0.567264 0.548035 0.350021
O O4 0.608428 0.186807 0.418499
O O5 0.822326 0.500000 0.500000
O O6 0.815015 0.230206 0.602473
O O7 0.103149 0.250000 0.250000
O O8 0.161607 0.602487 0.189427
O O9 0.069367 0.750000 0.250000
O O10 0.750000 0.750000 0.315936
O O11 0.750000 0.250000 0.370217
#
# Coordination Sequence:
#
# PCOD9328915 Si02
#       4
#    16  16  16  16
#     4  11  24  42  66  99 138 180 228 279 337 410
#     4  11  24  44  68  98 136 177 226 286 342 405
#     4  11  23  40  63  94 132 174 222 279 337 402
#     4  11  23  42  66  95 131 173 225 282 342 409
#
# _framework density 24.840252
#
# number of rings (size 3 to 8) (size 9 to 14) (size 15 to 20)
#    0.000    1.000    0.000    9.000    0.000    7.000 
#    0.000    6.250    0.000    3.000    0.000    0.000 
#    0.000    0.000    0.000    0.000    0.000    0.000 
#
# Total GULP energy -89211.695873 kJ/mol
# GULP energy per Si atom -5575.730992 kJ/mol
# Density = 2.478371 g / cm^3
# Si number density = 24.840252 Si / 1000 Ang^3
#
#
#
# Elastic Constant Matrix: (Units=GPa)
#
#
# Indices 1 2 3 4 5 6 
#
# 1 77.9661 18.8404 9.3138 -0.0011 -0.0029 0.0103
# 2 18.8404 147.8359 38.2643 0.0001 -0.0129 0.0292
# 3 9.3138 38.2643 148.4287 -0.0012 -0.0008 -0.0010
# 4 -0.0011 0.0001 -0.0012 42.2592 -0.0013 0.0025
# 5 -0.0029 -0.0129 -0.0008 -0.0013 2.9375 0.0081
# 6 0.0103 0.0292 -0.0010 0.0025 0.0081 8.9041
#
#
#
# Elastic Compliance Matrix: (Units=1/GPa)
#
#
# Indices 1 2 3 4 5 6 
#
# 1 0.013259 -0.001580 -0.000425 0.000000 0.000006 -0.000010
# 2 -0.001580 0.007436 -0.001818 0.000000 0.000031 -0.000023
# 3 -0.000425 -0.001818 0.007233 0.000000 -0.000007 0.000007
# 4 0.000000 0.000000 0.000000 0.023663 0.000010 -0.000007
# 5 0.000006 0.000031 -0.000007 0.000010 0.340431 -0.000309
# 6 -0.000010 -0.000023 0.000007 -0.000007 -0.000309 0.112308
#
#
# Mechanical properties :
#
#
# Convention : Reuss Voigt Hill
#
# Bulk Modulus (GPa) = 49.30352 56.34087 52.82219
# Shear Modulus (GPa) = 9.63884 31.34096 20.48990
#
# Velocity S-wave (km/s) = 1.97199 3.55590 2.87517
# Velocity P-wave (km/s) = 5.00763 6.29204 5.68621
#
# Compressibility (1/GPa) = 0.02028253
#
# Stress axis : x y z
#
# Youngs Moduli (GPa) = 75.42292 134.47895 138.26413
#
# Poissons Ratio (x) = 0.21244 0.05872
# Poissons Ratio (y) = 0.11915 0.25135
# Poissons Ratio (z) = 0.03203 0.24447
#
# Static dielectric constant tensor:
#      x y z
#    x 2.089090 0.000000 0.000000 
#    y 0.000000 2.031930 -0.000010 
#    z 0.000000 -0.000010 1.954910 
# 
# From -- ./inp_files/50111.got.cif
#   From: 2010.05.17/outbox.cif.g08.bks.cpg/sg22_26_cif.got.tgz:50111.got - 2010.06.03 23:40:54.
