data_PCOD9328228
_publ_section_title
;
Structure prediction by ZEFSAII (Michael W. Deem and Ramdas Pophale) SiO2 
 PCOD9328228
Probable space group: F 2 2 2
;
_chemical_formula_sum "Si O2"
_cell_formula_units_Z 104
_cell_length_a 9.562027
_cell_length_b 22.674129
_cell_length_c 24.534045
_cell_angle_alpha 90.000000
_cell_angle_beta 90.000000
_cell_angle_gamma 90.000000
_cell_volume 5319.241844
_symmetry_space_group_name_H-M "F 2 2 2"
_symmetry_group_IT_number 22
_symmetry_cell_setting 'orthorhombic'
loop_
_space_group_symop_operation_xyz
x,y,z
-x,-y,z
x,-y,-z
-x,y,-z
x,1/2+y,1/2+z
-x,1/2-y,1/2+z
x,1/2-y,1/2-z
-x,1/2+y,1/2-z
1/2+x,y,1/2+z
1/2-x,-y,1/2+z
1/2+x,-y,1/2-z
1/2-x,y,1/2-z
1/2+x,1/2+y,z
1/2-x,1/2-y,z
1/2+x,1/2-y,-z
1/2-x,1/2+y,-z
loop_
_atom_site_type_symbol
_atom_site_label
_atom_site_fract_x
_atom_site_fract_y
_atom_site_fract_z
Si Si1 0.276356 0.112595 0.087434
Si Si2 0.669341 0.811419 0.802079
Si Si3 0.000000 0.857379 0.500000
Si Si4 0.834795 0.508526 0.564390
Si Si5 0.736651 0.358729 0.416030
Si Si6 0.877513 0.788263 0.338270
Si Si7 0.028022 0.203614 0.062063
O O1 0.403718 0.110700 0.044754
O O2 0.233292 0.045646 0.096489
O O3 0.323162 0.149035 0.140139
O O4 0.147138 0.151982 0.062658
O O5 0.750000 0.837208 0.750000
O O6 0.750000 0.750000 0.812728
O O7 0.678547 0.850148 0.855794
O O8 0.506269 0.796162 0.797727
O O9 0.874576 0.834003 0.539826
O O10 0.811131 0.500000 0.500000
O O11 0.774501 0.572900 0.575974
O O12 0.000000 0.500000 0.573582
O O13 0.881590 0.323599 0.419700
O O14 0.750000 0.750000 0.316065
O O15 0.924707 0.752808 0.394063
O O16 0.000000 0.224501 0.000000
#
# Coordination Sequence:
#
# PCOD9328228 Si02
#       7
#    16  16   8  16  16  16  16
#     4  11  22  36  54  91 132 168 207 258 326 397
#     4  11  24  45  67  91 126 176 225 272 325 389
#     4  12  22  33  56  92 136 164 208 269 330 398
#     4  11  21  36  60  87 129 178 214 250 318 407
#     4  12  23  38  64  94 131 172 221 267 327 403
#     4  10  23  39  62  92 129 163 212 273 332 389
#     4  11  20  36  58  90 131 177 207 250 331 415
#
# _framework density 19.551658
#
# number of rings (size 3 to 8) (size 9 to 14) (size 15 to 20)
#    0.000    0.923    7.692    0.000    1.077    1.231 
#    2.769    1.538    0.000    1.846    0.000    0.000 
#    0.000    0.000    0.000    0.000    0.000    0.000 
#
# Total GULP energy -145120.353111 kJ/mol
# GULP energy per Si atom -5581.552043 kJ/mol
# Density = 1.950716 g / cm^3
# Si number density = 19.551658 Si / 1000 Ang^3
#
#
#
# Elastic Constant Matrix: (Units=GPa)
#
#
# Indices 1 2 3 4 5 6 
#
# 1 133.1780 30.0144 29.5203 0.0000 0.0000 0.0000
# 2 30.0144 93.7541 16.5545 0.0000 0.0000 0.0000
# 3 29.5203 16.5545 74.5056 0.0000 0.0000 0.0000
# 4 0.0000 0.0000 0.0000 13.4602 0.0000 0.0000
# 5 0.0000 0.0000 0.0000 0.0000 20.3074 0.0000
# 6 0.0000 0.0000 0.0000 0.0000 0.0000 24.8455
#
#
#
# Elastic Compliance Matrix: (Units=1/GPa)
#
#
# Indices 1 2 3 4 5 6 
#
# 1 0.008667 -0.002257 -0.002933 0.000000 0.000000 0.000000
# 2 -0.002257 0.011689 -0.001703 0.000000 0.000000 0.000000
# 3 -0.002933 -0.001703 0.014962 0.000000 0.000000 0.000000
# 4 0.000000 0.000000 0.000000 0.074293 0.000000 0.000000
# 5 0.000000 0.000000 0.000000 0.000000 0.049243 0.000000
# 6 0.000000 0.000000 0.000000 0.000000 0.000000 0.040249
#
#
# Mechanical properties :
#
#
# Convention : Reuss Voigt Hill
#
# Bulk Modulus (GPa) = 46.43890 50.40180 48.42035
# Shear Modulus (GPa) = 22.72032 26.74586 24.73309
#
# Velocity S-wave (km/s) = 3.41261 3.70260 3.56056
# Velocity P-wave (km/s) = 6.27147 6.64182 6.45930
#
# Compressibility (1/GPa) = 0.02153367
#
# Stress axis : x y z
#
# Youngs Moduli (GPa) = 115.37393 85.54715 66.83512
#
# Poissons Ratio (x) = 0.19308 0.19601
# Poissons Ratio (y) = 0.26039 0.11382
# Poissons Ratio (z) = 0.33836 0.14569
#
# Static dielectric constant tensor:
#      x y z
#    x 1.724320 0.000000 0.000000 
#    y 0.000000 1.713070 0.000000 
#    z 0.000000 0.000000 1.700390 
# 
# From -- ./inp_files/52089.got.cif
#   From: 2010.05.17/outbox.cif.g08.bks.cpg/sg22_27_cif.got.tgz:52089.got - 2010.06.03 23:40:54.
