data_PCOD9328860
_publ_section_title
;
Structure prediction by ZEFSAII (Michael W. Deem and Ramdas Pophale) SiO2 
 PCOD9328860
Probable space group: F 2 2 2
;
_chemical_formula_sum "Si O2"
_cell_formula_units_Z 36
_cell_length_a 9.018345
_cell_length_b 4.629632
_cell_length_c 34.526900
_cell_angle_alpha 90.000000
_cell_angle_beta 90.000000
_cell_angle_gamma 90.000000
_cell_volume 1441.553960
_symmetry_space_group_name_H-M "F 2 2 2"
_symmetry_group_IT_number 22
_symmetry_cell_setting 'orthorhombic'
loop_
_space_group_symop_operation_xyz
x,y,z
-x,-y,z
x,-y,-z
-x,y,-z
x,1/2+y,1/2+z
-x,1/2-y,1/2+z
x,1/2-y,1/2-z
-x,1/2+y,1/2-z
1/2+x,y,1/2+z
1/2-x,-y,1/2+z
1/2+x,-y,1/2-z
1/2-x,y,1/2-z
1/2+x,1/2+y,z
1/2-x,1/2-y,z
1/2+x,1/2-y,-z
1/2-x,1/2+y,-z
loop_
_atom_site_type_symbol
_atom_site_label
_atom_site_fract_x
_atom_site_fract_y
_atom_site_fract_z
Si Si1 0.500000 0.000000 0.697073
Si Si2 0.250000 0.250000 0.081211
Si Si3 0.750000 0.750000 0.527391
Si Si4 0.750000 0.250000 0.250000
Si Si5 0.000000 0.000000 0.635995
O O1 0.358538 0.044441 0.724930
O O2 0.471241 0.250297 0.666349
O O3 0.323230 0.511275 0.055757
O O4 0.131934 0.405657 0.108127
O O5 0.673253 0.500000 0.500000
#
# Coordination Sequence:
#
# PCOD9328860 Si02
#       5
#     8   8   8   4   8
#     4  12  27  46  72 106 145 195 250 309 377 446
#     4  11  22  42  68 102 146 191 248 307 368 438
#     4   9  20  41  68 102 144 194 246 300 366 436
#     4  12  28  50  76 108 152 196 252 314 376 450
#     4  12  25  44  71 104 144 193 246 305 370 442
#
# _framework density 24.973047999999999
#
# number of rings (size 3 to 8) (size 9 to 14) (size 15 to 20)
#    0.000    0.889    0.000    6.667    0.000    6.222 
#    0.000   16.667    0.000    0.000    0.000    0.000 
#    0.000    0.000    0.000    0.000    0.000    0.000 
#
# Total GULP energy -50107.782305 kJ/mol
# GULP energy per Si atom -5567.531367 kJ/mol
# Density = 2.491621 g / cm^3
# Si number density = 24.973048 Si / 1000 Ang^3
#
#
#
# Elastic Constant Matrix: (Units=GPa)
#
#
# Indices 1 2 3 4 5 6 
#
# 1 165.2622 63.5920 91.9460 0.0000 0.0000 0.0000
# 2 63.5920 197.3489 107.9428 0.0000 0.0000 0.0000
# 3 91.9460 107.9428 177.4027 0.0000 0.0000 0.0000
# 4 0.0000 0.0000 0.0000 69.8881 0.0000 0.0000
# 5 0.0000 0.0000 0.0000 0.0000 -30.5428 0.0000
# 6 0.0000 0.0000 0.0000 0.0000 0.0000 32.6319
#
#
#
# Elastic Compliance Matrix: (Units=1/GPa)
#
#
# Indices 1 2 3 4 5 6 
#
# 1 0.008535 -0.000496 -0.004122 0.000000 0.000000 0.000000
# 2 -0.000496 0.007624 -0.004382 0.000000 0.000000 0.000000
# 3 -0.004122 -0.004382 0.010439 0.000000 0.000000 0.000000
# 4 0.000000 0.000000 0.000000 0.014309 0.000000 0.000000
# 5 0.000000 0.000000 0.000000 0.000000 -0.032741 0.000000
# 6 0.000000 0.000000 0.000000 0.000000 0.000000 0.030645
#
#
# Mechanical properties :
#
#
# Convention : Reuss Voigt Hill
#
# Bulk Modulus (GPa) = 116.29055 118.55282 117.42168
# Shear Modulus (GPa) = 83.78593 32.83097 58.30845
#
# Velocity S-wave (km/s) = 5.79857 3.62975 4.83728
# Velocity P-wave (km/s) = 9.56549 8.07107 8.84988
#
# Compressibility (1/GPa) = 0.00859915
#
# Stress axis : x y z
#
# Youngs Moduli (GPa) = 117.16342 131.17263 95.79054
#
# Poissons Ratio (x) = 0.06502 0.39485
# Poissons Ratio (y) = 0.05807 0.41973
# Poissons Ratio (z) = 0.48296 0.57477
#
# Static dielectric constant tensor:
#      x y z
#    x 1.954500 0.000000 0.000000 
#    y 0.000000 1.943410 0.000000 
#    z 0.000000 0.000000 2.037720 
# 
# From -- ./inp_files/55743.got.cif
#   From: 2010.05.17/outbox.cif.g08.bks.cpg/sg22_28_cif.got.tgz:55743.got - 2010.06.03 23:40:54.
