data_PCOD9328495
_publ_section_title
;
Structure prediction by ZEFSAII (Michael W. Deem and Ramdas Pophale) SiO2 
 PCOD9328495
Probable space group: F 2 2 2
;
_chemical_formula_sum "Si O2"
_cell_formula_units_Z 60
_cell_length_a 12.768641
_cell_length_b 9.338801
_cell_length_c 19.119735
_cell_angle_alpha 90.000000
_cell_angle_beta 90.000000
_cell_angle_gamma 90.000000
_cell_volume 2279.909806
_symmetry_space_group_name_H-M "F 2 2 2"
_symmetry_group_IT_number 22
_symmetry_cell_setting 'orthorhombic'
loop_
_space_group_symop_operation_xyz
x,y,z
-x,-y,z
x,-y,-z
-x,y,-z
x,1/2+y,1/2+z
-x,1/2-y,1/2+z
x,1/2-y,1/2-z
-x,1/2+y,1/2-z
1/2+x,y,1/2+z
1/2-x,-y,1/2+z
1/2+x,-y,1/2-z
1/2-x,y,1/2-z
1/2+x,1/2+y,z
1/2-x,1/2-y,z
1/2+x,1/2-y,-z
1/2-x,1/2+y,-z
loop_
_atom_site_type_symbol
_atom_site_label
_atom_site_fract_x
_atom_site_fract_y
_atom_site_fract_z
Si Si1 0.425934 0.873329 0.807330
Si Si2 0.562553 0.802709 0.431496
Si Si3 0.788460 0.023530 0.140554
Si Si4 0.750000 0.250000 0.250000
Si Si5 0.750000 0.250000 0.022055
O O1 0.410692 0.750000 0.750000
O O2 0.485060 0.805739 0.875297
O O3 0.500000 0.000000 0.781336
O O4 0.311994 0.934496 0.831182
O O5 0.500000 0.850857 0.500000
O O6 0.655541 0.720485 0.470303
O O7 0.616207 0.924578 0.384167
O O8 0.813057 0.142969 0.199436
O O9 0.763432 0.114589 0.071681
#
# Coordination Sequence:
#
# PCOD9328495 Si02
#       5
#    16  16  16   4   8
#     4  12  28  52  81 120 170 221 285 351 418 511
#     4  12  26  49  82 120 164 219 278 354 420 503
#     4  11  24  47  78 117 166 217 282 342 426 495
#     4  10  24  44  82 116 162 228 282 344 414 504
#     4  11  24  45  75 122 161 212 274 344 423 500
#
# _framework density 26.316832000000002
#
# number of rings (size 3 to 8) (size 9 to 14) (size 15 to 20)
#    0.000    0.533    2.667    4.000    1.867    5.867 
#    9.600    0.000    0.000    0.000    0.000    0.000 
#    0.000    0.000    0.000    0.000    0.000    0.000 
#
# Total GULP energy -84072.410486 kJ/mol
# GULP energy per Si atom -5604.827366 kJ/mol
# Density = 2.625693 g / cm^3
# Si number density = 26.316832 Si / 1000 Ang^3
#
#
#
# Elastic Constant Matrix: (Units=GPa)
#
#
# Indices 1 2 3 4 5 6 
#
# 1 94.4220 44.1890 42.7289 0.0000 0.0000 0.0000
# 2 44.1890 150.5022 85.0728 0.0000 0.0000 0.0000
# 3 42.7289 85.0728 188.2072 0.0000 0.0000 0.0000
# 4 0.0000 0.0000 0.0000 64.7791 0.0000 0.0000
# 5 0.0000 0.0000 0.0000 0.0000 44.5772 0.0000
# 6 0.0000 0.0000 0.0000 0.0000 0.0000 27.2762
#
#
#
# Elastic Compliance Matrix: (Units=1/GPa)
#
#
# Indices 1 2 3 4 5 6 
#
# 1 0.012626 -0.002803 -0.001600 0.000000 0.000000 0.000000
# 2 -0.002803 0.009547 -0.003679 0.000000 0.000000 0.000000
# 3 -0.001600 -0.003679 0.007339 0.000000 0.000000 0.000000
# 4 0.000000 0.000000 0.000000 0.015437 0.000000 0.000000
# 5 0.000000 0.000000 0.000000 0.000000 0.022433 0.000000
# 6 0.000000 0.000000 0.000000 0.000000 0.000000 0.036662
#
#
# Mechanical properties :
#
#
# Convention : Reuss Voigt Hill
#
# Bulk Modulus (GPa) = 74.90889 86.34587 80.62738
# Shear Modulus (GPa) = 40.10967 44.73587 42.42277
#
# Velocity S-wave (km/s) = 3.90822 4.12745 4.01933
# Velocity P-wave (km/s) = 6.99225 7.45626 7.22798
#
# Compressibility (1/GPa) = 0.01334955
#
# Stress axis : x y z
#
# Youngs Moduli (GPa) = 79.19899 104.74444 136.25049
#
# Poissons Ratio (x) = 0.29361 0.21794
# Poissons Ratio (y) = 0.22200 0.50127
# Poissons Ratio (z) = 0.12668 0.38536
#
# Static dielectric constant tensor:
#      x y z
#    x 2.170600 0.000000 0.000000 
#    y 0.000000 2.120670 0.000000 
#    z 0.000000 0.000000 1.991290 
# 
# From -- ./inp_files/42390.got.cif
#   From: 2010.05.17/outbox.cif.g08.bks.cpg/sg22_22_cif.got.tgz:42390.got - 2010.06.03 23:40:54.
