data_PCOD9328191
_publ_section_title
;
Structure prediction by ZEFSAII (Michael W. Deem and Ramdas Pophale) SiO2 
 PCOD9328191
Probable space group: F 2 2 2
;
_chemical_formula_sum "Si O2"
_cell_formula_units_Z 80
_cell_length_a 12.400831
_cell_length_b 26.884393
_cell_length_c 11.104237
_cell_angle_alpha 90.000000
_cell_angle_beta 90.000000
_cell_angle_gamma 90.000000
_cell_volume 3702.028405
_symmetry_space_group_name_H-M "F 2 2 2"
_symmetry_group_IT_number 22
_symmetry_cell_setting 'orthorhombic'
loop_
_space_group_symop_operation_xyz
x,y,z
-x,-y,z
x,-y,-z
-x,y,-z
x,1/2+y,1/2+z
-x,1/2-y,1/2+z
x,1/2-y,1/2-z
-x,1/2+y,1/2-z
1/2+x,y,1/2+z
1/2-x,-y,1/2+z
1/2+x,-y,1/2-z
1/2-x,y,1/2-z
1/2+x,1/2+y,z
1/2-x,1/2-y,z
1/2+x,1/2-y,-z
1/2-x,1/2+y,-z
loop_
_atom_site_type_symbol
_atom_site_label
_atom_site_fract_x
_atom_site_fract_y
_atom_site_fract_z
Si Si1 0.552430 0.950041 0.868112
Si Si2 0.290243 0.693692 0.122765
Si Si3 0.713050 0.634902 0.117415
Si Si4 0.963506 0.125016 0.166808
Si Si5 0.788788 0.551815 0.542435
O O1 0.529831 0.898670 0.799244
O O2 0.681389 0.956589 0.879429
O O3 0.500000 0.000000 0.809996
O O4 0.500000 0.947153 0.000000
O O5 0.250000 0.670194 0.250000
O O6 0.250000 0.750000 0.122275
O O7 0.415206 0.679758 0.141107
O O8 0.255819 0.669995 0.995402
O O9 0.750000 0.650350 0.250000
O O10 0.584392 0.627808 0.120638
O O11 0.754350 0.581068 0.075765
O O12 0.878161 0.086418 0.105753
O O13 0.836747 0.500000 0.500000
#
# Coordination Sequence:
#
# PCOD9328191 Si02
#       5
#    16  16  16  16  16
#     4  11  22  39  60 100 143 194 241 285 352 427
#     4  10  22  46  73  98 130 178 233 294 370 448
#     4  11  25  43  68 104 142 180 236 304 373 426
#     4  11  24  41  68  97 140 183 238 297 361 430
#     4  11  22  38  61  94 140 193 238 284 338 432
#
# _framework density 21.609776
#
# number of rings (size 3 to 8) (size 9 to 14) (size 15 to 20)
#    0.000    1.200    2.000    6.600    2.800    1.200 
#    0.000    8.000    0.000    2.400    0.000    0.000 
#    0.000    0.000    0.000    0.000    0.000    0.000 
#
# Total GULP energy -111473.016146 kJ/mol
# GULP energy per Si atom -5573.650807 kJ/mol
# Density = 2.156059 g / cm^3
# Si number density = 21.609776 Si / 1000 Ang^3
#
#
#
# Elastic Constant Matrix: (Units=GPa)
#
#
# Indices 1 2 3 4 5 6 
#
# 1 119.8775 28.3809 21.8104 0.0000 0.0000 0.0000
# 2 28.3809 122.1447 45.7070 0.0000 0.0000 0.0000
# 3 21.8104 45.7070 153.6986 0.0000 0.0000 0.0000
# 4 0.0000 0.0000 0.0000 27.7180 0.0000 0.0000
# 5 0.0000 0.0000 0.0000 0.0000 30.7738 0.0000
# 6 0.0000 0.0000 0.0000 0.0000 0.0000 25.2059
#
#
#
# Elastic Compliance Matrix: (Units=1/GPa)
#
#
# Indices 1 2 3 4 5 6 
#
# 1 0.008899 -0.001795 -0.000729 0.000000 0.000000 0.000000
# 2 -0.001795 0.009574 -0.002592 0.000000 0.000000 0.000000
# 3 -0.000729 -0.002592 0.007381 0.000000 0.000000 0.000000
# 4 0.000000 0.000000 0.000000 0.036078 0.000000 0.000000
# 5 0.000000 0.000000 0.000000 0.000000 0.032495 0.000000
# 6 0.000000 0.000000 0.000000 0.000000 0.000000 0.039673
#
#
# Mechanical properties :
#
#
# Convention : Reuss Voigt Hill
#
# Bulk Modulus (GPa) = 64.01546 65.27971 64.64758
# Shear Modulus (GPa) = 33.43577 36.72771 35.08174
#
# Velocity S-wave (km/s) = 3.93778 4.12708 4.03354
# Velocity P-wave (km/s) = 7.09665 7.27904 7.18842
#
# Compressibility (1/GPa) = 0.01562123
#
# Stress axis : x y z
#
# Youngs Moduli (GPa) = 112.36634 104.44732 135.48944
#
# Poissons Ratio (x) = 0.18748 0.09878
# Poissons Ratio (y) = 0.20170 0.35125
# Poissons Ratio (z) = 0.08192 0.27078
#
# Static dielectric constant tensor:
#      x y z
#    x 1.822260 0.000000 0.000000 
#    y 0.000000 1.810330 0.000000 
#    z 0.000000 0.000000 1.923000 
# 
# From -- ./inp_files/18289.got.cif
#   From: 2010.05.17/outbox.cif.g08.bks.cpg/sg22_10_cif.got.tgz:18289.got - 2010.06.03 23:40:54.
