data_PCOD9328055
_publ_section_title
;
Structure prediction by ZEFSAII (Michael W. Deem and Ramdas Pophale) SiO2 
 PCOD9328055
Probable space group: F 2 2 2
;
_chemical_formula_sum "Si O2"
_cell_formula_units_Z 80
_cell_length_a 15.280363
_cell_length_b 9.400861
_cell_length_c 27.341654
_cell_angle_alpha 90.000000
_cell_angle_beta 90.000000
_cell_angle_gamma 90.000000
_cell_volume 3927.589460
_symmetry_space_group_name_H-M "F 2 2 2"
_symmetry_group_IT_number 22
_symmetry_cell_setting 'orthorhombic'
loop_
_space_group_symop_operation_xyz
x,y,z
-x,-y,z
x,-y,-z
-x,y,-z
x,1/2+y,1/2+z
-x,1/2-y,1/2+z
x,1/2-y,1/2-z
-x,1/2+y,1/2-z
1/2+x,y,1/2+z
1/2-x,-y,1/2+z
1/2+x,-y,1/2-z
1/2-x,y,1/2-z
1/2+x,1/2+y,z
1/2-x,1/2-y,z
1/2+x,1/2-y,-z
1/2-x,1/2+y,-z
loop_
_atom_site_type_symbol
_atom_site_label
_atom_site_fract_x
_atom_site_fract_y
_atom_site_fract_z
Si Si1 0.097962 0.750000 0.750000
Si Si2 0.644454 0.000000 0.000000
Si Si3 0.000000 0.253944 0.000000
Si Si4 0.830811 0.339026 0.850715
Si Si5 0.486483 0.218181 0.607328
Si Si6 0.188104 0.885184 0.400204
Si Si7 0.500000 0.500000 0.189521
O O1 0.154060 0.689202 0.794040
O O2 0.045451 0.616828 0.725075
O O3 0.582183 0.137825 0.993184
O O4 0.699451 0.033575 0.048281
O O5 0.992948 0.169024 0.050823
O O6 0.750000 0.250000 0.870729
O O7 0.802573 0.500316 0.858247
O O8 0.921355 0.287710 0.876060
O O9 0.412463 0.337456 0.603779
O O10 0.455463 0.104560 0.648461
O O11 0.250000 0.750000 0.397499
#
# Coordination Sequence:
#
# PCOD9328055 Si02
#       7
#     8   8   8  16  16  16   8
#     4  10  25  44  72  96 135 174 235 278 356 404
#     4   9  18  38  60  94 135 184 222 259 330 396
#     4   9  16  37  68  94 128 188 218 260 326 410
#     4  11  24  44  70  97 136 182 223 285 344 407
#     4  10  22  42  68  98 139 180 225 270 337 406
#     4  11  24  40  69 102 138 179 229 278 331 405
#     4  10  24  41  70 102 128 177 226 286 336 404
#
# _framework density 20.368728000000001
#
# number of rings (size 3 to 8) (size 9 to 14) (size 15 to 20)
#    0.000    1.800    2.000    0.900   11.200    1.200 
#    0.000    0.000    0.000    0.000    0.000    0.000 
#    0.000    0.000    0.000    0.000    0.000    0.000 
#
# Total GULP energy -111402.703186 kJ/mol
# GULP energy per Si atom -5570.135159 kJ/mol
# Density = 2.032237 g / cm^3
# Si number density = 20.368728 Si / 1000 Ang^3
#
#
#
# Elastic Constant Matrix: (Units=GPa)
#
#
# Indices 1 2 3 4 5 6 
#
# 1 84.2540 38.8535 41.8461 0.0000 0.0000 0.0000
# 2 38.8535 123.6593 62.0299 0.0000 0.0000 0.0000
# 3 41.8461 62.0299 125.7947 0.0000 0.0000 0.0000
# 4 0.0000 0.0000 0.0000 36.3749 0.0000 0.0000
# 5 0.0000 0.0000 0.0000 0.0000 2.8888 0.0000
# 6 0.0000 0.0000 0.0000 0.0000 0.0000 18.6609
#
#
#
# Elastic Compliance Matrix: (Units=1/GPa)
#
#
# Indices 1 2 3 4 5 6 
#
# 1 0.014977 -0.002932 -0.003537 0.000000 0.000000 0.000000
# 2 -0.002932 0.011318 -0.004606 0.000000 0.000000 0.000000
# 3 -0.003537 -0.004606 0.011397 0.000000 0.000000 0.000000
# 4 0.000000 0.000000 0.000000 0.027492 0.000000 0.000000
# 5 0.000000 0.000000 0.000000 0.000000 0.346168 0.000000
# 6 0.000000 0.000000 0.000000 0.000000 0.000000 0.053588
#
#
# Mechanical properties :
#
#
# Convention : Reuss Voigt Hill
#
# Bulk Modulus (GPa) = 64.33240 68.79633 66.56437
# Shear Modulus (GPa) = 10.15704 24.31682 17.23693
#
# Velocity S-wave (km/s) = 2.23549 3.45893 2.91218
# Velocity P-wave (km/s) = 6.18997 7.05699 6.63765
#
# Compressibility (1/GPa) = 0.01554427
#
# Stress axis : x y z
#
# Youngs Moduli (GPa) = 66.76737 88.35271 87.74193
#
# Poissons Ratio (x) = 0.25904 0.31031
# Poissons Ratio (y) = 0.19575 0.40412
# Poissons Ratio (z) = 0.23613 0.40694
#
# Static dielectric constant tensor:
#      x y z
#    x 1.723540 0.000000 0.000000 
#    y 0.000000 1.776880 0.000000 
#    z 0.000000 0.000000 1.765110 
# 
# From -- ./inp_files/14690.got.cif
#   From: 2010.05.17/outbox.cif.g08.bks.cpg/sg22_8_cif.got.tgz:14690.got - 2010.06.03 23:40:54.
