data_PCOD9328567
_publ_section_title
;
Structure prediction by ZEFSAII (Michael W. Deem and Ramdas Pophale) SiO2 
 PCOD9328567
Probable space group: F 2 2 2
;
_chemical_formula_sum "Si O2"
_cell_formula_units_Z 112
_cell_length_a 14.556364
_cell_length_b 14.086965
_cell_length_c 25.054878
_cell_angle_alpha 90.000000
_cell_angle_beta 90.000000
_cell_angle_gamma 90.000000
_cell_volume 5137.627763
_symmetry_space_group_name_H-M "F 2 2 2"
_symmetry_group_IT_number 22
_symmetry_cell_setting 'orthorhombic'
loop_
_space_group_symop_operation_xyz
x,y,z
-x,-y,z
x,-y,-z
-x,y,-z
x,1/2+y,1/2+z
-x,1/2-y,1/2+z
x,1/2-y,1/2-z
-x,1/2+y,1/2-z
1/2+x,y,1/2+z
1/2-x,-y,1/2+z
1/2+x,-y,1/2-z
1/2-x,y,1/2-z
1/2+x,1/2+y,z
1/2-x,1/2-y,z
1/2+x,1/2-y,-z
1/2-x,1/2+y,-z
loop_
_atom_site_type_symbol
_atom_site_label
_atom_site_fract_x
_atom_site_fract_y
_atom_site_fract_z
Si Si1 0.262754 0.857173 0.412710
Si Si2 0.931904 0.091021 0.375472
Si Si3 0.458983 0.760230 0.947234
Si Si4 0.639633 0.137681 0.242393
Si Si5 0.299612 0.604265 0.520967
Si Si6 0.899348 0.977754 0.844256
Si Si7 0.308388 0.659929 0.875534
O O1 0.250000 0.750000 0.391513
O O2 0.170167 0.915107 0.399683
O O3 0.269294 0.853250 0.476535
O O4 0.346005 0.909433 0.384881
O O5 0.907318 0.110084 0.313565
O O6 0.974964 0.180089 0.407750
O O7 0.000000 0.000000 0.381254
O O8 0.392714 0.837387 0.975391
O O9 0.396293 0.698222 0.908113
O O10 0.500000 0.709568 0.000000
O O11 0.627889 0.250000 0.250000
O O12 0.750000 0.118880 0.250000
O O13 0.592804 0.078095 0.289114
O O14 0.317283 0.500000 0.500000
O O15 0.254705 0.613808 0.578622
O O16 0.842164 0.075606 0.837732
O O17 0.000000 0.000000 0.865333
O O18 0.250000 0.750000 0.853611
#
# Coordination Sequence:
#
# PCOD9328567 Si02
#       7
#    16  16  16  16  16  16  16
#     4  12  24  43  73 105 145 200 248 302 371 436
#     4  12  26  43  73 108 140 185 249 315 375 435
#     4  11  24  39  68 106 148 186 242 302 367 441
#     4  11  25  49  77 107 140 186 253 320 374 440
#     4  11  21  41  64 102 151 195 240 294 366 449
#     4  12  27  46  74 106 147 195 245 308 370 432
#     4  10  25  44  65 100 152 199 236 294 367 452
#
# _framework density 21.799945000000001
#
# number of rings (size 3 to 8) (size 9 to 14) (size 15 to 20)
#    0.000    0.714    4.286    3.429    6.000    0.000 
#    0.000    0.714    0.000    0.000    0.000    0.000 
#    0.000    0.000    0.000    0.000    0.000    0.000 
#
# Total GULP energy -156498.316418 kJ/mol
# GULP energy per Si atom -5589.225586 kJ/mol
# Density = 2.175033 g / cm^3
# Si number density = 21.799945 Si / 1000 Ang^3
#
#
#
# Elastic Constant Matrix: (Units=GPa)
#
#
# Indices 1 2 3 4 5 6 
#
# 1 101.3918 35.4950 19.7692 0.0000 0.0000 0.0000
# 2 35.4950 116.0127 26.3350 0.0000 0.0000 0.0000
# 3 19.7692 26.3350 77.3391 0.0000 0.0000 0.0000
# 4 0.0000 0.0000 0.0000 -77.0658 0.0000 0.0000
# 5 0.0000 0.0000 0.0000 0.0000 20.4259 0.0000
# 6 0.0000 0.0000 0.0000 0.0000 0.0000 27.8959
#
#
#
# Elastic Compliance Matrix: (Units=1/GPa)
#
#
# Indices 1 2 3 4 5 6 
#
# 1 0.011285 -0.003032 -0.001852 0.000000 0.000000 0.000000
# 2 -0.003032 0.010157 -0.002683 0.000000 0.000000 0.000000
# 3 -0.001852 -0.002683 0.014317 0.000000 0.000000 0.000000
# 4 0.000000 0.000000 0.000000 -0.012976 0.000000 0.000000
# 5 0.000000 0.000000 0.000000 0.000000 0.048957 0.000000
# 6 0.000000 0.000000 0.000000 0.000000 0.000000 0.035848
#
#
# Mechanical properties :
#
#
# Convention : Reuss Voigt Hill
#
# Bulk Modulus (GPa) = 48.48844 50.88242 49.68543
# Shear Modulus (GPa) = 38.58059 8.46082 23.52071
#
# Velocity S-wave (km/s) = 4.21141 1.97219 3.28828
# Velocity P-wave (km/s) = 6.77781 5.34578 6.10394
#
# Compressibility (1/GPa) = 0.02062347
#
# Stress axis : x y z
#
# Youngs Moduli (GPa) = 88.60969 98.45755 69.84587
#
# Poissons Ratio (x) = 0.29856 0.12937
# Poissons Ratio (y) = 0.26870 0.18742
# Poissons Ratio (z) = 0.16412 0.26420
#
# Static dielectric constant tensor:
#      x y z
#    x 1.854100 0.000000 0.000000 
#    y 0.000000 1.882690 0.000000 
#    z 0.000000 0.000000 1.841090 
# 
# From -- ./inp_files/48955.got.cif
#   From: 2010.05.17/outbox.cif.g08.bks.cpg/sg22_25_cif.got.tgz:48955.got - 2010.06.03 23:40:54.
