data_PCOD9328381
_publ_section_title
;
Structure prediction by ZEFSAII (Michael W. Deem and Ramdas Pophale) SiO2 
 PCOD9328381
Probable space group: F 2 2 2
;
_chemical_formula_sum "Si O2"
_cell_formula_units_Z 88
_cell_length_a 27.508411
_cell_length_b 5.259355
_cell_length_c 25.807541
_cell_angle_alpha 90.000000
_cell_angle_beta 90.000000
_cell_angle_gamma 90.000000
_cell_volume 3733.744678
_symmetry_space_group_name_H-M "F 2 2 2"
_symmetry_group_IT_number 22
_symmetry_cell_setting 'orthorhombic'
loop_
_space_group_symop_operation_xyz
x,y,z
-x,-y,z
x,-y,-z
-x,y,-z
x,1/2+y,1/2+z
-x,1/2-y,1/2+z
x,1/2-y,1/2-z
-x,1/2+y,1/2-z
1/2+x,y,1/2+z
1/2-x,-y,1/2+z
1/2+x,-y,1/2-z
1/2-x,y,1/2-z
1/2+x,1/2+y,z
1/2-x,1/2-y,z
1/2+x,1/2-y,-z
1/2-x,1/2+y,-z
loop_
_atom_site_type_symbol
_atom_site_label
_atom_site_fract_x
_atom_site_fract_y
_atom_site_fract_z
Si Si1 0.627940 0.750000 0.750000
Si Si2 0.058073 0.489902 0.174080
Si Si3 0.191293 0.703277 0.345170
Si Si4 0.557474 0.993119 0.606954
Si Si5 0.302105 0.202167 0.107849
Si Si6 0.886268 0.000000 0.000000
Si Si7 0.178457 0.500000 0.000000
O O1 0.591872 0.549371 0.723022
O O2 0.664422 0.631536 0.792540
O O3 0.068553 0.222681 0.146414
O O4 0.000000 0.500000 0.187219
O O5 0.067403 0.722804 0.133982
O O6 0.250000 0.750000 0.341195
O O7 0.177775 0.486141 0.387306
O O8 0.171434 0.979844 0.361803
O O9 0.582594 0.033740 0.551853
O O10 0.500000 0.000000 0.597540
O O11 0.250000 0.250000 0.133527
O O12 0.292806 0.076421 0.051725
O O13 0.854201 0.748016 0.992195
#
# Coordination Sequence:
#
# PCOD9328381 Si02
#       7
#     8  16  16  16  16   8   8
#     4  12  27  44  78  98 142 188 235 306 364 414
#     4  10  25  44  68 100 137 181 239 287 347 425
#     4  10  24  45  71 105 137 180 237 292 350 423
#     4  10  23  46  68  96 138 184 226 284 348 420
#     4  10  24  46  68  96 142 182 224 280 344 423
#     4  12  25  39  70 106 139 176 229 290 342 429
#     4  12  26  39  69 108 137 178 229 282 343 433
#
# _framework density 23.568832
#
# number of rings (size 3 to 8) (size 9 to 14) (size 15 to 20)
#    0.000    1.455    0.000    2.727    7.636    8.000 
#    0.000    6.364    0.000    0.000    0.000    0.000 
#    0.000    0.000    0.000    0.000    0.000    0.000 
#
# Total GULP energy -123002.974346 kJ/mol
# GULP energy per Si atom -5591.044288 kJ/mol
# Density = 2.351519 g / cm^3
# Si number density = 23.568832 Si / 1000 Ang^3
#
#
#
# Elastic Constant Matrix: (Units=GPa)
#
#
# Indices 1 2 3 4 5 6 
#
# 1 106.1353 53.1895 33.4003 0.0059 0.0015 -0.0068
# 2 53.1895 173.3909 44.3241 -0.0039 0.0774 -0.0352
# 3 33.4003 44.3241 88.6373 0.0046 -0.0064 0.0040
# 4 0.0059 -0.0039 0.0046 36.0456 0.0252 -0.0108
# 5 0.0015 0.0774 -0.0064 0.0252 80.0686 0.1233
# 6 -0.0068 -0.0352 0.0040 -0.0108 0.1233 63.7437
#
#
#
# Elastic Compliance Matrix: (Units=1/GPa)
#
#
# Indices 1 2 3 4 5 6 
#
# 1 0.011800 -0.002847 -0.003023 -0.000002 0.000002 0.000000
# 2 -0.002847 0.007300 -0.002577 0.000002 -0.000007 0.000004
# 3 -0.003023 -0.002577 0.013710 -0.000002 0.000004 -0.000003
# 4 -0.000002 0.000002 -0.000002 0.027743 -0.000009 0.000005
# 5 0.000002 -0.000007 0.000004 -0.000009 0.012489 -0.000024
# 6 0.000000 0.000004 -0.000003 0.000005 -0.000024 0.015688
#
#
# Mechanical properties :
#
#
# Convention : Reuss Voigt Hill
#
# Bulk Modulus (GPa) = 62.83413 69.99906 66.41660
# Shear Modulus (GPa) = 45.07401 51.78821 48.43111
#
# Velocity S-wave (km/s) = 4.37789 4.69264 4.53800
# Velocity P-wave (km/s) = 7.22996 7.68931 7.46317
#
# Compressibility (1/GPa) = 0.01591492
#
# Stress axis : x y z
#
# Youngs Moduli (GPa) = 84.74579 136.99476 72.94031
#
# Poissons Ratio (x) = 0.39003 0.22048
# Poissons Ratio (y) = 0.24128 0.18800
# Poissons Ratio (z) = 0.25617 0.35309
#
# Static dielectric constant tensor:
#      x y z
#    x 1.927170 0.000000 -0.000010 
#    y 0.000000 1.894420 0.000140 
#    z -0.000010 0.000140 1.837240 
# 
# From -- ./inp_files/50687.got.cif
#   From: 2010.05.17/outbox.cif.g08.bks.cpg/sg22_26_cif.got.tgz:50687.got - 2010.06.03 23:40:54.
