data_PCOD9328623
_publ_section_title
;
Structure prediction by ZEFSAII (Michael W. Deem and Ramdas Pophale) SiO2 
 PCOD9328623
Probable space group: F 2 2 2
;
_chemical_formula_sum "Si O2"
_cell_formula_units_Z 88
_cell_length_a 16.076803
_cell_length_b 21.310218
_cell_length_c 11.687243
_cell_angle_alpha 90.000000
_cell_angle_beta 90.000000
_cell_angle_gamma 90.000000
_cell_volume 4004.051517
_symmetry_space_group_name_H-M "F 2 2 2"
_symmetry_group_IT_number 22
_symmetry_cell_setting 'orthorhombic'
loop_
_space_group_symop_operation_xyz
x,y,z
-x,-y,z
x,-y,-z
-x,y,-z
x,1/2+y,1/2+z
-x,1/2-y,1/2+z
x,1/2-y,1/2-z
-x,1/2+y,1/2-z
1/2+x,y,1/2+z
1/2-x,-y,1/2+z
1/2+x,-y,1/2-z
1/2-x,y,1/2-z
1/2+x,1/2+y,z
1/2-x,1/2-y,z
1/2+x,1/2-y,-z
1/2-x,1/2+y,-z
loop_
_atom_site_type_symbol
_atom_site_label
_atom_site_fract_x
_atom_site_fract_y
_atom_site_fract_z
Si Si1 0.351461 0.464812 0.117504
Si Si2 0.378703 0.280479 0.401774
Si Si3 0.156065 0.596892 0.293359
Si Si4 0.089968 0.648158 0.531464
Si Si5 0.070596 0.802447 0.343200
Si Si6 0.750000 0.860302 0.250000
O O1 0.361125 0.522608 0.201657
O O2 0.428685 0.418425 0.093277
O O3 0.290104 0.410946 0.161290
O O4 0.326214 0.500000 0.000000
O O5 0.368016 0.204814 0.399259
O O6 0.471708 0.296620 0.359543
O O7 0.380934 0.294694 0.537436
O O8 0.312763 0.318827 0.327485
O O9 0.250000 0.606695 0.250000
O O10 0.140196 0.628666 0.417835
O O11 0.093740 0.631070 0.208788
O O12 0.000000 0.675558 0.500000
O O13 0.096223 0.750000 0.250000
#
# Coordination Sequence:
#
# PCOD9328623 Si02
#       6
#    16  16  16  16  16   8
#     4  10  26  46  68 102 143 195 248 300 363 459
#     4  11  26  45  73 115 148 189 244 321 388 448
#     4  11  24  46  73 103 139 195 252 304 359 448
#     4  11  23  48  73 105 147 194 249 310 373 458
#     4  11  23  49  74 102 149 193 247 309 377 457
#     4  12  28  45  72 112 155 192 238 324 393 432
#
# _framework density 21.977737999999999
#
# number of rings (size 3 to 8) (size 9 to 14) (size 15 to 20)
#    0.000    1.091    4.545    0.000   10.182    5.091 
#    0.000    0.000    0.000    2.182    0.000    0.000 
#    0.000    0.000    0.000    0.000    0.000    0.000 
#
# Total GULP energy -122888.015412 kJ/mol
# GULP energy per Si atom -5585.818882 kJ/mol
# Density = 2.192772 g / cm^3
# Si number density = 21.977738 Si / 1000 Ang^3
#
#
#
# Elastic Constant Matrix: (Units=GPa)
#
#
# Indices 1 2 3 4 5 6 
#
# 1 81.0626 76.9461 52.9676 0.0000 0.0000 0.0000
# 2 76.9461 233.5252 89.8169 0.0000 0.0000 0.0000
# 3 52.9676 89.8169 136.9522 0.0000 0.0000 0.0000
# 4 0.0000 0.0000 0.0000 34.3874 0.0000 0.0000
# 5 0.0000 0.0000 0.0000 0.0000 40.6541 0.0000
# 6 0.0000 0.0000 0.0000 0.0000 0.0000 28.3515
#
#
#
# Elastic Compliance Matrix: (Units=1/GPa)
#
#
# Indices 1 2 3 4 5 6 
#
# 1 0.019851 -0.004798 -0.004531 0.000000 0.000000 0.000000
# 2 -0.004798 0.006887 -0.002661 0.000000 0.000000 0.000000
# 3 -0.004531 -0.002661 0.010799 0.000000 0.000000 0.000000
# 4 0.000000 0.000000 0.000000 0.029080 0.000000 0.000000
# 5 0.000000 0.000000 0.000000 0.000000 0.024598 0.000000
# 6 0.000000 0.000000 0.000000 0.000000 0.000000 0.035272
#
#
# Mechanical properties :
#
#
# Convention : Reuss Voigt Hill
#
# Bulk Modulus (GPa) = 73.76026 99.00013 86.38019
# Shear Modulus (GPa) = 32.26114 36.13254 34.19684
#
# Velocity S-wave (km/s) = 3.83548 4.05909 3.94887
# Velocity P-wave (km/s) = 7.29717 8.19217 7.75759
#
# Compressibility (1/GPa) = 0.01355744
#
# Stress axis : x y z
#
# Youngs Moduli (GPa) = 50.37443 145.21099 92.60110
#
# Poissons Ratio (x) = 0.69678 0.41956
# Poissons Ratio (y) = 0.24172 0.24637
# Poissons Ratio (z) = 0.22824 0.38634
#
# Static dielectric constant tensor:
#      x y z
#    x 1.914050 0.000000 0.000000 
#    y 0.000000 1.797170 0.000000 
#    z 0.000000 0.000000 2.302900 
# 
# From -- ./inp_files/21385.got.cif
#   From: 2010.05.17/outbox.cif.g08.bks.cpg/sg22_11_cif.got.tgz:21385.got - 2010.06.03 23:40:54.
