data_PCOD9328762
_publ_section_title
;
Structure prediction by ZEFSAII (Michael W. Deem and Ramdas Pophale) SiO2 
 PCOD9328762
Probable space group: F 2 2 2
;
_chemical_formula_sum "Si O2"
_cell_formula_units_Z 96
_cell_length_a 22.599052
_cell_length_b 11.346624
_cell_length_c 18.677412
_cell_angle_alpha 90.000000
_cell_angle_beta 90.000000
_cell_angle_gamma 90.000000
_cell_volume 4789.317005
_symmetry_space_group_name_H-M "F 2 2 2"
_symmetry_group_IT_number 22
_symmetry_cell_setting 'orthorhombic'
loop_
_space_group_symop_operation_xyz
x,y,z
-x,-y,z
x,-y,-z
-x,y,-z
x,1/2+y,1/2+z
-x,1/2-y,1/2+z
x,1/2-y,1/2-z
-x,1/2+y,1/2-z
1/2+x,y,1/2+z
1/2-x,-y,1/2+z
1/2+x,-y,1/2-z
1/2-x,y,1/2-z
1/2+x,1/2+y,z
1/2-x,1/2-y,z
1/2+x,1/2-y,-z
1/2-x,1/2+y,-z
loop_
_atom_site_type_symbol
_atom_site_label
_atom_site_fract_x
_atom_site_fract_y
_atom_site_fract_z
Si Si1 0.187081 0.685382 0.817996
Si Si2 0.819298 0.588563 0.594682
Si Si3 0.292575 0.408949 0.682423
Si Si4 0.904961 0.238884 0.170868
Si Si5 0.644139 0.672224 0.059232
Si Si6 0.491257 0.867138 0.584949
O O1 0.155065 0.750000 0.750000
O O2 0.250000 0.750000 0.818696
O O3 0.192748 0.546629 0.807325
O O4 0.165737 0.714276 0.898189
O O5 0.751975 0.612098 0.615920
O O6 0.864359 0.623715 0.657716
O O7 0.824574 0.449088 0.583510
O O8 0.844284 0.661622 0.526090
O O9 0.250000 0.375910 0.750000
O O10 0.353530 0.339080 0.668355
O O11 0.930282 0.250000 0.250000
O O12 0.960861 0.222089 0.118453
O O13 0.577301 0.663298 0.087419
O O14 0.500000 0.873031 0.500000
O O15 0.500000 0.000000 0.614534
#
# Coordination Sequence:
#
# PCOD9328762 Si02
#       6
#    16  16  16  16  16  16
#     4  11  22  40  66  94 134 183 224 270 335 407
#     4  11  21  40  66 102 134 169 217 282 341 397
#     4  12  23  41  65 100 144 175 216 281 347 412
#     4  12  25  39  65 104 134 172 217 276 351 401
#     4  11  22  41  69  98 127 172 237 281 325 394
#     4  11  21  44  70  93 130 177 231 282 323 393
#
# _framework density 20.044611
#
# number of rings (size 3 to 8) (size 9 to 14) (size 15 to 20)
#    0.000    0.667    8.333    1.500    0.000    2.000 
#    0.000    0.833    0.000    1.000    0.000    0.000 
#    0.000    0.000    0.000    0.000    0.000    0.000 
#
# Total GULP energy -133667.405689 kJ/mol
# GULP energy per Si atom -5569.475237 kJ/mol
# Density = 1.999899 g / cm^3
# Si number density = 20.044611 Si / 1000 Ang^3
#
#
#
# Elastic Constant Matrix: (Units=GPa)
#
#
# Indices 1 2 3 4 5 6 
#
# 1 127.0321 37.3142 43.4161 0.0000 0.0000 0.0000
# 2 37.3142 103.0197 37.8902 0.0000 0.0000 0.0000
# 3 43.4161 37.8902 91.6644 0.0000 0.0000 0.0000
# 4 0.0000 0.0000 0.0000 16.8653 0.0000 0.0000
# 5 0.0000 0.0000 0.0000 0.0000 31.8812 0.0000
# 6 0.0000 0.0000 0.0000 0.0000 0.0000 41.4961
#
#
#
# Elastic Compliance Matrix: (Units=1/GPa)
#
#
# Indices 1 2 3 4 5 6 
#
# 1 0.009787 -0.002170 -0.003739 0.000000 0.000000 0.000000
# 2 -0.002170 0.011928 -0.003903 0.000000 0.000000 0.000000
# 3 -0.003739 -0.003903 0.014293 0.000000 0.000000 0.000000
# 4 0.000000 0.000000 0.000000 0.059293 0.000000 0.000000
# 5 0.000000 0.000000 0.000000 0.000000 0.031366 0.000000
# 6 0.000000 0.000000 0.000000 0.000000 0.000000 0.024099
#
#
# Mechanical properties :
#
#
# Convention : Reuss Voigt Hill
#
# Bulk Modulus (GPa) = 61.02777 62.10636 61.56706
# Shear Modulus (GPa) = 28.43292 31.58822 30.01057
#
# Velocity S-wave (km/s) = 3.77036 3.97406 3.87355
# Velocity P-wave (km/s) = 7.03322 7.21865 7.12654
#
# Compressibility (1/GPa) = 0.01638598
#
# Stress axis : x y z
#
# Youngs Moduli (GPa) = 102.17437 83.83424 69.96203
#
# Poissons Ratio (x) = 0.18191 0.26157
# Poissons Ratio (y) = 0.22171 0.27306
# Poissons Ratio (z) = 0.38200 0.32720
#
# Static dielectric constant tensor:
#      x y z
#    x 1.832130 0.000000 0.000000 
#    y 0.000000 1.720440 0.000000 
#    z 0.000000 0.000000 1.284760 
# 
# From -- ./inp_files/39474.got.cif
#   From: 2010.05.17/outbox.cif.g08.bks.cpg/sg22_20_cif.got.tgz:39474.got - 2010.06.03 23:40:54.
