data_PCOD9328968
_publ_section_title
;
Structure prediction by ZEFSAII (Michael W. Deem and Ramdas Pophale) SiO2 
 PCOD9328968
Probable space group: F 2 2 2
;
_chemical_formula_sum "Si O2"
_cell_formula_units_Z 96
_cell_length_a 19.399919
_cell_length_b 11.440653
_cell_length_c 21.429133
_cell_angle_alpha 90.000000
_cell_angle_beta 90.000000
_cell_angle_gamma 90.000000
_cell_volume 4756.147672
_symmetry_space_group_name_H-M "F 2 2 2"
_symmetry_group_IT_number 22
_symmetry_cell_setting 'orthorhombic'
loop_
_space_group_symop_operation_xyz
x,y,z
-x,-y,z
x,-y,-z
-x,y,-z
x,1/2+y,1/2+z
-x,1/2-y,1/2+z
x,1/2-y,1/2-z
-x,1/2+y,1/2-z
1/2+x,y,1/2+z
1/2-x,-y,1/2+z
1/2+x,-y,1/2-z
1/2-x,y,1/2-z
1/2+x,1/2+y,z
1/2-x,1/2-y,z
1/2+x,1/2-y,-z
1/2-x,1/2+y,-z
loop_
_atom_site_type_symbol
_atom_site_label
_atom_site_fract_x
_atom_site_fract_y
_atom_site_fract_z
Si Si1 0.051752 0.607151 0.100317
Si Si2 0.400321 0.382037 0.742535
Si Si3 0.041020 0.326761 0.436815
Si Si4 0.670380 0.124304 0.771417
Si Si5 0.500000 0.000000 0.335678
Si Si6 0.678782 0.811330 0.090099
Si Si7 0.153921 0.000000 0.500000
O O1 0.078520 0.613140 0.170434
O O2 0.000000 0.500000 0.095879
O O3 0.009935 0.724077 0.085916
O O4 0.107834 0.576379 0.047704
O O5 0.371315 0.250000 0.750000
O O6 0.356664 0.500532 0.753911
O O7 0.463100 0.406026 0.790492
O O8 0.046461 0.426797 0.384221
O O9 0.117300 0.268139 0.438263
O O10 0.000000 0.365618 0.500000
O O11 0.639371 0.250000 0.750000
O O12 0.750000 0.127718 0.750000
O O13 0.656289 0.128075 0.845421
O O14 0.750000 0.750000 0.106388
O O15 0.696386 0.910407 0.040565
#
# Coordination Sequence:
#
# PCOD9328968 Si02
#       7
#    16  16  16  16   8  16   8
#     4  12  20  40  72 102 130 177 233 299 345 416
#     4  12  25  41  67 107 145 178 237 300 364 419
#     4  12  24  45  71 101 145 184 237 289 360 430
#     4  11  23  45  74 100 138 191 245 289 356 435
#     4  12  27  40  66 103 144 188 226 296 360 431
#     4  12  25  45  71 105 137 185 244 296 346 435
#     4  12  23  42  72 102 135 176 240 292 359 418
#
# _framework density 20.184401999999999
#
# number of rings (size 3 to 8) (size 9 to 14) (size 15 to 20)
#    0.000    0.167    9.167    1.500    0.000    1.000 
#    3.000    1.667    0.000    0.000    0.000    0.000 
#    0.000    0.000    0.000    0.000    0.000    0.000 
#
# Total GULP energy -133829.035841 kJ/mol
# GULP energy per Si atom -5576.209827 kJ/mol
# Density = 2.013846 g / cm^3
# Si number density = 20.184402 Si / 1000 Ang^3
#
#
#
# Elastic Constant Matrix: (Units=GPa)
#
#
# Indices 1 2 3 4 5 6 
#
# 1 36.8271 8.0087 2.9700 0.0000 0.0000 0.0000
# 2 8.0087 124.4876 22.1546 0.0000 0.0000 0.0000
# 3 2.9700 22.1546 112.1443 0.0000 0.0000 0.0000
# 4 0.0000 0.0000 0.0000 42.6135 0.0000 0.0000
# 5 0.0000 0.0000 0.0000 0.0000 24.2650 0.0000
# 6 0.0000 0.0000 0.0000 0.0000 0.0000 22.1816
#
#
#
# Elastic Compliance Matrix: (Units=1/GPa)
#
#
# Indices 1 2 3 4 5 6 
#
# 1 0.027556 -0.001703 -0.000393 0.000000 0.000000 0.000000
# 2 -0.001703 0.008431 -0.001620 0.000000 0.000000 0.000000
# 3 -0.000393 -0.001620 0.009248 0.000000 0.000000 0.000000
# 4 0.000000 0.000000 0.000000 0.023467 0.000000 0.000000
# 5 0.000000 0.000000 0.000000 0.000000 0.041212 0.000000
# 6 0.000000 0.000000 0.000000 0.000000 0.000000 0.045082
#
#
# Mechanical properties :
#
#
# Convention : Reuss Voigt Hill
#
# Bulk Modulus (GPa) = 26.45416 37.74727 32.10072
# Shear Modulus (GPa) = 28.56671 33.83372 31.20021
#
# Velocity S-wave (km/s) = 3.76611 4.09862 3.93588
# Velocity P-wave (km/s) = 5.66093 6.41405 6.04922
#
# Compressibility (1/GPa) = 0.03780124
#
# Stress axis : x y z
#
# Youngs Moduli (GPa) = 36.28981 118.61186 108.13583
#
# Poissons Ratio (x) = 0.20197 0.04254
# Poissons Ratio (y) = 0.06179 0.17523
# Poissons Ratio (z) = 0.01428 0.19221
#
# Static dielectric constant tensor:
#      x y z
#    x 1.690040 0.000000 0.000000 
#    y 0.000000 1.750440 0.000000 
#    z 0.000000 0.000000 1.701170 
# 
# From -- ./inp_files/42793.got.cif
#   From: 2010.05.17/outbox.cif.g08.bks.cpg/sg22_22_cif.got.tgz:42793.got - 2010.06.03 23:40:54.
