data_PCOD9328807
_publ_section_title
;
Structure prediction by ZEFSAII (Michael W. Deem and Ramdas Pophale) SiO2 
 PCOD9328807
Probable space group: F 2 2 2
;
_chemical_formula_sum "Si O2"
_cell_formula_units_Z 68
_cell_length_a 6.218898
_cell_length_b 23.210566
_cell_length_c 20.536921
_cell_angle_alpha 90.000000
_cell_angle_beta 90.000000
_cell_angle_gamma 90.000000
_cell_volume 2964.384251
_symmetry_space_group_name_H-M "F 2 2 2"
_symmetry_group_IT_number 22
_symmetry_cell_setting 'orthorhombic'
loop_
_space_group_symop_operation_xyz
x,y,z
-x,-y,z
x,-y,-z
-x,y,-z
x,1/2+y,1/2+z
-x,1/2-y,1/2+z
x,1/2-y,1/2-z
-x,1/2+y,1/2-z
1/2+x,y,1/2+z
1/2-x,-y,1/2+z
1/2+x,-y,1/2-z
1/2-x,y,1/2-z
1/2+x,1/2+y,z
1/2-x,1/2-y,z
1/2+x,1/2-y,-z
1/2-x,1/2+y,-z
loop_
_atom_site_type_symbol
_atom_site_label
_atom_site_fract_x
_atom_site_fract_y
_atom_site_fract_z
Si Si1 0.250000 0.750000 0.250000
Si Si2 0.842464 0.345294 0.345272
Si Si3 0.347110 0.551543 0.820117
Si Si4 0.986592 0.408521 0.926050
Si Si5 0.343847 0.809312 0.552704
O O1 0.304955 0.698433 0.303251
O O2 0.704596 0.387020 0.392013
O O3 0.007918 0.390434 0.311322
O O4 0.006064 0.303892 0.384544
O O5 0.500000 0.500000 0.841525
O O6 0.250000 0.537297 0.750000
O O7 0.159771 0.557626 0.873964
O O8 0.852946 0.349952 0.934429
O O9 0.000000 0.432640 0.000000
O O10 0.500000 0.837088 0.500000
O O11 0.250000 0.750000 0.527288
#
# Coordination Sequence:
#
# PCOD9328807 Si02
#       5
#     4  16  16  16  16
#     4  12  24  40  70 104 148 186 246 298 362 436
#     4  11  25  45  68 107 146 196 240 313 376 446
#     4  11  28  48  78 106 144 199 258 308 387 468
#     4  11  23  46  75 105 149 192 251 318 384 453
#     4  11  22  36  64 102 143 194 244 289 370 449
#
# _framework density 22.938995999999999
#
# number of rings (size 3 to 8) (size 9 to 14) (size 15 to 20)
#    0.000    0.941    2.353    3.529    6.588    1.882 
#    0.000    8.235    0.000    0.000    0.000    0.000 
#    0.000    0.000    0.000    0.000    0.000    0.000 
#
# Total GULP energy -94691.921535 kJ/mol
# GULP energy per Si atom -5570.113031 kJ/mol
# Density = 2.288679 g / cm^3
# Si number density = 22.938996 Si / 1000 Ang^3
#
#
#
# Elastic Constant Matrix: (Units=GPa)
#
#
# Indices 1 2 3 4 5 6 
#
# 1 82.0946 19.1419 23.9302 0.0000 0.0000 0.0000
# 2 19.1419 67.1101 30.8287 0.0000 0.0000 0.0000
# 3 23.9302 30.8287 100.0380 0.0000 0.0000 0.0000
# 4 0.0000 0.0000 0.0000 2033.6172 0.0000 0.0000
# 5 0.0000 0.0000 0.0000 0.0000 28.5934 0.0000
# 6 0.0000 0.0000 0.0000 0.0000 0.0000 31.0326
#
#
#
# Elastic Compliance Matrix: (Units=1/GPa)
#
#
# Indices 1 2 3 4 5 6 
#
# 1 0.013520 -0.002762 -0.002383 0.000000 0.000000 0.000000
# 2 -0.002762 0.017922 -0.004863 0.000000 0.000000 0.000000
# 3 -0.002383 -0.004863 0.012065 0.000000 0.000000 0.000000
# 4 0.000000 0.000000 0.000000 0.000492 0.000000 0.000000
# 5 0.000000 0.000000 0.000000 0.000000 0.034973 0.000000
# 6 0.000000 0.000000 0.000000 0.000000 0.000000 0.032224
#
#
# Mechanical properties :
#
#
# Convention : Reuss Voigt Hill
#
# Bulk Modulus (GPa) = 42.56680 44.11606 43.34143
# Shear Modulus (GPa) = 35.96071 430.33810 233.14940
#
# Velocity S-wave (km/s) = 3.96367 13.71161 10.09255
# Velocity P-wave (km/s) = 6.28843 16.43020 12.43977
#
# Compressibility (1/GPa) = 0.02349249
#
# Stress axis : x y z
#
# Youngs Moduli (GPa) = 73.96666 55.79649 82.88622
#
# Poissons Ratio (x) = 0.15408 0.19752
# Poissons Ratio (y) = 0.20426 0.40304
# Poissons Ratio (z) = 0.17626 0.27131
#
# Static dielectric constant tensor:
#      x y z
#    x -0.456790 0.000000 0.000000 
#    y 0.000000 1.843650 0.000000 
#    z 0.000000 0.000000 1.907470 
# 
# From -- ./inp_files/3758.got.cif
#   From: 2010.05.17/outbox.cif.g08.bks.cpg/sg22_2_cif.got.tgz:3758.got - 2010.06.03 23:40:54.
