data_PCOD9328503
_publ_section_title
;
Structure prediction by ZEFSAII (Michael W. Deem and Ramdas Pophale) SiO2 
 PCOD9328503
Probable space group: F 2 2 2
;
_chemical_formula_sum "Si O2"
_cell_formula_units_Z 88
_cell_length_a 5.250247
_cell_length_b 34.278686
_cell_length_c 22.292571
_cell_angle_alpha 90.000000
_cell_angle_beta 90.000000
_cell_angle_gamma 90.000000
_cell_volume 4012.028965
_symmetry_space_group_name_H-M "F 2 2 2"
_symmetry_group_IT_number 22
_symmetry_cell_setting 'orthorhombic'
loop_
_space_group_symop_operation_xyz
x,y,z
-x,-y,z
x,-y,-z
-x,y,-z
x,1/2+y,1/2+z
-x,1/2-y,1/2+z
x,1/2-y,1/2-z
-x,1/2+y,1/2-z
1/2+x,y,1/2+z
1/2-x,-y,1/2+z
1/2+x,-y,1/2-z
1/2-x,y,1/2-z
1/2+x,1/2+y,z
1/2-x,1/2-y,z
1/2+x,1/2-y,-z
1/2-x,1/2+y,-z
loop_
_atom_site_type_symbol
_atom_site_label
_atom_site_fract_x
_atom_site_fract_y
_atom_site_fract_z
Si Si1 0.250000 0.750000 0.162769
Si Si2 0.952841 0.420059 0.135847
Si Si3 0.750000 0.750000 0.406360
Si Si4 0.250000 0.818198 0.250000
Si Si5 0.500000 0.895157 0.000000
Si Si6 0.826433 0.826128 0.048205
Si Si7 0.000000 0.500000 0.207736
Si Si8 0.045217 0.371714 0.335271
O O1 0.500336 0.736343 0.128645
O O2 0.346423 0.787505 0.200532
O O3 0.681424 0.402877 0.156151
O O4 0.988986 0.462156 0.165154
O O5 0.180901 0.392765 0.161584
O O6 0.963020 0.418355 0.062563
O O7 0.643894 0.709449 0.434501
O O8 0.034282 0.845547 0.221307
O O9 0.279075 0.864095 0.985751
O O10 0.956045 0.844211 0.106465
O O11 0.000000 0.804917 0.000000
O O12 0.250000 0.498689 0.250000
#
# Coordination Sequence:
#
# PCOD9328503 Si02
#       8
#     8  16   8   8   8  16   8  16
#     4  11  28  47  61  96 137 193 240 303 344 420
#     4  11  26  47  74 109 141 183 230 281 357 419
#     4  12  28  42  65  94 139 186 238 294 372 404
#     4  11  26  46  70  92 144 186 248 294 352 410
#     4  10  24  45  74 100 142 180 244 290 336 427
#     4  11  24  44  66 101 142 182 241 298 357 414
#     4  12  28  51  74 113 154 178 218 286 348 434
#     4  11  25  44  73 103 136 186 239 289 347 419
#
# _framework density 21.934038999999999
#
# number of rings (size 3 to 8) (size 9 to 14) (size 15 to 20)
#    0.000    0.909    3.636    1.091   12.727    3.273 
#    0.000    0.000    0.000    3.273    0.000    0.000 
#    0.000    0.000    0.000    0.000    0.000    0.000 
#
# Total GULP energy -122770.397118 kJ/mol
# GULP energy per Si atom -5580.472596 kJ/mol
# Density = 2.188412 g / cm^3
# Si number density = 21.934039 Si / 1000 Ang^3
#
#
#
# Elastic Constant Matrix: (Units=GPa)
#
#
# Indices 1 2 3 4 5 6 
#
# 1 88.3220 13.2894 42.7115 0.0000 0.0000 0.0000
# 2 13.2894 140.6663 82.5051 0.0000 0.0000 0.0000
# 3 42.7115 82.5051 119.0350 0.0000 0.0000 0.0000
# 4 0.0000 0.0000 0.0000 61.4284 0.0000 0.0000
# 5 0.0000 0.0000 0.0000 0.0000 36.2567 0.0000
# 6 0.0000 0.0000 0.0000 0.0000 0.0000 25.4311
#
#
#
# Elastic Compliance Matrix: (Units=1/GPa)
#
#
# Indices 1 2 3 4 5 6 
#
# 1 0.014325 0.002800 -0.007080 0.000000 0.000000 0.000000
# 2 0.002800 0.012526 -0.009686 0.000000 0.000000 0.000000
# 3 -0.007080 -0.009686 0.017655 0.000000 0.000000 0.000000
# 4 0.000000 0.000000 0.000000 0.016279 0.000000 0.000000
# 5 0.000000 0.000000 0.000000 0.000000 0.027581 0.000000
# 6 0.000000 0.000000 0.000000 0.000000 0.000000 0.039322
#
#
# Mechanical properties :
#
#
# Convention : Reuss Voigt Hill
#
# Bulk Modulus (GPa) = 60.34443 69.44837 64.89640
# Shear Modulus (GPa) = 31.02764 38.59108 34.80936
#
# Velocity S-wave (km/s) = 3.76518 4.19909 3.98804
# Velocity P-wave (km/s) = 6.81716 7.43242 7.13143
#
# Compressibility (1/GPa) = 0.01657154
#
# Stress axis : x y z
#
# Youngs Moduli (GPa) = 69.80820 79.83450 56.64040
#
# Poissons Ratio (x) = -0.22350 0.40104
# Poissons Ratio (y) = -0.19543 0.54864
# Poissons Ratio (z) = 0.49427 0.77331
#
# Static dielectric constant tensor:
#      x y z
#    x 1.749390 0.000000 0.000000 
#    y 0.000000 1.772770 0.000000 
#    z 0.000000 0.000000 1.904810 
# 
# From -- ./inp_files/46731.got.cif
#   From: 2010.05.17/outbox.cif.g08.bks.cpg/sg22_24_cif.got.tgz:46731.got - 2010.06.03 23:40:54.
