data_PCOD9328792
_publ_section_title
;
Structure prediction by ZEFSAII (Michael W. Deem and Ramdas Pophale) SiO2 
 PCOD9328792
Probable space group: F 2 2 2
;
_chemical_formula_sum "Si O2"
_cell_formula_units_Z 92
_cell_length_a 15.002656
_cell_length_b 11.623798
_cell_length_c 21.893943
_cell_angle_alpha 90.000000
_cell_angle_beta 90.000000
_cell_angle_gamma 90.000000
_cell_volume 3818.037490
_symmetry_space_group_name_H-M "F 2 2 2"
_symmetry_group_IT_number 22
_symmetry_cell_setting 'orthorhombic'
loop_
_space_group_symop_operation_xyz
x,y,z
-x,-y,z
x,-y,-z
-x,y,-z
x,1/2+y,1/2+z
-x,1/2-y,1/2+z
x,1/2-y,1/2-z
-x,1/2+y,1/2-z
1/2+x,y,1/2+z
1/2-x,-y,1/2+z
1/2+x,-y,1/2-z
1/2-x,y,1/2-z
1/2+x,1/2+y,z
1/2-x,1/2-y,z
1/2+x,1/2-y,-z
1/2-x,1/2+y,-z
loop_
_atom_site_type_symbol
_atom_site_label
_atom_site_fract_x
_atom_site_fract_y
_atom_site_fract_z
Si Si1 0.500000 0.000000 0.720593
Si Si2 0.859330 0.765316 0.555313
Si Si3 0.592263 0.836582 0.201579
Si Si4 0.856669 0.227987 0.921342
Si Si5 0.828425 0.073380 0.343543
Si Si6 0.632334 0.025137 0.389751
Si Si7 0.250000 0.750000 0.250000
O O1 0.506845 0.114164 0.762119
O O2 0.417626 0.008230 0.674360
O O3 0.750000 0.750000 0.556931
O O4 0.881388 0.787521 0.484968
O O5 0.883929 0.866154 0.602341
O O6 0.897343 0.642957 0.578076
O O7 0.637028 0.750000 0.250000
O O8 0.589738 0.772743 0.137230
O O9 0.638624 0.957447 0.187229
O O10 0.750000 0.250000 0.910138
O O11 0.875063 0.092062 0.927634
O O12 0.735503 0.039295 0.374520
O O13 0.807742 0.170011 0.293840
#
# Coordination Sequence:
#
# PCOD9328792 Si02
#       7
#     8  16  16  16  16  16   4
#     4  12  28  42  65  89 144 180 226 282 352 414
#     4   9  21  41  69 107 136 175 225 283 350 413
#     4  12  27  45  68 103 134 181 235 291 354 411
#     4  11  22  41  75 104 137 171 229 294 345 414
#     4  11  23  41  70 103 139 175 232 289 348 411
#     4  11  21  45  65 102 135 184 224 288 345 419
#     4  12  20  36  58 108 140 176 214 264 356 408
#
# _framework density 24.096149
#
# number of rings (size 3 to 8) (size 9 to 14) (size 15 to 20)
#    0.000    1.043    6.087    1.565    0.000    3.826 
#    1.565    1.739    0.000    1.043    0.000    0.000 
#    0.000    0.000    0.000    0.000    0.000    0.000 
#
# Total GULP energy -128692.470405 kJ/mol
# GULP energy per Si atom -5595.324800 kJ/mol
# Density = 2.404131 g / cm^3
# Si number density = 24.096149 Si / 1000 Ang^3
#
#
#
# Elastic Constant Matrix: (Units=GPa)
#
#
# Indices 1 2 3 4 5 6 
#
# 1 40.7057 19.6548 13.4515 0.0000 0.0000 0.0000
# 2 19.6548 164.5256 81.3214 0.0000 0.0000 0.0000
# 3 13.4515 81.3214 187.0022 0.0000 0.0000 0.0000
# 4 0.0000 0.0000 0.0000 33.1593 0.0000 0.0000
# 5 0.0000 0.0000 0.0000 0.0000 10.1339 0.0000
# 6 0.0000 0.0000 0.0000 0.0000 0.0000 27.8733
#
#
#
# Elastic Compliance Matrix: (Units=1/GPa)
#
#
# Indices 1 2 3 4 5 6 
#
# 1 0.026135 -0.002793 -0.000665 0.000000 0.000000 0.000000
# 2 -0.002793 0.008041 -0.003296 0.000000 0.000000 0.000000
# 3 -0.000665 -0.003296 0.006829 0.000000 0.000000 0.000000
# 4 0.000000 0.000000 0.000000 0.030157 0.000000 0.000000
# 5 0.000000 0.000000 0.000000 0.000000 0.098679 0.000000
# 6 0.000000 0.000000 0.000000 0.000000 0.000000 0.035877
#
#
# Mechanical properties :
#
#
# Convention : Reuss Voigt Hill
#
# Bulk Modulus (GPa) = 36.36911 69.00988 52.68949
# Shear Modulus (GPa) = 21.89225 32.75370 27.32297
#
# Velocity S-wave (km/s) = 3.01747 3.69086 3.37102
# Velocity P-wave (km/s) = 5.22171 6.84579 6.08814
#
# Compressibility (1/GPa) = 0.02749586
#
# Stress axis : x y z
#
# Youngs Moduli (GPa) = 38.26260 124.36556 146.44289
#
# Poissons Ratio (x) = 0.34740 0.09741
# Poissons Ratio (y) = 0.10688 0.48264
# Poissons Ratio (z) = 0.02545 0.40988
#
# Static dielectric constant tensor:
#      x y z
#    x 1.987030 0.000000 0.000000 
#    y 0.000000 1.916750 0.000000 
#    z 0.000000 0.000000 1.904910 
# 
# From -- ./inp_files/42673.got.cif
#   From: 2010.05.17/outbox.cif.g08.bks.cpg/sg22_22_cif.got.tgz:42673.got - 2010.06.03 23:40:54.
