data_PCOD9328550
_publ_section_title
;
Structure prediction by ZEFSAII (Michael W. Deem and Ramdas Pophale) SiO2 
 PCOD9328550
Probable space group: F 2 2 2
;
_chemical_formula_sum "Si O2"
_cell_formula_units_Z 44
_cell_length_a 12.541360
_cell_length_b 5.402296
_cell_length_c 27.660826
_cell_angle_alpha 90.000000
_cell_angle_beta 90.000000
_cell_angle_gamma 90.000000
_cell_volume 1874.080127
_symmetry_space_group_name_H-M "F 2 2 2"
_symmetry_group_IT_number 22
_symmetry_cell_setting 'orthorhombic'
loop_
_space_group_symop_operation_xyz
x,y,z
-x,-y,z
x,-y,-z
-x,y,-z
x,1/2+y,1/2+z
-x,1/2-y,1/2+z
x,1/2-y,1/2-z
-x,1/2+y,1/2-z
1/2+x,y,1/2+z
1/2-x,-y,1/2+z
1/2+x,-y,1/2-z
1/2-x,y,1/2-z
1/2+x,1/2+y,z
1/2-x,1/2-y,z
1/2+x,1/2-y,-z
1/2-x,1/2+y,-z
loop_
_atom_site_type_symbol
_atom_site_label
_atom_site_fract_x
_atom_site_fract_y
_atom_site_fract_z
Si Si1 0.250000 0.750000 0.750000
Si Si2 0.680678 0.503155 0.054131
Si Si3 0.634564 0.147848 0.196036
Si Si4 0.500000 0.000000 0.367245
O O1 0.332045 0.627299 0.711469
O O2 0.750000 0.250000 0.060088
O O3 0.597620 0.543784 0.096769
O O4 0.750000 0.750000 0.054558
O O5 0.631613 0.500000 0.000000
O O6 0.615909 0.250000 0.250000
O O7 0.750000 0.250000 0.178287
O O8 0.541597 0.264620 0.163902
#
# Coordination Sequence:
#
# PCOD9328550 Si02
#       4
#     4  16  16   8
#     4   8  18  48  76  86 156 220 244 316 394 424
#     4  10  24  50  77 111 158 195 242 319 394 465
#     4   9  21  47  65  99 148 200 246 312 368 445
#     4  12  23  46  76 116 142 196 269 304 380 456
#
# _framework density 23.478183999999999
#
# number of rings (size 3 to 8) (size 9 to 14) (size 15 to 20)
#    0.000    2.545    0.000    1.636    0.000    1.455 
#   55.636    9.091    0.000    0.000    0.000    0.000 
#    0.000    0.000    0.000    0.000    0.000    0.000 
#
# Total GULP energy -61261.014249 kJ/mol
# GULP energy per Si atom -5569.183114 kJ/mol
# Density = 2.342475 g / cm^3
# Si number density = 23.478184 Si / 1000 Ang^3
#
#
#
# Elastic Constant Matrix: (Units=GPa)
#
#
# Indices 1 2 3 4 5 6 
#
# 1 150.0409 76.0073 101.0890 0.0000 0.0000 0.0000
# 2 76.0073 133.6673 52.4481 0.0000 0.0000 0.0000
# 3 101.0890 52.4481 170.0793 0.0000 0.0000 0.0000
# 4 0.0000 0.0000 0.0000 27.4464 0.0000 0.0000
# 5 0.0000 0.0000 0.0000 0.0000 144.7506 0.0000
# 6 0.0000 0.0000 0.0000 0.0000 0.0000 -29.1101
#
#
#
# Elastic Compliance Matrix: (Units=1/GPa)
#
#
# Indices 1 2 3 4 5 6 
#
# 1 0.013727 -0.005238 -0.006544 0.000000 0.000000 0.000000
# 2 -0.005238 0.010510 -0.000128 0.000000 0.000000 0.000000
# 3 -0.006544 -0.000128 0.009808 0.000000 0.000000 0.000000
# 4 0.000000 0.000000 0.000000 0.036435 0.000000 0.000000
# 5 0.000000 0.000000 0.000000 0.000000 0.006908 0.000000
# 6 0.000000 0.000000 0.000000 0.000000 0.000000 -0.034352
#
#
# Mechanical properties :
#
#
# Convention : Reuss Voigt Hill
#
# Bulk Modulus (GPa) = 97.78455 101.43068 99.60762
# Shear Modulus (GPa) = 71.16098 43.56692 57.36395
#
# Velocity S-wave (km/s) = 5.51137 4.31238 4.94832
# Velocity P-wave (km/s) = 9.06862 8.25175 8.66981
#
# Compressibility (1/GPa) = 0.01022656
#
# Stress axis : x y z
#
# Youngs Moduli (GPa) = 72.84922 95.14874 101.95522
#
# Poissons Ratio (x) = 0.49839 0.66715
# Poissons Ratio (y) = 0.38159 0.01302
# Poissons Ratio (z) = 0.47669 0.01215
#
# Static dielectric constant tensor:
#      x y z
#    x 1.929710 0.000000 0.000000 
#    y 0.000000 1.958040 0.000000 
#    z 0.000000 0.000000 1.881440 
# 
# From -- ./inp_files/5068.got.cif
#   From: 2010.05.17/outbox.cif.g08.bks.cpg/sg22_3_cif.got.tgz:5068.got - 2010.06.03 23:40:54.
