data_PCOD9328391
_publ_section_title
;
Structure prediction by ZEFSAII (Michael W. Deem and Ramdas Pophale) SiO2 
 PCOD9328391
Probable space group: F 2 2 2
;
_chemical_formula_sum "Si O2"
_cell_formula_units_Z 60
_cell_length_a 17.017293
_cell_length_b 7.139624
_cell_length_c 19.840309
_cell_angle_alpha 90.000000
_cell_angle_beta 90.000000
_cell_angle_gamma 90.000000
_cell_volume 2410.539481
_symmetry_space_group_name_H-M "F 2 2 2"
_symmetry_group_IT_number 22
_symmetry_cell_setting 'orthorhombic'
loop_
_space_group_symop_operation_xyz
x,y,z
-x,-y,z
x,-y,-z
-x,y,-z
x,1/2+y,1/2+z
-x,1/2-y,1/2+z
x,1/2-y,1/2-z
-x,1/2+y,1/2-z
1/2+x,y,1/2+z
1/2-x,-y,1/2+z
1/2+x,-y,1/2-z
1/2-x,y,1/2-z
1/2+x,1/2+y,z
1/2-x,1/2-y,z
1/2+x,1/2-y,-z
1/2-x,1/2+y,-z
loop_
_atom_site_type_symbol
_atom_site_label
_atom_site_fract_x
_atom_site_fract_y
_atom_site_fract_z
Si Si1 0.195266 0.000000 0.500000
Si Si2 0.750000 0.750000 0.750000
Si Si3 0.922952 0.100078 0.804021
Si Si4 0.452501 0.195257 0.058416
Si Si5 0.738477 0.023918 0.643834
O O1 0.134139 0.155309 0.471440
O O2 0.245584 0.964098 0.432978
O O3 0.788703 0.601214 0.803652
O O4 0.894193 0.250000 0.750000
O O5 0.950235 0.204234 0.871431
O O6 0.849686 0.981054 0.830811
O O7 0.000000 0.000000 0.775412
O O8 0.500000 0.000000 0.068478
O O9 0.500000 0.296604 0.000000
O O10 0.750000 0.250000 0.649424
#
# Coordination Sequence:
#
# PCOD9328391 Si02
#       5
#     8   4  16  16  16
#     4  10  23  46  79 106 150 204 258 330 401 460
#     4  12  30  44  76 110 152 198 260 316 408 462
#     4  12  27  46  72 106 154 201 258 324 394 477
#     4   9  21  44  75 104 145 191 247 315 390 468
#     4  12  27  50  77 113 156 205 264 333 396 483
#
# _framework density 24.890694
#
# number of rings (size 3 to 8) (size 9 to 14) (size 15 to 20)
#    0.000    1.333    2.667    2.800    3.733    6.933 
#    0.000    0.000    0.000    0.000    0.000    0.000 
#    0.000    0.000    0.000    0.000    0.000    0.000 
#
# Total GULP energy -83783.990443 kJ/mol
# GULP energy per Si atom -5585.599363 kJ/mol
# Density = 2.483404 g / cm^3
# Si number density = 24.890694 Si / 1000 Ang^3
#
#
#
# Elastic Constant Matrix: (Units=GPa)
#
#
# Indices 1 2 3 4 5 6 
#
# 1 122.5425 15.1430 27.4469 0.0000 0.0000 0.0000
# 2 15.1430 135.9061 37.2064 0.0000 0.0000 0.0000
# 3 27.4469 37.2064 197.7280 0.0000 0.0000 0.0000
# 4 0.0000 0.0000 0.0000 25.3256 0.0000 0.0000
# 5 0.0000 0.0000 0.0000 0.0000 36.2922 0.0000
# 6 0.0000 0.0000 0.0000 0.0000 0.0000 20.9775
#
#
#
# Elastic Compliance Matrix: (Units=1/GPa)
#
#
# Indices 1 2 3 4 5 6 
#
# 1 0.008477 -0.000656 -0.001053 0.000000 0.000000 0.000000
# 2 -0.000656 0.007808 -0.001378 0.000000 0.000000 0.000000
# 3 -0.001053 -0.001378 0.005463 0.000000 0.000000 0.000000
# 4 0.000000 0.000000 0.000000 0.039486 0.000000 0.000000
# 5 0.000000 0.000000 0.000000 0.000000 0.027554 0.000000
# 6 0.000000 0.000000 0.000000 0.000000 0.000000 0.047670
#
#
# Mechanical properties :
#
#
# Convention : Reuss Voigt Hill
#
# Bulk Modulus (GPa) = 64.21194 68.41880 66.31537
# Shear Modulus (GPa) = 33.82366 41.61108 37.71737
#
# Velocity S-wave (km/s) = 3.69031 4.09314 3.89693
# Velocity P-wave (km/s) = 6.63411 7.06299 6.85191
#
# Compressibility (1/GPa) = 0.01557343
#
# Stress axis : x y z
#
# Youngs Moduli (GPa) = 117.96020 128.06642 183.04963
#
# Poissons Ratio (x) = 0.08404 0.19280
# Poissons Ratio (y) = 0.07741 0.25228
# Poissons Ratio (z) = 0.12425 0.17650
#
# Static dielectric constant tensor:
#      x y z
#    x 2.069750 0.000000 0.000000 
#    y 0.000000 2.065540 0.000000 
#    z 0.000000 0.000000 1.933930 
# 
# From -- ./inp_files/43950.got.cif
#   From: 2010.05.17/outbox.cif.g08.bks.cpg/sg22_22_cif.got.tgz:43950.got - 2010.06.03 23:40:54.
