data_PCOD9328852
_publ_section_title
;
Structure prediction by ZEFSAII (Michael W. Deem and Ramdas Pophale) SiO2 
 PCOD9328852
Probable space group: F 2 2 2
;
_chemical_formula_sum "Si O2"
_cell_formula_units_Z 64
_cell_length_a 13.195055
_cell_length_b 13.658096
_cell_length_c 15.273540
_cell_angle_alpha 90.000000
_cell_angle_beta 90.000000
_cell_angle_gamma 90.000000
_cell_volume 2752.587114
_symmetry_space_group_name_H-M "F 2 2 2"
_symmetry_group_IT_number 22
_symmetry_cell_setting 'orthorhombic'
loop_
_space_group_symop_operation_xyz
x,y,z
-x,-y,z
x,-y,-z
-x,y,-z
x,1/2+y,1/2+z
-x,1/2-y,1/2+z
x,1/2-y,1/2-z
-x,1/2+y,1/2-z
1/2+x,y,1/2+z
1/2-x,-y,1/2+z
1/2+x,-y,1/2-z
1/2-x,y,1/2-z
1/2+x,1/2+y,z
1/2-x,1/2-y,z
1/2+x,1/2-y,-z
1/2-x,1/2+y,-z
loop_
_atom_site_type_symbol
_atom_site_label
_atom_site_fract_x
_atom_site_fract_y
_atom_site_fract_z
Si Si1 0.750000 0.250000 0.488122
Si Si2 0.936763 0.366383 0.751086
Si Si3 0.250000 0.500489 0.750000
Si Si4 0.594286 0.896440 0.049353
Si Si5 0.852093 0.165531 0.173370
O O1 0.696274 0.333440 0.544648
O O2 0.836554 0.287112 0.420707
O O3 0.917384 0.250000 0.750000
O O4 0.840155 0.428199 0.723533
O O5 0.944386 0.401868 0.851429
O O6 0.039498 0.382079 0.696106
O O7 0.237823 0.416496 0.675220
O O8 0.500000 0.847403 0.000000
O O9 0.609769 0.000000 0.000000
O O10 0.847878 0.250000 0.250000
#
# Coordination Sequence:
#
# PCOD9328852 Si02
#       5
#     8  16   8  16  16
#     4  12  23  46  71 100 138 184 228 294 351 414
#     4  11  26  43  66 104 139 178 228 290 349 413
#     4  12  22  38  72  98 134 170 234 280 336 408
#     4  11  26  43  72  99 140 179 235 285 353 417
#     4  11  22  41  71  99 130 179 238 276 336 422
#
# _framework density 23.250854
#
# number of rings (size 3 to 8) (size 9 to 14) (size 15 to 20)
#    0.000    0.750    2.500    5.625   10.500    0.000 
#    0.000    0.000    0.000    0.000    0.000    0.000 
#    0.000    0.000    0.000    0.000    0.000    0.000 
#
# Total GULP energy -89145.583536 kJ/mol
# GULP energy per Si atom -5571.598971 kJ/mol
# Density = 2.319793 g / cm^3
# Si number density = 23.250854 Si / 1000 Ang^3
#
#
#
# Elastic Constant Matrix: (Units=GPa)
#
#
# Indices 1 2 3 4 5 6 
#
# 1 130.9554 63.2835 18.5110 0.0000 0.0000 0.0000
# 2 63.2835 134.4403 5.1355 0.0000 0.0000 0.0000
# 3 18.5110 5.1355 67.6581 0.0000 0.0000 0.0000
# 4 0.0000 0.0000 0.0000 13.3978 0.0000 0.0000
# 5 0.0000 0.0000 0.0000 0.0000 32.7546 0.0000
# 6 0.0000 0.0000 0.0000 0.0000 0.0000 68.9319
#
#
#
# Elastic Compliance Matrix: (Units=1/GPa)
#
#
# Indices 1 2 3 4 5 6 
#
# 1 0.010275 -0.004743 -0.002451 0.000000 0.000000 0.000000
# 2 -0.004743 0.009649 0.000565 0.000000 0.000000 0.000000
# 3 -0.002451 0.000565 0.015408 0.000000 0.000000 0.000000
# 4 0.000000 0.000000 0.000000 0.074639 0.000000 0.000000
# 5 0.000000 0.000000 0.000000 0.000000 0.030530 0.000000
# 6 0.000000 0.000000 0.000000 0.000000 0.000000 0.014507
#
#
# Mechanical properties :
#
#
# Convention : Reuss Voigt Hill
#
# Bulk Modulus (GPa) = 45.30159 56.32377 50.81268
# Shear Modulus (GPa) = 28.47001 39.42511 33.94756
#
# Velocity S-wave (km/s) = 3.50304 4.12228 3.82521
# Velocity P-wave (km/s) = 5.99065 6.85088 6.43516
#
# Compressibility (1/GPa) = 0.02207428
#
# Stress axis : x y z
#
# Youngs Moduli (GPa) = 97.32743 103.63572 64.90176
#
# Poissons Ratio (x) = 0.49152 0.15908
# Poissons Ratio (y) = 0.46161 -0.03668
# Poissons Ratio (z) = 0.23856 -0.05858
#
# Static dielectric constant tensor:
#      x y z
#    x 1.984160 0.000000 0.000000 
#    y 0.000000 1.930590 0.000000 
#    z 0.000000 0.000000 1.772870 
# 
# From -- ./inp_files/36853.got.cif
#   From: 2010.05.17/outbox.cif.g08.bks.cpg/sg22_19_cif.got.tgz:36853.got - 2010.06.03 23:40:54.
