data_PCOD9328116
_publ_section_title
;
Structure prediction by ZEFSAII (Michael W. Deem and Ramdas Pophale) SiO2 
 PCOD9328116
Probable space group: F 2 2 2
;
_chemical_formula_sum "Si O2"
_cell_formula_units_Z 64
_cell_length_a 33.253088
_cell_length_b 5.164231
_cell_length_c 17.170386
_cell_angle_alpha 90.000000
_cell_angle_beta 90.000000
_cell_angle_gamma 90.000000
_cell_volume 2948.612487
_symmetry_space_group_name_H-M "F 2 2 2"
_symmetry_group_IT_number 22
_symmetry_cell_setting 'orthorhombic'
loop_
_space_group_symop_operation_xyz
x,y,z
-x,-y,z
x,-y,-z
-x,y,-z
x,1/2+y,1/2+z
-x,1/2-y,1/2+z
x,1/2-y,1/2-z
-x,1/2+y,1/2-z
1/2+x,y,1/2+z
1/2-x,-y,1/2+z
1/2+x,-y,1/2-z
1/2-x,y,1/2-z
1/2+x,1/2+y,z
1/2-x,1/2-y,z
1/2+x,1/2-y,-z
1/2-x,1/2+y,-z
loop_
_atom_site_type_symbol
_atom_site_label
_atom_site_fract_x
_atom_site_fract_y
_atom_site_fract_z
Si Si1 0.653876 0.250000 0.250000
Si Si2 0.590038 0.080475 0.666079
Si Si3 0.822420 0.000000 0.500000
Si Si4 0.374360 0.000000 0.500000
Si Si5 0.222521 0.508330 0.842631
Si Si6 0.000000 0.500000 0.303432
O O1 0.623130 0.367352 0.188061
O O2 0.683991 0.457694 0.287864
O O3 0.590847 0.250000 0.750000
O O4 0.543212 0.008209 0.655694
O O5 0.602798 0.128216 0.575422
O O6 0.847429 0.253987 0.475883
O O7 0.795122 0.933631 0.426987
O O8 0.250000 0.250000 0.842078
O O9 0.250000 0.750000 0.824028
O O10 0.997948 0.250000 0.250000
#
# Coordination Sequence:
#
# PCOD9328116 Si02
#       6
#     8  16   8   8  16   8
#     4  12  25  46  72  98 146 190 242 300 377 440
#     4  11  25  46  77 110 150 199 247 307 379 452
#     4  12  24  49  70  99 141 190 247 305 382 441
#     4  12  26  44  76 110 143 192 253 306 366 464
#     4  12  27  45  69 100 138 188 247 308 371 446
#     4  10  22  43  74 111 150 194 242 298 371 449
#
# _framework density 21.705123
#
# number of rings (size 3 to 8) (size 9 to 14) (size 15 to 20)
#    0.000    0.500    3.750    4.125    3.500    1.500 
#    0.000    0.000    0.000    3.000    0.000    0.000 
#    0.000    0.000    0.000    0.000    0.000    0.000 
#
# Total GULP energy -89124.043692 kJ/mol
# GULP energy per Si atom -5570.252731 kJ/mol
# Density = 2.165572 g / cm^3
# Si number density = 21.705123 Si / 1000 Ang^3
#
#
#
# Elastic Constant Matrix: (Units=GPa)
#
#
# Indices 1 2 3 4 5 6 
#
# 1 157.4889 44.7063 59.0844 0.0002 0.0000 0.0004
# 2 44.7063 114.1837 18.7309 0.0002 -0.0026 0.0013
# 3 59.0844 18.7309 148.0421 -0.0002 -0.0004 0.0005
# 4 0.0002 0.0002 -0.0002 27.1389 -0.0010 0.0005
# 5 0.0000 -0.0026 -0.0004 -0.0010 -35.6766 0.0025
# 6 0.0004 0.0013 0.0005 0.0005 0.0025 22.9054
#
#
#
# Elastic Compliance Matrix: (Units=1/GPa)
#
#
# Indices 1 2 3 4 5 6 
#
# 1 0.008230 -0.002740 -0.002938 0.000000 0.000000 0.000000
# 2 -0.002740 0.009856 -0.000153 0.000000 -0.000001 -0.000001
# 3 -0.002938 -0.000153 0.007947 0.000000 0.000000 0.000000
# 4 0.000000 0.000000 0.000000 0.036848 -0.000001 -0.000001
# 5 0.000000 -0.000001 0.000000 -0.000001 -0.028030 0.000003
# 6 0.000000 -0.000001 0.000000 -0.000001 0.000003 0.043658
#
#
# Mechanical properties :
#
#
# Convention : Reuss Voigt Hill
#
# Bulk Modulus (GPa) = 69.59201 73.86199 71.72700
# Shear Modulus (GPa) = 52.65339 22.68642 37.66990
#
# Velocity S-wave (km/s) = 4.93064 3.23648 4.17049
# Velocity P-wave (km/s) = 8.03411 6.93325 7.50390
#
# Compressibility (1/GPa) = 0.01436947
#
# Stress axis : x y z
#
# Youngs Moduli (GPa) = 121.51134 101.46247 125.83790
#
# Poissons Ratio (x) = 0.27803 0.36969
# Poissons Ratio (y) = 0.33297 0.01930
# Poissons Ratio (z) = 0.35698 0.01556
#
# Static dielectric constant tensor:
#      x y z
#    x 1.780020 0.000000 0.000000 
#    y 0.000000 1.803180 0.000000 
#    z 0.000000 0.000000 1.843240 
# 
# From -- ./inp_files/2927.got.cif
#   From: 2010.05.17/outbox.cif.g08.bks.cpg/sg22_2_cif.got.tgz:2927.got - 2010.06.03 23:40:54.
