data_PCOD9328626
_publ_section_title
;
Structure prediction by ZEFSAII (Michael W. Deem and Ramdas Pophale) SiO2 
 PCOD9328626
Probable space group: F 2 2 2
;
_chemical_formula_sum "Si O2"
_cell_formula_units_Z 56
_cell_length_a 18.465910
_cell_length_b 24.036170
_cell_length_c 5.340621
_cell_angle_alpha 90.000000
_cell_angle_beta 90.000000
_cell_angle_gamma 90.000000
_cell_volume 2370.433306
_symmetry_space_group_name_H-M "F 2 2 2"
_symmetry_group_IT_number 22
_symmetry_cell_setting 'orthorhombic'
loop_
_space_group_symop_operation_xyz
x,y,z
-x,-y,z
x,-y,-z
-x,y,-z
x,1/2+y,1/2+z
-x,1/2-y,1/2+z
x,1/2-y,1/2-z
-x,1/2+y,1/2-z
1/2+x,y,1/2+z
1/2-x,-y,1/2+z
1/2+x,-y,1/2-z
1/2-x,y,1/2-z
1/2+x,1/2+y,z
1/2-x,1/2-y,z
1/2+x,1/2-y,-z
1/2-x,1/2+y,-z
loop_
_atom_site_type_symbol
_atom_site_label
_atom_site_fract_x
_atom_site_fract_y
_atom_site_fract_z
Si Si1 0.699343 0.500000 0.500000
Si Si2 0.578006 0.582943 0.367096
Si Si3 0.642527 0.694662 0.413016
Si Si4 0.750000 0.250000 0.250000
Si Si5 0.000000 0.000000 0.000000
Si Si6 0.459588 0.750000 0.250000
O O1 0.750000 0.504135 0.250000
O O2 0.642690 0.551988 0.518553
O O3 0.500000 0.594673 0.500000
O O4 0.616852 0.639484 0.277661
O O5 0.552225 0.539484 0.159422
O O6 0.631911 0.750000 0.250000
O O7 0.717490 0.705678 0.550024
O O8 0.589285 0.699997 0.652256
O O9 0.500000 0.767877 0.500000
#
# Coordination Sequence:
#
# PCOD9328626 Si02
#       6
#     8  16  16   4   4   8
#     4  12  28  52  81 121 158 216 282 338 422 494
#     4  12  27  51  82 117 165 218 280 358 417 503
#     4  11  26  47  77 116 161 218 269 340 424 504
#     4  10  26  48  72 118 176 212 278 334 440 514
#     4  12  24  52  84 120 168 214 290 360 422 494
#     4  11  22  43  68 111 156 195 268 322 401 486
#
# _framework density 23.624372999999999
#
# number of rings (size 3 to 8) (size 9 to 14) (size 15 to 20)
#    0.000    0.571    4.286    2.143    2.000    9.143 
#    0.000    0.000    0.000    0.000    0.000    0.000 
#    0.000    0.000    0.000    0.000    0.000    0.000 
#
# Total GULP energy -77958.102258 kJ/mol
# GULP energy per Si atom -5568.435876 kJ/mol
# Density = 2.357060 g / cm^3
# Si number density = 23.624373 Si / 1000 Ang^3
#
#
#
# Elastic Constant Matrix: (Units=GPa)
#
#
# Indices 1 2 3 4 5 6 
#
# 1 87.7390 38.2526 22.6883 -0.0059 0.0022 -0.0073
# 2 38.2526 165.0250 27.5893 -0.0135 0.0051 -0.0128
# 3 22.6883 27.5893 90.6614 -0.0178 0.0072 -0.0130
# 4 -0.0059 -0.0135 -0.0178 22.0655 0.0070 -0.0156
# 5 0.0022 0.0051 0.0072 0.0070 50.4573 0.0057
# 6 -0.0073 -0.0128 -0.0130 -0.0156 0.0057 36.2188
#
#
#
# Elastic Compliance Matrix: (Units=1/GPa)
#
#
# Indices 1 2 3 4 5 6 
#
# 1 0.013195 -0.002641 -0.002498 0.000000 0.000000 0.000001
# 2 -0.002641 0.006913 -0.001443 0.000002 0.000000 0.000001
# 3 -0.002498 -0.001443 0.012094 0.000008 -0.000001 0.000003
# 4 0.000000 0.000002 0.000008 0.045320 -0.000006 0.000020
# 5 0.000000 0.000000 -0.000001 -0.000006 0.019819 -0.000003
# 6 0.000001 0.000001 0.000003 0.000020 -0.000003 0.027610
#
#
# Mechanical properties :
#
#
# Convention : Reuss Voigt Hill
#
# Bulk Modulus (GPa) = 52.52636 57.83176 55.17906
# Shear Modulus (GPa) = 34.61145 38.74134 36.67640
#
# Velocity S-wave (km/s) = 3.83178 4.05395 3.94443
# Velocity P-wave (km/s) = 6.46985 6.81509 6.64471
#
# Compressibility (1/GPa) = 0.01903806
#
# Stress axis : x y z
#
# Youngs Moduli (GPa) = 75.78707 144.65388 82.68319
#
# Poissons Ratio (x) = 0.38201 0.20658
# Poissons Ratio (y) = 0.20014 0.11930
# Poissons Ratio (z) = 0.18935 0.20871
#
# Static dielectric constant tensor:
#      x y z
#    x 2.097100 0.000000 0.000010 
#    y 0.000000 1.951460 0.000010 
#    z 0.000010 0.000010 1.921780 
# 
# From -- ./inp_files/3488.got.cif
#   From: 2010.05.17/outbox.cif.g08.bks.cpg/sg22_2_cif.got.tgz:3488.got - 2010.06.03 23:40:54.
