data_PCOD9328737
_publ_section_title
;
Structure prediction by ZEFSAII (Michael W. Deem and Ramdas Pophale) SiO2 
 PCOD9328737
Probable space group: F 2 2 2
;
_chemical_formula_sum "Si O2"
_cell_formula_units_Z 80
_cell_length_a 4.777371
_cell_length_b 24.177502
_cell_length_c 31.543885
_cell_angle_alpha 90.000000
_cell_angle_beta 90.000000
_cell_angle_gamma 90.000000
_cell_volume 3643.473185
_symmetry_space_group_name_H-M "F 2 2 2"
_symmetry_group_IT_number 22
_symmetry_cell_setting 'orthorhombic'
loop_
_space_group_symop_operation_xyz
x,y,z
-x,-y,z
x,-y,-z
-x,y,-z
x,1/2+y,1/2+z
-x,1/2-y,1/2+z
x,1/2-y,1/2-z
-x,1/2+y,1/2-z
1/2+x,y,1/2+z
1/2-x,-y,1/2+z
1/2+x,-y,1/2-z
1/2-x,y,1/2-z
1/2+x,1/2+y,z
1/2-x,1/2-y,z
1/2+x,1/2-y,-z
1/2-x,1/2+y,-z
loop_
_atom_site_type_symbol
_atom_site_label
_atom_site_fract_x
_atom_site_fract_y
_atom_site_fract_z
Si Si1 0.379151 0.843588 0.455675
Si Si2 0.881996 0.940070 0.792354
Si Si3 0.122766 0.809741 0.600263
Si Si4 0.093187 0.088030 0.351272
Si Si5 0.277630 0.537422 0.433839
O O1 0.500000 0.821783 0.500000
O O2 0.622824 0.842914 0.420950
O O3 0.299263 0.907730 0.459528
O O4 0.121773 0.810168 0.435003
O O5 0.750000 0.911318 0.750000
O O6 0.606660 0.942926 0.819512
O O7 0.107628 0.916081 0.826893
O O8 0.000000 0.000000 0.779791
O O9 0.250000 0.750000 0.609928
O O10 0.033172 0.846932 0.640042
O O11 0.975185 0.060653 0.395054
O O12 0.500000 0.500000 0.457125
O O13 0.000000 0.500000 0.422957
#
# Coordination Sequence:
#
# PCOD9328737 Si02
#       5
#    16  16  16  16  16
#     4  11  24  41  61  92 127 160 208 265 319 379
#     4  12  23  37  60  93 130 165 199 244 308 374
#     4  11  24  43  67  91 119 163 216 269 322 368
#     4  11  22  38  61  87 122 162 208 259 301 367
#     4  11  21  37  61  90 126 171 214 253 308 381
#
# _framework density 21.957070000000002
#
# number of rings (size 3 to 8) (size 9 to 14) (size 15 to 20)
#    0.000    0.800    0.000   11.400    0.000    2.000 
#    0.000    3.000    0.000    3.600    0.000    0.000 
#    0.000    0.000    0.000    0.000    0.000    0.000 
#
# Total GULP energy -111376.524362 kJ/mol
# GULP energy per Si atom -5568.826218 kJ/mol
# Density = 2.190709 g / cm^3
# Si number density = 21.957070 Si / 1000 Ang^3
#
#
#
# Elastic Constant Matrix: (Units=GPa)
#
#
# Indices 1 2 3 4 5 6 
#
# 1 133.5300 46.2435 29.0627 0.0000 0.0000 0.0000
# 2 46.2435 122.7626 24.2305 0.0000 0.0000 0.0000
# 3 29.0627 24.2305 105.6382 0.0000 0.0000 0.0000
# 4 0.0000 0.0000 0.0000 4.4825 0.0000 0.0000
# 5 0.0000 0.0000 0.0000 0.0000 14.8520 0.0000
# 6 0.0000 0.0000 0.0000 0.0000 0.0000 29.8093
#
#
#
# Elastic Compliance Matrix: (Units=1/GPa)
#
#
# Indices 1 2 3 4 5 6 
#
# 1 0.008915 -0.003010 -0.001762 0.000000 0.000000 0.000000
# 2 -0.003010 0.009549 -0.001362 0.000000 0.000000 0.000000
# 3 -0.001762 -0.001362 0.010263 0.000000 0.000000 0.000000
# 4 0.000000 0.000000 0.000000 0.223088 0.000000 0.000000
# 5 0.000000 0.000000 0.000000 0.000000 0.067331 0.000000
# 6 0.000000 0.000000 0.000000 0.000000 0.000000 0.033547
#
#
# Mechanical properties :
#
#
# Convention : Reuss Voigt Hill
#
# Bulk Modulus (GPa) = 60.76059 62.33380 61.54719
# Shear Modulus (GPa) = 13.49719 27.32170 20.40945
#
# Velocity S-wave (km/s) = 2.48202 3.53132 3.05210
# Velocity P-wave (km/s) = 5.99553 6.71398 6.36490
#
# Compressibility (1/GPa) = 0.01645804
#
# Stress axis : x y z
#
# Youngs Moduli (GPa) = 112.17003 104.72718 97.43291
#
# Poissons Ratio (x) = 0.31527 0.17169
# Poissons Ratio (y) = 0.33768 0.13270
# Poissons Ratio (z) = 0.19766 0.14264
#
# Static dielectric constant tensor:
#      x y z
#    x 1.856520 0.000000 0.000000 
#    y 0.000000 1.883930 0.000000 
#    z 0.000000 0.000000 2.353320 
# 
# From -- ./inp_files/54949.got.cif
#   From: 2010.05.17/outbox.cif.g08.bks.cpg/sg22_28_cif.got.tgz:54949.got - 2010.06.03 23:40:54.
