data_PCOD9328857
_publ_section_title
;
Structure prediction by ZEFSAII (Michael W. Deem and Ramdas Pophale) SiO2 
 PCOD9328857
Probable space group: F 2 2 2
;
_chemical_formula_sum "Si O2"
_cell_formula_units_Z 72
_cell_length_a 18.318054
_cell_length_b 12.199192
_cell_length_c 15.601008
_cell_angle_alpha 90.000000
_cell_angle_beta 90.000000
_cell_angle_gamma 90.000000
_cell_volume 3486.286395
_symmetry_space_group_name_H-M "F 2 2 2"
_symmetry_group_IT_number 22
_symmetry_cell_setting 'orthorhombic'
loop_
_space_group_symop_operation_xyz
x,y,z
-x,-y,z
x,-y,-z
-x,y,-z
x,1/2+y,1/2+z
-x,1/2-y,1/2+z
x,1/2-y,1/2-z
-x,1/2+y,1/2-z
1/2+x,y,1/2+z
1/2-x,-y,1/2+z
1/2+x,-y,1/2-z
1/2-x,y,1/2-z
1/2+x,1/2+y,z
1/2-x,1/2-y,z
1/2+x,1/2-y,-z
1/2-x,1/2+y,-z
loop_
_atom_site_type_symbol
_atom_site_label
_atom_site_fract_x
_atom_site_fract_y
_atom_site_fract_z
Si Si1 0.253287 0.625987 0.875399
Si Si2 0.389046 0.507191 0.148406
Si Si3 0.117795 0.339164 0.492232
Si Si4 0.907604 0.098606 0.566084
Si Si5 0.000000 0.500000 0.203260
O O1 0.250000 0.750000 0.839757
O O2 0.308910 0.542515 0.829524
O O3 0.172164 0.585687 0.890821
O O4 0.297264 0.643072 0.965219
O O5 0.389191 0.610542 0.085498
O O6 0.434813 0.529188 0.232530
O O7 0.420197 0.411371 0.083849
O O8 0.094231 0.215026 0.481018
O O9 0.917832 0.000000 0.500000
O O10 0.968255 0.092361 0.640032
#
# Coordination Sequence:
#
# PCOD9328857 Si02
#       5
#    16  16  16  16   8
#     4   8  16  38  72  97 118 164 221 276 323 394
#     4   9  19  42  64  99 119 165 224 272 327 381
#     4   8  18  40  70  90 117 169 223 265 321 396
#     4  11  22  42  59  94 135 173 211 268 340 391
#     4  12  27  39  54  96 144 168 216 267 325 392
#
# _framework density 20.652346999999999
#
# number of rings (size 3 to 8) (size 9 to 14) (size 15 to 20)
#    1.333    1.333    0.000    1.667    0.000    3.556 
#   12.000    1.111    0.000    0.000    0.000    7.778 
#    0.000    0.000    0.000    0.000    0.000    0.000 
#
# Total GULP energy -100255.229440 kJ/mol
# GULP energy per Si atom -5569.734969 kJ/mol
# Density = 2.060534 g / cm^3
# Si number density = 20.652347 Si / 1000 Ang^3
#
#
#
# Elastic Constant Matrix: (Units=GPa)
#
#
# Indices 1 2 3 4 5 6 
#
# 1 125.5470 51.2931 58.0517 0.0000 0.0000 0.0000
# 2 51.2931 124.2495 63.7885 0.0000 0.0000 0.0000
# 3 58.0517 63.7885 111.4185 0.0000 0.0000 0.0000
# 4 0.0000 0.0000 0.0000 198.2137 0.0000 0.0000
# 5 0.0000 0.0000 0.0000 0.0000 -5.0529 0.0000
# 6 0.0000 0.0000 0.0000 0.0000 0.0000 16.7116
#
#
#
# Elastic Compliance Matrix: (Units=1/GPa)
#
#
# Indices 1 2 3 4 5 6 
#
# 1 0.010919 -0.002247 -0.004402 0.000000 0.000000 0.000000
# 2 -0.002247 0.011861 -0.005620 0.000000 0.000000 0.000000
# 3 -0.004402 -0.005620 0.014486 0.000000 0.000000 0.000000
# 4 0.000000 0.000000 0.000000 0.005045 0.000000 0.000000
# 5 0.000000 0.000000 0.000000 0.000000 -0.197907 0.000000
# 6 0.000000 0.000000 0.000000 0.000000 0.000000 0.059839
#
#
# Mechanical properties :
#
#
# Convention : Reuss Voigt Hill
#
# Bulk Modulus (GPa) = 78.57070 78.60907 78.58988
# Shear Modulus (GPa) = -74.65481 54.51326 -10.07078
#
# Velocity S-wave (km/s) = -6.01887 5.14325 -2.21064
# Velocity P-wave (km/s) = 3.18989 8.56833 5.62321
#
# Compressibility (1/GPa) = 0.01272739
#
# Stress axis : x y z
#
# Youngs Moduli (GPa) = 91.58371 84.30815 69.03099
#
# Poissons Ratio (x) = 0.18948 0.30390
# Poissons Ratio (y) = 0.20583 0.38793
# Poissons Ratio (z) = 0.40318 0.47379
#
# Static dielectric constant tensor:
#      x y z
#    x 1.798450 0.000000 0.000000 
#    y 0.000000 1.730190 0.000000 
#    z 0.000000 0.000000 1.735320 
# 
# From -- ./inp_files/38650.got.cif
#   From: 2010.05.17/outbox.cif.g08.bks.cpg/sg22_20_cif.got.tgz:38650.got - 2010.06.03 23:40:54.
