data_PCOD9328789
_publ_section_title
;
Structure prediction by ZEFSAII (Michael W. Deem and Ramdas Pophale) SiO2 
 PCOD9328789
Probable space group: F 2 2 2
;
_chemical_formula_sum "Si O2"
_cell_formula_units_Z 116
_cell_length_a 21.692139
_cell_length_b 9.298116
_cell_length_c 28.019467
_cell_angle_alpha 90.000000
_cell_angle_beta 90.000000
_cell_angle_gamma 90.000000
_cell_volume 5651.415108
_symmetry_space_group_name_H-M "F 2 2 2"
_symmetry_group_IT_number 22
_symmetry_cell_setting 'orthorhombic'
loop_
_space_group_symop_operation_xyz
x,y,z
-x,-y,z
x,-y,-z
-x,y,-z
x,1/2+y,1/2+z
-x,1/2-y,1/2+z
x,1/2-y,1/2-z
-x,1/2+y,1/2-z
1/2+x,y,1/2+z
1/2-x,-y,1/2+z
1/2+x,-y,1/2-z
1/2-x,y,1/2-z
1/2+x,1/2+y,z
1/2-x,1/2-y,z
1/2+x,1/2-y,-z
1/2-x,1/2+y,-z
loop_
_atom_site_type_symbol
_atom_site_label
_atom_site_fract_x
_atom_site_fract_y
_atom_site_fract_z
Si Si1 0.310302 0.042695 0.359019
Si Si2 0.974888 0.665902 0.831921
Si Si3 0.892658 0.232220 0.693450
Si Si4 0.655510 0.766497 0.697664
Si Si5 0.500000 0.000000 0.000000
Si Si6 0.804509 0.874233 0.959380
Si Si7 0.674423 0.999496 0.859491
Si Si8 0.906475 0.153580 0.431240
O O1 0.354516 0.172721 0.344647
O O2 0.332954 0.924364 0.321229
O O3 0.310019 0.965482 0.410425
O O4 0.238368 0.081553 0.355664
O O5 0.916020 0.716808 0.801647
O O6 0.947399 0.695842 0.884874
O O7 0.000000 0.500000 0.829544
O O8 0.035134 0.754204 0.816530
O O9 0.879218 0.250000 0.750000
O O10 0.872336 0.073503 0.677017
O O11 0.680945 0.750000 0.750000
O O12 0.687377 0.659434 0.660292
O O13 0.455012 0.907689 0.032353
O O14 0.750000 0.750000 0.961038
O O15 0.866421 0.777238 0.956423
O O16 0.799022 0.000000 0.000000
O O17 0.640703 0.968656 0.909814
#
# Coordination Sequence:
#
# PCOD9328789 Si02
#       8
#    16  16  16  16   4  16  16  16
#     4  12  25  43  68 103 147 184 232 304 366 421
#     4  11  21  44  69  91 141 194 238 289 352 426
#     4  12  26  41  66 108 146 189 248 298 355 421
#     4  11  22  39  68  98 134 191 243 287 346 424
#     4  12  24  40  78 108 132 196 238 298 368 444
#     4  12  27  50  77 114 146 184 244 308 376 454
#     4  11  22  45  68  89 146 186 226 287 356 440
#     4  11  23  45  74  99 136 182 248 288 358 442
#
# _framework density 20.525832999999999
#
# number of rings (size 3 to 8) (size 9 to 14) (size 15 to 20)
#    0.000    0.552    7.586    2.069    0.966    7.172 
#    0.000    1.724    0.000    0.000    0.000    0.000 
#    0.000    0.000    0.000    0.000    0.000    0.000 
#
# Total GULP energy -161597.636209 kJ/mol
# GULP energy per Si atom -5572.332283 kJ/mol
# Density = 2.047912 g / cm^3
# Si number density = 20.525833 Si / 1000 Ang^3
#
#
#
# Elastic Constant Matrix: (Units=GPa)
#
#
# Indices 1 2 3 4 5 6 
#
# 1 165.5445 46.5363 45.5753 0.0000 0.0000 0.0000
# 2 46.5363 69.5694 35.1553 0.0000 0.0000 0.0000
# 3 45.5753 35.1553 124.3866 0.0000 0.0000 0.0000
# 4 0.0000 0.0000 0.0000 38.0787 0.0000 0.0000
# 5 0.0000 0.0000 0.0000 0.0000 -40.9707 0.0000
# 6 0.0000 0.0000 0.0000 0.0000 0.0000 41.8996
#
#
#
# Elastic Compliance Matrix: (Units=1/GPa)
#
#
# Indices 1 2 3 4 5 6 
#
# 1 0.007701 -0.004346 -0.001593 0.000000 0.000000 0.000000
# 2 -0.004346 0.019222 -0.003840 0.000000 0.000000 0.000000
# 3 -0.001593 -0.003840 0.009709 0.000000 0.000000 0.000000
# 4 0.000000 0.000000 0.000000 0.026261 0.000000 0.000000
# 5 0.000000 0.000000 0.000000 0.000000 -0.024408 0.000000
# 6 0.000000 0.000000 0.000000 0.000000 0.000000 0.023867
#
#
# Mechanical properties :
#
#
# Convention : Reuss Voigt Hill
#
# Bulk Modulus (GPa) = 58.57508 68.22603 63.40056
# Shear Modulus (GPa) = 57.07614 23.28376 40.17995
#
# Velocity S-wave (km/s) = 5.27895 3.37169 4.42920
# Velocity P-wave (km/s) = 8.10899 6.96196 7.55727
#
# Compressibility (1/GPa) = 0.01707211
#
# Stress axis : x y z
#
# Youngs Moduli (GPa) = 129.85158 52.02373 103.00150
#
# Poissons Ratio (x) = 0.22611 0.16411
# Poissons Ratio (y) = 0.56437 0.39555
# Poissons Ratio (z) = 0.20689 0.19978
#
# Static dielectric constant tensor:
#      x y z
#    x 1.506090 0.000000 0.000000 
#    y 0.000000 1.770450 0.000000 
#    z 0.000000 0.000000 1.757960 
# 
# From -- ./inp_files/54204.got.cif
#   From: 2010.05.17/outbox.cif.g08.bks.cpg/sg22_28_cif.got.tgz:54204.got - 2010.06.03 23:40:54.
