data_PCOD9328210
_publ_section_title
;
Structure prediction by ZEFSAII (Michael W. Deem and Ramdas Pophale) SiO2 
 PCOD9328210
Probable space group: F 2 2 2
;
_chemical_formula_sum "Si O2"
_cell_formula_units_Z 112
_cell_length_a 12.382916
_cell_length_b 28.425426
_cell_length_c 15.272583
_cell_angle_alpha 90.000000
_cell_angle_beta 90.000000
_cell_angle_gamma 90.000000
_cell_volume 5375.791334
_symmetry_space_group_name_H-M "F 2 2 2"
_symmetry_group_IT_number 22
_symmetry_cell_setting 'orthorhombic'
loop_
_space_group_symop_operation_xyz
x,y,z
-x,-y,z
x,-y,-z
-x,y,-z
x,1/2+y,1/2+z
-x,1/2-y,1/2+z
x,1/2-y,1/2-z
-x,1/2+y,1/2-z
1/2+x,y,1/2+z
1/2-x,-y,1/2+z
1/2+x,-y,1/2-z
1/2-x,y,1/2-z
1/2+x,1/2+y,z
1/2-x,1/2-y,z
1/2+x,1/2-y,-z
1/2-x,1/2+y,-z
loop_
_atom_site_type_symbol
_atom_site_label
_atom_site_fract_x
_atom_site_fract_y
_atom_site_fract_z
Si Si1 0.498931 0.554849 0.105717
Si Si2 0.206622 0.884654 0.848242
Si Si3 0.003828 0.280891 0.167617
Si Si4 0.036191 0.185569 0.096805
Si Si5 0.802324 0.298179 0.073970
Si Si6 0.412426 0.363380 0.438332
Si Si7 0.842676 0.367196 0.326488
O O1 0.500000 0.500000 0.128804
O O2 0.608874 0.578969 0.139925
O O3 0.396438 0.583235 0.145790
O O4 0.500000 0.558892 0.000000
O O5 0.250000 0.882650 0.750000
O O6 0.152093 0.835556 0.878739
O O7 0.310559 0.893625 0.908973
O O8 0.041245 0.250000 0.250000
O O9 0.033029 0.241518 0.095137
O O10 0.047448 0.332890 0.145547
O O11 0.874415 0.285678 0.158957
O O12 0.951671 0.166067 0.171325
O O13 0.000000 0.168424 0.000000
O O14 0.750000 0.250000 0.044013
O O15 0.720618 0.339264 0.098468
O O16 0.876638 0.322002 0.003101
O O17 0.500000 0.389322 0.500000
O O18 0.750000 0.371355 0.250000
#
# Coordination Sequence:
#
# PCOD9328210 Si02
#       7
#    16  16  16  16  16  16  16
#     4  10  23  46  72  98 121 155 211 265 322 404
#     4  11  23  39  63  91 125 165 201 262 331 379
#     4  11  22  34  51  80 118 161 217 270 308 358
#     4  11  21  37  58  83 119 170 227 259 306 370
#     4  11  21  34  56  83 119 166 218 259 303 356
#     4  10  23  38  53  83 122 172 213 257 300 375
#     4  11  22  36  61  95 124 157 201 269 327 370
#
# _framework density 20.834142
#
# number of rings (size 3 to 8) (size 9 to 14) (size 15 to 20)
#    0.000    1.286    1.429    6.429    2.000    4.000 
#    0.000    1.429    0.000    0.000    0.000    3.000 
#    0.000    0.000    0.000    0.000    0.000    0.000 
#
# Total GULP energy -156051.385632 kJ/mol
# GULP energy per Si atom -5573.263773 kJ/mol
# Density = 2.078672 g / cm^3
# Si number density = 20.834142 Si / 1000 Ang^3
#
#
#
# Elastic Constant Matrix: (Units=GPa)
#
#
# Indices 1 2 3 4 5 6 
#
# 1 127.3674 32.6031 45.8418 0.0000 0.0000 0.0000
# 2 32.6031 95.3153 4.3451 0.0000 0.0000 0.0000
# 3 45.8418 4.3451 104.0899 0.0000 0.0000 0.0000
# 4 0.0000 0.0000 0.0000 31.3573 0.0000 0.0000
# 5 0.0000 0.0000 0.0000 0.0000 46.4855 0.0000
# 6 0.0000 0.0000 0.0000 0.0000 0.0000 22.3942
#
#
#
# Elastic Compliance Matrix: (Units=1/GPa)
#
#
# Indices 1 2 3 4 5 6 
#
# 1 0.010280 -0.003316 -0.004389 0.000000 0.000000 0.000000
# 2 -0.003316 0.011581 0.000977 0.000000 0.000000 0.000000
# 3 -0.004389 0.000977 0.011499 0.000000 0.000000 0.000000
# 4 0.000000 0.000000 0.000000 0.031891 0.000000 0.000000
# 5 0.000000 0.000000 0.000000 0.000000 0.021512 0.000000
# 6 0.000000 0.000000 0.000000 0.000000 0.000000 0.044654
#
#
# Mechanical properties :
#
#
# Convention : Reuss Voigt Hill
#
# Bulk Modulus (GPa) = 50.24064 54.70585 52.47324
# Shear Modulus (GPa) = 33.00153 36.31289 34.65721
#
# Velocity S-wave (km/s) = 3.98428 4.17940 4.08300
# Velocity P-wave (km/s) = 6.73297 7.04305 6.88976
#
# Compressibility (1/GPa) = 0.01990421
#
# Stress axis : x y z
#
# Youngs Moduli (GPa) = 97.27819 86.34632 86.96275
#
# Poissons Ratio (x) = 0.28634 0.38167
# Poissons Ratio (y) = 0.32259 -0.08496
# Poissons Ratio (z) = 0.42694 -0.08436
#
# Static dielectric constant tensor:
#      x y z
#    x 1.633960 0.000000 0.000000 
#    y 0.000000 1.721560 0.000000 
#    z 0.000000 0.000000 1.902190 
# 
# From -- ./inp_files/28461.got.cif
#   From: 2010.05.17/outbox.cif.g08.bks.cpg/sg22_15_cif.got.tgz:28461.got - 2010.06.03 23:40:54.
