data_PCOD9328420
_publ_section_title
;
Structure prediction by ZEFSAII (Michael W. Deem and Ramdas Pophale) SiO2 
 PCOD9328420
Probable space group: F 2 2 2
;
_chemical_formula_sum "Si O2"
_cell_formula_units_Z 96
_cell_length_a 14.410336
_cell_length_b 15.166359
_cell_length_c 19.958305
_cell_angle_alpha 90.000000
_cell_angle_beta 90.000000
_cell_angle_gamma 90.000000
_cell_volume 4361.934042
_symmetry_space_group_name_H-M "F 2 2 2"
_symmetry_group_IT_number 22
_symmetry_cell_setting 'orthorhombic'
loop_
_space_group_symop_operation_xyz
x,y,z
-x,-y,z
x,-y,-z
-x,y,-z
x,1/2+y,1/2+z
-x,1/2-y,1/2+z
x,1/2-y,1/2-z
-x,1/2+y,1/2-z
1/2+x,y,1/2+z
1/2-x,-y,1/2+z
1/2+x,-y,1/2-z
1/2-x,y,1/2-z
1/2+x,1/2+y,z
1/2-x,1/2-y,z
1/2+x,1/2-y,-z
1/2-x,1/2+y,-z
loop_
_atom_site_type_symbol
_atom_site_label
_atom_site_fract_x
_atom_site_fract_y
_atom_site_fract_z
Si Si1 0.301559 0.167942 0.821024
Si Si2 0.981523 0.729435 0.881167
Si Si3 0.333224 0.680600 0.876309
Si Si4 0.770019 0.994414 0.111287
Si Si5 0.398007 0.877570 0.476889
Si Si6 0.074732 0.941838 0.567913
O O1 0.250000 0.163392 0.750000
O O2 0.250000 0.250000 0.856717
O O3 0.409981 0.189376 0.827473
O O4 0.280355 0.075158 0.853459
O O5 0.923670 0.798031 0.926374
O O6 0.070458 0.778312 0.851274
O O7 0.027408 0.653423 0.927804
O O8 0.250000 0.750000 0.865097
O O9 0.322747 0.581229 0.847564
O O10 0.347275 0.660297 0.956656
O O11 0.838793 0.046583 0.060685
O O12 0.681698 0.937147 0.086717
O O13 0.500000 0.907990 0.500000
O O14 0.083436 0.000000 0.500000
O O15 0.000000 0.000000 0.609691
#
# Coordination Sequence:
#
# PCOD9328420 Si02
#       6
#    16  16  16  16  16  16
#     4  11  25  48  77  97 122 171 242 303 350 395
#     4  11  23  42  65  98 141 185 231 285 333 401
#     4  11  24  36  62 102 149 183 219 264 343 417
#     4  12  23  42  68  97 143 186 231 280 337 407
#     4  10  24  38  61  94 147 193 227 257 328 407
#     4  11  23  33  63 105 146 182 227 270 325 411
#
# _framework density 22.008586000000001
#
# number of rings (size 3 to 8) (size 9 to 14) (size 15 to 20)
#    0.000    1.000    5.000    1.500    9.333    4.667 
#    0.000    0.000   14.667    0.500    0.000    0.000 
#    0.000    0.000    0.000    0.000    0.000    0.000 
#
# Total GULP energy -133663.205169 kJ/mol
# GULP energy per Si atom -5569.300215 kJ/mol
# Density = 2.195849 g / cm^3
# Si number density = 22.008586 Si / 1000 Ang^3
#
#
#
# Elastic Constant Matrix: (Units=GPa)
#
#
# Indices 1 2 3 4 5 6 
#
# 1 188.5157 66.9698 40.8175 0.0000 0.0000 0.0000
# 2 66.9698 155.7402 11.6855 0.0000 0.0000 0.0000
# 3 40.8175 11.6855 18.3515 0.0000 0.0000 0.0000
# 4 0.0000 0.0000 0.0000 -11.3124 0.0000 0.0000
# 5 0.0000 0.0000 0.0000 0.0000 12.4968 0.0000
# 6 0.0000 0.0000 0.0000 0.0000 0.0000 69.4710
#
#
#
# Elastic Compliance Matrix: (Units=1/GPa)
#
#
# Indices 1 2 3 4 5 6 
#
# 1 0.011573 -0.003198 -0.023705 0.000000 0.000000 0.000000
# 2 -0.003198 0.007627 0.002257 0.000000 0.000000 0.000000
# 3 -0.023705 0.002257 0.105780 0.000000 0.000000 0.000000
# 4 0.000000 0.000000 0.000000 -0.088399 0.000000 0.000000
# 5 0.000000 0.000000 0.000000 0.000000 0.080020 0.000000
# 6 0.000000 0.000000 0.000000 0.000000 0.000000 0.014394
#
#
# Mechanical properties :
#
#
# Convention : Reuss Voigt Hill
#
# Bulk Modulus (GPa) = 13.21231 66.83920 40.02576
# Shear Modulus (GPa) = 24.32873 30.34006 27.33439
#
# Velocity S-wave (km/s) = 3.32839 3.71692 3.52801
# Velocity P-wave (km/s) = 4.55930 6.98972 5.90099
#
# Compressibility (1/GPa) = 0.07568699
#
# Stress axis : x y z
#
# Youngs Moduli (GPa) = 86.40547 131.11646 9.45358
#
# Poissons Ratio (x) = 0.41931 0.22410
# Poissons Ratio (y) = 0.27633 -0.02133
# Poissons Ratio (z) = 2.04826 -0.29588
#
# Static dielectric constant tensor:
#      x y z
#    x 1.935080 0.000000 0.000000 
#    y 0.000000 1.949300 0.000000 
#    z 0.000000 0.000000 1.835230 
# 
# From -- ./inp_files/43471.got.cif
#   From: 2010.05.17/outbox.cif.g08.bks.cpg/sg22_22_cif.got.tgz:43471.got - 2010.06.03 23:40:54.
