data_PCOD9328535
_publ_section_title
;
Structure prediction by ZEFSAII (Michael W. Deem and Ramdas Pophale) SiO2 
 PCOD9328535
Probable space group: F 2 2 2
;
_chemical_formula_sum "Si O2"
_cell_formula_units_Z 60
_cell_length_a 23.346940
_cell_length_b 18.995499
_cell_length_c 5.895257
_cell_angle_alpha 90.000000
_cell_angle_beta 90.000000
_cell_angle_gamma 90.000000
_cell_volume 2614.468517
_symmetry_space_group_name_H-M "F 2 2 2"
_symmetry_group_IT_number 22
_symmetry_cell_setting 'orthorhombic'
loop_
_space_group_symop_operation_xyz
x,y,z
-x,-y,z
x,-y,-z
-x,y,-z
x,1/2+y,1/2+z
-x,1/2-y,1/2+z
x,1/2-y,1/2-z
-x,1/2+y,1/2-z
1/2+x,y,1/2+z
1/2-x,-y,1/2+z
1/2+x,-y,1/2-z
1/2-x,y,1/2-z
1/2+x,1/2+y,z
1/2-x,1/2-y,z
1/2+x,1/2-y,-z
1/2-x,1/2+y,-z
loop_
_atom_site_type_symbol
_atom_site_label
_atom_site_fract_x
_atom_site_fract_y
_atom_site_fract_z
Si Si1 0.815372 0.438653 0.181100
Si Si2 0.000000 0.000000 0.000000
Si Si3 0.188854 0.829869 0.661405
Si Si4 0.406940 0.100837 0.450509
Si Si5 0.000000 0.713571 0.500000
O O1 0.750000 0.455540 0.250000
O O2 0.864857 0.435390 0.368130
O O3 0.829866 0.500000 0.000000
O O4 0.812508 0.356989 0.094783
O O5 0.956792 0.950837 0.137810
O O6 0.186017 0.750000 0.750000
O O7 0.250000 0.857955 0.750000
O O8 0.135157 0.869435 0.764608
O O9 0.443892 0.165774 0.546322
O O10 0.989741 0.750000 0.250000
#
# Coordination Sequence:
#
# PCOD9328535 Si02
#       5
#    16   4  16  16   8
#     4  12  26  44  74 109 151 202 254 324 407 482
#     4  10  24  48  66 100 136 200 262 312 374 458
#     4  11  24  44  71 112 154 192 250 320 405 486
#     4  11  25  47  74 104 153 195 260 325 385 474
#     4  11  28  51  78 111 154 215 262 312 393 470
#
# _framework density 22.949216
#
# number of rings (size 3 to 8) (size 9 to 14) (size 15 to 20)
#    0.000    0.800    2.667    3.200    9.333    0.000 
#    0.000    1.333    0.000    0.000    0.000    0.000 
#    0.000    0.000    0.000    0.000    0.000    0.000 
#
# Total GULP energy -83598.562754 kJ/mol
# GULP energy per Si atom -5573.237517 kJ/mol
# Density = 2.289698 g / cm^3
# Si number density = 22.949216 Si / 1000 Ang^3
#
#
#
# Elastic Constant Matrix: (Units=GPa)
#
#
# Indices 1 2 3 4 5 6 
#
# 1 190.0743 48.2096 36.6164 -0.0003 0.0001 0.0003
# 2 48.2096 110.2331 38.5770 0.0008 0.0000 -0.0003
# 3 36.6164 38.5770 66.6603 0.0024 0.0003 -0.0012
# 4 -0.0003 0.0008 0.0024 38.6728 0.0000 -0.0006
# 5 0.0001 0.0000 0.0003 0.0000 32.1499 -0.0002
# 6 0.0003 -0.0003 -0.0012 -0.0006 -0.0002 3.2990
#
#
#
# Elastic Compliance Matrix: (Units=1/GPa)
#
#
# Indices 1 2 3 4 5 6 
#
# 1 0.006186 -0.001901 -0.002298 0.000000 0.000000 -0.000001
# 2 -0.001901 0.011960 -0.005877 0.000000 0.000000 -0.000001
# 3 -0.002298 -0.005877 0.019665 -0.000001 0.000000 0.000007
# 4 0.000000 0.000000 -0.000001 0.025858 0.000000 0.000005
# 5 0.000000 0.000000 0.000000 0.000000 0.031104 0.000002
# 6 -0.000001 -0.000001 0.000007 0.000005 0.000002 0.303125
#
#
# Mechanical properties :
#
#
# Convention : Reuss Voigt Hill
#
# Bulk Modulus (GPa) = 56.62940 68.19707 62.41323
# Shear Modulus (GPa) = 11.79425 31.06199 21.42812
#
# Velocity S-wave (km/s) = 2.26946 3.68300 3.05900
# Velocity P-wave (km/s) = 5.62110 6.91860 6.30332
#
# Compressibility (1/GPa) = 0.01765867
#
# Stress axis : x y z
#
# Youngs Moduli (GPa) = 161.65638 83.61286 50.85296
#
# Poissons Ratio (x) = 0.15897 0.11684
# Poissons Ratio (y) = 0.30736 0.29886
# Poissons Ratio (z) = 0.37143 0.49139
#
# Static dielectric constant tensor:
#      x y z
#    x 1.803030 0.000000 0.000000 
#    y 0.000000 1.969820 0.000000 
#    z 0.000000 0.000000 1.872040 
# 
# From -- ./inp_files/4396.got.cif
#   From: 2010.05.17/outbox.cif.g08.bks.cpg/sg22_3_cif.got.tgz:4396.got - 2010.06.03 23:40:54.
