data_PCOD9328719
_publ_section_title
;
Structure prediction by ZEFSAII (Michael W. Deem and Ramdas Pophale) SiO2 
 PCOD9328719
Probable space group: F 2 2 2
;
_chemical_formula_sum "Si O2"
_cell_formula_units_Z 116
_cell_length_a 12.427715
_cell_length_b 18.941812
_cell_length_c 25.749674
_cell_angle_alpha 90.000000
_cell_angle_beta 90.000000
_cell_angle_gamma 90.000000
_cell_volume 6061.561867
_symmetry_space_group_name_H-M "F 2 2 2"
_symmetry_group_IT_number 22
_symmetry_cell_setting 'orthorhombic'
loop_
_space_group_symop_operation_xyz
x,y,z
-x,-y,z
x,-y,-z
-x,y,-z
x,1/2+y,1/2+z
-x,1/2-y,1/2+z
x,1/2-y,1/2-z
-x,1/2+y,1/2-z
1/2+x,y,1/2+z
1/2-x,-y,1/2+z
1/2+x,-y,1/2-z
1/2-x,y,1/2-z
1/2+x,1/2+y,z
1/2-x,1/2-y,z
1/2+x,1/2-y,-z
1/2-x,1/2+y,-z
loop_
_atom_site_type_symbol
_atom_site_label
_atom_site_fract_x
_atom_site_fract_y
_atom_site_fract_z
Si Si1 0.021276 0.083380 0.792849
Si Si2 0.839188 0.413482 0.636159
Si Si3 0.840092 0.305343 0.454283
Si Si4 0.863637 0.817899 0.347740
Si Si5 0.915516 0.801299 0.069675
Si Si6 0.447117 0.421545 0.671595
Si Si7 0.294914 0.579105 0.128139
Si Si8 0.250000 0.750000 0.750000
O O1 0.053785 0.091598 0.733573
O O2 0.117753 0.108417 0.830039
O O3 0.904421 0.109740 0.811736
O O4 0.000000 0.000000 0.800477
O O5 0.726724 0.373596 0.635122
O O6 0.912576 0.380536 0.591604
O O7 0.820834 0.495743 0.627262
O O8 0.750000 0.250000 0.437167
O O9 0.847682 0.304608 0.516791
O O10 0.812560 0.378752 0.425383
O O11 0.960482 0.282323 0.439151
O O12 0.870902 0.752256 0.387081
O O13 0.826962 0.792460 0.290370
O O14 0.974574 0.860819 0.349200
O O15 0.500000 0.500000 0.663408
O O16 0.327762 0.415940 0.648265
#
# Coordination Sequence:
#
# PCOD9328719 Si02
#       8
#    16  16  16  16  16  16  16   4
#     4   9  20  35  59  90 130 167 207 257 321 380
#     4  11  20  40  64  92 129 164 216 277 316 385
#     4  11  24  43  67  93 123 173 221 265 335 392
#     4  12  23  39  62  95 134 167 220 266 329 386
#     4  11  24  43  66  92 130 169 214 277 329 382
#     4  11  22  38  60  95 133 176 208 262 332 389
#     4  11  22  40  64  93 128 170 220 267 322 395
#     4  12  24  36  68 100 126 180 222 280 306 398
#
# _framework density 19.136982
#
# number of rings (size 3 to 8) (size 9 to 14) (size 15 to 20)
#    0.000    1.103    4.138    2.897    0.000    0.552 
#    0.000    1.379    0.000    0.828    0.000    0.000 
#    0.000    0.000    0.000    0.000    0.000    0.000 
#
# Total GULP energy -161708.332645 kJ/mol
# GULP energy per Si atom -5576.149402 kJ/mol
# Density = 1.909343 g / cm^3
# Si number density = 19.136982 Si / 1000 Ang^3
#
#
#
# Elastic Constant Matrix: (Units=GPa)
#
#
# Indices 1 2 3 4 5 6 
#
# 1 130.7343 45.1978 49.3161 0.0000 0.0000 0.0000
# 2 45.1978 93.7672 54.1794 0.0000 0.0000 0.0000
# 3 49.3161 54.1794 111.5143 0.0000 0.0000 0.0000
# 4 0.0000 0.0000 0.0000 24.5550 0.0000 0.0000
# 5 0.0000 0.0000 0.0000 0.0000 25.6814 0.0000
# 6 0.0000 0.0000 0.0000 0.0000 0.0000 34.5553
#
#
#
# Elastic Compliance Matrix: (Units=1/GPa)
#
#
# Indices 1 2 3 4 5 6 
#
# 1 0.009781 -0.003080 -0.002829 0.000000 0.000000 0.000000
# 2 -0.003080 0.015797 -0.006313 0.000000 0.000000 0.000000
# 3 -0.002829 -0.006313 0.013286 0.000000 0.000000 0.000000
# 4 0.000000 0.000000 0.000000 0.040725 0.000000 0.000000
# 5 0.000000 0.000000 0.000000 0.000000 0.038939 0.000000
# 6 0.000000 0.000000 0.000000 0.000000 0.000000 0.028939
#
#
# Mechanical properties :
#
#
# Convention : Reuss Voigt Hill
#
# Bulk Modulus (GPa) = 69.34938 70.37804 69.86371
# Shear Modulus (GPa) = 28.29376 29.44651 28.87014
#
# Velocity S-wave (km/s) = 3.84928 3.92691 3.88829
# Velocity P-wave (km/s) = 7.48819 7.57738 7.53292
#
# Compressibility (1/GPa) = 0.01441974
#
# Stress axis : x y z
#
# Youngs Moduli (GPa) = 102.23730 63.30326 75.26847
#
# Poissons Ratio (x) = 0.19497 0.21295
# Poissons Ratio (y) = 0.31489 0.47516
# Poissons Ratio (z) = 0.28925 0.39963
#
# Static dielectric constant tensor:
#      x y z
#    x 1.699700 0.000000 0.000000 
#    y 0.000000 1.681110 0.000000 
#    z 0.000000 0.000000 1.690330 
# 
# From -- ./inp_files/36419.got.cif
#   From: 2010.05.17/outbox.cif.g08.bks.cpg/sg22_19_cif.got.tgz:36419.got - 2010.06.03 23:40:54.
