data_PCOD9328142
_publ_section_title
;
Structure prediction by ZEFSAII (Michael W. Deem and Ramdas Pophale) SiO2 
 PCOD9328142
Probable space group: F 2 2 2
;
_chemical_formula_sum "Si O2"
_cell_formula_units_Z 80
_cell_length_a 25.023717
_cell_length_b 11.914205
_cell_length_c 14.074676
_cell_angle_alpha 90.000000
_cell_angle_beta 90.000000
_cell_angle_gamma 90.000000
_cell_volume 4196.191449
_symmetry_space_group_name_H-M "F 2 2 2"
_symmetry_group_IT_number 22
_symmetry_cell_setting 'orthorhombic'
loop_
_space_group_symop_operation_xyz
x,y,z
-x,-y,z
x,-y,-z
-x,y,-z
x,1/2+y,1/2+z
-x,1/2-y,1/2+z
x,1/2-y,1/2-z
-x,1/2+y,1/2-z
1/2+x,y,1/2+z
1/2-x,-y,1/2+z
1/2+x,-y,1/2-z
1/2-x,y,1/2-z
1/2+x,1/2+y,z
1/2-x,1/2-y,z
1/2+x,1/2-y,-z
1/2-x,1/2+y,-z
loop_
_atom_site_type_symbol
_atom_site_label
_atom_site_fract_x
_atom_site_fract_y
_atom_site_fract_z
Si Si1 0.627194 0.221247 0.348351
Si Si2 0.306200 0.121395 0.975144
Si Si3 0.659720 0.293023 0.859157
Si Si4 0.785515 0.966893 0.845621
Si Si5 0.563552 0.369910 0.983582
O O1 0.600408 0.250000 0.250000
O O2 0.665140 0.318628 0.387402
O O3 0.663524 0.112105 0.333093
O O4 0.585988 0.200510 0.429925
O O5 0.248296 0.090088 0.931201
O O6 0.314725 0.202065 0.066755
O O7 0.330456 0.000000 0.000000
O O8 0.660415 0.250000 0.750000
O O9 0.694487 0.407097 0.865246
O O10 0.599126 0.324257 0.894734
O O11 0.750000 0.967542 0.750000
O O12 0.578661 0.500000 0.000000
O O13 0.500000 0.363684 0.000000
#
# Coordination Sequence:
#
# PCOD9328142 Si02
#       5
#    16  16  16  16  16
#     4  11  23  41  63  94 126 170 218 271 317 392
#     4  11  26  37  61  91 135 173 216 253 319 384
#     4  11  26  46  64  97 137 177 220 276 328 398
#     4  12  24  40  60  92 135 179 220 256 319 397
#     4  10  22  44  72  96 125 168 225 285 337 386
#
# _framework density 19.064907999999999
#
# number of rings (size 3 to 8) (size 9 to 14) (size 15 to 20)
#    0.000    1.000    4.000    1.800    8.400    2.800 
#    0.000    0.000    0.000    9.600    0.000    0.000 
#    0.000    0.000    0.000    0.000    0.000    0.000 
#
# Total GULP energy -111580.063465 kJ/mol
# GULP energy per Si atom -5579.003173 kJ/mol
# Density = 1.902151 g / cm^3
# Si number density = 19.064908 Si / 1000 Ang^3
#
#
#
# Elastic Constant Matrix: (Units=GPa)
#
#
# Indices 1 2 3 4 5 6 
#
# 1 64.8121 17.8131 23.5976 0.0000 0.0000 0.0000
# 2 17.8131 107.6294 26.8273 0.0000 0.0000 0.0000
# 3 23.5976 26.8273 125.1527 0.0000 0.0000 0.0000
# 4 0.0000 0.0000 0.0000 22.8422 0.0000 0.0000
# 5 0.0000 0.0000 0.0000 0.0000 13.6642 0.0000
# 6 0.0000 0.0000 0.0000 0.0000 0.0000 -2.3479
#
#
#
# Elastic Compliance Matrix: (Units=1/GPa)
#
#
# Indices 1 2 3 4 5 6 
#
# 1 0.017017 -0.002130 -0.002752 0.000000 0.000000 0.000000
# 2 -0.002130 0.010082 -0.001760 0.000000 0.000000 0.000000
# 3 -0.002752 -0.001760 0.008886 0.000000 0.000000 0.000000
# 4 0.000000 0.000000 0.000000 0.043779 0.000000 0.000000
# 5 0.000000 0.000000 0.000000 0.000000 0.073184 0.000000
# 6 0.000000 0.000000 0.000000 0.000000 0.000000 -0.425919
#
#
# Mechanical properties :
#
#
# Convention : Reuss Voigt Hill
#
# Bulk Modulus (GPa) = 44.04955 48.23003 46.13979
# Shear Modulus (GPa) = -19.83180 22.12213 1.14517
#
# Velocity S-wave (km/s) = -3.22875 3.41010 0.77587
# Velocity P-wave (km/s) = 3.04227 6.39201 5.00566
#
# Compressibility (1/GPa) = 0.02270171
#
# Stress axis : x y z
#
# Youngs Moduli (GPa) = 58.76588 99.18362 112.53327
#
# Poissons Ratio (x) = 0.21130 0.30967
# Poissons Ratio (y) = 0.12520 0.19800
# Poissons Ratio (z) = 0.16171 0.17452
#
# Static dielectric constant tensor:
#      x y z
#    x 1.691910 0.000000 0.000000 
#    y 0.000000 1.695820 0.000000 
#    z 0.000000 0.000000 1.683050 
# 
# From -- ./inp_files/19830.got.cif
#   From: 2010.05.17/outbox.cif.g08.bks.cpg/sg22_10_cif.got.tgz:19830.got - 2010.06.03 23:40:54.
