data_PCOD9328903
_publ_section_title
;
Structure prediction by ZEFSAII (Michael W. Deem and Ramdas Pophale) SiO2 
 PCOD9328903
Probable space group: F 2 2 2
;
_chemical_formula_sum "Si O2"
_cell_formula_units_Z 112
_cell_length_a 15.213112
_cell_length_b 26.513704
_cell_length_c 15.507887
_cell_angle_alpha 90.000000
_cell_angle_beta 90.000000
_cell_angle_gamma 90.000000
_cell_volume 6255.198470
_symmetry_space_group_name_H-M "F 2 2 2"
_symmetry_group_IT_number 22
_symmetry_cell_setting 'orthorhombic'
loop_
_space_group_symop_operation_xyz
x,y,z
-x,-y,z
x,-y,-z
-x,y,-z
x,1/2+y,1/2+z
-x,1/2-y,1/2+z
x,1/2-y,1/2-z
-x,1/2+y,1/2-z
1/2+x,y,1/2+z
1/2-x,-y,1/2+z
1/2+x,-y,1/2-z
1/2-x,y,1/2-z
1/2+x,1/2+y,z
1/2-x,1/2-y,z
1/2+x,1/2-y,-z
1/2-x,1/2+y,-z
loop_
_atom_site_type_symbol
_atom_site_label
_atom_site_fract_x
_atom_site_fract_y
_atom_site_fract_z
Si Si1 0.181427 0.077499 0.325786
Si Si2 0.447198 0.946374 0.571976
Si Si3 0.266148 0.589678 0.005904
Si Si4 0.748278 0.693008 0.897185
Si Si5 0.607405 0.194431 0.242530
Si Si6 0.679376 0.956177 0.822451
Si Si7 0.998792 0.404313 0.244670
O O1 0.250000 0.093240 0.250000
O O2 0.211339 0.094276 0.419332
O O3 0.082750 0.096343 0.315467
O O4 0.178467 0.016571 0.322083
O O5 0.500000 0.915302 0.500000
O O6 0.350113 0.942512 0.530743
O O7 0.460230 0.925047 0.666372
O O8 0.500000 0.000000 0.579073
O O9 0.279584 0.646447 0.042517
O O10 0.215934 0.562024 0.084883
O O11 0.750000 0.750000 0.935087
O O12 0.679886 0.693832 0.818015
O O13 0.841899 0.684948 0.848265
O O14 0.567650 0.250000 0.250000
O O15 0.539473 0.150686 0.258572
O O16 0.750000 0.938533 0.750000
O O17 0.583440 0.936395 0.793137
#
# Coordination Sequence:
#
# PCOD9328903 Si02
#       7
#    16  16  16  16  16  16  16
#     4  11  25  41  58  85 132 174 214 253 304 378
#     4  11  24  35  60  91 127 163 217 262 309 372
#     4  12  23  40  61  93 129 169 208 264 318 373
#     4   9  18  37  64  96 124 155 205 265 322 378
#     4   9  18  36  65  95 122 154 202 265 322 377
#     4  11  23  38  65  91 125 165 209 258 316 375
#     4  12  22  41  62  89 129 168 209 259 317 377
#
# _framework density 17.905107999999998
#
# number of rings (size 3 to 8) (size 9 to 14) (size 15 to 20)
#    0.000    1.286    2.857    5.143    6.000    0.571 
#    0.000    2.857    0.000    3.429    0.000    0.000 
#    0.000    0.000    0.000    0.000    0.000    0.000 
#
# Total GULP energy -155984.156372 kJ/mol
# GULP energy per Si atom -5570.862728 kJ/mol
# Density = 1.786436 g / cm^3
# Si number density = 17.905108 Si / 1000 Ang^3
#
#
#
# Elastic Constant Matrix: (Units=GPa)
#
#
# Indices 1 2 3 4 5 6 
#
# 1 75.4702 5.2478 21.4096 0.0000 0.0000 0.0000
# 2 5.2478 84.6772 2.2465 0.0000 0.0000 0.0000
# 3 21.4096 2.2465 83.5536 0.0000 0.0000 0.0000
# 4 0.0000 0.0000 0.0000 8.8409 0.0000 0.0000
# 5 0.0000 0.0000 0.0000 0.0000 21.3397 0.0000
# 6 0.0000 0.0000 0.0000 0.0000 0.0000 32.4350
#
#
#
# Elastic Compliance Matrix: (Units=1/GPa)
#
#
# Indices 1 2 3 4 5 6 
#
# 1 0.014342 -0.000792 -0.003654 0.000000 0.000000 0.000000
# 2 -0.000792 0.011862 -0.000116 0.000000 0.000000 0.000000
# 3 -0.003654 -0.000116 0.012908 0.000000 0.000000 0.000000
# 4 0.000000 0.000000 0.000000 0.113111 0.000000 0.000000
# 5 0.000000 0.000000 0.000000 0.000000 0.046861 0.000000
# 6 0.000000 0.000000 0.000000 0.000000 0.000000 0.030831
#
#
# Mechanical properties :
#
#
# Convention : Reuss Voigt Hill
#
# Bulk Modulus (GPa) = 33.34651 33.50097 33.42374
# Shear Modulus (GPa) = 20.07763 26.84291 23.46027
#
# Velocity S-wave (km/s) = 3.35227 3.87612 3.62367
# Velocity P-wave (km/s) = 5.80069 6.22763 6.01795
#
# Compressibility (1/GPa) = 0.02998815
#
# Stress axis : x y z
#
# Youngs Moduli (GPa) = 69.72623 84.30490 77.47324
#
# Poissons Ratio (x) = 0.06676 0.28306
# Poissons Ratio (y) = 0.05522 0.00899
# Poissons Ratio (z) = 0.25475 0.00978
#
# Static dielectric constant tensor:
#      x y z
#    x 1.678170 0.000000 0.000000 
#    y 0.000000 1.647370 0.000000 
#    z 0.000000 0.000000 1.646500 
# 
# From -- ./inp_files/29764.got.cif
#   From: 2010.05.17/outbox.cif.g08.bks.cpg/sg22_15_cif.got.tgz:29764.got - 2010.06.03 23:40:54.
