data_PCOD9328601
_publ_section_title
;
Structure prediction by ZEFSAII (Michael W. Deem and Ramdas Pophale) SiO2 
 PCOD9328601
Probable space group: F 2 2 2
;
_chemical_formula_sum "Si O2"
_cell_formula_units_Z 44
_cell_length_a 5.180125
_cell_length_b 12.949147
_cell_length_c 25.803060
_cell_angle_alpha 90.000000
_cell_angle_beta 90.000000
_cell_angle_gamma 90.000000
_cell_volume 1730.822822
_symmetry_space_group_name_H-M "F 2 2 2"
_symmetry_group_IT_number 22
_symmetry_cell_setting 'orthorhombic'
loop_
_space_group_symop_operation_xyz
x,y,z
-x,-y,z
x,-y,-z
-x,y,-z
x,1/2+y,1/2+z
-x,1/2-y,1/2+z
x,1/2-y,1/2-z
-x,1/2+y,1/2-z
1/2+x,y,1/2+z
1/2-x,-y,1/2+z
1/2+x,-y,1/2-z
1/2-x,y,1/2-z
1/2+x,1/2+y,z
1/2-x,1/2-y,z
1/2+x,1/2-y,-z
1/2-x,1/2+y,-z
loop_
_atom_site_type_symbol
_atom_site_label
_atom_site_fract_x
_atom_site_fract_y
_atom_site_fract_z
Si Si1 0.500000 0.500000 0.500000
Si Si2 0.499166 0.117141 0.786311
Si Si3 0.604308 0.650825 0.943988
Si Si4 0.250000 0.250000 0.369492
O O1 0.303846 0.561535 0.461256
O O2 0.750000 0.124624 0.750000
O O3 0.540124 0.198897 0.831448
O O4 0.250000 0.130435 0.750000
O O5 0.500000 0.000000 0.807695
O O6 0.750000 0.750000 0.923786
O O7 0.364292 0.654751 0.904217
O O8 0.500000 0.682092 0.000000
#
# Coordination Sequence:
#
# PCOD9328601 Si02
#       4
#     4  16  16   8
#     4  12  26  52  84 108 184 222 268 356 418 478
#     4  10  25  53  82 120 163 209 275 346 416 495
#     4  12  25  53  77 120 164 220 279 340 410 508
#     4  12  27  48  88 116 168 218 277 340 430 494
#
# _framework density 25.421434000000001
#
# number of rings (size 3 to 8) (size 9 to 14) (size 15 to 20)
#    0.000    0.727    3.636    1.091    5.091    1.455 
#   19.636    0.000    0.000    0.000    0.000    0.000 
#    0.000    0.000    0.000    0.000    0.000    0.000 
#
# Total GULP energy -61440.190402 kJ/mol
# GULP energy per Si atom -5585.471855 kJ/mol
# Density = 2.536357 g / cm^3
# Si number density = 25.421434 Si / 1000 Ang^3
#
#
#
# Elastic Constant Matrix: (Units=GPa)
#
#
# Indices 1 2 3 4 5 6 
#
# 1 185.5192 57.8340 84.0027 0.0000 0.0000 0.0000
# 2 57.8340 143.5116 73.3963 0.0000 0.0000 0.0000
# 3 84.0027 73.3963 158.0580 0.0000 0.0000 0.0000
# 4 0.0000 0.0000 0.0000 5.4797 0.0000 0.0000
# 5 0.0000 0.0000 0.0000 0.0000 52.7120 0.0000
# 6 0.0000 0.0000 0.0000 0.0000 0.0000 56.5323
#
#
#
# Elastic Compliance Matrix: (Units=1/GPa)
#
#
# Indices 1 2 3 4 5 6 
#
# 1 0.007266 -0.001250 -0.003281 0.000000 0.000000 0.000000
# 2 -0.001250 0.009353 -0.003679 0.000000 0.000000 0.000000
# 3 -0.003281 -0.003679 0.009779 0.000000 0.000000 0.000000
# 4 0.000000 0.000000 0.000000 0.182491 0.000000 0.000000
# 5 0.000000 0.000000 0.000000 0.000000 0.018971 0.000000
# 6 0.000000 0.000000 0.000000 0.000000 0.000000 0.017689
#
#
# Mechanical properties :
#
#
# Convention : Reuss Voigt Hill
#
# Bulk Modulus (GPa) = 100.22143 101.95052 101.08598
# Shear Modulus (GPa) = 18.84696 41.06852 29.95774
#
# Velocity S-wave (km/s) = 2.72578 4.02370 3.43657
# Velocity P-wave (km/s) = 7.02966 7.85990 7.45635
#
# Compressibility (1/GPa) = 0.00997791
#
# Stress axis : x y z
#
# Youngs Moduli (GPa) = 137.63558 106.91312 102.26056
#
# Poissons Ratio (x) = 0.13364 0.33551
# Poissons Ratio (y) = 0.17204 0.37622
# Poissons Ratio (z) = 0.45158 0.39334
#
# Static dielectric constant tensor:
#      x y z
#    x 2.520250 0.000000 0.000000 
#    y 0.000000 1.997190 0.000000 
#    z 0.000000 0.000000 1.827050 
# 
# From -- ./inp_files/50899.got.cif
#   From: 2010.05.17/outbox.cif.g08.bks.cpg/sg22_26_cif.got.tgz:50899.got - 2010.06.03 23:40:54.
