data_PCOD9328143
_publ_section_title
;
Structure prediction by ZEFSAII (Michael W. Deem and Ramdas Pophale) SiO2 
 PCOD9328143
Probable space group: F 2 2 2
;
_chemical_formula_sum "Si O2"
_cell_formula_units_Z 32
_cell_length_a 14.922545
_cell_length_b 12.373457
_cell_length_c 6.521393
_cell_angle_alpha 90.000000
_cell_angle_beta 90.000000
_cell_angle_gamma 90.000000
_cell_volume 1204.132626
_symmetry_space_group_name_H-M "F 2 2 2"
_symmetry_group_IT_number 22
_symmetry_cell_setting 'orthorhombic'
loop_
_space_group_symop_operation_xyz
x,y,z
-x,-y,z
x,-y,-z
-x,y,-z
x,1/2+y,1/2+z
-x,1/2-y,1/2+z
x,1/2-y,1/2-z
-x,1/2+y,1/2-z
1/2+x,y,1/2+z
1/2-x,-y,1/2+z
1/2+x,-y,1/2-z
1/2-x,y,1/2-z
1/2+x,1/2+y,z
1/2-x,1/2-y,z
1/2+x,1/2-y,-z
1/2-x,1/2+y,-z
loop_
_atom_site_type_symbol
_atom_site_label
_atom_site_fract_x
_atom_site_fract_y
_atom_site_fract_z
Si Si1 0.091982 0.565084 0.192705
Si Si2 0.145695 0.224888 0.012621
O O1 0.128596 0.606905 0.414357
O O2 0.000000 0.500000 0.222076
O O3 0.140067 0.500000 0.000000
O O4 0.087043 0.682983 0.092788
O O5 0.131461 0.250000 0.250000
O O6 0.250000 0.250000 0.972413
#
# Coordination Sequence:
#
# PCOD9328143 Si02
#       2
#    16  16
#     4  10  22  44  73 114 151 204 258 318 392 468
#     4  10  23  49  78 112 158 203 260 329 389 468
#
# _framework density 26.575147000000001
#
# number of rings (size 3 to 8) (size 9 to 14) (size 15 to 20)
#    0.000    2.000    0.000    3.000    0.000    4.000 
#   54.000    0.000    0.000    0.000    0.000    0.000 
#    0.000    0.000    0.000    0.000    0.000    0.000 
#
# Total GULP energy -44534.109833 kJ/mol
# GULP energy per Si atom -5566.763729 kJ/mol
# Density = 2.651466 g / cm^3
# Si number density = 26.575147 Si / 1000 Ang^3
#
#
#
# Elastic Constant Matrix: (Units=GPa)
#
#
# Indices 1 2 3 4 5 6 
#
# 1 148.4443 82.4648 34.6174 0.0000 0.0000 0.0001
# 2 82.4648 233.9233 117.3909 0.0001 -0.0001 0.0000
# 3 34.6174 117.3909 240.4374 0.0004 -0.0001 -0.0005
# 4 0.0000 0.0001 0.0004 88.2372 -0.0001 -0.0001
# 5 0.0000 -0.0001 -0.0001 -0.0001 4.9314 0.0000
# 6 0.0001 0.0000 -0.0005 -0.0001 0.0000 16.7511
#
#
#
# Elastic Compliance Matrix: (Units=1/GPa)
#
#
# Indices 1 2 3 4 5 6 
#
# 1 0.008395 -0.003116 0.000313 0.000000 0.000000 0.000000
# 2 -0.003116 0.006819 -0.002881 0.000000 0.000000 0.000000
# 3 0.000313 -0.002881 0.005521 0.000000 0.000000 0.000000
# 4 0.000000 0.000000 0.000000 0.011333 0.000000 0.000000
# 5 0.000000 0.000000 0.000000 0.000000 0.202781 0.000000
# 6 0.000000 0.000000 0.000000 0.000000 0.000000 0.059698
#
#
# Mechanical properties :
#
#
# Convention : Reuss Voigt Hill
#
# Bulk Modulus (GPa) = 106.76861 121.30568 114.03715
# Shear Modulus (GPa) = 16.17931 47.87274 32.02603
#
# Velocity S-wave (km/s) = 2.47009 4.24891 3.47524
# Velocity P-wave (km/s) = 6.95690 8.35562 7.68813
#
# Compressibility (1/GPa) = 0.00936605
#
# Stress axis : x y z
#
# Youngs Moduli (GPa) = 119.12084 146.64520 181.14298
#
# Poissons Ratio (x) = 0.45701 -0.05668
# Poissons Ratio (y) = 0.37123 0.52182
# Poissons Ratio (z) = -0.03727 0.42244
#
# Static dielectric constant tensor:
#      x y z
#    x 2.131150 0.000000 0.000000 
#    y 0.000000 2.037330 0.000000 
#    z 0.000000 0.000000 2.522310 
# 
# From -- ./inp_files/7650.got.cif
#   From: 2010.05.17/outbox.cif.g08.bks.cpg/sg22_4_cif.got.tgz:7650.got - 2010.06.03 23:40:54.
