data_PCOD9328656
_publ_section_title
;
Structure prediction by ZEFSAII (Michael W. Deem and Ramdas Pophale) SiO2 
 PCOD9328656
Probable space group: F 2 2 2
;
_chemical_formula_sum "Si O2"
_cell_formula_units_Z 48
_cell_length_a 5.743604
_cell_length_b 13.105875
_cell_length_c 25.332966
_cell_angle_alpha 90.000000
_cell_angle_beta 90.000000
_cell_angle_gamma 90.000000
_cell_volume 1906.937903
_symmetry_space_group_name_H-M "F 2 2 2"
_symmetry_group_IT_number 22
_symmetry_cell_setting 'orthorhombic'
loop_
_space_group_symop_operation_xyz
x,y,z
-x,-y,z
x,-y,-z
-x,y,-z
x,1/2+y,1/2+z
-x,1/2-y,1/2+z
x,1/2-y,1/2-z
-x,1/2+y,1/2-z
1/2+x,y,1/2+z
1/2-x,-y,1/2+z
1/2+x,-y,1/2-z
1/2-x,y,1/2-z
1/2+x,1/2+y,z
1/2-x,1/2-y,z
1/2+x,1/2-y,-z
1/2-x,1/2+y,-z
loop_
_atom_site_type_symbol
_atom_site_label
_atom_site_fract_x
_atom_site_fract_y
_atom_site_fract_z
Si Si1 0.111384 0.644628 0.326728
Si Si2 0.250000 0.750000 0.750000
Si Si3 0.265405 0.869946 0.585496
Si Si4 0.000000 0.000000 0.500000
Si Si5 0.000000 0.000000 0.667986
O O1 0.250000 0.750000 0.331184
O O2 0.275942 0.553375 0.306914
O O3 0.907819 0.677090 0.286407
O O4 0.012467 0.615074 0.384746
O O5 0.250000 0.750000 0.575193
O O6 0.089975 0.908765 0.630688
O O7 0.174908 0.931545 0.535193
#
# Coordination Sequence:
#
# PCOD9328656 Si02
#       5
#    16   4  16   4   8
#     4  12  24  49  89 117 172 229 284 353 429 510
#     4  12  26  48  92 126 168 240 284 348 438 518
#     4  11  23  52  81 114 165 220 278 356 417 509
#     4  10  28  52  82 124 164 224 290 348 438 498
#     4  11  24  47  86 112 156 228 276 353 429 490
#
# _framework density 25.171247000000001
#
# number of rings (size 3 to 8) (size 9 to 14) (size 15 to 20)
#    0.000    0.667    5.000    1.500    0.000    0.000 
#   18.000    1.667  124.667    0.000    0.000    0.000 
#    0.000    0.000    0.000    0.000    0.000    0.000 
#
# Total GULP energy -67158.672569 kJ/mol
# GULP energy per Si atom -5596.556047 kJ/mol
# Density = 2.511396 g / cm^3
# Si number density = 25.171247 Si / 1000 Ang^3
#
#
#
# Elastic Constant Matrix: (Units=GPa)
#
#
# Indices 1 2 3 4 5 6 
#
# 1 164.9090 99.2779 89.1666 0.0000 0.0000 0.0000
# 2 99.2779 236.3786 99.1551 0.0000 0.0000 0.0000
# 3 89.1666 99.1551 164.3883 0.0000 0.0000 0.0000
# 4 0.0000 0.0000 0.0000 30.9664 0.0000 0.0000
# 5 0.0000 0.0000 0.0000 0.0000 20.5124 0.0000
# 6 0.0000 0.0000 0.0000 0.0000 0.0000 76.0057
#
#
#
# Elastic Compliance Matrix: (Units=1/GPa)
#
#
# Indices 1 2 3 4 5 6 
#
# 1 0.009540 -0.002458 -0.003692 0.000000 0.000000 0.000000
# 2 -0.002458 0.006297 -0.002465 0.000000 0.000000 0.000000
# 3 -0.003692 -0.002465 0.009572 0.000000 0.000000 0.000000
# 4 0.000000 0.000000 0.000000 0.032293 0.000000 0.000000
# 5 0.000000 0.000000 0.000000 0.000000 0.048751 0.000000
# 6 0.000000 0.000000 0.000000 0.000000 0.000000 0.013157
#
#
# Mechanical properties :
#
#
# Convention : Reuss Voigt Hill
#
# Bulk Modulus (GPa) = 122.25582 126.76389 124.50986
# Shear Modulus (GPa) = 35.82520 44.03532 39.93026
#
# Velocity S-wave (km/s) = 3.77670 4.18716 3.98721
# Velocity P-wave (km/s) = 8.22758 8.59339 8.41247
#
# Compressibility (1/GPa) = 0.00817957
#
# Stress axis : x y z
#
# Youngs Moduli (GPa) = 104.82167 158.81102 104.46641
#
# Poissons Ratio (x) = 0.39037 0.38569
# Poissons Ratio (y) = 0.25766 0.25749
# Poissons Ratio (z) = 0.38700 0.39144
#
# Static dielectric constant tensor:
#      x y z
#    x 0.835570 0.000000 0.000000 
#    y 0.000000 1.961840 0.000000 
#    z 0.000000 0.000000 1.974350 
# 
# From -- ./inp_files/54662.got.cif
#   From: 2010.05.17/outbox.cif.g08.bks.cpg/sg22_28_cif.got.tgz:54662.got - 2010.06.03 23:40:54.
