data_PCOD9328328
_publ_section_title
;
Structure prediction by ZEFSAII (Michael W. Deem and Ramdas Pophale) SiO2 
 PCOD9328328
Probable space group: F 2 2 2
;
_chemical_formula_sum "Si O2"
_cell_formula_units_Z 52
_cell_length_a 22.973851
_cell_length_b 20.892850
_cell_length_c 4.643596
_cell_angle_alpha 90.000000
_cell_angle_beta 90.000000
_cell_angle_gamma 90.000000
_cell_volume 2228.876035
_symmetry_space_group_name_H-M "F 2 2 2"
_symmetry_group_IT_number 22
_symmetry_cell_setting 'orthorhombic'
loop_
_space_group_symop_operation_xyz
x,y,z
-x,-y,z
x,-y,-z
-x,y,-z
x,1/2+y,1/2+z
-x,1/2-y,1/2+z
x,1/2-y,1/2-z
-x,1/2+y,1/2-z
1/2+x,y,1/2+z
1/2-x,-y,1/2+z
1/2+x,-y,1/2-z
1/2-x,y,1/2-z
1/2+x,1/2+y,z
1/2-x,1/2-y,z
1/2+x,1/2-y,-z
1/2-x,1/2+y,-z
loop_
_atom_site_type_symbol
_atom_site_label
_atom_site_fract_x
_atom_site_fract_y
_atom_site_fract_z
Si Si1 0.063612 0.814724 0.875986
Si Si2 0.500000 0.500000 0.000000
Si Si3 0.417072 0.904626 0.131131
Si Si4 0.807403 0.454469 0.763254
O O1 0.090517 0.750000 0.750000
O O2 0.053194 0.864274 0.621068
O O3 0.098582 0.853097 0.120607
O O4 0.000000 0.797952 0.000000
O O5 0.457754 0.456897 0.794269
O O6 0.361678 0.929054 0.949014
O O7 0.830402 0.500000 0.500000
O O8 0.750000 0.407698 0.750000
O O9 0.777958 0.500000 0.000000
#
# Coordination Sequence:
#
# PCOD9328328 Si02
#       4
#    16   4  16  16
#     4  12  26  45  68  99 142 202 254 291 358 448
#     4  12  32  42  66 116 166 196 226 288 410 456
#     4  12  27  43  68 104 156 196 238 310 370 455
#     4  10  23  43  68 102 147 195 246 299 365 451
#
# _framework density 23.330144000000001
#
# number of rings (size 3 to 8) (size 9 to 14) (size 15 to 20)
#    0.000    0.615    1.538    5.538    6.462    3.692 
#    0.000    0.000    0.000    0.923    0.000    8.615 
#    0.000    0.000    0.000    0.000    0.000    0.000 
#
# Total GULP energy -72387.631148 kJ/mol
# GULP energy per Si atom -5568.279319 kJ/mol
# Density = 2.327704 g / cm^3
# Si number density = 23.330144 Si / 1000 Ang^3
#
#
#
# Elastic Constant Matrix: (Units=GPa)
#
#
# Indices 1 2 3 4 5 6 
#
# 1 139.3282 64.9138 64.1048 0.0493 -0.0066 0.0591
# 2 64.9138 104.6097 68.6674 0.0963 -0.0624 0.0763
# 3 64.1048 68.6674 209.0091 0.1989 -0.0797 0.1320
# 4 0.0493 0.0963 0.1989 70.0580 -0.0589 0.0200
# 5 -0.0066 -0.0624 -0.0797 -0.0589 26.8100 -0.0292
# 6 0.0591 0.0763 0.1320 0.0200 -0.0292 15.6696
#
#
#
# Elastic Compliance Matrix: (Units=1/GPa)
#
#
# Indices 1 2 3 4 5 6 
#
# 1 0.010392 -0.005554 -0.001363 0.000004 -0.000014 -0.000001
# 2 -0.005554 0.015156 -0.003276 -0.000008 0.000024 -0.000025
# 3 -0.001363 -0.003276 0.006279 -0.000012 0.000011 -0.000032
# 4 0.000004 -0.000008 -0.000012 0.014274 0.000031 -0.000018
# 5 -0.000014 0.000024 0.000011 0.000031 0.037300 0.000069
# 6 -0.000001 -0.000025 -0.000032 -0.000018 0.000069 0.063819
#
#
# Mechanical properties :
#
#
# Convention : Reuss Voigt Hill
#
# Bulk Modulus (GPa) = 87.39953 94.25766 90.82859
# Shear Modulus (GPa) = 29.16847 39.52494 34.34670
#
# Velocity S-wave (km/s) = 3.53972 4.12048 3.84109
# Velocity P-wave (km/s) = 7.36543 7.94526 7.66083
#
# Compressibility (1/GPa) = 0.01144171
#
# Stress axis : x y z
#
# Youngs Moduli (GPa) = 96.22868 65.97944 159.26954
#
# Poissons Ratio (x) = 0.36646 0.21701
# Poissons Ratio (y) = 0.53447 0.52174
# Poissons Ratio (z) = 0.13112 0.21614
#
# Static dielectric constant tensor:
#      x y z
#    x 2.158410 0.000020 -0.000160 
#    y 0.000020 1.994460 -0.000130 
#    z -0.000160 -0.000130 1.747350 
# 
# From -- ./inp_files/3308.got.cif
#   From: 2010.05.17/outbox.cif.g08.bks.cpg/sg22_2_cif.got.tgz:3308.got - 2010.06.03 23:40:54.
