data_PCOD9328127
_publ_section_title
;
Structure prediction by ZEFSAII (Michael W. Deem and Ramdas Pophale) SiO2 
 PCOD9328127
Probable space group: F 2 2 2
;
_chemical_formula_sum "Si O2"
_cell_formula_units_Z 92
_cell_length_a 24.956222
_cell_length_b 9.711682
_cell_length_c 18.826534
_cell_angle_alpha 90.000000
_cell_angle_beta 90.000000
_cell_angle_gamma 90.000000
_cell_volume 4562.928532
_symmetry_space_group_name_H-M "F 2 2 2"
_symmetry_group_IT_number 22
_symmetry_cell_setting 'orthorhombic'
loop_
_space_group_symop_operation_xyz
x,y,z
-x,-y,z
x,-y,-z
-x,y,-z
x,1/2+y,1/2+z
-x,1/2-y,1/2+z
x,1/2-y,1/2-z
-x,1/2+y,1/2-z
1/2+x,y,1/2+z
1/2-x,-y,1/2+z
1/2+x,-y,1/2-z
1/2-x,y,1/2-z
1/2+x,1/2+y,z
1/2-x,1/2-y,z
1/2+x,1/2-y,-z
1/2-x,1/2+y,-z
loop_
_atom_site_type_symbol
_atom_site_label
_atom_site_fract_x
_atom_site_fract_y
_atom_site_fract_z
Si Si1 0.500000 0.000000 0.500000
Si Si2 0.097617 0.628349 0.412569
Si Si3 0.250000 0.750000 0.922916
Si Si4 0.192726 0.000000 0.000000
Si Si5 0.594730 0.928154 0.290681
Si Si6 0.500000 0.500000 0.693491
Si Si7 0.077769 0.064395 0.573814
Si Si8 0.356953 0.336249 0.346555
O O1 0.541799 0.084655 0.451091
O O2 0.150679 0.553012 0.441186
O O3 0.093513 0.571796 0.332216
O O4 0.104844 0.787649 0.431545
O O5 0.228772 0.876460 0.970360
O O6 0.299240 0.795379 0.873720
O O7 0.540646 0.919765 0.244425
O O8 0.605048 0.800117 0.343366
O O9 0.640697 0.905006 0.231608
O O10 0.534844 0.586836 0.637291
O O11 0.057303 0.000000 0.500000
O O12 0.117825 0.948193 0.601704
#
# Coordination Sequence:
#
# PCOD9328127 Si02
#       8
#     4  16   8   8  16   8  16  16
#     4  10  26  36  70  94 144 196 212 274 348 400
#     4  11  24  45  66 102 142 179 231 283 339 422
#     4  12  24  47  74 102 131 184 218 304 350 416
#     4  11  26  43  72 104 132 171 236 279 358 414
#     4  10  22  44  67  98 136 181 233 274 332 423
#     4  10  24  40  66  98 136 190 228 272 336 410
#     4  11  25  40  66 100 145 178 228 291 333 405
#     4  10  24  43  71  99 137 175 235 280 348 408
#
# _framework density 20.162489999999998
#
# number of rings (size 3 to 8) (size 9 to 14) (size 15 to 20)
#    0.000    1.391    1.739    1.826    8.522   12.522 
#    0.000    0.000    0.000    0.000    0.000    0.000 
#    0.000    0.000    0.000    0.000    0.000    0.000 
#
# Total GULP energy -128307.599744 kJ/mol
# GULP energy per Si atom -5578.591293 kJ/mol
# Density = 2.011660 g / cm^3
# Si number density = 20.162490 Si / 1000 Ang^3
#
#
#
# Elastic Constant Matrix: (Units=GPa)
#
#
# Indices 1 2 3 4 5 6 
#
# 1 119.5821 56.0561 59.3120 0.0000 0.0000 0.0000
# 2 56.0561 127.3358 65.3589 0.0000 0.0000 0.0000
# 3 59.3120 65.3589 95.7046 0.0000 0.0000 0.0000
# 4 0.0000 0.0000 0.0000 27.3180 0.0000 0.0000
# 5 0.0000 0.0000 0.0000 0.0000 17.4916 0.0000
# 6 0.0000 0.0000 0.0000 0.0000 0.0000 10.5069
#
#
#
# Elastic Compliance Matrix: (Units=1/GPa)
#
#
# Indices 1 2 3 4 5 6 
#
# 1 0.012516 -0.002353 -0.006149 0.000000 0.000000 0.000000
# 2 -0.002353 0.012534 -0.007101 0.000000 0.000000 0.000000
# 3 -0.006149 -0.007101 0.019110 0.000000 0.000000 0.000000
# 4 0.000000 0.000000 0.000000 0.036606 0.000000 0.000000
# 5 0.000000 0.000000 0.000000 0.000000 0.057170 0.000000
# 6 0.000000 0.000000 0.000000 0.000000 0.000000 0.095176
#
#
# Mechanical properties :
#
#
# Convention : Reuss Voigt Hill
#
# Bulk Modulus (GPa) = 77.21280 78.23072 77.72176
# Shear Modulus (GPa) = 18.61248 21.85632 20.23440
#
# Velocity S-wave (km/s) = 3.04159 3.29600 3.17135
# Velocity P-wave (km/s) = 7.12134 7.30542 7.21397
#
# Compressibility (1/GPa) = 0.01295122
#
# Stress axis : x y z
#
# Youngs Moduli (GPa) = 79.89998 79.78099 52.32983
#
# Poissons Ratio (x) = 0.18775 0.32179
# Poissons Ratio (y) = 0.18803 0.37162
# Poissons Ratio (z) = 0.49133 0.56656
#
# Static dielectric constant tensor:
#      x y z
#    x 1.703470 0.000000 0.000000 
#    y 0.000000 1.734610 0.000000 
#    z 0.000000 0.000000 1.766530 
# 
# From -- ./inp_files/45283.got.cif
#   From: 2010.05.17/outbox.cif.g08.bks.cpg/sg22_23_cif.got.tgz:45283.got - 2010.06.03 23:40:54.
