data_PCOD9328957
_publ_section_title
;
Structure prediction by ZEFSAII (Michael W. Deem and Ramdas Pophale) SiO2 
 PCOD9328957
Probable space group: F 2 2 2
;
_chemical_formula_sum "Si O2"
_cell_formula_units_Z 116
_cell_length_a 9.500813
_cell_length_b 22.418996
_cell_length_c 25.148554
_cell_angle_alpha 90.000000
_cell_angle_beta 90.000000
_cell_angle_gamma 90.000000
_cell_volume 5356.609023
_symmetry_space_group_name_H-M "F 2 2 2"
_symmetry_group_IT_number 22
_symmetry_cell_setting 'orthorhombic'
loop_
_space_group_symop_operation_xyz
x,y,z
-x,-y,z
x,-y,-z
-x,y,-z
x,1/2+y,1/2+z
-x,1/2-y,1/2+z
x,1/2-y,1/2-z
-x,1/2+y,1/2-z
1/2+x,y,1/2+z
1/2-x,-y,1/2+z
1/2+x,-y,1/2-z
1/2-x,y,1/2-z
1/2+x,1/2+y,z
1/2-x,1/2-y,z
1/2+x,1/2-y,-z
1/2-x,1/2+y,-z
loop_
_atom_site_type_symbol
_atom_site_label
_atom_site_fract_x
_atom_site_fract_y
_atom_site_fract_z
Si Si1 0.164391 0.125444 0.162672
Si Si2 0.567629 0.686281 0.347599
Si Si3 0.793663 0.376335 0.187759
Si Si4 0.000000 0.500000 0.500000
Si Si5 0.361392 0.304560 0.467181
Si Si6 0.325703 0.494615 0.307740
Si Si7 0.378157 0.884836 0.538708
Si Si8 0.441418 0.703777 0.199314
O O1 0.283044 0.173197 0.177820
O O2 0.115042 0.131504 0.101156
O O3 0.035681 0.142794 0.201848
O O4 0.251862 0.063269 0.166262
O O5 0.451796 0.643339 0.322518
O O6 0.585047 0.676006 0.409498
O O7 0.523020 0.753630 0.340145
O O8 0.750000 0.377771 0.250000
O O9 0.775608 0.442770 0.165987
O O10 0.698700 0.320428 0.171197
O O11 0.903677 0.455558 0.534124
O O12 0.500000 0.290205 0.500000
O O13 0.250000 0.250000 0.463492
O O14 0.267192 0.360621 0.485392
O O15 0.500000 0.500000 0.304763
O O16 0.250000 0.494017 0.250000
O O17 0.500000 0.859540 0.500000
O O18 0.421916 0.750000 0.250000
#
# Coordination Sequence:
#
# PCOD9328957 Si02
#       8
#    16  16  16   4  16  16  16  16
#     4  11  25  43  70 102 135 189 235 285 356 420
#     4  11  23  44  65  95 137 180 227 284 351 420
#     4  11  24  44  64  94 140 186 229 291 345 406
#     4   8  20  44  78 100 144 176 226 306 368 424
#     4  11  24  43  70 103 141 183 235 294 361 431
#     4  11  26  45  65  95 142 187 240 287 341 420
#     4   9  21  46  72 103 141 176 239 297 357 438
#     4  12  26  41  66  99 141 181 234 289 343 420
#
# _framework density 21.655491999999999
#
# number of rings (size 3 to 8) (size 9 to 14) (size 15 to 20)
#    0.414    0.828    2.759    2.897    5.793    3.862 
#    2.483    0.345    0.000    0.000    0.000    0.000 
#    0.000    0.000    0.000    0.000    0.000    0.000 
#
# Total GULP energy -161446.042446 kJ/mol
# GULP energy per Si atom -5567.104912 kJ/mol
# Density = 2.160620 g / cm^3
# Si number density = 21.655492 Si / 1000 Ang^3
#
#
#
# Elastic Constant Matrix: (Units=GPa)
#
#
# Indices 1 2 3 4 5 6 
#
# 1 136.7075 41.6763 53.0750 0.0000 0.0000 0.0000
# 2 41.6763 127.7742 14.6646 0.0000 0.0000 0.0000
# 3 53.0750 14.6646 58.7943 0.0000 0.0000 0.0000
# 4 0.0000 0.0000 0.0000 14.7918 0.0000 0.0000
# 5 0.0000 0.0000 0.0000 0.0000 30.6870 0.0000
# 6 0.0000 0.0000 0.0000 0.0000 0.0000 39.9146
#
#
#
# Elastic Compliance Matrix: (Units=1/GPa)
#
#
# Indices 1 2 3 4 5 6 
#
# 1 0.012154 -0.002785 -0.010277 0.000000 0.000000 0.000000
# 2 -0.002785 0.008695 0.000345 0.000000 0.000000 0.000000
# 3 -0.010277 0.000345 0.026200 0.000000 0.000000 0.000000
# 4 0.000000 0.000000 0.000000 0.067605 0.000000 0.000000
# 5 0.000000 0.000000 0.000000 0.000000 0.032587 0.000000
# 6 0.000000 0.000000 0.000000 0.000000 0.000000 0.025054
#
#
# Mechanical properties :
#
#
# Convention : Reuss Voigt Hill
#
# Bulk Modulus (GPa) = 46.26357 60.23421 53.24889
# Shear Modulus (GPa) = 24.39834 31.33601 27.86718
#
# Velocity S-wave (km/s) = 3.36021 3.80810 3.59115
# Velocity P-wave (km/s) = 6.03859 6.87100 6.46820
#
# Compressibility (1/GPa) = 0.02161528
#
# Stress axis : x y z
#
# Youngs Moduli (GPa) = 82.27953 115.00870 38.16863
#
# Poissons Ratio (x) = 0.32027 0.39225
# Poissons Ratio (y) = 0.22912 -0.01317
# Poissons Ratio (z) = 0.84557 -0.03969
#
# Static dielectric constant tensor:
#      x y z
#    x 1.892930 0.000000 0.000000 
#    y 0.000000 1.913380 0.000000 
#    z 0.000000 0.000000 1.799190 
# 
# From -- ./inp_files/52143.got.cif
#   From: 2010.05.17/outbox.cif.g08.bks.cpg/sg22_27_cif.got.tgz:52143.got - 2010.06.03 23:40:54.
