data_PCOD9328134
_publ_section_title
;
Structure prediction by ZEFSAII (Michael W. Deem and Ramdas Pophale) SiO2 
 PCOD9328134
Probable space group: F 2 2 2
;
_chemical_formula_sum "Si O2"
_cell_formula_units_Z 56
_cell_length_a 20.916137
_cell_length_b 16.799525
_cell_length_c 7.230349
_cell_angle_alpha 90.000000
_cell_angle_beta 90.000000
_cell_angle_gamma 90.000000
_cell_volume 2540.608465
_symmetry_space_group_name_H-M "F 2 2 2"
_symmetry_group_IT_number 22
_symmetry_cell_setting 'orthorhombic'
loop_
_space_group_symop_operation_xyz
x,y,z
-x,-y,z
x,-y,-z
-x,y,-z
x,1/2+y,1/2+z
-x,1/2-y,1/2+z
x,1/2-y,1/2-z
-x,1/2+y,1/2-z
1/2+x,y,1/2+z
1/2-x,-y,1/2+z
1/2+x,-y,1/2-z
1/2-x,y,1/2-z
1/2+x,1/2+y,z
1/2-x,1/2-y,z
1/2+x,1/2-y,-z
1/2-x,1/2+y,-z
loop_
_atom_site_type_symbol
_atom_site_label
_atom_site_fract_x
_atom_site_fract_y
_atom_site_fract_z
Si Si1 0.377863 0.321508 0.381053
Si Si2 0.817198 0.903847 0.684408
Si Si3 0.929247 0.521317 0.282847
Si Si4 0.120359 0.250000 0.750000
O O1 0.359644 0.250000 0.250000
O O2 0.318699 0.366864 0.478929
O O3 0.416368 0.387434 0.268257
O O4 0.412889 0.284169 0.565286
O O5 0.750000 0.936521 0.750000
O O6 0.836335 0.825985 0.806394
O O7 0.874327 0.966272 0.696404
O O8 0.926608 0.500000 0.500000
O O9 0.000000 0.500000 0.216949
#
# Coordination Sequence:
#
# PCOD9328134 Si02
#       4
#    16  16  16   8
#     4  10  22  44  73 102 141 190 237 297 367 426
#     4  10  22  44  70 102 145 182 241 301 355 436
#     4  11  25  46  69 104 147 194 247 299 358 430
#     4   8  21  40  68 102 140 178 235 294 359 418
#
# _framework density 22.041962000000002
#
# number of rings (size 3 to 8) (size 9 to 14) (size 15 to 20)
#    1.714    0.286    0.000    3.000    0.000    4.571 
#    2.571    8.571    0.000    0.000    0.000    0.000 
#    0.000    0.000    0.000    0.000    0.000    0.000 
#
# Total GULP energy -77979.318279 kJ/mol
# GULP energy per Si atom -5569.951306 kJ/mol
# Density = 2.199179 g / cm^3
# Si number density = 22.041962 Si / 1000 Ang^3
#
#
#
# Elastic Constant Matrix: (Units=GPa)
#
#
# Indices 1 2 3 4 5 6 
#
# 1 136.0973 63.2674 38.0618 0.0000 0.0000 0.0000
# 2 63.2674 95.6972 42.2783 0.0000 0.0000 0.0000
# 3 38.0618 42.2783 141.9506 -0.0001 0.0000 0.0000
# 4 0.0000 0.0000 -0.0001 50.4643 0.0000 0.0000
# 5 0.0000 0.0000 0.0000 0.0000 7.5908 0.0000
# 6 0.0000 0.0000 0.0000 0.0000 0.0000 6.8052
#
#
#
# Elastic Compliance Matrix: (Units=1/GPa)
#
#
# Indices 1 2 3 4 5 6 
#
# 1 0.010702 -0.006688 -0.000878 0.000000 0.000000 0.000000
# 2 -0.006688 0.016212 -0.003035 0.000000 0.000000 0.000000
# 3 -0.000878 -0.003035 0.008184 0.000000 0.000000 0.000000
# 4 0.000000 0.000000 0.000000 0.019816 0.000000 0.000000
# 5 0.000000 0.000000 0.000000 0.000000 0.131738 0.000000
# 6 0.000000 0.000000 0.000000 0.000000 0.000000 0.146947
#
#
# Mechanical properties :
#
#
# Convention : Reuss Voigt Hill
#
# Bulk Modulus (GPa) = 71.95964 73.44002 72.69983
# Shear Modulus (GPa) = 13.91085 28.31457 21.11271
#
# Velocity S-wave (km/s) = 2.51491 3.58799 3.09826
# Velocity P-wave (km/s) = 6.41487 7.11024 6.77149
#
# Compressibility (1/GPa) = 0.01389668
#
# Stress axis : x y z
#
# Youngs Moduli (GPa) = 93.44070 61.68322 122.18795
#
# Poissons Ratio (x) = 0.41251 0.10725
# Poissons Ratio (y) = 0.62488 0.37088
# Poissons Ratio (z) = 0.08202 0.18723
#
# Static dielectric constant tensor:
#      x y z
#    x 1.799230 0.000000 0.000000 
#    y 0.000000 1.827440 0.000000 
#    z 0.000000 0.000000 1.923210 
# 
# From -- ./inp_files/12091.got.cif
#   From: 2010.05.17/outbox.cif.g08.bks.cpg/sg22_7_cif.got.tgz:12091.got - 2010.06.03 23:40:54.
