data_PCOD9328501
_publ_section_title
;
Structure prediction by ZEFSAII (Michael W. Deem and Ramdas Pophale) SiO2 
 PCOD9328501
Probable space group: F 2 2 2
;
_chemical_formula_sum "Si O2"
_cell_formula_units_Z 56
_cell_length_a 13.447657
_cell_length_b 30.192851
_cell_length_c 5.628940
_cell_angle_alpha 90.000000
_cell_angle_beta 90.000000
_cell_angle_gamma 90.000000
_cell_volume 2285.479692
_symmetry_space_group_name_H-M "F 2 2 2"
_symmetry_group_IT_number 22
_symmetry_cell_setting 'orthorhombic'
loop_
_space_group_symop_operation_xyz
x,y,z
-x,-y,z
x,-y,-z
-x,y,-z
x,1/2+y,1/2+z
-x,1/2-y,1/2+z
x,1/2-y,1/2-z
-x,1/2+y,1/2-z
1/2+x,y,1/2+z
1/2-x,-y,1/2+z
1/2+x,-y,1/2-z
1/2-x,y,1/2-z
1/2+x,1/2+y,z
1/2-x,1/2-y,z
1/2+x,1/2-y,-z
1/2-x,1/2+y,-z
loop_
_atom_site_type_symbol
_atom_site_label
_atom_site_fract_x
_atom_site_fract_y
_atom_site_fract_z
Si Si1 0.355797 0.457008 0.360371
Si Si2 0.888913 0.630350 0.888367
Si Si3 0.620460 0.226283 0.000430
Si Si4 0.500000 0.408909 0.000000
O O1 0.389843 0.500000 0.500000
O O2 0.250000 0.468845 0.250000
O O3 0.337059 0.414089 0.524981
O O4 0.439689 0.440508 0.177674
O O5 0.841068 0.675913 0.972206
O O6 0.916563 0.623312 0.613922
O O7 0.000000 0.629674 0.000000
O O8 0.645368 0.250000 0.250000
O O9 0.500000 0.223984 0.000000
O O10 0.646148 0.250000 0.750000
#
# Coordination Sequence:
#
# PCOD9328501 Si02
#       4
#    16  16  16   8
#     4  11  27  46  67 101 134 182 239 294 366 435
#     4   9  21  38  64  98 132 183 226 285 356 424
#     4   9  18  30  57  96 138 177 228 287 346 422
#     4  10  24  45  72  94 146 178 240 296 359 438
#
# _framework density 24.502514999999999
#
# number of rings (size 3 to 8) (size 9 to 14) (size 15 to 20)
#    0.000    2.286    0.000    0.000   18.000    6.286 
#    0.000    0.000    0.000    0.857    0.000    0.000 
#    0.000    0.000    0.000    0.000    0.000    0.000 
#
# Total GULP energy -78245.384571 kJ/mol
# GULP energy per Si atom -5588.956041 kJ/mol
# Density = 2.444675 g / cm^3
# Si number density = 24.502515 Si / 1000 Ang^3
#
#
#
# Elastic Constant Matrix: (Units=GPa)
#
#
# Indices 1 2 3 4 5 6 
#
# 1 86.9982 23.0943 19.5221 0.0000 0.0000 -0.0001
# 2 23.0943 218.4184 108.1058 0.0000 0.0000 0.0000
# 3 19.5221 108.1058 155.3461 0.0000 0.0001 -0.0003
# 4 0.0000 0.0000 0.0000 28.8667 0.0000 0.0001
# 5 0.0000 0.0000 0.0001 0.0000 -3.5120 0.0002
# 6 -0.0001 0.0000 -0.0003 0.0001 0.0002 -50.2171
#
#
#
# Elastic Compliance Matrix: (Units=1/GPa)
#
#
# Indices 1 2 3 4 5 6 
#
# 1 0.011917 -0.000791 -0.000947 0.000000 0.000000 0.000000
# 2 -0.000791 0.007036 -0.004797 0.000000 0.000000 0.000000
# 3 -0.000947 -0.004797 0.009895 0.000000 0.000000 0.000000
# 4 0.000000 0.000000 0.000000 0.034642 0.000000 0.000000
# 5 0.000000 0.000000 0.000000 0.000000 -0.284742 -0.000001
# 6 0.000000 0.000000 0.000000 0.000000 -0.000001 -0.019914
#
#
# Mechanical properties :
#
#
# Convention : Reuss Voigt Hill
#
# Bulk Modulus (GPa) = 63.38278 84.68967 74.03622
# Shear Modulus (GPa) = -22.43808 15.69691 -3.37059
#
# Velocity S-wave (km/s) = -3.02941 2.53380 -1.17414
# Velocity P-wave (km/s) = 3.69967 6.57259 5.33322
#
# Compressibility (1/GPa) = 0.01577716
#
# Stress axis : x y z
#
# Youngs Moduli (GPa) = 83.91339 142.11787 101.06507
#
# Poissons Ratio (x) = 0.11247 0.09569
# Poissons Ratio (y) = 0.06641 0.48483
# Poissons Ratio (z) = 0.07945 0.68177
#
# Static dielectric constant tensor:
#      x y z
#    x 1.945010 0.000000 0.000000 
#    y 0.000000 1.924640 0.000000 
#    z 0.000000 0.000000 2.100880 
# 
# From -- ./inp_files/1857.got.cif
#   From: 2010.05.17/outbox.cif.g08.bks.cpg/sg22_1_cif.got.tgz:1857.got - 2010.06.03 23:40:54.
