data_PCOD9328439
_publ_section_title
;
Structure prediction by ZEFSAII (Michael W. Deem and Ramdas Pophale) SiO2 
 PCOD9328439
Probable space group: F 2 2 2
;
_chemical_formula_sum "Si O2"
_cell_formula_units_Z 120
_cell_length_a 11.947705
_cell_length_b 24.643658
_cell_length_c 20.650577
_cell_angle_alpha 90.000000
_cell_angle_beta 90.000000
_cell_angle_gamma 90.000000
_cell_volume 6080.255859
_symmetry_space_group_name_H-M "F 2 2 2"
_symmetry_group_IT_number 22
_symmetry_cell_setting 'orthorhombic'
loop_
_space_group_symop_operation_xyz
x,y,z
-x,-y,z
x,-y,-z
-x,y,-z
x,1/2+y,1/2+z
-x,1/2-y,1/2+z
x,1/2-y,1/2-z
-x,1/2+y,1/2-z
1/2+x,y,1/2+z
1/2-x,-y,1/2+z
1/2+x,-y,1/2-z
1/2-x,y,1/2-z
1/2+x,1/2+y,z
1/2-x,1/2-y,z
1/2+x,1/2-y,-z
1/2-x,1/2+y,-z
loop_
_atom_site_type_symbol
_atom_site_label
_atom_site_fract_x
_atom_site_fract_y
_atom_site_fract_z
Si Si1 0.533775 0.438013 0.094655
Si Si2 0.864365 0.236830 0.957376
Si Si3 0.558713 0.298236 0.418165
Si Si4 0.574682 0.911392 0.060072
Si Si5 0.625822 0.695957 0.721391
Si Si6 0.616847 0.579907 0.759426
Si Si7 0.833059 0.112578 0.976890
Si Si8 0.500000 0.500000 0.339310
O O1 0.500000 0.500000 0.082767
O O2 0.580458 0.431950 0.167074
O O3 0.418966 0.405778 0.079489
O O4 0.624937 0.417644 0.041965
O O5 0.750000 0.250000 0.921882
O O6 0.856993 0.176551 0.984349
O O7 0.969223 0.249542 0.912647
O O8 0.877445 0.280149 0.016631
O O9 0.489616 0.354699 0.422297
O O10 0.634534 0.300841 0.355755
O O11 0.703518 0.899732 0.039921
O O12 0.565574 0.956725 0.115706
O O13 0.500000 0.931984 0.000000
O O14 0.570063 0.750000 0.750000
O O15 0.750000 0.694657 0.750000
O O16 0.570029 0.639368 0.740693
O O17 0.750000 0.581640 0.750000
O O18 0.575226 0.535676 0.708498
#
# Coordination Sequence:
#
# PCOD9328439 Si02
#       8
#    16  16  16  16  16  16  16   8
#     4  11  25  45  70  98 133 174 230 285 335 404
#     4  11  22  38  67  96 134 180 209 277 344 397
#     4  11  21  40  63  97 144 166 227 277 332 421
#     4  12  25  43  67 104 139 182 232 279 345 411
#     4  10  24  41  66  99 130 175 220 281 336 399
#     4  11  26  45  69  97 133 183 230 281 344 410
#     4  11  25  44  71 102 135 180 225 284 346 409
#     4  12  27  44  66  99 138 186 228 282 340 407
#
# _framework density 19.736011999999999
#
# number of rings (size 3 to 8) (size 9 to 14) (size 15 to 20)
#    0.000    0.933    4.667    2.600    9.333    2.133 
#    0.000    0.000    0.000    2.000    0.000    0.000 
#    0.000    0.000    0.000    0.000    0.000    0.000 
#
# Total GULP energy -167393.464887 kJ/mol
# GULP energy per Si atom -5579.782163 kJ/mol
# Density = 1.969109 g / cm^3
# Si number density = 19.736012 Si / 1000 Ang^3
#
#
#
# Elastic Constant Matrix: (Units=GPa)
#
#
# Indices 1 2 3 4 5 6 
#
# 1 115.6823 38.6480 52.2612 0.0000 0.0000 0.0000
# 2 38.6480 168.2739 57.5887 0.0000 0.0000 0.0000
# 3 52.2612 57.5887 135.0564 0.0000 0.0000 0.0000
# 4 0.0000 0.0000 0.0000 24.0164 0.0000 0.0000
# 5 0.0000 0.0000 0.0000 0.0000 24.5984 0.0000
# 6 0.0000 0.0000 0.0000 0.0000 0.0000 22.3740
#
#
#
# Elastic Compliance Matrix: (Units=1/GPa)
#
#
# Indices 1 2 3 4 5 6 
#
# 1 0.010684 -0.001216 -0.003616 0.000000 0.000000 0.000000
# 2 -0.001216 0.007097 -0.002555 0.000000 0.000000 0.000000
# 3 -0.003616 -0.002555 0.009893 0.000000 0.000000 0.000000
# 4 0.000000 0.000000 0.000000 0.041638 0.000000 0.000000
# 5 0.000000 0.000000 0.000000 0.000000 0.040653 0.000000
# 6 0.000000 0.000000 0.000000 0.000000 0.000000 0.044695
#
#
# Mechanical properties :
#
#
# Convention : Reuss Voigt Hill
#
# Bulk Modulus (GPa) = 77.52552 79.55648 78.54100
# Shear Modulus (GPa) = 28.77962 32.23209 30.50585
#
# Velocity S-wave (km/s) = 3.82282 4.04562 3.93580
# Velocity P-wave (km/s) = 7.67149 7.88800 7.78050
#
# Compressibility (1/GPa) = 0.01289898
#
# Stress axis : x y z
#
# Youngs Moduli (GPa) = 93.59623 140.91273 101.08169
#
# Poissons Ratio (x) = 0.17142 0.36547
# Poissons Ratio (y) = 0.11386 0.25829
# Poissons Ratio (z) = 0.33841 0.36007
#
# Static dielectric constant tensor:
#      x y z
#    x 1.718500 0.000000 0.000000 
#    y 0.000000 1.765110 0.000000 
#    z 0.000000 0.000000 1.690700 
# 
# From -- ./inp_files/42945.got.cif
#   From: 2010.05.17/outbox.cif.g08.bks.cpg/sg22_22_cif.got.tgz:42945.got - 2010.06.03 23:40:54.
