data_PCOD9328779
_publ_section_title
;
Structure prediction by ZEFSAII (Michael W. Deem and Ramdas Pophale) SiO2 
 PCOD9328779
Probable space group: F 2 2 2
;
_chemical_formula_sum "Si O2"
_cell_formula_units_Z 84
_cell_length_a 20.835057
_cell_length_b 11.553591
_cell_length_c 17.222824
_cell_angle_alpha 90.000000
_cell_angle_beta 90.000000
_cell_angle_gamma 90.000000
_cell_volume 4145.873492
_symmetry_space_group_name_H-M "F 2 2 2"
_symmetry_group_IT_number 22
_symmetry_cell_setting 'orthorhombic'
loop_
_space_group_symop_operation_xyz
x,y,z
-x,-y,z
x,-y,-z
-x,y,-z
x,1/2+y,1/2+z
-x,1/2-y,1/2+z
x,1/2-y,1/2-z
-x,1/2+y,1/2-z
1/2+x,y,1/2+z
1/2-x,-y,1/2+z
1/2+x,-y,1/2-z
1/2-x,y,1/2-z
1/2+x,1/2+y,z
1/2-x,1/2-y,z
1/2+x,1/2-y,-z
1/2-x,1/2+y,-z
loop_
_atom_site_type_symbol
_atom_site_label
_atom_site_fract_x
_atom_site_fract_y
_atom_site_fract_z
Si Si1 0.234317 0.113142 0.658626
Si Si2 0.000000 0.000000 0.500000
Si Si3 0.641458 0.520646 0.910472
Si Si4 0.062671 0.779307 0.167497
Si Si5 0.576055 0.870190 0.283352
Si Si6 0.411364 0.470102 0.633202
O O1 0.250000 0.091660 0.750000
O O2 0.250000 0.250000 0.645663
O O3 0.284543 0.041234 0.607981
O O4 0.163389 0.068798 0.635251
O O5 0.055271 0.040994 0.436666
O O6 0.604706 0.635908 0.882865
O O7 0.614667 0.419780 0.855601
O O8 0.629057 0.500000 0.000000
O O9 0.096562 0.750000 0.250000
O O10 0.053580 0.654796 0.129737
O O11 0.996000 0.840794 0.188716
O O12 0.603068 0.750000 0.250000
O O13 0.576568 0.963056 0.213816
#
# Coordination Sequence:
#
# PCOD9328779 Si02
#       6
#    16   4  16  16  16  16
#     4  11  22  46  79 101 132 194 249 295 354 445
#     4  12  28  40  68 104 152 188 234 312 360 438
#     4  12  26  43  70 113 143 181 244 305 362 427
#     4  11  21  41  74  98 141 186 239 290 354 432
#     4  11  25  43  71 104 150 193 228 300 376 442
#     4  12  25  46  70 104 139 190 249 295 366 438
#
# _framework density 20.261109999999999
#
# number of rings (size 3 to 8) (size 9 to 14) (size 15 to 20)
#    0.000    0.571    5.714    2.857    4.000    4.571 
#    0.000    1.905    0.000    0.000    0.000    0.000 
#    0.000    0.000    0.000    0.000    0.000    0.000 
#
# Total GULP energy -117185.239611 kJ/mol
# GULP energy per Si atom -5580.249505 kJ/mol
# Density = 2.021500 g / cm^3
# Si number density = 20.261110 Si / 1000 Ang^3
#
#
#
# Elastic Constant Matrix: (Units=GPa)
#
#
# Indices 1 2 3 4 5 6 
#
# 1 163.5628 60.0508 70.8175 0.0000 0.0000 0.0000
# 2 60.0508 116.1453 51.3555 0.0000 0.0000 0.0000
# 3 70.8175 51.3555 156.6221 0.0000 0.0000 0.0000
# 4 0.0000 0.0000 0.0000 9.3349 0.0000 0.0000
# 5 0.0000 0.0000 0.0000 0.0000 17.4318 0.0000
# 6 0.0000 0.0000 0.0000 0.0000 0.0000 27.1734
#
#
#
# Elastic Compliance Matrix: (Units=1/GPa)
#
#
# Indices 1 2 3 4 5 6 
#
# 1 0.008483 -0.003146 -0.002804 0.000000 0.000000 0.000000
# 2 -0.003146 0.011237 -0.002262 0.000000 0.000000 0.000000
# 3 -0.002804 -0.002262 0.008394 0.000000 0.000000 0.000000
# 4 0.000000 0.000000 0.000000 0.107125 0.000000 0.000000
# 5 0.000000 0.000000 0.000000 0.000000 0.057367 0.000000
# 6 0.000000 0.000000 0.000000 0.000000 0.000000 0.036801
#
#
# Mechanical properties :
#
#
# Convention : Reuss Voigt Hill
#
# Bulk Modulus (GPa) = 85.54418 88.97531 87.25974
# Shear Modulus (GPa) = 20.02186 27.72843 23.87515
#
# Velocity S-wave (km/s) = 3.14696 3.70341 3.43647
# Velocity P-wave (km/s) = 7.45097 7.89282 7.67508
#
# Compressibility (1/GPa) = 0.01168987
#
# Stress axis : x y z
#
# Youngs Moduli (GPa) = 117.88286 88.99412 119.12818
#
# Poissons Ratio (x) = 0.27999 0.33404
# Poissons Ratio (y) = 0.37088 0.26946
# Poissons Ratio (z) = 0.33055 0.20130
#
# Static dielectric constant tensor:
#      x y z
#    x 1.751980 0.000000 0.000000 
#    y 0.000000 1.759970 0.000000 
#    z 0.000000 0.000000 1.732670 
# 
# From -- ./inp_files/38723.got.cif
#   From: 2010.05.17/outbox.cif.g08.bks.cpg/sg22_20_cif.got.tgz:38723.got - 2010.06.03 23:40:54.
