data_PCOD9328609
_publ_section_title
;
Structure prediction by ZEFSAII (Michael W. Deem and Ramdas Pophale) SiO2 
 PCOD9328609
Probable space group: F 2 2 2
;
_chemical_formula_sum "Si O2"
_cell_formula_units_Z 60
_cell_length_a 5.670384
_cell_length_b 16.569928
_cell_length_c 30.563417
_cell_angle_alpha 90.000000
_cell_angle_beta 90.000000
_cell_angle_gamma 90.000000
_cell_volume 2871.673091
_symmetry_space_group_name_H-M "F 2 2 2"
_symmetry_group_IT_number 22
_symmetry_cell_setting 'orthorhombic'
loop_
_space_group_symop_operation_xyz
x,y,z
-x,-y,z
x,-y,-z
-x,y,-z
x,1/2+y,1/2+z
-x,1/2-y,1/2+z
x,1/2-y,1/2-z
-x,1/2+y,1/2-z
1/2+x,y,1/2+z
1/2-x,-y,1/2+z
1/2+x,-y,1/2-z
1/2-x,y,1/2-z
1/2+x,1/2+y,z
1/2-x,1/2-y,z
1/2+x,1/2-y,-z
1/2-x,1/2+y,-z
loop_
_atom_site_type_symbol
_atom_site_label
_atom_site_fract_x
_atom_site_fract_y
_atom_site_fract_z
Si Si1 0.500000 0.000000 0.143244
Si Si2 0.997197 0.297330 0.632475
Si Si3 0.500000 0.000000 0.000000
Si Si4 0.322369 0.925811 0.571919
Si Si5 0.636379 0.583210 0.794009
O O1 0.646610 0.941709 0.112060
O O2 0.338309 0.946410 0.173512
O O3 0.250000 0.250000 0.632661
O O4 0.996449 0.354354 0.675779
O O5 0.750000 0.250000 0.634304
O O6 0.972107 0.348510 0.587062
O O7 0.664111 0.059574 0.970976
O O8 0.500000 0.000000 0.571393
O O9 0.500000 0.500000 0.782231
O O10 0.750000 0.618024 0.750000
#
# Coordination Sequence:
#
# PCOD9328609 Si02
#       5
#     8  16   4  16  16
#     4  11  18  39  70 102 132 180 246 303 350 403
#     4  12  27  46  73 104 151 202 233 282 371 446
#     4  10  26  40  84 110 132 168 256 312 354 410
#     4  11  22  44  76 103 137 181 243 300 353 433
#     4  12  24  41  70 105 140 192 256 309 341 406
#
# _framework density 20.893742
#
# number of rings (size 3 to 8) (size 9 to 14) (size 15 to 20)
#    0.000    0.533    6.667    2.000    3.733    0.533 
#    0.000    4.000    5.867    0.000    0.000    0.000 
#    0.000    0.000    0.000    0.000    0.000    0.000 
#
# Total GULP energy -83702.504220 kJ/mol
# GULP energy per Si atom -5580.166948 kJ/mol
# Density = 2.084619 g / cm^3
# Si number density = 20.893742 Si / 1000 Ang^3
#
#
#
# Elastic Constant Matrix: (Units=GPa)
#
#
# Indices 1 2 3 4 5 6 
#
# 1 106.9230 50.7501 34.0463 0.0000 0.0000 0.0000
# 2 50.7501 95.0705 36.3825 0.0000 0.0000 0.0000
# 3 34.0463 36.3825 122.5964 0.0000 0.0000 0.0000
# 4 0.0000 0.0000 0.0000 -11.2677 0.0000 0.0000
# 5 0.0000 0.0000 0.0000 0.0000 50.0887 0.0000
# 6 0.0000 0.0000 0.0000 0.0000 0.0000 55.2721
#
#
#
# Elastic Compliance Matrix: (Units=1/GPa)
#
#
# Indices 1 2 3 4 5 6 
#
# 1 0.012843 -0.006194 -0.001728 0.000000 0.000000 0.000000
# 2 -0.006194 0.014854 -0.002688 0.000000 0.000000 0.000000
# 3 -0.001728 -0.002688 0.009434 0.000000 0.000000 0.000000
# 4 0.000000 0.000000 0.000000 -0.088749 0.000000 0.000000
# 5 0.000000 0.000000 0.000000 0.000000 0.019965 0.000000
# 6 0.000000 0.000000 0.000000 0.000000 0.000000 0.018092
#
#
# Mechanical properties :
#
#
# Convention : Reuss Voigt Hill
#
# Bulk Modulus (GPa) = 62.85316 62.99418 62.92367
# Shear Modulus (GPa) = 385.70875 32.37937 209.04406
#
# Velocity S-wave (km/s) = 13.60168 3.94091 10.01340
# Velocity P-wave (km/s) = 16.63796 7.13603 12.80127
#
# Compressibility (1/GPa) = 0.01591010
#
# Stress axis : x y z
#
# Youngs Moduli (GPa) = 77.86364 67.32296 105.99400
#
# Poissons Ratio (x) = 0.41702 0.18320
# Poissons Ratio (y) = 0.48231 0.28490
# Poissons Ratio (z) = 0.13458 0.18095
#
# Static dielectric constant tensor:
#      x y z
#    x 1.810090 0.000000 0.000000 
#    y 0.000000 1.834550 0.000000 
#    z 0.000000 0.000000 1.688840 
# 
# From -- ./inp_files/2798.got.cif
#   From: 2010.05.17/outbox.cif.g08.bks.cpg/sg22_2_cif.got.tgz:2798.got - 2010.06.03 23:40:54.
