data_PCOD9328279
_publ_section_title
;
Structure prediction by ZEFSAII (Michael W. Deem and Ramdas Pophale) SiO2 
 PCOD9328279
Probable space group: F 2 2 2
;
_chemical_formula_sum "Si O2"
_cell_formula_units_Z 112
_cell_length_a 15.361734
_cell_length_b 31.838936
_cell_length_c 10.161975
_cell_angle_alpha 90.000000
_cell_angle_beta 90.000000
_cell_angle_gamma 90.000000
_cell_volume 4970.234834
_symmetry_space_group_name_H-M "F 2 2 2"
_symmetry_group_IT_number 22
_symmetry_cell_setting 'orthorhombic'
loop_
_space_group_symop_operation_xyz
x,y,z
-x,-y,z
x,-y,-z
-x,y,-z
x,1/2+y,1/2+z
-x,1/2-y,1/2+z
x,1/2-y,1/2-z
-x,1/2+y,1/2-z
1/2+x,y,1/2+z
1/2-x,-y,1/2+z
1/2+x,-y,1/2-z
1/2-x,y,1/2-z
1/2+x,1/2+y,z
1/2-x,1/2-y,z
1/2+x,1/2-y,-z
1/2-x,1/2+y,-z
loop_
_atom_site_type_symbol
_atom_site_label
_atom_site_fract_x
_atom_site_fract_y
_atom_site_fract_z
Si Si1 0.346467 0.048029 0.509436
Si Si2 0.059467 0.869867 0.667002
Si Si3 0.211710 0.621834 0.048082
Si Si4 0.506634 0.547859 0.211582
Si Si5 0.107889 0.318623 0.800468
Si Si6 0.401760 0.260944 0.956376
Si Si7 0.179507 0.322049 0.361933
O O1 0.265724 0.078573 0.540127
O O2 0.421249 0.052947 0.620418
O O3 0.405125 0.053072 0.376607
O O4 0.315026 0.000000 0.500000
O O5 0.130883 0.876772 0.554678
O O6 0.012045 0.914232 0.687643
O O7 0.108623 0.853123 0.797697
O O8 0.986027 0.834617 0.651145
O O9 0.279025 0.654600 0.985649
O O10 0.170372 0.641334 0.180504
O O11 0.500000 0.500000 0.262275
O O12 0.099451 0.296452 0.658792
O O13 0.138691 0.281209 0.896683
O O14 0.500000 0.252941 0.000000
O O15 0.356484 0.278689 0.084946
O O16 0.250000 0.315612 0.250000
#
# Coordination Sequence:
#
# PCOD9328279 Si02
#       7
#    16  16  16  16  16  16  16
#     4   9  19  38  66  98 134 177 225 281 334 402
#     4  11  21  42  68  97 136 181 226 277 334 406
#     4  11  23  41  64  97 142 175 223 275 345 399
#     4   9  19  37  67 100 129 174 236 278 323 404
#     4  11  26  43  69 100 134 180 227 284 337 400
#     4  11  23  46  72  96 132 176 234 281 333 398
#     4  10  23  41  71 101 128 180 222 274 337 402
#
# _framework density 22.534147000000001
#
# number of rings (size 3 to 8) (size 9 to 14) (size 15 to 20)
#    0.000    1.714    2.857    2.143    2.000    1.143 
#    2.571    5.000    0.000    0.000    0.000    0.000 
#    0.000    0.000    0.000    0.000    0.000    0.000 
#
# Total GULP energy -156438.285515 kJ/mol
# GULP energy per Si atom -5587.081626 kJ/mol
# Density = 2.248286 g / cm^3
# Si number density = 22.534147 Si / 1000 Ang^3
#
#
#
# Elastic Constant Matrix: (Units=GPa)
#
#
# Indices 1 2 3 4 5 6 
#
# 1 88.0514 66.4694 14.1133 0.0000 0.0000 0.0000
# 2 66.4694 145.5932 37.4436 0.0000 0.0000 0.0000
# 3 14.1133 37.4436 33.6413 0.0000 0.0000 0.0000
# 4 0.0000 0.0000 0.0000 21.4453 0.0000 0.0000
# 5 0.0000 0.0000 0.0000 0.0000 24.2214 0.0000
# 6 0.0000 0.0000 0.0000 0.0000 0.0000 28.1767
#
#
#
# Elastic Compliance Matrix: (Units=1/GPa)
#
#
# Indices 1 2 3 4 5 6 
#
# 1 0.017441 -0.008520 0.002166 0.000000 0.000000 0.000000
# 2 -0.008520 0.013785 -0.011768 0.000000 0.000000 0.000000
# 3 0.002166 -0.011768 0.041916 0.000000 0.000000 0.000000
# 4 0.000000 0.000000 0.000000 0.046630 0.000000 0.000000
# 5 0.000000 0.000000 0.000000 0.000000 0.041286 0.000000
# 6 0.000000 0.000000 0.000000 0.000000 0.000000 0.035490
#
#
# Mechanical properties :
#
#
# Convention : Reuss Voigt Hill
#
# Bulk Modulus (GPa) = 27.10297 55.92651 41.51474
# Shear Modulus (GPa) = 20.40052 24.71931 22.55992
#
# Velocity S-wave (km/s) = 3.01211 3.31565 3.16752
# Velocity P-wave (km/s) = 4.91434 6.28733 5.64275
#
# Compressibility (1/GPa) = 0.03689633
#
# Stress axis : x y z
#
# Youngs Moduli (GPa) = 57.33518 72.54462 23.85751
#
# Poissons Ratio (x) = 0.61805 -0.05166
# Poissons Ratio (y) = 0.48847 0.28077
# Poissons Ratio (z) = -0.12416 0.85374
#
# Static dielectric constant tensor:
#      x y z
#    x 1.839320 0.000000 0.000000 
#    y 0.000000 1.816890 0.000000 
#    z 0.000000 0.000000 1.877000 
# 
# From -- ./inp_files/20273.got.cif
#   From: 2010.05.17/outbox.cif.g08.bks.cpg/sg22_11_cif.got.tgz:20273.got - 2010.06.03 23:40:54.
