data_PCOD9328346
_publ_section_title
;
Structure prediction by ZEFSAII (Michael W. Deem and Ramdas Pophale) SiO2 
 PCOD9328346
Probable space group: F 2 2 2
;
_chemical_formula_sum "Si O2"
_cell_formula_units_Z 120
_cell_length_a 13.381276
_cell_length_b 19.578430
_cell_length_c 23.630687
_cell_angle_alpha 90.000000
_cell_angle_beta 90.000000
_cell_angle_gamma 90.000000
_cell_volume 6190.870776
_symmetry_space_group_name_H-M "F 2 2 2"
_symmetry_group_IT_number 22
_symmetry_cell_setting 'orthorhombic'
loop_
_space_group_symop_operation_xyz
x,y,z
-x,-y,z
x,-y,-z
-x,y,-z
x,1/2+y,1/2+z
-x,1/2-y,1/2+z
x,1/2-y,1/2-z
-x,1/2+y,1/2-z
1/2+x,y,1/2+z
1/2-x,-y,1/2+z
1/2+x,-y,1/2-z
1/2-x,y,1/2-z
1/2+x,1/2+y,z
1/2-x,1/2-y,z
1/2+x,1/2-y,-z
1/2-x,1/2+y,-z
loop_
_atom_site_type_symbol
_atom_site_label
_atom_site_fract_x
_atom_site_fract_y
_atom_site_fract_z
Si Si1 0.014043 0.304909 0.186572
Si Si2 0.884576 0.872922 0.516652
Si Si3 0.766426 0.000000 0.000000
Si Si4 0.318649 0.315597 0.403536
Si Si5 0.311127 0.179352 0.865450
Si Si6 0.668887 0.063362 0.616360
Si Si7 0.976626 0.141649 0.801398
Si Si8 0.314845 0.567538 0.193218
O O1 0.080753 0.316314 0.131957
O O2 0.006766 0.222488 0.189790
O O3 0.065717 0.348836 0.237157
O O4 0.898296 0.324248 0.181318
O O5 0.845834 0.820520 0.469149
O O6 0.868398 0.836657 0.576503
O O7 0.000000 0.890465 0.500000
O O8 0.809736 0.938217 0.516079
O O9 0.832428 0.026782 0.946066
O O10 0.250000 0.250000 0.390581
O O11 0.259672 0.384162 0.388548
O O12 0.250000 0.250000 0.866171
O O13 0.233811 0.120556 0.850471
O O14 0.581956 0.109743 0.645137
O O15 0.683721 0.004756 0.662406
O O16 0.074638 0.095620 0.795598
O O17 0.250000 0.565086 0.250000
#
# Coordination Sequence:
#
# PCOD9328346 Si02
#       8
#    16  16   8  16  16  16  16  16
#     4  11  23  41  67 104 129 179 228 280 348 407
#     4  11  22  40  68  98 132 174 232 291 340 412
#     4  10  23  44  69  96 132 182 224 281 359 404
#     4  11  23  43  67  94 135 178 226 284 341 412
#     4  12  23  42  70  98 133 173 226 290 347 412
#     4  11  25  45  69  97 138 179 230 282 348 421
#     4  11  24  43  68  96 137 176 231 282 342 420
#     4  12  25  43  67  97 134 176 222 280 344 407
#
# _framework density 19.383381
#
# number of rings (size 3 to 8) (size 9 to 14) (size 15 to 20)
#    0.000    0.800    6.667    1.000    1.867    0.267 
#    0.000    2.000    2.933    0.000    0.000    0.000 
#    0.000    0.000    0.000    0.000    0.000    0.000 
#
# Total GULP energy -167126.151569 kJ/mol
# GULP energy per Si atom -5570.871719 kJ/mol
# Density = 1.933926 g / cm^3
# Si number density = 19.383381 Si / 1000 Ang^3
#
#
#
# Elastic Constant Matrix: (Units=GPa)
#
#
# Indices 1 2 3 4 5 6 
#
# 1 38.9829 17.4559 16.7905 0.0000 0.0000 0.0000
# 2 17.4559 82.4144 27.3554 0.0000 0.0000 0.0000
# 3 16.7905 27.3554 81.2179 0.0000 0.0000 0.0000
# 4 0.0000 0.0000 0.0000 56.9316 0.0000 0.0000
# 5 0.0000 0.0000 0.0000 0.0000 33.2349 0.0000
# 6 0.0000 0.0000 0.0000 0.0000 0.0000 91.1294
#
#
#
# Elastic Compliance Matrix: (Units=1/GPa)
#
#
# Indices 1 2 3 4 5 6 
#
# 1 0.029754 -0.004797 -0.004536 0.000000 0.000000 0.000000
# 2 -0.004797 0.014434 -0.003870 0.000000 0.000000 0.000000
# 3 -0.004536 -0.003870 0.014554 0.000000 0.000000 0.000000
# 4 0.000000 0.000000 0.000000 0.017565 0.000000 0.000000
# 5 0.000000 0.000000 0.000000 0.000000 0.030089 0.000000
# 6 0.000000 0.000000 0.000000 0.000000 0.000000 0.010973
#
#
# Mechanical properties :
#
#
# Convention : Reuss Voigt Hill
#
# Bulk Modulus (GPa) = 30.92404 36.20210 33.56307
# Shear Modulus (GPa) = 32.35150 45.66006 39.00578
#
# Velocity S-wave (km/s) = 4.08981 4.85875 4.49077
# Velocity P-wave (km/s) = 6.18794 7.08477 6.65149
#
# Compressibility (1/GPa) = 0.03233730
#
# Stress axis : x y z
#
# Youngs Moduli (GPa) = 33.60934 69.27938 68.71097
#
# Poissons Ratio (x) = 0.33230 0.31164
# Poissons Ratio (y) = 0.16121 0.26592
# Poissons Ratio (z) = 0.15244 0.26812
#
# Static dielectric constant tensor:
#      x y z
#    x 1.658080 0.000000 0.000000 
#    y 0.000000 1.680860 0.000000 
#    z 0.000000 0.000000 1.617580 
# 
# From -- ./inp_files/48315.got.cif
#   From: 2010.05.17/outbox.cif.g08.bks.cpg/sg22_25_cif.got.tgz:48315.got - 2010.06.03 23:40:54.
