data_PCOD9328590
_publ_section_title
;
Structure prediction by ZEFSAII (Michael W. Deem and Ramdas Pophale) SiO2 
 PCOD9328590
Probable space group: F 2 2 2
;
_chemical_formula_sum "Si O2"
_cell_formula_units_Z 72
_cell_length_a 5.160626
_cell_length_b 22.468400
_cell_length_c 27.499420
_cell_angle_alpha 90.000000
_cell_angle_beta 90.000000
_cell_angle_gamma 90.000000
_cell_volume 3188.585502
_symmetry_space_group_name_H-M "F 2 2 2"
_symmetry_group_IT_number 22
_symmetry_cell_setting 'orthorhombic'
loop_
_space_group_symop_operation_xyz
x,y,z
-x,-y,z
x,-y,-z
-x,y,-z
x,1/2+y,1/2+z
-x,1/2-y,1/2+z
x,1/2-y,1/2-z
-x,1/2+y,1/2-z
1/2+x,y,1/2+z
1/2-x,-y,1/2+z
1/2+x,-y,1/2-z
1/2-x,y,1/2-z
1/2+x,1/2+y,z
1/2-x,1/2-y,z
1/2+x,1/2-y,-z
1/2-x,1/2+y,-z
loop_
_atom_site_type_symbol
_atom_site_label
_atom_site_fract_x
_atom_site_fract_y
_atom_site_fract_z
Si Si1 0.250000 0.464568 0.250000
Si Si2 0.246989 0.542564 0.561844
Si Si3 0.306210 0.883166 0.840767
Si Si4 0.750000 0.250000 0.027787
Si Si5 0.707923 0.679773 0.807018
Si Si6 0.500000 0.639729 0.500000
O O1 0.500000 0.500000 0.232715
O O2 0.339982 0.426706 0.295369
O O3 0.500000 0.500000 0.561335
O O4 0.237265 0.577974 0.612671
O O5 0.291468 0.594862 0.522630
O O6 0.000000 0.500000 0.555759
O O7 0.577604 0.849154 0.841774
O O8 0.073819 0.839141 0.825610
O O9 0.610673 0.186422 0.041232
O O10 0.500000 0.276091 0.000000
O O11 0.750000 0.661815 0.750000
O O12 0.750000 0.750000 0.808643
#
# Coordination Sequence:
#
# PCOD9328590 Si02
#       6
#     8  16  16   8  16   8
#     4  12  22  36  63  88 127 186 224 266 340 396
#     4  12  28  46  72 106 146 185 240 294 349 438
#     4  12  23  44  63 101 142 183 232 286 343 417
#     4   8  20  42  74 100 132 167 225 292 338 442
#     4  11  22  42  68  98 137 185 238 287 348 419
#     4  10  25  48  76 102 139 182 232 290 376 404
#
# _framework density 22.580545999999998
#
# number of rings (size 3 to 8) (size 9 to 14) (size 15 to 20)
#    0.667    0.222    2.222    5.000    3.111    2.667 
#    6.000    0.000    0.000    0.000    0.000    0.000 
#    0.000    0.000    0.000    0.000    0.000    0.000 
#
# Total GULP energy -100378.890859 kJ/mol
# GULP energy per Si atom -5576.605048 kJ/mol
# Density = 2.252915 g / cm^3
# Si number density = 22.580546 Si / 1000 Ang^3
#
#
#
# Elastic Constant Matrix: (Units=GPa)
#
#
# Indices 1 2 3 4 5 6 
#
# 1 106.9426 28.0649 -15.6221 0.0000 0.0000 0.0000
# 2 28.0649 130.7414 35.5588 0.0000 0.0000 0.0000
# 3 -15.6221 35.5588 82.8807 0.0000 0.0000 0.0000
# 4 0.0000 0.0000 0.0000 14.4347 0.0000 0.0000
# 5 0.0000 0.0000 0.0000 0.0000 11.6073 0.0000
# 6 0.0000 0.0000 0.0000 0.0000 0.0000 65.7718
#
#
#
# Elastic Compliance Matrix: (Units=1/GPa)
#
#
# Indices 1 2 3 4 5 6 
#
# 1 0.010692 -0.003219 0.003396 0.000000 0.000000 0.000000
# 2 -0.003219 0.009628 -0.004738 0.000000 0.000000 0.000000
# 3 0.003396 -0.004738 0.014738 0.000000 0.000000 0.000000
# 4 0.000000 0.000000 0.000000 0.069277 0.000000 0.000000
# 5 0.000000 0.000000 0.000000 0.000000 0.086153 0.000000
# 6 0.000000 0.000000 0.000000 0.000000 0.000000 0.015204
#
#
# Mechanical properties :
#
#
# Convention : Reuss Voigt Hill
#
# Bulk Modulus (GPa) = 38.55362 46.28530 42.41946
# Shear Modulus (GPa) = 22.37554 36.53365 29.45460
#
# Velocity S-wave (km/s) = 3.15131 4.02671 3.61560
# Velocity P-wave (km/s) = 5.50925 6.49319 6.02135
#
# Compressibility (1/GPa) = 0.02593790
#
# Stress axis : x y z
#
# Youngs Moduli (GPa) = 93.53114 103.86243 67.85072
#
# Poissons Ratio (x) = 0.33431 -0.23044
# Poissons Ratio (y) = 0.30105 0.32144
# Poissons Ratio (z) = -0.31765 0.49205
#
# Static dielectric constant tensor:
#      x y z
#    x 1.747550 0.000000 0.000000 
#    y 0.000000 1.857370 0.000000 
#    z 0.000000 0.000000 1.882550 
# 
# From -- ./inp_files/51223.got.cif
#   From: 2010.05.17/outbox.cif.g08.bks.cpg/sg22_26_cif.got.tgz:51223.got - 2010.06.03 23:40:54.
