data_PCOD9328347
_publ_section_title
;
Structure prediction by ZEFSAII (Michael W. Deem and Ramdas Pophale) SiO2 
 PCOD9328347
Probable space group: F 2 2 2
;
_chemical_formula_sum "Si O2"
_cell_formula_units_Z 44
_cell_length_a 22.255750
_cell_length_b 4.822921
_cell_length_c 17.418512
_cell_angle_alpha 90.000000
_cell_angle_beta 90.000000
_cell_angle_gamma 90.000000
_cell_volume 1869.663434
_symmetry_space_group_name_H-M "F 2 2 2"
_symmetry_group_IT_number 22
_symmetry_cell_setting 'orthorhombic'
loop_
_space_group_symop_operation_xyz
x,y,z
-x,-y,z
x,-y,-z
-x,y,-z
x,1/2+y,1/2+z
-x,1/2-y,1/2+z
x,1/2-y,1/2-z
-x,1/2+y,1/2-z
1/2+x,y,1/2+z
1/2-x,-y,1/2+z
1/2+x,-y,1/2-z
1/2-x,y,1/2-z
1/2+x,1/2+y,z
1/2-x,1/2-y,z
1/2+x,1/2-y,-z
1/2-x,1/2+y,-z
loop_
_atom_site_type_symbol
_atom_site_label
_atom_site_fract_x
_atom_site_fract_y
_atom_site_fract_z
Si Si1 0.610678 0.000826 0.301745
Si Si2 0.500000 0.500000 0.500000
Si Si3 0.322387 0.244097 0.554601
Si Si4 0.000000 0.000000 0.102617
O O1 0.586097 0.250000 0.250000
O O2 0.654123 0.160151 0.361370
O O3 0.636969 0.750000 0.250000
O O4 0.554753 0.879076 0.348817
O O5 0.472161 0.263854 0.556188
O O6 0.340663 0.500000 0.500000
O O7 0.250000 0.250000 0.560414
O O8 0.342272 0.000000 0.500000
#
# Coordination Sequence:
#
# PCOD9328347 Si02
#       4
#    16   4  16   8
#     4  12  25  42  67 101 140 180 218 280 346 411
#     4  10  24  40  64 100 124 182 226 278 316 402
#     4  10  23  44  69  97 131 177 233 289 334 394
#     4  11  24  41  66  99 141 176 220 278 339 407
#
# _framework density 23.533647999999999
#
# number of rings (size 3 to 8) (size 9 to 14) (size 15 to 20)
#    0.000    1.091    0.000    5.455    7.636    0.727 
#    0.000    1.818    0.000    0.000    0.000    0.000 
#    0.000    0.000    0.000    0.000    0.000    0.000 
#
# Total GULP energy -61283.339916 kJ/mol
# GULP energy per Si atom -5571.212720 kJ/mol
# Density = 2.348008 g / cm^3
# Si number density = 23.533648 Si / 1000 Ang^3
#
#
#
# Elastic Constant Matrix: (Units=GPa)
#
#
# Indices 1 2 3 4 5 6 
#
# 1 63.0710 33.1105 46.9974 0.0004 -0.0001 0.0001
# 2 33.1105 200.9442 64.1452 0.0035 -0.0006 -0.0016
# 3 46.9974 64.1452 117.7806 0.0008 -0.0001 0.0000
# 4 0.0004 0.0035 0.0008 59.5175 -0.0002 0.0000
# 5 -0.0001 -0.0006 -0.0001 -0.0002 20.0847 0.0005
# 6 0.0001 -0.0016 0.0000 0.0000 0.0005 31.8511
#
#
#
# Elastic Compliance Matrix: (Units=1/GPa)
#
#
# Indices 1 2 3 4 5 6 
#
# 1 0.022739 -0.001029 -0.008513 0.000000 0.000000 0.000000
# 2 -0.001029 0.006070 -0.002895 0.000000 0.000000 0.000000
# 3 -0.008513 -0.002895 0.013464 0.000000 0.000000 0.000000
# 4 0.000000 0.000000 0.000000 0.016802 0.000000 0.000000
# 5 0.000000 0.000000 0.000000 0.000000 0.049789 -0.000001
# 6 0.000000 0.000000 0.000000 0.000000 -0.000001 0.031396
#
#
# Mechanical properties :
#
#
# Convention : Reuss Voigt Hill
#
# Bulk Modulus (GPa) = 57.47662 74.47802 65.97732
# Shear Modulus (GPa) = 29.25099 38.12685 33.68892
#
# Velocity S-wave (km/s) = 3.52936 4.02941 3.78765
# Velocity P-wave (km/s) = 6.40974 7.30509 6.87201
#
# Compressibility (1/GPa) = 0.01739838
#
# Stress axis : x y z
#
# Youngs Moduli (GPa) = 43.97766 164.73539 74.27220
#
# Poissons Ratio (x) = 0.16957 0.63226
# Poissons Ratio (y) = 0.04527 0.21504
# Poissons Ratio (z) = 0.37437 0.47695
#
# Static dielectric constant tensor:
#      x y z
#    x 1.865190 0.000000 0.000000 
#    y 0.000000 1.806370 0.000000 
#    z 0.000000 0.000000 1.907200 
# 
# From -- ./inp_files/32753.got.cif
#   From: 2010.05.17/outbox.cif.g08.bks.cpg/sg22_17_cif.got.tgz:32753.got - 2010.06.03 23:40:54.
