data_PCOD9328620
_publ_section_title
;
Structure prediction by ZEFSAII (Michael W. Deem and Ramdas Pophale) SiO2 
 PCOD9328620
Probable space group: F 2 2 2
;
_chemical_formula_sum "Si O2"
_cell_formula_units_Z 60
_cell_length_a 6.111551
_cell_length_b 21.089553
_cell_length_c 19.333051
_cell_angle_alpha 90.000000
_cell_angle_beta 90.000000
_cell_angle_gamma 90.000000
_cell_volume 2491.834599
_symmetry_space_group_name_H-M "F 2 2 2"
_symmetry_group_IT_number 22
_symmetry_cell_setting 'orthorhombic'
loop_
_space_group_symop_operation_xyz
x,y,z
-x,-y,z
x,-y,-z
-x,y,-z
x,1/2+y,1/2+z
-x,1/2-y,1/2+z
x,1/2-y,1/2-z
-x,1/2+y,1/2-z
1/2+x,y,1/2+z
1/2-x,-y,1/2+z
1/2+x,-y,1/2-z
1/2-x,y,1/2-z
1/2+x,1/2+y,z
1/2-x,1/2-y,z
1/2+x,1/2-y,-z
1/2-x,1/2+y,-z
loop_
_atom_site_type_symbol
_atom_site_label
_atom_site_fract_x
_atom_site_fract_y
_atom_site_fract_z
Si Si1 0.315313 0.314847 0.956170
Si Si2 0.608787 0.188074 0.671054
Si Si3 0.024555 0.405308 0.116555
Si Si4 0.000000 0.500000 0.000000
Si Si5 0.250000 0.888692 0.250000
O O1 0.250000 0.250000 0.994739
O O2 0.443725 0.292277 0.888857
O O3 0.121449 0.357834 0.929611
O O4 0.500000 0.350602 0.000000
O O5 0.750000 0.250000 0.684809
O O6 0.770987 0.132399 0.646930
O O7 0.448718 0.156770 0.726973
O O8 0.110690 0.455223 0.058738
O O9 0.859293 0.423951 0.181879
#
# Coordination Sequence:
#
# PCOD9328620 Si02
#       5
#    16  16  16   4   8
#     4  11  22  37  66 106 148 188 240 300 378 450
#     4  11  22  43  71 111 154 192 237 308 384 463
#     4  11  25  48  70 106 147 195 253 316 375 447
#     4  12  28  52  78 100 140 204 272 310 366 440
#     4  10  26  45  70 116 148 196 251 300 394 452
#
# _framework density 24.078645999999999
#
# number of rings (size 3 to 8) (size 9 to 14) (size 15 to 20)
#    0.000    1.067    2.667    3.200    1.867    3.200 
#    4.800   15.333    0.000    0.000    0.000    0.000 
#    0.000    0.000    0.000    0.000    0.000    0.000 
#
# Total GULP energy -83634.484846 kJ/mol
# GULP energy per Si atom -5575.632323 kJ/mol
# Density = 2.402384 g / cm^3
# Si number density = 24.078646 Si / 1000 Ang^3
#
#
#
# Elastic Constant Matrix: (Units=GPa)
#
#
# Indices 1 2 3 4 5 6 
#
# 1 138.7801 36.3419 48.3303 0.0000 0.0000 0.0000
# 2 36.3419 58.3288 40.7605 0.0000 0.0000 0.0000
# 3 48.3303 40.7605 141.4042 0.0000 0.0000 0.0000
# 4 0.0000 0.0000 0.0000 18.7934 0.0000 0.0000
# 5 0.0000 0.0000 0.0000 0.0000 68.3178 0.0000
# 6 0.0000 0.0000 0.0000 0.0000 0.0000 8.9438
#
#
#
# Elastic Compliance Matrix: (Units=1/GPa)
#
#
# Indices 1 2 3 4 5 6 
#
# 1 0.008970 -0.004316 -0.001822 0.000000 0.000000 0.000000
# 2 -0.004316 0.023545 -0.005312 0.000000 0.000000 0.000000
# 3 -0.001822 -0.005312 0.009226 0.000000 0.000000 0.000000
# 4 0.000000 0.000000 0.000000 0.053210 0.000000 0.000000
# 5 0.000000 0.000000 0.000000 0.000000 0.014637 0.000000
# 6 0.000000 0.000000 0.000000 0.000000 0.000000 0.111809
#
#
# Mechanical properties :
#
#
# Convention : Reuss Voigt Hill
#
# Bulk Modulus (GPa) = 53.07286 65.48650 59.27968
# Shear Modulus (GPa) = 19.95391 33.41639 26.68515
#
# Velocity S-wave (km/s) = 2.88183 3.72936 3.33265
# Velocity P-wave (km/s) = 5.75870 6.76758 6.28342
#
# Compressibility (1/GPa) = 0.01884202
#
# Stress axis : x y z
#
# Youngs Moduli (GPa) = 111.47929 42.47160 108.39160
#
# Poissons Ratio (x) = 0.18330 0.19748
# Poissons Ratio (y) = 0.48112 0.57577
# Poissons Ratio (z) = 0.20310 0.22561
#
# Static dielectric constant tensor:
#      x y z
#    x 1.939270 0.000000 0.000000 
#    y 0.000000 1.979760 0.000000 
#    z 0.000000 0.000000 2.082990 
# 
# From -- ./inp_files/4399.got.cif
#   From: 2010.05.17/outbox.cif.g08.bks.cpg/sg22_3_cif.got.tgz:4399.got - 2010.06.03 23:40:54.
