data_PCOD9328049
_publ_section_title
;
Structure prediction by ZEFSAII (Michael W. Deem and Ramdas Pophale) SiO2 
 PCOD9328049
Probable space group: F 2 2 2
;
_chemical_formula_sum "Si O2"
_cell_formula_units_Z 88
_cell_length_a 5.076886
_cell_length_b 22.913314
_cell_length_c 35.738185
_cell_angle_alpha 90.000000
_cell_angle_beta 90.000000
_cell_angle_gamma 90.000000
_cell_volume 4157.361701
_symmetry_space_group_name_H-M "F 2 2 2"
_symmetry_group_IT_number 22
_symmetry_cell_setting 'orthorhombic'
loop_
_space_group_symop_operation_xyz
x,y,z
-x,-y,z
x,-y,-z
-x,y,-z
x,1/2+y,1/2+z
-x,1/2-y,1/2+z
x,1/2-y,1/2-z
-x,1/2+y,1/2-z
1/2+x,y,1/2+z
1/2-x,-y,1/2+z
1/2+x,-y,1/2-z
1/2-x,y,1/2-z
1/2+x,1/2+y,z
1/2-x,1/2-y,z
1/2+x,1/2-y,-z
1/2-x,1/2+y,-z
loop_
_atom_site_type_symbol
_atom_site_label
_atom_site_fract_x
_atom_site_fract_y
_atom_site_fract_z
Si Si1 0.750000 0.961740 0.250000
Si Si2 0.750000 0.250000 0.954013
Si Si3 0.500000 0.647834 0.500000
Si Si4 0.000000 0.500000 0.616905
Si Si5 0.375852 0.435978 0.565748
Si Si6 0.554634 0.135139 0.136787
Si Si7 0.250000 0.750000 0.098398
Si Si8 0.414323 0.090424 0.327319
O O1 0.633151 0.925452 0.284579
O O2 0.500000 0.000000 0.236494
O O3 0.691982 0.192647 0.978663
O O4 0.497750 0.261998 0.928358
O O5 0.639231 0.604652 0.529662
O O6 0.886650 0.547441 0.588285
O O7 0.823640 0.464856 0.646799
O O8 0.500000 0.500000 0.557825
O O9 0.516553 0.398053 0.597906
O O10 0.677024 0.195427 0.123646
O O11 0.287853 0.140328 0.160228
O O12 0.784573 0.103049 0.160831
#
# Coordination Sequence:
#
# PCOD9328049 Si02
#       8
#     8   8   8   8  16  16   8  16
#     4  12  24  38  68 111 150 195 224 268 352 434
#     4  12  27  50  68  98 136 178 246 312 356 416
#     4  12  27  46  68  96 139 184 230 312 364 418
#     4  10  22  42  67  96 140 186 224 282 336 441
#     4  11  23  43  65  97 135 180 228 283 364 429
#     4  11  24  43  71  98 135 183 234 295 342 411
#     4  12  25  50  76  99 128 183 256 299 352 421
#     4  11  23  41  68 102 146 177 227 279 343 417
#
# _framework density 21.167269000000001
#
# number of rings (size 3 to 8) (size 9 to 14) (size 15 to 20)
#    0.000    0.727    4.545    3.000    2.545    0.000 
#    3.273    0.909    0.000    3.273    0.000    0.000 
#    0.000    0.000    0.000    0.000    0.000    0.000 
#
# Total GULP energy -122826.824245 kJ/mol
# GULP energy per Si atom -5583.037466 kJ/mol
# Density = 2.111909 g / cm^3
# Si number density = 21.167269 Si / 1000 Ang^3
#
#
#
# Elastic Constant Matrix: (Units=GPa)
#
#
# Indices 1 2 3 4 5 6 
#
# 1 74.8126 2.6705 20.1663 0.0000 0.0000 0.0000
# 2 2.6705 110.1747 45.1318 0.0000 0.0000 0.0000
# 3 20.1663 45.1318 132.3694 0.0000 0.0000 0.0000
# 4 0.0000 0.0000 0.0000 98.1533 0.0000 0.0000
# 5 0.0000 0.0000 0.0000 0.0000 30.9346 0.0000
# 6 0.0000 0.0000 0.0000 0.0000 0.0000 24.3916
#
#
#
# Elastic Compliance Matrix: (Units=1/GPa)
#
#
# Indices 1 2 3 4 5 6 
#
# 1 0.013976 0.000620 -0.002341 0.000000 0.000000 0.000000
# 2 0.000620 0.010577 -0.003701 0.000000 0.000000 0.000000
# 3 -0.002341 -0.003701 0.009173 0.000000 0.000000 0.000000
# 4 0.000000 0.000000 0.000000 0.010188 0.000000 0.000000
# 5 0.000000 0.000000 0.000000 0.000000 0.032326 0.000000
# 6 0.000000 0.000000 0.000000 0.000000 0.000000 0.040998
#
#
# Mechanical properties :
#
#
# Convention : Reuss Voigt Hill
#
# Bulk Modulus (GPa) = 43.70016 50.36598 47.03307
# Shear Modulus (GPa) = 36.84358 47.32176 42.08267
#
# Velocity S-wave (km/s) = 4.17657 4.73335 4.46365
# Velocity P-wave (km/s) = 6.62935 7.32931 6.98810
#
# Compressibility (1/GPa) = 0.02288321
#
# Stress axis : x y z
#
# Youngs Moduli (GPa) = 71.55369 94.54039 109.01524
#
# Poissons Ratio (x) = -0.05862 0.25516
# Poissons Ratio (y) = -0.04437 0.40345
# Poissons Ratio (z) = 0.16748 0.34988
#
# Static dielectric constant tensor:
#      x y z
#    x 1.749810 0.000000 0.000000 
#    y 0.000000 1.818130 0.000000 
#    z 0.000000 0.000000 1.734950 
# 
# From -- ./inp_files/55034.got.cif
#   From: 2010.05.17/outbox.cif.g08.bks.cpg/sg22_28_cif.got.tgz:55034.got - 2010.06.03 23:40:54.
