data_PCOD9328285
_publ_section_title
;
Structure prediction by ZEFSAII (Michael W. Deem and Ramdas Pophale) SiO2 
 PCOD9328285
Probable space group: F 2 2 2
;
_chemical_formula_sum "Si O2"
_cell_formula_units_Z 112
_cell_length_a 16.497837
_cell_length_b 22.738939
_cell_length_c 14.027492
_cell_angle_alpha 90.000000
_cell_angle_beta 90.000000
_cell_angle_gamma 90.000000
_cell_volume 5262.319768
_symmetry_space_group_name_H-M "F 2 2 2"
_symmetry_group_IT_number 22
_symmetry_cell_setting 'orthorhombic'
loop_
_space_group_symop_operation_xyz
x,y,z
-x,-y,z
x,-y,-z
-x,y,-z
x,1/2+y,1/2+z
-x,1/2-y,1/2+z
x,1/2-y,1/2-z
-x,1/2+y,1/2-z
1/2+x,y,1/2+z
1/2-x,-y,1/2+z
1/2+x,-y,1/2-z
1/2-x,y,1/2-z
1/2+x,1/2+y,z
1/2-x,1/2-y,z
1/2+x,1/2-y,-z
1/2-x,1/2+y,-z
loop_
_atom_site_type_symbol
_atom_site_label
_atom_site_fract_x
_atom_site_fract_y
_atom_site_fract_z
Si Si1 0.131694 0.761257 0.355376
Si Si2 0.553105 0.351158 0.075109
Si Si3 0.026189 0.432177 0.734906
Si Si4 0.194266 0.974761 0.161505
Si Si5 0.811521 0.083738 0.972662
Si Si6 0.800953 0.806723 0.446198
Si Si7 0.979021 0.341534 0.889329
O O1 0.164986 0.750000 0.250000
O O2 0.178278 0.794567 0.440891
O O3 0.117278 0.694766 0.388135
O O4 0.044727 0.794884 0.348267
O O5 0.501900 0.384092 0.155172
O O6 0.398999 0.398490 0.987002
O O7 0.500000 0.315236 0.000000
O O8 0.121877 0.437617 0.710279
O O9 0.000000 0.500000 0.726378
O O10 0.995864 0.401823 0.831525
O O11 0.250000 0.988919 0.250000
O O12 0.172687 0.035207 0.107755
O O13 0.230756 0.939810 0.070685
O O14 0.757354 0.137147 0.936785
O O15 0.750000 0.750000 0.413201
O O16 0.886139 0.818400 0.391718
O O17 0.000000 0.350908 0.000000
#
# Coordination Sequence:
#
# PCOD9328285 Si02
#       7
#    16  16  16  16  16  16  16
#     4  11  22  41  66  97 129 176 232 287 343 412
#     4  11  21  40  69  90 128 171 223 287 342 407
#     4  11  24  42  65  99 124 177 242 283 340 418
#     4  10  24  42  67  95 135 178 233 286 351 415
#     4  10  23  42  64 100 136 177 221 296 358 406
#     4  11  23  41  67 101 139 181 224 280 371 431
#     4  10  24  42  65  94 140 178 227 289 346 429
#
# _framework density 21.283390000000001
#
# number of rings (size 3 to 8) (size 9 to 14) (size 15 to 20)
#    0.000    1.429    2.857    2.143    6.000    2.000 
#    0.000    0.000    0.000    0.000    0.000    0.000 
#    0.000    0.000    0.000    0.000    0.000    0.000 
#
# Total GULP energy -156035.324622 kJ/mol
# GULP energy per Si atom -5572.690165 kJ/mol
# Density = 2.123495 g / cm^3
# Si number density = 21.283390 Si / 1000 Ang^3
#
#
#
# Elastic Constant Matrix: (Units=GPa)
#
#
# Indices 1 2 3 4 5 6 
#
# 1 67.3090 18.1383 30.6980 0.0000 0.0000 0.0000
# 2 18.1383 88.6480 18.2316 0.0000 0.0000 0.0000
# 3 30.6980 18.2316 94.1889 0.0000 0.0000 0.0000
# 4 0.0000 0.0000 0.0000 36.6092 0.0000 0.0000
# 5 0.0000 0.0000 0.0000 0.0000 23.3855 0.0000
# 6 0.0000 0.0000 0.0000 0.0000 0.0000 27.1499
#
#
#
# Elastic Compliance Matrix: (Units=1/GPa)
#
#
# Indices 1 2 3 4 5 6 
#
# 1 0.018000 -0.002579 -0.005367 0.000000 0.000000 0.000000
# 2 -0.002579 0.012118 -0.001505 0.000000 0.000000 0.000000
# 3 -0.005367 -0.001505 0.012658 0.000000 0.000000 0.000000
# 4 0.000000 0.000000 0.000000 0.027316 0.000000 0.000000
# 5 0.000000 0.000000 0.000000 0.000000 0.042762 0.000000
# 6 0.000000 0.000000 0.000000 0.000000 0.000000 0.036833
#
#
# Mechanical properties :
#
#
# Convention : Reuss Voigt Hill
#
# Bulk Modulus (GPa) = 41.88933 42.69797 42.29365
# Shear Modulus (GPa) = 28.32140 29.63411 28.97775
#
# Velocity S-wave (km/s) = 3.65181 3.73548 3.69388
# Velocity P-wave (km/s) = 6.12416 6.22176 6.17315
#
# Compressibility (1/GPa) = 0.02387243
#
# Stress axis : x y z
#
# Youngs Moduli (GPa) = 55.55638 82.52318 79.00411
#
# Poissons Ratio (x) = 0.21284 0.42403
# Poissons Ratio (y) = 0.14329 0.11890
# Poissons Ratio (z) = 0.29818 0.12420
#
# Static dielectric constant tensor:
#      x y z
#    x 1.821370 0.000000 0.000000 
#    y 0.000000 1.781470 0.000000 
#    z 0.000000 0.000000 1.862040 
# 
# From -- ./inp_files/29634.got.cif
#   From: 2010.05.17/outbox.cif.g08.bks.cpg/sg22_15_cif.got.tgz:29634.got - 2010.06.03 23:40:54.
