data_PCOD9328034
_publ_section_title
;
Structure prediction by ZEFSAII (Michael W. Deem and Ramdas Pophale) SiO2 
 PCOD9328034
Probable space group: F 2 2 2
;
_chemical_formula_sum "Si O2"
_cell_formula_units_Z 100
_cell_length_a 21.349968
_cell_length_b 8.568257
_cell_length_c 24.347505
_cell_angle_alpha 90.000000
_cell_angle_beta 90.000000
_cell_angle_gamma 90.000000
_cell_volume 4453.938095
_symmetry_space_group_name_H-M "F 2 2 2"
_symmetry_group_IT_number 22
_symmetry_cell_setting 'orthorhombic'
loop_
_space_group_symop_operation_xyz
x,y,z
-x,-y,z
x,-y,-z
-x,y,-z
x,1/2+y,1/2+z
-x,1/2-y,1/2+z
x,1/2-y,1/2-z
-x,1/2+y,1/2-z
1/2+x,y,1/2+z
1/2-x,-y,1/2+z
1/2+x,-y,1/2-z
1/2-x,y,1/2-z
1/2+x,1/2+y,z
1/2-x,1/2-y,z
1/2+x,1/2-y,-z
1/2-x,1/2+y,-z
loop_
_atom_site_type_symbol
_atom_site_label
_atom_site_fract_x
_atom_site_fract_y
_atom_site_fract_z
Si Si1 0.945396 0.629115 0.800832
Si Si2 0.680046 0.763087 0.814723
Si Si3 0.250000 0.250000 0.250000
Si Si4 0.566061 0.322474 0.520391
Si Si5 0.027561 0.830011 0.872137
Si Si6 0.154643 0.915101 0.835914
Si Si7 0.811954 0.650407 0.463738
O O1 0.943806 0.750000 0.750000
O O2 0.872036 0.597274 0.817740
O O3 0.000000 0.500000 0.791029
O O4 0.970814 0.730287 0.850628
O O5 0.689692 0.750000 0.750000
O O6 0.750000 0.750000 0.840442
O O7 0.650130 0.600707 0.832389
O O8 0.204389 0.150252 0.208982
O O9 0.569066 0.500000 0.500000
O O10 0.500000 0.253686 0.500000
O O11 0.559162 0.286991 0.584400
O O12 0.629517 0.234832 0.506470
O O13 0.083286 0.856151 0.828030
O O14 0.000000 0.000000 0.889922
O O15 0.173937 0.879418 0.899048
O O16 0.800740 0.500000 0.500000
O O17 0.750000 0.750000 0.465524
#
# Coordination Sequence:
#
# PCOD9328034 Si02
#       7
#    16  16   4  16  16  16  16
#     4  11  25  41  67 101 142 188 244 303 371 442
#     4  10  22  42  65  95 141 185 246 294 368 445
#     4  12  24  44  78 104 160 184 264 318 380 472
#     4  10  25  45  73 105 144 185 248 311 374 446
#     4  11  24  44  72 102 146 191 248 301 380 451
#     4  11  25  44  70 106 140 201 243 309 377 454
#     4  11  25  48  74 108 148 195 252 310 387 460
#
# _framework density 22.452041000000001
#
# number of rings (size 3 to 8) (size 9 to 14) (size 15 to 20)
#    0.000    1.280    2.400    1.920   10.080    1.920 
#    0.000    0.000    0.000    0.000    0.000    0.000 
#    0.000    0.000    0.000    0.000    0.000    0.000 
#
# Total GULP energy -139226.592962 kJ/mol
# GULP energy per Si atom -5569.063718 kJ/mol
# Density = 2.240094 g / cm^3
# Si number density = 22.452041 Si / 1000 Ang^3
#
#
#
# Elastic Constant Matrix: (Units=GPa)
#
#
# Indices 1 2 3 4 5 6 
#
# 1 169.5124 49.1927 32.4889 0.0000 0.0000 0.0000
# 2 49.1927 88.4539 39.7174 0.0000 0.0000 0.0000
# 3 32.4889 39.7174 55.5620 0.0000 0.0000 0.0000
# 4 0.0000 0.0000 0.0000 41.5942 0.0000 0.0000
# 5 0.0000 0.0000 0.0000 0.0000 33.5664 0.0000
# 6 0.0000 0.0000 0.0000 0.0000 0.0000 34.4279
#
#
#
# Elastic Compliance Matrix: (Units=1/GPa)
#
#
# Indices 1 2 3 4 5 6 
#
# 1 0.007179 -0.003104 -0.001979 0.000000 0.000000 0.000000
# 2 -0.003104 0.017991 -0.011046 0.000000 0.000000 0.000000
# 3 -0.001979 -0.011046 0.027051 0.000000 0.000000 0.000000
# 4 0.000000 0.000000 0.000000 0.024042 0.000000 0.000000
# 5 0.000000 0.000000 0.000000 0.000000 0.029792 0.000000
# 6 0.000000 0.000000 0.000000 0.000000 0.000000 0.029046
#
#
# Mechanical properties :
#
#
# Convention : Reuss Voigt Hill
#
# Bulk Modulus (GPa) = 50.09042 61.81403 55.95223
# Shear Modulus (GPa) = 28.73332 34.72630 31.72981
#
# Velocity S-wave (km/s) = 3.58126 3.93706 3.76337
# Velocity P-wave (km/s) = 6.28164 6.94684 6.62260
#
# Compressibility (1/GPa) = 0.01996390
#
# Stress axis : x y z
#
# Youngs Moduli (GPa) = 139.28727 55.58226 36.96722
#
# Poissons Ratio (x) = 0.17253 0.07316
# Poissons Ratio (y) = 0.43236 0.40833
# Poissons Ratio (z) = 0.27567 0.61395
#
# Static dielectric constant tensor:
#      x y z
#    x 1.987060 0.000000 0.000000 
#    y 0.000000 1.823150 0.000000 
#    z 0.000000 0.000000 1.849080 
# 
# From -- ./inp_files/53932.got.cif
#   From: 2010.05.17/outbox.cif.g08.bks.cpg/sg22_27_cif.got.tgz:53932.got - 2010.06.03 23:40:54.
