data_PCOD9328246
_publ_section_title
;
Structure prediction by ZEFSAII (Michael W. Deem and Ramdas Pophale) SiO2 
 PCOD9328246
Probable space group: F 2 2 2
;
_chemical_formula_sum "Si O2"
_cell_formula_units_Z 96
_cell_length_a 23.739679
_cell_length_b 17.497680
_cell_length_c 12.188106
_cell_angle_alpha 90.000000
_cell_angle_beta 90.000000
_cell_angle_gamma 90.000000
_cell_volume 5062.808898
_symmetry_space_group_name_H-M "F 2 2 2"
_symmetry_group_IT_number 22
_symmetry_cell_setting 'orthorhombic'
loop_
_space_group_symop_operation_xyz
x,y,z
-x,-y,z
x,-y,-z
-x,y,-z
x,1/2+y,1/2+z
-x,1/2-y,1/2+z
x,1/2-y,1/2-z
-x,1/2+y,1/2-z
1/2+x,y,1/2+z
1/2-x,-y,1/2+z
1/2+x,-y,1/2-z
1/2-x,y,1/2-z
1/2+x,1/2+y,z
1/2-x,1/2-y,z
1/2+x,1/2-y,-z
1/2-x,1/2+y,-z
loop_
_atom_site_type_symbol
_atom_site_label
_atom_site_fract_x
_atom_site_fract_y
_atom_site_fract_z
Si Si1 0.000000 0.114752 0.500000
Si Si2 0.945179 0.261141 0.550668
Si Si3 0.748216 0.128578 0.065233
Si Si4 0.655031 0.252106 0.122162
Si Si5 0.323313 0.103385 0.141099
Si Si6 0.250000 0.997194 0.250000
Si Si7 0.622577 0.250000 0.750000
Si Si8 0.908509 0.500000 0.000000
O O1 0.031071 0.175608 0.421221
O O2 0.952287 0.061024 0.446945
O O3 0.898734 0.251289 0.456163
O O4 0.915912 0.291656 0.659068
O O5 0.000000 0.301913 0.500000
O O6 0.695180 0.179137 0.105389
O O7 0.804482 0.177546 0.086604
O O8 0.750704 0.055320 0.142557
O O9 0.730371 0.112385 0.940467
O O10 0.639376 0.250000 0.250000
O O11 0.342645 0.186323 0.182830
O O12 0.369427 0.052889 0.075958
O O13 0.303734 0.051661 0.241621
#
# Coordination Sequence:
#
# PCOD9328246 Si02
#       8
#     8  16  16  16  16   8   8   8
#     4   9  20  36  66  94 118 171 218 278 321 400
#     4  10  23  40  63  96 130 168 220 283 333 396
#     4  11  21  41  58  96 129 166 230 273 338 407
#     4  11  21  37  68  89 125 176 220 286 333 399
#     4  12  25  39  64  92 137 173 217 284 339 411
#     4  12  24  36  60  90 128 182 224 266 340 408
#     4  12  24  45  62 100 136 171 232 276 352 414
#     4  11  18  40  64  92 132 168 219 274 342 390
#
# _framework density 18.961805999999999
#
# number of rings (size 3 to 8) (size 9 to 14) (size 15 to 20)
#    0.500    0.500    6.667    0.500    3.500    0.333 
#    0.000    0.000    0.000    0.000    0.000    1.167 
#    0.000    0.000    0.000    0.000    0.000    0.000 
#
# Total GULP energy -133709.569887 kJ/mol
# GULP energy per Si atom -5571.232079 kJ/mol
# Density = 1.891865 g / cm^3
# Si number density = 18.961806 Si / 1000 Ang^3
#
#
#
# Elastic Constant Matrix: (Units=GPa)
#
#
# Indices 1 2 3 4 5 6 
#
# 1 107.6531 26.9096 51.5298 0.0000 0.0000 0.0000
# 2 26.9096 71.5243 27.8465 0.0000 0.0000 0.0000
# 3 51.5298 27.8465 108.9186 0.0000 0.0000 0.0000
# 4 0.0000 0.0000 0.0000 19.9706 0.0000 0.0000
# 5 0.0000 0.0000 0.0000 0.0000 24.0920 0.0000
# 6 0.0000 0.0000 0.0000 0.0000 0.0000 23.8765
#
#
#
# Elastic Compliance Matrix: (Units=1/GPa)
#
#
# Indices 1 2 3 4 5 6 
#
# 1 0.012446 -0.002654 -0.005210 0.000000 0.000000 0.000000
# 2 -0.002654 0.016093 -0.002859 0.000000 0.000000 0.000000
# 3 -0.005210 -0.002859 0.012377 0.000000 0.000000 0.000000
# 4 0.000000 0.000000 0.000000 0.050074 0.000000 0.000000
# 5 0.000000 0.000000 0.000000 0.000000 0.041508 0.000000
# 6 0.000000 0.000000 0.000000 0.000000 0.000000 0.041882
#
#
# Mechanical properties :
#
#
# Convention : Reuss Voigt Hill
#
# Bulk Modulus (GPa) = 51.35968 55.62975 53.49472
# Shear Modulus (GPa) = 24.71394 25.70849 25.21122
#
# Velocity S-wave (km/s) = 3.61412 3.68612 3.65029
# Velocity P-wave (km/s) = 6.67536 6.89334 6.78522
#
# Compressibility (1/GPa) = 0.01947052
#
# Stress axis : x y z
#
# Youngs Moduli (GPa) = 80.34499 62.13941 80.79661
#
# Poissons Ratio (x) = 0.16494 0.42093
# Poissons Ratio (y) = 0.21326 0.23096
# Poissons Ratio (z) = 0.41858 0.17763
#
# Static dielectric constant tensor:
#      x y z
#    x 1.701790 0.000000 0.000000 
#    y 0.000000 1.686150 0.000000 
#    z 0.000000 0.000000 1.691380 
# 
# From -- ./inp_files/24651.got.cif
#   From: 2010.05.17/outbox.cif.g08.bks.cpg/sg22_13_cif.got.tgz:24651.got - 2010.06.03 23:40:54.
