data_PCOD9328882
_publ_section_title
;
Structure prediction by ZEFSAII (Michael W. Deem and Ramdas Pophale) SiO2 
 PCOD9328882
Probable space group: F 2 2 2
;
_chemical_formula_sum "Si O2"
_cell_formula_units_Z 96
_cell_length_a 20.220698
_cell_length_b 14.547688
_cell_length_c 13.885166
_cell_angle_alpha 90.000000
_cell_angle_beta 90.000000
_cell_angle_gamma 90.000000
_cell_volume 4084.521604
_symmetry_space_group_name_H-M "F 2 2 2"
_symmetry_group_IT_number 22
_symmetry_cell_setting 'orthorhombic'
loop_
_space_group_symop_operation_xyz
x,y,z
-x,-y,z
x,-y,-z
-x,y,-z
x,1/2+y,1/2+z
-x,1/2-y,1/2+z
x,1/2-y,1/2-z
-x,1/2+y,1/2-z
1/2+x,y,1/2+z
1/2-x,-y,1/2+z
1/2+x,-y,1/2-z
1/2-x,y,1/2-z
1/2+x,1/2+y,z
1/2-x,1/2-y,z
1/2+x,1/2-y,-z
1/2-x,1/2+y,-z
loop_
_atom_site_type_symbol
_atom_site_label
_atom_site_fract_x
_atom_site_fract_y
_atom_site_fract_z
Si Si1 0.859403 0.879670 0.903636
Si Si2 0.000753 0.630354 0.695190
Si Si3 0.750000 0.605949 0.250000
Si Si4 0.135340 0.915626 0.871795
Si Si5 0.032613 0.323095 0.104564
Si Si6 0.674209 0.409908 0.564105
Si Si7 0.750000 0.250000 0.445146
O O1 0.930079 0.866113 0.854714
O O2 0.806954 0.800086 0.884138
O O3 0.834619 0.981243 0.876528
O O4 0.869348 0.880316 0.019317
O O5 0.061340 0.564240 0.667479
O O6 0.993008 0.625371 0.810237
O O7 0.035528 0.722593 0.651882
O O8 0.813840 0.646590 0.309538
O O9 0.709713 0.561859 0.337126
O O10 0.103843 0.367305 0.091167
O O11 0.000000 0.320523 0.000000
O O12 0.667076 0.500000 0.500000
O O13 0.716397 0.330602 0.509627
#
# Coordination Sequence:
#
# PCOD9328882 Si02
#       7
#    16  16   8  16  16  16   8
#     4  11  24  43  74 103 153 198 253 314 389 460
#     4  11  23  44  75 111 146 201 257 324 382 468
#     4  12  24  43  72 115 144 190 254 319 388 467
#     4  11  22  44  70 109 146 194 254 324 378 458
#     4  11  25  46  71 109 153 192 252 312 390 461
#     4  12  27  47  73 108 152 198 248 317 389 465
#     4  12  24  45  76 111 152 204 244 316 394 458
#
# _framework density 23.503363
#
# number of rings (size 3 to 8) (size 9 to 14) (size 15 to 20)
#    0.000    0.667    3.333    5.000    0.000    3.333 
#    3.000    3.333    0.000    5.500    0.000    0.000 
#    0.000    0.000    0.000    0.000    0.000    0.000 
#
# Total GULP energy -133986.442995 kJ/mol
# GULP energy per Si atom -5582.768458 kJ/mol
# Density = 2.344987 g / cm^3
# Si number density = 23.503363 Si / 1000 Ang^3
#
#
#
# Elastic Constant Matrix: (Units=GPa)
#
#
# Indices 1 2 3 4 5 6 
#
# 1 160.2321 32.7011 94.9305 0.0000 0.0000 0.0000
# 2 32.7011 92.2479 41.7697 0.0000 0.0000 0.0000
# 3 94.9305 41.7697 152.4010 0.0000 0.0000 0.0000
# 4 0.0000 0.0000 0.0000 22.0337 0.0000 0.0000
# 5 0.0000 0.0000 0.0000 0.0000 13.7672 0.0000
# 6 0.0000 0.0000 0.0000 0.0000 0.0000 33.4053
#
#
#
# Elastic Compliance Matrix: (Units=1/GPa)
#
#
# Indices 1 2 3 4 5 6 
#
# 1 0.009946 -0.000823 -0.005970 0.000000 0.000000 0.000000
# 2 -0.000823 0.012444 -0.002898 0.000000 0.000000 0.000000
# 3 -0.005970 -0.002898 0.011074 0.000000 0.000000 0.000000
# 4 0.000000 0.000000 0.000000 0.045385 0.000000 0.000000
# 5 0.000000 0.000000 0.000000 0.000000 0.072637 0.000000
# 6 0.000000 0.000000 0.000000 0.000000 0.000000 0.029935
#
#
# Mechanical properties :
#
#
# Convention : Reuss Voigt Hill
#
# Bulk Modulus (GPa) = 71.00615 82.63149 76.81882
# Shear Modulus (GPa) = 24.33126 29.53987 26.93557
#
# Velocity S-wave (km/s) = 3.22098 3.54903 3.38898
# Velocity P-wave (km/s) = 6.64151 7.21303 6.93316
#
# Compressibility (1/GPa) = 0.01408329
#
# Stress axis : x y z
#
# Youngs Moduli (GPa) = 100.54727 80.35806 90.29766
#
# Poissons Ratio (x) = 0.06610 0.53904
# Poissons Ratio (y) = 0.08271 0.26171
# Poissons Ratio (z) = 0.60023 0.23290
#
# Static dielectric constant tensor:
#      x y z
#    x 1.944450 0.000000 0.000000 
#    y 0.000000 2.087910 0.000000 
#    z 0.000000 0.000000 1.890220 
# 
# From -- ./inp_files/31565.got.cif
#   From: 2010.05.17/outbox.cif.g08.bks.cpg/sg22_16_cif.got.tgz:31565.got - 2010.06.03 23:40:54.
