data_PCOD9328458
_publ_section_title
;
Structure prediction by ZEFSAII (Michael W. Deem and Ramdas Pophale) SiO2 
 PCOD9328458
Probable space group: F 2 2 2
;
_chemical_formula_sum "Si O2"
_cell_formula_units_Z 56
_cell_length_a 29.519811
_cell_length_b 5.688121
_cell_length_c 14.157983
_cell_angle_alpha 90.000000
_cell_angle_beta 90.000000
_cell_angle_gamma 90.000000
_cell_volume 2377.298878
_symmetry_space_group_name_H-M "F 2 2 2"
_symmetry_group_IT_number 22
_symmetry_cell_setting 'orthorhombic'
loop_
_space_group_symop_operation_xyz
x,y,z
-x,-y,z
x,-y,-z
-x,y,-z
x,1/2+y,1/2+z
-x,1/2-y,1/2+z
x,1/2-y,1/2-z
-x,1/2+y,1/2-z
1/2+x,y,1/2+z
1/2-x,-y,1/2+z
1/2+x,-y,1/2-z
1/2-x,y,1/2-z
1/2+x,1/2+y,z
1/2-x,1/2-y,z
1/2+x,1/2-y,-z
1/2-x,1/2+y,-z
loop_
_atom_site_type_symbol
_atom_site_label
_atom_site_fract_x
_atom_site_fract_y
_atom_site_fract_z
Si Si1 0.543274 0.351428 0.646538
Si Si2 0.369004 0.111809 0.895839
Si Si3 0.412215 0.000000 0.500000
Si Si4 0.767538 0.002662 0.356496
O O1 0.500000 0.500000 0.616292
O O2 0.532916 0.250000 0.750000
O O3 0.587833 0.512692 0.658546
O O4 0.556576 0.170415 0.563277
O O5 0.379514 0.380482 0.921667
O O6 0.321590 0.034271 0.853552
O O7 0.369461 0.000000 0.000000
O O8 0.750000 0.002386 0.250000
O O9 0.750000 0.250000 0.400187
O O10 0.750000 0.750000 0.395564
#
# Coordination Sequence:
#
# PCOD9328458 Si02
#       4
#    16  16   8  16
#     4  11  28  48  75 115 148 203 260 327 403 485
#     4  10  25  46  75 107 147 202 254 322 395 474
#     4  10  26  51  78 102 164 198 266 330 399 478
#     4  10  24  42  71 108 145 197 252 318 390 466
#
# _framework density 23.556144
#
# number of rings (size 3 to 8) (size 9 to 14) (size 15 to 20)
#    0.000    1.714    0.000    0.000   16.000    9.714 
#    0.000    0.000    0.000    0.000    0.000    0.000 
#    0.000    0.000    0.000    0.000    0.000    0.000 
#
# Total GULP energy -78208.742845 kJ/mol
# GULP energy per Si atom -5586.338775 kJ/mol
# Density = 2.350253 g / cm^3
# Si number density = 23.556144 Si / 1000 Ang^3
#
#
#
# Elastic Constant Matrix: (Units=GPa)
#
#
# Indices 1 2 3 4 5 6 
#
# 1 215.6664 87.6023 32.8529 0.0000 0.0000 0.0000
# 2 87.6023 167.3305 30.1016 0.0001 -0.0001 -0.0001
# 3 32.8529 30.1016 113.1743 0.0000 0.0000 0.0000
# 4 0.0000 0.0001 0.0000 -40.6785 -0.0001 0.0000
# 5 0.0000 -0.0001 0.0000 -0.0001 35.7101 0.0000
# 6 0.0000 -0.0001 0.0000 0.0000 0.0000 32.2629
#
#
#
# Elastic Compliance Matrix: (Units=1/GPa)
#
#
# Indices 1 2 3 4 5 6 
#
# 1 0.005985 -0.002962 -0.000949 0.000000 0.000000 0.000000
# 2 -0.002962 0.007743 -0.001199 0.000000 0.000000 0.000000
# 3 -0.000949 -0.001199 0.009431 0.000000 0.000000 0.000000
# 4 0.000000 0.000000 0.000000 -0.024583 0.000000 0.000000
# 5 0.000000 0.000000 0.000000 0.000000 0.028003 0.000000
# 6 0.000000 0.000000 0.000000 0.000000 0.000000 0.030995
#
#
# Mechanical properties :
#
#
# Convention : Reuss Voigt Hill
#
# Bulk Modulus (GPa) = 77.30549 88.58720 82.94634
# Shear Modulus (GPa) = 69.34031 28.49984 48.92008
#
# Velocity S-wave (km/s) = 5.43140 3.48209 4.56207
# Velocity P-wave (km/s) = 8.49837 7.33860 7.93969
#
# Compressibility (1/GPa) = 0.01293569
#
# Stress axis : x y z
#
# Youngs Moduli (GPa) = 167.09249 129.15105 106.03840
#
# Poissons Ratio (x) = 0.38260 0.10067
# Poissons Ratio (y) = 0.49499 0.12719
# Poissons Ratio (z) = 0.15863 0.15491
#
# Static dielectric constant tensor:
#      x y z
#    x 1.982420 0.000000 0.000000 
#    y 0.000000 2.084300 0.000000 
#    z 0.000000 0.000000 1.839940 
# 
# From -- ./inp_files/1871.got.cif
#   From: 2010.05.17/outbox.cif.g08.bks.cpg/sg22_1_cif.got.tgz:1871.got - 2010.06.03 23:40:54.
