data_PCOD9328224
_publ_section_title
;
Structure prediction by ZEFSAII (Michael W. Deem and Ramdas Pophale) SiO2 
 PCOD9328224
Probable space group: F 2 2 2
;
_chemical_formula_sum "Si O2"
_cell_formula_units_Z 60
_cell_length_a 12.100715
_cell_length_b 26.753334
_cell_length_c 8.541841
_cell_angle_alpha 90.000000
_cell_angle_beta 90.000000
_cell_angle_gamma 90.000000
_cell_volume 2765.288369
_symmetry_space_group_name_H-M "F 2 2 2"
_symmetry_group_IT_number 22
_symmetry_cell_setting 'orthorhombic'
loop_
_space_group_symop_operation_xyz
x,y,z
-x,-y,z
x,-y,-z
-x,y,-z
x,1/2+y,1/2+z
-x,1/2-y,1/2+z
x,1/2-y,1/2-z
-x,1/2+y,1/2-z
1/2+x,y,1/2+z
1/2-x,-y,1/2+z
1/2+x,-y,1/2-z
1/2-x,y,1/2-z
1/2+x,1/2+y,z
1/2-x,1/2-y,z
1/2+x,1/2-y,-z
1/2-x,1/2+y,-z
loop_
_atom_site_type_symbol
_atom_site_label
_atom_site_fract_x
_atom_site_fract_y
_atom_site_fract_z
Si Si1 0.076551 0.336153 0.625570
Si Si2 0.705005 0.167916 0.925895
Si Si3 0.000000 0.500000 0.000000
Si Si4 0.000000 0.240225 0.500000
Si Si5 0.354193 0.414969 0.634466
O O1 0.195525 0.324802 0.550343
O O2 0.020350 0.282409 0.634732
O O3 0.083056 0.369734 0.777098
O O4 0.000000 0.364761 0.500000
O O5 0.750000 0.173838 0.750000
O O6 0.606293 0.206352 0.962962
O O7 0.673037 0.110590 0.967147
O O8 0.075606 0.463920 0.894884
O O9 0.250000 0.424420 0.750000
#
# Coordination Sequence:
#
# PCOD9328224 Si02
#       5
#    16  16   4   8  16
#     4   9  23  42  66 100 145 188 228 283 346 414
#     4  11  24  41  70 104 145 187 237 282 341 417
#     4  12  26  48  82  94 128 180 236 300 368 420
#     4  10  23  38  70 104 144 192 237 270 334 422
#     4  10  25  49  68 103 140 178 233 298 359 417
#
# _framework density 21.697557
#
# number of rings (size 3 to 8) (size 9 to 14) (size 15 to 20)
#    0.800    1.067    0.000    1.600    7.467    6.400 
#    4.800    4.000    0.000    0.000    0.000    0.000 
#    0.000    0.000    0.000    0.000    0.000    0.000 
#
# Total GULP energy -83700.986243 kJ/mol
# GULP energy per Si atom -5580.065750 kJ/mol
# Density = 2.164817 g / cm^3
# Si number density = 21.697557 Si / 1000 Ang^3
#
#
#
# Elastic Constant Matrix: (Units=GPa)
#
#
# Indices 1 2 3 4 5 6 
#
# 1 113.5406 75.6826 30.4660 0.0000 0.0000 0.0000
# 2 75.6826 160.5567 61.6945 0.0000 0.0000 0.0000
# 3 30.4660 61.6945 91.0311 0.0000 0.0000 0.0000
# 4 0.0000 0.0000 0.0000 27.3541 0.0000 0.0000
# 5 0.0000 0.0000 0.0000 0.0000 27.7578 0.0000
# 6 0.0000 0.0000 0.0000 0.0000 0.0000 24.8950
#
#
#
# Elastic Compliance Matrix: (Units=1/GPa)
#
#
# Indices 1 2 3 4 5 6 
#
# 1 0.012847 -0.005954 -0.000264 0.000000 0.000000 0.000000
# 2 -0.005954 0.011181 -0.005585 0.000000 0.000000 0.000000
# 3 -0.000264 -0.005585 0.014859 0.000000 0.000000 0.000000
# 4 0.000000 0.000000 0.000000 0.036558 0.000000 0.000000
# 5 0.000000 0.000000 0.000000 0.000000 0.036026 0.000000
# 6 0.000000 0.000000 0.000000 0.000000 0.000000 0.040169
#
#
# Mechanical properties :
#
#
# Convention : Reuss Voigt Hill
#
# Bulk Modulus (GPa) = 65.44487 77.86829 71.65658
# Shear Modulus (GPa) = 27.72538 29.15373 28.43955
#
# Velocity S-wave (km/s) = 3.57853 3.66955 3.62432
# Velocity P-wave (km/s) = 6.87766 7.34303 7.11415
#
# Compressibility (1/GPa) = 0.01528004
#
# Stress axis : x y z
#
# Youngs Moduli (GPa) = 77.83719 89.43635 67.30013
#
# Poissons Ratio (x) = 0.53254 0.01778
# Poissons Ratio (y) = 0.46347 0.37587
# Poissons Ratio (z) = 0.02057 0.49950
#
# Static dielectric constant tensor:
#      x y z
#    x 1.868500 0.000000 0.000000 
#    y 0.000000 1.747240 0.000000 
#    z 0.000000 0.000000 2.253650 
# 
# From -- ./inp_files/8481.got.cif
#   From: 2010.05.17/outbox.cif.g08.bks.cpg/sg22_5_cif.got.tgz:8481.got - 2010.06.03 23:40:54.
