data_PCOD9328333
_publ_section_title
;
Structure prediction by ZEFSAII (Michael W. Deem and Ramdas Pophale) SiO2 
 PCOD9328333
Probable space group: F 2 2 2
;
_chemical_formula_sum "Si O2"
_cell_formula_units_Z 52
_cell_length_a 4.915115
_cell_length_b 27.705124
_cell_length_c 17.549400
_cell_angle_alpha 90.000000
_cell_angle_beta 90.000000
_cell_angle_gamma 90.000000
_cell_volume 2389.769724
_symmetry_space_group_name_H-M "F 2 2 2"
_symmetry_group_IT_number 22
_symmetry_cell_setting 'orthorhombic'
loop_
_space_group_symop_operation_xyz
x,y,z
-x,-y,z
x,-y,-z
-x,y,-z
x,1/2+y,1/2+z
-x,1/2-y,1/2+z
x,1/2-y,1/2-z
-x,1/2+y,1/2-z
1/2+x,y,1/2+z
1/2-x,-y,1/2+z
1/2+x,-y,1/2-z
1/2-x,y,1/2-z
1/2+x,1/2+y,z
1/2-x,1/2-y,z
1/2+x,1/2-y,-z
1/2-x,1/2+y,-z
loop_
_atom_site_type_symbol
_atom_site_label
_atom_site_fract_x
_atom_site_fract_y
_atom_site_fract_z
Si Si1 0.996280 0.443024 0.194464
Si Si2 0.608915 0.858738 0.914441
Si Si3 0.872769 0.798576 0.124602
Si Si4 0.250000 0.750000 0.250000
O O1 0.750000 0.432411 0.250000
O O2 0.935011 0.411827 0.119631
O O3 0.000000 0.500000 0.176200
O O4 0.250000 0.431756 0.250000
O O5 0.402388 0.827913 0.861645
O O6 0.907698 0.834828 0.913058
O O7 0.500000 0.855611 0.000000
O O8 0.750000 0.750000 0.083823
O O9 0.045417 0.779682 0.195958
#
# Coordination Sequence:
#
# PCOD9328333 Si02
#       4
#    16  16  16   4
#     4  10  23  43  71 104 135 175 231 289 341 404
#     4  12  27  44  68 101 140 185 225 278 355 412
#     4  12  26  44  67  96 137 175 237 279 340 403
#     4  12  26  44  66 100 126 180 232 288 342 376
#
# _framework density 21.759416000000002
#
# number of rings (size 3 to 8) (size 9 to 14) (size 15 to 20)
#    0.000    0.615    3.077    3.231    6.462    3.077 
#    2.769    0.000    0.000    9.231    0.000    0.000 
#    0.000    0.000    0.000    0.000    0.000    0.000 
#
# Total GULP energy -72553.217331 kJ/mol
# GULP energy per Si atom -5581.016718 kJ/mol
# Density = 2.170989 g / cm^3
# Si number density = 21.759416 Si / 1000 Ang^3
#
#
#
# Elastic Constant Matrix: (Units=GPa)
#
#
# Indices 1 2 3 4 5 6 
#
# 1 176.2722 29.9522 19.4263 0.0000 0.0000 0.0000
# 2 29.9522 61.9448 30.9696 0.0000 0.0000 0.0000
# 3 19.4263 30.9696 74.4319 0.0000 0.0000 0.0000
# 4 0.0000 0.0000 0.0000 -30.5639 0.0000 0.0000
# 5 0.0000 0.0000 0.0000 0.0000 27.4039 0.0000
# 6 0.0000 0.0000 0.0000 0.0000 0.0000 39.1046
#
#
#
# Elastic Compliance Matrix: (Units=1/GPa)
#
#
# Indices 1 2 3 4 5 6 
#
# 1 0.006194 -0.002761 -0.000468 0.000000 0.000000 0.000000
# 2 -0.002761 0.021614 -0.008273 0.000000 0.000000 0.000000
# 3 -0.000468 -0.008273 0.016999 0.000000 0.000000 0.000000
# 4 0.000000 0.000000 0.000000 -0.032718 0.000000 0.000000
# 5 0.000000 0.000000 0.000000 0.000000 0.036491 0.000000
# 6 0.000000 0.000000 0.000000 0.000000 0.000000 0.025572
#
#
# Mechanical properties :
#
#
# Convention : Reuss Voigt Hill
#
# Bulk Modulus (GPa) = 45.86204 52.59391 49.22798
# Shear Modulus (GPa) = 47.88183 22.67564 35.27873
#
# Velocity S-wave (km/s) = 4.69605 3.23167 4.03092
# Velocity P-wave (km/s) = 7.10820 6.17641 6.65862
#
# Compressibility (1/GPa) = 0.02180453
#
# Stress axis : x y z
#
# Youngs Moduli (GPa) = 161.45316 46.26542 58.82602
#
# Poissons Ratio (x) = 0.12774 0.02751
# Poissons Ratio (y) = 0.44578 0.48665
# Poissons Ratio (z) = 0.07552 0.38274
#
# Static dielectric constant tensor:
#      x y z
#    x 1.775580 0.000000 0.000000 
#    y 0.000000 1.863180 0.000000 
#    z 0.000000 0.000000 1.805220 
# 
# From -- ./inp_files/34051.got.cif
#   From: 2010.05.17/outbox.cif.g08.bks.cpg/sg22_18_cif.got.tgz:34051.got - 2010.06.03 23:40:54.
