data_PCOD9328466
_publ_section_title
;
Structure prediction by ZEFSAII (Michael W. Deem and Ramdas Pophale) SiO2 
 PCOD9328466
Probable space group: F 2 2 2
;
_chemical_formula_sum "Si O2"
_cell_formula_units_Z 68
_cell_length_a 29.544234
_cell_length_b 19.995333
_cell_length_c 5.049677
_cell_angle_alpha 90.000000
_cell_angle_beta 90.000000
_cell_angle_gamma 90.000000
_cell_volume 2983.080514
_symmetry_space_group_name_H-M "F 2 2 2"
_symmetry_group_IT_number 22
_symmetry_cell_setting 'orthorhombic'
loop_
_space_group_symop_operation_xyz
x,y,z
-x,-y,z
x,-y,-z
-x,y,-z
x,1/2+y,1/2+z
-x,1/2-y,1/2+z
x,1/2-y,1/2-z
-x,1/2+y,1/2-z
1/2+x,y,1/2+z
1/2-x,-y,1/2+z
1/2+x,-y,1/2-z
1/2-x,y,1/2-z
1/2+x,1/2+y,z
1/2-x,1/2-y,z
1/2+x,1/2-y,-z
1/2-x,1/2+y,-z
loop_
_atom_site_type_symbol
_atom_site_label
_atom_site_fract_x
_atom_site_fract_y
_atom_site_fract_z
Si Si1 0.069414 0.897597 0.275789
Si Si2 0.698407 0.112575 0.840055
Si Si3 0.358540 0.000000 0.000000
Si Si4 0.000000 0.500000 0.500000
Si Si5 0.654237 0.175499 0.359080
Si Si6 0.000000 0.798037 0.500000
O O1 0.106772 0.944266 0.405038
O O2 0.102845 0.851883 0.101349
O O3 0.042544 0.847213 0.463966
O O4 0.032953 0.948648 0.153458
O O5 0.750000 0.106572 0.750000
O O6 0.677189 0.166343 0.641345
O O7 0.685200 0.135162 0.140195
O O8 0.673857 0.040684 0.802402
O O9 0.651823 0.250000 0.250000
O O10 0.004283 0.750000 0.750000
#
# Coordination Sequence:
#
# PCOD9328466 Si02
#       6
#    16  16   8   4  16   8
#     4  11  24  42  68 100 135 179 225 279 340 396
#     4  11  25  44  70 101 132 176 224 277 339 401
#     4  10  24  43  67  96 138 174 223 281 340 404
#     4  12  22  42  74 102 138 178 234 284 336 406
#     4  11  25  44  68  98 137 177 221 276 336 404
#     4  12  27  45  70 101 137 182 232 280 332 404
#
# _framework density 22.795227000000001
#
# number of rings (size 3 to 8) (size 9 to 14) (size 15 to 20)
#    0.000    0.941    0.000    5.647    0.000   18.824 
#    0.000    0.000    0.000    0.000    0.000    0.000 
#    0.000    0.000    0.000    0.000    0.000    0.000 
#
# Total GULP energy -94942.949955 kJ/mol
# GULP energy per Si atom -5584.879409 kJ/mol
# Density = 2.274334 g / cm^3
# Si number density = 22.795227 Si / 1000 Ang^3
#
#
#
# Elastic Constant Matrix: (Units=GPa)
#
#
# Indices 1 2 3 4 5 6 
#
# 1 163.8898 60.4730 16.4294 0.0012 -0.0187 -0.0031
# 2 60.4730 151.6507 27.1067 0.0002 -0.0288 -0.0021
# 3 16.4294 27.1067 78.0145 0.0014 -0.0677 -0.0077
# 4 0.0012 0.0002 0.0014 26.3188 -0.0235 -0.0061
# 5 -0.0187 -0.0288 -0.0677 -0.0235 -264.0529 0.1089
# 6 -0.0031 -0.0021 -0.0077 -0.0061 0.1089 -43.8296
#
#
#
# Elastic Compliance Matrix: (Units=1/GPa)
#
#
# Indices 1 2 3 4 5 6 
#
# 1 0.007177 -0.002763 -0.000551 0.000000 0.000000 0.000000
# 2 -0.002763 0.008095 -0.002231 0.000000 0.000000 0.000000
# 3 -0.000551 -0.002231 0.013709 -0.000001 -0.000003 -0.000002
# 4 0.000000 0.000000 -0.000001 0.037996 -0.000003 -0.000005
# 5 0.000000 0.000000 -0.000003 -0.000003 -0.003787 -0.000009
# 6 0.000000 0.000000 -0.000002 -0.000005 -0.000009 -0.022816
#
#
# Mechanical properties :
#
#
# Convention : Reuss Voigt Hill
#
# Bulk Modulus (GPa) = 55.89622 66.84145 61.36884
# Shear Modulus (GPa) = 87.06710 -37.00968 25.02871
#
# Velocity S-wave (km/s) = 6.18694 -4.03373 3.31717
# Velocity P-wave (km/s) = 8.69551 2.77337 6.45382
#
# Compressibility (1/GPa) = 0.01789030
#
# Stress axis : x y z
#
# Youngs Moduli (GPa) = 139.34357 123.53787 72.94334
#
# Poissons Ratio (x) = 0.34136 0.04021
# Poissons Ratio (y) = 0.38504 0.16271
# Poissons Ratio (z) = 0.07681 0.27557
#
# Static dielectric constant tensor:
#      x y z
#    x 1.723150 -0.000030 -0.000020 
#    y -0.000030 1.981530 0.000030 
#    z -0.000020 0.000030 1.930100 
# 
# From -- ./inp_files/5418.got.cif
#   From: 2010.05.17/outbox.cif.g08.bks.cpg/sg22_3_cif.got.tgz:5418.got - 2010.06.03 23:40:54.
