data_PCOD9328009
_publ_section_title
;
Structure prediction by ZEFSAII (Michael W. Deem and Ramdas Pophale) SiO2 
 PCOD9328009
Probable space group: F 2 2 2
;
_chemical_formula_sum "Si O2"
_cell_formula_units_Z 116
_cell_length_a 18.186379
_cell_length_b 15.969466
_cell_length_c 19.822721
_cell_angle_alpha 90.000000
_cell_angle_beta 90.000000
_cell_angle_gamma 90.000000
_cell_volume 5757.048656
_symmetry_space_group_name_H-M "F 2 2 2"
_symmetry_group_IT_number 22
_symmetry_cell_setting 'orthorhombic'
loop_
_space_group_symop_operation_xyz
x,y,z
-x,-y,z
x,-y,-z
-x,y,-z
x,1/2+y,1/2+z
-x,1/2-y,1/2+z
x,1/2-y,1/2-z
-x,1/2+y,1/2-z
1/2+x,y,1/2+z
1/2-x,-y,1/2+z
1/2+x,-y,1/2-z
1/2-x,y,1/2-z
1/2+x,1/2+y,z
1/2-x,1/2-y,z
1/2+x,1/2-y,-z
1/2-x,1/2+y,-z
loop_
_atom_site_type_symbol
_atom_site_label
_atom_site_fract_x
_atom_site_fract_y
_atom_site_fract_z
Si Si1 0.214946 0.983573 0.819316
Si Si2 0.250000 0.250000 0.250000
Si Si3 0.841997 0.190952 0.850224
Si Si4 0.988287 0.776190 0.827045
Si Si5 0.792898 0.434951 0.059323
Si Si6 0.841226 0.335954 0.491463
Si Si7 0.072411 0.058090 0.893412
Si Si8 0.566567 0.827314 0.947859
O O1 0.250000 0.015677 0.750000
O O2 0.273490 0.013578 0.874281
O O3 0.137820 0.015186 0.851159
O O4 0.197103 0.885507 0.811327
O O5 0.189171 0.270628 0.190034
O O6 0.928428 0.196299 0.841038
O O7 0.826355 0.173444 0.928894
O O8 0.977037 0.750000 0.750000
O O9 0.943590 0.857129 0.851779
O O10 0.967076 0.700125 0.876397
O O11 0.734611 0.358894 0.046956
O O12 0.875711 0.402157 0.057785
O O13 0.778730 0.500000 0.000000
O O14 0.896038 0.410114 0.465896
O O15 0.883938 0.251539 0.472135
O O16 0.000000 0.000000 0.898371
O O17 0.500000 0.841006 0.000000
#
# Coordination Sequence:
#
# PCOD9328009 Si02
#       8
#    16   4  16  16  16  16  16  16
#     4  11  24  43  64  95 131 170 217 267 332 393
#     4  12  28  36  64  96 124 180 214 264 332 396
#     4  12  22  41  64  93 128 165 217 270 326 392
#     4  11  24  43  64  95 131 170 217 267 332 393
#     4  11  24  43  68  95 129 172 220 268 325 395
#     4  10  23  42  68  99 129 170 213 280 333 389
#     4  10  22  41  69  99 131 168 219 280 338 394
#     4  11  24  43  68  95 129 172 220 268 325 395
#
# _framework density 20.149214000000001
#
# number of rings (size 3 to 8) (size 9 to 14) (size 15 to 20)
#    0.000    1.103    5.517    0.414    3.862    0.276 
#    4.966    0.000    0.000    0.000    0.000    0.000 
#    0.000    0.000    0.000    0.000    0.000    0.000 
#
# Total GULP energy -161620.104484 kJ/mol
# GULP energy per Si atom -5573.107051 kJ/mol
# Density = 2.010335 g / cm^3
# Si number density = 20.149214 Si / 1000 Ang^3
#
#
#
# Elastic Constant Matrix: (Units=GPa)
#
#
# Indices 1 2 3 4 5 6 
#
# 1 106.5507 30.8900 21.2634 0.0000 0.0000 0.0000
# 2 30.8900 45.0483 8.7034 0.0000 0.0000 0.0000
# 3 21.2634 8.7034 152.2725 0.0000 0.0000 0.0000
# 4 0.0000 0.0000 0.0000 17.3019 0.0000 0.0000
# 5 0.0000 0.0000 0.0000 0.0000 26.6228 0.0000
# 6 0.0000 0.0000 0.0000 0.0000 0.0000 28.9510
#
#
#
# Elastic Compliance Matrix: (Units=1/GPa)
#
#
# Indices 1 2 3 4 5 6 
#
# 1 0.011931 -0.007947 -0.001212 0.000000 0.000000 0.000000
# 2 -0.007947 0.027740 -0.000476 0.000000 0.000000 0.000000
# 3 -0.001212 -0.000476 0.006764 0.000000 0.000000 0.000000
# 4 0.000000 0.000000 0.000000 0.057797 0.000000 0.000000
# 5 0.000000 0.000000 0.000000 0.000000 0.037562 0.000000
# 6 0.000000 0.000000 0.000000 0.000000 0.000000 0.034541
#
#
# Mechanical properties :
#
#
# Convention : Reuss Voigt Hill
#
# Bulk Modulus (GPa) = 36.81214 47.28724 42.04969
# Shear Modulus (GPa) = 24.43094 30.77612 27.60353
#
# Velocity S-wave (km/s) = 3.48588 3.91245 3.70531
# Velocity P-wave (km/s) = 5.87462 6.62791 6.26260
#
# Compressibility (1/GPa) = 0.02716495
#
# Stress axis : x y z
#
# Youngs Moduli (GPa) = 83.81559 36.04942 147.85057
#
# Poissons Ratio (x) = 0.28649 0.17917
# Poissons Ratio (y) = 0.66609 0.07034
# Poissons Ratio (z) = 0.10157 0.01715
#
# Static dielectric constant tensor:
#      x y z
#    x 1.788660 0.000000 0.000000 
#    y 0.000000 2.676500 0.000000 
#    z 0.000000 0.000000 1.699250 
# 
# From -- ./inp_files/38150.got.cif
#   From: 2010.05.17/outbox.cif.g08.bks.cpg/sg22_20_cif.got.tgz:38150.got - 2010.06.03 23:40:54.
