data_PCOD9328600
_publ_section_title
;
Structure prediction by ZEFSAII (Michael W. Deem and Ramdas Pophale) SiO2 
 PCOD9328600
Probable space group: F 2 2 2
;
_chemical_formula_sum "Si O2"
_cell_formula_units_Z 44
_cell_length_a 5.516857
_cell_length_b 25.436124
_cell_length_c 13.962825
_cell_angle_alpha 90.000000
_cell_angle_beta 90.000000
_cell_angle_gamma 90.000000
_cell_volume 1959.367749
_symmetry_space_group_name_H-M "F 2 2 2"
_symmetry_group_IT_number 22
_symmetry_cell_setting 'orthorhombic'
loop_
_space_group_symop_operation_xyz
x,y,z
-x,-y,z
x,-y,-z
-x,y,-z
x,1/2+y,1/2+z
-x,1/2-y,1/2+z
x,1/2-y,1/2-z
-x,1/2+y,1/2-z
1/2+x,y,1/2+z
1/2-x,-y,1/2+z
1/2+x,-y,1/2-z
1/2-x,y,1/2-z
1/2+x,1/2+y,z
1/2-x,1/2-y,z
1/2+x,1/2-y,-z
1/2-x,1/2+y,-z
loop_
_atom_site_type_symbol
_atom_site_label
_atom_site_fract_x
_atom_site_fract_y
_atom_site_fract_z
Si Si1 0.749972 0.033640 0.858629
Si Si2 0.000000 0.390205 0.000000
Si Si3 0.750000 0.250000 0.750000
Si Si4 0.640560 0.693978 0.645841
O O1 0.750000 0.056130 0.750000
O O2 0.500000 0.000000 0.861889
O O3 0.694524 0.075740 0.940628
O O4 0.000000 0.000000 0.871615
O O5 0.855407 0.352774 0.072669
O O6 0.626378 0.289664 0.676133
O O7 0.750000 0.680918 0.750000
O O8 0.750000 0.750000 0.612298
#
# Coordination Sequence:
#
# PCOD9328600 Si02
#       4
#    16   8   4  16
#     4  10  25  52  74 104 149 191 245 316 374 437
#     4  12  25  42  78 110 130 202 249 298 372 442
#     4   8  18  44  68  90 162 184 222 304 348 426
#     4   9  22  45  65 105 150 187 235 292 361 435
#
# _framework density 22.456222
#
# number of rings (size 3 to 8) (size 9 to 14) (size 15 to 20)
#    0.000    2.545    0.000    0.545    5.091    7.273 
#   19.636    3.636    0.000    0.000    0.000    0.000 
#    0.000    0.000    0.000    0.000    0.000    0.000 
#
# Total GULP energy -61322.960961 kJ/mol
# GULP energy per Si atom -5574.814633 kJ/mol
# Density = 2.240511 g / cm^3
# Si number density = 22.456222 Si / 1000 Ang^3
#
#
#
# Elastic Constant Matrix: (Units=GPa)
#
#
# Indices 1 2 3 4 5 6 
#
# 1 98.3998 57.5758 55.0358 0.0000 0.0000 0.0000
# 2 57.5758 119.7434 121.1333 0.0000 0.0000 0.0000
# 3 55.0358 121.1333 169.9904 0.0000 0.0000 0.0000
# 4 0.0000 0.0000 0.0000 74.9925 0.0000 0.0000
# 5 0.0000 0.0000 0.0000 0.0000 101.0010 0.0000
# 6 0.0000 0.0000 0.0000 0.0000 0.0000 40.0438
#
#
#
# Elastic Compliance Matrix: (Units=1/GPa)
#
#
# Indices 1 2 3 4 5 6 
#
# 1 0.014185 -0.007791 0.000959 0.000000 0.000000 0.000000
# 2 -0.007791 0.034196 -0.021846 0.000000 0.000000 0.000000
# 3 0.000959 -0.021846 0.021139 0.000000 0.000000 0.000000
# 4 0.000000 0.000000 0.000000 0.013335 0.000000 0.000000
# 5 0.000000 0.000000 0.000000 0.000000 0.009901 0.000000
# 6 0.000000 0.000000 0.000000 0.000000 0.000000 0.024973
#
#
# Mechanical properties :
#
#
# Convention : Reuss Voigt Hill
#
# Bulk Modulus (GPa) = 82.19752 95.06926 88.63339
# Shear Modulus (GPa) = 27.91147 53.50007 40.70577
#
# Velocity S-wave (km/s) = 3.52934 4.88630 4.26217
# Velocity P-wave (km/s) = 7.30009 8.61753 7.98602
#
# Compressibility (1/GPa) = 0.01216582
#
# Stress axis : x y z
#
# Youngs Moduli (GPa) = 70.49893 29.24290 47.30557
#
# Poissons Ratio (x) = 0.22782 -0.04537
# Poissons Ratio (y) = 0.54922 1.03342
# Poissons Ratio (z) = -0.06761 0.63883
#
# Static dielectric constant tensor:
#      x y z
#    x 1.922080 0.000000 0.000000 
#    y 0.000000 1.830390 0.000000 
#    z 0.000000 0.000000 1.830380 
# 
# From -- ./inp_files/1564.got.cif
#   From: 2010.05.17/outbox.cif.g08.bks.cpg/sg22_1_cif.got.tgz:1564.got - 2010.06.03 23:40:54.
