data_PCOD9328025
_publ_section_title
;
Structure prediction by ZEFSAII (Michael W. Deem and Ramdas Pophale) SiO2 
 PCOD9328025
Probable space group: F 2 2 2
;
_chemical_formula_sum "Si O2"
_cell_formula_units_Z 84
_cell_length_a 13.599599
_cell_length_b 10.078782
_cell_length_c 27.479662
_cell_angle_alpha 90.000000
_cell_angle_beta 90.000000
_cell_angle_gamma 90.000000
_cell_volume 3766.565648
_symmetry_space_group_name_H-M "F 2 2 2"
_symmetry_group_IT_number 22
_symmetry_cell_setting 'orthorhombic'
loop_
_space_group_symop_operation_xyz
x,y,z
-x,-y,z
x,-y,-z
-x,y,-z
x,1/2+y,1/2+z
-x,1/2-y,1/2+z
x,1/2-y,1/2-z
-x,1/2+y,1/2-z
1/2+x,y,1/2+z
1/2-x,-y,1/2+z
1/2+x,-y,1/2-z
1/2-x,y,1/2-z
1/2+x,1/2+y,z
1/2-x,1/2-y,z
1/2+x,1/2-y,-z
1/2-x,1/2+y,-z
loop_
_atom_site_type_symbol
_atom_site_label
_atom_site_fract_x
_atom_site_fract_y
_atom_site_fract_z
Si Si1 0.856211 0.905223 0.547832
Si Si2 0.141205 0.963665 0.087380
Si Si3 0.007904 0.212280 0.614655
Si Si4 0.250000 0.250000 0.250000
Si Si5 0.634629 0.278929 0.965242
Si Si6 0.586327 0.389791 0.814976
O O1 0.745909 0.912940 0.567709
O O2 0.919424 0.903626 0.597308
O O3 0.889334 0.771653 0.518813
O O4 0.865855 0.000000 0.500000
O O5 0.068781 0.846786 0.102416
O O6 0.110771 0.070056 0.046593
O O7 0.141024 0.051183 0.136921
O O8 0.918630 0.198243 0.576981
O O9 0.966625 0.251722 0.667359
O O10 0.326363 0.346033 0.220874
O O11 0.750000 0.250000 0.960212
O O12 0.500000 0.500000 0.801332
#
# Coordination Sequence:
#
# PCOD9328025 Si02
#       6
#    16  16  16   4  16  16
#     4  12  24  36  56  93 139 184 235 274 315 378
#     4  10  22  42  63  86 133 179 223 283 327 396
#     4  10  23  40  62  86 130 181 220 277 336 392
#     4  12  24  48  92 104 136 172 216 316 384 452
#     4  11  21  36  55  82 121 176 234 268 303 362
#     4   9  23  48  73 106 132 171 233 280 370 459
#
# _framework density 22.301483999999999
#
# number of rings (size 3 to 8) (size 9 to 14) (size 15 to 20)
#    0.000    1.524    1.905    4.000    5.333    1.524 
#    3.429    3.810    0.000    0.000    0.000    0.000 
#    0.000    0.000    0.000    0.000    0.000    0.000 
#
# Total GULP energy -116943.867035 kJ/mol
# GULP energy per Si atom -5568.755573 kJ/mol
# Density = 2.225072 g / cm^3
# Si number density = 22.301484 Si / 1000 Ang^3
#
#
#
# Elastic Constant Matrix: (Units=GPa)
#
#
# Indices 1 2 3 4 5 6 
#
# 1 113.1260 23.5665 52.6556 0.0000 0.0000 0.0000
# 2 23.5665 66.1387 41.4691 0.0000 0.0000 0.0000
# 3 52.6556 41.4691 94.1489 0.0000 0.0000 0.0000
# 4 0.0000 0.0000 0.0000 34.3988 0.0000 0.0000
# 5 0.0000 0.0000 0.0000 0.0000 56.4368 0.0000
# 6 0.0000 0.0000 0.0000 0.0000 0.0000 34.1086
#
#
#
# Elastic Compliance Matrix: (Units=1/GPa)
#
#
# Indices 1 2 3 4 5 6 
#
# 1 0.011951 -0.000093 -0.006643 0.000000 0.000000 0.000000
# 2 -0.000093 0.020889 -0.009149 0.000000 0.000000 0.000000
# 3 -0.006643 -0.009149 0.018366 0.000000 0.000000 0.000000
# 4 0.000000 0.000000 0.000000 0.029071 0.000000 0.000000
# 5 0.000000 0.000000 0.000000 0.000000 0.017719 0.000000
# 6 0.000000 0.000000 0.000000 0.000000 0.000000 0.029318
#
#
# Mechanical properties :
#
#
# Convention : Reuss Voigt Hill
#
# Bulk Modulus (GPa) = 51.44868 56.53287 53.99077
# Shear Modulus (GPa) = 30.19986 35.37033 32.78510
#
# Velocity S-wave (km/s) = 3.68389 3.98679 3.83833
# Velocity P-wave (km/s) = 6.41985 6.82621 6.62614
#
# Compressibility (1/GPa) = 0.01943685
#
# Stress axis : x y z
#
# Youngs Moduli (GPa) = 83.67383 47.87148 54.44710
#
# Poissons Ratio (x) = 0.00447 0.36169
# Poissons Ratio (y) = 0.00780 0.49812
# Poissons Ratio (z) = 0.55584 0.43797
#
# Static dielectric constant tensor:
#      x y z
#    x 1.883810 0.000000 0.000000 
#    y 0.000000 2.056940 0.000000 
#    z 0.000000 0.000000 1.800160 
# 
# From -- ./inp_files/48788.got.cif
#   From: 2010.05.17/outbox.cif.g08.bks.cpg/sg22_25_cif.got.tgz:48788.got - 2010.06.03 23:40:54.
