data_PCOD9328056
_publ_section_title
;
Structure prediction by ZEFSAII (Michael W. Deem and Ramdas Pophale) SiO2 
 PCOD9328056
Probable space group: F 2 2 2
;
_chemical_formula_sum "Si O2"
_cell_formula_units_Z 96
_cell_length_a 9.787499
_cell_length_b 26.372959
_cell_length_c 18.070060
_cell_angle_alpha 90.000000
_cell_angle_beta 90.000000
_cell_angle_gamma 90.000000
_cell_volume 4664.339836
_symmetry_space_group_name_H-M "F 2 2 2"
_symmetry_group_IT_number 22
_symmetry_cell_setting 'orthorhombic'
loop_
_space_group_symop_operation_xyz
x,y,z
-x,-y,z
x,-y,-z
-x,y,-z
x,1/2+y,1/2+z
-x,1/2-y,1/2+z
x,1/2-y,1/2-z
-x,1/2+y,1/2-z
1/2+x,y,1/2+z
1/2-x,-y,1/2+z
1/2+x,-y,1/2-z
1/2-x,y,1/2-z
1/2+x,1/2+y,z
1/2-x,1/2-y,z
1/2+x,1/2-y,-z
1/2-x,1/2+y,-z
loop_
_atom_site_type_symbol
_atom_site_label
_atom_site_fract_x
_atom_site_fract_y
_atom_site_fract_z
Si Si1 0.186381 0.304890 0.940399
Si Si2 0.589191 0.949595 0.667231
Si Si3 0.939374 0.646668 0.088516
Si Si4 0.288152 0.695565 0.834749
Si Si5 0.086120 0.948107 0.340549
Si Si6 0.535981 0.649355 0.913238
O O1 0.250000 0.250000 0.957571
O O2 0.308233 0.334243 0.901858
O O3 0.046487 0.307501 0.894028
O O4 0.133173 0.338052 0.010483
O O5 0.750756 0.956496 0.648880
O O6 0.575282 0.932443 0.753522
O O7 0.527138 0.908217 0.612289
O O8 0.500000 0.000000 0.660760
O O9 0.808871 0.649935 0.139934
O O10 0.021039 0.595007 0.106034
O O11 0.250000 0.699808 0.750000
O O12 0.250000 0.750000 0.869916
O O13 0.438076 0.682095 0.861491
O O14 0.000000 0.000000 0.350127
O O15 0.500000 0.657002 0.000000
#
# Coordination Sequence:
#
# PCOD9328056 Si02
#       6
#    16  16  16  16  16  16
#     4  11  24  40  65  94 131 175 220 272 335 401
#     4  10  23  43  65  95 127 171 222 277 343 400
#     4  11  22  41  65  95 130 170 226 275 331 408
#     4  11  24  41  63  95 134 177 225 278 338 405
#     4  10  22  42  69  93 126 170 224 278 336 407
#     4  12  24  41  65  94 133 173 222 278 334 408
#
# _framework density 20.581690999999999
#
# number of rings (size 3 to 8) (size 9 to 14) (size 15 to 20)
#    0.000    1.167    3.333    2.500    4.667    0.333 
#    0.000    1.667    0.000    4.000    0.000    0.000 
#    0.000    0.000    0.000    0.000    0.000    0.000 
#
# Total GULP energy -133731.608003 kJ/mol
# GULP energy per Si atom -5572.150333 kJ/mol
# Density = 2.053485 g / cm^3
# Si number density = 20.581691 Si / 1000 Ang^3
#
#
#
# Elastic Constant Matrix: (Units=GPa)
#
#
# Indices 1 2 3 4 5 6 
#
# 1 137.4209 41.2281 17.1940 0.0000 0.0000 0.0000
# 2 41.2281 96.7901 27.2546 0.0000 0.0000 0.0000
# 3 17.1940 27.2546 38.5338 0.0000 0.0000 0.0000
# 4 0.0000 0.0000 0.0000 -39.4011 0.0000 0.0000
# 5 0.0000 0.0000 0.0000 0.0000 20.3096 0.0000
# 6 0.0000 0.0000 0.0000 0.0000 0.0000 42.2449
#
#
#
# Elastic Compliance Matrix: (Units=1/GPa)
#
#
# Indices 1 2 3 4 5 6 
#
# 1 0.008414 -0.003155 -0.001523 0.000000 0.000000 0.000000
# 2 -0.003155 0.014084 -0.008554 0.000000 0.000000 0.000000
# 3 -0.001523 -0.008554 0.032681 0.000000 0.000000 0.000000
# 4 0.000000 0.000000 0.000000 -0.025380 0.000000 0.000000
# 5 0.000000 0.000000 0.000000 0.000000 0.049238 0.000000
# 6 0.000000 0.000000 0.000000 0.000000 0.000000 0.023671
#
#
# Mechanical properties :
#
#
# Convention : Reuss Voigt Hill
#
# Bulk Modulus (GPa) = 34.82435 49.34425 42.08430
# Shear Modulus (GPa) = 36.03772 17.10190 26.56981
#
# Velocity S-wave (km/s) = 4.18899 2.88571 3.59687
# Velocity P-wave (km/s) = 6.35245 5.92705 6.14343
#
# Compressibility (1/GPa) = 0.02871554
#
# Stress axis : x y z
#
# Youngs Moduli (GPa) = 118.84889 71.00146 30.59905
#
# Poissons Ratio (x) = 0.22402 0.04659
# Poissons Ratio (y) = 0.37499 0.26174
# Poissons Ratio (z) = 0.18098 0.60733
#
# Static dielectric constant tensor:
#      x y z
#    x 1.805500 0.000000 0.000000 
#    y 0.000000 1.765760 0.000000 
#    z 0.000000 0.000000 1.766030 
# 
# From -- ./inp_files/41976.got.cif
#   From: 2010.05.17/outbox.cif.g08.bks.cpg/sg22_21_cif.got.tgz:41976.got - 2010.06.03 23:40:54.
