data_PCOD9328847
_publ_section_title
;
Structure prediction by ZEFSAII (Michael W. Deem and Ramdas Pophale) SiO2 
 PCOD9328847
Probable space group: F 2 2 2
;
_chemical_formula_sum "Si O2"
_cell_formula_units_Z 64
_cell_length_a 11.776863
_cell_length_b 13.806083
_cell_length_c 17.190956
_cell_angle_alpha 90.000000
_cell_angle_beta 90.000000
_cell_angle_gamma 90.000000
_cell_volume 2795.117901
_symmetry_space_group_name_H-M "F 2 2 2"
_symmetry_group_IT_number 22
_symmetry_cell_setting 'orthorhombic'
loop_
_space_group_symop_operation_xyz
x,y,z
-x,-y,z
x,-y,-z
-x,y,-z
x,1/2+y,1/2+z
-x,1/2-y,1/2+z
x,1/2-y,1/2-z
-x,1/2+y,1/2-z
1/2+x,y,1/2+z
1/2-x,-y,1/2+z
1/2+x,-y,1/2-z
1/2-x,y,1/2-z
1/2+x,1/2+y,z
1/2-x,1/2-y,z
1/2+x,1/2-y,-z
1/2-x,1/2+y,-z
loop_
_atom_site_type_symbol
_atom_site_label
_atom_site_fract_x
_atom_site_fract_y
_atom_site_fract_z
Si Si1 0.558436 0.636801 0.774732
Si Si2 0.554064 0.601518 0.600392
Si Si3 0.321178 0.653600 0.550997
Si Si4 0.323157 0.039813 0.326694
O O1 0.568802 0.750000 0.750000
O O2 0.582985 0.591244 0.689930
O O3 0.436893 0.604103 0.810003
O O4 0.643785 0.574658 0.829057
O O5 0.500000 0.500000 0.577417
O O6 0.444118 0.670657 0.591498
O O7 0.648223 0.629208 0.538147
O O8 0.250000 0.750000 0.554415
O O9 0.248929 0.574570 0.599072
O O10 0.250000 0.058909 0.250000
#
# Coordination Sequence:
#
# PCOD9328847 Si02
#       4
#    16  16  16  16
#     4  11  23  43  72 107 146 185 244 309 363 430
#     4  11  22  47  71 101 142 195 244 288 360 459
#     4  11  23  40  72 106 141 187 244 296 364 438
#     4  11  22  41  70 108 138 188 247 293 358 435
#
# _framework density 22.897065000000001
#
# number of rings (size 3 to 8) (size 9 to 14) (size 15 to 20)
#    0.000    1.000    5.000    3.000    0.000    0.500 
#   13.500    0.000    0.000    0.000    0.000    0.000 
#    0.000    0.000    0.000    0.000    0.000    0.000 
#
# Total GULP energy -89310.309792 kJ/mol
# GULP energy per Si atom -5581.894362 kJ/mol
# Density = 2.284495 g / cm^3
# Si number density = 22.897065 Si / 1000 Ang^3
#
#
#
# Elastic Constant Matrix: (Units=GPa)
#
#
# Indices 1 2 3 4 5 6 
#
# 1 142.9748 52.4496 63.3922 0.0000 0.0000 0.0000
# 2 52.4496 151.2068 22.1737 0.0000 0.0000 0.0000
# 3 63.3922 22.1737 98.2277 0.0000 0.0000 0.0000
# 4 0.0000 0.0000 0.0000 28.4943 0.0000 0.0000
# 5 0.0000 0.0000 0.0000 0.0000 54.8593 0.0000
# 6 0.0000 0.0000 0.0000 0.0000 0.0000 31.2377
#
#
#
# Elastic Compliance Matrix: (Units=1/GPa)
#
#
# Indices 1 2 3 4 5 6 
#
# 1 0.010856 -0.002832 -0.006367 0.000000 0.000000 0.000000
# 2 -0.002832 0.007579 0.000117 0.000000 0.000000 0.000000
# 3 -0.006367 0.000117 0.014263 0.000000 0.000000 0.000000
# 4 0.000000 0.000000 0.000000 0.035095 0.000000 0.000000
# 5 0.000000 0.000000 0.000000 0.000000 0.018228 0.000000
# 6 0.000000 0.000000 0.000000 0.000000 0.000000 0.032013
#
#
# Mechanical properties :
#
#
# Convention : Reuss Voigt Hill
#
# Bulk Modulus (GPa) = 68.80508 74.27114 71.53811
# Shear Modulus (GPa) = 35.45047 39.87784 37.66415
#
# Velocity S-wave (km/s) = 3.93905 4.17779 4.06018
# Velocity P-wave (km/s) = 7.12763 7.46855 7.30009
#
# Compressibility (1/GPa) = 0.01453381
#
# Stress axis : x y z
#
# Youngs Moduli (GPa) = 92.11458 131.94919 70.11199
#
# Poissons Ratio (x) = 0.37368 0.44639
# Poissons Ratio (y) = 0.26087 -0.00819
# Poissons Ratio (z) = 0.58647 -0.01542
#
# Static dielectric constant tensor:
#      x y z
#    x 1.973720 0.000000 0.000000 
#    y 0.000000 2.024700 0.000000 
#    z 0.000000 0.000000 1.817660 
# 
# From -- ./inp_files/20849.got.cif
#   From: 2010.05.17/outbox.cif.g08.bks.cpg/sg22_11_cif.got.tgz:20849.got - 2010.06.03 23:40:54.
