data_PCOD9328335
_publ_section_title
;
Structure prediction by ZEFSAII (Michael W. Deem and Ramdas Pophale) SiO2 
 PCOD9328335
Probable space group: F 2 2 2
;
_chemical_formula_sum "Si O2"
_cell_formula_units_Z 52
_cell_length_a 16.045675
_cell_length_b 13.535437
_cell_length_c 9.970663
_cell_angle_alpha 90.000000
_cell_angle_beta 90.000000
_cell_angle_gamma 90.000000
_cell_volume 2165.480668
_symmetry_space_group_name_H-M "F 2 2 2"
_symmetry_group_IT_number 22
_symmetry_cell_setting 'orthorhombic'
loop_
_space_group_symop_operation_xyz
x,y,z
-x,-y,z
x,-y,-z
-x,y,-z
x,1/2+y,1/2+z
-x,1/2-y,1/2+z
x,1/2-y,1/2-z
-x,1/2+y,1/2-z
1/2+x,y,1/2+z
1/2-x,-y,1/2+z
1/2+x,-y,1/2-z
1/2-x,y,1/2-z
1/2+x,1/2+y,z
1/2-x,1/2-y,z
1/2+x,1/2-y,-z
1/2-x,1/2+y,-z
loop_
_atom_site_type_symbol
_atom_site_label
_atom_site_fract_x
_atom_site_fract_y
_atom_site_fract_z
Si Si1 0.893249 0.611682 0.738314
Si Si2 0.913002 0.383180 0.794421
Si Si3 0.250000 0.750000 0.250000
Si Si4 0.653123 0.776394 0.465710
O O1 0.889204 0.498005 0.782458
O O2 0.818935 0.672943 0.808250
O O3 0.877308 0.649309 0.584232
O O4 0.989274 0.635025 0.767213
O O5 0.894045 0.326511 0.932357
O O6 0.862673 0.335918 0.671540
O O7 0.750000 0.750000 0.475987
#
# Coordination Sequence:
#
# PCOD9328335 Si02
#       4
#    16  16   4  16
#     4  11  24  44  68 104 142 197 240 304 369 439
#     4  10  23  43  73  98 146 194 248 290 374 450
#     4  12  24  40  68 104 154 180 256 316 352 440
#     4  11  22  42  70 103 142 192 235 306 365 430
#
# _framework density 24.013145000000002
#
# number of rings (size 3 to 8) (size 9 to 14) (size 15 to 20)
#    0.000    1.231    1.538    5.538    4.308    2.462 
#    0.000    1.538    0.000    7.385    0.000    0.000 
#    0.000    0.000    0.000    0.000    0.000    0.000 
#
# Total GULP energy -72491.636874 kJ/mol
# GULP energy per Si atom -5576.279760 kJ/mol
# Density = 2.395849 g / cm^3
# Si number density = 24.013145 Si / 1000 Ang^3
#
#
#
# Elastic Constant Matrix: (Units=GPa)
#
#
# Indices 1 2 3 4 5 6 
#
# 1 213.5178 73.9047 50.4600 0.0000 0.0000 0.0000
# 2 73.9047 199.2463 19.6164 0.0000 0.0000 0.0000
# 3 50.4600 19.6164 100.1682 0.0000 0.0000 0.0000
# 4 0.0000 0.0000 0.0000 27.3673 0.0000 0.0000
# 5 0.0000 0.0000 0.0000 0.0000 42.9549 0.0000
# 6 0.0000 0.0000 0.0000 0.0000 0.0000 -11.7623
#
#
#
# Elastic Compliance Matrix: (Units=1/GPa)
#
#
# Indices 1 2 3 4 5 6 
#
# 1 0.005984 -0.001961 -0.002630 0.000000 0.000000 0.000000
# 2 -0.001961 0.005760 -0.000140 0.000000 0.000000 0.000000
# 3 -0.002630 -0.000140 0.011336 0.000000 0.000000 0.000000
# 4 0.000000 0.000000 0.000000 0.036540 0.000000 0.000000
# 5 0.000000 0.000000 0.000000 0.000000 0.023280 0.000000
# 6 0.000000 0.000000 0.000000 0.000000 0.000000 -0.085018
#
#
# Mechanical properties :
#
#
# Convention : Reuss Voigt Hill
#
# Bulk Modulus (GPa) = 73.43838 88.98827 81.21332
# Shear Modulus (GPa) = 420.75880 36.30875 228.53377
#
# Velocity S-wave (km/s) = 13.25144 3.89271 9.76611
# Velocity P-wave (km/s) = 16.27216 7.57251 12.69106
#
# Compressibility (1/GPa) = 0.01361686
#
# Stress axis : x y z
#
# Youngs Moduli (GPa) = 167.12182 173.61328 88.21657
#
# Poissons Ratio (x) = 0.34037 0.23204
# Poissons Ratio (y) = 0.32764 0.01238
# Poissons Ratio (z) = 0.43959 0.02437
#
# Static dielectric constant tensor:
#      x y z
#    x 1.859440 0.000000 0.000000 
#    y 0.000000 1.985240 0.000000 
#    z 0.000000 0.000000 4.211440 
# 
# From -- ./inp_files/19163.got.cif
#   From: 2010.05.17/outbox.cif.g08.bks.cpg/sg22_10_cif.got.tgz:19163.got - 2010.06.03 23:40:54.
