data_PCOD9328484
_publ_section_title
;
Structure prediction by ZEFSAII (Michael W. Deem and Ramdas Pophale) SiO2 
 PCOD9328484
Probable space group: F 2 2 2
;
_chemical_formula_sum "Si O2"
_cell_formula_units_Z 60
_cell_length_a 8.242826
_cell_length_b 20.096824
_cell_length_c 17.078156
_cell_angle_alpha 90.000000
_cell_angle_beta 90.000000
_cell_angle_gamma 90.000000
_cell_volume 2829.075500
_symmetry_space_group_name_H-M "F 2 2 2"
_symmetry_group_IT_number 22
_symmetry_cell_setting 'orthorhombic'
loop_
_space_group_symop_operation_xyz
x,y,z
-x,-y,z
x,-y,-z
-x,y,-z
x,1/2+y,1/2+z
-x,1/2-y,1/2+z
x,1/2-y,1/2-z
-x,1/2+y,1/2-z
1/2+x,y,1/2+z
1/2-x,-y,1/2+z
1/2+x,-y,1/2-z
1/2-x,y,1/2-z
1/2+x,1/2+y,z
1/2-x,1/2-y,z
1/2+x,1/2-y,-z
1/2-x,1/2+y,-z
loop_
_atom_site_type_symbol
_atom_site_label
_atom_site_fract_x
_atom_site_fract_y
_atom_site_fract_z
Si Si1 0.248283 0.500000 0.000000
Si Si2 0.500000 0.500000 0.137420
Si Si3 0.750000 0.750000 0.750000
Si Si4 0.500000 0.883465 0.000000
Si Si5 0.189260 0.675326 0.858718
Si Si6 0.491788 0.862355 0.296796
O O1 0.354974 0.485750 0.076312
O O2 0.141172 0.435634 0.977488
O O3 0.439162 0.561616 0.191139
O O4 0.638517 0.802108 0.700604
O O5 0.577498 0.838092 0.067077
O O6 0.250000 0.750000 0.845752
O O7 0.366166 0.642413 0.861057
O O8 0.084280 0.649199 0.785432
#
# Coordination Sequence:
#
# PCOD9328484 Si02
#       6
#     8   8   4   8  16  16
#     4  10  24  44  68 104 150 184 244 310 370 466
#     4  11  24  44  70 107 150 190 242 313 390 442
#     4  12  24  42  72 112 144 184 256 306 384 442
#     4  11  24  46  70 100 138 197 242 296 380 443
#     4  11  23  49  69 102 145 189 243 313 370 448
#     4  11  24  44  74 104 146 190 245 317 370 449
#
# _framework density 21.208341999999998
#
# number of rings (size 3 to 8) (size 9 to 14) (size 15 to 20)
#    0.000    1.067    5.333    0.800    3.733    4.267 
#    7.200    0.000    0.000    0.000    0.000    0.000 
#    0.000    0.000    0.000    0.000    0.000    0.000 
#
# Total GULP energy -83542.374032 kJ/mol
# GULP energy per Si atom -5569.491602 kJ/mol
# Density = 2.116007 g / cm^3
# Si number density = 21.208342 Si / 1000 Ang^3
#
#
#
# Elastic Constant Matrix: (Units=GPa)
#
#
# Indices 1 2 3 4 5 6 
#
# 1 113.7357 47.9514 53.9310 0.0000 0.0000 0.0000
# 2 47.9514 163.0057 70.5023 0.0000 0.0000 0.0000
# 3 53.9310 70.5023 100.0071 0.0000 0.0000 0.0000
# 4 0.0000 0.0000 0.0000 30.6818 0.0000 0.0000
# 5 0.0000 0.0000 0.0000 0.0000 151.8000 0.0000
# 6 0.0000 0.0000 0.0000 0.0000 0.0000 19.0743
#
#
#
# Elastic Compliance Matrix: (Units=1/GPa)
#
#
# Indices 1 2 3 4 5 6 
#
# 1 0.011936 -0.001046 -0.005699 0.000000 0.000000 0.000000
# 2 -0.001046 0.008918 -0.005722 0.000000 0.000000 0.000000
# 3 -0.005699 -0.005722 0.017107 0.000000 0.000000 0.000000
# 4 0.000000 0.000000 0.000000 0.032593 0.000000 0.000000
# 5 0.000000 0.000000 0.000000 0.000000 0.006588 0.000000
# 6 0.000000 0.000000 0.000000 0.000000 0.000000 0.052427
#
#
# Mechanical properties :
#
#
# Convention : Reuss Voigt Hill
#
# Bulk Modulus (GPa) = 76.77733 80.16866 78.47299
# Shear Modulus (GPa) = 31.47742 53.93547 42.70645
#
# Velocity S-wave (km/s) = 3.85671 5.04841 4.49225
# Velocity P-wave (km/s) = 7.49082 8.47730 7.99928
#
# Compressibility (1/GPa) = 0.01302468
#
# Stress axis : x y z
#
# Youngs Moduli (GPa) = 83.78179 112.13823 58.45631
#
# Poissons Ratio (x) = 0.11732 0.33315
# Poissons Ratio (y) = 0.08765 0.33451
# Poissons Ratio (z) = 0.47748 0.64171
#
# Static dielectric constant tensor:
#      x y z
#    x 1.815460 0.000000 0.000000 
#    y 0.000000 1.812870 0.000000 
#    z 0.000000 0.000000 1.746410 
# 
# From -- ./inp_files/11209.got.cif
#   From: 2010.05.17/outbox.cif.g08.bks.cpg/sg22_6_cif.got.tgz:11209.got - 2010.06.03 23:40:54.
