data_PCOD9328974
_publ_section_title
;
Structure prediction by ZEFSAII (Michael W. Deem and Ramdas Pophale) SiO2 
 PCOD9328974
Probable space group: F 2 2 2
;
_chemical_formula_sum "Si O2"
_cell_formula_units_Z 60
_cell_length_a 24.114001
_cell_length_b 19.688763
_cell_length_c 5.577945
_cell_angle_alpha 90.000000
_cell_angle_beta 90.000000
_cell_angle_gamma 90.000000
_cell_volume 2648.268004
_symmetry_space_group_name_H-M "F 2 2 2"
_symmetry_group_IT_number 22
_symmetry_cell_setting 'orthorhombic'
loop_
_space_group_symop_operation_xyz
x,y,z
-x,-y,z
x,-y,-z
-x,y,-z
x,1/2+y,1/2+z
-x,1/2-y,1/2+z
x,1/2-y,1/2-z
-x,1/2+y,1/2-z
1/2+x,y,1/2+z
1/2-x,-y,1/2+z
1/2+x,-y,1/2-z
1/2-x,y,1/2-z
1/2+x,1/2+y,z
1/2-x,1/2-y,z
1/2+x,1/2-y,-z
1/2-x,1/2+y,-z
loop_
_atom_site_type_symbol
_atom_site_label
_atom_site_fract_x
_atom_site_fract_y
_atom_site_fract_z
Si Si1 0.250000 0.053391 0.750000
Si Si2 0.093775 0.750000 0.250000
Si Si3 0.851465 0.500000 0.500000
Si Si4 0.340704 0.250000 0.250000
Si Si5 0.500000 0.500000 0.500000
Si Si6 0.443717 0.100079 0.647873
Si Si7 0.750000 0.865163 0.250000
O O1 0.307283 0.011192 0.715919
O O2 0.246931 0.096605 0.505975
O O3 0.126310 0.753843 0.501398
O O4 0.063713 0.822661 0.229805
O O5 0.891760 0.565850 0.507174
O O6 0.302839 0.183622 0.264104
O O7 0.458009 0.548843 0.360121
O O8 0.500000 0.097242 0.500000
#
# Coordination Sequence:
#
# PCOD9328974 Si02
#       7
#     8   8   8   8   4  16   8
#     4  12  27  43  77 120 157 223 261 350 395 502
#     4  12  30  46  84 119 162 204 282 335 422 482
#     4  12  25  51  74 114 168 200 280 324 422 484
#     4  11  24  47  74 115 158 223 256 346 396 494
#     4  12  26  50  84 114 154 230 270 344 424 480
#     4  12  28  53  78 119 159 220 272 348 410 499
#     4  11  23  46  73 110 169 209 285 312 417 483
#
# _framework density 22.656317000000001
#
# number of rings (size 3 to 8) (size 9 to 14) (size 15 to 20)
#    0.000    0.267    2.667    5.600    5.600    7.467 
#    0.000    0.000    0.000    0.000    0.000    0.000 
#    0.000    0.000    0.000    0.000    0.000    0.000 
#
# Total GULP energy -83811.669226 kJ/mol
# GULP energy per Si atom -5587.444615 kJ/mol
# Density = 2.260475 g / cm^3
# Si number density = 22.656317 Si / 1000 Ang^3
#
#
#
# Elastic Constant Matrix: (Units=GPa)
#
#
# Indices 1 2 3 4 5 6 
#
# 1 150.4930 84.9661 68.8011 0.0001 0.0001 -0.0001
# 2 84.9661 201.8897 89.6583 0.0001 0.0005 -0.0006
# 3 68.8011 89.6583 182.1728 0.0004 0.0015 -0.0013
# 4 0.0001 0.0001 0.0004 54.5023 0.0010 -0.0010
# 5 0.0001 0.0005 0.0015 0.0010 108.5362 -0.0008
# 6 -0.0001 -0.0006 -0.0013 -0.0010 -0.0008 53.2231
#
#
#
# Elastic Compliance Matrix: (Units=1/GPa)
#
#
# Indices 1 2 3 4 5 6 
#
# 1 0.009263 -0.003001 -0.002022 0.000000 0.000000 0.000000
# 2 -0.003001 0.007311 -0.002465 0.000000 0.000000 0.000000
# 3 -0.002022 -0.002465 0.007466 0.000000 0.000000 0.000000
# 4 0.000000 0.000000 0.000000 0.018348 0.000000 0.000000
# 5 0.000000 0.000000 0.000000 0.000000 0.009214 0.000000
# 6 0.000000 0.000000 0.000000 0.000000 0.000000 0.018789
#
#
# Mechanical properties :
#
#
# Convention : Reuss Voigt Hill
#
# Bulk Modulus (GPa) = 110.30691 113.48961 111.89826
# Shear Modulus (GPa) = 56.57020 62.66098 59.61559
#
# Velocity S-wave (km/s) = 5.00230 5.26471 5.13519
# Velocity P-wave (km/s) = 9.06404 9.33578 9.20091
#
# Compressibility (1/GPa) = 0.00906562
#
# Stress axis : x y z
#
# Youngs Moduli (GPa) = 107.95440 136.78726 133.94326
#
# Poissons Ratio (x) = 0.41045 0.27078
# Poissons Ratio (y) = 0.32393 0.33014
# Poissons Ratio (z) = 0.21824 0.33715
#
# Static dielectric constant tensor:
#      x y z
#    x 1.869620 0.000000 0.000000 
#    y 0.000000 1.727130 0.000000 
#    z 0.000000 0.000000 1.819660 
# 
# From -- ./inp_files/2695.got.cif
#   From: 2010.05.17/outbox.cif.g08.bks.cpg/sg22_2_cif.got.tgz:2695.got - 2010.06.03 23:40:54.
