data_PCOD9328800
_publ_section_title
;
Structure prediction by ZEFSAII (Michael W. Deem and Ramdas Pophale) SiO2 
 PCOD9328800
Probable space group: F 2 2 2
;
_chemical_formula_sum "Si O2"
_cell_formula_units_Z 112
_cell_length_a 14.966733
_cell_length_b 12.417637
_cell_length_c 31.363603
_cell_angle_alpha 90.000000
_cell_angle_beta 90.000000
_cell_angle_gamma 90.000000
_cell_volume 5828.971329
_symmetry_space_group_name_H-M "F 2 2 2"
_symmetry_group_IT_number 22
_symmetry_cell_setting 'orthorhombic'
loop_
_space_group_symop_operation_xyz
x,y,z
-x,-y,z
x,-y,-z
-x,y,-z
x,1/2+y,1/2+z
-x,1/2-y,1/2+z
x,1/2-y,1/2-z
-x,1/2+y,1/2-z
1/2+x,y,1/2+z
1/2-x,-y,1/2+z
1/2+x,-y,1/2-z
1/2-x,y,1/2-z
1/2+x,1/2+y,z
1/2-x,1/2-y,z
1/2+x,1/2-y,-z
1/2-x,1/2+y,-z
loop_
_atom_site_type_symbol
_atom_site_label
_atom_site_fract_x
_atom_site_fract_y
_atom_site_fract_z
Si Si1 0.472104 0.645993 0.227690
Si Si2 0.648054 0.542390 0.260841
Si Si3 0.000622 0.370912 0.627232
Si Si4 0.392291 0.874393 0.000090
Si Si5 0.649807 0.715322 0.407983
Si Si6 0.849995 0.784774 0.592397
Si Si7 0.104950 0.499913 0.144510
O O1 0.432539 0.750000 0.250000
O O2 0.565993 0.625417 0.253032
O O3 0.396385 0.554809 0.233736
O O4 0.494654 0.653053 0.177878
O O5 0.750000 0.574057 0.250000
O O6 0.651636 0.507670 0.310003
O O7 0.915510 0.310528 0.607121
O O8 0.000000 0.500000 0.621304
O O9 0.084370 0.311830 0.605369
O O10 0.361207 0.813126 0.957778
O O11 0.500000 0.874822 0.000000
O O12 0.360901 0.816382 0.042959
O O13 0.362956 0.000000 0.000000
O O14 0.750000 0.750000 0.398576
O O15 0.626197 0.605612 0.383099
O O16 0.750000 0.750000 0.601565
O O17 0.873377 0.891779 0.619067
O O18 0.000000 0.500000 0.153627
#
# Coordination Sequence:
#
# PCOD9328800 Si02
#       7
#    16  16  16  16  16  16  16
#     4  11  23  46  64  91 135 180 224 282 340 404
#     4  11  25  42  66  98 133 174 233 282 330 397
#     4  12  26  45  66  97 147 184 217 281 360 411
#     4  11  21  46  74 103 135 176 235 289 338 405
#     4  12  27  43  73 105 136 180 231 287 347 414
#     4  12  27  43  73 105 136 180 231 287 347 414
#     4  12  22  48  71 102 132 182 247 289 332 412
#
# _framework density 19.214369000000001
#
# number of rings (size 3 to 8) (size 9 to 14) (size 15 to 20)
#    0.000    0.429    7.143    2.143    6.000    0.571 
#    0.000    1.429    0.000    0.000    0.000    0.000 
#    0.000    0.000    0.000    0.000    0.000    0.000 
#
# Total GULP energy -156444.628243 kJ/mol
# GULP energy per Si atom -5587.308152 kJ/mol
# Density = 1.917064 g / cm^3
# Si number density = 19.214369 Si / 1000 Ang^3
#
#
#
# Elastic Constant Matrix: (Units=GPa)
#
#
# Indices 1 2 3 4 5 6 
#
# 1 104.1459 24.5162 7.4890 0.0000 0.0000 0.0000
# 2 24.5162 126.4901 34.1261 0.0000 0.0000 0.0000
# 3 7.4890 34.1261 129.4702 0.0000 0.0000 0.0000
# 4 0.0000 0.0000 0.0000 -7.7393 0.0000 0.0000
# 5 0.0000 0.0000 0.0000 0.0000 145.9890 0.0000
# 6 0.0000 0.0000 0.0000 0.0000 0.0000 34.8690
#
#
#
# Elastic Compliance Matrix: (Units=1/GPa)
#
#
# Indices 1 2 3 4 5 6 
#
# 1 0.010062 -0.001930 -0.000073 0.000000 0.000000 0.000000
# 2 -0.001930 0.008881 -0.002229 0.000000 0.000000 0.000000
# 3 -0.000073 -0.002229 0.008316 0.000000 0.000000 0.000000
# 4 0.000000 0.000000 0.000000 -0.129211 0.000000 0.000000
# 5 0.000000 0.000000 0.000000 0.000000 0.006850 0.000000
# 6 0.000000 0.000000 0.000000 0.000000 0.000000 0.028679
#
#
# Mechanical properties :
#
#
# Convention : Reuss Voigt Hill
#
# Bulk Modulus (GPa) = 53.21182 54.70765 53.95974
# Shear Modulus (GPa) = -96.72362 54.22207 -21.25078
#
# Velocity S-wave (km/s) = -7.10271 5.31797 -3.32924
# Velocity P-wave (km/s) = 6.28576 8.13891 3.65589
#
# Compressibility (1/GPa) = 0.01879282
#
# Stress axis : x y z
#
# Youngs Moduli (GPa) = 99.38778 112.59545 120.25557
#
# Poissons Ratio (x) = 0.21735 0.00880
# Poissons Ratio (y) = 0.19186 0.26809
# Poissons Ratio (z) = 0.00727 0.25101
#
# Static dielectric constant tensor:
#      x y z
#    x 1.663020 0.000000 0.000000 
#    y 0.000000 1.679510 0.000000 
#    z 0.000000 0.000000 1.447710 
# 
# From -- ./inp_files/25418.got.cif
#   From: 2010.05.17/outbox.cif.g08.bks.cpg/sg22_13_cif.got.tgz:25418.got - 2010.06.03 23:40:54.
