data_PCOD9328387
_publ_section_title
;
Structure prediction by ZEFSAII (Michael W. Deem and Ramdas Pophale) SiO2 
 PCOD9328387
Probable space group: F 2 2 2
;
_chemical_formula_sum "Si O2"
_cell_formula_units_Z 72
_cell_length_a 8.105184
_cell_length_b 18.203566
_cell_length_c 19.408418
_cell_angle_alpha 90.000000
_cell_angle_beta 90.000000
_cell_angle_gamma 90.000000
_cell_volume 2863.581106
_symmetry_space_group_name_H-M "F 2 2 2"
_symmetry_group_IT_number 22
_symmetry_cell_setting 'orthorhombic'
loop_
_space_group_symop_operation_xyz
x,y,z
-x,-y,z
x,-y,-z
-x,y,-z
x,1/2+y,1/2+z
-x,1/2-y,1/2+z
x,1/2-y,1/2-z
-x,1/2+y,1/2-z
1/2+x,y,1/2+z
1/2-x,-y,1/2+z
1/2+x,-y,1/2-z
1/2-x,y,1/2-z
1/2+x,1/2+y,z
1/2-x,1/2-y,z
1/2+x,1/2-y,-z
1/2-x,1/2+y,-z
loop_
_atom_site_type_symbol
_atom_site_label
_atom_site_fract_x
_atom_site_fract_y
_atom_site_fract_z
Si Si1 0.750000 0.122803 0.250000
Si Si2 0.053261 0.305282 0.102296
Si Si3 0.501411 0.250000 0.250000
Si Si4 0.417738 0.645795 0.930178
Si Si5 0.650258 0.444594 0.391699
Si Si6 0.500000 0.000000 0.599745
O O1 0.614429 0.182174 0.275604
O O2 0.688539 0.070891 0.188842
O O3 0.224254 0.335269 0.071545
O O4 0.000615 0.225193 0.077610
O O5 0.083758 0.288514 0.184121
O O6 0.912926 0.364372 0.086157
O O7 0.452602 0.582173 0.874019
O O8 0.500000 0.614956 0.000000
O O9 0.500000 0.500000 0.400606
O O10 0.813413 0.479005 0.424559
#
# Coordination Sequence:
#
# PCOD9328387 Si02
#       6
#     8  16   8  16  16   8
#     4   9  20  36  66 108 149 190 236 296 367 454
#     4  10  23  46  75 106 150 196 249 315 377 461
#     4   9  18  41  72 112 141 191 246 303 377 446
#     4  11  25  45  70 105 141 192 253 312 378 446
#     4  11  23  43  67 106 148 191 244 300 373 440
#     4  12  25  44  72 102 144 194 246 320 367 440
#
# _framework density 25.143342000000001
#
# number of rings (size 3 to 8) (size 9 to 14) (size 15 to 20)
#    0.000    1.556    2.222    1.667    1.556    8.000 
#    0.000    0.000    0.000    0.000    0.000    0.000 
#    0.000    0.000    0.000    0.000    0.000    0.000 
#
# Total GULP energy -100239.868080 kJ/mol
# GULP energy per Si atom -5568.881560 kJ/mol
# Density = 2.508611 g / cm^3
# Si number density = 25.143342 Si / 1000 Ang^3
#
#
#
# Elastic Constant Matrix: (Units=GPa)
#
#
# Indices 1 2 3 4 5 6 
#
# 1 179.4674 85.5007 41.7548 0.0000 0.0000 0.0000
# 2 85.5007 213.0215 25.7936 0.0000 0.0000 0.0000
# 3 41.7548 25.7936 88.0681 0.0000 0.0000 0.0000
# 4 0.0000 0.0000 0.0000 19.9753 0.0000 0.0000
# 5 0.0000 0.0000 0.0000 0.0000 21.6047 0.0000
# 6 0.0000 0.0000 0.0000 0.0000 0.0000 53.6345
#
#
#
# Elastic Compliance Matrix: (Units=1/GPa)
#
#
# Indices 1 2 3 4 5 6 
#
# 1 0.007488 -0.002670 -0.002768 0.000000 0.000000 0.000000
# 2 -0.002670 0.005819 -0.000438 0.000000 0.000000 0.000000
# 3 -0.002768 -0.000438 0.012796 0.000000 0.000000 0.000000
# 4 0.000000 0.000000 0.000000 0.050062 0.000000 0.000000
# 5 0.000000 0.000000 0.000000 0.000000 0.046286 0.000000
# 6 0.000000 0.000000 0.000000 0.000000 0.000000 0.018645
#
#
# Mechanical properties :
#
#
# Convention : Reuss Voigt Hill
#
# Bulk Modulus (GPa) = 69.68918 87.40615 78.54766
# Shear Modulus (GPa) = 31.71927 40.87676 36.29802
#
# Velocity S-wave (km/s) = 3.55567 4.03643 3.80365
# Velocity P-wave (km/s) = 6.68086 7.52079 7.11324
#
# Compressibility (1/GPa) = 0.01434943
#
# Stress axis : x y z
#
# Youngs Moduli (GPa) = 133.54135 171.84332 78.15131
#
# Poissons Ratio (x) = 0.45889 0.21634
# Poissons Ratio (y) = 0.35661 0.03425
# Poissons Ratio (z) = 0.36968 0.07531
#
# Static dielectric constant tensor:
#      x y z
#    x 1.966450 0.000000 0.000000 
#    y 0.000000 1.931040 0.000000 
#    z 0.000000 0.000000 2.119050 
# 
# From -- ./inp_files/47137.got.cif
#   From: 2010.05.17/outbox.cif.g08.bks.cpg/sg22_24_cif.got.tgz:47137.got - 2010.06.03 23:40:54.
