data_PCOD9328825
_publ_section_title
;
Structure prediction by ZEFSAII (Michael W. Deem and Ramdas Pophale) SiO2 
 PCOD9328825
Probable space group: F 2 2 2
;
_chemical_formula_sum "Si O2"
_cell_formula_units_Z 116
_cell_length_a 21.604734
_cell_length_b 29.244186
_cell_length_c 9.033877
_cell_angle_alpha 90.000000
_cell_angle_beta 90.000000
_cell_angle_gamma 90.000000
_cell_volume 5707.719660
_symmetry_space_group_name_H-M "F 2 2 2"
_symmetry_group_IT_number 22
_symmetry_cell_setting 'orthorhombic'
loop_
_space_group_symop_operation_xyz
x,y,z
-x,-y,z
x,-y,-z
-x,y,-z
x,1/2+y,1/2+z
-x,1/2-y,1/2+z
x,1/2-y,1/2-z
-x,1/2+y,1/2-z
1/2+x,y,1/2+z
1/2-x,-y,1/2+z
1/2+x,-y,1/2-z
1/2-x,y,1/2-z
1/2+x,1/2+y,z
1/2-x,1/2-y,z
1/2+x,1/2-y,-z
1/2-x,1/2+y,-z
loop_
_atom_site_type_symbol
_atom_site_label
_atom_site_fract_x
_atom_site_fract_y
_atom_site_fract_z
Si Si1 0.424997 0.448236 0.008116
Si Si2 0.620312 0.286477 0.887965
Si Si3 0.433714 0.421637 0.688254
Si Si4 0.760219 0.304373 0.428516
Si Si5 0.861802 0.645726 0.969916
Si Si6 0.000000 0.500000 0.000000
Si Si7 0.053462 0.279140 0.888428
Si Si8 0.561405 0.628340 0.238969
O O1 0.408488 0.426306 0.852894
O O2 0.401213 0.500000 0.000000
O O3 0.500000 0.450867 0.000000
O O4 0.412780 0.414995 0.145923
O O5 0.632206 0.250000 0.750000
O O6 0.568113 0.325210 0.855414
O O7 0.679241 0.311047 0.967049
O O8 0.594326 0.255188 0.016970
O O9 0.375988 0.403360 0.596214
O O10 0.460385 0.467033 0.608460
O O11 0.494094 0.388072 0.703048
O O12 0.750000 0.313422 0.250000
O O13 0.750000 0.250000 0.442871
O O14 0.705499 0.334924 0.494307
O O15 0.898954 0.679899 0.858693
O O16 0.896780 0.642833 0.124336
O O17 0.029737 0.250000 0.750000
O O18 0.000000 0.294968 0.000000
#
# Coordination Sequence:
#
# PCOD9328825 Si02
#       8
#    16  16  16  16  16   4  16  16
#     4   9  20  37  61  92 134 168 211 261 332 409
#     4  12  25  43  66  96 127 182 236 285 338 395
#     4  11  23  38  66 102 134 177 211 268 343 418
#     4  11  24  45  66  89 129 183 241 284 330 392
#     4  12  24  41  63  94 135 173 233 279 328 413
#     4  12  20  40  74  96 148 168 214 272 350 440
#     4  12  26  40  61  90 138 181 221 269 339 407
#     4  11  22  40  60  98 138 165 219 274 339 405
#
# _framework density 20.323352
#
# number of rings (size 3 to 8) (size 9 to 14) (size 15 to 20)
#    0.000    0.828    4.138    3.724    5.793    2.483 
#    0.000    0.000    0.000    0.000    1.793    0.000 
#    0.000    0.000    0.000    0.000    0.000    0.000 
#
# Total GULP energy -161606.033869 kJ/mol
# GULP energy per Si atom -5572.621858 kJ/mol
# Density = 2.027710 g / cm^3
# Si number density = 20.323352 Si / 1000 Ang^3
#
#
#
# Elastic Constant Matrix: (Units=GPa)
#
#
# Indices 1 2 3 4 5 6 
#
# 1 87.1810 37.9777 15.8614 0.0003 -0.0027 0.0001
# 2 37.9777 97.2056 22.6617 0.0000 0.0001 0.0000
# 3 15.8614 22.6617 67.3028 0.0014 -0.0020 0.0001
# 4 0.0003 0.0000 0.0014 3.4441 -0.0019 -0.0001
# 5 -0.0027 0.0001 -0.0020 -0.0019 382.8158 0.0009
# 6 0.0001 0.0000 0.0001 -0.0001 0.0009 15.2823
#
#
#
# Elastic Compliance Matrix: (Units=1/GPa)
#
#
# Indices 1 2 3 4 5 6 
#
# 1 0.013976 -0.005092 -0.001579 -0.000001 0.000000 0.000000
# 2 -0.005092 0.013019 -0.003184 0.000002 0.000000 0.000000
# 3 -0.001579 -0.003184 0.016302 -0.000007 0.000000 0.000000
# 4 -0.000001 0.000002 -0.000007 0.290350 0.000001 0.000003
# 5 0.000000 0.000000 0.000000 0.000001 0.002612 0.000000
# 6 0.000000 0.000000 0.000000 0.000003 0.000000 0.065435
#
#
# Mechanical properties :
#
#
# Convention : Reuss Voigt Hill
#
# Bulk Modulus (GPa) = 42.39524 44.96567 43.68045
# Shear Modulus (GPa) = 11.64775 91.98768 51.81771
#
# Velocity S-wave (km/s) = 2.39659 6.73501 5.05490
# Velocity P-wave (km/s) = 5.34452 9.09140 7.45713
#
# Compressibility (1/GPa) = 0.02358756
#
# Stress axis : x y z
#
# Youngs Moduli (GPa) = 71.55151 76.80978 61.34081
#
# Poissons Ratio (x) = 0.39113 0.09687
# Poissons Ratio (y) = 0.36435 0.19529
# Poissons Ratio (z) = 0.11299 0.24453
#
# Static dielectric constant tensor:
#      x y z
#    x 2.959740 -0.000020 -0.000010 
#    y -0.000020 0.144170 -0.000010 
#    z -0.000010 -0.000010 1.895750 
# 
# From -- ./inp_files/14114.got.cif
#   From: 2010.05.17/outbox.cif.g08.bks.cpg/sg22_8_cif.got.tgz:14114.got - 2010.06.03 23:40:54.
