data_PCOD9328482
_publ_section_title
;
Structure prediction by ZEFSAII (Michael W. Deem and Ramdas Pophale) SiO2 
 PCOD9328482
Probable space group: F 2 2 2
;
_chemical_formula_sum "Si O2"
_cell_formula_units_Z 68
_cell_length_a 9.654457
_cell_length_b 14.183475
_cell_length_c 20.966038
_cell_angle_alpha 90.000000
_cell_angle_beta 90.000000
_cell_angle_gamma 90.000000
_cell_volume 2870.958195
_symmetry_space_group_name_H-M "F 2 2 2"
_symmetry_group_IT_number 22
_symmetry_cell_setting 'orthorhombic'
loop_
_space_group_symop_operation_xyz
x,y,z
-x,-y,z
x,-y,-z
-x,y,-z
x,1/2+y,1/2+z
-x,1/2-y,1/2+z
x,1/2-y,1/2-z
-x,1/2+y,1/2-z
1/2+x,y,1/2+z
1/2-x,-y,1/2+z
1/2+x,-y,1/2-z
1/2-x,y,1/2-z
1/2+x,1/2+y,z
1/2-x,1/2-y,z
1/2+x,1/2-y,-z
1/2-x,1/2+y,-z
loop_
_atom_site_type_symbol
_atom_site_label
_atom_site_fract_x
_atom_site_fract_y
_atom_site_fract_z
Si Si1 0.484851 0.186297 0.926464
Si Si2 0.287529 0.379929 0.322050
Si Si3 0.750000 0.750000 0.750000
Si Si4 0.506465 0.896829 0.609197
Si Si5 0.297167 0.591000 0.335559
O O1 0.606198 0.167198 0.873224
O O2 0.459532 0.299056 0.925893
O O3 0.359424 0.120925 0.902563
O O4 0.500000 0.159635 0.000000
O O5 0.250000 0.347127 0.250000
O O6 0.141362 0.383076 0.358228
O O7 0.339806 0.487890 0.314462
O O8 0.660139 0.678970 0.708150
O O9 0.631062 0.906751 0.659974
O O10 0.500000 0.000000 0.575926
#
# Coordination Sequence:
#
# PCOD9328482 Si02
#       5
#    16  16   4  16  16
#     4  12  27  47  69 101 146 192 235 290 359 431
#     4  11  26  43  70 108 143 181 236 305 359 409
#     4  12  20  40  76 106 134 188 238 294 336 436
#     4  10  24  44  67 100 137 187 238 298 349 420
#     4  11  24  42  73 101 139 188 240 286 349 436
#
# _framework density 23.685472000000001
#
# number of rings (size 3 to 8) (size 9 to 14) (size 15 to 20)
#    0.000    0.941    3.529    1.412    3.294    9.882 
#    0.000    4.706    0.000    0.000    0.000    0.000 
#    0.000    0.000    0.000    0.000    0.000    0.000 
#
# Total GULP energy -94815.868147 kJ/mol
# GULP energy per Si atom -5577.404009 kJ/mol
# Density = 2.363156 g / cm^3
# Si number density = 23.685472 Si / 1000 Ang^3
#
#
#
# Elastic Constant Matrix: (Units=GPa)
#
#
# Indices 1 2 3 4 5 6 
#
# 1 112.2115 6.2646 10.3710 0.0000 0.0000 0.0000
# 2 6.2646 199.4621 53.4853 0.0000 0.0000 0.0000
# 3 10.3710 53.4853 133.3710 0.0000 0.0000 0.0000
# 4 0.0000 0.0000 0.0000 3.0223 0.0000 0.0000
# 5 0.0000 0.0000 0.0000 0.0000 24.0783 0.0000
# 6 0.0000 0.0000 0.0000 0.0000 0.0000 5.4446
#
#
#
# Elastic Compliance Matrix: (Units=1/GPa)
#
#
# Indices 1 2 3 4 5 6 
#
# 1 0.008978 -0.000106 -0.000656 0.000000 0.000000 0.000000
# 2 -0.000106 0.005619 -0.002245 0.000000 0.000000 0.000000
# 3 -0.000656 -0.002245 0.008449 0.000000 0.000000 0.000000
# 4 0.000000 0.000000 0.000000 0.330876 0.000000 0.000000
# 5 0.000000 0.000000 0.000000 0.000000 0.041531 0.000000
# 6 0.000000 0.000000 0.000000 0.000000 0.000000 0.183668
#
#
# Mechanical properties :
#
#
# Convention : Reuss Voigt Hill
#
# Bulk Modulus (GPa) = 58.71073 65.03182 61.87128
# Shear Modulus (GPa) = 8.46292 31.50394 19.98343
#
# Velocity S-wave (km/s) = 1.89230 3.65100 2.90780
# Velocity P-wave (km/s) = 5.44205 6.72972 6.11984
#
# Compressibility (1/GPa) = 0.01703266
#
# Stress axis : x y z
#
# Youngs Moduli (GPa) = 111.38013 177.97326 118.35463
#
# Poissons Ratio (x) = 0.01890 0.07759
# Poissons Ratio (y) = 0.01183 0.26571
# Poissons Ratio (z) = 0.07302 0.39956
#
# Static dielectric constant tensor:
#      x y z
#    x 1.766580 0.000000 0.000000 
#    y 0.000000 1.975350 0.000000 
#    z 0.000000 0.000000 2.000740 
# 
# From -- ./inp_files/31287.got.cif
#   From: 2010.05.17/outbox.cif.g08.bks.cpg/sg22_16_cif.got.tgz:31287.got - 2010.06.03 23:40:54.
