data_PCOD9328889
_publ_section_title
;
Structure prediction by ZEFSAII (Michael W. Deem and Ramdas Pophale) SiO2 
 PCOD9328889
Probable space group: F 2 2 2
;
_chemical_formula_sum "Si O2"
_cell_formula_units_Z 88
_cell_length_a 22.809589
_cell_length_b 20.852644
_cell_length_c 9.265829
_cell_angle_alpha 90.000000
_cell_angle_beta 90.000000
_cell_angle_gamma 90.000000
_cell_volume 4407.201122
_symmetry_space_group_name_H-M "F 2 2 2"
_symmetry_group_IT_number 22
_symmetry_cell_setting 'orthorhombic'
loop_
_space_group_symop_operation_xyz
x,y,z
-x,-y,z
x,-y,-z
-x,y,-z
x,1/2+y,1/2+z
-x,1/2-y,1/2+z
x,1/2-y,1/2-z
-x,1/2+y,1/2-z
1/2+x,y,1/2+z
1/2-x,-y,1/2+z
1/2+x,-y,1/2-z
1/2-x,y,1/2-z
1/2+x,1/2+y,z
1/2-x,1/2-y,z
1/2+x,1/2-y,-z
1/2-x,1/2+y,-z
loop_
_atom_site_type_symbol
_atom_site_label
_atom_site_fract_x
_atom_site_fract_y
_atom_site_fract_z
Si Si1 0.773102 0.434434 0.912841
Si Si2 0.488758 0.075024 0.782614
Si Si3 0.000000 0.156650 0.000000
Si Si4 0.402564 0.758199 0.412745
Si Si5 0.597812 0.885347 0.020887
Si Si6 0.723139 0.183041 0.409219
O O1 0.750000 0.440707 0.750000
O O2 0.842323 0.417058 0.924119
O O3 0.763173 0.500000 0.000000
O O4 0.738853 0.376211 0.990472
O O5 0.484678 0.112258 0.634059
O O6 0.544326 0.105589 0.867198
O O7 0.500000 0.000000 0.763428
O O8 0.429915 0.083017 0.877031
O O9 0.945569 0.204202 0.981665
O O10 0.428416 0.750000 0.250000
O O11 0.390381 0.688450 0.478759
O O12 0.344991 0.801089 0.393200
O O13 0.750000 0.172033 0.250000
O O14 0.750000 0.250000 0.466162
#
# Coordination Sequence:
#
# PCOD9328889 Si02
#       6
#    16  16   8  16  16  16
#     4  12  27  47  70 106 140 185 239 295 358 429
#     4  11  24  45  68  99 137 183 229 279 351 417
#     4  12  27  40  68 106 135 176 232 294 342 410
#     4  12  23  43  69 102 138 180 230 290 352 414
#     4  11  23  45  73  95 136 183 228 284 348 421
#     4  11  22  45  73  99 139 188 236 280 360 426
#
# _framework density 19.967320999999998
#
# number of rings (size 3 to 8) (size 9 to 14) (size 15 to 20)
#    0.000    0.545    5.455    4.091    2.545    0.364 
#    3.273    0.000    0.000    0.000    0.000    0.000 
#    0.000    0.000    0.000    0.000    0.000    0.000 
#
# Total GULP energy -123014.451942 kJ/mol
# GULP energy per Si atom -5591.565997 kJ/mol
# Density = 1.992187 g / cm^3
# Si number density = 19.967321 Si / 1000 Ang^3
#
#
#
# Elastic Constant Matrix: (Units=GPa)
#
#
# Indices 1 2 3 4 5 6 
#
# 1 99.0889 48.9704 28.3043 0.0000 0.0000 0.0000
# 2 48.9704 146.5898 76.2952 0.0001 -0.0001 -0.0001
# 3 28.3043 76.2952 85.6400 0.0003 -0.0002 -0.0001
# 4 0.0000 0.0001 0.0003 27.2891 -0.0001 -0.0001
# 5 0.0000 -0.0001 -0.0002 -0.0001 23.9778 0.0001
# 6 0.0000 -0.0001 -0.0001 -0.0001 0.0001 26.5432
#
#
#
# Elastic Compliance Matrix: (Units=1/GPa)
#
#
# Indices 1 2 3 4 5 6 
#
# 1 0.012113 -0.003660 -0.000743 0.000000 0.000000 0.000000
# 2 -0.003660 0.013825 -0.011107 0.000000 0.000000 0.000000
# 3 -0.000743 -0.011107 0.021817 0.000000 0.000000 0.000000
# 4 0.000000 0.000000 0.000000 0.036645 0.000000 0.000000
# 5 0.000000 0.000000 0.000000 0.000000 0.041705 0.000000
# 6 0.000000 0.000000 0.000000 0.000000 0.000000 0.037674
#
#
# Mechanical properties :
#
#
# Convention : Reuss Voigt Hill
#
# Bulk Modulus (GPa) = 59.75157 70.93985 65.34571
# Shear Modulus (GPa) = 24.95282 27.41193 26.18238
#
# Velocity S-wave (km/s) = 3.53892 3.70921 3.62506
# Velocity P-wave (km/s) = 6.83288 7.34502 7.09358
#
# Compressibility (1/GPa) = 0.01673596
#
# Stress axis : x y z
#
# Youngs Moduli (GPa) = 82.55685 72.33132 45.83492
#
# Poissons Ratio (x) = 0.26472 0.03405
# Poissons Ratio (y) = 0.30215 0.50909
# Poissons Ratio (z) = 0.06133 0.80339
#
# Static dielectric constant tensor:
#      x y z
#    x 1.730730 0.000000 0.000000 
#    y 0.000000 1.687490 0.000000 
#    z 0.000000 0.000000 1.695340 
# 
# From -- ./inp_files/13755.got.cif
#   From: 2010.05.17/outbox.cif.g08.bks.cpg/sg22_7_cif.got.tgz:13755.got - 2010.06.03 23:40:54.
