data_PCOD9328497
_publ_section_title
;
Structure prediction by ZEFSAII (Michael W. Deem and Ramdas Pophale) SiO2 
 PCOD9328497
Probable space group: F 2 2 2
;
_chemical_formula_sum "Si O2"
_cell_formula_units_Z 64
_cell_length_a 29.301354
_cell_length_b 10.778017
_cell_length_c 9.905206
_cell_angle_alpha 90.000000
_cell_angle_beta 90.000000
_cell_angle_gamma 90.000000
_cell_volume 3128.167976
_symmetry_space_group_name_H-M "F 2 2 2"
_symmetry_group_IT_number 22
_symmetry_cell_setting 'orthorhombic'
loop_
_space_group_symop_operation_xyz
x,y,z
-x,-y,z
x,-y,-z
-x,y,-z
x,1/2+y,1/2+z
-x,1/2-y,1/2+z
x,1/2-y,1/2-z
-x,1/2+y,1/2-z
1/2+x,y,1/2+z
1/2-x,-y,1/2+z
1/2+x,-y,1/2-z
1/2-x,y,1/2-z
1/2+x,1/2+y,z
1/2-x,1/2-y,z
1/2+x,1/2-y,-z
1/2-x,1/2+y,-z
loop_
_atom_site_type_symbol
_atom_site_label
_atom_site_fract_x
_atom_site_fract_y
_atom_site_fract_z
Si Si1 0.821158 0.151719 0.140123
Si Si2 0.701216 0.367058 0.826695
Si Si3 0.000000 0.000000 0.713376
Si Si4 0.500000 0.792770 0.000000
Si Si5 0.077252 0.389420 0.597303
O O1 0.802705 0.250000 0.250000
O O2 0.875443 0.175052 0.131301
O O3 0.817150 0.007643 0.186358
O O4 0.799568 0.160473 0.988656
O O5 0.677353 0.250000 0.750000
O O6 0.750000 0.373815 0.750000
O O7 0.011896 0.882248 0.622929
O O8 0.955438 0.956270 0.794172
O O9 0.457015 0.707614 0.030686
O O10 0.091369 0.500000 0.500000
#
# Coordination Sequence:
#
# PCOD9328497 Si02
#       5
#    16  16   8   8  16
#     4  11  25  45  71 100 132 175 227 272 329 401
#     4  10  24  45  68  99 133 167 213 271 342 402
#     4  11  23  38  62  94 131 179 222 266 312 375
#     4  11  23  38  62  94 131 177 224 262 316 371
#     4  12  22  41  65  92 132 177 214 269 323 373
#
# _framework density 20.459258999999999
#
# number of rings (size 3 to 8) (size 9 to 14) (size 15 to 20)
#    0.000    1.000    5.000    2.250    0.000   11.500 
#    0.000    0.000    0.000    0.000    0.000    0.000 
#    0.000    0.000    0.000    0.000    0.000    0.000 
#
# Total GULP energy -89204.773690 kJ/mol
# GULP energy per Si atom -5575.298356 kJ/mol
# Density = 2.041269 g / cm^3
# Si number density = 20.459259 Si / 1000 Ang^3
#
#
#
# Elastic Constant Matrix: (Units=GPa)
#
#
# Indices 1 2 3 4 5 6 
#
# 1 119.1130 11.9405 36.8053 0.0000 0.0000 0.0000
# 2 11.9405 133.3419 60.3723 0.0000 0.0000 0.0000
# 3 36.8053 60.3723 120.7442 0.0000 0.0000 0.0000
# 4 0.0000 0.0000 0.0000 59.0304 0.0000 0.0000
# 5 0.0000 0.0000 0.0000 0.0000 8.5071 0.0000
# 6 0.0000 0.0000 0.0000 0.0000 0.0000 14.3049
#
#
#
# Elastic Compliance Matrix: (Units=1/GPa)
#
#
# Indices 1 2 3 4 5 6 
#
# 1 0.009303 0.000583 -0.003127 0.000000 0.000000 0.000000
# 2 0.000583 0.009731 -0.005043 0.000000 0.000000 0.000000
# 3 -0.003127 -0.005043 0.011757 0.000000 0.000000 0.000000
# 4 0.000000 0.000000 0.000000 0.016940 0.000000 0.000000
# 5 0.000000 0.000000 0.000000 0.000000 0.117548 0.000000
# 6 0.000000 0.000000 0.000000 0.000000 0.000000 0.069906
#
#
# Mechanical properties :
#
#
# Convention : Reuss Voigt Hill
#
# Bulk Modulus (GPa) = 64.03777 65.71505 64.87641
# Shear Modulus (GPa) = 19.56445 33.97388 26.76917
#
# Velocity S-wave (km/s) = 3.09571 4.07942 3.62112
# Velocity P-wave (km/s) = 6.64424 7.37418 7.01871
#
# Compressibility (1/GPa) = 0.01561578
#
# Stress axis : x y z
#
# Youngs Moduli (GPa) = 107.48920 102.76862 85.05784
#
# Poissons Ratio (x) = -0.05989 0.26600
# Poissons Ratio (y) = -0.06265 0.42894
# Poissons Ratio (z) = 0.33614 0.51826
#
# Static dielectric constant tensor:
#      x y z
#    x 1.850170 0.000000 0.000000 
#    y 0.000000 1.783020 0.000000 
#    z 0.000000 0.000000 1.774830 
# 
# From -- ./inp_files/15342.got.cif
#   From: 2010.05.17/outbox.cif.g08.bks.cpg/sg22_8_cif.got.tgz:15342.got - 2010.06.03 23:40:54.
