data_PCOD9328062
_publ_section_title
;
Structure prediction by ZEFSAII (Michael W. Deem and Ramdas Pophale) SiO2 
 PCOD9328062
Probable space group: F 2 2 2
;
_chemical_formula_sum "Si O2"
_cell_formula_units_Z 108
_cell_length_a 13.150774
_cell_length_b 13.346438
_cell_length_c 26.646582
_cell_angle_alpha 90.000000
_cell_angle_beta 90.000000
_cell_angle_gamma 90.000000
_cell_volume 4676.901216
_symmetry_space_group_name_H-M "F 2 2 2"
_symmetry_group_IT_number 22
_symmetry_cell_setting 'orthorhombic'
loop_
_space_group_symop_operation_xyz
x,y,z
-x,-y,z
x,-y,-z
-x,y,-z
x,1/2+y,1/2+z
-x,1/2-y,1/2+z
x,1/2-y,1/2-z
-x,1/2+y,1/2-z
1/2+x,y,1/2+z
1/2-x,-y,1/2+z
1/2+x,-y,1/2-z
1/2-x,y,1/2-z
1/2+x,1/2+y,z
1/2-x,1/2-y,z
1/2+x,1/2-y,-z
1/2-x,1/2+y,-z
loop_
_atom_site_type_symbol
_atom_site_label
_atom_site_fract_x
_atom_site_fract_y
_atom_site_fract_z
Si Si1 0.413335 0.577273 0.674915
Si Si2 0.703274 0.986684 0.919021
Si Si3 0.878038 0.507753 0.342436
Si Si4 0.855903 0.236765 0.426555
Si Si5 0.250000 0.016676 0.250000
Si Si6 0.431652 0.720448 0.875602
Si Si7 0.665948 0.147314 0.531929
Si Si8 0.500000 0.500000 0.000000
O O1 0.500000 0.500000 0.691285
O O2 0.368856 0.534595 0.622849
O O3 0.326334 0.577798 0.715849
O O4 0.443349 0.688854 0.662412
O O5 0.809526 0.966675 0.888449
O O6 0.738936 0.073429 0.957845
O O7 0.646568 0.884194 0.935559
O O8 0.824239 0.466236 0.291909
O O9 0.875875 0.628707 0.347550
O O10 0.000000 0.500000 0.344585
O O11 0.750000 0.250000 0.396783
O O12 0.658337 0.201785 0.478491
O O13 0.954446 0.280411 0.399150
O O14 0.359427 0.727183 0.924839
O O15 0.571339 0.070448 0.532701
#
# Coordination Sequence:
#
# PCOD9328062 Si02
#       8
#    16  16  16  16   8  16  16   4
#     4  11  23  46  71  99 145 175 227 284 361 427
#     4  10  24  41  68  97 133 188 227 284 350 404
#     4  10  22  42  71 103 135 172 227 281 349 424
#     4  12  23  41  63  95 134 182 238 282 340 397
#     4  10  24  43  74 107 132 176 222 285 356 435
#     4  11  24  42  68  94 135 186 223 285 346 408
#     4  11  25  41  63  98 135 183 246 291 329 401
#     4  12  20  40  64  88 128 184 240 304 328 380
#
# _framework density 23.092213000000001
#
# number of rings (size 3 to 8) (size 9 to 14) (size 15 to 20)
#    0.000    1.185    2.963    2.222    6.222    5.926 
#    0.000    0.000    0.000    0.889    0.000    0.000 
#    0.000    0.000    0.000    0.000    0.000    0.000 
#
# Total GULP energy -150531.701185 kJ/mol
# GULP energy per Si atom -5575.248192 kJ/mol
# Density = 2.303965 g / cm^3
# Si number density = 23.092213 Si / 1000 Ang^3
#
#
#
# Elastic Constant Matrix: (Units=GPa)
#
#
# Indices 1 2 3 4 5 6 
#
# 1 110.4753 19.2081 6.0874 0.0000 0.0000 0.0000
# 2 19.2081 108.4017 20.6630 0.0000 0.0000 0.0000
# 3 6.0874 20.6630 55.8793 0.0000 0.0000 0.0000
# 4 0.0000 0.0000 0.0000 2.7947 0.0000 0.0000
# 5 0.0000 0.0000 0.0000 0.0000 28.1359 0.0000
# 6 0.0000 0.0000 0.0000 0.0000 0.0000 34.8534
#
#
#
# Elastic Compliance Matrix: (Units=1/GPa)
#
#
# Indices 1 2 3 4 5 6 
#
# 1 0.009349 -0.001573 -0.000437 0.000000 0.000000 0.000000
# 2 -0.001573 0.010189 -0.003596 0.000000 0.000000 0.000000
# 3 -0.000437 -0.003596 0.019273 0.000000 0.000000 0.000000
# 4 0.000000 0.000000 0.000000 0.357823 0.000000 0.000000
# 5 0.000000 0.000000 0.000000 0.000000 0.035542 0.000000
# 6 0.000000 0.000000 0.000000 0.000000 0.000000 0.028692
#
#
# Mechanical properties :
#
#
# Convention : Reuss Voigt Hill
#
# Bulk Modulus (GPa) = 36.23335 40.74147 38.48741
# Shear Modulus (GPa) = 10.38895 28.40997 19.39946
#
# Velocity S-wave (km/s) = 2.12336 3.51135 2.90157
# Velocity P-wave (km/s) = 4.66222 5.84129 5.28474
#
# Compressibility (1/GPa) = 0.02759888
#
# Stress axis : x y z
#
# Youngs Moduli (GPa) = 106.95843 98.14242 51.88562
#
# Poissons Ratio (x) = 0.15442 0.02266
# Poissons Ratio (y) = 0.16829 0.18660
# Poissons Ratio (z) = 0.04671 0.35296
#
# Static dielectric constant tensor:
#      x y z
#    x 1.956070 0.000000 0.000000 
#    y 0.000000 1.938390 0.000000 
#    z 0.000000 0.000000 1.893700 
# 
# From -- ./inp_files/56135.got.cif
#   From: 2010.05.17/outbox.cif.g08.bks.cpg/sg22_29_cif.got.tgz:56135.got - 2010.06.03 23:40:54.
