data_PCOD9328604
_publ_section_title
;
Structure prediction by ZEFSAII (Michael W. Deem and Ramdas Pophale) SiO2 
 PCOD9328604
Probable space group: F 2 2 2
;
_chemical_formula_sum "Si O2"
_cell_formula_units_Z 84
_cell_length_a 29.494536
_cell_length_b 6.171306
_cell_length_c 24.077506
_cell_angle_alpha 90.000000
_cell_angle_beta 90.000000
_cell_angle_gamma 90.000000
_cell_volume 4382.582995
_symmetry_space_group_name_H-M "F 2 2 2"
_symmetry_group_IT_number 22
_symmetry_cell_setting 'orthorhombic'
loop_
_space_group_symop_operation_xyz
x,y,z
-x,-y,z
x,-y,-z
-x,y,-z
x,1/2+y,1/2+z
-x,1/2-y,1/2+z
x,1/2-y,1/2-z
-x,1/2+y,1/2-z
1/2+x,y,1/2+z
1/2-x,-y,1/2+z
1/2+x,-y,1/2-z
1/2-x,y,1/2-z
1/2+x,1/2+y,z
1/2-x,1/2-y,z
1/2+x,1/2-y,-z
1/2-x,1/2+y,-z
loop_
_atom_site_type_symbol
_atom_site_label
_atom_site_fract_x
_atom_site_fract_y
_atom_site_fract_z
Si Si1 0.547109 0.474081 0.835889
Si Si2 0.114912 0.279096 0.896185
Si Si3 0.406531 0.500000 0.000000
Si Si4 0.250000 0.750000 0.750000
Si Si5 0.545740 0.360534 0.566056
Si Si6 0.610016 0.750000 0.250000
Si Si7 0.179883 0.078324 0.700636
O O1 0.500000 0.500000 0.804667
O O2 0.574457 0.679234 0.858583
O O3 0.535465 0.310175 0.885439
O O4 0.581283 0.357450 0.796736
O O5 0.090557 0.496107 0.919536
O O6 0.160029 0.322494 0.857837
O O7 0.120533 0.101360 0.946654
O O8 0.438514 0.298836 0.016980
O O9 0.221489 0.591937 0.791590
O O10 0.500000 0.500000 0.558746
O O11 0.638716 0.566290 0.278900
O O12 0.188002 0.250000 0.750000
#
# Coordination Sequence:
#
# PCOD9328604 Si02
#       7
#    16  16   8   4  16   8  16
#     4  11  22  35  53  87 124 176 228 259 309 369
#     4  11  22  39  61  83 130 173 216 270 318 378
#     4  10  26  37  54  92 118 172 242 268 322 368
#     4  10  26  40  68 110 128 144 206 256 348 434
#     4  11  22  39  55  80 126 173 229 283 318 357
#     4  11  22  35  58  88 122 170 218 257 314 397
#     4  11  22  42  67  94 134 159 197 262 337 406
#
# _framework density 19.166778999999998
#
# number of rings (size 3 to 8) (size 9 to 14) (size 15 to 20)
#    0.000    1.143    5.714    0.857    0.000    4.571 
#    0.000    0.000    0.000    0.000    0.000    0.000 
#   80.000    0.000    0.000    0.000    0.000    0.000 
#
# Total GULP energy -116952.710950 kJ/mol
# GULP energy per Si atom -5569.176712 kJ/mol
# Density = 1.912315 g / cm^3
# Si number density = 19.166779 Si / 1000 Ang^3
#
#
#
# Elastic Constant Matrix: (Units=GPa)
#
#
# Indices 1 2 3 4 5 6 
#
# 1 95.1697 44.7523 42.2799 0.0006 -0.0002 -0.0017
# 2 44.7523 110.2626 35.6173 0.0018 -0.0007 -0.0001
# 3 42.2799 35.6173 74.2772 0.0002 -0.0002 0.0006
# 4 0.0006 0.0018 0.0002 40.2205 -0.0002 -0.0005
# 5 -0.0002 -0.0007 -0.0002 -0.0002 19.3994 0.0003
# 6 -0.0017 -0.0001 0.0006 -0.0005 0.0003 72.5465
#
#
#
# Elastic Compliance Matrix: (Units=1/GPa)
#
#
# Indices 1 2 3 4 5 6 
#
# 1 0.015462 -0.004062 -0.006854 0.000000 0.000000 0.000000
# 2 -0.004062 0.011799 -0.003346 0.000000 0.000000 0.000000
# 3 -0.006854 -0.003346 0.018969 0.000000 0.000000 0.000000
# 4 0.000000 0.000000 0.000000 0.024863 0.000000 0.000000
# 5 0.000000 0.000000 0.000000 0.000000 0.051548 0.000000
# 6 0.000000 0.000000 0.000000 0.000000 0.000000 0.013784
#
#
# Mechanical properties :
#
#
# Convention : Reuss Voigt Hill
#
# Bulk Modulus (GPa) = 56.47391 58.33427 57.40409
# Shear Modulus (GPa) = 29.26556 36.90396 33.08476
#
# Velocity S-wave (km/s) = 3.91178 4.39271 4.15920
# Velocity P-wave (km/s) = 7.06620 7.49860 7.28561
#
# Compressibility (1/GPa) = 0.01770729
#
# Stress axis : x y z
#
# Youngs Moduli (GPa) = 64.67308 84.75651 52.71870
#
# Poissons Ratio (x) = 0.34426 0.36132
# Poissons Ratio (y) = 0.26269 0.17637
# Poissons Ratio (z) = 0.44325 0.28356
#
# Static dielectric constant tensor:
#      x y z
#    x 1.678730 0.000000 0.000000 
#    y 0.000000 1.755680 0.000000 
#    z 0.000000 0.000000 1.726600 
# 
# From -- ./inp_files/50692.got.cif
#   From: 2010.05.17/outbox.cif.g08.bks.cpg/sg22_26_cif.got.tgz:50692.got - 2010.06.03 23:40:54.
