data_PCOD9328978
_publ_section_title
;
Structure prediction by ZEFSAII (Michael W. Deem and Ramdas Pophale) SiO2 
 PCOD9328978
Probable space group: F 2 2 2
;
_chemical_formula_sum "Si O2"
_cell_formula_units_Z 104
_cell_length_a 9.665181
_cell_length_b 25.817971
_cell_length_c 20.997696
_cell_angle_alpha 90.000000
_cell_angle_beta 90.000000
_cell_angle_gamma 90.000000
_cell_volume 5239.667689
_symmetry_space_group_name_H-M "F 2 2 2"
_symmetry_group_IT_number 22
_symmetry_cell_setting 'orthorhombic'
loop_
_space_group_symop_operation_xyz
x,y,z
-x,-y,z
x,-y,-z
-x,y,-z
x,1/2+y,1/2+z
-x,1/2-y,1/2+z
x,1/2-y,1/2-z
-x,1/2+y,1/2-z
1/2+x,y,1/2+z
1/2-x,-y,1/2+z
1/2+x,-y,1/2-z
1/2-x,y,1/2-z
1/2+x,1/2+y,z
1/2-x,1/2-y,z
1/2+x,1/2-y,-z
1/2-x,1/2+y,-z
loop_
_atom_site_type_symbol
_atom_site_label
_atom_site_fract_x
_atom_site_fract_y
_atom_site_fract_z
Si Si1 0.915764 0.260986 0.676705
Si Si2 0.818432 0.500000 0.000000
Si Si3 0.295045 0.087099 0.108172
Si Si4 0.492220 0.178681 0.072182
Si Si5 0.293868 0.590948 0.396112
Si Si6 0.985703 0.059922 0.284155
Si Si7 0.499796 0.379600 0.153500
O O1 0.956312 0.250000 0.750000
O O2 0.750000 0.250000 0.673174
O O3 0.963448 0.318949 0.659754
O O4 0.980908 0.222208 0.625585
O O5 0.806200 0.540174 0.059429
O O6 0.832530 0.450786 0.050164
O O7 0.362459 0.139260 0.079428
O O8 0.383445 0.074810 0.171501
O O9 0.136223 0.094742 0.124366
O O10 0.623683 0.142911 0.087163
O O11 0.500000 0.198665 0.000000
O O12 0.353989 0.568940 0.329708
O O13 0.133267 0.604759 0.387927
O O14 0.979041 0.096853 0.223676
O O15 0.000000 0.000000 0.265101
#
# Coordination Sequence:
#
# PCOD9328978 Si02
#       7
#    16   8  16  16  16  16  16
#     4  11  24  47  76 102 136 187 240 301 359 420
#     4  12  24  46  66  98 148 184 232 268 358 424
#     4  11  24  42  71  98 135 186 228 285 338 432
#     4  11  23  47  72 102 134 183 245 287 346 422
#     4  11  26  43  70 105 141 179 226 294 350 418
#     4  11  24  42  70  99 137 185 231 284 345 421
#     4  12  27  45  65 107 142 176 236 293 359 413
#
# _framework density 19.848585
#
# number of rings (size 3 to 8) (size 9 to 14) (size 15 to 20)
#    0.000    0.769    4.615    2.769    4.308    5.538 
#    5.538    0.769    0.000    0.000    0.000    0.000 
#    0.000    0.000    0.000    0.000    0.000    0.000 
#
# Total GULP energy -144894.089295 kJ/mol
# GULP energy per Si atom -5572.849588 kJ/mol
# Density = 1.980341 g / cm^3
# Si number density = 19.848585 Si / 1000 Ang^3
#
#
#
# Elastic Constant Matrix: (Units=GPa)
#
#
# Indices 1 2 3 4 5 6 
#
# 1 114.3515 20.4243 25.0369 0.0000 0.0000 0.0000
# 2 20.4243 142.3679 60.6893 0.0000 0.0000 0.0000
# 3 25.0369 60.6893 127.6439 0.0000 0.0000 0.0000
# 4 0.0000 0.0000 0.0000 52.7244 0.0000 0.0000
# 5 0.0000 0.0000 0.0000 0.0000 -31.3986 0.0000
# 6 0.0000 0.0000 0.0000 0.0000 0.0000 355.4437
#
#
#
# Elastic Compliance Matrix: (Units=1/GPa)
#
#
# Indices 1 2 3 4 5 6 
#
# 1 0.009191 -0.000690 -0.001475 0.000000 0.000000 0.000000
# 2 -0.000690 0.008861 -0.004078 0.000000 0.000000 0.000000
# 3 -0.001475 -0.004078 0.010062 0.000000 0.000000 0.000000
# 4 0.000000 0.000000 0.000000 0.018967 0.000000 0.000000
# 5 0.000000 0.000000 0.000000 0.000000 -0.031849 0.000000
# 6 0.000000 0.000000 0.000000 0.000000 0.000000 0.002813
#
#
# Mechanical properties :
#
#
# Convention : Reuss Voigt Hill
#
# Bulk Modulus (GPa) = 63.98050 66.29604 65.13827
# Shear Modulus (GPa) = 139.89415 93.90143 116.89779
#
# Velocity S-wave (km/s) = 8.40438 6.88561 7.68262
# Velocity P-wave (km/s) = 11.24644 9.83305 10.56341
#
# Compressibility (1/GPa) = 0.01562976
#
# Stress axis : x y z
#
# Youngs Moduli (GPa) = 108.80106 112.84933 99.37947
#
# Poissons Ratio (x) = 0.07785 0.14656
# Poissons Ratio (y) = 0.07506 0.40526
# Poissons Ratio (z) = 0.16046 0.46019
#
# Static dielectric constant tensor:
#      x y z
#    x 1.739880 0.000000 0.000000 
#    y 0.000000 1.698150 0.000000 
#    z 0.000000 0.000000 1.585480 
# 
# From -- ./inp_files/42028.got.cif
#   From: 2010.05.17/outbox.cif.g08.bks.cpg/sg22_22_cif.got.tgz:42028.got - 2010.06.03 23:40:54.
