data_PCOD9328527
_publ_section_title
;
Structure prediction by ZEFSAII (Michael W. Deem and Ramdas Pophale) SiO2 
 PCOD9328527
Probable space group: F 2 2 2
;
_chemical_formula_sum "Si O2"
_cell_formula_units_Z 88
_cell_length_a 5.808040
_cell_length_b 30.981091
_cell_length_c 24.143262
_cell_angle_alpha 90.000000
_cell_angle_beta 90.000000
_cell_angle_gamma 90.000000
_cell_volume 4344.324459
_symmetry_space_group_name_H-M "F 2 2 2"
_symmetry_group_IT_number 22
_symmetry_cell_setting 'orthorhombic'
loop_
_space_group_symop_operation_xyz
x,y,z
-x,-y,z
x,-y,-z
-x,y,-z
x,1/2+y,1/2+z
-x,1/2-y,1/2+z
x,1/2-y,1/2-z
-x,1/2+y,1/2-z
1/2+x,y,1/2+z
1/2-x,-y,1/2+z
1/2+x,-y,1/2-z
1/2-x,y,1/2-z
1/2+x,1/2+y,z
1/2-x,1/2-y,z
1/2+x,1/2-y,-z
1/2-x,1/2+y,-z
loop_
_atom_site_type_symbol
_atom_site_label
_atom_site_fract_x
_atom_site_fract_y
_atom_site_fract_z
Si Si1 0.250000 0.750000 0.250000
Si Si2 0.750000 0.618631 0.250000
Si Si3 0.500000 0.000000 0.000000
Si Si4 0.110475 0.546141 0.441846
Si Si5 0.250000 0.524334 0.250000
Si Si6 0.000954 0.274921 0.064215
Si Si7 0.124955 0.407192 0.669441
Si Si8 0.431312 0.675297 0.326610
O O1 0.385429 0.718291 0.291165
O O2 0.590846 0.591087 0.210032
O O3 0.618626 0.649076 0.292790
O O4 0.636776 0.968191 0.959594
O O5 0.083897 0.579805 0.393367
O O6 0.000000 0.500000 0.425354
O O7 0.000000 0.560391 0.500000
O O8 0.500000 0.500000 0.243388
O O9 0.285245 0.556062 0.303252
O O10 0.250000 0.250000 0.071555
O O11 0.750000 0.250000 0.071591
O O12 0.996413 0.311344 0.111365
O O13 0.000000 0.289472 0.000000
O O14 0.219765 0.358494 0.673133
#
# Coordination Sequence:
#
# PCOD9328527 Si02
#       8
#     4   8   4  16   8  16  16  16
#     4  12  22  46  68 102 126 184 240 282 360 428
#     4  12  25  45  64 100 140 190 224 308 354 426
#     4   8  18  40  72  98 128 176 230 280 362 414
#     4   9  21  42  67 101 130 180 233 289 342 436
#     4  12  26  44  72 104 136 193 233 286 363 425
#     4  10  24  47  73 103 138 183 241 293 350 427
#     4  12  25  46  64 101 144 177 241 295 355 428
#     4  12  26  43  70  97 143 179 233 296 352 428
#
# _framework density 20.256315000000001
#
# number of rings (size 3 to 8) (size 9 to 14) (size 15 to 20)
#    0.000    1.273    4.545    1.091    6.364    2.909 
#    4.909    0.000    0.000    0.000    0.000    0.000 
#    0.000    0.000    0.000    0.000    0.000    0.000 
#
# Total GULP energy -122580.661452 kJ/mol
# GULP energy per Si atom -5571.848248 kJ/mol
# Density = 2.021021 g / cm^3
# Si number density = 20.256315 Si / 1000 Ang^3
#
#
#
# Elastic Constant Matrix: (Units=GPa)
#
#
# Indices 1 2 3 4 5 6 
#
# 1 97.7250 34.5731 48.3698 0.0000 0.0000 0.0000
# 2 34.5731 92.4738 55.3734 0.0000 0.0000 0.0000
# 3 48.3698 55.3734 154.3995 0.0000 0.0000 0.0000
# 4 0.0000 0.0000 0.0000 259.4262 0.0000 0.0000
# 5 0.0000 0.0000 0.0000 0.0000 -264.9103 0.0000
# 6 0.0000 0.0000 0.0000 0.0000 0.0000 7.1909
#
#
#
# Elastic Compliance Matrix: (Units=1/GPa)
#
#
# Indices 1 2 3 4 5 6 
#
# 1 0.012741 -0.003023 -0.002908 0.000000 0.000000 0.000000
# 2 -0.003023 0.014488 -0.004249 0.000000 0.000000 0.000000
# 3 -0.002908 -0.004249 0.008911 0.000000 0.000000 0.000000
# 4 0.000000 0.000000 0.000000 0.003855 0.000000 0.000000
# 5 0.000000 0.000000 0.000000 0.000000 -0.003775 0.000000
# 6 0.000000 0.000000 0.000000 0.000000 0.000000 0.139064
#
#
# Mechanical properties :
#
#
# Convention : Reuss Voigt Hill
#
# Bulk Modulus (GPa) = 63.36106 69.02565 66.19335
# Shear Modulus (GPa) = 24.88745 14.09348 19.49047
#
# Velocity S-wave (km/s) = 3.50898 2.64058 3.10529
# Velocity P-wave (km/s) = 6.91121 6.59143 6.75321
#
# Compressibility (1/GPa) = 0.01578256
#
# Stress axis : x y z
#
# Youngs Moduli (GPa) = 78.48547 69.02125 112.21487
#
# Poissons Ratio (x) = 0.20862 0.32627
# Poissons Ratio (y) = 0.23722 0.47682
# Poissons Ratio (z) = 0.22820 0.29328
#
# Static dielectric constant tensor:
#      x y z
#    x 1.789870 0.000000 0.000000 
#    y 0.000000 2.142870 0.000000 
#    z 0.000000 0.000000 1.690610 
# 
# From -- ./inp_files/46746.got.cif
#   From: 2010.05.17/outbox.cif.g08.bks.cpg/sg22_24_cif.got.tgz:46746.got - 2010.06.03 23:40:54.
