data_PCOD9328610
_publ_section_title
;
Structure prediction by ZEFSAII (Michael W. Deem and Ramdas Pophale) SiO2 
 PCOD9328610
Probable space group: F 2 2 2
;
_chemical_formula_sum "Si O2"
_cell_formula_units_Z 40
_cell_length_a 6.700652
_cell_length_b 7.670417
_cell_length_c 32.383696
_cell_angle_alpha 90.000000
_cell_angle_beta 90.000000
_cell_angle_gamma 90.000000
_cell_volume 1664.418185
_symmetry_space_group_name_H-M "F 2 2 2"
_symmetry_group_IT_number 22
_symmetry_cell_setting 'orthorhombic'
loop_
_space_group_symop_operation_xyz
x,y,z
-x,-y,z
x,-y,-z
-x,y,-z
x,1/2+y,1/2+z
-x,1/2-y,1/2+z
x,1/2-y,1/2-z
-x,1/2+y,1/2-z
1/2+x,y,1/2+z
1/2-x,-y,1/2+z
1/2+x,-y,1/2-z
1/2-x,y,1/2-z
1/2+x,1/2+y,z
1/2-x,1/2-y,z
1/2+x,1/2-y,-z
1/2-x,1/2+y,-z
loop_
_atom_site_type_symbol
_atom_site_label
_atom_site_fract_x
_atom_site_fract_y
_atom_site_fract_z
Si Si1 0.250000 0.750000 0.250000
Si Si2 0.721551 0.048977 0.694429
Si Si3 0.000000 0.500000 0.000000
Si Si4 0.500000 0.500000 0.885785
Si Si5 0.250000 0.750000 0.441211
O O1 0.161543 0.611157 0.215731
O O2 0.750000 0.250000 0.705090
O O3 0.687839 0.037532 0.645086
O O4 0.500000 0.000000 0.709584
O O5 0.140601 0.613046 0.029499
O O6 0.419571 0.343071 0.913499
#
# Coordination Sequence:
#
# PCOD9328610 Si02
#       5
#     4  16   4   8   8
#     4  12  24  44  66 102 152 192 250 314 348 430
#     4  10  26  42  69 102 142 195 247 303 358 422
#     4  12  28  44  76 114 140 188 224 290 372 436
#     4  10  26  47  74 103 144 192 240 297 352 435
#     4  12  25  46  76 105 150 180 236 291 358 440
#
# _framework density 24.032423000000001
#
# number of rings (size 3 to 8) (size 9 to 14) (size 15 to 20)
#    1.200    0.000    0.000    4.200   11.200    0.000 
#    0.000    0.000    0.000    0.000    0.000    0.000 
#    0.000    0.000    0.000    0.000    0.000    0.000 
#
# Total GULP energy -55685.359459 kJ/mol
# GULP energy per Si atom -5568.535946 kJ/mol
# Density = 2.397772 g / cm^3
# Si number density = 24.032423 Si / 1000 Ang^3
#
#
#
# Elastic Constant Matrix: (Units=GPa)
#
#
# Indices 1 2 3 4 5 6 
#
# 1 55.2035 65.2379 30.5797 0.0000 0.0000 0.0000
# 2 65.2379 266.1369 104.8730 0.0000 0.0000 0.0000
# 3 30.5797 104.8730 199.9584 0.0000 0.0000 0.0000
# 4 0.0000 0.0000 0.0000 308.2715 0.0000 0.0000
# 5 0.0000 0.0000 0.0000 0.0000 -35.9757 0.0000
# 6 0.0000 0.0000 0.0000 0.0000 0.0000 68.3226
#
#
#
# Elastic Compliance Matrix: (Units=1/GPa)
#
#
# Indices 1 2 3 4 5 6 
#
# 1 0.025600 -0.005966 -0.000786 0.000000 0.000000 0.000000
# 2 -0.005966 0.006126 -0.002301 0.000000 0.000000 0.000000
# 3 -0.000786 -0.002301 0.006328 0.000000 0.000000 0.000000
# 4 0.000000 0.000000 0.000000 0.003244 0.000000 0.000000
# 5 0.000000 0.000000 0.000000 0.000000 -0.027797 0.000000
# 6 0.000000 0.000000 0.000000 0.000000 0.000000 0.014636
#
#
# Mechanical properties :
#
#
# Convention : Reuss Voigt Hill
#
# Bulk Modulus (GPa) = 50.12688 102.52000 76.32344
# Shear Modulus (GPa) = 94.52931 89.49756 92.01343
#
# Velocity S-wave (km/s) = 6.27849 6.10911 6.19438
# Velocity P-wave (km/s) = 8.57103 9.61838 9.10977
#
# Compressibility (1/GPa) = 0.01994938
#
# Stress axis : x y z
#
# Youngs Moduli (GPa) = 39.06216 163.22654 158.02708
#
# Poissons Ratio (x) = 0.97373 0.12426
# Poissons Ratio (y) = 0.23303 0.36360
# Poissons Ratio (z) = 0.03071 0.37556
#
# Static dielectric constant tensor:
#      x y z
#    x -4.502340 0.000000 0.000000 
#    y 0.000000 1.952040 0.000000 
#    z 0.000000 0.000000 1.932970 
# 
# From -- ./inp_files/5888.got.cif
#   From: 2010.05.17/outbox.cif.g08.bks.cpg/sg22_3_cif.got.tgz:5888.got - 2010.06.03 23:40:54.
