data_PCOD9328704
_publ_section_title
;
Structure prediction by ZEFSAII (Michael W. Deem and Ramdas Pophale) SiO2 
 PCOD9328704
Probable space group: F 2 2 2
;
_chemical_formula_sum "Si O2"
_cell_formula_units_Z 96
_cell_length_a 16.406390
_cell_length_b 23.151398
_cell_length_c 11.048314
_cell_angle_alpha 90.000000
_cell_angle_beta 90.000000
_cell_angle_gamma 90.000000
_cell_volume 4196.490659
_symmetry_space_group_name_H-M "F 2 2 2"
_symmetry_group_IT_number 22
_symmetry_cell_setting 'orthorhombic'
loop_
_space_group_symop_operation_xyz
x,y,z
-x,-y,z
x,-y,-z
-x,y,-z
x,1/2+y,1/2+z
-x,1/2-y,1/2+z
x,1/2-y,1/2-z
-x,1/2+y,1/2-z
1/2+x,y,1/2+z
1/2-x,-y,1/2+z
1/2+x,-y,1/2-z
1/2-x,y,1/2-z
1/2+x,1/2+y,z
1/2-x,1/2-y,z
1/2+x,1/2-y,-z
1/2-x,1/2+y,-z
loop_
_atom_site_type_symbol
_atom_site_label
_atom_site_fract_x
_atom_site_fract_y
_atom_site_fract_z
Si Si1 0.655682 0.346183 0.592589
Si Si2 0.500000 0.405460 0.500000
Si Si3 0.223853 0.818083 0.117782
Si Si4 0.408085 0.877543 0.519106
Si Si5 0.500000 0.000000 0.796702
Si Si6 0.165352 0.449924 0.288688
Si Si7 0.549438 0.239307 0.624619
O O1 0.579339 0.368135 0.515846
O O2 0.729465 0.341494 0.500050
O O3 0.666372 0.394291 0.696696
O O4 0.626508 0.282478 0.631707
O O5 0.510504 0.445259 0.383501
O O6 0.250000 0.839632 0.250000
O O7 0.250000 0.750000 0.117204
O O8 0.132280 0.841568 0.091415
O O9 0.500000 0.900915 0.500000
O O10 0.348978 0.925122 0.576888
O O11 0.422526 0.826640 0.616994
O O12 0.585076 0.011463 0.730678
O O13 0.250000 0.480001 0.250000
O O14 0.500000 0.249121 0.500000
O O15 0.501616 0.250000 0.750000
#
# Coordination Sequence:
#
# PCOD9328704 Si02
#       7
#    16   8  16  16   8  16  16
#     4  11  20  36  66  95 130 178 230 274 338 424
#     4   9  20  40  64  96 126 164 220 291 356 406
#     4  11  24  39  59  97 149 193 233 286 339 415
#     4  11  24  41  63  98 146 186 229 289 350 426
#     4   9  22  42  67 100 126 158 229 315 348 422
#     4  11  22  42  74  97 129 177 233 293 368 426
#     4  11  22  35  58 100 142 191 237 285 344 425
#
# _framework density 22.876256000000001
#
# number of rings (size 3 to 8) (size 9 to 14) (size 15 to 20)
#    0.000    1.333    5.833    0.000    0.000    5.333 
#    0.000    5.417    3.667    0.000    0.000    0.000 
#    0.000    0.000    0.000    0.000    0.000    0.000 
#
# Total GULP energy -133867.134185 kJ/mol
# GULP energy per Si atom -5577.797258 kJ/mol
# Density = 2.282419 g / cm^3
# Si number density = 22.876256 Si / 1000 Ang^3
#
#
#
# Elastic Constant Matrix: (Units=GPa)
#
#
# Indices 1 2 3 4 5 6 
#
# 1 134.4063 21.8589 34.4109 0.0000 0.0000 0.0000
# 2 21.8589 33.5198 -2.8726 0.0000 0.0000 0.0000
# 3 34.4109 -2.8726 96.9435 0.0000 0.0000 0.0000
# 4 0.0000 0.0000 0.0000 23.4381 0.0000 0.0000
# 5 0.0000 0.0000 0.0000 0.0000 33.4720 0.0000
# 6 0.0000 0.0000 0.0000 0.0000 0.0000 29.4989
#
#
#
# Elastic Compliance Matrix: (Units=1/GPa)
#
#
# Indices 1 2 3 4 5 6 
#
# 1 0.009386 -0.006423 -0.003522 0.000000 0.000000 0.000000
# 2 -0.006423 0.034304 0.003296 0.000000 0.000000 0.000000
# 3 -0.003522 0.003296 0.011663 0.000000 0.000000 0.000000
# 4 0.000000 0.000000 0.000000 0.042666 0.000000 0.000000
# 5 0.000000 0.000000 0.000000 0.000000 0.029876 0.000000
# 6 0.000000 0.000000 0.000000 0.000000 0.000000 0.033900
#
#
# Mechanical properties :
#
#
# Convention : Reuss Voigt Hill
#
# Bulk Modulus (GPa) = 23.77759 41.29600 32.53679
# Shear Modulus (GPa) = 26.43953 31.37997 28.90975
#
# Velocity S-wave (km/s) = 3.40334 3.70770 3.55878
# Velocity P-wave (km/s) = 5.08529 6.03494 5.58035
#
# Compressibility (1/GPa) = 0.04205641
#
# Stress axis : x y z
#
# Youngs Moduli (GPa) = 106.53660 29.15099 85.73995
#
# Poissons Ratio (x) = 0.18723 0.30199
# Poissons Ratio (y) = 0.68428 -0.28263
# Poissons Ratio (z) = 0.37523 -0.09609
#
# Static dielectric constant tensor:
#      x y z
#    x 1.860050 0.000000 0.000000 
#    y 0.000000 1.872210 0.000000 
#    z 0.000000 0.000000 1.903070 
# 
# From -- ./inp_files/21637.got.cif
#   From: 2010.05.17/outbox.cif.g08.bks.cpg/sg22_11_cif.got.tgz:21637.got - 2010.06.03 23:40:54.
