data_PCOD9328822
_publ_section_title
;
Structure prediction by ZEFSAII (Michael W. Deem and Ramdas Pophale) SiO2 
 PCOD9328822
Probable space group: F 2 2 2
;
_chemical_formula_sum "Si O2"
_cell_formula_units_Z 112
_cell_length_a 30.893363
_cell_length_b 11.153882
_cell_length_c 14.987294
_cell_angle_alpha 90.000000
_cell_angle_beta 90.000000
_cell_angle_gamma 90.000000
_cell_volume 5164.335637
_symmetry_space_group_name_H-M "F 2 2 2"
_symmetry_group_IT_number 22
_symmetry_cell_setting 'orthorhombic'
loop_
_space_group_symop_operation_xyz
x,y,z
-x,-y,z
x,-y,-z
-x,y,-z
x,1/2+y,1/2+z
-x,1/2-y,1/2+z
x,1/2-y,1/2-z
-x,1/2+y,1/2-z
1/2+x,y,1/2+z
1/2-x,-y,1/2+z
1/2+x,-y,1/2-z
1/2-x,y,1/2-z
1/2+x,1/2+y,z
1/2-x,1/2-y,z
1/2+x,1/2-y,-z
1/2-x,1/2+y,-z
loop_
_atom_site_type_symbol
_atom_site_label
_atom_site_fract_x
_atom_site_fract_y
_atom_site_fract_z
Si Si1 0.885448 0.458763 0.716461
Si Si2 0.531019 0.726126 0.647023
Si Si3 0.201449 0.752756 0.395365
Si Si4 0.443401 0.296278 0.104124
Si Si5 0.611564 0.838357 0.568656
Si Si6 0.202236 0.458209 0.755680
Si Si7 0.068873 0.489089 0.101037
O O1 0.918333 0.355623 0.686626
O O2 0.884000 0.544949 0.629811
O O3 0.834802 0.444577 0.738437
O O4 0.903722 0.512527 0.808722
O O5 0.521200 0.750000 0.750000
O O6 0.495214 0.812082 0.601762
O O7 0.580696 0.759003 0.630586
O O8 0.531482 0.590376 0.610188
O O9 0.250000 0.750000 0.436276
O O10 0.158465 0.719481 0.450522
O O11 0.201755 0.648042 0.319380
O O12 0.195702 0.880847 0.346219
O O13 0.440481 0.152377 0.107154
O O14 0.417359 0.345064 0.019342
O O15 0.250000 0.511022 0.750000
O O16 0.087573 0.500000 0.000000
#
# Coordination Sequence:
#
# PCOD9328822 Si02
#       7
#    16  16  16  16  16  16  16
#     4  11  23  43  66  95 138 180 220 272 341 413
#     4  12  24  44  68  95 126 175 232 283 335 402
#     4   8  15  30  60 103 133 164 225 291 326 374
#     4  12  27  42  62  97 138 176 222 277 340 403
#     4  11  22  39  68  96 135 179 220 275 335 407
#     4   8  15  30  62  97 129 170 223 278 329 390
#     4  12  25  43  69  93 126 172 229 282 332 396
#
# _framework density 21.687204999999999
#
# number of rings (size 3 to 8) (size 9 to 14) (size 15 to 20)
#    0.000    1.429    2.857    4.286    2.000    1.143 
#    0.000    1.429    3.143    0.857    0.000    0.000 
#    0.000    0.000    0.000    0.000    0.000    0.000 
#
# Total GULP energy -155892.197216 kJ/mol
# GULP energy per Si atom -5567.578472 kJ/mol
# Density = 2.163784 g / cm^3
# Si number density = 21.687205 Si / 1000 Ang^3
#
#
#
# Elastic Constant Matrix: (Units=GPa)
#
#
# Indices 1 2 3 4 5 6 
#
# 1 159.4307 40.7138 37.6950 0.0000 0.0000 0.0000
# 2 40.7138 60.4412 5.0527 0.0000 0.0000 0.0000
# 3 37.6950 5.0527 114.1934 0.0000 0.0000 0.0000
# 4 0.0000 0.0000 0.0000 28.6509 0.0000 0.0000
# 5 0.0000 0.0000 0.0000 0.0000 18.9269 0.0000
# 6 0.0000 0.0000 0.0000 0.0000 0.0000 -8.4393
#
#
#
# Elastic Compliance Matrix: (Units=1/GPa)
#
#
# Indices 1 2 3 4 5 6 
#
# 1 0.008219 -0.005329 -0.002477 0.000000 0.000000 0.000000
# 2 -0.005329 0.020062 0.000872 0.000000 0.000000 0.000000
# 3 -0.002477 0.000872 0.009536 0.000000 0.000000 0.000000
# 4 0.000000 0.000000 0.000000 0.034903 0.000000 0.000000
# 5 0.000000 0.000000 0.000000 0.000000 0.052835 0.000000
# 6 0.000000 0.000000 0.000000 0.000000 0.000000 -0.118493
#
#
# Mechanical properties :
#
#
# Convention : Reuss Voigt Hill
#
# Bulk Modulus (GPa) = 41.75862 55.66537 48.71199
# Shear Modulus (GPa) = 172.92532 24.53463 98.72998
#
# Velocity S-wave (km/s) = 8.93919 3.36712 6.75451
# Velocity P-wave (km/s) = 11.21795 6.39060 9.12913
#
# Compressibility (1/GPa) = 0.02394715
#
# Stress axis : x y z
#
# Youngs Moduli (GPa) = 121.66972 49.84544 104.86304
#
# Poissons Ratio (x) = 0.26564 0.25977
# Poissons Ratio (y) = 0.64841 -0.09139
# Poissons Ratio (z) = 0.30141 -0.04344
#
# Static dielectric constant tensor:
#      x y z
#    x 1.877050 0.000000 0.000000 
#    y 0.000000 1.813410 0.000000 
#    z 0.000000 0.000000 1.832790 
# 
# From -- ./inp_files/33541.got.cif
#   From: 2010.05.17/outbox.cif.g08.bks.cpg/sg22_17_cif.got.tgz:33541.got - 2010.06.03 23:40:54.
