data_PCOD9328472
_publ_section_title
;
Structure prediction by ZEFSAII (Michael W. Deem and Ramdas Pophale) SiO2 
 PCOD9328472
Probable space group: F 2 2 2
;
_chemical_formula_sum "Si O2"
_cell_formula_units_Z 68
_cell_length_a 26.896529
_cell_length_b 5.644508
_cell_length_c 18.551284
_cell_angle_alpha 90.000000
_cell_angle_beta 90.000000
_cell_angle_gamma 90.000000
_cell_volume 2816.412770
_symmetry_space_group_name_H-M "F 2 2 2"
_symmetry_group_IT_number 22
_symmetry_cell_setting 'orthorhombic'
loop_
_space_group_symop_operation_xyz
x,y,z
-x,-y,z
x,-y,-z
-x,y,-z
x,1/2+y,1/2+z
-x,1/2-y,1/2+z
x,1/2-y,1/2-z
-x,1/2+y,1/2-z
1/2+x,y,1/2+z
1/2-x,-y,1/2+z
1/2+x,-y,1/2-z
1/2-x,y,1/2-z
1/2+x,1/2+y,z
1/2-x,1/2-y,z
1/2+x,1/2-y,-z
1/2-x,1/2+y,-z
loop_
_atom_site_type_symbol
_atom_site_label
_atom_site_fract_x
_atom_site_fract_y
_atom_site_fract_z
Si Si1 0.000000 0.500000 0.374845
Si Si2 0.178377 0.615698 0.327430
Si Si3 0.404820 0.228857 0.329379
Si Si4 0.250000 0.750000 0.750000
Si Si5 0.943286 0.600028 0.926212
Si Si6 0.750000 0.750000 0.952124
O O1 0.037694 0.352669 0.326211
O O2 0.040826 0.630590 0.423407
O O3 0.167960 0.750000 0.250000
O O4 0.131240 0.472851 0.359506
O O5 0.217920 0.418750 0.301391
O O6 0.203602 0.753889 0.394681
O O7 0.384835 0.250000 0.250000
O O8 0.408671 0.485113 0.366125
O O9 0.000000 0.500000 0.918656
O O10 0.923174 0.500000 0.000000
O O11 0.748752 0.500000 0.000000
#
# Coordination Sequence:
#
# PCOD9328472 Si02
#       6
#     8  16  16   4  16   8
#     4  10  24  43  72  98 157 196 256 312 393 456
#     4  12  26  48  80 110 155 215 266 324 409 500
#     4  11  26  40  70 110 147 197 260 324 383 463
#     4  12  20  48  80 100 144 202 282 318 394 488
#     4   9  21  44  68  97 143 200 253 308 384 464
#     4  12  28  54  85 123 166 208 270 352 422 480
#
# _framework density 24.144189999999998
#
# number of rings (size 3 to 8) (size 9 to 14) (size 15 to 20)
#    0.000    1.176    3.529    0.706    8.235    7.529 
#    4.235    0.000    0.000    0.000    0.000    0.000 
#    0.000    0.000    0.000    0.000    0.000    0.000 
#
# Total GULP energy -94656.346858 kJ/mol
# GULP energy per Si atom -5568.020403 kJ/mol
# Density = 2.408924 g / cm^3
# Si number density = 24.144190 Si / 1000 Ang^3
#
#
#
# Elastic Constant Matrix: (Units=GPa)
#
#
# Indices 1 2 3 4 5 6 
#
# 1 93.8953 35.4501 32.9208 0.0004 -0.0001 -0.0002
# 2 35.4501 114.1239 62.1056 0.0012 -0.0002 -0.0001
# 3 32.9208 62.1056 131.3273 0.0002 -0.0001 -0.0001
# 4 0.0004 0.0012 0.0002 33.3240 -0.0001 -0.0003
# 5 -0.0001 -0.0002 -0.0001 -0.0001 4.8323 0.0000
# 6 -0.0002 -0.0001 -0.0001 -0.0003 0.0000 53.0335
#
#
#
# Elastic Compliance Matrix: (Units=1/GPa)
#
#
# Indices 1 2 3 4 5 6 
#
# 1 0.012349 -0.002897 -0.001726 0.000000 0.000000 0.000000
# 2 -0.002897 0.012478 -0.005175 0.000000 0.000000 0.000000
# 3 -0.001726 -0.005175 0.010494 0.000000 0.000000 0.000000
# 4 0.000000 0.000000 0.000000 0.030008 0.000001 0.000000
# 5 0.000000 0.000000 0.000000 0.000001 0.206940 0.000000
# 6 0.000000 0.000000 0.000000 0.000000 0.000000 0.018856
#
#
# Mechanical properties :
#
#
# Convention : Reuss Voigt Hill
#
# Bulk Modulus (GPa) = 63.58555 66.69995 65.14275
# Shear Modulus (GPa) = 15.82461 32.16261 23.99361
#
# Velocity S-wave (km/s) = 2.56290 3.65376 3.15582
# Velocity P-wave (km/s) = 5.92881 6.74430 6.34966
#
# Compressibility (1/GPa) = 0.01572684
#
# Stress axis : x y z
#
# Youngs Moduli (GPa) = 80.97895 80.13830 95.28863
#
# Poissons Ratio (x) = 0.23215 0.16444
# Poissons Ratio (y) = 0.23458 0.49312
# Poissons Ratio (z) = 0.13974 0.41471
#
# Static dielectric constant tensor:
#      x y z
#    x 1.940260 0.000000 0.000000 
#    y 0.000000 2.315580 0.000000 
#    z 0.000000 0.000000 1.940880 
# 
# From -- ./inp_files/45595.got.cif
#   From: 2010.05.17/outbox.cif.g08.bks.cpg/sg22_23_cif.got.tgz:45595.got - 2010.06.03 23:40:54.
