data_PCOD9328110
_publ_section_title
;
Structure prediction by ZEFSAII (Michael W. Deem and Ramdas Pophale) SiO2 
 PCOD9328110
Probable space group: F 2 2 2
;
_chemical_formula_sum "Si O2"
_cell_formula_units_Z 60
_cell_length_a 10.345963
_cell_length_b 23.598133
_cell_length_c 10.730393
_cell_angle_alpha 90.000000
_cell_angle_beta 90.000000
_cell_angle_gamma 90.000000
_cell_volume 2619.776208
_symmetry_space_group_name_H-M "F 2 2 2"
_symmetry_group_IT_number 22
_symmetry_cell_setting 'orthorhombic'
loop_
_space_group_symop_operation_xyz
x,y,z
-x,-y,z
x,-y,-z
-x,y,-z
x,1/2+y,1/2+z
-x,1/2-y,1/2+z
x,1/2-y,1/2-z
-x,1/2+y,1/2-z
1/2+x,y,1/2+z
1/2-x,-y,1/2+z
1/2+x,-y,1/2-z
1/2-x,y,1/2-z
1/2+x,1/2+y,z
1/2-x,1/2-y,z
1/2+x,1/2-y,-z
1/2-x,1/2+y,-z
loop_
_atom_site_type_symbol
_atom_site_label
_atom_site_fract_x
_atom_site_fract_y
_atom_site_fract_z
Si Si1 0.992231 0.250000 0.250000
Si Si2 0.500000 0.000000 0.000000
Si Si3 0.383655 0.360559 0.792966
Si Si4 0.814081 0.192217 0.948895
Si Si5 0.910838 0.607669 0.115655
O O1 0.084769 0.220406 0.148187
O O2 0.900966 0.302009 0.214951
O O3 0.594523 0.041784 0.922989
O O4 0.250000 0.388617 0.750000
O O5 0.510043 0.392490 0.744884
O O6 0.371014 0.343462 0.936307
O O7 0.750000 0.250000 0.998796
O O8 0.711015 0.149406 0.885659
O O9 0.000000 0.629900 0.000000
#
# Coordination Sequence:
#
# PCOD9328110 Si02
#       5
#     8   4  16  16  16
#     4  12  26  40  60 104 151 195 226 300 374 453
#     4   8  20  44  76  96 144 192 260 322 362 438
#     4  12  23  38  65  96 139 192 241 292 361 447
#     4  12  24  42  65 102 153 188 237 300 373 452
#     4  10  22  43  71 103 135 191 256 301 374 433
#
# _framework density 22.902721
#
# number of rings (size 3 to 8) (size 9 to 14) (size 15 to 20)
#    0.800    0.000    5.333    3.200    0.000    0.000 
#    0.000    0.000   17.600    0.000    0.000    0.000 
#    0.000    0.000    0.000    0.000    0.000    0.000 
#
# Total GULP energy -83590.132659 kJ/mol
# GULP energy per Si atom -5572.675511 kJ/mol
# Density = 2.285059 g / cm^3
# Si number density = 22.902721 Si / 1000 Ang^3
#
#
#
# Elastic Constant Matrix: (Units=GPa)
#
#
# Indices 1 2 3 4 5 6 
#
# 1 112.3808 24.3578 62.4821 0.0000 0.0000 0.0000
# 2 24.3578 107.7430 23.8223 0.0000 0.0000 0.0000
# 3 62.4821 23.8223 150.3466 0.0000 0.0000 0.0000
# 4 0.0000 0.0000 0.0000 21.7259 0.0000 0.0000
# 5 0.0000 0.0000 0.0000 0.0000 45.4699 0.0000
# 6 0.0000 0.0000 0.0000 0.0000 0.0000 17.7594
#
#
#
# Elastic Compliance Matrix: (Units=1/GPa)
#
#
# Indices 1 2 3 4 5 6 
#
# 1 0.011848 -0.001648 -0.004663 0.000000 0.000000 0.000000
# 2 -0.001648 0.009847 -0.000876 0.000000 0.000000 0.000000
# 3 -0.004663 -0.000876 0.008728 0.000000 0.000000 0.000000
# 4 0.000000 0.000000 0.000000 0.046028 0.000000 0.000000
# 5 0.000000 0.000000 0.000000 0.000000 0.021993 0.000000
# 6 0.000000 0.000000 0.000000 0.000000 0.000000 0.056308
#
#
# Mechanical properties :
#
#
# Convention : Reuss Voigt Hill
#
# Bulk Modulus (GPa) = 62.30046 65.75499 64.02773
# Shear Modulus (GPa) = 28.65753 34.31158 31.48456
#
# Velocity S-wave (km/s) = 3.54117 3.87479 3.71173
# Velocity P-wave (km/s) = 6.63183 6.98509 6.81075
#
# Compressibility (1/GPa) = 0.01605125
#
# Stress axis : x y z
#
# Youngs Moduli (GPa) = 84.40363 101.54959 114.57614
#
# Poissons Ratio (x) = 0.16731 0.53424
# Poissons Ratio (y) = 0.13906 0.10033
# Poissons Ratio (z) = 0.39355 0.08892
#
# Static dielectric constant tensor:
#      x y z
#    x 1.999510 0.000000 0.000000 
#    y 0.000000 1.844790 0.000000 
#    z 0.000000 0.000000 1.946710 
# 
# From -- ./inp_files/18203.got.cif
#   From: 2010.05.17/outbox.cif.g08.bks.cpg/sg22_10_cif.got.tgz:18203.got - 2010.06.03 23:40:54.
