data_PCOD9328617
_publ_section_title
;
Structure prediction by ZEFSAII (Michael W. Deem and Ramdas Pophale) SiO2 
 PCOD9328617
Probable space group: F 2 2 2
;
_chemical_formula_sum "Si O2"
_cell_formula_units_Z 84
_cell_length_a 25.152486
_cell_length_b 6.569163
_cell_length_c 23.433722
_cell_angle_alpha 90.000000
_cell_angle_beta 90.000000
_cell_angle_gamma 90.000000
_cell_volume 3871.972173
_symmetry_space_group_name_H-M "F 2 2 2"
_symmetry_group_IT_number 22
_symmetry_cell_setting 'orthorhombic'
loop_
_space_group_symop_operation_xyz
x,y,z
-x,-y,z
x,-y,-z
-x,y,-z
x,1/2+y,1/2+z
-x,1/2-y,1/2+z
x,1/2-y,1/2-z
-x,1/2+y,1/2-z
1/2+x,y,1/2+z
1/2-x,-y,1/2+z
1/2+x,-y,1/2-z
1/2-x,y,1/2-z
1/2+x,1/2+y,z
1/2-x,1/2-y,z
1/2+x,1/2-y,-z
1/2-x,1/2+y,-z
loop_
_atom_site_type_symbol
_atom_site_label
_atom_site_fract_x
_atom_site_fract_y
_atom_site_fract_z
Si Si1 0.162936 0.430071 0.863156
Si Si2 0.843678 0.978989 0.935940
Si Si3 0.567922 0.710454 0.399572
Si Si4 0.946790 0.081448 0.789881
Si Si5 0.500000 0.000000 0.000000
Si Si6 0.250000 0.250000 0.097915
Si Si7 0.369145 0.750000 0.250000
O O1 0.105295 0.526548 0.878150
O O2 0.209100 0.597471 0.871010
O O3 0.164406 0.364986 0.797525
O O4 0.167190 0.237888 0.906490
O O5 0.889564 0.106206 0.904871
O O6 0.788982 0.103771 0.936312
O O7 0.863757 0.000000 0.000000
O O8 0.534149 0.802163 0.347276
O O9 0.535923 0.637620 0.456050
O O10 0.920304 0.250000 0.750000
O O11 0.906051 0.896353 0.788584
O O12 0.000000 0.000000 0.760718
#
# Coordination Sequence:
#
# PCOD9328617 Si02
#       7
#    16  16  16  16   4   8   8
#     4  11  24  47  72 103 141 191 236 309 368 445
#     4  11  24  44  72  99 135 187 237 293 356 438
#     4  11  26  45  67 102 149 189 243 293 363 431
#     4  12  25  41  69 103 136 187 245 296 350 431
#     4  12  28  44  70 112 164 202 236 318 362 442
#     4  10  26  44  71 106 138 171 240 294 372 440
#     4  12  24  44  77  98 142 188 238 307 370 428
#
# _framework density 21.694371
#
# number of rings (size 3 to 8) (size 9 to 14) (size 15 to 20)
#    0.000    0.762    4.762    1.714    6.667    3.048 
#    0.000    3.810    0.000    0.000    0.000    0.000 
#    0.000    0.000    0.000    0.000    0.000    0.000 
#
# Total GULP energy -117051.391387 kJ/mol
# GULP energy per Si atom -5573.875780 kJ/mol
# Density = 2.164499 g / cm^3
# Si number density = 21.694371 Si / 1000 Ang^3
#
#
#
# Elastic Constant Matrix: (Units=GPa)
#
#
# Indices 1 2 3 4 5 6 
#
# 1 39.3738 22.6417 -5.6057 0.0000 0.0000 0.0001
# 2 22.6417 124.3552 41.4708 -0.0003 0.0003 0.0003
# 3 -5.6057 41.4708 101.9556 0.0000 0.0000 0.0000
# 4 0.0000 -0.0003 0.0000 32.9859 0.0001 0.0000
# 5 0.0000 0.0003 0.0000 0.0001 19.3060 -0.0001
# 6 0.0001 0.0003 0.0000 0.0000 -0.0001 20.0549
#
#
#
# Elastic Compliance Matrix: (Units=1/GPa)
#
#
# Indices 1 2 3 4 5 6 
#
# 1 0.030042 -0.006965 0.004485 0.000000 0.000000 0.000000
# 2 -0.006965 0.010918 -0.004824 0.000000 0.000000 0.000000
# 3 0.004485 -0.004824 0.012017 0.000000 0.000000 0.000000
# 4 0.000000 0.000000 0.000000 0.030316 0.000000 0.000000
# 5 0.000000 0.000000 0.000000 0.000000 0.051797 0.000000
# 6 0.000000 0.000000 0.000000 0.000000 0.000000 0.049863
#
#
# Mechanical properties :
#
#
# Convention : Reuss Voigt Hill
#
# Bulk Modulus (GPa) = 26.06347 42.52201 34.29274
# Shear Modulus (GPa) = 23.54584 28.28122 25.91353
#
# Velocity S-wave (km/s) = 3.29803 3.61449 3.45988
# Velocity P-wave (km/s) = 5.15196 6.08789 5.63937
#
# Compressibility (1/GPa) = 0.03836787
#
# Stress axis : x y z
#
# Youngs Moduli (GPa) = 33.28724 91.58795 83.21545
#
# Poissons Ratio (x) = 0.63795 -0.37322
# Poissons Ratio (y) = 0.23186 0.40144
# Poissons Ratio (z) = -0.14929 0.44183
#
# Static dielectric constant tensor:
#      x y z
#    x 1.766870 0.000000 0.000000 
#    y 0.000000 1.863330 0.000000 
#    z 0.000000 0.000000 1.913820 
# 
# From -- ./inp_files/50700.got.cif
#   From: 2010.05.17/outbox.cif.g08.bks.cpg/sg22_26_cif.got.tgz:50700.got - 2010.06.03 23:40:54.
