data_PCOD9328625
_publ_section_title
;
Structure prediction by ZEFSAII (Michael W. Deem and Ramdas Pophale) SiO2 
 PCOD9328625
Probable space group: F 2 2 2
;
_chemical_formula_sum "Si O2"
_cell_formula_units_Z 68
_cell_length_a 4.957153
_cell_length_b 23.507627
_cell_length_c 26.401889
_cell_angle_alpha 90.000000
_cell_angle_beta 90.000000
_cell_angle_gamma 90.000000
_cell_volume 3076.635985
_symmetry_space_group_name_H-M "F 2 2 2"
_symmetry_group_IT_number 22
_symmetry_cell_setting 'orthorhombic'
loop_
_space_group_symop_operation_xyz
x,y,z
-x,-y,z
x,-y,-z
-x,y,-z
x,1/2+y,1/2+z
-x,1/2-y,1/2+z
x,1/2-y,1/2-z
-x,1/2+y,1/2-z
1/2+x,y,1/2+z
1/2-x,-y,1/2+z
1/2+x,-y,1/2-z
1/2-x,y,1/2-z
1/2+x,1/2+y,z
1/2-x,1/2-y,z
1/2+x,1/2-y,-z
1/2-x,1/2+y,-z
loop_
_atom_site_type_symbol
_atom_site_label
_atom_site_fract_x
_atom_site_fract_y
_atom_site_fract_z
Si Si1 0.500000 0.711399 0.000000
Si Si2 0.034002 0.357405 0.704145
Si Si3 0.864737 0.375500 0.411947
Si Si4 0.250000 0.750000 0.750000
Si Si5 0.750000 0.541217 0.250000
Si Si6 0.617060 0.440654 0.557942
O O1 0.750000 0.750000 0.014104
O O2 0.426137 0.672861 0.047660
O O3 0.250000 0.367117 0.750000
O O4 0.108869 0.357704 0.645861
O O5 0.916008 0.295137 0.716614
O O6 0.839225 0.412938 0.707811
O O7 0.553131 0.391748 0.416237
O O8 0.070073 0.426651 0.430797
O O9 0.500000 0.500000 0.262801
O O10 0.500000 0.500000 0.578499
O O11 0.500000 0.438713 0.500000
#
# Coordination Sequence:
#
# PCOD9328625 Si02
#       6
#     8  16  16   4   8  16
#     4  12  26  46  69 102 139 182 234 296 360 416
#     4  11  27  48  73 105 144 195 242 304 364 428
#     4  12  26  45  73 104 144 182 239 290 354 431
#     4  10  26  48  72 102 140 184 256 292 362 428
#     4  11  24  47  74 103 150 185 238 296 356 433
#     4  11  23  45  72 106 146 186 228 285 353 431
#
# _framework density 22.102060999999999
#
# number of rings (size 3 to 8) (size 9 to 14) (size 15 to 20)
#    0.000    0.706    3.529    2.471    8.235    6.588 
#    0.000    0.000    0.000    0.000    0.000    0.000 
#    0.000    0.000    0.000    0.000    0.000    0.000 
#
# Total GULP energy -94860.877818 kJ/mol
# GULP energy per Si atom -5580.051636 kJ/mol
# Density = 2.205176 g / cm^3
# Si number density = 22.102061 Si / 1000 Ang^3
#
#
#
# Elastic Constant Matrix: (Units=GPa)
#
#
# Indices 1 2 3 4 5 6 
#
# 1 75.8855 19.8566 -6.1711 0.0000 0.0000 0.0000
# 2 19.8566 129.4628 21.3685 0.0000 0.0000 0.0000
# 3 -6.1711 21.3685 137.1660 0.0000 0.0000 0.0000
# 4 0.0000 0.0000 0.0000 -13.4035 0.0000 0.0000
# 5 0.0000 0.0000 0.0000 0.0000 23.6970 0.0000
# 6 0.0000 0.0000 0.0000 0.0000 0.0000 37.3448
#
#
#
# Elastic Compliance Matrix: (Units=1/GPa)
#
#
# Indices 1 2 3 4 5 6 
#
# 1 0.013856 -0.002287 0.000980 0.000000 0.000000 0.000000
# 2 -0.002287 0.008306 -0.001397 0.000000 0.000000 0.000000
# 3 0.000980 -0.001397 0.007552 0.000000 0.000000 0.000000
# 4 0.000000 0.000000 0.000000 -0.074607 0.000000 0.000000
# 5 0.000000 0.000000 0.000000 0.000000 0.042199 0.000000
# 6 0.000000 0.000000 0.000000 0.000000 0.000000 0.026778
#
#
# Mechanical properties :
#
#
# Convention : Reuss Voigt Hill
#
# Bulk Modulus (GPa) = 41.14305 45.84693 43.49499
# Shear Modulus (GPa) = 133.00394 30.02501 81.51447
#
# Velocity S-wave (km/s) = 7.76581 3.68974 6.07956
# Velocity P-wave (km/s) = 9.95318 6.24024 8.30682
#
# Compressibility (1/GPa) = 0.02430544
#
# Stress axis : x y z
#
# Youngs Moduli (GPa) = 72.17197 120.40187 132.41337
#
# Poissons Ratio (x) = 0.27534 -0.12972
# Poissons Ratio (y) = 0.16505 0.18495
# Poissons Ratio (z) = -0.07070 0.16817
#
# Static dielectric constant tensor:
#      x y z
#    x 1.868790 0.000000 0.000000 
#    y 0.000000 1.805790 0.000000 
#    z 0.000000 0.000000 1.838960 
# 
# From -- ./inp_files/45593.got.cif
#   From: 2010.05.17/outbox.cif.g08.bks.cpg/sg22_23_cif.got.tgz:45593.got - 2010.06.03 23:40:54.
