data_PCOD9328003
_publ_section_title
;
Structure prediction by ZEFSAII (Michael W. Deem and Ramdas Pophale) SiO2 
 PCOD9328003
Probable space group: F 2 2 2
;
_chemical_formula_sum "Si O2"
_cell_formula_units_Z 80
_cell_length_a 7.980580
_cell_length_b 15.772457
_cell_length_c 30.891311
_cell_angle_alpha 90.000000
_cell_angle_beta 90.000000
_cell_angle_gamma 90.000000
_cell_volume 3888.392952
_symmetry_space_group_name_H-M "F 2 2 2"
_symmetry_group_IT_number 22
_symmetry_cell_setting 'orthorhombic'
loop_
_space_group_symop_operation_xyz
x,y,z
-x,-y,z
x,-y,-z
-x,y,-z
x,1/2+y,1/2+z
-x,1/2-y,1/2+z
x,1/2-y,1/2-z
-x,1/2+y,1/2-z
1/2+x,y,1/2+z
1/2-x,-y,1/2+z
1/2+x,-y,1/2-z
1/2-x,y,1/2-z
1/2+x,1/2+y,z
1/2-x,1/2-y,z
1/2+x,1/2-y,-z
1/2-x,1/2+y,-z
loop_
_atom_site_type_symbol
_atom_site_label
_atom_site_fract_x
_atom_site_fract_y
_atom_site_fract_z
Si Si1 0.750000 0.750000 0.562629
Si Si2 0.799518 0.496131 0.297736
Si Si3 0.777790 0.348113 0.648789
Si Si4 0.148896 0.409477 0.617206
Si Si5 0.166030 0.945112 0.570597
Si Si6 0.500000 0.160793 0.000000
O O1 0.783321 0.670227 0.592390
O O2 0.595132 0.721459 0.533135
O O3 0.750000 0.469039 0.250000
O O4 0.733832 0.589144 0.311568
O O5 0.756528 0.436682 0.338625
O O6 0.000000 0.500000 0.297378
O O7 0.750000 0.250000 0.658960
O O8 0.669824 0.372290 0.606764
O O9 0.964707 0.378378 0.633519
O O10 0.184752 0.489201 0.584130
O O11 0.138041 0.898849 0.524393
O O12 0.000000 0.000000 0.575902
#
# Coordination Sequence:
#
# PCOD9328003 Si02
#       6
#     8  16  16  16  16   8
#     4  12  26  42  63  96 136 166 229 276 340 376
#     4   9  20  41  66  96 129 167 219 262 321 402
#     4  10  22  41  68  95 131 172 215 269 338 391
#     4  10  23  43  66  94 133 175 215 271 333 403
#     4  11  22  41  64  89 128 171 222 269 323 392
#     4  12  27  42  62  95 132 174 228 287 320 402
#
# _framework density 20.574052999999999
#
# number of rings (size 3 to 8) (size 9 to 14) (size 15 to 20)
#    0.000    1.600    2.000    3.300    4.200    3.600 
#    0.000    0.500    0.000    0.000    0.000    0.000 
#    0.000    0.000    0.000    0.000    0.000    0.000 
#
# Total GULP energy -111423.749800 kJ/mol
# GULP energy per Si atom -5571.187490 kJ/mol
# Density = 2.052723 g / cm^3
# Si number density = 20.574053 Si / 1000 Ang^3
#
#
#
# Elastic Constant Matrix: (Units=GPa)
#
#
# Indices 1 2 3 4 5 6 
#
# 1 47.4366 25.7192 21.5072 0.0000 0.0000 0.0000
# 2 25.7192 148.8421 76.2449 0.0000 0.0000 0.0000
# 3 21.5072 76.2449 136.1708 0.0000 0.0000 0.0000
# 4 0.0000 0.0000 0.0000 22.1488 0.0000 0.0000
# 5 0.0000 0.0000 0.0000 0.0000 28.3928 0.0000
# 6 0.0000 0.0000 0.0000 0.0000 0.0000 22.8947
#
#
#
# Elastic Compliance Matrix: (Units=1/GPa)
#
#
# Indices 1 2 3 4 5 6 
#
# 1 0.023653 -0.003048 -0.002029 0.000000 0.000000 0.000000
# 2 -0.003048 0.009813 -0.005013 0.000000 0.000000 0.000000
# 3 -0.002029 -0.005013 0.010471 0.000000 0.000000 0.000000
# 4 0.000000 0.000000 0.000000 0.045149 0.000000 0.000000
# 5 0.000000 0.000000 0.000000 0.000000 0.035220 0.000000
# 6 0.000000 0.000000 0.000000 0.000000 0.000000 0.043678
#
#
# Mechanical properties :
#
#
# Convention : Reuss Voigt Hill
#
# Bulk Modulus (GPa) = 42.09263 64.37690 53.23476
# Shear Modulus (GPa) = 25.49915 28.61914 27.05915
#
# Velocity S-wave (km/s) = 3.52431 3.73370 3.63051
# Velocity P-wave (km/s) = 6.08806 7.06722 6.59584
#
# Compressibility (1/GPa) = 0.02375713
#
# Stress axis : x y z
#
# Youngs Moduli (GPa) = 42.27749 101.90353 95.49916
#
# Poissons Ratio (x) = 0.31056 0.19381
# Poissons Ratio (y) = 0.12884 0.47876
# Poissons Ratio (z) = 0.08580 0.51087
#
# Static dielectric constant tensor:
#      x y z
#    x 1.807440 0.000000 0.000000 
#    y 0.000000 1.742680 0.000000 
#    z 0.000000 0.000000 1.779400 
# 
# From -- ./inp_files/51809.got.cif
#   From: 2010.05.17/outbox.cif.g08.bks.cpg/sg22_26_cif.got.tgz:51809.got - 2010.06.03 23:40:54.
