data_PCOD9328730
_publ_section_title
;
Structure prediction by ZEFSAII (Michael W. Deem and Ramdas Pophale) SiO2 
 PCOD9328730
Probable space group: F 2 2 2
;
_chemical_formula_sum "Si O2"
_cell_formula_units_Z 112
_cell_length_a 14.079363
_cell_length_b 13.812975
_cell_length_c 30.097695
_cell_angle_alpha 90.000000
_cell_angle_beta 90.000000
_cell_angle_gamma 90.000000
_cell_volume 5853.336191
_symmetry_space_group_name_H-M "F 2 2 2"
_symmetry_group_IT_number 22
_symmetry_cell_setting 'orthorhombic'
loop_
_space_group_symop_operation_xyz
x,y,z
-x,-y,z
x,-y,-z
-x,y,-z
x,1/2+y,1/2+z
-x,1/2-y,1/2+z
x,1/2-y,1/2-z
-x,1/2+y,1/2-z
1/2+x,y,1/2+z
1/2-x,-y,1/2+z
1/2+x,-y,1/2-z
1/2-x,y,1/2-z
1/2+x,1/2+y,z
1/2-x,1/2-y,z
1/2+x,1/2-y,-z
1/2-x,1/2+y,-z
loop_
_atom_site_type_symbol
_atom_site_label
_atom_site_fract_x
_atom_site_fract_y
_atom_site_fract_z
Si Si1 0.861461 0.360230 0.694352
Si Si2 0.613040 0.887540 0.990916
Si Si3 0.489206 0.100001 0.128623
Si Si4 0.858898 0.225953 0.397962
Si Si5 0.981057 0.889492 0.104513
Si Si6 0.148215 0.237773 0.427314
Si Si7 0.643539 0.373051 0.704312
O O1 0.930773 0.386362 0.653610
O O2 0.751745 0.393681 0.689239
O O3 0.880905 0.395950 0.744595
O O4 0.864735 0.243360 0.698197
O O5 0.633460 0.838096 0.943307
O O6 0.500000 0.880422 0.000000
O O7 0.662209 0.818332 0.027012
O O8 0.640180 0.000000 0.000000
O O9 0.587254 0.155327 0.136563
O O10 0.422327 0.171743 0.101178
O O11 0.430368 0.077098 0.172230
O O12 0.500000 0.000000 0.102358
O O13 0.750000 0.250000 0.388998
O O14 0.923968 0.323091 0.398537
O O15 0.905413 0.839656 0.071271
O O16 0.000000 0.000000 0.093456
O O17 0.250000 0.250000 0.404721
#
# Coordination Sequence:
#
# PCOD9328730 Si02
#       7
#    16  16  16  16  16  16  16
#     4   9  17  34  58  88 116 150 193 249 291 338
#     4  11  21  40  67  88 111 146 196 248 291 339
#     4  11  21  35  60  89 117 150 197 249 289 343
#     4  11  24  41  56  84 122 156 187 234 293 353
#     4  11  23  37  57  84 122 160 189 232 290 354
#     4  11  22  39  62  88 113 150 196 246 291 347
#     4   9  17  32  61  89 113 145 200 250 292 332
#
# _framework density 19.134387
#
# number of rings (size 3 to 8) (size 9 to 14) (size 15 to 20)
#    0.000    1.571    5.714    3.000    0.000    4.000 
#    0.000    1.429    0.000    1.714    0.000    0.000 
#    0.000    0.000    0.000    0.000    0.000    0.000 
#
# Total GULP energy -156064.376081 kJ/mol
# GULP energy per Si atom -5573.727717 kJ/mol
# Density = 1.909084 g / cm^3
# Si number density = 19.134387 Si / 1000 Ang^3
#
#
#
# Elastic Constant Matrix: (Units=GPa)
#
#
# Indices 1 2 3 4 5 6 
#
# 1 119.4694 50.2136 17.7290 0.0000 0.0000 0.0000
# 2 50.2136 128.7535 17.4867 0.0000 0.0000 0.0000
# 3 17.7290 17.4867 73.3766 0.0000 0.0000 0.0000
# 4 0.0000 0.0000 0.0000 9.8146 0.0000 0.0000
# 5 0.0000 0.0000 0.0000 0.0000 22.8035 0.0000
# 6 0.0000 0.0000 0.0000 0.0000 0.0000 11.7500
#
#
#
# Elastic Compliance Matrix: (Units=1/GPa)
#
#
# Indices 1 2 3 4 5 6 
#
# 1 0.010182 -0.003759 -0.001564 0.000000 0.000000 0.000000
# 2 -0.003759 0.009414 -0.001335 0.000000 0.000000 0.000000
# 3 -0.001564 -0.001335 0.014325 0.000000 0.000000 0.000000
# 4 0.000000 0.000000 0.000000 0.101889 0.000000 0.000000
# 5 0.000000 0.000000 0.000000 0.000000 0.043853 0.000000
# 6 0.000000 0.000000 0.000000 0.000000 0.000000 0.085106
#
#
# Mechanical properties :
#
#
# Convention : Reuss Voigt Hill
#
# Bulk Modulus (GPa) = 48.53433 54.71758 51.62595
# Shear Modulus (GPa) = 17.54670 24.61829 21.08249
#
# Velocity S-wave (km/s) = 3.03153 3.59081 3.32296
# Velocity P-wave (km/s) = 6.13788 6.77130 6.46235
#
# Compressibility (1/GPa) = 0.02060397
#
# Stress axis : x y z
#
# Youngs Moduli (GPa) = 98.21000 106.22496 69.81013
#
# Poissons Ratio (x) = 0.39926 0.10922
# Poissons Ratio (y) = 0.36913 0.09322
# Poissons Ratio (z) = 0.15365 0.14185
#
# Static dielectric constant tensor:
#      x y z
#    x 1.684560 0.000000 0.000000 
#    y 0.000000 1.685440 0.000000 
#    z 0.000000 0.000000 1.737060 
# 
# From -- ./inp_files/56538.got.cif
#   From: 2010.05.17/outbox.cif.g08.bks.cpg/sg22_29_cif.got.tgz:56538.got - 2010.06.03 23:40:54.
