data_PCOD9328761
_publ_section_title
;
Structure prediction by ZEFSAII (Michael W. Deem and Ramdas Pophale) SiO2 
 PCOD9328761
Probable space group: F 2 2 2
;
_chemical_formula_sum "Si O2"
_cell_formula_units_Z 116
_cell_length_a 28.761700
_cell_length_b 9.635110
_cell_length_c 22.724844
_cell_angle_alpha 90.000000
_cell_angle_beta 90.000000
_cell_angle_gamma 90.000000
_cell_volume 6297.557475
_symmetry_space_group_name_H-M "F 2 2 2"
_symmetry_group_IT_number 22
_symmetry_cell_setting 'orthorhombic'
loop_
_space_group_symop_operation_xyz
x,y,z
-x,-y,z
x,-y,-z
-x,y,-z
x,1/2+y,1/2+z
-x,1/2-y,1/2+z
x,1/2-y,1/2-z
-x,1/2+y,1/2-z
1/2+x,y,1/2+z
1/2-x,-y,1/2+z
1/2+x,-y,1/2-z
1/2-x,y,1/2-z
1/2+x,1/2+y,z
1/2-x,1/2-y,z
1/2+x,1/2-y,-z
1/2-x,1/2+y,-z
loop_
_atom_site_type_symbol
_atom_site_label
_atom_site_fract_x
_atom_site_fract_y
_atom_site_fract_z
Si Si1 0.955917 0.409581 0.270037
Si Si2 0.149519 0.754269 0.061222
Si Si3 0.319320 0.506464 0.633454
Si Si4 0.852063 0.789805 0.077522
Si Si5 0.653377 0.084288 0.259671
Si Si6 0.500000 0.000000 0.500000
Si Si7 0.074653 0.019731 0.897272
Si Si8 0.209871 0.031389 0.882213
O O1 0.962073 0.250000 0.250000
O O2 0.901961 0.449581 0.256211
O O3 0.953033 0.432870 0.339897
O O4 0.000000 0.500000 0.247460
O O5 0.152862 0.609377 0.095506
O O6 0.109810 0.854417 0.087667
O O7 0.196410 0.835386 0.079005
O O8 0.141865 0.750174 0.991179
O O9 0.338650 0.653986 0.613246
O O10 0.325436 0.487197 0.702841
O O11 0.264538 0.486145 0.623501
O O12 0.810271 0.898893 0.083828
O O13 0.895186 0.877386 0.104741
O O14 0.657453 0.250000 0.250000
O O15 0.681487 0.046374 0.319627
O O16 0.539973 0.998424 0.449711
#
# Coordination Sequence:
#
# PCOD9328761 Si02
#       8
#    16  16  16  16  16   4  16  16
#     4  11  23  41  67  96 126 164 211 269 328 386
#     4  11  21  40  64  90 130 166 212 261 321 377
#     4  12  25  37  63  93 128 170 211 264 326 376
#     4  11  24  40  59  92 137 162 206 270 324 366
#     4  11  22  43  64  87 125 166 217 270 313 382
#     4  12  20  40  84  98 112 172 236 244 312 404
#     4  11  21  43  70  97 123 171 217 260 309 395
#     4  11  22  40  64  89 120 176 222 255 309 388
#
# _framework density 18.419839
#
# number of rings (size 3 to 8) (size 9 to 14) (size 15 to 20)
#    0.000    0.828    6.207    3.724    0.000    5.517 
#    0.000    1.379    0.000    0.828    0.000    0.000 
#    0.000    0.000    0.000    0.000    0.000    0.000 
#
# Total GULP energy -161468.624173 kJ/mol
# GULP energy per Si atom -5567.883592 kJ/mol
# Density = 1.837791 g / cm^3
# Si number density = 18.419839 Si / 1000 Ang^3
#
#
#
# Elastic Constant Matrix: (Units=GPa)
#
#
# Indices 1 2 3 4 5 6 
#
# 1 105.1589 24.8759 -3.2256 0.0000 0.0000 0.0000
# 2 24.8759 70.2401 7.5670 0.0000 0.0000 0.0000
# 3 -3.2256 7.5670 72.7635 0.0000 0.0000 0.0000
# 4 0.0000 0.0000 0.0000 81.6662 0.0000 0.0000
# 5 0.0000 0.0000 0.0000 0.0000 39.1803 0.0000
# 6 0.0000 0.0000 0.0000 0.0000 0.0000 11.9595
#
#
#
# Elastic Compliance Matrix: (Units=1/GPa)
#
#
# Indices 1 2 3 4 5 6 
#
# 1 0.010431 -0.003787 0.000856 0.000000 0.000000 0.000000
# 2 -0.003787 0.015773 -0.001808 0.000000 0.000000 0.000000
# 3 0.000856 -0.001808 0.013969 0.000000 0.000000 0.000000
# 4 0.000000 0.000000 0.000000 0.012245 0.000000 0.000000
# 5 0.000000 0.000000 0.000000 0.000000 0.025523 0.000000
# 6 0.000000 0.000000 0.000000 0.000000 0.000000 0.083615
#
#
# Mechanical properties :
#
#
# Convention : Reuss Voigt Hill
#
# Bulk Modulus (GPa) = 32.57725 34.06634 33.32179
# Shear Modulus (GPa) = 27.58384 41.15756 34.37070
#
# Velocity S-wave (km/s) = 3.87396 4.73209 4.32436
# Velocity P-wave (km/s) = 6.14284 6.95639 6.56224
#
# Compressibility (1/GPa) = 0.03069627
#
# Stress axis : x y z
#
# Youngs Moduli (GPa) = 95.86429 63.40062 71.58636
#
# Poissons Ratio (x) = 0.24007 -0.06129
# Poissons Ratio (y) = 0.36300 0.12944
# Poissons Ratio (z) = -0.08208 0.11464
#
# Static dielectric constant tensor:
#      x y z
#    x 1.654200 0.000000 0.000000 
#    y 0.000000 1.708060 0.000000 
#    z 0.000000 0.000000 1.655560 
# 
# From -- ./inp_files/14121.got.cif
#   From: 2010.05.17/outbox.cif.g08.bks.cpg/sg22_8_cif.got.tgz:14121.got - 2010.06.03 23:40:54.
