data_PCOD9328138
_publ_section_title
;
Structure prediction by ZEFSAII (Michael W. Deem and Ramdas Pophale) SiO2 
 PCOD9328138
Probable space group: F 2 2 2
;
_chemical_formula_sum "Si O2"
_cell_formula_units_Z 88
_cell_length_a 7.424953
_cell_length_b 25.430438
_cell_length_c 19.647459
_cell_angle_alpha 90.000000
_cell_angle_beta 90.000000
_cell_angle_gamma 90.000000
_cell_volume 3709.829415
_symmetry_space_group_name_H-M "F 2 2 2"
_symmetry_group_IT_number 22
_symmetry_cell_setting 'orthorhombic'
loop_
_space_group_symop_operation_xyz
x,y,z
-x,-y,z
x,-y,-z
-x,y,-z
x,1/2+y,1/2+z
-x,1/2-y,1/2+z
x,1/2-y,1/2-z
-x,1/2+y,1/2-z
1/2+x,y,1/2+z
1/2-x,-y,1/2+z
1/2+x,-y,1/2-z
1/2-x,y,1/2-z
1/2+x,1/2+y,z
1/2-x,1/2-y,z
1/2+x,1/2-y,-z
1/2-x,1/2+y,-z
loop_
_atom_site_type_symbol
_atom_site_label
_atom_site_fract_x
_atom_site_fract_y
_atom_site_fract_z
Si Si1 0.255405 0.810383 0.954943
Si Si2 0.361671 0.146101 0.579575
Si Si3 0.000000 0.500000 0.667839
Si Si4 0.803881 0.533692 0.930497
Si Si5 0.404359 0.392195 0.357627
Si Si6 0.504177 0.110383 0.711824
O O1 0.250000 0.750000 0.933801
O O2 0.390207 0.848311 0.915602
O O3 0.062244 0.835397 0.937490
O O4 0.264809 0.815278 0.036637
O O5 0.309648 0.087297 0.554593
O O6 0.372902 0.140623 0.660780
O O7 0.826058 0.499951 0.618499
O O8 0.042541 0.450866 0.714920
O O9 0.018851 0.440959 0.891576
O O10 0.823997 0.500000 0.000000
O O11 0.496252 0.370994 0.288688
O O12 0.200272 0.395597 0.325988
#
# Coordination Sequence:
#
# PCOD9328138 Si02
#       6
#    16  16   8  16  16  16
#     4  10  22  44  71  98 136 180 237 306 376 415
#     4   9  22  42  65  95 136 184 223 289 361 422
#     4  10  23  40  62  88 141 204 220 272 360 423
#     4  11  25  41  66 101 144 184 235 287 355 432
#     4  10  23  43  67 102 136 180 248 296 343 434
#     4   9  21  45  65  93 142 191 230 286 350 425
#
# _framework density 23.720766000000001
#
# number of rings (size 3 to 8) (size 9 to 14) (size 15 to 20)
#    0.000    2.182    0.000    0.273   12.727   10.182 
#    6.545    9.091    0.000    2.182    0.000    0.000 
#    0.000    0.000    0.000    0.000    0.000    0.000 
#
# Total GULP energy -122524.382843 kJ/mol
# GULP energy per Si atom -5569.290129 kJ/mol
# Density = 2.366678 g / cm^3
# Si number density = 23.720766 Si / 1000 Ang^3
#
#
#
# Elastic Constant Matrix: (Units=GPa)
#
#
# Indices 1 2 3 4 5 6 
#
# 1 142.0836 45.9390 52.5410 0.0000 0.0000 0.0000
# 2 45.9390 75.7255 63.7613 0.0000 0.0000 0.0000
# 3 52.5410 63.7613 141.5265 0.0000 0.0000 0.0000
# 4 0.0000 0.0000 0.0000 1.8460 0.0000 0.0000
# 5 0.0000 0.0000 0.0000 0.0000 34.5999 0.0000
# 6 0.0000 0.0000 0.0000 0.0000 0.0000 -19.6739
#
#
#
# Elastic Compliance Matrix: (Units=1/GPa)
#
#
# Indices 1 2 3 4 5 6 
#
# 1 0.008926 -0.004229 -0.001408 0.000000 0.000000 0.000000
# 2 -0.004229 0.023281 -0.008918 0.000000 0.000000 0.000000
# 3 -0.001408 -0.008918 0.011607 0.000000 0.000000 0.000000
# 4 0.000000 0.000000 0.000000 0.541723 0.000000 0.000000
# 5 0.000000 0.000000 0.000000 0.000000 0.028902 0.000000
# 6 0.000000 0.000000 0.000000 0.000000 0.000000 -0.050829
#
#
# Mechanical properties :
#
#
# Convention : Reuss Voigt Hill
#
# Bulk Modulus (GPa) = 68.02085 75.97977 72.00031
# Shear Modulus (GPa) = 8.36648 16.49400 12.43024
#
# Velocity S-wave (km/s) = 1.88009 2.63979 2.29164
# Velocity P-wave (km/s) = 5.78367 6.43364 6.11730
#
# Compressibility (1/GPa) = 0.01470137
#
# Stress axis : x y z
#
# Youngs Moduli (GPa) = 112.02767 42.95415 86.15719
#
# Poissons Ratio (x) = 0.18166 0.12135
# Poissons Ratio (y) = 0.47379 0.76839
# Poissons Ratio (z) = 0.15779 0.38308
#
# Static dielectric constant tensor:
#      x y z
#    x 2.437650 0.000000 0.000000 
#    y 0.000000 1.885100 0.000000 
#    z 0.000000 0.000000 1.954210 
# 
# From -- ./inp_files/36096.got.cif
#   From: 2010.05.17/outbox.cif.g08.bks.cpg/sg22_19_cif.got.tgz:36096.got - 2010.06.03 23:40:54.
