data_PCOD9328963
_publ_section_title
;
Structure prediction by ZEFSAII (Michael W. Deem and Ramdas Pophale) SiO2 
 PCOD9328963
Probable space group: F 2 2 2
;
_chemical_formula_sum "Si O2"
_cell_formula_units_Z 88
_cell_length_a 14.440820
_cell_length_b 23.580775
_cell_length_c 11.797104
_cell_angle_alpha 90.000000
_cell_angle_beta 90.000000
_cell_angle_gamma 90.000000
_cell_volume 4017.217419
_symmetry_space_group_name_H-M "F 2 2 2"
_symmetry_group_IT_number 22
_symmetry_cell_setting 'orthorhombic'
loop_
_space_group_symop_operation_xyz
x,y,z
-x,-y,z
x,-y,-z
-x,y,-z
x,1/2+y,1/2+z
-x,1/2-y,1/2+z
x,1/2-y,1/2-z
-x,1/2+y,1/2-z
1/2+x,y,1/2+z
1/2-x,-y,1/2+z
1/2+x,-y,1/2-z
1/2-x,y,1/2-z
1/2+x,1/2+y,z
1/2-x,1/2-y,z
1/2+x,1/2-y,-z
1/2-x,1/2+y,-z
loop_
_atom_site_type_symbol
_atom_site_label
_atom_site_fract_x
_atom_site_fract_y
_atom_site_fract_z
Si Si1 0.750000 0.120613 0.250000
Si Si2 0.750000 0.840306 0.250000
Si Si3 0.500000 0.135629 0.500000
Si Si4 0.318559 0.000000 0.000000
Si Si5 0.872932 0.709866 0.638268
Si Si6 0.330793 0.429335 0.095359
Si Si7 0.895225 0.020783 0.260639
Si Si8 0.250000 0.250000 0.057463
O O1 0.789158 0.165075 0.157687
O O2 0.842250 0.081685 0.266069
O O3 0.677412 0.883367 0.304672
O O4 0.726391 0.801127 0.143272
O O5 0.465471 0.175669 0.603127
O O6 0.584017 0.093568 0.525304
O O7 0.255625 0.056802 0.014651
O O8 0.378008 0.000598 0.112836
O O9 0.881667 0.750000 0.750000
O O10 0.837721 0.740791 0.524499
O O11 0.340921 0.488051 0.161959
O O12 0.000000 0.000000 0.234180
#
# Coordination Sequence:
#
# PCOD9328963 Si02
#       8
#     8   8   8   8  16  16  16   8
#     4  12  22  46  75 103 144 202 240 304 376 436
#     4  11  23  44  75  99 138 193 233 298 370 448
#     4  12  28  43  76 110 142 192 249 316 370 444
#     4  12  23  43  70  96 144 192 227 296 353 444
#     4  12  25  47  76 108 147 191 256 312 380 449
#     4  12  25  46  69 105 144 190 243 291 373 452
#     4  12  26  43  68 108 144 185 244 295 359 450
#     4  11  23  44  74 102 135 189 244 298 372 449
#
# _framework density 21.905712000000001
#
# number of rings (size 3 to 8) (size 9 to 14) (size 15 to 20)
#    0.000    0.182    7.273    2.455    2.545    1.455 
#    0.000    0.000    0.000    0.000    0.000    0.000 
#    0.000    0.000    0.000    0.000    0.000    0.000 
#
# Total GULP energy -122578.418673 kJ/mol
# GULP energy per Si atom -5571.746303 kJ/mol
# Density = 2.185585 g / cm^3
# Si number density = 21.905712 Si / 1000 Ang^3
#
#
#
# Elastic Constant Matrix: (Units=GPa)
#
#
# Indices 1 2 3 4 5 6 
#
# 1 44.4603 11.9125 4.8510 0.0000 0.0000 0.0000
# 2 11.9125 90.3084 44.3402 0.0000 0.0000 0.0000
# 3 4.8510 44.3402 106.6076 0.0000 0.0000 0.0000
# 4 0.0000 0.0000 0.0000 31.3307 0.0000 0.0000
# 5 0.0000 0.0000 0.0000 0.0000 34.7374 0.0000
# 6 0.0000 0.0000 0.0000 0.0000 0.0000 86.7778
#
#
#
# Elastic Compliance Matrix: (Units=1/GPa)
#
#
# Indices 1 2 3 4 5 6 
#
# 1 0.023322 -0.003211 0.000274 0.000000 0.000000 0.000000
# 2 -0.003211 0.014357 -0.005825 0.000000 0.000000 0.000000
# 3 0.000274 -0.005825 0.011791 0.000000 0.000000 0.000000
# 4 0.000000 0.000000 0.000000 0.031918 0.000000 0.000000
# 5 0.000000 0.000000 0.000000 0.000000 0.028787 0.000000
# 6 0.000000 0.000000 0.000000 0.000000 0.000000 0.011524
#
#
# Mechanical properties :
#
#
# Convention : Reuss Voigt Hill
#
# Bulk Modulus (GPa) = 31.30302 40.39821 35.85061
# Shear Modulus (GPa) = 33.36202 42.58734 37.97468
#
# Velocity S-wave (km/s) = 3.90677 4.41400 4.16811
# Velocity P-wave (km/s) = 5.88824 6.66782 6.29012
#
# Compressibility (1/GPa) = 0.03194580
#
# Stress axis : x y z
#
# Youngs Moduli (GPa) = 42.87720 69.65332 84.81390
#
# Poissons Ratio (x) = 0.22366 -0.02327
# Poissons Ratio (y) = 0.13768 0.49406
# Poissons Ratio (z) = -0.01176 0.40574
#
# Static dielectric constant tensor:
#      x y z
#    x 1.784620 0.000000 0.000000 
#    y 0.000000 1.880430 0.000000 
#    z 0.000000 0.000000 1.697760 
# 
# From -- ./inp_files/20014.got.cif
#   From: 2010.05.17/outbox.cif.g08.bks.cpg/sg22_11_cif.got.tgz:20014.got - 2010.06.03 23:40:54.
