data_PCOD9328126
_publ_section_title
;
Structure prediction by ZEFSAII (Michael W. Deem and Ramdas Pophale) SiO2 
 PCOD9328126
Probable space group: F 2 2 2
;
_chemical_formula_sum "Si O2"
_cell_formula_units_Z 116
_cell_length_a 25.039130
_cell_length_b 20.057114
_cell_length_c 12.123753
_cell_angle_alpha 90.000000
_cell_angle_beta 90.000000
_cell_angle_gamma 90.000000
_cell_volume 6088.702545
_symmetry_space_group_name_H-M "F 2 2 2"
_symmetry_group_IT_number 22
_symmetry_cell_setting 'orthorhombic'
loop_
_space_group_symop_operation_xyz
x,y,z
-x,-y,z
x,-y,-z
-x,y,-z
x,1/2+y,1/2+z
-x,1/2-y,1/2+z
x,1/2-y,1/2-z
-x,1/2+y,1/2-z
1/2+x,y,1/2+z
1/2-x,-y,1/2+z
1/2+x,-y,1/2-z
1/2-x,y,1/2-z
1/2+x,1/2+y,z
1/2-x,1/2-y,z
1/2+x,1/2-y,-z
1/2-x,1/2+y,-z
loop_
_atom_site_type_symbol
_atom_site_label
_atom_site_fract_x
_atom_site_fract_y
_atom_site_fract_z
Si Si1 0.500000 0.500000 0.000000
Si Si2 0.255624 0.430969 0.569193
Si Si3 0.838190 0.955009 0.759756
Si Si4 0.186152 0.893169 0.763476
Si Si5 0.932708 0.604677 0.631147
Si Si6 0.631915 0.187961 0.545941
Si Si7 0.517106 0.280319 0.872406
Si Si8 0.794140 0.803188 0.433969
O O1 0.459408 0.458043 0.926467
O O2 0.256386 0.500000 0.500000
O O3 0.200691 0.434225 0.638397
O O4 0.304975 0.435179 0.652948
O O5 0.266409 0.361937 0.504450
O O6 0.895407 0.920244 0.769911
O O7 0.841929 0.035330 0.758386
O O8 0.250000 0.906400 0.750000
O O9 0.168303 0.857911 0.875514
O O10 0.175999 0.841448 0.664687
O O11 0.892368 0.644745 0.552023
O O12 0.983129 0.652595 0.642458
O O13 0.580211 0.209760 0.615614
O O14 0.664137 0.253512 0.507207
O O15 0.507277 0.250000 0.750000
O O16 0.500000 0.255077 0.000000
O O17 0.750000 0.750000 0.391013
#
# Coordination Sequence:
#
# PCOD9328126 Si02
#       8
#     4  16  16  16  16  16  16  16
#     4  12  20  44  68  96 130 156 234 284 334 402
#     4  11  23  44  57  90 135 175 214 253 326 411
#     4  11  24  38  64  90 127 174 215 263 330 397
#     4  12  21  37  58  93 127 164 210 268 325 390
#     4  11  24  41  66  97 126 171 223 279 334 394
#     4  11  23  40  61  96 129 164 219 279 334 384
#     4  10  22  44  67  97 133 172 225 284 346 401
#     4  12  23  36  62  91 128 169 216 265 319 395
#
# _framework density 19.051677000000002
#
# number of rings (size 3 to 8) (size 9 to 14) (size 15 to 20)
#    0.000    0.828    6.207    2.897    2.897    2.207 
#    0.000    4.138    0.000    0.000    0.000    0.000 
#    0.000    0.000    0.000    0.000    0.000    0.000 
#
# Total GULP energy -161583.065230 kJ/mol
# GULP energy per Si atom -5571.829836 kJ/mol
# Density = 1.900831 g / cm^3
# Si number density = 19.051677 Si / 1000 Ang^3
#
#
#
# Elastic Constant Matrix: (Units=GPa)
#
#
# Indices 1 2 3 4 5 6 
#
# 1 61.3913 16.9149 5.3473 0.0000 0.0000 0.0000
# 2 16.9149 103.1809 36.1142 0.0001 0.0000 0.0000
# 3 5.3473 36.1142 42.2512 0.0003 0.0000 0.0000
# 4 0.0000 0.0001 0.0003 -344.2169 0.0000 0.0000
# 5 0.0000 0.0000 0.0000 0.0000 35.6638 0.0000
# 6 0.0000 0.0000 0.0000 0.0000 0.0000 7.3761
#
#
#
# Elastic Compliance Matrix: (Units=1/GPa)
#
#
# Indices 1 2 3 4 5 6 
#
# 1 0.017063 -0.002913 0.000330 0.000000 0.000000 0.000000
# 2 -0.002913 0.014326 -0.011877 0.000000 0.000000 0.000000
# 3 0.000330 -0.011877 0.033778 0.000000 0.000000 0.000000
# 4 0.000000 0.000000 0.000000 -0.002905 0.000000 0.000000
# 5 0.000000 0.000000 0.000000 0.000000 0.028040 0.000000
# 6 0.000000 0.000000 0.000000 0.000000 0.000000 0.135572
#
#
# Mechanical properties :
#
#
# Convention : Reuss Voigt Hill
#
# Bulk Modulus (GPa) = 27.58756 35.95294 31.77025
# Shear Modulus (GPa) = 18.73540 -50.33892 -15.80176
#
# Velocity S-wave (km/s) = 3.13932 -5.14584 -2.88308
# Velocity P-wave (km/s) = 5.25854 4.04895 2.37258
#
# Compressibility (1/GPa) = 0.03624823
#
# Stress axis : x y z
#
# Youngs Moduli (GPa) = 58.60728 69.80248 29.60533
#
# Poissons Ratio (x) = 0.20332 -0.00978
# Poissons Ratio (y) = 0.17071 0.35161
# Poissons Ratio (z) = -0.01935 0.82902
#
# Static dielectric constant tensor:
#      x y z
#    x 41.050590 0.000000 0.000000 
#    y 0.000000 1.667350 0.000000 
#    z 0.000000 0.000000 1.614080 
# 
# From -- ./inp_files/21816.got.cif
#   From: 2010.05.17/outbox.cif.g08.bks.cpg/sg22_11_cif.got.tgz:21816.got - 2010.06.03 23:40:54.
