data_PCOD9328851
_publ_section_title
;
Structure prediction by ZEFSAII (Michael W. Deem and Ramdas Pophale) SiO2 
 PCOD9328851
Probable space group: F 2 2 2
;
_chemical_formula_sum "Si O2"
_cell_formula_units_Z 52
_cell_length_a 8.457439
_cell_length_b 12.898361
_cell_length_c 22.319927
_cell_angle_alpha 90.000000
_cell_angle_beta 90.000000
_cell_angle_gamma 90.000000
_cell_volume 2434.816139
_symmetry_space_group_name_H-M "F 2 2 2"
_symmetry_group_IT_number 22
_symmetry_cell_setting 'orthorhombic'
loop_
_space_group_symop_operation_xyz
x,y,z
-x,-y,z
x,-y,-z
-x,y,-z
x,1/2+y,1/2+z
-x,1/2-y,1/2+z
x,1/2-y,1/2-z
-x,1/2+y,1/2-z
1/2+x,y,1/2+z
1/2-x,-y,1/2+z
1/2+x,-y,1/2-z
1/2-x,y,1/2-z
1/2+x,1/2+y,z
1/2-x,1/2-y,z
1/2+x,1/2-y,-z
1/2-x,1/2+y,-z
loop_
_atom_site_type_symbol
_atom_site_label
_atom_site_fract_x
_atom_site_fract_y
_atom_site_fract_z
Si Si1 0.500000 0.500000 0.000000
Si Si2 0.608851 0.814251 0.313198
Si Si3 0.827780 0.853655 0.906465
Si Si4 0.183712 0.475994 0.806196
O O1 0.398407 0.573568 0.042944
O O2 0.579322 0.750000 0.250000
O O3 0.750000 0.750000 0.343731
O O4 0.461308 0.824749 0.356841
O O5 0.692122 0.927149 0.306176
O O6 0.750000 0.750000 0.931197
O O7 0.700526 0.917074 0.868050
O O8 0.250000 0.410477 0.750000
O O9 0.000000 0.500000 0.796927
#
# Coordination Sequence:
#
# PCOD9328851 Si02
#       4
#     4  16  16  16
#     4  12  28  60  74 110 160 212 278 314 380 474
#     4  11  22  41  71 115 153 193 247 321 391 466
#     4  12  28  49  78 108 150 211 258 325 386 470
#     4  12  24  43  71 114 154 194 247 319 397 463
#
# _framework density 21.356849
#
# number of rings (size 3 to 8) (size 9 to 14) (size 15 to 20)
#    0.000    0.308    6.154    3.692    4.308    1.231 
#    5.538    0.000    0.000    0.000    0.000    0.000 
#    0.000    0.000    0.000    0.000    0.000    0.000 
#
# Total GULP energy -72617.973529 kJ/mol
# GULP energy per Si atom -5585.997964 kJ/mol
# Density = 2.130824 g / cm^3
# Si number density = 21.356849 Si / 1000 Ang^3
#
#
#
# Elastic Constant Matrix: (Units=GPa)
#
#
# Indices 1 2 3 4 5 6 
#
# 1 136.5987 41.1623 54.9013 0.0000 0.0000 0.0000
# 2 41.1623 129.6820 59.8589 0.0000 0.0000 0.0000
# 3 54.9013 59.8589 118.7753 0.0000 0.0000 0.0000
# 4 0.0000 0.0000 0.0000 31.1497 0.0000 0.0000
# 5 0.0000 0.0000 0.0000 0.0000 17.7977 0.0000
# 6 0.0000 0.0000 0.0000 0.0000 0.0000 44.1551
#
#
#
# Elastic Compliance Matrix: (Units=1/GPa)
#
#
# Indices 1 2 3 4 5 6 
#
# 1 0.009141 -0.001240 -0.003601 0.000000 0.000000 0.000000
# 2 -0.001240 0.010217 -0.004576 0.000000 0.000000 0.000000
# 3 -0.003601 -0.004576 0.012390 0.000000 0.000000 0.000000
# 4 0.000000 0.000000 0.000000 0.032103 0.000000 0.000000
# 5 0.000000 0.000000 0.000000 0.000000 0.056187 0.000000
# 6 0.000000 0.000000 0.000000 0.000000 0.000000 0.022647
#
#
# Mechanical properties :
#
#
# Convention : Reuss Voigt Hill
#
# Bulk Modulus (GPa) = 77.42651 77.43344 77.42997
# Shear Modulus (GPa) = 30.15260 33.89607 32.02434
#
# Velocity S-wave (km/s) = 3.76153 3.98820 3.87652
# Velocity P-wave (km/s) = 7.42953 7.58573 7.50804
#
# Compressibility (1/GPa) = 0.01291547
#
# Stress axis : x y z
#
# Youngs Moduli (GPa) = 109.39205 97.87792 80.71173
#
# Poissons Ratio (x) = 0.12132 0.29062
# Poissons Ratio (y) = 0.13560 0.36934
# Poissons Ratio (z) = 0.39389 0.44789
#
# Static dielectric constant tensor:
#      x y z
#    x 1.816470 0.000000 0.000000 
#    y 0.000000 1.877650 0.000000 
#    z 0.000000 0.000000 1.779100 
# 
# From -- ./inp_files/16768.got.cif
#   From: 2010.05.17/outbox.cif.g08.bks.cpg/sg22_9_cif.got.tgz:16768.got - 2010.06.03 23:40:54.
