data_PCOD9328665
_publ_section_title
;
Structure prediction by ZEFSAII (Michael W. Deem and Ramdas Pophale) SiO2 
 PCOD9328665
Probable space group: F 2 2 2
;
_chemical_formula_sum "Si O2"
_cell_formula_units_Z 108
_cell_length_a 18.219916
_cell_length_b 13.831468
_cell_length_c 27.399556
_cell_angle_alpha 90.000000
_cell_angle_beta 90.000000
_cell_angle_gamma 90.000000
_cell_volume 6904.912381
_symmetry_space_group_name_H-M "F 2 2 2"
_symmetry_group_IT_number 22
_symmetry_cell_setting 'orthorhombic'
loop_
_space_group_symop_operation_xyz
x,y,z
-x,-y,z
x,-y,-z
-x,y,-z
x,1/2+y,1/2+z
-x,1/2-y,1/2+z
x,1/2-y,1/2-z
-x,1/2+y,1/2-z
1/2+x,y,1/2+z
1/2-x,-y,1/2+z
1/2+x,-y,1/2-z
1/2-x,y,1/2-z
1/2+x,1/2+y,z
1/2-x,1/2-y,z
1/2+x,1/2-y,-z
1/2-x,1/2+y,-z
loop_
_atom_site_type_symbol
_atom_site_label
_atom_site_fract_x
_atom_site_fract_y
_atom_site_fract_z
Si Si1 0.629823 0.259840 0.802325
Si Si2 0.000000 0.500000 0.000000
Si Si3 0.273873 0.500000 0.000000
Si Si4 0.085662 0.652930 0.064518
Si Si5 0.749492 0.414162 0.696053
Si Si6 0.425036 0.701969 0.596324
Si Si7 0.831836 0.790094 0.010328
Si Si8 0.823457 0.989864 0.400914
O O1 0.591441 0.250000 0.750000
O O2 0.690974 0.174334 0.800481
O O3 0.672727 0.360384 0.809333
O O4 0.582551 0.241062 0.849407
O O5 0.054062 0.569900 0.029013
O O6 0.321839 0.402642 0.998542
O O7 0.223965 0.492468 0.049022
O O8 0.134899 0.592326 0.102088
O O9 0.010479 0.696528 0.084334
O O10 0.133012 0.729140 0.033942
O O11 0.750000 0.462687 0.750000
O O12 0.725410 0.470740 0.647425
O O13 0.381905 0.767728 0.557296
O O14 0.383007 0.597694 0.594913
O O15 0.750000 0.750000 0.020330
#
# Coordination Sequence:
#
# PCOD9328665 Si02
#       8
#    16   4   8  16  16  16  16  16
#     4   8  15  27  45  72 104 133 165 210 265 308
#     4  12  18  36  52  74 110 136 174 200 266 300
#     4  12  23  32  50  80 103 138 172 210 257 312
#     4  12  21  33  51  77 106 137 168 217 259 307
#     4   8  15  27  46  74 105 133 166 215 263 304
#     4  11  19  31  52  75 103 136 169 211 263 313
#     4  12  22  34  50  75 108 138 171 209 255 314
#     4  11  18  30  52  78 106 132 171 216 262 312
#
# _framework density 15.641038
#
# number of rings (size 3 to 8) (size 9 to 14) (size 15 to 20)
#    0.000    1.481    5.926    2.222    2.074    0.000 
#    0.000    1.481    0.000    1.778    0.000    7.259 
#    0.000    0.000    0.000    0.000    0.000    0.000 
#
# Total GULP energy -150444.450437 kJ/mol
# GULP energy per Si atom -5572.016683 kJ/mol
# Density = 1.560544 g / cm^3
# Si number density = 15.641038 Si / 1000 Ang^3
#
#
#
# Elastic Constant Matrix: (Units=GPa)
#
#
# Indices 1 2 3 4 5 6 
#
# 1 78.1781 34.8927 56.6055 0.0000 0.0000 0.0000
# 2 34.8927 80.0240 40.2172 0.0000 0.0000 0.0000
# 3 56.6055 40.2172 133.4913 0.0000 0.0000 0.0000
# 4 0.0000 0.0000 0.0000 19.9183 0.0000 0.0000
# 5 0.0000 0.0000 0.0000 0.0000 10.7261 0.0000
# 6 0.0000 0.0000 0.0000 0.0000 0.0000 24.0860
#
#
#
# Elastic Compliance Matrix: (Units=1/GPa)
#
#
# Indices 1 2 3 4 5 6 
#
# 1 0.020207 -0.005308 -0.006969 0.000000 0.000000 0.000000
# 2 -0.005308 0.016120 -0.002606 0.000000 0.000000 0.000000
# 3 -0.006969 -0.002606 0.011231 0.000000 0.000000 0.000000
# 4 0.000000 0.000000 0.000000 0.050205 0.000000 0.000000
# 5 0.000000 0.000000 0.000000 0.000000 0.093231 0.000000
# 6 0.000000 0.000000 0.000000 0.000000 0.000000 0.041518
#
#
# Mechanical properties :
#
#
# Convention : Reuss Voigt Hill
#
# Bulk Modulus (GPa) = 56.20475 61.68048 58.94261
# Shear Modulus (GPa) = 18.64219 21.61127 20.12673
#
# Velocity S-wave (km/s) = 3.45610 3.72116 3.59108
# Velocity P-wave (km/s) = 7.20683 7.61468 7.41356
#
# Compressibility (1/GPa) = 0.01779209
#
# Stress axis : x y z
#
# Youngs Moduli (GPa) = 49.48897 62.03351 89.03652
#
# Poissons Ratio (x) = 0.32928 0.62051
# Poissons Ratio (y) = 0.26270 0.23201
# Poissons Ratio (z) = 0.34490 0.16164
#
# Static dielectric constant tensor:
#      x y z
#    x 1.528560 0.000000 0.000000 
#    y 0.000000 1.530260 0.000000 
#    z 0.000000 0.000000 1.549760 
# 
# From -- ./inp_files/56549.got.cif
#   From: 2010.05.17/outbox.cif.g08.bks.cpg/sg22_29_cif.got.tgz:56549.got - 2010.06.03 23:40:54.
