data_PCOD9328006
_publ_section_title
;
Structure prediction by ZEFSAII (Michael W. Deem and Ramdas Pophale) SiO2 
 PCOD9328006
Probable space group: F 2 2 2
;
_chemical_formula_sum "Si O2"
_cell_formula_units_Z 88
_cell_length_a 11.226783
_cell_length_b 12.495132
_cell_length_c 30.276022
_cell_angle_alpha 90.000000
_cell_angle_beta 90.000000
_cell_angle_gamma 90.000000
_cell_volume 4247.124469
_symmetry_space_group_name_H-M "F 2 2 2"
_symmetry_group_IT_number 22
_symmetry_cell_setting 'orthorhombic'
loop_
_space_group_symop_operation_xyz
x,y,z
-x,-y,z
x,-y,-z
-x,y,-z
x,1/2+y,1/2+z
-x,1/2-y,1/2+z
x,1/2-y,1/2-z
-x,1/2+y,1/2-z
1/2+x,y,1/2+z
1/2-x,-y,1/2+z
1/2+x,-y,1/2-z
1/2-x,y,1/2-z
1/2+x,1/2+y,z
1/2-x,1/2-y,z
1/2+x,1/2-y,-z
1/2-x,1/2+y,-z
loop_
_atom_site_type_symbol
_atom_site_label
_atom_site_fract_x
_atom_site_fract_y
_atom_site_fract_z
Si Si1 0.916552 0.341234 0.930225
Si Si2 0.869256 0.767929 0.162063
Si Si3 0.817320 0.578538 0.932906
Si Si4 0.750000 0.750000 0.001083
Si Si5 0.877122 0.788579 0.800609
Si Si6 0.871788 0.985973 0.860662
O O1 0.869599 0.299313 0.883362
O O2 0.861600 0.457557 0.942340
O O3 0.058947 0.355703 0.926581
O O4 0.865271 0.262167 0.967394
O O5 0.750000 0.750000 0.190178
O O6 0.998049 0.743395 0.181804
O O7 0.852284 0.892570 0.152063
O O8 0.749030 0.644988 0.970380
O O9 0.729275 0.564545 0.891429
O O10 0.874563 0.750000 0.750000
O O11 0.750000 0.750000 0.819558
O O12 0.883488 0.911956 0.816898
O O13 0.000000 0.000000 0.884491
#
# Coordination Sequence:
#
# PCOD9328006 Si02
#       6
#    16  16  16   8  16  16
#     4  11  23  44  66  96 136 182 233 291 352 418
#     4  11  21  42  73  98 136 174 230 294 347 417
#     4  11  24  41  68  98 132 184 236 284 353 423
#     4  12  24  38  64  96 134 178 230 290 340 402
#     4  10  23  44  68  98 140 181 228 281 353 430
#     4  10  22  41  69 100 136 179 225 288 349 420
#
# _framework density 20.719902000000001
#
# number of rings (size 3 to 8) (size 9 to 14) (size 15 to 20)
#    0.000    1.273    2.727    2.182    6.364    1.818 
#    3.273   10.909    0.000    0.000    0.000    0.000 
#    0.000    0.000    0.000    0.000    0.000    0.000 
#
# Total GULP energy -122506.327038 kJ/mol
# GULP energy per Si atom -5568.469411 kJ/mol
# Density = 2.067274 g / cm^3
# Si number density = 20.719902 Si / 1000 Ang^3
#
#
#
# Elastic Constant Matrix: (Units=GPa)
#
#
# Indices 1 2 3 4 5 6 
#
# 1 192.9820 58.0596 59.6520 0.0000 0.0000 0.0000
# 2 58.0596 71.4993 37.5195 0.0000 0.0000 0.0000
# 3 59.6520 37.5195 82.6926 0.0000 0.0000 0.0000
# 4 0.0000 0.0000 0.0000 23.5584 0.0000 0.0000
# 5 0.0000 0.0000 0.0000 0.0000 31.0318 0.0000
# 6 0.0000 0.0000 0.0000 0.0000 0.0000 38.6042
#
#
#
# Elastic Compliance Matrix: (Units=1/GPa)
#
#
# Indices 1 2 3 4 5 6 
#
# 1 0.007558 -0.004300 -0.003501 0.000000 0.000000 0.000000
# 2 -0.004300 0.020803 -0.006337 0.000000 0.000000 0.000000
# 3 -0.003501 -0.006337 0.017494 0.000000 0.000000 0.000000
# 4 0.000000 0.000000 0.000000 0.042448 0.000000 0.000000
# 5 0.000000 0.000000 0.000000 0.000000 0.032225 0.000000
# 6 0.000000 0.000000 0.000000 0.000000 0.000000 0.025904
#
#
# Mechanical properties :
#
#
# Convention : Reuss Voigt Hill
#
# Bulk Modulus (GPa) = 56.88670 73.07068 64.97869
# Shear Modulus (GPa) = 27.69065 31.43509 29.56287
#
# Velocity S-wave (km/s) = 3.65968 3.89928 3.78138
# Velocity P-wave (km/s) = 6.73591 7.45755 7.10589
#
# Compressibility (1/GPa) = 0.01757880
#
# Stress axis : x y z
#
# Youngs Moduli (GPa) = 132.31677 48.06949 57.16357
#
# Poissons Ratio (x) = 0.20670 0.20012
# Poissons Ratio (y) = 0.56895 0.36225
# Poissons Ratio (z) = 0.46322 0.30462
#
# Static dielectric constant tensor:
#      x y z
#    x 1.772720 0.000000 0.000000 
#    y 0.000000 1.745130 0.000000 
#    z 0.000000 0.000000 1.750340 
# 
# From -- ./inp_files/55946.got.cif
#   From: 2010.05.17/outbox.cif.g08.bks.cpg/sg22_28_cif.got.tgz:55946.got - 2010.06.03 23:40:54.
