data_PCOD9328584
_publ_section_title
;
Structure prediction by ZEFSAII (Michael W. Deem and Ramdas Pophale) SiO2 
 PCOD9328584
Probable space group: F 2 2 2
;
_chemical_formula_sum "Si O2"
_cell_formula_units_Z 64
_cell_length_a 14.134768
_cell_length_b 21.933230
_cell_length_c 8.281629
_cell_angle_alpha 90.000000
_cell_angle_beta 90.000000
_cell_angle_gamma 90.000000
_cell_volume 2567.479878
_symmetry_space_group_name_H-M "F 2 2 2"
_symmetry_group_IT_number 22
_symmetry_cell_setting 'orthorhombic'
loop_
_space_group_symop_operation_xyz
x,y,z
-x,-y,z
x,-y,-z
-x,y,-z
x,1/2+y,1/2+z
-x,1/2-y,1/2+z
x,1/2-y,1/2-z
-x,1/2+y,1/2-z
1/2+x,y,1/2+z
1/2-x,-y,1/2+z
1/2+x,-y,1/2-z
1/2-x,y,1/2-z
1/2+x,1/2+y,z
1/2-x,1/2-y,z
1/2+x,1/2-y,-z
1/2-x,1/2+y,-z
loop_
_atom_site_type_symbol
_atom_site_label
_atom_site_fract_x
_atom_site_fract_y
_atom_site_fract_z
Si Si1 0.000000 0.349717 0.000000
Si Si2 0.692702 0.627891 0.410012
Si Si3 0.750000 0.750000 0.543871
Si Si4 0.569987 0.329300 0.157115
Si Si5 0.175121 0.548657 0.371476
O O1 0.084951 0.390082 0.070622
O O2 0.969913 0.313292 0.163742
O O3 0.750000 0.617941 0.250000
O O4 0.693611 0.700442 0.440364
O O5 0.750019 0.593260 0.544095
O O6 0.668114 0.791957 0.627285
O O7 0.596199 0.401732 0.177650
O O8 0.500000 0.323228 0.000000
O O9 0.137632 0.500000 0.500000
O O10 0.250000 0.516531 0.250000
#
# Coordination Sequence:
#
# PCOD9328584 Si02
#       5
#     8  16   8  16  16
#     4  12  24  44  75 112 150 200 275 322 402 476
#     4  11  24  45  72 107 150 204 262 324 402 477
#     4  10  25  47  70 106 164 204 248 327 395 468
#     4  11  26  49  77 113 160 206 267 335 399 483
#     4  11  23  47  74 103 150 206 257 332 408 468
#
# _framework density 24.927166
#
# number of rings (size 3 to 8) (size 9 to 14) (size 15 to 20)
#    0.000    1.000    2.500    4.125    1.750    2.500 
#    0.000    1.875    0.000    0.000    0.000    0.000 
#    0.000    0.000    0.000    0.000    0.000    0.000 
#
# Total GULP energy -89248.791532 kJ/mol
# GULP energy per Si atom -5578.049471 kJ/mol
# Density = 2.487043 g / cm^3
# Si number density = 24.927166 Si / 1000 Ang^3
#
#
#
# Elastic Constant Matrix: (Units=GPa)
#
#
# Indices 1 2 3 4 5 6 
#
# 1 149.8929 13.3035 79.8894 0.0000 0.0000 0.0000
# 2 13.3035 123.7675 29.0070 0.0000 0.0000 0.0000
# 3 79.8894 29.0070 157.6889 0.0000 0.0000 0.0000
# 4 0.0000 0.0000 0.0000 38.1672 0.0000 0.0000
# 5 0.0000 0.0000 0.0000 0.0000 51.1845 0.0000
# 6 0.0000 0.0000 0.0000 0.0000 0.0000 29.1198
#
#
#
# Elastic Compliance Matrix: (Units=1/GPa)
#
#
# Indices 1 2 3 4 5 6 
#
# 1 0.009141 0.000107 -0.004651 0.000000 0.000000 0.000000
# 2 0.000107 0.008445 -0.001608 0.000000 0.000000 0.000000
# 3 -0.004651 -0.001608 0.008994 0.000000 0.000000 0.000000
# 4 0.000000 0.000000 0.000000 0.026201 0.000000 0.000000
# 5 0.000000 0.000000 0.000000 0.000000 0.019537 0.000000
# 6 0.000000 0.000000 0.000000 0.000000 0.000000 0.034341
#
#
# Mechanical properties :
#
#
# Convention : Reuss Voigt Hill
#
# Bulk Modulus (GPa) = 70.04323 75.08324 72.56324
# Shear Modulus (GPa) = 40.41425 44.30425 42.35925
#
# Velocity S-wave (km/s) = 4.03090 4.22043 4.12675
# Velocity P-wave (km/s) = 7.05864 7.34410 7.20278
#
# Compressibility (1/GPa) = 0.01427690
#
# Stress axis : x y z
#
# Youngs Moduli (GPa) = 109.40244 118.41392 111.19141
#
# Poissons Ratio (x) = -0.01272 0.51711
# Poissons Ratio (y) = -0.01176 0.17878
# Poissons Ratio (z) = 0.50879 0.19040
#
# Static dielectric constant tensor:
#      x y z
#    x 1.951820 0.000000 0.000000 
#    y 0.000000 1.994110 0.000000 
#    z 0.000000 0.000000 2.072280 
# 
# From -- ./inp_files/10040.got.cif
#   From: 2010.05.17/outbox.cif.g08.bks.cpg/sg22_6_cif.got.tgz:10040.got - 2010.06.03 23:40:54.
