data_PCOD9328398
_publ_section_title
;
Structure prediction by ZEFSAII (Michael W. Deem and Ramdas Pophale) SiO2 
 PCOD9328398
Probable space group: F 2 2 2
;
_chemical_formula_sum "Si O2"
_cell_formula_units_Z 92
_cell_length_a 8.753498
_cell_length_b 21.287485
_cell_length_c 23.165931
_cell_angle_alpha 90.000000
_cell_angle_beta 90.000000
_cell_angle_gamma 90.000000
_cell_volume 4316.738595
_symmetry_space_group_name_H-M "F 2 2 2"
_symmetry_group_IT_number 22
_symmetry_cell_setting 'orthorhombic'
loop_
_space_group_symop_operation_xyz
x,y,z
-x,-y,z
x,-y,-z
-x,y,-z
x,1/2+y,1/2+z
-x,1/2-y,1/2+z
x,1/2-y,1/2-z
-x,1/2+y,1/2-z
1/2+x,y,1/2+z
1/2-x,-y,1/2+z
1/2+x,-y,1/2-z
1/2-x,y,1/2-z
1/2+x,1/2+y,z
1/2-x,1/2-y,z
1/2+x,1/2-y,-z
1/2-x,1/2+y,-z
loop_
_atom_site_type_symbol
_atom_site_label
_atom_site_fract_x
_atom_site_fract_y
_atom_site_fract_z
Si Si1 0.766228 0.427910 0.919197
Si Si2 0.694341 0.160354 0.185613
Si Si3 0.500000 0.401082 0.000000
Si Si4 0.180380 0.011365 0.688463
Si Si5 0.121777 0.292502 0.575837
Si Si6 0.500000 0.500000 0.500000
Si Si7 0.117934 0.794859 0.629319
O O1 0.750691 0.469499 0.862069
O O2 0.806953 0.356599 0.899863
O O3 0.615722 0.434917 0.957721
O O4 0.900871 0.456077 0.958229
O O5 0.750000 0.176238 0.250000
O O6 0.808810 0.188981 0.138203
O O7 0.520495 0.181947 0.171109
O O8 0.704022 0.085268 0.178853
O O9 0.597067 0.355003 0.040602
O O10 0.250000 0.993643 0.750000
O O11 0.000000 0.000000 0.689050
O O12 0.250000 0.250000 0.546304
O O13 0.971324 0.250522 0.584335
O O14 0.250000 0.750000 0.655442
#
# Coordination Sequence:
#
# PCOD9328398 Si02
#       7
#    16  16   8  16  16   4  16
#     4  12  27  48  72 111 143 193 244 300 376 431
#     4  10  23  47  74 101 145 193 247 299 370 431
#     4  12  28  42  68 106 151 177 242 296 358 442
#     4  11  24  49  77 103 140 192 245 306 360 433
#     4  10  25  42  67 102 140 196 230 288 361 436
#     4  12  28  48  80  96 154 194 240 316 364 446
#     4  11  22  46  72 104 146 186 244 298 364 440
#
# _framework density 21.312386
#
# number of rings (size 3 to 8) (size 9 to 14) (size 15 to 20)
#    0.000    1.043    4.348    0.000    9.739    6.261 
#    0.000    3.478    0.000    0.000    0.000    0.000 
#    0.000    0.000    0.000    0.000    0.000    0.000 
#
# Total GULP energy -128642.055425 kJ/mol
# GULP energy per Si atom -5593.132845 kJ/mol
# Density = 2.126388 g / cm^3
# Si number density = 21.312386 Si / 1000 Ang^3
#
#
#
# Elastic Constant Matrix: (Units=GPa)
#
#
# Indices 1 2 3 4 5 6 
#
# 1 113.1525 53.5794 70.2678 0.0000 0.0000 0.0000
# 2 53.5794 127.4484 74.4749 0.0000 0.0000 0.0000
# 3 70.2678 74.4749 149.7399 0.0000 0.0000 0.0000
# 4 0.0000 0.0000 0.0000 -119.3174 0.0000 0.0000
# 5 0.0000 0.0000 0.0000 0.0000 3637.7546 0.0000
# 6 0.0000 0.0000 0.0000 0.0000 0.0000 53.0520
#
#
#
# Elastic Compliance Matrix: (Units=1/GPa)
#
#
# Indices 1 2 3 4 5 6 
#
# 1 0.013099 -0.002700 -0.004805 0.000000 0.000000 0.000000
# 2 -0.002700 0.011617 -0.004511 0.000000 0.000000 0.000000
# 3 -0.004805 -0.004511 0.011177 0.000000 0.000000 0.000000
# 4 0.000000 0.000000 0.000000 -0.008381 0.000000 0.000000
# 5 0.000000 0.000000 0.000000 0.000000 0.000275 0.000000
# 6 0.000000 0.000000 0.000000 0.000000 0.000000 0.018849
#
#
# Mechanical properties :
#
#
# Convention : Reuss Voigt Hill
#
# Bulk Modulus (GPa) = 84.29653 87.44278 85.86965
# Shear Modulus (GPa) = 67.00479 727.09908 397.05193
#
# Velocity S-wave (km/s) = 5.61316 18.49063 13.66402
# Velocity P-wave (km/s) = 9.03598 22.29326 17.00938
#
# Compressibility (1/GPa) = 0.01186288
#
# Stress axis : x y z
#
# Youngs Moduli (GPa) = 76.33881 86.07818 89.47305
#
# Poissons Ratio (x) = 0.23237 0.42987
# Poissons Ratio (y) = 0.20608 0.40363
# Poissons Ratio (z) = 0.36677 0.38832
#
# Static dielectric constant tensor:
#      x y z
#    x 1.773030 0.000000 0.000000 
#    y 0.000000 1.797040 0.000000 
#    z 0.000000 0.000000 1.751010 
# 
# From -- ./inp_files/47303.got.cif
#   From: 2010.05.17/outbox.cif.g08.bks.cpg/sg22_24_cif.got.tgz:47303.got - 2010.06.03 23:40:54.
