data_PCOD9328898
_publ_section_title
;
Structure prediction by ZEFSAII (Michael W. Deem and Ramdas Pophale) SiO2 
 PCOD9328898
Probable space group: F 2 2 2
;
_chemical_formula_sum "Si O2"
_cell_formula_units_Z 80
_cell_length_a 10.827164
_cell_length_b 10.827173
_cell_length_c 34.478037
_cell_angle_alpha 90.000000
_cell_angle_beta 90.000000
_cell_angle_gamma 90.000000
_cell_volume 4041.776762
_symmetry_space_group_name_H-M "F 2 2 2"
_symmetry_group_IT_number 22
_symmetry_cell_setting 'orthorhombic'
loop_
_space_group_symop_operation_xyz
x,y,z
-x,-y,z
x,-y,-z
-x,y,-z
x,1/2+y,1/2+z
-x,1/2-y,1/2+z
x,1/2-y,1/2-z
-x,1/2+y,1/2-z
1/2+x,y,1/2+z
1/2-x,-y,1/2+z
1/2+x,-y,1/2-z
1/2-x,y,1/2-z
1/2+x,1/2+y,z
1/2-x,1/2-y,z
1/2+x,1/2-y,-z
1/2-x,1/2+y,-z
loop_
_atom_site_type_symbol
_atom_site_label
_atom_site_fract_x
_atom_site_fract_y
_atom_site_fract_z
Si Si1 0.605969 0.105969 0.189011
Si Si2 0.542914 0.750000 0.250000
Si Si3 0.603468 0.603468 0.601611
Si Si4 0.994326 0.296492 0.542187
Si Si5 0.750000 0.042914 0.750000
Si Si6 0.203508 0.505674 0.542187
O O1 0.543727 0.215310 0.213792
O O2 0.640327 0.140327 0.145200
O O3 0.500000 0.000000 0.187275
O O4 0.715310 0.043727 0.213792
O O5 0.633455 0.866545 0.257770
O O6 0.500000 0.500000 0.605245
O O7 0.542025 0.712272 0.576725
O O8 0.712272 0.542025 0.576725
O O9 0.093539 0.406461 0.538175
O O10 0.000000 0.231720 0.500000
O O11 0.862226 0.362226 0.548892
O O12 0.268280 0.500000 0.500000
#
# Coordination Sequence:
#
# PCOD9328898 Si02
#       6
#    16   8  16  16   8  16
#     4   9  20  38  56  86 117 147 197 236 291 365
#     4   9  18  37  62  80 110 157 192 237 294 350
#     4  11  23  35  57  91 123 149 191 255 300 358
#     4   9  20  39  58  78 112 159 203 241 291 351
#     4   9  18  37  62  80 110 157 192 237 294 350
#     4   9  20  39  58  78 112 159 203 241 291 351
#
# _framework density 19.793274
#
# number of rings (size 3 to 8) (size 9 to 14) (size 15 to 20)
#    0.000    2.600    0.000    1.800    2.800    2.800 
#    7.200    4.000    0.000    0.000    0.000    0.000 
#    0.000    0.000    0.000    0.000    0.000    0.000 
#
# Total GULP energy -111571.621203 kJ/mol
# GULP energy per Si atom -5578.581060 kJ/mol
# Density = 1.974822 g / cm^3
# Si number density = 19.793274 Si / 1000 Ang^3
#
#
#
# Elastic Constant Matrix: (Units=GPa)
#
#
# Indices 1 2 3 4 5 6 
#
# 1 78.2749 33.1912 71.7749 0.0000 0.0000 0.0000
# 2 33.1912 78.2751 71.7750 0.0000 0.0000 0.0000
# 3 71.7749 71.7750 225.4619 0.0000 0.0000 0.0000
# 4 0.0000 0.0000 0.0000 64.8881 0.0000 0.0000
# 5 0.0000 0.0000 0.0000 0.0000 64.8863 0.0000
# 6 0.0000 0.0000 0.0000 0.0000 0.0000 26.8435
#
#
#
# Elastic Compliance Matrix: (Units=1/GPa)
#
#
# Indices 1 2 3 4 5 6 
#
# 1 0.018693 -0.003488 -0.004840 0.000000 0.000000 0.000000
# 2 -0.003488 0.018693 -0.004840 0.000000 0.000000 0.000000
# 3 -0.004840 -0.004840 0.007517 0.000000 0.000000 0.000000
# 4 0.000000 0.000000 0.000000 0.015411 0.000000 0.000000
# 5 0.000000 0.000000 0.000000 0.000000 0.015412 0.000000
# 6 0.000000 0.000000 0.000000 0.000000 0.000000 0.037253
#
#
# Mechanical properties :
#
#
# Convention : Reuss Voigt Hill
#
# Bulk Modulus (GPa) = 53.86347 81.72156 67.79252
# Shear Modulus (GPa) = 34.36307 45.00831 39.68569
#
# Velocity S-wave (km/s) = 4.17117 4.77374 4.48259
# Velocity P-wave (km/s) = 7.10425 8.47124 7.81768
#
# Compressibility (1/GPa) = 0.01856546
#
# Stress axis : x y z
#
# Youngs Moduli (GPa) = 53.49590 53.49612 133.02761
#
# Poissons Ratio (x) = 0.18659 0.64392
# Poissons Ratio (y) = 0.18659 0.64392
# Poissons Ratio (z) = 0.25895 0.25895
#
# Static dielectric constant tensor:
#      x y z
#    x 1.685340 0.000000 0.000000 
#    y 0.000000 1.685340 0.000000 
#    z 0.000000 0.000000 1.710700 
# 
# From -- ./inp_files/18336.got.cif
#   From: 2010.05.17/outbox.cif.g08.bks.cpg/sg22_10_cif.got.tgz:18336.got - 2010.06.03 23:40:54.
