data_PCOD9328760
_publ_section_title
;
Structure prediction by ZEFSAII (Michael W. Deem and Ramdas Pophale) SiO2 
 PCOD9328760
Probable space group: F 2 2 2
;
_chemical_formula_sum "Si O2"
_cell_formula_units_Z 80
_cell_length_a 24.840243
_cell_length_b 25.659605
_cell_length_c 6.295305
_cell_angle_alpha 90.000000
_cell_angle_beta 90.000000
_cell_angle_gamma 90.000000
_cell_volume 4012.569638
_symmetry_space_group_name_H-M "F 2 2 2"
_symmetry_group_IT_number 22
_symmetry_cell_setting 'orthorhombic'
loop_
_space_group_symop_operation_xyz
x,y,z
-x,-y,z
x,-y,-z
-x,y,-z
x,1/2+y,1/2+z
-x,1/2-y,1/2+z
x,1/2-y,1/2-z
-x,1/2+y,1/2-z
1/2+x,y,1/2+z
1/2-x,-y,1/2+z
1/2+x,-y,1/2-z
1/2-x,y,1/2-z
1/2+x,1/2+y,z
1/2-x,1/2-y,z
1/2+x,1/2-y,-z
1/2-x,1/2+y,-z
loop_
_atom_site_type_symbol
_atom_site_label
_atom_site_fract_x
_atom_site_fract_y
_atom_site_fract_z
Si Si1 0.783253 0.000000 0.500000
Si Si2 0.561344 0.101861 0.970818
Si Si3 0.556709 0.695347 0.128839
Si Si4 0.250000 0.097413 0.750000
Si Si5 0.369284 0.538550 0.824413
Si Si6 0.136293 0.865376 0.137044
O O1 0.756236 0.944292 0.555713
O O2 0.819063 0.988465 0.291128
O O3 0.559615 0.150873 0.809174
O O4 0.591154 0.054332 0.860807
O O5 0.500000 0.087505 0.000000
O O6 0.594419 0.116301 0.181785
O O7 0.559345 0.750000 0.250000
O O8 0.500000 0.691559 0.000000
O O9 0.607144 0.684320 0.970862
O O10 0.196468 0.132829 0.766244
O O11 0.392360 0.500000 0.000000
O O12 0.358559 0.591559 0.951730
#
# Coordination Sequence:
#
# PCOD9328760 Si02
#       6
#     8  16  16   8  16  16
#     4  12  22  40  65  98 129 186 258 278 304 400
#     4  11  22  42  66  94 139 174 221 290 348 409
#     4  11  24  42  74 106 127 164 224 286 353 422
#     4  12  22  40  68  93 136 190 229 282 330 388
#     4  11  21  40  60  94 134 178 237 281 330 389
#     4  11  24  41  64 102 134 174 226 284 343 399
#
# _framework density 19.937346999999999
#
# number of rings (size 3 to 8) (size 9 to 14) (size 15 to 20)
#    0.000    0.800    6.000    1.800    0.000    0.000 
#    0.000    7.500    0.000    3.600    0.000    0.000 
#    0.000    0.000    0.000    0.000    0.000    0.000 
#
# Total GULP energy -111604.922703 kJ/mol
# GULP energy per Si atom -5580.246135 kJ/mol
# Density = 1.989197 g / cm^3
# Si number density = 19.937347 Si / 1000 Ang^3
#
#
#
# Elastic Constant Matrix: (Units=GPa)
#
#
# Indices 1 2 3 4 5 6 
#
# 1 143.8926 30.7479 36.9870 -0.0068 -0.0071 -0.1256
# 2 30.7479 71.6408 22.3600 -0.0061 0.0130 -0.0280
# 3 36.9870 22.3600 94.6282 -0.0117 -0.0078 -0.1374
# 4 -0.0068 -0.0061 -0.0117 45.9911 0.0052 -0.0041
# 5 -0.0071 0.0130 -0.0078 0.0052 29.4981 0.1428
# 6 -0.1256 -0.0280 -0.1374 -0.0041 0.1428 29.5013
#
#
#
# Elastic Compliance Matrix: (Units=1/GPa)
#
#
# Indices 1 2 3 4 5 6 
#
# 1 0.008188 -0.002715 -0.002559 0.000000 0.000002 0.000020
# 2 -0.002715 0.015971 -0.002712 0.000001 -0.000008 -0.000009
# 3 -0.002559 -0.002712 0.012209 0.000002 0.000004 0.000043
# 4 0.000000 0.000001 0.000002 0.021743 -0.000004 0.000003
# 5 0.000002 -0.000008 0.000004 -0.000004 0.033901 -0.000164
# 6 0.000020 -0.000009 0.000043 0.000003 -0.000164 0.033898
#
#
# Mechanical properties :
#
#
# Convention : Reuss Voigt Hill
#
# Bulk Modulus (GPa) = 49.03402 54.48350 51.75876
# Shear Modulus (GPa) = 33.62923 35.66922 34.64922
#
# Velocity S-wave (km/s) = 4.11146 4.23432 4.17334
# Velocity P-wave (km/s) = 6.86922 7.16189 7.01708
#
# Compressibility (1/GPa) = 0.02039400
#
# Stress axis : x y z
#
# Youngs Moduli (GPa) = 122.13620 62.61520 81.90875
#
# Poissons Ratio (x) = 0.17003 0.20957
# Poissons Ratio (y) = 0.33166 0.22217
# Poissons Ratio (z) = 0.31249 0.16983
#
# Static dielectric constant tensor:
#      x y z
#    x 1.770410 -0.000010 0.000680 
#    y -0.000010 1.688570 -0.000120 
#    z 0.000680 -0.000120 1.460940 
# 
# From -- ./inp_files/5616.got.cif
#   From: 2010.05.17/outbox.cif.g08.bks.cpg/sg22_3_cif.got.tgz:5616.got - 2010.06.03 23:40:54.
