data_PCOD9328614
_publ_section_title
;
Structure prediction by ZEFSAII (Michael W. Deem and Ramdas Pophale) SiO2 
 PCOD9328614
Probable space group: F 2 2 2
;
_chemical_formula_sum "Si O2"
_cell_formula_units_Z 60
_cell_length_a 18.258213
_cell_length_b 21.619513
_cell_length_c 6.144364
_cell_angle_alpha 90.000000
_cell_angle_beta 90.000000
_cell_angle_gamma 90.000000
_cell_volume 2425.387372
_symmetry_space_group_name_H-M "F 2 2 2"
_symmetry_group_IT_number 22
_symmetry_cell_setting 'orthorhombic'
loop_
_space_group_symop_operation_xyz
x,y,z
-x,-y,z
x,-y,-z
-x,y,-z
x,1/2+y,1/2+z
-x,1/2-y,1/2+z
x,1/2-y,1/2-z
-x,1/2+y,1/2-z
1/2+x,y,1/2+z
1/2-x,-y,1/2+z
1/2+x,-y,1/2-z
1/2-x,y,1/2-z
1/2+x,1/2+y,z
1/2-x,1/2-y,z
1/2+x,1/2-y,-z
1/2-x,1/2+y,-z
loop_
_atom_site_type_symbol
_atom_site_label
_atom_site_fract_x
_atom_site_fract_y
_atom_site_fract_z
Si Si1 0.864906 0.500000 0.000000
Si Si2 0.896056 0.694542 0.901742
Si Si3 0.426119 0.922359 0.368541
Si Si4 0.668636 0.377445 0.739469
Si Si5 0.250000 0.250000 0.750000
O O1 0.909457 0.480201 0.213938
O O2 0.825470 0.563240 0.075417
O O3 0.927884 0.750000 0.750000
O O4 0.931135 0.634988 0.794036
O O5 0.808880 0.705297 0.863480
O O6 0.890124 0.674117 0.155386
O O7 0.500000 0.928787 0.500000
O O8 0.360643 0.904084 0.532744
O O9 0.750000 0.351051 0.750000
#
# Coordination Sequence:
#
# PCOD9328614 Si02
#       5
#     8  16  16  16   4
#     4  10  26  43  70  98 151 180 238 316 369 454
#     4   9  21  42  64 100 144 183 238 305 364 438
#     4  11  25  46  69 106 141 198 251 304 385 452
#     4  11  24  41  70 103 137 184 249 305 372 446
#     4   8  16  40  66  96 144 190 234 304 386 430
#
# _framework density 24.738318
#
# number of rings (size 3 to 8) (size 9 to 14) (size 15 to 20)
#    0.800    1.067    0.000    2.400    3.733   10.667 
#    4.800    0.000    0.000    0.000    0.000    0.000 
#    0.000    0.000    0.000    0.000    0.000    0.000 
#
# Total GULP energy -83547.144224 kJ/mol
# GULP energy per Si atom -5569.809615 kJ/mol
# Density = 2.468201 g / cm^3
# Si number density = 24.738318 Si / 1000 Ang^3
#
#
#
# Elastic Constant Matrix: (Units=GPa)
#
#
# Indices 1 2 3 4 5 6 
#
# 1 87.7990 0.4376 41.0089 0.0027 -0.0022 -0.0009
# 2 0.4376 109.1640 14.7041 0.0031 -0.0013 -0.0009
# 3 41.0089 14.7041 115.5190 0.0093 -0.0089 -0.0019
# 4 0.0027 0.0031 0.0093 1.6785 -0.0044 -0.0026
# 5 -0.0022 -0.0013 -0.0089 -0.0044 27.6466 0.0011
# 6 -0.0009 -0.0009 -0.0019 -0.0026 0.0011 13.4408
#
#
#
# Elastic Compliance Matrix: (Units=1/GPa)
#
#
# Indices 1 2 3 4 5 6 
#
# 1 0.013693 0.000610 -0.004939 0.000004 0.000000 0.000000
# 2 0.000610 0.009348 -0.001406 -0.000011 0.000000 0.000000
# 3 -0.004939 -0.001406 0.010589 -0.000048 0.000003 0.000001
# 4 0.000004 -0.000011 -0.000048 0.595760 0.000094 0.000113
# 5 0.000000 0.000000 0.000003 0.000094 0.036171 -0.000003
# 6 0.000000 0.000000 0.000001 0.000113 -0.000003 0.074400
#
#
# Mechanical properties :
#
#
# Convention : Reuss Voigt Hill
#
# Bulk Modulus (GPa) = 45.12651 47.19813 46.16232
# Shear Modulus (GPa) = 6.58920 25.64194 16.11557
#
# Velocity S-wave (km/s) = 1.63381 3.22301 2.55510
# Velocity P-wave (km/s) = 4.67336 5.74202 5.23503
#
# Compressibility (1/GPa) = 0.02215993
#
# Stress axis : x y z
#
# Youngs Moduli (GPa) = 73.02782 106.98008 94.43870
#
# Poissons Ratio (x) = -0.06530 0.46641
# Poissons Ratio (y) = -0.04457 0.13283
# Poissons Ratio (z) = 0.36067 0.15047
#
# Static dielectric constant tensor:
#      x y z
#    x 1.967880 0.000000 0.000000 
#    y 0.000000 2.046280 -0.000010 
#    z 0.000000 -0.000010 2.084990 
# 
# From -- ./inp_files/3559.got.cif
#   From: 2010.05.17/outbox.cif.g08.bks.cpg/sg22_2_cif.got.tgz:3559.got - 2010.06.03 23:40:54.
