data_PCOD9328300
_publ_section_title
;
Structure prediction by ZEFSAII (Michael W. Deem and Ramdas Pophale) SiO2 
 PCOD9328300
Probable space group: F 2 2 2
;
_chemical_formula_sum "Si O2"
_cell_formula_units_Z 96
_cell_length_a 13.827987
_cell_length_b 19.774840
_cell_length_c 14.453241
_cell_angle_alpha 90.000000
_cell_angle_beta 90.000000
_cell_angle_gamma 90.000000
_cell_volume 3952.184269
_symmetry_space_group_name_H-M "F 2 2 2"
_symmetry_group_IT_number 22
_symmetry_cell_setting 'orthorhombic'
loop_
_space_group_symop_operation_xyz
x,y,z
-x,-y,z
x,-y,-z
-x,y,-z
x,1/2+y,1/2+z
-x,1/2-y,1/2+z
x,1/2-y,1/2-z
-x,1/2+y,1/2-z
1/2+x,y,1/2+z
1/2-x,-y,1/2+z
1/2+x,-y,1/2-z
1/2-x,y,1/2-z
1/2+x,1/2+y,z
1/2-x,1/2-y,z
1/2+x,1/2-y,-z
1/2-x,1/2+y,-z
loop_
_atom_site_type_symbol
_atom_site_label
_atom_site_fract_x
_atom_site_fract_y
_atom_site_fract_z
Si Si1 0.091511 0.645798 0.063072
Si Si2 0.151642 0.839871 0.807441
Si Si3 0.253588 0.566416 0.954940
Si Si4 0.955145 0.778933 0.849762
Si Si5 0.360556 0.895514 0.267064
Si Si6 0.400186 0.530883 0.697817
O O1 0.083116 0.727300 0.073721
O O2 0.089277 0.621606 0.168882
O O3 0.187947 0.613384 0.021311
O O4 0.000000 0.624789 0.000000
O O5 0.250000 0.821215 0.750000
O O6 0.181654 0.882431 0.897026
O O7 0.099368 0.894761 0.741393
O O8 0.071879 0.785362 0.840009
O O9 0.177104 0.533719 0.883004
O O10 0.300821 0.500000 0.000000
O O11 0.921683 0.750000 0.750000
O O12 0.908536 0.853360 0.849629
O O13 0.250000 0.876110 0.250000
O O14 0.368298 0.976330 0.275533
O O15 0.500000 0.500000 0.663014
#
# Coordination Sequence:
#
# PCOD9328300 Si02
#       6
#    16  16  16  16  16  16
#     4  11  25  44  64  99 139 180 230 289 350 413
#     4  10  23  42  68 102 133 186 236 285 352 424
#     4  11  23  39  68 106 137 169 230 304 360 403
#     4  10  24  45  65  93 141 186 232 272 342 435
#     4  11  22  43  73 102 136 182 235 293 353 428
#     4  11  20  38  74 103 134 176 232 301 361 420
#
# _framework density 24.290364
#
# number of rings (size 3 to 8) (size 9 to 14) (size 15 to 20)
#    0.000    1.333    3.333    2.500    7.000    3.333 
#    6.000    0.000    0.000    0.000    0.000    0.000 
#    0.000    0.000    0.000    0.000    0.000    0.000 
#
# Total GULP energy -134101.056874 kJ/mol
# GULP energy per Si atom -5587.544036 kJ/mol
# Density = 2.423508 g / cm^3
# Si number density = 24.290364 Si / 1000 Ang^3
#
#
#
# Elastic Constant Matrix: (Units=GPa)
#
#
# Indices 1 2 3 4 5 6 
#
# 1 71.4684 25.6631 0.2015 0.0000 0.0000 0.0000
# 2 25.6631 111.6672 22.9555 0.0000 0.0000 0.0000
# 3 0.2015 22.9555 56.7755 0.0000 0.0000 0.0000
# 4 0.0000 0.0000 0.0000 35.6192 0.0000 0.0000
# 5 0.0000 0.0000 0.0000 0.0000 23.0419 0.0000
# 6 0.0000 0.0000 0.0000 0.0000 0.0000 27.6808
#
#
#
# Elastic Compliance Matrix: (Units=1/GPa)
#
#
# Indices 1 2 3 4 5 6 
#
# 1 0.015367 -0.003839 0.001498 0.000000 0.000000 0.000000
# 2 -0.003839 0.010726 -0.004323 0.000000 0.000000 0.000000
# 3 0.001498 -0.004323 0.019356 0.000000 0.000000 0.000000
# 4 0.000000 0.000000 0.000000 0.028075 0.000000 0.000000
# 5 0.000000 0.000000 0.000000 0.000000 0.043399 0.000000
# 6 0.000000 0.000000 0.000000 0.000000 0.000000 0.036126
#
#
# Mechanical properties :
#
#
# Convention : Reuss Voigt Hill
#
# Bulk Modulus (GPa) = 31.13409 37.50570 34.31990
# Shear Modulus (GPa) = 28.23505 30.00779 29.12142
#
# Velocity S-wave (km/s) = 3.41309 3.51861 3.46625
# Velocity P-wave (km/s) = 5.32706 5.65522 5.49359
#
# Compressibility (1/GPa) = 0.03211913
#
# Stress axis : x y z
#
# Youngs Moduli (GPa) = 65.07598 93.22898 51.66387
#
# Poissons Ratio (x) = 0.35795 -0.07738
# Poissons Ratio (y) = 0.24986 0.22335
# Poissons Ratio (z) = -0.09747 0.40305
#
# Static dielectric constant tensor:
#      x y z
#    x 1.971250 0.000000 0.000000 
#    y 0.000000 2.102780 0.000000 
#    z 0.000000 0.000000 1.935810 
# 
# From -- ./inp_files/29375.got.cif
#   From: 2010.05.17/outbox.cif.g08.bks.cpg/sg22_15_cif.got.tgz:29375.got - 2010.06.03 23:40:54.
