data_PCOD9328741
_publ_section_title
;
Structure prediction by ZEFSAII (Michael W. Deem and Ramdas Pophale) SiO2 
 PCOD9328741
Probable space group: F 2 2 2
;
_chemical_formula_sum "Si O2"
_cell_formula_units_Z 104
_cell_length_a 29.070710
_cell_length_b 8.304135
_cell_length_c 22.931931
_cell_angle_alpha 90.000000
_cell_angle_beta 90.000000
_cell_angle_gamma 90.000000
_cell_volume 5535.930969
_symmetry_space_group_name_H-M "F 2 2 2"
_symmetry_group_IT_number 22
_symmetry_cell_setting 'orthorhombic'
loop_
_space_group_symop_operation_xyz
x,y,z
-x,-y,z
x,-y,-z
-x,y,-z
x,1/2+y,1/2+z
-x,1/2-y,1/2+z
x,1/2-y,1/2-z
-x,1/2+y,1/2-z
1/2+x,y,1/2+z
1/2-x,-y,1/2+z
1/2+x,-y,1/2-z
1/2-x,y,1/2-z
1/2+x,1/2+y,z
1/2-x,1/2-y,z
1/2+x,1/2-y,-z
1/2-x,1/2+y,-z
loop_
_atom_site_type_symbol
_atom_site_label
_atom_site_fract_x
_atom_site_fract_y
_atom_site_fract_z
Si Si1 0.651121 0.949452 0.636479
Si Si2 0.050065 0.995157 0.899103
Si Si3 0.315382 0.918072 0.115430
Si Si4 0.130716 0.500000 0.000000
Si Si5 0.270998 0.929518 0.564868
Si Si6 0.550310 0.751788 0.004515
Si Si7 0.197454 0.945629 0.255891
O O1 0.596313 0.963001 0.634472
O O2 0.668050 0.767732 0.619811
O O3 0.668629 0.998252 0.700289
O O4 0.677688 0.062442 0.590430
O O5 0.047902 0.119215 0.953415
O O6 0.000000 0.000000 0.868912
O O7 0.054830 0.825203 0.931628
O O8 0.339391 0.998208 0.059077
O O9 0.322895 0.986389 0.180634
O O10 0.261439 0.951798 0.103171
O O11 0.095775 0.647479 0.005336
O O12 0.250000 0.750000 0.566194
O O13 0.270892 0.000000 0.500000
O O14 0.500000 0.831176 0.000000
O O15 0.198763 0.750000 0.250000
O O16 0.250000 0.003472 0.250000
#
# Coordination Sequence:
#
# PCOD9328741 Si02
#       7
#    16  16  16   8  16  16  16
#     4  11  21  38  64  79 113 161 195 242 293 337
#     4   9  19  35  56  85 110 142 196 235 283 353
#     4  11  22  37  56  89 116 148 196 244 287 357
#     4  12  21  32  56  86 120 144 183 238 306 348
#     4  12  26  37  54  85 122 155 188 235 292 354
#     4   9  19  35  54  80 114 149 185 234 289 354
#     4   9  18  36  58  81 111 154 205 237 276 351
#
# _framework density 18.786360999999999
#
# number of rings (size 3 to 8) (size 9 to 14) (size 15 to 20)
#    0.000    1.692    3.846    2.538    4.308    0.000 
#    0.000    1.538    0.000    1.846    0.000    0.000 
#    0.000    0.000    0.000    0.000    0.000    0.000 
#
# Total GULP energy -144949.997814 kJ/mol
# GULP energy per Si atom -5574.999916 kJ/mol
# Density = 1.874360 g / cm^3
# Si number density = 18.786361 Si / 1000 Ang^3
#
#
#
# Elastic Constant Matrix: (Units=GPa)
#
#
# Indices 1 2 3 4 5 6 
#
# 1 144.1055 22.9644 45.1611 0.0000 0.0000 0.0000
# 2 22.9644 43.2980 14.5760 0.0000 0.0000 0.0000
# 3 45.1611 14.5760 119.4268 0.0000 0.0000 0.0000
# 4 0.0000 0.0000 0.0000 11.0334 0.0000 0.0000
# 5 0.0000 0.0000 0.0000 0.0000 21.1552 0.0000
# 6 0.0000 0.0000 0.0000 0.0000 0.0000 25.8820
#
#
#
# Elastic Compliance Matrix: (Units=1/GPa)
#
#
# Indices 1 2 3 4 5 6 
#
# 1 0.008355 -0.003512 -0.002731 0.000000 0.000000 0.000000
# 2 -0.003512 0.025562 -0.001792 0.000000 0.000000 0.000000
# 3 -0.002731 -0.001792 0.009625 0.000000 0.000000 0.000000
# 4 0.000000 0.000000 0.000000 0.090634 0.000000 0.000000
# 5 0.000000 0.000000 0.000000 0.000000 0.047270 0.000000
# 6 0.000000 0.000000 0.000000 0.000000 0.000000 0.038637
#
#
# Mechanical properties :
#
#
# Convention : Reuss Voigt Hill
#
# Bulk Modulus (GPa) = 36.40044 52.47038 44.43541
# Shear Modulus (GPa) = 20.38259 26.55606 23.46932
#
# Velocity S-wave (km/s) = 3.29746 3.76384 3.53834
# Velocity P-wave (km/s) = 5.82372 6.84685 6.35590
#
# Compressibility (1/GPa) = 0.02747219
#
# Stress axis : x y z
#
# Youngs Moduli (GPa) = 119.69168 39.12122 103.90009
#
# Poissons Ratio (x) = 0.13739 0.28372
# Poissons Ratio (y) = 0.42035 0.18616
# Poissons Ratio (z) = 0.32685 0.07009
#
# Static dielectric constant tensor:
#      x y z
#    x 1.670000 0.000000 0.000000 
#    y 0.000000 1.708090 0.000000 
#    z 0.000000 0.000000 1.632390 
# 
# From -- ./inp_files/46019.got.cif
#   From: 2010.05.17/outbox.cif.g08.bks.cpg/sg22_24_cif.got.tgz:46019.got - 2010.06.03 23:40:54.
