data_PCOD9328556
_publ_section_title
;
Structure prediction by ZEFSAII (Michael W. Deem and Ramdas Pophale) SiO2 
 PCOD9328556
Probable space group: F 2 2 2
;
_chemical_formula_sum "Si O2"
_cell_formula_units_Z 60
_cell_length_a 22.529166
_cell_length_b 7.012507
_cell_length_c 18.423034
_cell_angle_alpha 90.000000
_cell_angle_beta 90.000000
_cell_angle_gamma 90.000000
_cell_volume 2910.580239
_symmetry_space_group_name_H-M "F 2 2 2"
_symmetry_group_IT_number 22
_symmetry_cell_setting 'orthorhombic'
loop_
_space_group_symop_operation_xyz
x,y,z
-x,-y,z
x,-y,-z
-x,y,-z
x,1/2+y,1/2+z
-x,1/2-y,1/2+z
x,1/2-y,1/2-z
-x,1/2+y,1/2-z
1/2+x,y,1/2+z
1/2-x,-y,1/2+z
1/2+x,-y,1/2-z
1/2-x,y,1/2-z
1/2+x,1/2+y,z
1/2-x,1/2-y,z
1/2+x,1/2-y,-z
1/2-x,1/2+y,-z
loop_
_atom_site_type_symbol
_atom_site_label
_atom_site_fract_x
_atom_site_fract_y
_atom_site_fract_z
Si Si1 0.807488 0.548280 0.290339
Si Si2 0.906810 0.250000 0.250000
Si Si3 0.000000 0.000000 0.000000
Si Si4 0.050438 0.658257 0.094632
Si Si5 0.654855 0.000000 0.000000
Si Si6 0.250000 0.250000 0.422307
O O1 0.819885 0.750000 0.250000
O O2 0.750000 0.464786 0.250000
O O3 0.863595 0.415041 0.280712
O O4 0.783509 0.598773 0.370052
O O5 0.944496 0.313548 0.180715
O O6 0.036032 0.145242 0.947825
O O7 0.000000 0.500000 0.080171
O O8 0.112044 0.577179 0.063174
O O9 0.698441 0.159190 0.969448
#
# Coordination Sequence:
#
# PCOD9328556 Si02
#       6
#    16   8   4  16   8   8
#     4   9  20  43  64 105 149 180 229 294 355 433
#     4  12  27  40  84 100 142 193 242 302 366 426
#     4  12  26  50  80  94 150 198 238 304 378 402
#     4  12  28  52  71 111 144 192 252 305 355 445
#     4  12  25  47  72 106 156 186 244 300 360 444
#     4  10  25  40  70 107 148 192 232 292 366 437
#
# _framework density 20.614443999999999
#
# number of rings (size 3 to 8) (size 9 to 14) (size 15 to 20)
#    0.000    1.333    2.667    3.600    9.333    2.133 
#    0.000    0.000    0.000    0.000    0.000    0.000 
#    0.000    0.000    0.000    0.000    0.000    0.000 
#
# Total GULP energy -83841.073049 kJ/mol
# GULP energy per Si atom -5589.404870 kJ/mol
# Density = 2.056752 g / cm^3
# Si number density = 20.614444 Si / 1000 Ang^3
#
#
#
# Elastic Constant Matrix: (Units=GPa)
#
#
# Indices 1 2 3 4 5 6 
#
# 1 122.0225 64.5398 64.9282 0.0000 0.0000 0.0000
# 2 64.5398 103.9240 36.2409 0.0000 0.0000 0.0000
# 3 64.9282 36.2409 150.3005 0.0000 0.0000 0.0000
# 4 0.0000 0.0000 0.0000 9.8677 0.0000 0.0000
# 5 0.0000 0.0000 0.0000 0.0000 1.7567 0.0000
# 6 0.0000 0.0000 0.0000 0.0000 0.0000 33.0681
#
#
#
# Elastic Compliance Matrix: (Units=1/GPa)
#
#
# Indices 1 2 3 4 5 6 
#
# 1 0.014520 -0.007457 -0.004475 0.000000 0.000000 0.000000
# 2 -0.007457 0.014336 -0.000235 0.000000 0.000000 0.000000
# 3 -0.004475 -0.000235 0.008643 0.000000 0.000000 0.000000
# 4 0.000000 0.000000 0.000000 0.101340 0.000001 0.000000
# 5 0.000000 0.000000 0.000000 0.000001 0.569252 0.000000
# 6 0.000000 0.000000 0.000000 0.000000 0.000000 0.030241
#
#
# Mechanical properties :
#
#
# Convention : Reuss Voigt Hill
#
# Bulk Modulus (GPa) = 75.95862 78.62942 77.29402
# Shear Modulus (GPa) = 6.51845 22.97438 14.74641
#
# Velocity S-wave (km/s) = 1.78015 3.34200 2.67749
# Velocity P-wave (km/s) = 6.41502 7.28819 6.86550
#
# Compressibility (1/GPa) = 0.01316506
#
# Stress axis : x y z
#
# Youngs Moduli (GPa) = 68.86891 69.75660 115.70054
#
# Poissons Ratio (x) = 0.52019 0.51771
# Poissons Ratio (y) = 0.51357 0.02721
# Poissons Ratio (z) = 0.30816 0.01641
#
# Static dielectric constant tensor:
#      x y z
#    x 1.711030 0.000000 0.000000 
#    y 0.000000 1.763790 0.000000 
#    z 0.000000 0.000000 1.735150 
# 
# From -- ./inp_files/37651.got.cif
#   From: 2010.05.17/outbox.cif.g08.bks.cpg/sg22_19_cif.got.tgz:37651.got - 2010.06.03 23:40:54.
