data_PCOD9328747
_publ_section_title
;
Structure prediction by ZEFSAII (Michael W. Deem and Ramdas Pophale) SiO2 
 PCOD9328747
Probable space group: F 2 2 2
;
_chemical_formula_sum "Si O2"
_cell_formula_units_Z 84
_cell_length_a 23.362560
_cell_length_b 20.699035
_cell_length_c 8.787280
_cell_angle_alpha 90.000000
_cell_angle_beta 90.000000
_cell_angle_gamma 90.000000
_cell_volume 4249.374366
_symmetry_space_group_name_H-M "F 2 2 2"
_symmetry_group_IT_number 22
_symmetry_cell_setting 'orthorhombic'
loop_
_space_group_symop_operation_xyz
x,y,z
-x,-y,z
x,-y,-z
-x,y,-z
x,1/2+y,1/2+z
-x,1/2-y,1/2+z
x,1/2-y,1/2-z
-x,1/2+y,1/2-z
1/2+x,y,1/2+z
1/2-x,-y,1/2+z
1/2+x,-y,1/2-z
1/2-x,y,1/2-z
1/2+x,1/2+y,z
1/2-x,1/2-y,z
1/2+x,1/2-y,-z
1/2-x,1/2+y,-z
loop_
_atom_site_type_symbol
_atom_site_label
_atom_site_fract_x
_atom_site_fract_y
_atom_site_fract_z
Si Si1 0.250000 0.250000 0.750000
Si Si2 0.812329 0.144042 0.719460
Si Si3 0.050013 0.201476 0.880754
Si Si4 0.925551 0.432650 0.830369
Si Si5 0.557174 0.581556 0.692387
Si Si6 0.332555 0.242344 0.492633
O O1 0.294538 0.218044 0.633451
O O2 0.750000 0.113384 0.750000
O O3 0.867784 0.099273 0.727043
O O4 0.820020 0.195847 0.852897
O O5 0.815081 0.185853 0.563259
O O6 0.027563 0.250000 0.750000
O O7 0.078860 0.139011 0.799106
O O8 0.101010 0.239079 0.965783
O O9 0.000000 0.185639 0.000000
O O10 0.926251 0.507390 0.776303
O O11 0.988680 0.409051 0.784533
O O12 0.927665 0.418032 0.012717
#
# Coordination Sequence:
#
# PCOD9328747 Si02
#       6
#     4  16  16  16  16  16
#     4  12  20  42  56  88 124 182 200 246 318 386
#     4  11  21  39  63  93 122 170 214 257 308 379
#     4  12  26  37  60 101 133 163 206 272 327 374
#     4   9  19  38  69  86 122 173 212 254 312 386
#     4   9  20  40  62  94 122 168 210 254 325 381
#     4  11  23  38  60  91 134 167 209 255 322 379
#
# _framework density 19.767617000000001
#
# number of rings (size 3 to 8) (size 9 to 14) (size 15 to 20)
#    0.000    1.524    2.857    4.000    8.000    0.000 
#    0.000    6.667   10.476    0.000    0.000    0.000 
#    0.000    0.000    0.000    0.000    0.000    0.000 
#
# Total GULP energy -116946.872944 kJ/mol
# GULP energy per Si atom -5568.898712 kJ/mol
# Density = 1.972262 g / cm^3
# Si number density = 19.767617 Si / 1000 Ang^3
#
#
#
# Elastic Constant Matrix: (Units=GPa)
#
#
# Indices 1 2 3 4 5 6 
#
# 1 128.3068 41.1166 22.2741 0.0000 0.0000 0.0000
# 2 41.1166 56.8372 29.1688 0.0002 0.0000 0.0000
# 3 22.2741 29.1688 76.0368 0.0008 -0.0002 0.0003
# 4 0.0000 0.0002 0.0008 15.0316 -0.0002 0.0000
# 5 0.0000 0.0000 -0.0002 -0.0002 32.0638 -0.0001
# 6 0.0000 0.0000 0.0003 0.0000 -0.0001 -0.3047
#
#
#
# Elastic Compliance Matrix: (Units=1/GPa)
#
#
# Indices 1 2 3 4 5 6 
#
# 1 0.010148 -0.007241 -0.000195 0.000000 0.000000 -0.000001
# 2 -0.007241 0.027074 -0.008265 0.000000 0.000000 -0.000006
# 3 -0.000195 -0.008265 0.016379 -0.000001 0.000000 0.000014
# 4 0.000000 0.000000 -0.000001 0.066526 0.000000 0.000007
# 5 0.000000 0.000000 0.000000 0.000000 0.031188 -0.000009
# 6 -0.000001 -0.000006 0.000014 0.000007 -0.000009 -3.281903
#
#
# Mechanical properties :
#
#
# Convention : Reuss Voigt Hill
#
# Bulk Modulus (GPa) = 45.04624 49.58888 47.31756
# Shear Modulus (GPa) = -1.61719 20.59957 9.49119
#
# Velocity S-wave (km/s) = -0.90547 3.23164 2.19358
# Velocity P-wave (km/s) = 4.66307 6.25020 5.51404
#
# Compressibility (1/GPa) = 0.02219941
#
# Stress axis : x y z
#
# Youngs Moduli (GPa) = 98.54005 36.93586 61.05345
#
# Poissons Ratio (x) = 0.26746 0.01190
# Poissons Ratio (y) = 0.71355 0.50459
# Poissons Ratio (z) = 0.01921 0.30526
#
# Static dielectric constant tensor:
#      x y z
#    x 1.711920 0.000000 0.000000 
#    y 0.000000 1.728150 0.000000 
#    z 0.000000 0.000000 1.743530 
# 
# From -- ./inp_files/13679.got.cif
#   From: 2010.05.17/outbox.cif.g08.bks.cpg/sg22_7_cif.got.tgz:13679.got - 2010.06.03 23:40:54.
