data_PCOD9328675
_publ_section_title
;
Structure prediction by ZEFSAII (Michael W. Deem and Ramdas Pophale) SiO2 
 PCOD9328675
Probable space group: F 2 2 2
;
_chemical_formula_sum "Si O2"
_cell_formula_units_Z 112
_cell_length_a 24.064123
_cell_length_b 15.516903
_cell_length_c 15.269727
_cell_angle_alpha 90.000000
_cell_angle_beta 90.000000
_cell_angle_gamma 90.000000
_cell_volume 5701.726176
_symmetry_space_group_name_H-M "F 2 2 2"
_symmetry_group_IT_number 22
_symmetry_cell_setting 'orthorhombic'
loop_
_space_group_symop_operation_xyz
x,y,z
-x,-y,z
x,-y,-z
-x,y,-z
x,1/2+y,1/2+z
-x,1/2-y,1/2+z
x,1/2-y,1/2-z
-x,1/2+y,1/2-z
1/2+x,y,1/2+z
1/2-x,-y,1/2+z
1/2+x,-y,1/2-z
1/2-x,y,1/2-z
1/2+x,1/2+y,z
1/2-x,1/2-y,z
1/2+x,1/2-y,-z
1/2-x,1/2+y,-z
loop_
_atom_site_type_symbol
_atom_site_label
_atom_site_fract_x
_atom_site_fract_y
_atom_site_fract_z
Si Si1 0.779654 0.673269 0.343707
Si Si2 0.765720 0.990920 0.601054
Si Si3 0.933908 0.628627 0.005546
Si Si4 0.435617 0.019523 0.331538
Si Si5 0.891619 0.191249 0.921143
Si Si6 0.610736 0.986486 0.860067
Si Si7 0.342747 0.579953 0.067356
O O1 0.750000 0.669953 0.250000
O O2 0.750000 0.750000 0.396302
O O3 0.766568 0.579299 0.378583
O O4 0.843704 0.699465 0.347406
O O5 0.718186 0.918299 0.610793
O O6 0.784118 0.000000 0.500000
O O7 0.822693 0.982326 0.654198
O O8 0.909508 0.601044 0.909810
O O9 0.922531 0.722938 0.047327
O O10 0.904844 0.562459 0.072372
O O11 0.000000 0.614387 0.000000
O O12 0.425866 0.110452 0.382088
O O13 0.419572 0.013881 0.229299
O O14 0.500000 0.000000 0.342865
O O15 0.394020 0.948480 0.372724
O O16 0.858811 0.160090 0.007927
O O17 0.338360 0.500000 0.000000
#
# Coordination Sequence:
#
# PCOD9328675 Si02
#       7
#    16  16  16  16  16  16  16
#     4  11  22  35  57  94 132 155 196 267 319 377
#     4  11  18  37  61  87 120 165 203 250 319 383
#     4  11  24  41  64  89 129 173 217 264 315 392
#     4  11  23  40  66  91 126 167 214 268 318 384
#     4  11  23  40  62  98 125 165 216 261 324 381
#     4  11  23  42  62  92 126 172 217 260 329 383
#     4   9  20  37  59  93 124 159 208 260 315 386
#
# _framework density 19.643173999999998
#
# number of rings (size 3 to 8) (size 9 to 14) (size 15 to 20)
#    0.000    1.286    5.714    3.429    2.000    3.714 
#    0.000    0.714    0.000    0.000    0.000    2.000 
#    0.000    0.000    0.000    0.000    0.000    0.000 
#
# Total GULP energy -155955.787373 kJ/mol
# GULP energy per Si atom -5569.849549 kJ/mol
# Density = 1.959847 g / cm^3
# Si number density = 19.643174 Si / 1000 Ang^3
#
#
#
# Elastic Constant Matrix: (Units=GPa)
#
#
# Indices 1 2 3 4 5 6 
#
# 1 168.1126 35.4657 25.4059 0.0000 0.0000 0.0000
# 2 35.4657 59.9684 43.4511 0.0000 0.0000 0.0000
# 3 25.4059 43.4511 63.0276 0.0000 0.0000 0.0000
# 4 0.0000 0.0000 0.0000 16.7098 0.0000 0.0000
# 5 0.0000 0.0000 0.0000 0.0000 19.1818 0.0000
# 6 0.0000 0.0000 0.0000 0.0000 0.0000 23.9814
#
#
#
# Elastic Compliance Matrix: (Units=1/GPa)
#
#
# Indices 1 2 3 4 5 6 
#
# 1 0.006796 -0.004065 0.000063 0.000000 0.000000 0.000000
# 2 -0.004065 0.035750 -0.023007 0.000000 0.000000 0.000000
# 3 0.000063 -0.023007 0.031702 0.000000 0.000000 0.000000
# 4 0.000000 0.000000 0.000000 0.059845 0.000000 0.000000
# 5 0.000000 0.000000 0.000000 0.000000 0.052133 0.000000
# 6 0.000000 0.000000 0.000000 0.000000 0.000000 0.041699
#
#
# Mechanical properties :
#
#
# Convention : Reuss Voigt Hill
#
# Bulk Modulus (GPa) = 49.43334 55.52823 52.48079
# Shear Modulus (GPa) = 17.31979 24.42699 20.87339
#
# Velocity S-wave (km/s) = 2.97260 3.53021 3.26333
# Velocity P-wave (km/s) = 6.08293 6.70420 6.40111
#
# Compressibility (1/GPa) = 0.02022926
#
# Stress axis : x y z
#
# Youngs Moduli (GPa) = 147.13528 27.97217 31.54379
#
# Poissons Ratio (x) = 0.11371 -0.00198
# Poissons Ratio (y) = 0.59810 0.72574
# Poissons Ratio (z) = -0.00924 0.64356
#
# Static dielectric constant tensor:
#      x y z
#    x 1.724280 0.000000 0.000000 
#    y 0.000000 1.825070 0.000000 
#    z 0.000000 0.000000 1.756650 
# 
# From -- ./inp_files/32529.got.cif
#   From: 2010.05.17/outbox.cif.g08.bks.cpg/sg22_17_cif.got.tgz:32529.got - 2010.06.03 23:40:54.
