data_PCOD9328085
_publ_section_title
;
Structure prediction by ZEFSAII (Michael W. Deem and Ramdas Pophale) SiO2 
 PCOD9328085
Probable space group: F 2 2 2
;
_chemical_formula_sum "Si O2"
_cell_formula_units_Z 60
_cell_length_a 19.024306
_cell_length_b 6.143678
_cell_length_c 22.638406
_cell_angle_alpha 90.000000
_cell_angle_beta 90.000000
_cell_angle_gamma 90.000000
_cell_volume 2645.959014
_symmetry_space_group_name_H-M "F 2 2 2"
_symmetry_group_IT_number 22
_symmetry_cell_setting 'orthorhombic'
loop_
_space_group_symop_operation_xyz
x,y,z
-x,-y,z
x,-y,-z
-x,y,-z
x,1/2+y,1/2+z
-x,1/2-y,1/2+z
x,1/2-y,1/2-z
-x,1/2+y,1/2-z
1/2+x,y,1/2+z
1/2-x,-y,1/2+z
1/2+x,-y,1/2-z
1/2-x,y,1/2-z
1/2+x,1/2+y,z
1/2-x,1/2-y,z
1/2+x,1/2-y,-z
1/2-x,1/2+y,-z
loop_
_atom_site_type_symbol
_atom_site_label
_atom_site_fract_x
_atom_site_fract_y
_atom_site_fract_z
Si Si1 0.440043 0.843589 0.812159
Si Si2 0.115051 0.501280 0.409626
Si Si3 0.315283 0.621683 0.333604
Si Si4 0.750000 0.250000 0.584412
Si Si5 0.000000 0.500000 0.500000
O O1 0.466591 0.750000 0.750000
O O2 0.418455 0.664848 0.861025
O O3 0.500000 0.000000 0.837454
O O4 0.371900 0.990855 0.795589
O O5 0.145114 0.702470 0.373387
O O6 0.179494 0.366709 0.441489
O O7 0.056528 0.595919 0.453915
O O8 0.250000 0.750000 0.307128
O O9 0.281892 0.439716 0.375641
#
# Coordination Sequence:
#
# PCOD9328085 Si02
#       5
#    16  16  16   8   4
#     4  11  25  40  66  96 133 178 227 278 346 408
#     4  10  22  43  64  97 134 174 228 277 343 400
#     4   9  19  42  69  92 134 172 223 283 335 411
#     4   8  18  42  65  94 132 176 225 270 340 412
#     4  12  24  40  70 100 136 176 224 278 330 408
#
# _framework density 22.676089999999999
#
# number of rings (size 3 to 8) (size 9 to 14) (size 15 to 20)
#    0.000    2.133    0.000    1.600    5.600    0.000 
#    7.200   46.000    0.000    0.000    0.000    0.000 
#    0.000    0.000    0.000    0.000    0.000    0.000 
#
# Total GULP energy -83564.048921 kJ/mol
# GULP energy per Si atom -5570.936595 kJ/mol
# Density = 2.262448 g / cm^3
# Si number density = 22.676090 Si / 1000 Ang^3
#
#
#
# Elastic Constant Matrix: (Units=GPa)
#
#
# Indices 1 2 3 4 5 6 
#
# 1 110.7741 45.7124 36.3443 0.0002 0.0001 0.0000
# 2 45.7124 132.8248 36.4283 0.0002 0.0002 0.0001
# 3 36.3443 36.4283 82.2862 0.0000 0.0000 0.0000
# 4 0.0002 0.0002 0.0000 -84.9700 -0.0002 0.0001
# 5 0.0001 0.0002 0.0000 -0.0002 22.2796 -0.0001
# 6 0.0000 0.0001 0.0000 0.0001 -0.0001 56.3964
#
#
#
# Elastic Compliance Matrix: (Units=1/GPa)
#
#
# Indices 1 2 3 4 5 6 
#
# 1 0.011468 -0.002911 -0.003776 0.000000 0.000000 0.000000
# 2 -0.002911 0.009308 -0.002835 0.000000 0.000000 0.000000
# 3 -0.003776 -0.002835 0.015076 0.000000 0.000000 0.000000
# 4 0.000000 0.000000 0.000000 -0.011769 0.000000 0.000000
# 5 0.000000 0.000000 0.000000 0.000000 0.044884 0.000000
# 6 0.000000 0.000000 0.000000 0.000000 0.000000 0.017732
#
#
# Mechanical properties :
#
#
# Convention : Reuss Voigt Hill
#
# Bulk Modulus (GPa) = 59.49972 62.53947 61.01959
# Shear Modulus (GPa) = 44.90545 12.56788 28.73666
#
# Velocity S-wave (km/s) = 4.45488 2.35677 3.56373
# Velocity P-wave (km/s) = 7.26342 5.91990 6.62580
#
# Compressibility (1/GPa) = 0.01680680
#
# Stress axis : x y z
#
# Youngs Moduli (GPa) = 87.20203 107.43388 66.33183
#
# Poissons Ratio (x) = 0.31273 0.25049
# Poissons Ratio (y) = 0.25384 0.18805
# Poissons Ratio (z) = 0.32931 0.30457
#
# Static dielectric constant tensor:
#      x y z
#    x 1.936730 0.000000 0.000000 
#    y 0.000000 1.826050 0.000000 
#    z 0.000000 0.000000 1.787520 
# 
# From -- ./inp_files/3551.got.cif
#   From: 2010.05.17/outbox.cif.g08.bks.cpg/sg22_2_cif.got.tgz:3551.got - 2010.06.03 23:40:54.
