data_PCOD9328329
_publ_section_title
;
Structure prediction by ZEFSAII (Michael W. Deem and Ramdas Pophale) SiO2 
 PCOD9328329
Probable space group: F 2 2 2
;
_chemical_formula_sum "Si O2"
_cell_formula_units_Z 32
_cell_length_a 8.639319
_cell_length_b 10.522130
_cell_length_c 15.543132
_cell_angle_alpha 90.000000
_cell_angle_beta 90.000000
_cell_angle_gamma 90.000000
_cell_volume 1412.933456
_symmetry_space_group_name_H-M "F 2 2 2"
_symmetry_group_IT_number 22
_symmetry_cell_setting 'orthorhombic'
loop_
_space_group_symop_operation_xyz
x,y,z
-x,-y,z
x,-y,-z
-x,y,-z
x,1/2+y,1/2+z
-x,1/2-y,1/2+z
x,1/2-y,1/2-z
-x,1/2+y,1/2-z
1/2+x,y,1/2+z
1/2-x,-y,1/2+z
1/2+x,-y,1/2-z
1/2-x,y,1/2-z
1/2+x,1/2+y,z
1/2-x,1/2-y,z
1/2+x,1/2-y,-z
1/2-x,1/2+y,-z
loop_
_atom_site_type_symbol
_atom_site_label
_atom_site_fract_x
_atom_site_fract_y
_atom_site_fract_z
Si Si1 0.625052 0.610034 0.329032
Si Si2 0.571950 0.131435 0.593195
O O1 0.500000 0.500000 0.326129
O O2 0.750000 0.604181 0.250000
O O3 0.545730 0.747037 0.345632
O O4 0.744130 0.605480 0.409483
O O5 0.500000 0.155443 0.500000
O O6 0.500000 0.000000 0.626393
#
# Coordination Sequence:
#
# PCOD9328329 Si02
#       2
#    16  16
#     4  11  25  46  70 101 142 187 235 285 344 417
#     4  10  23  43  68 103 141 178 228 286 348 415
#
# _framework density 22.647917
#
# number of rings (size 3 to 8) (size 9 to 14) (size 15 to 20)
#    0.000    1.500    0.000    4.500    0.000   19.000 
#    0.000    5.000    0.000    0.000    0.000    0.000 
#    0.000    0.000    0.000    0.000    0.000    0.000 
#
# Total GULP energy -44610.090638 kJ/mol
# GULP energy per Si atom -5576.261330 kJ/mol
# Density = 2.259637 g / cm^3
# Si number density = 22.647917 Si / 1000 Ang^3
#
#
#
# Elastic Constant Matrix: (Units=GPa)
#
#
# Indices 1 2 3 4 5 6 
#
# 1 115.9212 112.4788 78.7948 0.0000 0.0000 0.0000
# 2 112.4788 283.8639 70.9735 0.0000 0.0000 0.0000
# 3 78.7948 70.9735 145.9758 0.0000 0.0000 0.0000
# 4 0.0000 0.0000 0.0000 28.9914 0.0000 0.0000
# 5 0.0000 0.0000 0.0000 0.0000 55.7882 0.0000
# 6 0.0000 0.0000 0.0000 0.0000 0.0000 62.0873
#
#
#
# Elastic Compliance Matrix: (Units=1/GPa)
#
#
# Indices 1 2 3 4 5 6 
#
# 1 0.019482 -0.005795 -0.007699 0.000000 0.000000 0.000000
# 2 -0.005795 0.005734 0.000340 0.000000 0.000000 0.000000
# 3 -0.007699 0.000340 0.010841 0.000000 0.000000 0.000000
# 4 0.000000 0.000000 0.000000 0.034493 0.000000 0.000000
# 5 0.000000 0.000000 0.000000 0.000000 0.017925 0.000000
# 6 0.000000 0.000000 0.000000 0.000000 0.000000 0.016106
#
#
# Mechanical properties :
#
#
# Convention : Reuss Voigt Hill
#
# Bulk Modulus (GPa) = 102.56349 118.91725 110.74037
# Shear Modulus (GPa) = 37.27496 48.27429 42.77463
#
# Velocity S-wave (km/s) = 4.06130 4.62184 4.35061
# Velocity P-wave (km/s) = 8.20833 9.00571 8.61625
#
# Compressibility (1/GPa) = 0.00975006
#
# Stress axis : x y z
#
# Youngs Moduli (GPa) = 51.32850 174.40004 92.24486
#
# Poissons Ratio (x) = 1.01062 0.71017
# Poissons Ratio (y) = 0.29744 -0.03137
# Poissons Ratio (z) = 0.39516 -0.05931
#
# Static dielectric constant tensor:
#      x y z
#    x 1.851800 0.000000 0.000000 
#    y 0.000000 1.923850 0.000000 
#    z 0.000000 0.000000 1.998540 
# 
# From -- ./inp_files/7125.got.cif
#   From: 2010.05.17/outbox.cif.g08.bks.cpg/sg22_4_cif.got.tgz:7125.got - 2010.06.03 23:40:54.
