data_PCOD9328944
_publ_section_title
;
Structure prediction by ZEFSAII (Michael W. Deem and Ramdas Pophale) SiO2 
 PCOD9328944
Probable space group: F 2 2 2
;
_chemical_formula_sum "Si O2"
_cell_formula_units_Z 88
_cell_length_a 9.852371
_cell_length_b 24.569462
_cell_length_c 16.289797
_cell_angle_alpha 90.000000
_cell_angle_beta 90.000000
_cell_angle_gamma 90.000000
_cell_volume 3943.229701
_symmetry_space_group_name_H-M "F 2 2 2"
_symmetry_group_IT_number 22
_symmetry_cell_setting 'orthorhombic'
loop_
_space_group_symop_operation_xyz
x,y,z
-x,-y,z
x,-y,-z
-x,y,-z
x,1/2+y,1/2+z
-x,1/2-y,1/2+z
x,1/2-y,1/2-z
-x,1/2+y,1/2-z
1/2+x,y,1/2+z
1/2-x,-y,1/2+z
1/2+x,-y,1/2-z
1/2-x,y,1/2-z
1/2+x,1/2+y,z
1/2-x,1/2-y,z
1/2+x,1/2-y,-z
1/2-x,1/2+y,-z
loop_
_atom_site_type_symbol
_atom_site_label
_atom_site_fract_x
_atom_site_fract_y
_atom_site_fract_z
Si Si1 0.349582 0.524814 0.917052
Si Si2 0.137185 0.136165 0.478967
Si Si3 0.561791 0.897476 0.857705
Si Si4 0.250000 0.526763 0.250000
Si Si5 0.090868 0.685413 0.747154
Si Si6 0.902697 0.653085 0.427497
O O1 0.500000 0.500000 0.914165
O O2 0.289332 0.509263 0.828757
O O3 0.367951 0.588892 0.929805
O O4 0.283035 0.500000 0.000000
O O5 0.172158 0.112972 0.569775
O O6 0.250262 0.174231 0.440974
O O7 0.000000 0.169149 0.500000
O O8 0.072295 0.090646 0.415968
O O9 0.626791 0.936464 0.788761
O O10 0.503767 0.844266 0.812649
O O11 0.088900 0.750000 0.750000
O O12 0.250000 0.666994 0.750000
O O13 0.037370 0.667605 0.658848
O O14 0.000000 0.668407 0.500000
#
# Coordination Sequence:
#
# PCOD9328944 Si02
#       6
#    16  16  16   8  16  16
#     4  11  24  40  61  97 137 174 225 277 332 417
#     4   8  20  40  64  87 124 177 207 268 337 390
#     4   9  21  40  66  91 136 169 219 278 341 395
#     4  12  24  40  69  98 133 184 228 276 350 422
#     4  11  23  43  68 100 129 174 230 283 347 417
#     4  12  23  42  69  93 133 180 222 282 341 403
#
# _framework density 22.316731999999998
#
# number of rings (size 3 to 8) (size 9 to 14) (size 15 to 20)
#    1.091    0.364    3.636    2.182    3.818    1.455 
#    3.273    0.455    4.000    0.000    0.000    0.000 
#    0.000    0.000    0.000    0.000    0.000    0.000 
#
# Total GULP energy -122479.217684 kJ/mol
# GULP energy per Si atom -5567.237167 kJ/mol
# Density = 2.226594 g / cm^3
# Si number density = 22.316732 Si / 1000 Ang^3
#
#
#
# Elastic Constant Matrix: (Units=GPa)
#
#
# Indices 1 2 3 4 5 6 
#
# 1 57.0251 -2.8957 23.1181 0.0000 0.0000 0.0000
# 2 -2.8957 36.4553 27.6529 0.0000 0.0000 0.0000
# 3 23.1181 27.6529 205.3051 0.0000 0.0000 0.0000
# 4 0.0000 0.0000 0.0000 -5.1872 0.0000 0.0000
# 5 0.0000 0.0000 0.0000 0.0000 39.3064 0.0000
# 6 0.0000 0.0000 0.0000 0.0000 0.0000 111.6519
#
#
#
# Elastic Compliance Matrix: (Units=1/GPa)
#
#
# Indices 1 2 3 4 5 6 
#
# 1 0.018755 0.003444 -0.002576 0.000000 0.000000 0.000000
# 2 0.003444 0.031185 -0.004588 0.000000 0.000000 0.000000
# 3 -0.002576 -0.004588 0.005779 0.000000 0.000000 0.000000
# 4 0.000000 0.000000 0.000000 -0.192783 0.000000 0.000000
# 5 0.000000 0.000000 0.000000 0.000000 0.025441 0.000000
# 6 0.000000 0.000000 0.000000 0.000000 0.000000 0.008956
#
#
# Mechanical properties :
#
#
# Convention : Reuss Voigt Hill
#
# Bulk Modulus (GPa) = 20.71334 43.83736 32.27535
# Shear Modulus (GPa) = -63.18389 45.88156 -8.65116
#
# Velocity S-wave (km/s) = -5.32671 4.53915 -1.97103
# Velocity P-wave (km/s) = 5.34135 6.86715 3.05186
#
# Compressibility (1/GPa) = 0.04827807
#
# Stress axis : x y z
#
# Youngs Moduli (GPa) = 53.31855 32.06714 173.04610
#
# Poissons Ratio (x) = -0.11042 0.44572
# Poissons Ratio (y) = -0.18360 0.79394
# Poissons Ratio (z) = 0.13733 0.14713
#
# Static dielectric constant tensor:
#      x y z
#    x 2.016500 0.000000 0.000000 
#    y 0.000000 1.847950 0.000000 
#    z 0.000000 0.000000 1.700480 
# 
# From -- ./inp_files/28221.got.cif
#   From: 2010.05.17/outbox.cif.g08.bks.cpg/sg22_15_cif.got.tgz:28221.got - 2010.06.03 23:40:54.
