data_PCOD9328165
_publ_section_title
;
Structure prediction by ZEFSAII (Michael W. Deem and Ramdas Pophale) SiO2 
 PCOD9328165
Probable space group: F 2 2 2
;
_chemical_formula_sum "Si O2"
_cell_formula_units_Z 88
_cell_length_a 20.480745
_cell_length_b 7.973868
_cell_length_c 23.659158
_cell_angle_alpha 90.000000
_cell_angle_beta 90.000000
_cell_angle_gamma 90.000000
_cell_volume 3863.795007
_symmetry_space_group_name_H-M "F 2 2 2"
_symmetry_group_IT_number 22
_symmetry_cell_setting 'orthorhombic'
loop_
_space_group_symop_operation_xyz
x,y,z
-x,-y,z
x,-y,-z
-x,y,-z
x,1/2+y,1/2+z
-x,1/2-y,1/2+z
x,1/2-y,1/2-z
-x,1/2+y,1/2-z
1/2+x,y,1/2+z
1/2-x,-y,1/2+z
1/2+x,-y,1/2-z
1/2-x,y,1/2-z
1/2+x,1/2+y,z
1/2-x,1/2-y,z
1/2+x,1/2-y,-z
1/2-x,1/2+y,-z
loop_
_atom_site_type_symbol
_atom_site_label
_atom_site_fract_x
_atom_site_fract_y
_atom_site_fract_z
Si Si1 0.924742 0.281263 0.313146
Si Si2 0.039714 0.353021 0.107472
Si Si3 0.000000 0.500000 0.500000
Si Si4 0.753305 0.950530 0.061656
Si Si5 0.167768 0.003374 0.332440
Si Si6 0.598178 0.992759 0.413374
Si Si7 0.250000 0.750000 0.750000
O O1 0.949548 0.250000 0.250000
O O2 0.910267 0.453730 0.347607
O O3 0.983098 0.211405 0.351313
O O4 0.857131 0.176847 0.311906
O O5 0.099899 0.418037 0.145544
O O6 0.073858 0.197087 0.077039
O O7 0.000000 0.500000 0.075040
O O8 0.050294 0.590695 0.456324
O O9 0.750000 0.750000 0.067420
O O10 0.712007 0.022817 0.112783
O O11 0.827578 0.010204 0.068759
O O12 0.728277 0.000000 0.000000
O O13 0.205066 0.127250 0.289051
#
# Coordination Sequence:
#
# PCOD9328165 Si02
#       7
#    16  16   4  16  16  16   4
#     4  11  27  43  71 110 144 193 241 307 368 451
#     4  10  22  45  71 104 141 186 244 290 370 439
#     4  12  24  44  78 100 144 188 240 290 380 436
#     4  12  27  47  72 102 142 196 241 305 369 446
#     4  11  26  45  70 106 140 192 246 294 378 439
#     4  12  24  47  73 105 146 190 241 305 373 436
#     4  12  24  48  74  92 152 196 238 320 360 452
#
# _framework density 22.775535000000001
#
# number of rings (size 3 to 8) (size 9 to 14) (size 15 to 20)
#    0.000    0.727    5.455    0.000    8.909    2.909 
#    0.000    0.455    0.000    0.000    0.000    0.000 
#    0.000    0.000    0.000    0.000    0.000    0.000 
#
# Total GULP energy -122669.496811 kJ/mol
# GULP energy per Si atom -5575.886219 kJ/mol
# Density = 2.272370 g / cm^3
# Si number density = 22.775535 Si / 1000 Ang^3
#
#
#
# Elastic Constant Matrix: (Units=GPa)
#
#
# Indices 1 2 3 4 5 6 
#
# 1 107.4431 17.3352 27.6699 0.0000 0.0000 -0.0001
# 2 17.3352 62.3519 15.2237 0.0000 0.0000 -0.0001
# 3 27.6699 15.2237 122.3604 0.0000 0.0000 0.0000
# 4 0.0000 0.0000 0.0000 27.7600 0.0000 0.0000
# 5 0.0000 0.0000 0.0000 0.0000 21.0724 0.0000
# 6 -0.0001 -0.0001 0.0000 0.0000 0.0000 28.8621
#
#
#
# Elastic Compliance Matrix: (Units=1/GPa)
#
#
# Indices 1 2 3 4 5 6 
#
# 1 0.010205 -0.002345 -0.002016 0.000000 0.000000 0.000000
# 2 -0.002345 0.017079 -0.001595 0.000000 0.000000 0.000000
# 3 -0.002016 -0.001595 0.008827 0.000000 0.000000 0.000000
# 4 0.000000 0.000000 0.000000 0.036023 0.000000 0.000000
# 5 0.000000 0.000000 0.000000 0.000000 0.047455 0.000000
# 6 0.000000 0.000000 0.000000 0.000000 0.000000 0.034648
#
#
# Mechanical properties :
#
#
# Convention : Reuss Voigt Hill
#
# Bulk Modulus (GPa) = 41.32258 45.84591 43.58425
# Shear Modulus (GPa) = 28.70021 31.00065 29.85043
#
# Velocity S-wave (km/s) = 3.55369 3.69336 3.62420
# Velocity P-wave (km/s) = 5.91786 6.19363 6.05731
#
# Compressibility (1/GPa) = 0.02419984
#
# Stress axis : x y z
#
# Youngs Moduli (GPa) = 97.99360 58.55040 113.29070
#
# Poissons Ratio (x) = 0.13730 0.22838
# Poissons Ratio (y) = 0.22979 0.18066
# Poissons Ratio (z) = 0.19754 0.09337
#
# Static dielectric constant tensor:
#      x y z
#    x 1.828300 0.000000 0.000000 
#    y 0.000000 2.042800 0.000000 
#    z 0.000000 0.000000 1.932080 
# 
# From -- ./inp_files/49832.got.cif
#   From: 2010.05.17/outbox.cif.g08.bks.cpg/sg22_25_cif.got.tgz:49832.got - 2010.06.03 23:40:54.
