data_PCOD9328750
_publ_section_title
;
Structure prediction by ZEFSAII (Michael W. Deem and Ramdas Pophale) SiO2 
 PCOD9328750
Probable space group: F 2 2 2
;
_chemical_formula_sum "Si O2"
_cell_formula_units_Z 112
_cell_length_a 13.201430
_cell_length_b 25.886234
_cell_length_c 15.096048
_cell_angle_alpha 90.000000
_cell_angle_beta 90.000000
_cell_angle_gamma 90.000000
_cell_volume 5158.852584
_symmetry_space_group_name_H-M "F 2 2 2"
_symmetry_group_IT_number 22
_symmetry_cell_setting 'orthorhombic'
loop_
_space_group_symop_operation_xyz
x,y,z
-x,-y,z
x,-y,-z
-x,y,-z
x,1/2+y,1/2+z
-x,1/2-y,1/2+z
x,1/2-y,1/2-z
-x,1/2+y,1/2-z
1/2+x,y,1/2+z
1/2-x,-y,1/2+z
1/2+x,-y,1/2-z
1/2-x,y,1/2-z
1/2+x,1/2+y,z
1/2-x,1/2-y,z
1/2+x,1/2-y,-z
1/2-x,1/2+y,-z
loop_
_atom_site_type_symbol
_atom_site_label
_atom_site_fract_x
_atom_site_fract_y
_atom_site_fract_z
Si Si1 0.121449 0.306115 0.648850
Si Si2 0.273120 0.026910 0.874670
Si Si3 0.239328 0.403612 0.147036
Si Si4 0.925363 0.046410 0.222732
Si Si5 0.855471 0.684591 0.858261
Si Si6 0.891683 0.402150 0.004914
Si Si7 0.463060 0.384511 0.091994
O O1 0.115647 0.319065 0.754237
O O2 0.124146 0.245334 0.627189
O O3 0.234961 0.325774 0.627815
O O4 0.029122 0.332372 0.598137
O O5 0.155562 0.037018 0.855658
O O6 0.349492 0.054226 0.804219
O O7 0.309691 0.055570 0.962488
O O8 0.280126 0.965721 0.856504
O O9 0.250000 0.389135 0.250000
O O10 0.342407 0.385726 0.098374
O O11 0.146822 0.381643 0.089649
O O12 0.000299 0.087702 0.181729
O O13 0.000000 0.000000 0.246194
O O14 0.904832 0.644680 0.925778
O O15 0.000000 0.429258 0.000000
O O16 0.500000 0.410097 0.000000
#
# Coordination Sequence:
#
# PCOD9328750 Si02
#       7
#    16  16  16  16  16  16  16
#     4   9  19  38  75  99 134 174 221 300 355 424
#     4  11  23  42  63  90 130 180 241 283 337 419
#     4  12  26  46  61  97 148 186 233 296 352 434
#     4  11  21  39  65  89 126 179 227 289 345 409
#     4   9  19  42  66 108 134 165 236 294 351 417
#     4  12  28  41  67  97 136 189 239 299 354 435
#     4  12  24  38  66  99 132 181 229 289 362 417
#
# _framework density 21.710253999999999
#
# number of rings (size 3 to 8) (size 9 to 14) (size 15 to 20)
#    0.000    1.143    2.857    4.714    6.000    3.714 
#    0.000    0.000    0.000    0.000    0.000    0.000 
#    0.000    0.000    0.000    0.000    0.000    0.000 
#
# Total GULP energy -156192.879442 kJ/mol
# GULP energy per Si atom -5578.317123 kJ/mol
# Density = 2.166084 g / cm^3
# Si number density = 21.710254 Si / 1000 Ang^3
#
#
#
# Elastic Constant Matrix: (Units=GPa)
#
#
# Indices 1 2 3 4 5 6 
#
# 1 107.2966 2.6870 32.4981 0.0000 0.0000 0.0000
# 2 2.6870 48.0240 15.0003 0.0000 0.0000 0.0000
# 3 32.4981 15.0003 90.9206 0.0000 0.0000 0.0000
# 4 0.0000 0.0000 0.0000 18.1917 0.0000 0.0000
# 5 0.0000 0.0000 0.0000 0.0000 32.2466 0.0000
# 6 0.0000 0.0000 0.0000 0.0000 0.0000 19.2443
#
#
#
# Elastic Compliance Matrix: (Units=1/GPa)
#
#
# Indices 1 2 3 4 5 6 
#
# 1 0.010469 0.000615 -0.003843 0.000000 0.000000 0.000000
# 2 0.000615 0.021990 -0.003848 0.000000 0.000000 0.000000
# 3 -0.003843 -0.003848 0.013007 0.000000 0.000000 0.000000
# 4 0.000000 0.000000 0.000000 0.054970 0.000000 0.000000
# 5 0.000000 0.000000 0.000000 0.000000 0.031011 0.000000
# 6 0.000000 0.000000 0.000000 0.000000 0.000000 0.051963
#
#
# Mechanical properties :
#
#
# Convention : Reuss Voigt Hill
#
# Bulk Modulus (GPa) = 31.93506 38.51244 35.22375
# Shear Modulus (GPa) = 24.03832 27.00690 25.52261
#
# Velocity S-wave (km/s) = 3.33112 3.53082 3.43242
# Velocity P-wave (km/s) = 5.43477 5.86516 5.65406
#
# Compressibility (1/GPa) = 0.03131355
#
# Stress axis : x y z
#
# Youngs Moduli (GPa) = 95.52359 45.47439 76.88085
#
# Poissons Ratio (x) = -0.02795 0.29547
# Poissons Ratio (y) = -0.05872 0.29582
# Poissons Ratio (z) = 0.36712 0.17497
#
# Static dielectric constant tensor:
#      x y z
#    x 1.789310 0.000000 0.000000 
#    y 0.000000 1.854600 0.000000 
#    z 0.000000 0.000000 1.854290 
# 
# From -- ./inp_files/28474.got.cif
#   From: 2010.05.17/outbox.cif.g08.bks.cpg/sg22_15_cif.got.tgz:28474.got - 2010.06.03 23:40:54.
