data_PCOD9328075
_publ_section_title
;
Structure prediction by ZEFSAII (Michael W. Deem and Ramdas Pophale) SiO2 
 PCOD9328075
Probable space group: F 2 2 2
;
_chemical_formula_sum "Si O2"
_cell_formula_units_Z 48
_cell_length_a 29.003718
_cell_length_b 14.159650
_cell_length_c 4.942236
_cell_angle_alpha 90.000000
_cell_angle_beta 90.000000
_cell_angle_gamma 90.000000
_cell_volume 2029.689814
_symmetry_space_group_name_H-M "F 2 2 2"
_symmetry_group_IT_number 22
_symmetry_cell_setting 'orthorhombic'
loop_
_space_group_symop_operation_xyz
x,y,z
-x,-y,z
x,-y,-z
-x,y,-z
x,1/2+y,1/2+z
-x,1/2-y,1/2+z
x,1/2-y,1/2-z
-x,1/2+y,1/2-z
1/2+x,y,1/2+z
1/2-x,-y,1/2+z
1/2+x,-y,1/2-z
1/2-x,y,1/2-z
1/2+x,1/2+y,z
1/2-x,1/2-y,z
1/2+x,1/2-y,-z
1/2-x,1/2+y,-z
loop_
_atom_site_type_symbol
_atom_site_label
_atom_site_fract_x
_atom_site_fract_y
_atom_site_fract_z
Si Si1 0.451586 0.345671 0.629010
Si Si2 0.250000 0.750000 0.250000
Si Si3 0.825287 0.000000 0.000000
Si Si4 0.750000 0.135679 0.750000
Si Si5 0.888756 0.500000 0.000000
Si Si6 0.000000 0.000000 0.000000
O O1 0.500000 0.313959 0.500000
O O2 0.430490 0.250000 0.750000
O O3 0.418632 0.405949 0.433810
O O4 0.467910 0.428917 0.830838
O O5 0.226415 0.813628 0.485037
O O6 0.790859 0.921054 0.111871
O O7 0.857623 0.028576 0.246941
#
# Coordination Sequence:
#
# PCOD9328075 Si02
#       6
#    16   4   8   8   8   4
#     4  12  25  43  74 101 147 208 254 303 386 460
#     4  10  22  42  78 110 140 180 264 306 354 470
#     4  12  26  48  79 103 148 197 251 302 389 455
#     4  11  23  48  77 105 146 206 246 299 391 478
#     4  12  26  46  70 118 152 187 253 342 362 438
#     4  12  20  44  72  98 140 194 266 298 356 466
#
# _framework density 23.648935999999999
#
# number of rings (size 3 to 8) (size 9 to 14) (size 15 to 20)
#    0.000    0.333    5.000    5.000    0.000    0.000 
#   18.000    0.000    0.000    0.000    0.000    0.000 
#    0.000    0.000    0.000    0.000    0.000    0.000 
#
# Total GULP energy -66913.511466 kJ/mol
# GULP energy per Si atom -5576.125955 kJ/mol
# Density = 2.359511 g / cm^3
# Si number density = 23.648936 Si / 1000 Ang^3
#
#
#
# Elastic Constant Matrix: (Units=GPa)
#
#
# Indices 1 2 3 4 5 6 
#
# 1 79.5403 28.9322 26.9076 0.0001 0.0000 0.0000
# 2 28.9322 149.8931 52.8661 0.0002 0.0000 -0.0001
# 3 26.9076 52.8661 161.7026 0.0006 0.0000 0.0003
# 4 0.0001 0.0002 0.0006 64.4627 0.0001 0.0000
# 5 0.0000 0.0000 0.0000 0.0001 30.6357 -0.0001
# 6 0.0000 -0.0001 0.0003 0.0000 -0.0001 -23.9577
#
#
#
# Elastic Compliance Matrix: (Units=1/GPa)
#
#
# Indices 1 2 3 4 5 6 
#
# 1 0.013888 -0.002109 -0.001622 0.000000 0.000000 0.000000
# 2 -0.002109 0.007861 -0.002219 0.000000 0.000000 0.000000
# 3 -0.001622 -0.002219 0.007180 0.000000 0.000000 0.000000
# 4 0.000000 0.000000 0.000000 0.015513 0.000000 0.000000
# 5 0.000000 0.000000 0.000000 0.000000 0.032642 0.000000
# 6 0.000000 0.000000 0.000000 0.000000 0.000000 -0.041740
#
#
# Mechanical properties :
#
#
# Convention : Reuss Voigt Hill
#
# Bulk Modulus (GPa) = 58.72119 67.61643 63.16881
# Shear Modulus (GPa) = 94.48548 33.05682 63.77115
#
# Velocity S-wave (km/s) = 6.32773 3.74279 5.19849
# Velocity P-wave (km/s) = 8.84709 6.87981 7.92474
#
# Compressibility (1/GPa) = 0.01702963
#
# Stress axis : x y z
#
# Youngs Moduli (GPa) = 72.00556 127.20822 139.28460
#
# Poissons Ratio (x) = 0.26824 0.22586
# Poissons Ratio (y) = 0.15184 0.30910
# Poissons Ratio (z) = 0.11676 0.28230
#
# Static dielectric constant tensor:
#      x y z
#    x 2.004430 0.000000 0.000000 
#    y 0.000000 2.061210 0.000000 
#    z 0.000000 0.000000 1.940190 
# 
# From -- ./inp_files/1700.got.cif
#   From: 2010.05.17/outbox.cif.g08.bks.cpg/sg22_1_cif.got.tgz:1700.got - 2010.06.03 23:40:54.
