data_PCOD9328435
_publ_section_title
;
Structure prediction by ZEFSAII (Michael W. Deem and Ramdas Pophale) SiO2 
 PCOD9328435
Probable space group: F 2 2 2
;
_chemical_formula_sum "Si O2"
_cell_formula_units_Z 112
_cell_length_a 14.331689
_cell_length_b 15.830830
_cell_length_c 24.001696
_cell_angle_alpha 90.000000
_cell_angle_beta 90.000000
_cell_angle_gamma 90.000000
_cell_volume 5445.565565
_symmetry_space_group_name_H-M "F 2 2 2"
_symmetry_group_IT_number 22
_symmetry_cell_setting 'orthorhombic'
loop_
_space_group_symop_operation_xyz
x,y,z
-x,-y,z
x,-y,-z
-x,y,-z
x,1/2+y,1/2+z
-x,1/2-y,1/2+z
x,1/2-y,1/2-z
-x,1/2+y,1/2-z
1/2+x,y,1/2+z
1/2-x,-y,1/2+z
1/2+x,-y,1/2-z
1/2-x,y,1/2-z
1/2+x,1/2+y,z
1/2-x,1/2-y,z
1/2+x,1/2-y,-z
1/2-x,1/2+y,-z
loop_
_atom_site_type_symbol
_atom_site_label
_atom_site_fract_x
_atom_site_fract_y
_atom_site_fract_z
Si Si1 0.018348 0.362254 0.666426
Si Si2 0.432701 0.879196 0.546698
Si Si3 0.673866 0.484945 0.330366
Si Si4 0.878451 0.972485 0.215372
Si Si5 0.353853 0.708853 0.359517
Si Si6 0.645812 0.715905 0.511980
Si Si7 0.219942 0.938979 0.552528
O O1 0.075089 0.443485 0.688353
O O2 0.075601 0.274912 0.670586
O O3 0.994470 0.373756 0.601672
O O4 0.920011 0.382384 0.696282
O O5 0.500000 0.917841 0.500000
O O6 0.407471 0.788781 0.520288
O O7 0.330957 0.919004 0.560482
O O8 0.774241 0.513646 0.306574
O O9 0.608941 0.521188 0.281794
O O10 0.657016 0.384230 0.333572
O O11 0.674150 0.521399 0.392621
O O12 0.250000 0.750000 0.357925
O O13 0.386017 0.698212 0.424548
O O14 0.750000 0.750000 0.521021
O O15 0.659542 0.639295 0.469584
O O16 0.218922 0.000000 0.500000
#
# Coordination Sequence:
#
# PCOD9328435 Si02
#       7
#    16  16  16  16  16  16  16
#     4  11  22  41  65  96 135 172 228 276 352 399
#     4  11  22  35  62  98 138 171 208 287 335 409
#     4  11  22  42  63  96 135 181 232 283 341 408
#     4  10  24  41  63  93 137 180 227 289 331 406
#     4  11  20  36  64  98 139 179 217 280 347 419
#     4   9  20  36  56  94 139 173 218 265 339 423
#     4  11  22  37  65  98 131 178 221 268 352 424
#
# _framework density 20.567194000000001
#
# number of rings (size 3 to 8) (size 9 to 14) (size 15 to 20)
#    0.000    1.429    5.714    0.000    2.000    0.857 
#    0.000    4.286    0.000    2.143    0.000    0.000 
#    0.000    0.000    0.000    0.000    0.000    0.000 
#
# Total GULP energy -156001.304135 kJ/mol
# GULP energy per Si atom -5571.475148 kJ/mol
# Density = 2.052038 g / cm^3
# Si number density = 20.567194 Si / 1000 Ang^3
#
#
#
# Elastic Constant Matrix: (Units=GPa)
#
#
# Indices 1 2 3 4 5 6 
#
# 1 65.5414 48.0341 34.2158 0.0000 0.0000 0.0000
# 2 48.0341 119.9488 42.3261 0.0000 0.0000 0.0000
# 3 34.2158 42.3261 116.1584 0.0000 0.0000 0.0000
# 4 0.0000 0.0000 0.0000 66.1048 0.0000 0.0000
# 5 0.0000 0.0000 0.0000 0.0000 85.7602 0.0000
# 6 0.0000 0.0000 0.0000 0.0000 0.0000 76.1078
#
#
#
# Elastic Compliance Matrix: (Units=1/GPa)
#
#
# Indices 1 2 3 4 5 6 
#
# 1 0.023062 -0.007847 -0.003934 0.000000 0.000000 0.000000
# 2 -0.007847 0.012237 -0.002147 0.000000 0.000000 0.000000
# 3 -0.003934 -0.002147 0.010550 0.000000 0.000000 0.000000
# 4 0.000000 0.000000 0.000000 0.015128 0.000000 0.000000
# 5 0.000000 0.000000 0.000000 0.000000 0.011660 0.000000
# 6 0.000000 0.000000 0.000000 0.000000 0.000000 0.013139
#
#
# Mechanical properties :
#
#
# Convention : Reuss Voigt Hill
#
# Bulk Modulus (GPa) = 55.57902 61.20007 58.38955
# Shear Modulus (GPa) = 41.79497 57.39941 49.59719
#
# Velocity S-wave (km/s) = 4.51279 5.28856 4.91600
# Velocity P-wave (km/s) = 7.36448 8.19222 7.78935
#
# Compressibility (1/GPa) = 0.01799240
#
# Stress axis : x y z
#
# Youngs Moduli (GPa) = 43.36076 81.71831 94.78491
#
# Poissons Ratio (x) = 0.64127 0.37287
# Poissons Ratio (y) = 0.34026 0.20355
# Poissons Ratio (z) = 0.17057 0.17549
#
# Static dielectric constant tensor:
#      x y z
#    x 1.860430 0.000000 0.000000 
#    y 0.000000 1.752180 0.000000 
#    z 0.000000 0.000000 1.744520 
# 
# From -- ./inp_files/48968.got.cif
#   From: 2010.05.17/outbox.cif.g08.bks.cpg/sg22_25_cif.got.tgz:48968.got - 2010.06.03 23:40:54.
