data_PCOD9328292
_publ_section_title
;
Structure prediction by ZEFSAII (Michael W. Deem and Ramdas Pophale) SiO2 
 PCOD9328292
Probable space group: F 2 2 2
;
_chemical_formula_sum "Si O2"
_cell_formula_units_Z 88
_cell_length_a 20.383404
_cell_length_b 24.260025
_cell_length_c 9.012643
_cell_angle_alpha 90.000000
_cell_angle_beta 90.000000
_cell_angle_gamma 90.000000
_cell_volume 4456.769003
_symmetry_space_group_name_H-M "F 2 2 2"
_symmetry_group_IT_number 22
_symmetry_cell_setting 'orthorhombic'
loop_
_space_group_symop_operation_xyz
x,y,z
-x,-y,z
x,-y,-z
-x,y,-z
x,1/2+y,1/2+z
-x,1/2-y,1/2+z
x,1/2-y,1/2-z
-x,1/2+y,1/2-z
1/2+x,y,1/2+z
1/2-x,-y,1/2+z
1/2+x,-y,1/2-z
1/2-x,y,1/2-z
1/2+x,1/2+y,z
1/2-x,1/2-y,z
1/2+x,1/2-y,-z
1/2-x,1/2+y,-z
loop_
_atom_site_type_symbol
_atom_site_label
_atom_site_fract_x
_atom_site_fract_y
_atom_site_fract_z
Si Si1 0.853273 0.250000 0.250000
Si Si2 0.572041 0.641182 0.698603
Si Si3 0.818140 0.065058 0.171267
Si Si4 0.250000 0.250000 0.999591
Si Si5 0.843940 0.750000 0.250000
Si Si6 0.921050 0.142635 0.658109
Si Si7 0.818242 0.932701 0.176638
O O1 0.899245 0.302871 0.271854
O O2 0.805111 0.230149 0.383099
O O3 0.618012 0.593125 0.760352
O O4 0.494270 0.638089 0.723350
O O5 0.578351 0.638599 0.519968
O O6 0.750000 0.083187 0.250000
O O7 0.822955 0.999077 0.188897
O O8 0.816079 0.079914 0.997877
O O9 0.201584 0.222466 0.121320
O O10 0.888784 0.798264 0.311147
O O11 0.876211 0.096860 0.735829
O O12 0.750000 0.915114 0.250000
#
# Coordination Sequence:
#
# PCOD9328292 Si02
#       7
#     8  16  16   8   8  16  16
#     4  11  23  42  60  96 124 162 202 256 308 366
#     4  11  25  42  63  91 128 168 206 252 308 370
#     4  10  23  42  66  94 123 160 208 260 310 363
#     4  10  24  38  66  90 122 162 206 258 304 360
#     4  11  23  42  60  96 124 162 202 256 308 366
#     4  11  25  42  63  91 128 168 206 252 308 370
#     4  10  23  42  66  94 123 160 208 260 310 363
#
# _framework density 19.745245000000001
#
# number of rings (size 3 to 8) (size 9 to 14) (size 15 to 20)
#    0.000    1.455    1.818    1.636    7.636    3.636 
#    0.000    3.636    0.000    0.000    0.000    0.000 
#    0.000    0.000    0.000    0.000    0.000    0.000 
#
# Total GULP energy -122664.574110 kJ/mol
# GULP energy per Si atom -5575.662460 kJ/mol
# Density = 1.970030 g / cm^3
# Si number density = 19.745245 Si / 1000 Ang^3
#
#
#
# Elastic Constant Matrix: (Units=GPa)
#
#
# Indices 1 2 3 4 5 6 
#
# 1 191.8256 55.9330 67.9248 0.0000 0.0000 0.0000
# 2 55.9330 47.5873 39.1146 0.0000 0.0000 0.0000
# 3 67.9248 39.1146 80.2795 0.0000 -0.0001 0.0000
# 4 0.0000 0.0000 0.0000 26.7955 0.0000 0.0000
# 5 0.0000 0.0000 -0.0001 0.0000 33.7875 0.0000
# 6 0.0000 0.0000 0.0000 0.0000 0.0000 -2.4352
#
#
#
# Elastic Compliance Matrix: (Units=1/GPa)
#
#
# Indices 1 2 3 4 5 6 
#
# 1 0.008615 -0.006897 -0.003929 0.000000 0.000000 0.000000
# 2 -0.006897 0.040572 -0.013933 0.000000 0.000000 0.000000
# 3 -0.003929 -0.013933 0.022569 0.000000 0.000000 0.000000
# 4 0.000000 0.000000 0.000000 0.037320 0.000000 0.000000
# 5 0.000000 0.000000 0.000000 0.000000 0.029597 0.000000
# 6 0.000000 0.000000 0.000000 0.000000 0.000000 -0.410642
#
#
# Mechanical properties :
#
#
# Convention : Reuss Voigt Hill
#
# Bulk Modulus (GPa) = 44.96441 71.73749 58.35095
# Shear Modulus (GPa) = -23.25174 22.07755 -0.58710
#
# Velocity S-wave (km/s) = -3.43532 3.34746 -0.54588
# Velocity P-wave (km/s) = 2.66204 7.16596 5.40544
#
# Compressibility (1/GPa) = 0.02223981
#
# Stress axis : x y z
#
# Youngs Moduli (GPa) = 116.07224 24.64744 44.30765
#
# Poissons Ratio (x) = 0.16998 0.17409
# Poissons Ratio (y) = 0.80050 0.61733
# Poissons Ratio (z) = 0.45607 0.34341
#
# Static dielectric constant tensor:
#      x y z
#    x 1.668470 0.000000 0.000000 
#    y 0.000000 1.690890 0.000000 
#    z 0.000000 0.000000 1.709510 
# 
# From -- ./inp_files/12689.got.cif
#   From: 2010.05.17/outbox.cif.g08.bks.cpg/sg22_7_cif.got.tgz:12689.got - 2010.06.03 23:40:54.
