data_PCOD9328408
_publ_section_title
;
Structure prediction by ZEFSAII (Michael W. Deem and Ramdas Pophale) SiO2 
 PCOD9328408
Probable space group: F 2 2 2
;
_chemical_formula_sum "Si O2"
_cell_formula_units_Z 64
_cell_length_a 11.743723
_cell_length_b 20.291812
_cell_length_c 11.253167
_cell_angle_alpha 90.000000
_cell_angle_beta 90.000000
_cell_angle_gamma 90.000000
_cell_volume 2681.645668
_symmetry_space_group_name_H-M "F 2 2 2"
_symmetry_group_IT_number 22
_symmetry_cell_setting 'orthorhombic'
loop_
_space_group_symop_operation_xyz
x,y,z
-x,-y,z
x,-y,-z
-x,y,-z
x,1/2+y,1/2+z
-x,1/2-y,1/2+z
x,1/2-y,1/2-z
-x,1/2+y,1/2-z
1/2+x,y,1/2+z
1/2-x,-y,1/2+z
1/2+x,-y,1/2-z
1/2-x,y,1/2-z
1/2+x,1/2+y,z
1/2-x,1/2-y,z
1/2+x,1/2-y,-z
1/2-x,1/2+y,-z
loop_
_atom_site_type_symbol
_atom_site_label
_atom_site_fract_x
_atom_site_fract_y
_atom_site_fract_z
Si Si1 0.362524 0.925418 0.952020
Si Si2 0.443326 0.909013 0.246755
Si Si3 0.500000 0.874073 0.500000
Si Si4 0.216773 0.325238 0.605499
Si Si5 0.250000 0.981665 0.750000
O O1 0.469077 0.905028 0.865133
O O2 0.257726 0.936515 0.863776
O O3 0.313190 0.875130 0.050726
O O4 0.381715 0.000000 0.000000
O O5 0.503327 0.913463 0.376020
O O6 0.356312 0.848543 0.277172
O O7 0.360128 0.971783 0.243644
O O8 0.613444 0.830859 0.509728
O O9 0.250000 0.250000 0.612327
#
# Coordination Sequence:
#
# PCOD9328408 Si02
#       5
#    16  16   8  16   8
#     4  12  24  47  82 119 163 212 285 347 413 497
#     4  10  24  47  74 115 158 213 266 348 417 488
#     4   8  20  48  71 108 155 218 264 332 414 488
#     4  10  23  51  76 111 167 215 275 346 418 504
#     4  12  24  44  68 122 156 202 270 346 420 478
#
# _framework density 23.865942
#
# number of rings (size 3 to 8) (size 9 to 14) (size 15 to 20)
#    1.500    0.000    2.500    2.250    0.000    2.000 
#    9.000    9.375    5.500    0.000    0.000    0.000 
#    0.000    0.000    0.000    0.000    0.000    0.000 
#
# Total GULP energy -89166.500754 kJ/mol
# GULP energy per Si atom -5572.906297 kJ/mol
# Density = 2.381162 g / cm^3
# Si number density = 23.865942 Si / 1000 Ang^3
#
#
#
# Elastic Constant Matrix: (Units=GPa)
#
#
# Indices 1 2 3 4 5 6 
#
# 1 195.8416 87.4755 84.9359 0.0000 0.0000 0.0000
# 2 87.4755 185.7886 100.0755 0.0000 0.0000 0.0000
# 3 84.9359 100.0755 230.2433 0.0000 0.0000 0.0000
# 4 0.0000 0.0000 0.0000 41.1572 0.0000 0.0000
# 5 0.0000 0.0000 0.0000 0.0000 41.1179 0.0000
# 6 0.0000 0.0000 0.0000 0.0000 0.0000 29.0035
#
#
#
# Elastic Compliance Matrix: (Units=1/GPa)
#
#
# Indices 1 2 3 4 5 6 
#
# 1 0.006824 -0.002425 -0.001463 0.000000 0.000000 0.000000
# 2 -0.002425 0.007889 -0.002535 0.000000 0.000000 0.000000
# 3 -0.001463 -0.002535 0.005985 0.000000 0.000000 0.000000
# 4 0.000000 0.000000 0.000000 0.024297 0.000000 0.000000
# 5 0.000000 0.000000 0.000000 0.000000 0.024320 0.000000
# 6 0.000000 0.000000 0.000000 0.000000 0.000000 0.034479
#
#
# Mechanical properties :
#
#
# Convention : Reuss Voigt Hill
#
# Bulk Modulus (GPa) = 127.34742 128.53857 127.94300
# Shear Modulus (GPa) = 41.92631 44.88152 43.40391
#
# Velocity S-wave (km/s) = 4.19590 4.34126 4.26920
# Velocity P-wave (km/s) = 8.77208 8.89405 8.83328
#
# Compressibility (1/GPa) = 0.00785253
#
# Stress axis : x y z
#
# Youngs Moduli (GPa) = 146.54502 126.75291 167.09022
#
# Poissons Ratio (x) = 0.30733 0.24452
# Poissons Ratio (y) = 0.35531 0.42352
# Poissons Ratio (z) = 0.21446 0.32128
#
# Static dielectric constant tensor:
#      x y z
#    x 2.075810 0.000000 0.000000 
#    y 0.000000 1.845240 0.000000 
#    z 0.000000 0.000000 2.115630 
# 
# From -- ./inp_files/17964.got.cif
#   From: 2010.05.17/outbox.cif.g08.bks.cpg/sg22_9_cif.got.tgz:17964.got - 2010.06.03 23:40:54.
