data_PCOD9328874
_publ_section_title
;
Structure prediction by ZEFSAII (Michael W. Deem and Ramdas Pophale) SiO2 
 PCOD9328874
Probable space group: F 2 2 2
;
_chemical_formula_sum "Si O2"
_cell_formula_units_Z 56
_cell_length_a 8.293139
_cell_length_b 11.197396
_cell_length_c 26.455508
_cell_angle_alpha 90.000000
_cell_angle_beta 90.000000
_cell_angle_gamma 90.000000
_cell_volume 2456.699782
_symmetry_space_group_name_H-M "F 2 2 2"
_symmetry_group_IT_number 22
_symmetry_cell_setting 'orthorhombic'
loop_
_space_group_symop_operation_xyz
x,y,z
-x,-y,z
x,-y,-z
-x,y,-z
x,1/2+y,1/2+z
-x,1/2-y,1/2+z
x,1/2-y,1/2-z
-x,1/2+y,1/2-z
1/2+x,y,1/2+z
1/2-x,-y,1/2+z
1/2+x,-y,1/2-z
1/2-x,y,1/2-z
1/2+x,1/2+y,z
1/2-x,1/2-y,z
1/2+x,1/2-y,-z
1/2-x,1/2+y,-z
loop_
_atom_site_type_symbol
_atom_site_label
_atom_site_fract_x
_atom_site_fract_y
_atom_site_fract_z
Si Si1 0.186567 0.613246 0.090559
Si Si2 0.750000 0.250000 0.250000
Si Si3 0.845570 0.061420 0.828525
Si Si4 0.527783 0.329769 0.678257
Si Si5 0.500000 0.000000 0.000000
O O1 0.250000 0.750000 0.089342
O O2 0.304032 0.520589 0.121583
O O3 0.029095 0.621769 0.125164
O O4 0.121901 0.572526 0.036384
O O5 0.627862 0.320751 0.286107
O O6 0.673586 0.088382 0.802491
O O7 0.909926 0.196604 0.833771
O O8 0.000000 0.000000 0.803132
#
# Coordination Sequence:
#
# PCOD9328874 Si02
#       5
#    16   4  16  16   4
#     4  12  24  48  74 106 151 204 260 334 393 484
#     4  12  24  50  80 124 154 222 272 326 416 468
#     4  11  22  43  76 107 150 209 250 335 406 458
#     4  11  24  44  77 108 158 195 269 331 391 485
#     4  12  28  44  78 114 148 208 266 328 430 466
#
# _framework density 22.794806999999999
#
# number of rings (size 3 to 8) (size 9 to 14) (size 15 to 20)
#    0.000    0.571    7.143    0.000    0.000    4.571 
#    0.000   17.143    0.000    0.000    0.000    0.000 
#    0.000    0.000    0.000    0.000    0.000    0.000 
#
# Total GULP energy -78116.160089 kJ/mol
# GULP energy per Si atom -5579.725721 kJ/mol
# Density = 2.274293 g / cm^3
# Si number density = 22.794807 Si / 1000 Ang^3
#
#
#
# Elastic Constant Matrix: (Units=GPa)
#
#
# Indices 1 2 3 4 5 6 
#
# 1 197.7127 81.6568 65.5428 0.0000 0.0000 0.0000
# 2 81.6568 205.3326 59.7984 0.0000 0.0000 0.0000
# 3 65.5428 59.7984 125.5667 0.0000 0.0000 0.0000
# 4 0.0000 0.0000 0.0000 37.5326 0.0000 0.0000
# 5 0.0000 0.0000 0.0000 0.0000 31.3355 0.0000
# 6 0.0000 0.0000 0.0000 0.0000 0.0000 54.4533
#
#
#
# Elastic Compliance Matrix: (Units=1/GPa)
#
#
# Indices 1 2 3 4 5 6 
#
# 1 0.006706 -0.001913 -0.002590 0.000000 0.000000 0.000000
# 2 -0.001913 0.006200 -0.001954 0.000000 0.000000 0.000000
# 3 -0.002590 -0.001954 0.010246 0.000000 0.000000 0.000000
# 4 0.000000 0.000000 0.000000 0.026644 0.000000 0.000000
# 5 0.000000 0.000000 0.000000 0.000000 0.031913 0.000000
# 6 0.000000 0.000000 0.000000 0.000000 0.000000 0.018364
#
#
# Mechanical properties :
#
#
# Convention : Reuss Voigt Hill
#
# Bulk Modulus (GPa) = 97.66231 104.73421 101.19826
# Shear Modulus (GPa) = 42.95559 46.10521 44.53040
#
# Velocity S-wave (km/s) = 4.34573 4.50223 4.42467
# Velocity P-wave (km/s) = 8.25334 8.54828 8.40210
#
# Compressibility (1/GPa) = 0.01023936
#
# Stress axis : x y z
#
# Youngs Moduli (GPa) = 149.11319 161.29206 97.59699
#
# Poissons Ratio (x) = 0.30852 0.25274
# Poissons Ratio (y) = 0.28523 0.19072
# Poissons Ratio (z) = 0.38614 0.31519
#
# Static dielectric constant tensor:
#      x y z
#    x 1.867740 0.000000 0.000000 
#    y 0.000000 2.034380 0.000000 
#    z 0.000000 0.000000 1.864370 
# 
# From -- ./inp_files/51544.got.cif
#   From: 2010.05.17/outbox.cif.g08.bks.cpg/sg22_26_cif.got.tgz:51544.got - 2010.06.03 23:40:54.
