data_PCOD9328628
_publ_section_title
;
Structure prediction by ZEFSAII (Michael W. Deem and Ramdas Pophale) SiO2 
 PCOD9328628
Probable space group: F 2 2 2
;
_chemical_formula_sum "Si O2"
_cell_formula_units_Z 64
_cell_length_a 30.078702
_cell_length_b 5.226024
_cell_length_c 18.229693
_cell_angle_alpha 90.000000
_cell_angle_beta 90.000000
_cell_angle_gamma 90.000000
_cell_volume 2865.562240
_symmetry_space_group_name_H-M "F 2 2 2"
_symmetry_group_IT_number 22
_symmetry_cell_setting 'orthorhombic'
loop_
_space_group_symop_operation_xyz
x,y,z
-x,-y,z
x,-y,-z
-x,y,-z
x,1/2+y,1/2+z
-x,1/2-y,1/2+z
x,1/2-y,1/2-z
-x,1/2+y,1/2-z
1/2+x,y,1/2+z
1/2-x,-y,1/2+z
1/2+x,-y,1/2-z
1/2-x,y,1/2-z
1/2+x,1/2+y,z
1/2-x,1/2-y,z
1/2+x,1/2-y,-z
1/2-x,1/2+y,-z
loop_
_atom_site_type_symbol
_atom_site_label
_atom_site_fract_x
_atom_site_fract_y
_atom_site_fract_z
Si Si1 0.072578 0.177459 0.059730
Si Si2 0.622956 0.010305 0.298275
Si Si3 0.750000 0.250000 0.750000
Si Si4 0.796933 0.646715 0.859119
Si Si5 0.149534 0.000000 0.500000
Si Si6 0.500000 0.000000 0.000000
O O1 0.116584 0.269491 0.017110
O O2 0.036679 0.400755 0.060608
O O3 0.089822 0.058500 0.135143
O O4 0.049154 0.000000 0.000000
O O5 0.605681 0.250000 0.250000
O O6 0.669659 0.132145 0.329045
O O7 0.627850 0.750000 0.250000
O O8 0.780654 0.437152 0.799589
O O9 0.750000 0.750000 0.886640
O O10 0.822209 0.527806 0.927172
#
# Coordination Sequence:
#
# PCOD9328628 Si02
#       6
#    16  16   4  16   8   4
#     4  11  24  49  80 111 150 199 254 317 393 473
#     4  12  28  49  82 114 158 209 262 319 389 463
#     4  12  30  48  70 104 162 222 266 324 394 432
#     4  12  29  45  73 109 159 216 264 328 377 453
#     4  11  26  45  74 112 148 198 268 319 382 449
#     4  10  26  48  88 114 148 196 260 320 394 482
#
# _framework density 22.334185000000002
#
# number of rings (size 3 to 8) (size 9 to 14) (size 15 to 20)
#    0.000    0.500    2.500    3.750   19.250    0.000 
#    0.000    0.000    5.500    0.000    0.000    0.000 
#    0.000    0.000    0.000    0.000    0.000    0.000 
#
# Total GULP energy -89242.731617 kJ/mol
# GULP energy per Si atom -5577.670726 kJ/mol
# Density = 2.228335 g / cm^3
# Si number density = 22.334185 Si / 1000 Ang^3
#
#
#
# Elastic Constant Matrix: (Units=GPa)
#
#
# Indices 1 2 3 4 5 6 
#
# 1 160.1964 52.8515 81.3115 0.0000 0.0009 0.0175
# 2 52.8515 114.4761 57.6904 0.0009 0.0013 0.0383
# 3 81.3115 57.6904 135.2457 0.0000 0.0002 0.0194
# 4 0.0000 0.0009 0.0000 46.0829 0.0007 0.0359
# 5 0.0009 0.0013 0.0002 0.0007 10.8605 -0.0223
# 6 0.0175 0.0383 0.0194 0.0359 -0.0223-1191.6504
#
#
#
# Elastic Compliance Matrix: (Units=1/GPa)
#
#
# Indices 1 2 3 4 5 6 
#
# 1 0.009290 -0.001878 -0.004784 0.000000 0.000000 0.000000
# 2 -0.001878 0.011507 -0.003779 0.000000 -0.000001 0.000000
# 3 -0.004784 -0.003779 0.011883 0.000000 0.000001 0.000000
# 4 0.000000 0.000000 0.000000 0.021700 -0.000001 0.000001
# 5 0.000000 -0.000001 0.000001 -0.000001 0.092077 -0.000002
# 6 0.000000 0.000000 0.000000 0.000001 -0.000002 -0.000839
#
#
# Mechanical properties :
#
#
# Convention : Reuss Voigt Hill
#
# Bulk Modulus (GPa) = 84.77186 88.18058 86.47622
# Shear Modulus (GPa) = 29.33700 -212.40376 -91.53338
#
# Velocity S-wave (km/s) = 3.62822 -9.76263 -6.40878
# Velocity P-wave (km/s) = 7.45590 9.35471 3.99500
#
# Compressibility (1/GPa) = 0.01179637
#
# Stress axis : x y z
#
# Youngs Moduli (GPa) = 107.63820 86.90255 84.15731
#
# Poissons Ratio (x) = 0.16321 0.40264
# Poissons Ratio (y) = 0.20216 0.31806
# Poissons Ratio (z) = 0.51498 0.32844
#
# Static dielectric constant tensor:
#      x y z
#    x 1.797070 0.000000 0.000000 
#    y 0.000000 1.901600 -0.000020 
#    z 0.000000 -0.000020 2.035490 
# 
# From -- ./inp_files/40226.got.cif
#   From: 2010.05.17/outbox.cif.g08.bks.cpg/sg22_21_cif.got.tgz:40226.got - 2010.06.03 23:40:54.
