data_PCOD9328180
_publ_section_title
;
Structure prediction by ZEFSAII (Michael W. Deem and Ramdas Pophale) SiO2 
 PCOD9328180
Probable space group: F 2 2 2
;
_chemical_formula_sum "Si O2"
_cell_formula_units_Z 64
_cell_length_a 12.271171
_cell_length_b 8.103411
_cell_length_c 28.666311
_cell_angle_alpha 90.000000
_cell_angle_beta 90.000000
_cell_angle_gamma 90.000000
_cell_volume 2850.530439
_symmetry_space_group_name_H-M "F 2 2 2"
_symmetry_group_IT_number 22
_symmetry_cell_setting 'orthorhombic'
loop_
_space_group_symop_operation_xyz
x,y,z
-x,-y,z
x,-y,-z
-x,y,-z
x,1/2+y,1/2+z
-x,1/2-y,1/2+z
x,1/2-y,1/2-z
-x,1/2+y,1/2-z
1/2+x,y,1/2+z
1/2-x,-y,1/2+z
1/2+x,-y,1/2-z
1/2-x,y,1/2-z
1/2+x,1/2+y,z
1/2-x,1/2-y,z
1/2+x,1/2-y,-z
1/2-x,1/2+y,-z
loop_
_atom_site_type_symbol
_atom_site_label
_atom_site_fract_x
_atom_site_fract_y
_atom_site_fract_z
Si Si1 0.500000 0.000000 0.412024
Si Si2 0.250000 0.250000 0.524580
Si Si3 0.750000 0.250000 0.250000
Si Si4 0.768006 0.445431 0.596252
Si Si5 0.372113 0.498631 0.685129
Si Si6 0.250000 0.750000 0.750000
Si Si7 0.000000 0.263906 0.500000
O O1 0.610003 0.974616 0.383535
O O2 0.499877 0.851138 0.449412
O O3 0.234170 0.420784 0.554208
O O4 0.130157 0.211248 0.501055
O O5 0.672140 0.348634 0.284583
O O6 0.750000 0.250000 0.586380
O O7 0.680289 0.498174 0.634113
O O8 0.500000 0.500000 0.681017
O O9 0.326887 0.649945 0.715215
#
# Coordination Sequence:
#
# PCOD9328180 Si02
#       7
#     8   8   4  16  16   4   8
#     4   9  22  44  68  98 140 184 228 298 352 422
#     4  10  23  46  71 107 140 194 244 303 357 442
#     4  10  24  42  68 100 132 190 232 286 356 420
#     4  11  24  44  70 103 143 186 236 294 367 421
#     4  11  23  43  68 101 138 180 235 287 354 427
#     4  10  22  46  62 100 140 178 224 294 340 426
#     4   9  20  44  71  94 145 181 242 293 359 416
#
# _framework density 22.451962999999999
#
# number of rings (size 3 to 8) (size 9 to 14) (size 15 to 20)
#    0.000    1.750    1.250    1.500    1.750    6.000 
#    9.000    6.250    0.000    0.000    0.000    0.000 
#    0.000    0.000    0.000    0.000    0.000    0.000 
#
# Total GULP energy -89086.481716 kJ/mol
# GULP energy per Si atom -5567.905107 kJ/mol
# Density = 2.240086 g / cm^3
# Si number density = 22.451963 Si / 1000 Ang^3
#
#
#
# Elastic Constant Matrix: (Units=GPa)
#
#
# Indices 1 2 3 4 5 6 
#
# 1 291.8199 67.6057 66.0101 0.0000 0.0000 0.0000
# 2 67.6057 108.1454 32.7899 0.0000 0.0000 0.0000
# 3 66.0101 32.7899 72.8488 0.0000 0.0000 0.0000
# 4 0.0000 0.0000 0.0000 25.6275 0.0000 0.0000
# 5 0.0000 0.0000 0.0000 0.0000 -24.7144 0.0000
# 6 0.0000 0.0000 0.0000 0.0000 0.0000 40.5283
#
#
#
# Elastic Compliance Matrix: (Units=1/GPa)
#
#
# Indices 1 2 3 4 5 6 
#
# 1 0.004616 -0.001873 -0.003340 0.000000 0.000000 0.000000
# 2 -0.001873 0.011468 -0.003465 0.000000 0.000000 0.000000
# 3 -0.003340 -0.003465 0.018313 0.000000 0.000000 0.000000
# 4 0.000000 0.000000 0.000000 0.039021 0.000000 0.000000
# 5 0.000000 0.000000 0.000000 0.000000 -0.040462 0.000000
# 6 0.000000 0.000000 0.000000 0.000000 0.000000 0.024674
#
#
# Mechanical properties :
#
#
# Convention : Reuss Voigt Hill
#
# Bulk Modulus (GPa) = 58.67812 89.51396 74.09604
# Shear Modulus (GPa) = 61.98446 28.71551 45.34998
#
# Velocity S-wave (km/s) = 5.25999 3.58016 4.49917
# Velocity P-wave (km/s) = 7.94240 7.55286 7.75008
#
# Compressibility (1/GPa) = 0.01704213
#
# Stress axis : x y z
#
# Youngs Moduli (GPa) = 216.63005 87.19705 54.60679
#
# Poissons Ratio (x) = 0.16333 0.18237
# Poissons Ratio (y) = 0.40578 0.18920
# Poissons Ratio (z) = 0.72348 0.30211
#
# Static dielectric constant tensor:
#      x y z
#    x 1.851740 0.000000 0.000000 
#    y 0.000000 1.896170 0.000000 
#    z 0.000000 0.000000 1.817040 
# 
# From -- ./inp_files/55842.got.cif
#   From: 2010.05.17/outbox.cif.g08.bks.cpg/sg22_28_cif.got.tgz:55842.got - 2010.06.03 23:40:54.
