data_PCOD9328756
_publ_section_title
;
Structure prediction by ZEFSAII (Michael W. Deem and Ramdas Pophale) SiO2 
 PCOD9328756
Probable space group: F 2 2 2
;
_chemical_formula_sum "Si O2"
_cell_formula_units_Z 100
_cell_length_a 17.135222
_cell_length_b 14.602064
_cell_length_c 20.684874
_cell_angle_alpha 90.000000
_cell_angle_beta 90.000000
_cell_angle_gamma 90.000000
_cell_volume 5175.554221
_symmetry_space_group_name_H-M "F 2 2 2"
_symmetry_group_IT_number 22
_symmetry_cell_setting 'orthorhombic'
loop_
_space_group_symop_operation_xyz
x,y,z
-x,-y,z
x,-y,-z
-x,y,-z
x,1/2+y,1/2+z
-x,1/2-y,1/2+z
x,1/2-y,1/2-z
-x,1/2+y,1/2-z
1/2+x,y,1/2+z
1/2-x,-y,1/2+z
1/2+x,-y,1/2-z
1/2-x,y,1/2-z
1/2+x,1/2+y,z
1/2-x,1/2-y,z
1/2+x,1/2-y,-z
1/2-x,1/2+y,-z
loop_
_atom_site_type_symbol
_atom_site_label
_atom_site_fract_x
_atom_site_fract_y
_atom_site_fract_z
Si Si1 0.178618 0.953271 0.436388
Si Si2 0.354297 0.935863 0.412231
Si Si3 0.500000 0.500000 0.000000
Si Si4 0.613950 0.252140 0.452442
Si Si5 0.579982 0.439278 0.663334
Si Si6 0.077370 0.062856 0.185862
Si Si7 0.936118 0.756893 0.094854
O O1 0.271272 0.964228 0.439989
O O2 0.153927 0.848163 0.439672
O O3 0.141940 0.000000 0.500000
O O4 0.145063 0.001025 0.372726
O O5 0.435524 0.951336 0.453468
O O6 0.348921 0.827079 0.409156
O O7 0.361858 0.995731 0.348370
O O8 0.615556 0.229703 0.529643
O O9 0.524117 0.253281 0.430811
O O10 0.500000 0.500000 0.656615
O O11 0.593796 0.421003 0.739102
O O12 0.579546 0.339947 0.629205
O O13 0.070704 0.155786 0.143033
O O14 0.000000 0.000000 0.183501
#
# Coordination Sequence:
#
# PCOD9328756 Si02
#       7
#    16  16   4  16  16  16  16
#     4  12  25  42  65  95 134 178 215 275 334 398
#     4  12  23  42  66  97 132 167 222 275 337 389
#     4  12  20  40  68  96 124 168 214 276 328 384
#     4  11  22  38  66 100 131 169 216 277 335 390
#     4  11  24  43  66  93 133 180 222 263 323 403
#     4  11  23  41  67  94 128 177 223 268 322 390
#     4  11  21  39  69  97 129 170 224 271 326 393
#
# _framework density 19.321601999999999
#
# number of rings (size 3 to 8) (size 9 to 14) (size 15 to 20)
#    0.000    0.640    6.400    2.880    0.000    0.960 
#    0.000    1.600    0.000    3.840    0.000    0.000 
#    0.000    0.000    0.000    0.000    0.000    0.000 
#
# Total GULP energy -139391.568923 kJ/mol
# GULP energy per Si atom -5575.662757 kJ/mol
# Density = 1.927762 g / cm^3
# Si number density = 19.321602 Si / 1000 Ang^3
#
#
#
# Elastic Constant Matrix: (Units=GPa)
#
#
# Indices 1 2 3 4 5 6 
#
# 1 79.5205 37.7947 40.8428 0.0000 0.0000 0.0000
# 2 37.7947 125.9185 72.3742 0.0000 0.0000 0.0000
# 3 40.8428 72.3742 97.1891 0.0000 0.0000 0.0000
# 4 0.0000 0.0000 0.0000 27.2376 0.0000 0.0000
# 5 0.0000 0.0000 0.0000 0.0000 2.1799 0.0000
# 6 0.0000 0.0000 0.0000 0.0000 0.0000 -17.2009
#
#
#
# Elastic Compliance Matrix: (Units=1/GPa)
#
#
# Indices 1 2 3 4 5 6 
#
# 1 0.016234 -0.001663 -0.005583 0.000000 0.000000 0.000000
# 2 -0.001663 0.014055 -0.009767 0.000000 0.000000 0.000000
# 3 -0.005583 -0.009767 0.019909 0.000000 0.000000 0.000000
# 4 0.000000 0.000000 0.000000 0.036714 0.000000 0.000000
# 5 0.000000 0.000000 0.000000 0.000000 0.458741 0.000000
# 6 0.000000 0.000000 0.000000 0.000000 0.000000 -0.058136
#
#
# Mechanical properties :
#
#
# Convention : Reuss Voigt Hill
#
# Bulk Modulus (GPa) = 61.84493 67.18349 64.51421
# Shear Modulus (GPa) = 9.48887 12.55108 11.01997
#
# Velocity S-wave (km/s) = 2.21848 2.55147 2.39078
# Velocity P-wave (km/s) = 6.21610 6.59747 6.40962
#
# Compressibility (1/GPa) = 0.01616948
#
# Stress axis : x y z
#
# Youngs Moduli (GPa) = 61.60051 71.14983 50.22863
#
# Poissons Ratio (x) = 0.11835 0.28044
# Poissons Ratio (y) = 0.10247 0.49060
# Poissons Ratio (z) = 0.34393 0.69494
#
# Static dielectric constant tensor:
#      x y z
#    x 1.682870 0.000000 0.000000 
#    y 0.000000 1.706400 0.000000 
#    z 0.000000 0.000000 1.691130 
# 
# From -- ./inp_files/44265.got.cif
#   From: 2010.05.17/outbox.cif.g08.bks.cpg/sg22_23_cif.got.tgz:44265.got - 2010.06.03 23:40:54.
