data_PCOD9328897
_publ_section_title
;
Structure prediction by ZEFSAII (Michael W. Deem and Ramdas Pophale) SiO2 
 PCOD9328897
Probable space group: F 2 2 2
;
_chemical_formula_sum "Si O2"
_cell_formula_units_Z 48
_cell_length_a 11.702427
_cell_length_b 18.402404
_cell_length_c 9.182972
_cell_angle_alpha 90.000000
_cell_angle_beta 90.000000
_cell_angle_gamma 90.000000
_cell_volume 1977.578635
_symmetry_space_group_name_H-M "F 2 2 2"
_symmetry_group_IT_number 22
_symmetry_cell_setting 'orthorhombic'
loop_
_space_group_symop_operation_xyz
x,y,z
-x,-y,z
x,-y,-z
-x,y,-z
x,1/2+y,1/2+z
-x,1/2-y,1/2+z
x,1/2-y,1/2-z
-x,1/2+y,1/2-z
1/2+x,y,1/2+z
1/2-x,-y,1/2+z
1/2+x,-y,1/2-z
1/2-x,y,1/2-z
1/2+x,1/2+y,z
1/2-x,1/2-y,z
1/2+x,1/2-y,-z
1/2-x,1/2+y,-z
loop_
_atom_site_type_symbol
_atom_site_label
_atom_site_fract_x
_atom_site_fract_y
_atom_site_fract_z
Si Si1 0.280304 0.072802 0.087840
Si Si2 0.541666 0.806519 0.156513
Si Si3 0.825424 0.326220 0.371214
O O1 0.250000 0.052462 0.250000
O O2 0.390794 0.123721 0.103890
O O3 0.183191 0.123829 0.012363
O O4 0.300299 0.000000 0.000000
O O5 0.616736 0.750000 0.250000
O O6 0.442481 0.820423 0.277905
O O7 0.500000 0.774382 0.000000
O O8 0.750000 0.366933 0.250000
O O9 0.750000 0.250000 0.396554
#
# Coordination Sequence:
#
# PCOD9328897 Si02
#       3
#    16  16  16
#     4  12  30  50  75 114 168 213 270 332 415 481
#     4  12  26  46  84 117 153 206 279 337 405 478
#     4  11  22  48  79 113 159 201 269 345 394 472
#
# _framework density 24.272106000000001
#
# number of rings (size 3 to 8) (size 9 to 14) (size 15 to 20)
#    0.000    0.333    6.667    1.000    9.333    0.667 
#    0.000    1.667    0.000    0.000    0.000    0.000 
#    0.000    0.000    0.000    0.000    0.000    0.000 
#
# Total GULP energy -66911.685349 kJ/mol
# GULP energy per Si atom -5575.973779 kJ/mol
# Density = 2.421686 g / cm^3
# Si number density = 24.272106 Si / 1000 Ang^3
#
#
#
# Elastic Constant Matrix: (Units=GPa)
#
#
# Indices 1 2 3 4 5 6 
#
# 1 98.5619 24.9911 54.2981 0.0000 0.0000 0.0000
# 2 24.9911 133.6682 108.7508 0.0000 0.0000 0.0000
# 3 54.2981 108.7508 231.3892 0.0000 0.0000 0.0000
# 4 0.0000 0.0000 0.0000 69.0491 0.0000 0.0000
# 5 0.0000 0.0000 0.0000 0.0000 41.1831 0.0000
# 6 0.0000 0.0000 0.0000 0.0000 0.0000 16.5772
#
#
#
# Elastic Compliance Matrix: (Units=1/GPa)
#
#
# Indices 1 2 3 4 5 6 
#
# 1 0.011653 0.000075 -0.002770 0.000000 0.000000 0.000000
# 2 0.000075 0.012113 -0.005711 0.000000 0.000000 0.000000
# 3 -0.002770 -0.005711 0.007656 0.000000 0.000000 0.000000
# 4 0.000000 0.000000 0.000000 0.014482 0.000000 0.000000
# 5 0.000000 0.000000 0.000000 0.000000 0.024282 0.000000
# 6 0.000000 0.000000 0.000000 0.000000 0.000000 0.060324
#
#
# Mechanical properties :
#
#
# Convention : Reuss Voigt Hill
#
# Bulk Modulus (GPa) = 68.44381 93.29991 80.87186
# Shear Modulus (GPa) = 32.85339 43.73382 38.29360
#
# Velocity S-wave (km/s) = 3.68305 4.24938 3.97631
# Velocity P-wave (km/s) = 6.80781 7.91195 7.38055
#
# Compressibility (1/GPa) = 0.01461052
#
# Stress axis : x y z
#
# Youngs Moduli (GPa) = 85.81688 82.55308 130.62343
#
# Poissons Ratio (x) = -0.00616 0.36176
# Poissons Ratio (y) = -0.00640 0.74595
# Poissons Ratio (z) = 0.23767 0.47144
#
# Static dielectric constant tensor:
#      x y z
#    x 2.223920 0.000000 0.000000 
#    y 0.000000 1.986260 0.000000 
#    z 0.000000 0.000000 1.971620 
# 
# From -- ./inp_files/9343.got.cif
#   From: 2010.05.17/outbox.cif.g08.bks.cpg/sg22_5_cif.got.tgz:9343.got - 2010.06.03 23:40:54.
