data_PCOD9328427
_publ_section_title
;
Structure prediction by ZEFSAII (Michael W. Deem and Ramdas Pophale) SiO2 
 PCOD9328427
Probable space group: F 2 2 2
;
_chemical_formula_sum "Si O2"
_cell_formula_units_Z 84
_cell_length_a 19.820324
_cell_length_b 9.118792
_cell_length_c 22.959121
_cell_angle_alpha 90.000000
_cell_angle_beta 90.000000
_cell_angle_gamma 90.000000
_cell_volume 4149.572110
_symmetry_space_group_name_H-M "F 2 2 2"
_symmetry_group_IT_number 22
_symmetry_cell_setting 'orthorhombic'
loop_
_space_group_symop_operation_xyz
x,y,z
-x,-y,z
x,-y,-z
-x,y,-z
x,1/2+y,1/2+z
-x,1/2-y,1/2+z
x,1/2-y,1/2-z
-x,1/2+y,1/2-z
1/2+x,y,1/2+z
1/2-x,-y,1/2+z
1/2+x,-y,1/2-z
1/2-x,y,1/2-z
1/2+x,1/2+y,z
1/2-x,1/2-y,z
1/2+x,1/2-y,-z
1/2-x,1/2+y,-z
loop_
_atom_site_type_symbol
_atom_site_label
_atom_site_fract_x
_atom_site_fract_y
_atom_site_fract_z
Si Si1 0.750000 0.250000 0.250000
Si Si2 0.322672 0.831315 0.608027
Si Si3 0.904929 0.401280 0.829148
Si Si4 0.000000 0.000000 0.409341
Si Si5 0.481517 0.250000 0.750000
Si Si6 0.885726 0.500000 0.500000
Si Si7 0.000000 0.758507 0.000000
Si Si8 0.639882 0.539590 0.784356
O O1 0.699570 0.344750 0.212073
O O2 0.250000 0.750000 0.606192
O O3 0.370784 0.695441 0.621861
O O4 0.340632 0.930469 0.551849
O O5 0.344143 0.931040 0.663411
O O6 0.856593 0.453963 0.777468
O O7 0.937369 0.531214 0.866429
O O8 0.966306 0.317382 0.796796
O O9 0.011483 0.144060 0.447614
O O10 0.431717 0.373242 0.778344
O O11 0.937091 0.365475 0.485216
#
# Coordination Sequence:
#
# PCOD9328427 Si02
#       8
#     4  16  16   8   8   8   8  16
#     4  10  24  40  58 100 126 192 226 274 340 424
#     4  12  27  47  67  96 138 196 239 293 349 431
#     4  12  22  40  70 105 139 179 224 288 360 432
#     4  11  22  42  68 108 142 177 224 290 364 425
#     4  11  22  35  65 112 135 176 212 290 359 430
#     4  11  26  48  70 100 132 183 244 302 350 417
#     4  10  24  44  74 102 140 182 234 302 364 414
#     4  11  23  40  67  97 144 175 231 281 358 427
#
# _framework density 20.243051999999999
#
# number of rings (size 3 to 8) (size 9 to 14) (size 15 to 20)
#    0.000    0.762    5.714    1.143    2.667    0.762 
#    5.143    0.000    0.000    0.000    0.000    0.000 
#    0.000    0.000    0.000    0.000    0.000    0.000 
#
# Total GULP energy -116942.290349 kJ/mol
# GULP energy per Si atom -5568.680493 kJ/mol
# Density = 2.019698 g / cm^3
# Si number density = 20.243052 Si / 1000 Ang^3
#
#
#
# Elastic Constant Matrix: (Units=GPa)
#
#
# Indices 1 2 3 4 5 6 
#
# 1 130.0878 49.5644 55.8336 0.0000 0.0000 0.0000
# 2 49.5644 88.8762 44.8689 0.0000 0.0000 0.0000
# 3 55.8336 44.8689 131.0893 0.0000 0.0000 0.0000
# 4 0.0000 0.0000 0.0000 27.2322 0.0000 0.0000
# 5 0.0000 0.0000 0.0000 0.0000 -3.3216 0.0000
# 6 0.0000 0.0000 0.0000 0.0000 0.0000 21.7674
#
#
#
# Elastic Compliance Matrix: (Units=1/GPa)
#
#
# Indices 1 2 3 4 5 6 
#
# 1 0.010673 -0.004421 -0.003033 0.000000 0.000000 0.000000
# 2 -0.004421 0.015433 -0.003399 0.000000 0.000000 0.000000
# 3 -0.003033 -0.003399 0.010084 0.000000 0.000000 0.000000
# 4 0.000000 0.000000 0.000000 0.036721 0.000000 0.000000
# 5 0.000000 0.000000 0.000000 0.000000 -0.301057 0.000000
# 6 0.000000 0.000000 0.000000 0.000000 0.000000 0.045940
#
#
# Mechanical properties :
#
#
# Convention : Reuss Voigt Hill
#
# Bulk Modulus (GPa) = 69.04334 72.28745 70.66540
# Shear Modulus (GPa) = -32.11908 22.45470 -4.83219
#
# Velocity S-wave (km/s) = -3.98763 3.33416 -1.54670
# Velocity P-wave (km/s) = 3.60273 7.11403 5.63867
#
# Compressibility (1/GPa) = 0.01448366
#
# Stress axis : x y z
#
# Youngs Moduli (GPa) = 93.69224 64.79452 99.17079
#
# Poissons Ratio (x) = 0.28647 0.30075
# Poissons Ratio (y) = 0.41423 0.33712
# Poissons Ratio (z) = 0.28414 0.22026
#
# Static dielectric constant tensor:
#      x y z
#    x 1.796020 0.000000 0.000000 
#    y 0.000000 1.978040 0.000000 
#    z 0.000000 0.000000 1.767840 
# 
# From -- ./inp_files/49784.got.cif
#   From: 2010.05.17/outbox.cif.g08.bks.cpg/sg22_25_cif.got.tgz:49784.got - 2010.06.03 23:40:54.
