data_PCOD9328093
_publ_section_title
;
Structure prediction by ZEFSAII (Michael W. Deem and Ramdas Pophale) SiO2 
 PCOD9328093
Probable space group: F 2 2 2
;
_chemical_formula_sum "Si O2"
_cell_formula_units_Z 104
_cell_length_a 18.071336
_cell_length_b 27.080970
_cell_length_c 9.559085
_cell_angle_alpha 90.000000
_cell_angle_beta 90.000000
_cell_angle_gamma 90.000000
_cell_volume 4678.113994
_symmetry_space_group_name_H-M "F 2 2 2"
_symmetry_group_IT_number 22
_symmetry_cell_setting 'orthorhombic'
loop_
_space_group_symop_operation_xyz
x,y,z
-x,-y,z
x,-y,-z
-x,y,-z
x,1/2+y,1/2+z
-x,1/2-y,1/2+z
x,1/2-y,1/2-z
-x,1/2+y,1/2-z
1/2+x,y,1/2+z
1/2-x,-y,1/2+z
1/2+x,-y,1/2-z
1/2-x,y,1/2-z
1/2+x,1/2+y,z
1/2-x,1/2-y,z
1/2+x,1/2-y,-z
1/2-x,1/2+y,-z
loop_
_atom_site_type_symbol
_atom_site_label
_atom_site_fract_x
_atom_site_fract_y
_atom_site_fract_z
Si Si1 0.500000 0.836169 0.000000
Si Si2 0.705849 0.647962 0.538507
Si Si3 0.590259 0.614574 0.740761
Si Si4 0.088665 0.504857 0.335481
Si Si5 0.632669 0.763793 0.088276
Si Si6 0.626431 0.152710 0.514438
Si Si7 0.838225 0.907977 0.278078
O O1 0.471144 0.869935 0.127776
O O2 0.562651 0.798984 0.058378
O O3 0.662667 0.643442 0.682961
O O4 0.698520 0.702316 0.471174
O O5 0.791552 0.635072 0.533993
O O6 0.659882 0.611696 0.435459
O O7 0.606386 0.556917 0.762584
O O8 0.571397 0.632592 0.897096
O O9 0.111703 0.500000 0.500000
O O10 0.126190 0.460528 0.251392
O O11 0.000000 0.500000 0.333166
O O12 0.643127 0.750000 0.250000
O O13 0.622757 0.711486 0.014041
O O14 0.622977 0.129895 0.669534
O O15 0.750000 0.909059 0.250000
#
# Coordination Sequence:
#
# PCOD9328093 Si02
#       7
#     8  16  16  16  16  16  16
#     4  10  28  44  61 104 140 181 240 284 348 420
#     4  10  23  41  65 105 136 173 231 284 350 413
#     4  11  25  46  67  95 141 177 229 293 348 415
#     4  11  25  45  71 101 131 183 239 282 349 437
#     4  11  23  40  67  98 138 184 231 277 344 414
#     4  11  22  41  72  97 134 184 224 287 347 410
#     4  10  22  43  67 101 136 175 235 286 345 418
#
# _framework density 22.231179999999998
#
# number of rings (size 3 to 8) (size 9 to 14) (size 15 to 20)
#    0.000    1.385    3.077    0.923    6.462    4.308 
#    0.000    3.077    0.000    0.000    0.000    0.000 
#    0.000    0.000    0.000    0.000    0.000    0.000 
#
# Total GULP energy -145333.078401 kJ/mol
# GULP energy per Si atom -5589.733785 kJ/mol
# Density = 2.218058 g / cm^3
# Si number density = 22.231180 Si / 1000 Ang^3
#
#
#
# Elastic Constant Matrix: (Units=GPa)
#
#
# Indices 1 2 3 4 5 6 
#
# 1 47.3520 9.6174 26.8628 0.0000 0.0000 0.0000
# 2 9.6174 147.5441 47.7643 0.0000 0.0000 0.0000
# 3 26.8628 47.7643 129.5354 0.0000 0.0000 0.0000
# 4 0.0000 0.0000 0.0000 38.2566 0.0000 0.0000
# 5 0.0000 0.0000 0.0000 0.0000 24.8386 0.0000
# 6 0.0000 0.0000 0.0000 0.0000 0.0000 22.3892
#
#
#
# Elastic Compliance Matrix: (Units=1/GPa)
#
#
# Indices 1 2 3 4 5 6 
#
# 1 0.023935 0.000053 -0.004983 0.000000 0.000000 0.000000
# 2 0.000053 0.007696 -0.002849 0.000000 0.000000 0.000000
# 3 -0.004983 -0.002849 0.009804 0.000000 0.000000 0.000000
# 4 0.000000 0.000000 0.000000 0.026139 0.000000 0.000000
# 5 0.000000 0.000000 0.000000 0.000000 0.040260 0.000000
# 6 0.000000 0.000000 0.000000 0.000000 0.000000 0.044664
#
#
# Mechanical properties :
#
#
# Convention : Reuss Voigt Hill
#
# Bulk Modulus (GPa) = 38.64459 54.76894 46.70676
# Shear Modulus (GPa) = 28.29943 33.10935 30.70439
#
# Velocity S-wave (km/s) = 3.57173 3.86336 3.72040
# Velocity P-wave (km/s) = 5.86775 6.67760 6.28573
#
# Compressibility (1/GPa) = 0.02587684
#
# Stress axis : x y z
#
# Youngs Moduli (GPa) = 41.78061 129.92975 102.00143
#
# Poissons Ratio (x) = -0.00689 0.50828
# Poissons Ratio (y) = -0.00222 0.29060
# Poissons Ratio (z) = 0.20819 0.37016
#
# Static dielectric constant tensor:
#      x y z
#    x 1.863980 0.000000 0.000000 
#    y 0.000000 1.774260 0.000000 
#    z 0.000000 0.000000 1.809650 
# 
# From -- ./inp_files/12929.got.cif
#   From: 2010.05.17/outbox.cif.g08.bks.cpg/sg22_7_cif.got.tgz:12929.got - 2010.06.03 23:40:54.
