data_PCOD9328615
_publ_section_title
;
Structure prediction by ZEFSAII (Michael W. Deem and Ramdas Pophale) SiO2 
 PCOD9328615
Probable space group: F 2 2 2
;
_chemical_formula_sum "Si O2"
_cell_formula_units_Z 92
_cell_length_a 21.424079
_cell_length_b 12.353453
_cell_length_c 13.999738
_cell_angle_alpha 90.000000
_cell_angle_beta 90.000000
_cell_angle_gamma 90.000000
_cell_volume 3705.189601
_symmetry_space_group_name_H-M "F 2 2 2"
_symmetry_group_IT_number 22
_symmetry_cell_setting 'orthorhombic'
loop_
_space_group_symop_operation_xyz
x,y,z
-x,-y,z
x,-y,-z
-x,y,-z
x,1/2+y,1/2+z
-x,1/2-y,1/2+z
x,1/2-y,1/2-z
-x,1/2+y,1/2-z
1/2+x,y,1/2+z
1/2-x,-y,1/2+z
1/2+x,-y,1/2-z
1/2-x,y,1/2-z
1/2+x,1/2+y,z
1/2-x,1/2-y,z
1/2+x,1/2-y,-z
1/2-x,1/2+y,-z
loop_
_atom_site_type_symbol
_atom_site_label
_atom_site_fract_x
_atom_site_fract_y
_atom_site_fract_z
Si Si1 0.934764 0.621063 0.146039
Si Si2 0.069250 0.011493 0.850476
Si Si3 0.056606 0.264757 0.851990
Si Si4 0.156772 0.000000 0.500000
Si Si5 0.347989 0.822142 0.602889
Si Si6 0.250000 0.250000 0.250000
Si Si7 0.689302 0.298221 0.407606
O O1 0.934339 0.545791 0.242684
O O2 0.890023 0.559201 0.072229
O O3 0.899636 0.737870 0.144742
O O4 0.004290 0.653895 0.106494
O O5 0.120029 0.938105 0.901569
O O6 0.076190 0.139738 0.869580
O O7 0.000000 0.000000 0.889439
O O8 0.024950 0.250000 0.750000
O O9 0.124982 0.315703 0.850631
O O10 0.201559 0.916550 0.447671
O O11 0.292449 0.820740 0.679562
O O12 0.326006 0.774581 0.501456
O O13 0.750000 0.250000 0.358916
#
# Coordination Sequence:
#
# PCOD9328615 Si02
#       7
#    16  16  16   8  16   4  16
#     4  11  22  45  68 104 136 178 244 288 346 423
#     4  12  22  41  71 100 139 181 217 294 360 404
#     4  12  25  43  70  98 140 184 231 292 351 421
#     4  10  26  43  76  98 132 191 226 296 352 405
#     4  11  23  43  73 105 140 179 237 293 343 425
#     4  12  20  44  76 108 132 188 234 288 336 416
#     4  11  27  48  66 102 143 179 237 292 344 423
#
# _framework density 24.830037000000001
#
# number of rings (size 3 to 8) (size 9 to 14) (size 15 to 20)
#    0.000    0.696    6.087    1.043    0.000    5.913 
#    0.000    0.870    0.000    0.000    0.000    0.000 
#    0.000    0.000    0.000    0.000    0.000    0.000 
#
# Total GULP energy -128235.938080 kJ/mol
# GULP energy per Si atom -5575.475569 kJ/mol
# Density = 2.477352 g / cm^3
# Si number density = 24.830037 Si / 1000 Ang^3
#
#
#
# Elastic Constant Matrix: (Units=GPa)
#
#
# Indices 1 2 3 4 5 6 
#
# 1 143.0568 27.7722 11.8926 0.0000 0.0000 0.0000
# 2 27.7722 134.8766 -7.8198 0.0000 0.0000 0.0000
# 3 11.8926 -7.8198 80.1589 0.0000 0.0000 0.0000
# 4 0.0000 0.0000 0.0000 19.2000 0.0000 0.0000
# 5 0.0000 0.0000 0.0000 0.0000 57.1145 0.0000
# 6 0.0000 0.0000 0.0000 0.0000 0.0000 27.7963
#
#
#
# Elastic Compliance Matrix: (Units=1/GPa)
#
#
# Indices 1 2 3 4 5 6 
#
# 1 0.007405 -0.001597 -0.001254 0.000000 0.000000 0.000000
# 2 -0.001597 0.007801 0.000998 0.000000 0.000000 0.000000
# 3 -0.001254 0.000998 0.012759 0.000000 0.000000 0.000000
# 4 0.000000 0.000000 0.000000 0.052083 0.000000 0.000000
# 5 0.000000 0.000000 0.000000 0.000000 0.017509 0.000000
# 6 0.000000 0.000000 0.000000 0.000000 0.000000 0.035976
#
#
# Mechanical properties :
#
#
# Convention : Reuss Voigt Hill
#
# Bulk Modulus (GPa) = 41.22576 46.86470 44.04523
# Shear Modulus (GPa) = 34.40557 42.57200 38.48878
#
# Velocity S-wave (km/s) = 3.72646 4.14519 3.94139
# Velocity P-wave (km/s) = 5.92913 6.46725 6.20403
#
# Compressibility (1/GPa) = 0.02425668
#
# Stress axis : x y z
#
# Youngs Moduli (GPa) = 135.05078 128.18933 78.37796
#
# Poissons Ratio (x) = 0.20477 0.09832
# Poissons Ratio (y) = 0.21573 -0.07822
# Poissons Ratio (z) = 0.16941 -0.12793
#
# Static dielectric constant tensor:
#      x y z
#    x 1.978090 0.000000 0.000000 
#    y 0.000000 2.160370 0.000000 
#    z 0.000000 0.000000 2.062000 
# 
# From -- ./inp_files/38847.got.cif
#   From: 2010.05.17/outbox.cif.g08.bks.cpg/sg22_20_cif.got.tgz:38847.got - 2010.06.03 23:40:54.
