data_PCOD9328987
_publ_section_title
;
Structure prediction by ZEFSAII (Michael W. Deem and Ramdas Pophale) SiO2 
 PCOD9328987
Probable space group: F 2 2 2
;
_chemical_formula_sum "Si O2"
_cell_formula_units_Z 80
_cell_length_a 10.974649
_cell_length_b 15.838273
_cell_length_c 23.182147
_cell_angle_alpha 90.000000
_cell_angle_beta 90.000000
_cell_angle_gamma 90.000000
_cell_volume 4029.508898
_symmetry_space_group_name_H-M "F 2 2 2"
_symmetry_group_IT_number 22
_symmetry_cell_setting 'orthorhombic'
loop_
_space_group_symop_operation_xyz
x,y,z
-x,-y,z
x,-y,-z
-x,y,-z
x,1/2+y,1/2+z
-x,1/2-y,1/2+z
x,1/2-y,1/2-z
-x,1/2+y,1/2-z
1/2+x,y,1/2+z
1/2-x,-y,1/2+z
1/2+x,-y,1/2-z
1/2-x,y,1/2-z
1/2+x,1/2+y,z
1/2-x,1/2-y,z
1/2+x,1/2-y,-z
1/2-x,1/2+y,-z
loop_
_atom_site_type_symbol
_atom_site_label
_atom_site_fract_x
_atom_site_fract_y
_atom_site_fract_z
Si Si1 0.053280 0.406025 0.240717
Si Si2 0.650273 0.604743 0.442551
Si Si3 0.130714 0.597747 0.071152
Si Si4 0.312590 0.341197 0.694672
Si Si5 0.224550 0.347433 0.332183
O O1 0.098678 0.376269 0.303471
O O2 0.170028 0.401468 0.199178
O O3 0.000000 0.500000 0.241082
O O4 0.953260 0.343825 0.213450
O O5 0.675452 0.629724 0.508731
O O6 0.641721 0.503285 0.435684
O O7 0.510684 0.628429 0.425754
O O8 0.751578 0.639248 0.399417
O O9 0.195351 0.620585 0.130890
O O10 0.250000 0.386689 0.750000
O O11 0.250000 0.250000 0.691364
O O12 0.250000 0.250000 0.317898
#
# Coordination Sequence:
#
# PCOD9328987 Si02
#       5
#    16  16  16  16  16
#     4  11  24  41  60  91 124 165 215 249 312 379
#     4   9  18  36  65  90 120 163 204 264 299 364
#     4   9  18  37  62  93 122 156 219 250 298 374
#     4  11  25  36  60  89 130 159 202 258 314 361
#     4  11  24  39  64  91 132 162 201 270 322 372
#
# _framework density 19.853536999999999
#
# number of rings (size 3 to 8) (size 9 to 14) (size 15 to 20)
#    0.000    1.800    2.000    3.600   11.200    0.800 
#    0.000    0.000    0.000    1.200    0.000    0.000 
#    0.000    0.000    0.000    0.000    0.000    0.000 
#
# Total GULP energy -111514.757141 kJ/mol
# GULP energy per Si atom -5575.737857 kJ/mol
# Density = 1.980835 g / cm^3
# Si number density = 19.853537 Si / 1000 Ang^3
#
#
#
# Elastic Constant Matrix: (Units=GPa)
#
#
# Indices 1 2 3 4 5 6 
#
# 1 56.0921 30.0977 43.0165 0.0000 0.0000 0.0000
# 2 30.0977 83.6375 36.2827 0.0000 0.0000 0.0000
# 3 43.0165 36.2827 211.8450 0.0000 0.0000 0.0000
# 4 0.0000 0.0000 0.0000 6.7905 0.0000 0.0000
# 5 0.0000 0.0000 0.0000 0.0000 33.6332 0.0000
# 6 0.0000 0.0000 0.0000 0.0000 0.0000 27.5885
#
#
#
# Elastic Compliance Matrix: (Units=1/GPa)
#
#
# Indices 1 2 3 4 5 6 
#
# 1 0.024580 -0.007216 -0.003755 0.000000 0.000000 0.000000
# 2 -0.007216 0.015035 -0.001110 0.000000 0.000000 0.000000
# 3 -0.003755 -0.001110 0.005673 0.000000 0.000000 0.000000
# 4 0.000000 0.000000 0.000000 0.147265 0.000000 0.000000
# 5 0.000000 0.000000 0.000000 0.000000 0.029733 0.000000
# 6 0.000000 0.000000 0.000000 0.000000 0.000000 0.036247
#
#
# Mechanical properties :
#
#
# Convention : Reuss Voigt Hill
#
# Bulk Modulus (GPa) = 47.33686 63.37426 55.35556
# Shear Modulus (GPa) = 17.25715 29.74762 23.50239
#
# Velocity S-wave (km/s) = 2.95146 3.87506 3.44436
# Velocity P-wave (km/s) = 5.95899 7.21191 6.61518
#
# Compressibility (1/GPa) = 0.02112519
#
# Stress axis : x y z
#
# Youngs Moduli (GPa) = 40.68412 66.51341 176.27384
#
# Poissons Ratio (x) = 0.47997 0.66193
# Poissons Ratio (y) = 0.29358 0.19561
# Poissons Ratio (z) = 0.15277 0.07381
#
# Static dielectric constant tensor:
#      x y z
#    x 1.728830 0.000000 0.000000 
#    y 0.000000 1.715900 0.000000 
#    z 0.000000 0.000000 1.762570 
# 
# From -- ./inp_files/47954.got.cif
#   From: 2010.05.17/outbox.cif.g08.bks.cpg/sg22_24_cif.got.tgz:47954.got - 2010.06.03 23:40:54.
