data_PCOD9328894
_publ_section_title
;
Structure prediction by ZEFSAII (Michael W. Deem and Ramdas Pophale) SiO2 
 PCOD9328894
Probable space group: F 2 2 2
;
_chemical_formula_sum "Si O2"
_cell_formula_units_Z 96
_cell_length_a 14.472650
_cell_length_b 13.731251
_cell_length_c 20.483070
_cell_angle_alpha 90.000000
_cell_angle_beta 90.000000
_cell_angle_gamma 90.000000
_cell_volume 4070.551133
_symmetry_space_group_name_H-M "F 2 2 2"
_symmetry_group_IT_number 22
_symmetry_cell_setting 'orthorhombic'
loop_
_space_group_symop_operation_xyz
x,y,z
-x,-y,z
x,-y,-z
-x,y,-z
x,1/2+y,1/2+z
-x,1/2-y,1/2+z
x,1/2-y,1/2-z
-x,1/2+y,1/2-z
1/2+x,y,1/2+z
1/2-x,-y,1/2+z
1/2+x,-y,1/2-z
1/2-x,y,1/2-z
1/2+x,1/2+y,z
1/2-x,1/2-y,z
1/2+x,1/2-y,-z
1/2-x,1/2+y,-z
loop_
_atom_site_type_symbol
_atom_site_label
_atom_site_fract_x
_atom_site_fract_y
_atom_site_fract_z
Si Si1 0.350791 0.209083 0.152988
Si Si2 0.977598 0.279371 0.421810
Si Si3 0.711503 0.956599 0.064793
Si Si4 0.899355 0.479316 0.398527
Si Si5 0.138601 0.470090 0.250632
Si Si6 0.579841 0.924072 0.863161
O O1 0.250000 0.250000 0.172845
O O2 0.430158 0.281074 0.125755
O O3 0.326924 0.144758 0.088867
O O4 0.381843 0.131284 0.209614
O O5 0.000000 0.280728 0.500000
O O6 0.902152 0.362256 0.404366
O O7 0.937540 0.176109 0.398177
O O8 0.820744 0.962684 0.063336
O O9 0.679554 0.034320 0.117920
O O10 0.669073 0.000000 0.000000
O O11 0.891271 0.519002 0.325000
O O12 0.000000 0.500000 0.425605
O O13 0.250000 0.476338 0.250000
O O14 0.087743 0.560127 0.214216
O O15 0.500000 0.000000 0.885281
#
# Coordination Sequence:
#
# PCOD9328894 Si02
#       6
#    16  16  16  16  16  16
#     4  11  24  47  75 110 139 197 257 314 371 442
#     4  12  28  46  74 115 148 191 251 307 377 463
#     4  11  24  44  73 102 149 202 240 304 381 447
#     4  12  28  47  71 103 151 201 239 310 378 442
#     4  11  23  50  72 104 148 187 253 306 379 449
#     4  11  22  46  75 107 146 193 245 310 376 443
#
# _framework density 23.584031
#
# number of rings (size 3 to 8) (size 9 to 14) (size 15 to 20)
#    0.000    0.667    6.667    2.500    4.667    1.667 
#    0.000    0.833    0.000    0.000    0.000    0.000 
#    0.000    0.000    0.000    0.000    0.000    0.000 
#
# Total GULP energy -133909.002248 kJ/mol
# GULP energy per Si atom -5579.541760 kJ/mol
# Density = 2.353035 g / cm^3
# Si number density = 23.584031 Si / 1000 Ang^3
#
#
#
# Elastic Constant Matrix: (Units=GPa)
#
#
# Indices 1 2 3 4 5 6 
#
# 1 69.2945 -11.6889 -17.1452 0.0000 0.0000 0.0000
# 2 -11.6889 94.9435 14.1648 0.0000 0.0000 0.0000
# 3 -17.1452 14.1648 135.2931 0.0000 0.0000 0.0000
# 4 0.0000 0.0000 0.0000 19.2732 0.0000 0.0000
# 5 0.0000 0.0000 0.0000 0.0000 22.6947 0.0000
# 6 0.0000 0.0000 0.0000 0.0000 0.0000 40.8765
#
#
#
# Elastic Compliance Matrix: (Units=1/GPa)
#
#
# Indices 1 2 3 4 5 6 
#
# 1 0.015134 0.001602 0.001750 0.000000 0.000000 0.000000
# 2 0.001602 0.010869 -0.000935 0.000000 0.000000 0.000000
# 3 0.001750 -0.000935 0.007711 0.000000 0.000000 0.000000
# 4 0.000000 0.000000 0.000000 0.051885 0.000000 0.000000
# 5 0.000000 0.000000 0.000000 0.000000 0.044063 0.000000
# 6 0.000000 0.000000 0.000000 0.000000 0.000000 0.024464
#
#
# Mechanical properties :
#
#
# Convention : Reuss Voigt Hill
#
# Bulk Modulus (GPa) = 25.94060 30.02139 27.98100
# Shear Modulus (GPa) = 30.83707 37.51556 34.17631
#
# Velocity S-wave (km/s) = 3.61992 3.99271 3.81087
# Velocity P-wave (km/s) = 5.33805 5.83205 5.59051
#
# Compressibility (1/GPa) = 0.03854961
#
# Stress axis : x y z
#
# Youngs Moduli (GPa) = 66.07434 92.00213 129.68410
#
# Poissons Ratio (x) = -0.14740 -0.22697
# Poissons Ratio (y) = -0.10586 0.12125
# Poissons Ratio (z) = -0.11564 0.08602
#
# Static dielectric constant tensor:
#      x y z
#    x 1.994590 0.000000 0.000000 
#    y 0.000000 2.032830 0.000000 
#    z 0.000000 0.000000 2.036640 
# 
# From -- ./inp_files/43487.got.cif
#   From: 2010.05.17/outbox.cif.g08.bks.cpg/sg22_22_cif.got.tgz:43487.got - 2010.06.03 23:40:54.
