data_PCOD9328492
_publ_section_title
;
Structure prediction by ZEFSAII (Michael W. Deem and Ramdas Pophale) SiO2 
 PCOD9328492
Probable space group: F 2 2 2
;
_chemical_formula_sum "Si O2"
_cell_formula_units_Z 68
_cell_length_a 5.496209
_cell_length_b 19.518891
_cell_length_c 29.095399
_cell_angle_alpha 90.000000
_cell_angle_beta 90.000000
_cell_angle_gamma 90.000000
_cell_volume 3121.351623
_symmetry_space_group_name_H-M "F 2 2 2"
_symmetry_group_IT_number 22
_symmetry_cell_setting 'orthorhombic'
loop_
_space_group_symop_operation_xyz
x,y,z
-x,-y,z
x,-y,-z
-x,y,-z
x,1/2+y,1/2+z
-x,1/2-y,1/2+z
x,1/2-y,1/2-z
-x,1/2+y,1/2-z
1/2+x,y,1/2+z
1/2-x,-y,1/2+z
1/2+x,-y,1/2-z
1/2-x,y,1/2-z
1/2+x,1/2+y,z
1/2-x,1/2-y,z
1/2+x,1/2-y,-z
1/2-x,1/2+y,-z
loop_
_atom_site_type_symbol
_atom_site_label
_atom_site_fract_x
_atom_site_fract_y
_atom_site_fract_z
Si Si1 0.631504 0.072398 0.568985
Si Si2 0.781814 0.829927 0.588176
Si Si3 0.500000 0.207922 0.000000
Si Si4 0.500000 0.500000 0.500000
Si Si5 0.250000 0.955147 0.750000
Si Si6 0.441751 0.419084 0.344614
O O1 0.433718 0.131411 0.560385
O O2 0.824223 0.046973 0.530883
O O3 0.739853 0.093987 0.617578
O O4 0.500000 0.000000 0.577693
O O5 0.750000 0.750000 0.600255
O O6 0.992895 0.828830 0.549429
O O7 0.841921 0.873384 0.634005
O O8 0.750000 0.250000 0.000310
O O9 0.338586 0.910819 0.793525
O O10 0.500000 0.000000 0.738611
O O11 0.500000 0.500000 0.347497
#
# Coordination Sequence:
#
# PCOD9328492 Si02
#       6
#    16  16   8   4   8  16
#     4  12  24  45  69 107 151 196 259 317 384 446
#     4  11  27  48  71 104 152 205 250 313 377 458
#     4  10  26  51  67 104 149 209 256 296 369 458
#     4  12  26  42  68 122 152 204 260 336 374 460
#     4  10  24  44  78 117 147 184 248 320 384 462
#     4  11  23  45  74 111 140 191 250 315 384 453
#
# _framework density 21.785433000000001
#
# number of rings (size 3 to 8) (size 9 to 14) (size 15 to 20)
#    0.000    0.941    3.529    1.059    9.882    5.647 
#   12.706    0.000    0.000    4.235    0.000    0.000 
#    0.000    0.000    0.000    0.000    0.000    0.000 
#
# Total GULP energy -94801.159412 kJ/mol
# GULP energy per Si atom -5576.538789 kJ/mol
# Density = 2.173585 g / cm^3
# Si number density = 21.785433 Si / 1000 Ang^3
#
#
#
# Elastic Constant Matrix: (Units=GPa)
#
#
# Indices 1 2 3 4 5 6 
#
# 1 114.8345 48.9248 52.2195 0.0000 0.0000 0.0000
# 2 48.9248 147.9713 49.2268 0.0000 0.0000 0.0000
# 3 52.2195 49.2268 183.6502 0.0000 0.0000 0.0000
# 4 0.0000 0.0000 0.0000 -48.6236 0.0000 0.0000
# 5 0.0000 0.0000 0.0000 0.0000 46.4852 0.0000
# 6 0.0000 0.0000 0.0000 0.0000 0.0000 43.0103
#
#
#
# Elastic Compliance Matrix: (Units=1/GPa)
#
#
# Indices 1 2 3 4 5 6 
#
# 1 0.010997 -0.002850 -0.002363 0.000000 0.000000 0.000000
# 2 -0.002850 0.008158 -0.001376 0.000000 0.000000 0.000000
# 3 -0.002363 -0.001376 0.006486 0.000000 0.000000 0.000000
# 4 0.000000 0.000000 0.000000 -0.020566 0.000000 0.000000
# 5 0.000000 0.000000 0.000000 0.000000 0.021512 0.000000
# 6 0.000000 0.000000 0.000000 0.000000 0.000000 0.023250
#
#
# Mechanical properties :
#
#
# Convention : Reuss Voigt Hill
#
# Bulk Modulus (GPa) = 80.24061 83.02204 81.63132
# Shear Modulus (GPa) = 74.43773 27.91338 51.17555
#
# Velocity S-wave (km/s) = 5.85173 3.58339 4.85198
# Velocity P-wave (km/s) = 9.08676 7.43724 8.30307
#
# Compressibility (1/GPa) = 0.01246252
#
# Stress axis : x y z
#
# Youngs Moduli (GPa) = 90.93476 122.57524 154.17854
#
# Poissons Ratio (x) = 0.34932 0.36432
# Poissons Ratio (y) = 0.25915 0.21222
# Poissons Ratio (z) = 0.21488 0.16872
#
# Static dielectric constant tensor:
#      x y z
#    x 2.472330 0.000000 0.000000 
#    y 0.000000 1.416140 0.000000 
#    z 0.000000 0.000000 1.820160 
# 
# From -- ./inp_files/54870.got.cif
#   From: 2010.05.17/outbox.cif.g08.bks.cpg/sg22_28_cif.got.tgz:54870.got - 2010.06.03 23:40:54.
