data_PCOD9328808
_publ_section_title
;
Structure prediction by ZEFSAII (Michael W. Deem and Ramdas Pophale) SiO2 
 PCOD9328808
Probable space group: F 2 2 2
;
_chemical_formula_sum "Si O2"
_cell_formula_units_Z 112
_cell_length_a 12.452633
_cell_length_b 15.757680
_cell_length_c 27.257502
_cell_angle_alpha 90.000000
_cell_angle_beta 90.000000
_cell_angle_gamma 90.000000
_cell_volume 5348.592590
_symmetry_space_group_name_H-M "F 2 2 2"
_symmetry_group_IT_number 22
_symmetry_cell_setting 'orthorhombic'
loop_
_space_group_symop_operation_xyz
x,y,z
-x,-y,z
x,-y,-z
-x,y,-z
x,1/2+y,1/2+z
-x,1/2-y,1/2+z
x,1/2-y,1/2-z
-x,1/2+y,1/2-z
1/2+x,y,1/2+z
1/2-x,-y,1/2+z
1/2+x,-y,1/2-z
1/2-x,y,1/2-z
1/2+x,1/2+y,z
1/2-x,1/2-y,z
1/2+x,1/2-y,-z
1/2-x,1/2+y,-z
loop_
_atom_site_type_symbol
_atom_site_label
_atom_site_fract_x
_atom_site_fract_y
_atom_site_fract_z
Si Si1 0.418161 0.686123 0.544817
Si Si2 0.750869 0.851709 0.881634
Si Si3 0.064809 0.376799 0.449517
Si Si4 0.756452 0.416779 0.007918
Si Si5 0.976031 0.906400 0.845471
Si Si6 0.992754 0.900126 0.639771
Si Si7 0.123967 0.249765 0.308725
O O1 0.500000 0.685871 0.500000
O O2 0.409563 0.780354 0.565905
O O3 0.310069 0.662231 0.518084
O O4 0.458088 0.621442 0.586083
O O5 0.750000 0.750000 0.887324
O O6 0.764647 0.892239 0.936118
O O7 0.850261 0.880072 0.847098
O O8 0.633570 0.877069 0.861864
O O9 0.161989 0.433797 0.468354
O O10 0.000000 0.369262 0.500000
O O11 0.005424 0.411986 0.402996
O O12 0.829093 0.500000 0.000000
O O13 0.053620 0.832544 0.824418
O O14 0.000000 0.000000 0.823737
O O15 0.060609 0.834841 0.673468
O O16 0.000000 0.000000 0.651383
O O17 0.127507 0.250000 0.250000
O O18 0.250000 0.250000 0.326244
#
# Coordination Sequence:
#
# PCOD9328808 Si02
#       7
#    16  16  16  16  16  16  16
#     4  11  22  37  57  91 134 189 230 265 333 410
#     4  12  22  44  66 103 143 186 238 300 343 397
#     4  11  22  37  57  91 134 189 230 265 333 410
#     4  12  24  34  56  92 139 191 242 290 334 394
#     4  12  26  44  74 107 141 185 239 289 354 419
#     4  12  26  44  74 107 141 185 239 289 354 419
#     4  11  28  55  78 103 141 179 224 293 372 446
#
# _framework density 20.940087999999999
#
# number of rings (size 3 to 8) (size 9 to 14) (size 15 to 20)
#    0.000    0.429    5.714    3.000    4.000    0.571 
#    0.000    1.429    0.000    0.000    0.000    0.000 
#    0.000    0.000    0.000    0.000    0.000    0.000 
#
# Total GULP energy -156202.098422 kJ/mol
# GULP energy per Si atom -5578.646372 kJ/mol
# Density = 2.089243 g / cm^3
# Si number density = 20.940088 Si / 1000 Ang^3
#
#
#
# Elastic Constant Matrix: (Units=GPa)
#
#
# Indices 1 2 3 4 5 6 
#
# 1 138.5289 58.9703 39.9670 0.0000 0.0000 0.0000
# 2 58.9703 191.1222 29.7555 0.0000 0.0000 0.0000
# 3 39.9670 29.7555 62.9051 0.0000 0.0000 0.0000
# 4 0.0000 0.0000 0.0000 9.8784 0.0000 0.0000
# 5 0.0000 0.0000 0.0000 0.0000 25.0402 0.0000
# 6 0.0000 0.0000 0.0000 0.0000 0.0000 18.8052
#
#
#
# Elastic Compliance Matrix: (Units=1/GPa)
#
#
# Indices 1 2 3 4 5 6 
#
# 1 0.009609 -0.002174 -0.005077 0.000000 0.000000 0.000000
# 2 -0.002174 0.006140 -0.001523 0.000000 0.000000 0.000000
# 3 -0.005077 -0.001523 0.019843 0.000000 0.000000 0.000000
# 4 0.000000 0.000000 0.000000 0.101230 0.000000 0.000000
# 5 0.000000 0.000000 0.000000 0.000000 0.039936 0.000000
# 6 0.000000 0.000000 0.000000 0.000000 0.000000 0.053177
#
#
# Mechanical properties :
#
#
# Convention : Reuss Voigt Hill
#
# Bulk Modulus (GPa) = 55.41968 72.21576 63.81772
# Shear Modulus (GPa) = 19.72404 28.33566 24.02985
#
# Velocity S-wave (km/s) = 3.07241 3.68255 3.39123
# Velocity P-wave (km/s) = 6.25377 7.25557 6.77321
#
# Compressibility (1/GPa) = 0.01804413
#
# Stress axis : x y z
#
# Youngs Moduli (GPa) = 104.06917 162.85891 50.39626
#
# Poissons Ratio (x) = 0.35413 0.25584
# Poissons Ratio (y) = 0.22630 0.07675
# Poissons Ratio (z) = 0.52831 0.24802
#
# Static dielectric constant tensor:
#      x y z
#    x 1.823550 0.000000 0.000000 
#    y 0.000000 1.858200 0.000000 
#    z 0.000000 0.000000 1.703180 
# 
# From -- ./inp_files/56105.got.cif
#   From: 2010.05.17/outbox.cif.g08.bks.cpg/sg22_29_cif.got.tgz:56105.got - 2010.06.03 23:40:54.
