data_PCOD9328998
_publ_section_title
;
Structure prediction by ZEFSAII (Michael W. Deem and Ramdas Pophale) SiO2 
 PCOD9328998
Probable space group: F 2 2 2
;
_chemical_formula_sum "Si O2"
_cell_formula_units_Z 48
_cell_length_a 16.372557
_cell_length_b 15.846037
_cell_length_c 8.000527
_cell_angle_alpha 90.000000
_cell_angle_beta 90.000000
_cell_angle_gamma 90.000000
_cell_volume 2075.657877
_symmetry_space_group_name_H-M "F 2 2 2"
_symmetry_group_IT_number 22
_symmetry_cell_setting 'orthorhombic'
loop_
_space_group_symop_operation_xyz
x,y,z
-x,-y,z
x,-y,-z
-x,y,-z
x,1/2+y,1/2+z
-x,1/2-y,1/2+z
x,1/2-y,1/2-z
-x,1/2+y,1/2-z
1/2+x,y,1/2+z
1/2-x,-y,1/2+z
1/2+x,-y,1/2-z
1/2-x,y,1/2-z
1/2+x,1/2+y,z
1/2-x,1/2-y,z
1/2+x,1/2-y,-z
1/2-x,1/2+y,-z
loop_
_atom_site_type_symbol
_atom_site_label
_atom_site_fract_x
_atom_site_fract_y
_atom_site_fract_z
Si Si1 0.916640 0.904956 0.937357
Si Si2 0.919574 0.174936 0.389114
Si Si3 0.759711 0.098373 0.450692
O O1 0.923789 0.904357 0.737481
O O2 0.830389 0.870126 0.005602
O O3 0.000000 0.863114 0.000000
O O4 0.915815 0.000000 0.000000
O O5 0.910783 0.250000 0.250000
O O6 0.836944 0.156678 0.492379
O O7 0.000000 0.180563 0.500000
O O8 0.750000 0.101331 0.250000
O O9 0.771189 0.000000 0.500000
#
# Coordination Sequence:
#
# PCOD9328998 Si02
#       3
#    16  16  16
#     4   9  19  38  63  91 125 161 200 253 309 368
#     4  11  24  41  61  89 126 168 214 260 310 369
#     4   9  20  37  61  91 123 160 205 252 309 371
#
# _framework density 23.125198000000001
#
# number of rings (size 3 to 8) (size 9 to 14) (size 15 to 20)
#    0.000    2.333    0.000    1.000    0.000   20.000 
#    0.000    0.000    0.000    2.000    0.000    0.000 
#    0.000    0.000    0.000    0.000    0.000    0.000 
#
# Total GULP energy -66843.716375 kJ/mol
# GULP energy per Si atom -5570.309698 kJ/mol
# Density = 2.307256 g / cm^3
# Si number density = 23.125198 Si / 1000 Ang^3
#
#
#
# Elastic Constant Matrix: (Units=GPa)
#
#
# Indices 1 2 3 4 5 6 
#
# 1 316.3663 59.8636 38.2284 0.0000 0.0000 0.0000
# 2 59.8636 92.8999 23.4412 0.0000 0.0000 0.0000
# 3 38.2284 23.4412 24.6518 0.0000 0.0000 0.0000
# 4 0.0000 0.0000 0.0000 46.4428 0.0000 0.0000
# 5 0.0000 0.0000 0.0000 0.0000 34.2418 0.0000
# 6 0.0000 0.0000 0.0000 0.0000 0.0000 3.2997
#
#
#
# Elastic Compliance Matrix: (Units=1/GPa)
#
#
# Indices 1 2 3 4 5 6 
#
# 1 0.004012 -0.001336 -0.004951 0.000000 0.000000 0.000000
# 2 -0.001336 0.014607 -0.011818 0.000000 0.000000 0.000000
# 3 -0.004951 -0.011818 0.059481 0.000000 0.000000 0.000000
# 4 0.000000 0.000000 0.000000 0.021532 0.000000 0.000000
# 5 0.000000 0.000000 0.000000 0.000000 0.029204 0.000000
# 6 0.000000 0.000000 0.000000 0.000000 0.000000 0.303054
#
#
# Mechanical properties :
#
#
# Convention : Reuss Voigt Hill
#
# Bulk Modulus (GPa) = 23.87241 75.22048 49.54645
# Shear Modulus (GPa) = 10.37208 37.62253 23.99731
#
# Velocity S-wave (km/s) = 2.12012 4.03787 3.22485
# Velocity P-wave (km/s) = 4.04212 7.37138 5.94458
#
# Compressibility (1/GPa) = 0.04188935
#
# Stress axis : x y z
#
# Youngs Moduli (GPa) = 249.25472 68.45948 16.81218
#
# Poissons Ratio (x) = 0.09146 0.08324
# Poissons Ratio (y) = 0.33299 0.19869
# Poissons Ratio (z) = 1.23409 0.80906
#
# Static dielectric constant tensor:
#      x y z
#    x 2.061950 0.000000 0.000000 
#    y 0.000000 1.988780 0.000000 
#    z 0.000000 0.000000 1.884220 
# 
# From -- ./inp_files/9087.got.cif
#   From: 2010.05.17/outbox.cif.g08.bks.cpg/sg22_5_cif.got.tgz:9087.got - 2010.06.03 23:40:54.
