data_PCOD9328181
_publ_section_title
;
Structure prediction by ZEFSAII (Michael W. Deem and Ramdas Pophale) SiO2 
 PCOD9328181
Probable space group: F 2 2 2
;
_chemical_formula_sum "Si O2"
_cell_formula_units_Z 80
_cell_length_a 23.714880
_cell_length_b 21.572206
_cell_length_c 6.843822
_cell_angle_alpha 90.000000
_cell_angle_beta 90.000000
_cell_angle_gamma 90.000000
_cell_volume 3501.178040
_symmetry_space_group_name_H-M "F 2 2 2"
_symmetry_group_IT_number 22
_symmetry_cell_setting 'orthorhombic'
loop_
_space_group_symop_operation_xyz
x,y,z
-x,-y,z
x,-y,-z
-x,y,-z
x,1/2+y,1/2+z
-x,1/2-y,1/2+z
x,1/2-y,1/2-z
-x,1/2+y,1/2-z
1/2+x,y,1/2+z
1/2-x,-y,1/2+z
1/2+x,-y,1/2-z
1/2-x,y,1/2-z
1/2+x,1/2+y,z
1/2-x,1/2-y,z
1/2+x,1/2-y,-z
1/2-x,1/2+y,-z
loop_
_atom_site_type_symbol
_atom_site_label
_atom_site_fract_x
_atom_site_fract_y
_atom_site_fract_z
Si Si1 0.667992 0.000000 0.500000
Si Si2 0.788381 0.686541 0.047357
Si Si3 0.483142 0.823147 0.726613
Si Si4 0.101133 0.181512 0.712705
Si Si5 0.865735 0.129234 0.866131
Si Si6 0.750000 0.917739 0.750000
O O1 0.638066 0.055454 0.614662
O O2 0.703133 0.036644 0.335328
O O3 0.750000 0.750000 0.035193
O O4 0.847642 0.694151 0.932890
O O5 0.763540 0.628337 0.928455
O O6 0.687604 0.662287 0.242239
O O7 0.500000 0.832595 0.500000
O O8 0.469553 0.750000 0.750000
O O9 0.539818 0.847776 0.836025
O O10 0.422827 0.855264 0.749263
O O11 0.079212 0.250000 0.750000
O O12 0.126750 0.153934 0.912132
#
# Coordination Sequence:
#
# PCOD9328181 Si02
#       6
#     8  16  16  16  16   8
#     4  12  26  50  69  94 144 203 252 298 352 444
#     4  12  27  45  73 110 146 185 244 312 379 454
#     4   9  21  39  70 105 140 181 227 302 389 452
#     4  10  22  46  67 106 153 179 226 312 391 443
#     4  11  26  45  72 106 137 197 251 297 369 456
#     4  12  25  50  68  98 141 204 242 304 372 444
#
# _framework density 22.849453
#
# number of rings (size 3 to 8) (size 9 to 14) (size 15 to 20)
#    0.000    1.200    2.000    2.700    8.400    0.800 
#    3.600    4.500    0.000    0.000   15.600    0.000 
#    0.000    0.000    0.000    0.000    0.000    0.000 
#
# Total GULP energy -111554.265545 kJ/mol
# GULP energy per Si atom -5577.713277 kJ/mol
# Density = 2.279745 g / cm^3
# Si number density = 22.849453 Si / 1000 Ang^3
#
#
#
# Elastic Constant Matrix: (Units=GPa)
#
#
# Indices 1 2 3 4 5 6 
#
# 1 169.4476 101.0017 67.2947 -0.0034 -0.0201 0.0006
# 2 101.0017 171.5853 56.0638 -0.0067 -0.0213 0.0033
# 3 67.2947 56.0638 114.2716 -0.0150 -0.0519 -0.0015
# 4 -0.0034 -0.0067 -0.0150 29.2146 -0.0308 0.0019
# 5 -0.0201 -0.0213 -0.0519 -0.0308 -153.5491 -0.0033
# 6 0.0006 0.0033 -0.0015 0.0019 -0.0033 30.7844
#
#
#
# Elastic Compliance Matrix: (Units=1/GPa)
#
#
# Indices 1 2 3 4 5 6 
#
# 1 0.010231 -0.004828 -0.003657 -0.000002 0.000001 0.000000
# 2 -0.004828 0.009219 -0.001680 0.000001 0.000000 -0.000001
# 3 -0.003657 -0.001680 0.011729 0.000005 -0.000003 0.000001
# 4 -0.000002 0.000001 0.000005 0.034230 -0.000007 -0.000002
# 5 0.000001 0.000000 -0.000003 -0.000007 -0.006513 -0.000001
# 6 0.000000 -0.000001 0.000001 -0.000002 -0.000001 0.032484
#
#
# Mechanical properties :
#
#
# Convention : Reuss Voigt Hill
#
# Bulk Modulus (GPa) = 92.16396 100.44721 96.30558
# Shear Modulus (GPa) = 43.35573 -3.31374 20.02099
#
# Velocity S-wave (km/s) = 4.36070 -1.20557 2.96330
# Velocity P-wave (km/s) = 8.11031 6.48984 7.34490
#
# Compressibility (1/GPa) = 0.01085023
#
# Stress axis : x y z
#
# Youngs Moduli (GPa) = 97.73782 108.47520 85.26149
#
# Poissons Ratio (x) = 0.52370 0.31177
# Poissons Ratio (y) = 0.47186 0.14322
# Poissons Ratio (z) = 0.35740 0.18221
#
# Static dielectric constant tensor:
#      x y z
#    x 2.055720 0.000000 -0.000010 
#    y 0.000000 1.802160 0.000000 
#    z -0.000010 0.000000 1.961950 
# 
# From -- ./inp_files/13670.got.cif
#   From: 2010.05.17/outbox.cif.g08.bks.cpg/sg22_7_cif.got.tgz:13670.got - 2010.06.03 23:40:54.
