data_PCOD9328270
_publ_section_title
;
Structure prediction by ZEFSAII (Michael W. Deem and Ramdas Pophale) SiO2 
 PCOD9328270
Probable space group: F 2 2 2
;
_chemical_formula_sum "Si O2"
_cell_formula_units_Z 68
_cell_length_a 7.577607
_cell_length_b 14.772083
_cell_length_c 22.569548
_cell_angle_alpha 90.000000
_cell_angle_beta 90.000000
_cell_angle_gamma 90.000000
_cell_volume 2526.368387
_symmetry_space_group_name_H-M "F 2 2 2"
_symmetry_group_IT_number 22
_symmetry_cell_setting 'orthorhombic'
loop_
_space_group_symop_operation_xyz
x,y,z
-x,-y,z
x,-y,-z
-x,y,-z
x,1/2+y,1/2+z
-x,1/2-y,1/2+z
x,1/2-y,1/2-z
-x,1/2+y,1/2-z
1/2+x,y,1/2+z
1/2-x,-y,1/2+z
1/2+x,-y,1/2-z
1/2-x,y,1/2-z
1/2+x,1/2+y,z
1/2-x,1/2-y,z
1/2+x,1/2-y,-z
1/2-x,1/2+y,-z
loop_
_atom_site_type_symbol
_atom_site_label
_atom_site_fract_x
_atom_site_fract_y
_atom_site_fract_z
Si Si1 0.478114 0.336383 0.913321
Si Si2 0.890894 0.629494 0.943831
Si Si3 0.642588 0.065445 0.300580
Si Si4 0.176768 0.390200 0.145211
Si Si5 0.750000 0.250000 0.750000
O O1 0.319133 0.390728 0.946637
O O2 0.434258 0.236891 0.936108
O O3 0.428336 0.359932 0.845298
O O4 0.686905 0.354955 0.907218
O O5 0.988146 0.598243 0.884415
O O6 0.000000 0.597339 0.000000
O O7 0.750000 0.112598 0.250000
O O8 0.500000 0.000000 0.268811
O O9 0.738933 0.984392 0.335049
O O10 0.167314 0.320785 0.201217
#
# Coordination Sequence:
#
# PCOD9328270 Si02
#       5
#    16  16  16  16   4
#     4  10  24  41  62 102 124 167 232 274 335 415
#     4  11  25  43  71  92 129 182 233 291 344 402
#     4  10  23  41  66  96 140 179 211 275 356 420
#     4  11  23  43  66  98 138 175 224 280 348 420
#     4  12  20  36  70 100 128 184 228 270 342 428
#
# _framework density 26.916107
#
# number of rings (size 3 to 8) (size 9 to 14) (size 15 to 20)
#    0.000    1.412    3.529    0.000    9.882    0.000 
#    0.000    2.353    5.176    0.000    0.000    0.000 
#    0.000    0.000    0.000    0.000    0.000    0.000 
#
# Total GULP energy -94827.815172 kJ/mol
# GULP energy per Si atom -5578.106775 kJ/mol
# Density = 2.685484 g / cm^3
# Si number density = 26.916107 Si / 1000 Ang^3
#
#
#
# Elastic Constant Matrix: (Units=GPa)
#
#
# Indices 1 2 3 4 5 6 
#
# 1 133.7154 15.8587 11.9573 0.0000 0.0000 0.0000
# 2 15.8587 99.6211 23.3363 0.0000 0.0000 0.0000
# 3 11.9573 23.3363 99.5220 0.0000 0.0000 0.0000
# 4 0.0000 0.0000 0.0000 -251.1116 0.0000 0.0000
# 5 0.0000 0.0000 0.0000 0.0000 33.3362 0.0000
# 6 0.0000 0.0000 0.0000 0.0000 0.0000 37.0112
#
#
#
# Elastic Compliance Matrix: (Units=1/GPa)
#
#
# Indices 1 2 3 4 5 6 
#
# 1 0.007665 -0.001063 -0.000672 0.000000 0.000000 0.000000
# 2 -0.001063 0.010769 -0.002397 0.000000 0.000000 0.000000
# 3 -0.000672 -0.002397 0.010691 0.000000 0.000000 0.000000
# 4 0.000000 0.000000 0.000000 -0.003982 0.000000 0.000000
# 5 0.000000 0.000000 0.000000 0.000000 0.029997 0.000000
# 6 0.000000 0.000000 0.000000 0.000000 0.000000 0.027019
#
#
# Mechanical properties :
#
#
# Convention : Reuss Voigt Hill
#
# Bulk Modulus (GPa) = 47.93729 48.35145 48.14437
# Shear Modulus (GPa) = 51.34752 -17.37241 16.98755
#
# Velocity S-wave (km/s) = 4.37245 -2.54328 2.51495
# Velocity P-wave (km/s) = 6.58328 3.06241 5.13410
#
# Compressibility (1/GPa) = 0.02086059
#
# Stress axis : x y z
#
# Youngs Moduli (GPa) = 130.46855 92.86066 93.53755
#
# Poissons Ratio (x) = 0.09869 0.06283
# Poissons Ratio (y) = 0.13866 0.22425
# Poissons Ratio (z) = 0.08763 0.22263
#
# Static dielectric constant tensor:
#      x y z
#    x 2.355220 0.000000 0.000000 
#    y 0.000000 2.135600 0.000000 
#    z 0.000000 0.000000 2.091520 
# 
# From -- ./inp_files/12290.got.cif
#   From: 2010.05.17/outbox.cif.g08.bks.cpg/sg22_7_cif.got.tgz:12290.got - 2010.06.03 23:40:54.
