data_PCOD9328552
_publ_section_title
;
Structure prediction by ZEFSAII (Michael W. Deem and Ramdas Pophale) SiO2 
 PCOD9328552
Probable space group: F 2 2 2
;
_chemical_formula_sum "Si O2"
_cell_formula_units_Z 64
_cell_length_a 10.602054
_cell_length_b 9.635881
_cell_length_c 25.873835
_cell_angle_alpha 90.000000
_cell_angle_beta 90.000000
_cell_angle_gamma 90.000000
_cell_volume 2643.274365
_symmetry_space_group_name_H-M "F 2 2 2"
_symmetry_group_IT_number 22
_symmetry_cell_setting 'orthorhombic'
loop_
_space_group_symop_operation_xyz
x,y,z
-x,-y,z
x,-y,-z
-x,y,-z
x,1/2+y,1/2+z
-x,1/2-y,1/2+z
x,1/2-y,1/2-z
-x,1/2+y,1/2-z
1/2+x,y,1/2+z
1/2-x,-y,1/2+z
1/2+x,-y,1/2-z
1/2-x,y,1/2-z
1/2+x,1/2+y,z
1/2-x,1/2-y,z
1/2+x,1/2-y,-z
1/2-x,1/2+y,-z
loop_
_atom_site_type_symbol
_atom_site_label
_atom_site_fract_x
_atom_site_fract_y
_atom_site_fract_z
Si Si1 0.250000 0.750000 0.750000
Si Si2 0.127569 0.411482 0.841516
Si Si3 0.250000 0.750000 0.250000
Si Si4 0.500000 0.000000 0.500000
Si Si5 1.000000 0.750000 0.927442
Si Si6 0.372431 0.411482 0.158484
Si Si7 0.500000 0.500000 0.500000
O O1 0.338912 0.662779 0.787931
O O2 0.250000 0.500000 0.853689
O O3 0.104547 0.308084 0.888814
O O4 0.161088 0.162779 0.712069
O O5 0.000000 0.500000 0.836278
O O6 0.446849 0.881744 0.460398
O O7 0.104547 0.808084 0.888814
O O8 0.053151 0.618256 0.960398
O O9 0.500000 0.500000 0.163722
#
# Coordination Sequence:
#
# PCOD9328552 Si02
#       7
#     4  16   4   4  16  16   4
#     4  12  30  46  84 122 168 220 264 332 412 490
#     4  12  28  51  82 120 170 216 270 336 403 497
#     4  12  30  46  84 122 168 220 264 332 412 490
#     4  10  24  50  90 116 162 218 274 342 422 460
#     4  11  24  51  86 122 164 211 278 341 404 492
#     4  12  28  51  82 120 170 216 270 336 403 497
#     4  10  24  50  90 116 162 218 274 342 422 460
#
# _framework density 24.212392000000001
#
# number of rings (size 3 to 8) (size 9 to 14) (size 15 to 20)
#    0.000    0.500    2.500    3.750    0.000   15.000 
#    0.000    1.250   11.000    0.000    0.000    0.000 
#    0.000    0.000    0.000    0.000    0.000    0.000 
#
# Total GULP energy -89431.474167 kJ/mol
# GULP energy per Si atom -5589.467135 kJ/mol
# Density = 2.415728 g / cm^3
# Si number density = 24.212392 Si / 1000 Ang^3
#
#
#
# Elastic Constant Matrix: (Units=GPa)
#
#
# Indices 1 2 3 4 5 6 
#
# 1 180.8642 97.0531 74.5211 0.0000 0.0000 0.0000
# 2 97.0531 207.8949 117.5676 0.0000 0.0000 0.0000
# 3 74.5211 117.5676 200.0186 0.0000 0.0000 0.0000
# 4 0.0000 0.0000 0.0000 61.3029 0.0000 0.0000
# 5 0.0000 0.0000 0.0000 0.0000 -11.5910 0.0000
# 6 0.0000 0.0000 0.0000 0.0000 0.0000 21.3693
#
#
#
# Elastic Compliance Matrix: (Units=1/GPa)
#
#
# Indices 1 2 3 4 5 6 
#
# 1 0.007538 -0.002892 -0.001108 0.000000 0.000000 0.000000
# 2 -0.002892 0.008315 -0.003810 0.000000 0.000000 0.000000
# 3 -0.001108 -0.003810 0.007652 0.000000 0.000000 0.000000
# 4 0.000000 0.000000 0.000000 0.016312 0.000000 0.000000
# 5 0.000000 0.000000 0.000000 0.000000 -0.086274 0.000000
# 6 0.000000 0.000000 0.000000 0.000000 0.000000 0.046796
#
#
# Mechanical properties :
#
#
# Convention : Reuss Voigt Hill
#
# Bulk Modulus (GPa) = 126.84350 129.67350 128.25850
# Shear Modulus (GPa) = 269.00749 34.19196 151.59973
#
# Velocity S-wave (km/s) = 10.55199 3.76196 7.92139
# Velocity P-wave (km/s) = 14.17606 8.51720 11.69409
#
# Compressibility (1/GPa) = 0.00788373
#
# Stress axis : x y z
#
# Youngs Moduli (GPa) = 132.66868 120.26896 130.68797
#
# Poissons Ratio (x) = 0.34782 0.14486
# Poissons Ratio (y) = 0.38368 0.49789
# Poissons Ratio (z) = 0.14705 0.45820
#
# Static dielectric constant tensor:
#      x y z
#    x 1.874940 0.000000 0.000000 
#    y 0.000000 2.021190 0.000000 
#    z 0.000000 0.000000 1.952270 
# 
# From -- ./inp_files/48662.got.cif
#   From: 2010.05.17/outbox.cif.g08.bks.cpg/sg22_25_cif.got.tgz:48662.got - 2010.06.03 23:40:54.
