data_PCOD9328321
_publ_section_title
;
Structure prediction by ZEFSAII (Michael W. Deem and Ramdas Pophale) SiO2 
 PCOD9328321
Probable space group: F 2 2 2
;
_chemical_formula_sum "Si O2"
_cell_formula_units_Z 120
_cell_length_a 23.674523
_cell_length_b 11.971379
_cell_length_c 19.776550
_cell_angle_alpha 90.000000
_cell_angle_beta 90.000000
_cell_angle_gamma 90.000000
_cell_volume 5605.004291
_symmetry_space_group_name_H-M "F 2 2 2"
_symmetry_group_IT_number 22
_symmetry_cell_setting 'orthorhombic'
loop_
_space_group_symop_operation_xyz
x,y,z
-x,-y,z
x,-y,-z
-x,y,-z
x,1/2+y,1/2+z
-x,1/2-y,1/2+z
x,1/2-y,1/2-z
-x,1/2+y,1/2-z
1/2+x,y,1/2+z
1/2-x,-y,1/2+z
1/2+x,-y,1/2-z
1/2-x,y,1/2-z
1/2+x,1/2+y,z
1/2-x,1/2-y,z
1/2+x,1/2-y,-z
1/2-x,1/2+y,-z
loop_
_atom_site_type_symbol
_atom_site_label
_atom_site_fract_x
_atom_site_fract_y
_atom_site_fract_z
Si Si1 0.188297 0.974075 0.923997
Si Si2 0.241622 0.381194 0.826301
Si Si3 0.368083 0.164659 0.047987
Si Si4 0.579914 0.712431 0.178100
Si Si5 0.750000 0.250000 0.574423
Si Si6 0.449731 0.741208 0.325257
Si Si7 0.377206 0.087987 0.903965
Si Si8 0.564456 0.984542 0.615481
O O1 0.216640 0.858690 0.895881
O O2 0.210635 0.067361 0.873783
O O3 0.120294 0.982516 0.926309
O O4 0.208810 0.000000 0.000000
O O5 0.250000 0.427126 0.750000
O O6 0.250000 0.250000 0.822573
O O7 0.181642 0.399610 0.863397
O O8 0.391628 0.242317 0.108618
O O9 0.301918 0.190822 0.038077
O O10 0.378400 0.039562 0.073365
O O11 0.387907 0.165448 0.970526
O O12 0.606806 0.750000 0.250000
O O13 0.517144 0.762393 0.176303
O O14 0.570806 0.578295 0.174701
O O15 0.426626 0.750000 0.250000
O O16 0.426305 0.628102 0.355629
O O17 0.432162 0.855766 0.362683
O O18 0.500000 0.000000 0.587811
#
# Coordination Sequence:
#
# PCOD9328321 Si02
#       8
#    16  16  16  16   8  16  16  16
#     4  12  26  43  72 100 135 187 227 286 353 418
#     4  11  26  43  66  99 137 178 226 287 343 415
#     4  11  25  45  68  97 136 183 231 289 347 414
#     4  10  23  44  69  98 137 182 231 287 350 422
#     4  12  24  46  65  96 135 174 230 274 348 416
#     4  10  24  42  69 101 134 182 230 288 351 417
#     4  11  25  44  67  99 137 177 235 289 339 420
#     4  10  23  43  66 101 138 177 235 284 350 420
#
# _framework density 21.409438999999999
#
# number of rings (size 3 to 8) (size 9 to 14) (size 15 to 20)
#    0.000    1.200    2.667    1.600   11.200    1.333 
#    0.000    4.667    0.000    0.000    0.000    0.000 
#    0.000    0.000    0.000    0.000    0.000    0.000 
#
# Total GULP energy -167096.761668 kJ/mol
# GULP energy per Si atom -5569.892056 kJ/mol
# Density = 2.136071 g / cm^3
# Si number density = 21.409439 Si / 1000 Ang^3
#
#
#
# Elastic Constant Matrix: (Units=GPa)
#
#
# Indices 1 2 3 4 5 6 
#
# 1 64.6730 25.5592 25.5838 0.0000 0.0000 0.0000
# 2 25.5592 80.4373 27.6278 0.0000 0.0000 0.0000
# 3 25.5838 27.6278 123.7990 0.0000 0.0000 0.0000
# 4 0.0000 0.0000 0.0000 76.6885 0.0000 0.0000
# 5 0.0000 0.0000 0.0000 0.0000 20.2882 0.0000
# 6 0.0000 0.0000 0.0000 0.0000 0.0000 30.5136
#
#
#
# Elastic Compliance Matrix: (Units=1/GPa)
#
#
# Indices 1 2 3 4 5 6 
#
# 1 0.018491 -0.004942 -0.002718 0.000000 0.000000 0.000000
# 2 -0.004942 0.014785 -0.002278 0.000000 0.000000 0.000000
# 3 -0.002718 -0.002278 0.009148 0.000000 0.000000 0.000000
# 4 0.000000 0.000000 0.000000 0.013040 0.000000 0.000000
# 5 0.000000 0.000000 0.000000 0.000000 0.049290 0.000000
# 6 0.000000 0.000000 0.000000 0.000000 0.000000 0.032772
#
#
# Mechanical properties :
#
#
# Convention : Reuss Voigt Hill
#
# Bulk Modulus (GPa) = 44.35265 47.38343 45.86804
# Shear Modulus (GPa) = 30.31819 38.17398 34.24608
#
# Velocity S-wave (km/s) = 3.76721 4.22719 4.00381
# Velocity P-wave (km/s) = 6.29951 6.78274 6.54559
#
# Compressibility (1/GPa) = 0.02254657
#
# Stress axis : x y z
#
# Youngs Moduli (GPa) = 54.08097 67.63694 109.31595
#
# Poissons Ratio (x) = 0.33425 0.29716
# Poissons Ratio (y) = 0.26726 0.24905
# Poissons Ratio (z) = 0.14701 0.15409
#
# Static dielectric constant tensor:
#      x y z
#    x 1.770370 0.000000 0.000000 
#    y 0.000000 1.776880 0.000000 
#    z 0.000000 0.000000 1.870780 
# 
# From -- ./inp_files/45420.got.cif
#   From: 2010.05.17/outbox.cif.g08.bks.cpg/sg22_23_cif.got.tgz:45420.got - 2010.06.03 23:40:54.
