data_PCOD9328494
_publ_section_title
;
Structure prediction by ZEFSAII (Michael W. Deem and Ramdas Pophale) SiO2 
 PCOD9328494
Probable space group: F 2 2 2
;
_chemical_formula_sum "Si O2"
_cell_formula_units_Z 52
_cell_length_a 5.597416
_cell_length_b 13.574833
_cell_length_c 28.267333
_cell_angle_alpha 90.000000
_cell_angle_beta 90.000000
_cell_angle_gamma 90.000000
_cell_volume 2147.864675
_symmetry_space_group_name_H-M "F 2 2 2"
_symmetry_group_IT_number 22
_symmetry_cell_setting 'orthorhombic'
loop_
_space_group_symop_operation_xyz
x,y,z
-x,-y,z
x,-y,-z
-x,y,-z
x,1/2+y,1/2+z
-x,1/2-y,1/2+z
x,1/2-y,1/2-z
-x,1/2+y,1/2-z
1/2+x,y,1/2+z
1/2-x,-y,1/2+z
1/2+x,-y,1/2-z
1/2-x,y,1/2-z
1/2+x,1/2+y,z
1/2-x,1/2-y,z
1/2+x,1/2-y,-z
1/2-x,1/2+y,-z
loop_
_atom_site_type_symbol
_atom_site_label
_atom_site_fract_x
_atom_site_fract_y
_atom_site_fract_z
Si Si1 0.329562 0.136463 0.401458
Si Si2 0.500000 0.500000 0.661857
Si Si3 0.250000 0.250000 0.250000
Si Si4 0.373710 0.354921 0.813953
Si Si5 0.500000 0.313355 0.000000
O O1 0.250000 0.250000 0.399629
O O2 0.128184 0.075096 0.374363
O O3 0.552608 0.122575 0.367361
O O4 0.414352 0.122812 0.455121
O O5 0.686830 0.558422 0.695064
O O6 0.399926 0.326531 0.217800
O O7 0.250000 0.250000 0.812583
O O8 0.750000 0.250000 0.011532
#
# Coordination Sequence:
#
# PCOD9328494 Si02
#       5
#    16   8   4  16   8
#     4  11  23  47  82 112 162 209 263 335 401 481
#     4  12  26  46  87 114 156 220 268 324 419 482
#     4  12  26  48  92 110 164 212 268 344 422 478
#     4  12  24  49  83 114 156 216 260 337 408 486
#     4  10  24  44  81 123 160 218 272 333 408 483
#
# _framework density 24.210090999999998
#
# number of rings (size 3 to 8) (size 9 to 14) (size 15 to 20)
#    0.000    0.615    4.615    2.308    4.308    0.000 
#    0.000    4.615   94.769    0.000    0.000    0.000 
#    0.000    0.000    0.000    0.000    0.000    0.000 
#
# Total GULP energy -72603.761957 kJ/mol
# GULP energy per Si atom -5584.904766 kJ/mol
# Density = 2.415499 g / cm^3
# Si number density = 24.210091 Si / 1000 Ang^3
#
#
#
# Elastic Constant Matrix: (Units=GPa)
#
#
# Indices 1 2 3 4 5 6 
#
# 1 135.9539 61.1505 64.4241 0.0000 0.0000 0.0000
# 2 61.1505 141.6864 46.2862 0.0000 0.0000 0.0000
# 3 64.4241 46.2862 162.1071 0.0000 0.0000 0.0000
# 4 0.0000 0.0000 0.0000 -2.7711 0.0000 0.0000
# 5 0.0000 0.0000 0.0000 0.0000 6.9507 0.0000
# 6 0.0000 0.0000 0.0000 0.0000 0.0000 22.5121
#
#
#
# Elastic Compliance Matrix: (Units=1/GPa)
#
#
# Indices 1 2 3 4 5 6 
#
# 1 0.010404 -0.003462 -0.003146 0.000000 0.000000 0.000000
# 2 -0.003462 0.008936 -0.001176 0.000000 0.000000 0.000000
# 3 -0.003146 -0.001176 0.007755 0.000000 0.000000 0.000000
# 4 0.000000 0.000000 0.000000 -0.360861 0.000000 0.000000
# 5 0.000000 0.000000 0.000000 0.000000 0.143871 0.000000
# 6 0.000000 0.000000 0.000000 0.000000 0.000000 0.044421
#
#
# Mechanical properties :
#
#
# Convention : Reuss Voigt Hill
#
# Bulk Modulus (GPa) = 86.75497 87.05212 86.90355
# Shear Modulus (GPa) = -39.66187 23.19743 -8.23222
#
# Velocity S-wave (km/s) = -4.05191 3.09879 -1.84600
# Velocity P-wave (km/s) = 3.74452 6.98845 5.60624
#
# Compressibility (1/GPa) = 0.01152672
#
# Stress axis : x y z
#
# Youngs Moduli (GPa) = 96.12140 111.90461 128.95469
#
# Poissons Ratio (x) = 0.38745 0.40568
# Poissons Ratio (y) = 0.33281 0.15159
# Poissons Ratio (z) = 0.30239 0.13155
#
# Static dielectric constant tensor:
#      x y z
#    x 2.078540 0.000000 0.000000 
#    y 0.000000 2.018430 0.000000 
#    z 0.000000 0.000000 1.922410 
# 
# From -- ./inp_files/1928.got.cif
#   From: 2010.05.17/outbox.cif.g08.bks.cpg/sg22_1_cif.got.tgz:1928.got - 2010.06.03 23:40:54.
