data_PCOD9328671
_publ_section_title
;
Structure prediction by ZEFSAII (Michael W. Deem and Ramdas Pophale) SiO2 
 PCOD9328671
Probable space group: F 2 2 2
;
_chemical_formula_sum "Si O2"
_cell_formula_units_Z 104
_cell_length_a 19.830783
_cell_length_b 13.626709
_cell_length_c 17.229676
_cell_angle_alpha 90.000000
_cell_angle_beta 90.000000
_cell_angle_gamma 90.000000
_cell_volume 4655.946213
_symmetry_space_group_name_H-M "F 2 2 2"
_symmetry_group_IT_number 22
_symmetry_cell_setting 'orthorhombic'
loop_
_space_group_symop_operation_xyz
x,y,z
-x,-y,z
x,-y,-z
-x,y,-z
x,1/2+y,1/2+z
-x,1/2-y,1/2+z
x,1/2-y,1/2-z
-x,1/2+y,1/2-z
1/2+x,y,1/2+z
1/2-x,-y,1/2+z
1/2+x,-y,1/2-z
1/2-x,y,1/2-z
1/2+x,1/2+y,z
1/2-x,1/2-y,z
1/2+x,1/2-y,-z
1/2-x,1/2+y,-z
loop_
_atom_site_type_symbol
_atom_site_label
_atom_site_fract_x
_atom_site_fract_y
_atom_site_fract_z
Si Si1 0.873496 0.348940 0.299747
Si Si2 0.173405 0.764166 0.448601
Si Si3 0.194609 0.010703 0.585162
Si Si4 0.446355 0.419348 0.384138
Si Si5 0.472377 0.361827 0.217883
Si Si6 0.444955 0.792613 0.559944
Si Si7 0.250000 0.480992 0.750000
O O1 0.875923 0.250000 0.250000
O O2 0.846363 0.313810 0.382597
O O3 0.817792 0.419100 0.263867
O O4 0.949829 0.388004 0.300046
O O5 0.250000 0.750000 0.473752
O O6 0.171456 0.874504 0.413038
O O7 0.122533 0.738742 0.516953
O O8 0.235211 0.977365 0.662554
O O9 0.228946 0.000000 0.500000
O O10 0.126592 0.946253 0.583562
O O11 0.500000 0.500000 0.408585
O O12 0.442572 0.420116 0.290340
O O13 0.472976 0.312858 0.409870
O O14 0.471030 0.250000 0.250000
O O15 0.435055 0.359748 0.135430
O O16 0.500000 0.833574 0.500000
#
# Coordination Sequence:
#
# PCOD9328671 Si02
#       7
#    16  16  16  16  16  16   8
#     4  11  18  34  62  91 121 153 210 267 321 373
#     4  12  22  38  64  96 123 163 220 284 332 390
#     4  12  25  41  61  92 131 164 211 269 341 390
#     4  11  23  38  60  94 130 164 209 271 329 388
#     4   9  21  37  59  88 124 167 210 253 320 395
#     4  11  21  38  64  93 126 170 215 270 328 396
#     4  12  23  40  64  92 123 168 210 272 327 396
#
# _framework density 22.337028
#
# number of rings (size 3 to 8) (size 9 to 14) (size 15 to 20)
#    0.000    0.923    6.154    2.077    2.154    0.000 
#    2.769    0.000    0.000    3.692    0.000    0.000 
#    0.000    0.000    0.000    0.000    0.000    0.000 
#
# Total GULP energy -145211.602412 kJ/mol
# GULP energy per Si atom -5585.061631 kJ/mol
# Density = 2.228619 g / cm^3
# Si number density = 22.337028 Si / 1000 Ang^3
#
#
#
# Elastic Constant Matrix: (Units=GPa)
#
#
# Indices 1 2 3 4 5 6 
#
# 1 77.8098 -13.3999 37.2296 0.0000 0.0000 0.0000
# 2 -13.3999 16.2435 2.9103 0.0000 0.0000 0.0000
# 3 37.2296 2.9103 175.4443 0.0000 0.0000 0.0000
# 4 0.0000 0.0000 0.0000 31.7767 0.0000 0.0000
# 5 0.0000 0.0000 0.0000 0.0000 38.4896 0.0000
# 6 0.0000 0.0000 0.0000 0.0000 0.0000 7.1463
#
#
#
# Elastic Compliance Matrix: (Units=1/GPa)
#
#
# Indices 1 2 3 4 5 6 
#
# 1 0.017308 0.014980 -0.003921 0.000000 0.000000 0.000000
# 2 0.014980 0.074712 -0.004418 0.000000 0.000000 0.000000
# 3 -0.003921 -0.004418 0.006605 0.000000 0.000000 0.000000
# 4 0.000000 0.000000 0.000000 0.031470 0.000000 0.000000
# 5 0.000000 0.000000 0.000000 0.000000 0.025981 0.000000
# 6 0.000000 0.000000 0.000000 0.000000 0.000000 0.139933
#
#
# Mechanical properties :
#
#
# Convention : Reuss Voigt Hill
#
# Bulk Modulus (GPa) = 8.93595 35.88641 22.41118
# Shear Modulus (GPa) = 15.62353 31.66636 23.64494
#
# Velocity S-wave (km/s) = 2.64757 3.76927 3.25707
# Velocity P-wave (km/s) = 3.65450 5.91979 4.91932
#
# Compressibility (1/GPa) = 0.11190751
#
# Stress axis : x y z
#
# Youngs Moduli (GPa) = 57.77713 13.38465 151.39580
#
# Poissons Ratio (x) = -0.20051 0.59366
# Poissons Ratio (y) = -0.86553 0.66890
# Poissons Ratio (z) = 0.22656 0.05914
#
# Static dielectric constant tensor:
#      x y z
#    x 1.779680 0.000000 0.000000 
#    y 0.000000 1.847320 0.000000 
#    z 0.000000 0.000000 1.990920 
# 
# From -- ./inp_files/38110.got.cif
#   From: 2010.05.17/outbox.cif.g08.bks.cpg/sg22_20_cif.got.tgz:38110.got - 2010.06.03 23:40:54.
