data_PCOD9328693
_publ_section_title
;
Structure prediction by ZEFSAII (Michael W. Deem and Ramdas Pophale) SiO2 
 PCOD9328693
Probable space group: F 2 2 2
;
_chemical_formula_sum "Si O2"
_cell_formula_units_Z 56
_cell_length_a 14.486789
_cell_length_b 16.244912
_cell_length_c 11.020674
_cell_angle_alpha 90.000000
_cell_angle_beta 90.000000
_cell_angle_gamma 90.000000
_cell_volume 2593.568086
_symmetry_space_group_name_H-M "F 2 2 2"
_symmetry_group_IT_number 22
_symmetry_cell_setting 'orthorhombic'
loop_
_space_group_symop_operation_xyz
x,y,z
-x,-y,z
x,-y,-z
-x,y,-z
x,1/2+y,1/2+z
-x,1/2-y,1/2+z
x,1/2-y,1/2-z
-x,1/2+y,1/2-z
1/2+x,y,1/2+z
1/2-x,-y,1/2+z
1/2+x,-y,1/2-z
1/2-x,y,1/2-z
1/2+x,1/2+y,z
1/2-x,1/2-y,z
1/2+x,1/2-y,-z
1/2-x,1/2+y,-z
loop_
_atom_site_type_symbol
_atom_site_label
_atom_site_fract_x
_atom_site_fract_y
_atom_site_fract_z
Si Si1 0.586574 0.051724 0.837691
Si Si2 0.233067 0.152949 0.491370
Si Si3 0.750000 0.431887 0.250000
Si Si4 0.577762 0.586670 0.076626
O O1 0.545120 0.090947 0.714995
O O2 0.500000 0.000000 0.884711
O O3 0.662976 0.990082 0.780131
O O4 0.640693 0.112265 0.931181
O O5 0.250000 0.250000 0.485572
O O6 0.252051 0.122702 0.628644
O O7 0.318959 0.117632 0.417425
O O8 0.586038 0.500000 0.000000
O O9 0.500000 0.634390 0.000000
#
# Coordination Sequence:
#
# PCOD9328693 Si02
#       4
#    16  16   8  16
#     4  12  23  43  79 108 138 194 261 301 352 449
#     4  12  26  44  69 108 152 187 240 321 377 425
#     4  12  23  46  71  96 146 204 246 292 371 464
#     4  11  19  42  74 100 134 195 248 277 357 463
#
# _framework density 21.591877
#
# number of rings (size 3 to 8) (size 9 to 14) (size 15 to 20)
#    0.000    0.286    8.571    1.286    0.000    4.571 
#    5.143    0.000    0.000    0.000    0.000    0.000 
#    0.000    0.000    0.000    0.000    0.000    0.000 
#
# Total GULP energy -77955.897117 kJ/mol
# GULP energy per Si atom -5568.278365 kJ/mol
# Density = 2.154273 g / cm^3
# Si number density = 21.591877 Si / 1000 Ang^3
#
#
#
# Elastic Constant Matrix: (Units=GPa)
#
#
# Indices 1 2 3 4 5 6 
#
# 1 135.4406 51.5453 39.2473 0.0000 0.0000 0.0000
# 2 51.5453 116.8870 50.2671 0.0000 0.0000 0.0000
# 3 39.2473 50.2671 187.3379 0.0000 0.0000 0.0000
# 4 0.0000 0.0000 0.0000 6.8486 0.0000 0.0000
# 5 0.0000 0.0000 0.0000 0.0000 32.0332 0.0000
# 6 0.0000 0.0000 0.0000 0.0000 0.0000 10.5920
#
#
#
# Elastic Compliance Matrix: (Units=1/GPa)
#
#
# Indices 1 2 3 4 5 6 
#
# 1 0.009013 -0.003575 -0.000929 0.000000 0.000000 0.000000
# 2 -0.003575 0.011089 -0.002227 0.000000 0.000000 0.000000
# 3 -0.000929 -0.002227 0.006130 0.000000 0.000000 0.000000
# 4 0.000000 0.000000 0.000000 0.146015 0.000000 0.000000
# 5 0.000000 0.000000 0.000000 0.000000 0.031218 0.000000
# 6 0.000000 0.000000 0.000000 0.000000 0.000000 0.094411
#
#
# Mechanical properties :
#
#
# Convention : Reuss Voigt Hill
#
# Bulk Modulus (GPa) = 78.30116 80.19832 79.24974
# Shear Modulus (GPa) = 15.84311 29.80181 22.82246
#
# Velocity S-wave (km/s) = 2.71173 3.71918 3.25467
# Velocity P-wave (km/s) = 6.79320 7.46100 7.13491
#
# Compressibility (1/GPa) = 0.01277120
#
# Stress axis : x y z
#
# Youngs Moduli (GPa) = 110.94955 90.17648 163.13222
#
# Poissons Ratio (x) = 0.32239 0.15154
# Poissons Ratio (y) = 0.39666 0.36322
# Poissons Ratio (z) = 0.10307 0.20078
#
# Static dielectric constant tensor:
#      x y z
#    x 1.870330 0.000000 0.000000 
#    y 0.000000 1.894080 0.000000 
#    z 0.000000 0.000000 1.932760 
# 
# From -- ./inp_files/19048.got.cif
#   From: 2010.05.17/outbox.cif.g08.bks.cpg/sg22_10_cif.got.tgz:19048.got - 2010.06.03 23:40:54.
