data_PCOD9328534
_publ_section_title
;
Structure prediction by ZEFSAII (Michael W. Deem and Ramdas Pophale) SiO2 
 PCOD9328534
Probable space group: F 2 2 2
;
_chemical_formula_sum "Si O2"
_cell_formula_units_Z 48
_cell_length_a 21.481456
_cell_length_b 11.540847
_cell_length_c 7.481333
_cell_angle_alpha 90.000000
_cell_angle_beta 90.000000
_cell_angle_gamma 90.000000
_cell_volume 1854.728663
_symmetry_space_group_name_H-M "F 2 2 2"
_symmetry_group_IT_number 22
_symmetry_cell_setting 'orthorhombic'
loop_
_space_group_symop_operation_xyz
x,y,z
-x,-y,z
x,-y,-z
-x,y,-z
x,1/2+y,1/2+z
-x,1/2-y,1/2+z
x,1/2-y,1/2-z
-x,1/2+y,1/2-z
1/2+x,y,1/2+z
1/2-x,-y,1/2+z
1/2+x,-y,1/2-z
1/2-x,y,1/2-z
1/2+x,1/2+y,z
1/2-x,1/2-y,z
1/2+x,1/2-y,-z
1/2-x,1/2+y,-z
loop_
_atom_site_type_symbol
_atom_site_label
_atom_site_fract_x
_atom_site_fract_y
_atom_site_fract_z
Si Si1 0.335265 0.008344 0.296766
Si Si2 0.683298 0.308431 0.488995
Si Si3 0.064473 0.841458 0.903757
O O1 0.315103 0.116670 0.172841
O O2 0.407754 0.039694 0.324205
O O3 0.308590 0.000000 0.500000
O O4 0.325036 0.897240 0.174804
O O5 0.750000 0.250000 0.471311
O O6 0.624048 0.220587 0.497401
O O7 0.050442 0.750000 0.750000
O O8 0.000000 0.857805 0.000000
#
# Coordination Sequence:
#
# PCOD9328534 Si02
#       3
#    16  16  16
#     4  10  24  47  80 124 155 217 282 342 417 508
#     4  10  24  52  80 115 175 219 274 357 423 495
#     4  10  24  47  78 115 169 218 281 341 419 496
#
# _framework density 25.879795000000001
#
# number of rings (size 3 to 8) (size 9 to 14) (size 15 to 20)
#    0.000    2.000    0.000    0.000    4.667    8.000 
#   18.000    1.667    0.000    0.000    8.667    0.000 
#    0.000    0.000    0.000    0.000    0.000    0.000 
#
# Total GULP energy -67264.006307 kJ/mol
# GULP energy per Si atom -5605.333859 kJ/mol
# Density = 2.582089 g / cm^3
# Si number density = 25.879795 Si / 1000 Ang^3
#
#
#
# Elastic Constant Matrix: (Units=GPa)
#
#
# Indices 1 2 3 4 5 6 
#
# 1 285.3643 117.4696 97.7779 0.0000 0.0000 0.0000
# 2 117.4696 152.4893 81.9334 0.0000 0.0000 0.0000
# 3 97.7779 81.9334 210.6544 0.0000 0.0000 0.0000
# 4 0.0000 0.0000 0.0000 60.0680 0.0000 0.0000
# 5 0.0000 0.0000 0.0000 0.0000 61.1857 0.0000
# 6 0.0000 0.0000 0.0000 0.0000 0.0000 17.8914
#
#
#
# Elastic Compliance Matrix: (Units=1/GPa)
#
#
# Indices 1 2 3 4 5 6 
#
# 1 0.005329 -0.003509 -0.001108 0.000000 0.000000 0.000000
# 2 -0.003509 0.010602 -0.002495 0.000000 0.000000 0.000000
# 3 -0.001108 -0.002495 0.006232 0.000000 0.000000 0.000000
# 4 0.000000 0.000000 0.000000 0.016648 0.000000 0.000000
# 5 0.000000 0.000000 0.000000 0.000000 0.016344 0.000000
# 6 0.000000 0.000000 0.000000 0.000000 0.000000 0.055893
#
#
# Mechanical properties :
#
#
# Convention : Reuss Voigt Hill
#
# Bulk Modulus (GPa) = 125.98480 138.09667 132.04073
# Shear Modulus (GPa) = 39.08790 51.25085 45.16937
#
# Velocity S-wave (km/s) = 3.89056 4.45493 4.18227
# Velocity P-wave (km/s) = 8.30472 8.94083 8.62864
#
# Compressibility (1/GPa) = 0.00793747
#
# Stress axis : x y z
#
# Youngs Moduli (GPa) = 187.66225 94.32524 160.46620
#
# Poissons Ratio (x) = 0.33102 0.17786
# Poissons Ratio (y) = 0.65858 0.40029
# Poissons Ratio (z) = 0.20801 0.23530
#
# Static dielectric constant tensor:
#      x y z
#    x 1.958130 0.000000 0.000000 
#    y 0.000000 2.138860 0.000000 
#    z 0.000000 0.000000 2.121350 
# 
# From -- ./inp_files/13230.got.cif
#   From: 2010.05.17/outbox.cif.g08.bks.cpg/sg22_7_cif.got.tgz:13230.got - 2010.06.03 23:40:54.
