data_PCOD9328802
_publ_section_title
;
Structure prediction by ZEFSAII (Michael W. Deem and Ramdas Pophale) SiO2 
 PCOD9328802
Probable space group: F 2 2 2
;
_chemical_formula_sum "Si O2"
_cell_formula_units_Z 64
_cell_length_a 19.453405
_cell_length_b 9.897256
_cell_length_c 16.390615
_cell_angle_alpha 90.000000
_cell_angle_beta 90.000000
_cell_angle_gamma 90.000000
_cell_volume 3155.772457
_symmetry_space_group_name_H-M "F 2 2 2"
_symmetry_group_IT_number 22
_symmetry_cell_setting 'orthorhombic'
loop_
_space_group_symop_operation_xyz
x,y,z
-x,-y,z
x,-y,-z
-x,y,-z
x,1/2+y,1/2+z
-x,1/2-y,1/2+z
x,1/2-y,1/2-z
-x,1/2+y,1/2-z
1/2+x,y,1/2+z
1/2-x,-y,1/2+z
1/2+x,-y,1/2-z
1/2-x,y,1/2-z
1/2+x,1/2+y,z
1/2-x,1/2-y,z
1/2+x,1/2-y,-z
1/2-x,1/2+y,-z
loop_
_atom_site_type_symbol
_atom_site_label
_atom_site_fract_x
_atom_site_fract_y
_atom_site_fract_z
Si Si1 0.833226 0.818955 0.338167
Si Si2 0.693943 0.556874 0.090234
Si Si3 0.580499 0.035511 0.090781
Si Si4 0.170299 0.723168 0.346112
O O1 0.828282 0.750000 0.250000
O O2 0.764592 0.899348 0.365192
O O3 0.846246 0.698404 0.403176
O O4 0.890367 0.931449 0.343021
O O5 0.658347 0.434488 0.137238
O O6 0.705838 0.500000 0.000000
O O7 0.613399 0.180528 0.112805
O O8 0.500000 0.000000 0.089154
O O9 0.607354 0.000000 0.000000
O O10 0.169598 0.750000 0.250000
O O11 0.250000 0.750000 0.375058
#
# Coordination Sequence:
#
# PCOD9328802 Si02
#       4
#    16  16  16  16
#     4  11  23  39  60  89 127 167 212 265 323 382
#     4  11  22  35  60  92 124 160 206 264 318 372
#     4  11  24  44  67  93 130 175 217 263 328 399
#     4  11  23  38  64  94 127 165 216 269 318 381
#
# _framework density 20.280297000000001
#
# number of rings (size 3 to 8) (size 9 to 14) (size 15 to 20)
#    0.000    1.000    2.500    5.250    7.000    1.000 
#    0.000    1.250    0.000    4.500    0.000    0.000 
#    0.000    0.000    0.000    0.000    0.000    0.000 
#
# Total GULP energy -89281.775657 kJ/mol
# GULP energy per Si atom -5580.110979 kJ/mol
# Density = 2.023414 g / cm^3
# Si number density = 20.280297 Si / 1000 Ang^3
#
#
#
# Elastic Constant Matrix: (Units=GPa)
#
#
# Indices 1 2 3 4 5 6 
#
# 1 50.0269 45.9458 13.7874 0.0000 0.0000 0.0000
# 2 45.9458 176.9371 50.3207 0.0000 0.0000 0.0000
# 3 13.7874 50.3207 119.6955 0.0000 0.0000 0.0000
# 4 0.0000 0.0000 0.0000 40.6302 0.0000 0.0000
# 5 0.0000 0.0000 0.0000 0.0000 12.4251 0.0000
# 6 0.0000 0.0000 0.0000 0.0000 0.0000 12.5843
#
#
#
# Elastic Compliance Matrix: (Units=1/GPa)
#
#
# Indices 1 2 3 4 5 6 
#
# 1 0.026253 -0.006766 -0.000179 0.000000 0.000000 0.000000
# 2 -0.006766 0.008163 -0.002652 0.000000 0.000000 0.000000
# 3 -0.000179 -0.002652 0.009490 0.000000 0.000000 0.000000
# 4 0.000000 0.000000 0.000000 0.024612 0.000000 0.000000
# 5 0.000000 0.000000 0.000000 0.000000 0.080482 0.000000
# 6 0.000000 0.000000 0.000000 0.000000 0.000000 0.079464
#
#
# Mechanical properties :
#
#
# Convention : Reuss Voigt Hill
#
# Bulk Modulus (GPa) = 40.46915 62.97415 51.72165
# Shear Modulus (GPa) = 19.53906 28.90162 24.22034
#
# Velocity S-wave (km/s) = 3.10732 3.77916 3.45958
# Velocity P-wave (km/s) = 5.73342 7.08251 6.44337
#
# Compressibility (1/GPa) = 0.02471018
#
# Stress axis : x y z
#
# Youngs Moduli (GPa) = 38.09107 122.50320 105.37068
#
# Poissons Ratio (x) = 0.82887 0.01891
# Poissons Ratio (y) = 0.25773 0.27949
# Poissons Ratio (z) = 0.00684 0.32493
#
# Static dielectric constant tensor:
#      x y z
#    x 1.847610 0.000000 0.000000 
#    y 0.000000 1.752420 0.000000 
#    z 0.000000 0.000000 1.771060 
# 
# From -- ./inp_files/38517.got.cif
#   From: 2010.05.17/outbox.cif.g08.bks.cpg/sg22_20_cif.got.tgz:38517.got - 2010.06.03 23:40:54.
