data_PCOD9328872
_publ_section_title
;
Structure prediction by ZEFSAII (Michael W. Deem and Ramdas Pophale) SiO2 
 PCOD9328872
Probable space group: F 2 2 2
;
_chemical_formula_sum "Si O2"
_cell_formula_units_Z 96
_cell_length_a 22.000983
_cell_length_b 15.868630
_cell_length_c 12.545572
_cell_angle_alpha 90.000000
_cell_angle_beta 90.000000
_cell_angle_gamma 90.000000
_cell_volume 4379.978581
_symmetry_space_group_name_H-M "F 2 2 2"
_symmetry_group_IT_number 22
_symmetry_cell_setting 'orthorhombic'
loop_
_space_group_symop_operation_xyz
x,y,z
-x,-y,z
x,-y,-z
-x,y,-z
x,1/2+y,1/2+z
-x,1/2-y,1/2+z
x,1/2-y,1/2-z
-x,1/2+y,1/2-z
1/2+x,y,1/2+z
1/2-x,-y,1/2+z
1/2+x,-y,1/2-z
1/2-x,y,1/2-z
1/2+x,1/2+y,z
1/2-x,1/2-y,z
1/2+x,1/2-y,-z
1/2-x,1/2+y,-z
loop_
_atom_site_type_symbol
_atom_site_label
_atom_site_fract_x
_atom_site_fract_y
_atom_site_fract_z
Si Si1 0.598640 0.750000 0.250000
Si Si2 0.250000 0.536230 0.250000
Si Si3 0.500000 0.500000 0.835255
Si Si4 0.096522 0.000000 0.000000
Si Si5 0.680188 0.892086 0.360845
Si Si6 0.227435 0.657426 0.043476
Si Si7 0.487037 0.373850 0.344164
Si Si8 0.102110 0.088455 0.526553
O O1 0.644270 0.820127 0.297225
O O2 0.549369 0.713610 0.334877
O O3 0.303211 0.470617 0.216382
O O4 0.238335 0.593392 0.144085
O O5 0.476583 0.575519 0.763526
O O6 0.553258 0.534309 0.908266
O O7 0.136365 0.072839 0.048366
O O8 0.738730 0.864820 0.431474
O O9 0.250000 0.750000 0.075085
O O10 0.155477 0.655968 0.021153
O O11 0.447096 0.418343 0.433266
O O12 0.557890 0.385196 0.374861
O O13 0.136209 0.000000 0.500000
#
# Coordination Sequence:
#
# PCOD9328872 Si02
#       8
#     8   8   8   8  16  16  16  16
#     4  12  28  47  78 108 153 194 256 316 384 456
#     4  12  27  47  76 106 148 202 254 295 393 462
#     4  11  22  43  74 100 144 197 244 299 382 448
#     4  11  24  46  70 104 150 197 246 304 364 465
#     4  12  27  49  74 112 149 197 253 315 373 465
#     4  12  28  49  72 114 154 196 252 323 384 445
#     4  11  23  45  69 110 142 189 250 306 379 443
#     4  11  23  44  78 104 142 193 250 316 362 463
#
# _framework density 21.917915000000001
#
# number of rings (size 3 to 8) (size 9 to 14) (size 15 to 20)
#    0.000    0.500    5.000    2.750    9.333    0.000 
#   12.000    0.000    0.000    0.000    0.000    0.000 
#    0.000    0.000    0.000    0.000    0.000    0.000 
#
# Total GULP energy -133797.847666 kJ/mol
# GULP energy per Si atom -5574.910319 kJ/mol
# Density = 2.186803 g / cm^3
# Si number density = 21.917915 Si / 1000 Ang^3
#
#
#
# Elastic Constant Matrix: (Units=GPa)
#
#
# Indices 1 2 3 4 5 6 
#
# 1 137.2903 56.4600 42.9907 0.0000 0.0000 0.0000
# 2 56.4600 115.4179 37.3227 0.0000 0.0000 0.0000
# 3 42.9907 37.3227 79.2215 0.0000 0.0000 0.0000
# 4 0.0000 0.0000 0.0000 17.6579 0.0000 0.0000
# 5 0.0000 0.0000 0.0000 0.0000 30.5385 0.0000
# 6 0.0000 0.0000 0.0000 0.0000 0.0000 29.0726
#
#
#
# Elastic Compliance Matrix: (Units=1/GPa)
#
#
# Indices 1 2 3 4 5 6 
#
# 1 0.009944 -0.003680 -0.003663 0.000000 0.000000 0.000000
# 2 -0.003680 0.011583 -0.003460 0.000000 0.000000 0.000000
# 3 -0.003663 -0.003460 0.016240 0.000000 0.000000 0.000000
# 4 0.000000 0.000000 0.000000 0.056632 0.000000 0.000000
# 5 0.000000 0.000000 0.000000 0.000000 0.032746 0.000000
# 6 0.000000 0.000000 0.000000 0.000000 0.000000 0.034397
#
#
# Mechanical properties :
#
#
# Convention : Reuss Voigt Hill
#
# Bulk Modulus (GPa) = 61.87171 67.27517 64.57344
# Shear Modulus (GPa) = 26.52032 28.46424 27.49228
#
# Velocity S-wave (km/s) = 3.48226 3.60762 3.54549
# Velocity P-wave (km/s) = 6.66770 6.93643 6.80339
#
# Compressibility (1/GPa) = 0.01616247
#
# Stress axis : x y z
#
# Youngs Moduli (GPa) = 100.56174 86.33148 61.57457
#
# Poissons Ratio (x) = 0.31771 0.22552
# Poissons Ratio (y) = 0.37008 0.21305
# Poissons Ratio (z) = 0.36831 0.29871
#
# Static dielectric constant tensor:
#      x y z
#    x 1.865730 0.000000 0.000000 
#    y 0.000000 1.807710 0.000000 
#    z 0.000000 0.000000 1.877620 
# 
# From -- ./inp_files/31593.got.cif
#   From: 2010.05.17/outbox.cif.g08.bks.cpg/sg22_16_cif.got.tgz:31593.got - 2010.06.03 23:40:54.
