data_PCOD9328645
_publ_section_title
;
Structure prediction by ZEFSAII (Michael W. Deem and Ramdas Pophale) SiO2 
 PCOD9328645
Probable space group: F 2 2 2
;
_chemical_formula_sum "Si O2"
_cell_formula_units_Z 120
_cell_length_a 21.390243
_cell_length_b 12.185526
_cell_length_c 21.152791
_cell_angle_alpha 90.000000
_cell_angle_beta 90.000000
_cell_angle_gamma 90.000000
_cell_volume 5513.503789
_symmetry_space_group_name_H-M "F 2 2 2"
_symmetry_group_IT_number 22
_symmetry_cell_setting 'orthorhombic'
loop_
_space_group_symop_operation_xyz
x,y,z
-x,-y,z
x,-y,-z
-x,y,-z
x,1/2+y,1/2+z
-x,1/2-y,1/2+z
x,1/2-y,1/2-z
-x,1/2+y,1/2-z
1/2+x,y,1/2+z
1/2-x,-y,1/2+z
1/2+x,-y,1/2-z
1/2-x,y,1/2-z
1/2+x,1/2+y,z
1/2-x,1/2-y,z
1/2+x,1/2-y,-z
1/2-x,1/2+y,-z
loop_
_atom_site_type_symbol
_atom_site_label
_atom_site_fract_x
_atom_site_fract_y
_atom_site_fract_z
Si Si1 0.584555 0.289203 0.888437
Si Si2 0.153936 0.504875 0.405456
Si Si3 0.352390 0.184268 0.812631
Si Si4 0.134806 0.750000 0.750000
Si Si5 0.678413 0.511343 0.242625
Si Si6 0.224619 0.636349 0.062039
Si Si7 0.941903 0.196701 0.093410
Si Si8 0.594522 0.620922 0.494295
O O1 0.631658 0.380660 0.917442
O O2 0.596975 0.271677 0.814277
O O3 0.513893 0.331519 0.896706
O O4 0.593206 0.175220 0.925498
O O5 0.159370 0.508833 0.329415
O O6 0.220366 0.547238 0.431767
O O7 0.101043 0.592811 0.424438
O O8 0.331654 0.250000 0.750000
O O9 0.302026 0.168290 0.868319
O O10 0.409920 0.248089 0.844733
O O11 0.364954 0.061791 0.787675
O O12 0.173932 0.639035 0.759344
O O13 0.750000 0.474896 0.250000
O O14 0.250000 0.750000 0.034566
O O15 0.164568 0.608539 0.021172
O O16 0.937271 0.289702 0.039894
O O17 0.566970 0.500000 0.500000
#
# Coordination Sequence:
#
# PCOD9328645 Si02
#       8
#    16  16  16   8  16  16  16  16
#     4  11  27  47  69  99 144 194 237 289 352 434
#     4  11  22  42  68 103 137 178 235 293 356 420
#     4  11  21  34  68 103 138 179 234 290 355 404
#     4  10  27  44  64 100 142 189 242 272 362 436
#     4  11  21  37  64  97 141 184 224 289 360 426
#     4  11  21  41  68 105 141 171 232 296 354 428
#     4  11  24  44  69  99 141 183 243 292 344 427
#     4  11  27  47  71 101 135 185 240 294 363 420
#
# _framework density 21.764744
#
# number of rings (size 3 to 8) (size 9 to 14) (size 15 to 20)
#    0.000    1.067    5.333    1.000    4.667    2.667 
#    0.000    2.667    0.000    0.000    0.000    0.000 
#    0.000    0.000    0.000    0.000    0.000    0.000 
#
# Total GULP energy -167699.356854 kJ/mol
# GULP energy per Si atom -5589.978562 kJ/mol
# Density = 2.171521 g / cm^3
# Si number density = 21.764744 Si / 1000 Ang^3
#
#
#
# Elastic Constant Matrix: (Units=GPa)
#
#
# Indices 1 2 3 4 5 6 
#
# 1 119.4105 19.8675 25.6861 0.0000 0.0000 0.0000
# 2 19.8675 116.7368 23.4294 0.0000 0.0000 0.0000
# 3 25.6861 23.4294 81.7309 0.0000 0.0000 0.0000
# 4 0.0000 0.0000 0.0000 28.2356 0.0000 0.0000
# 5 0.0000 0.0000 0.0000 0.0000 -5.5741 0.0000
# 6 0.0000 0.0000 0.0000 0.0000 0.0000 -5.4719
#
#
#
# Elastic Compliance Matrix: (Units=1/GPa)
#
#
# Indices 1 2 3 4 5 6 
#
# 1 0.009098 -0.001034 -0.002563 0.000000 0.000000 0.000000
# 2 -0.001034 0.009207 -0.002314 0.000000 0.000000 0.000000
# 3 -0.002563 -0.002314 0.013704 0.000000 0.000000 0.000000
# 4 0.000000 0.000000 0.000000 0.035416 0.000000 0.000000
# 5 0.000000 0.000000 0.000000 0.000000 -0.179402 0.000000
# 6 0.000000 0.000000 0.000000 0.000000 0.000000 -0.182752
#
#
# Mechanical properties :
#
#
# Convention : Reuss Voigt Hill
#
# Bulk Modulus (GPa) = 49.53814 50.64936 50.09375
# Shear Modulus (GPa) = -18.10422 20.03094 0.96336
#
# Velocity S-wave (km/s) = -2.88725 3.03700 0.66602
# Velocity P-wave (km/s) = 3.41983 5.96822 4.86389
#
# Compressibility (1/GPa) = 0.02018647
#
# Stress axis : x y z
#
# Youngs Moduli (GPa) = 109.91682 108.61606 72.97069
#
# Poissons Ratio (x) = 0.11231 0.18701
# Poissons Ratio (y) = 0.11365 0.16888
# Poissons Ratio (z) = 0.28170 0.25137
#
# Static dielectric constant tensor:
#      x y z
#    x 1.772720 0.000000 0.000000 
#    y 0.000000 1.844870 0.000000 
#    z 0.000000 0.000000 1.794670 
# 
# From -- ./inp_files/23003.got.cif
#   From: 2010.05.17/outbox.cif.g08.bks.cpg/sg22_12_cif.got.tgz:23003.got - 2010.06.03 23:40:54.
