data_PCOD9328095
_publ_section_title
;
Structure prediction by ZEFSAII (Michael W. Deem and Ramdas Pophale) SiO2 
 PCOD9328095
Probable space group: F 2 2 2
;
_chemical_formula_sum "Si O2"
_cell_formula_units_Z 96
_cell_length_a 24.382645
_cell_length_b 9.988235
_cell_length_c 21.144349
_cell_angle_alpha 90.000000
_cell_angle_beta 90.000000
_cell_angle_gamma 90.000000
_cell_volume 5149.486048
_symmetry_space_group_name_H-M "F 2 2 2"
_symmetry_group_IT_number 22
_symmetry_cell_setting 'orthorhombic'
loop_
_space_group_symop_operation_xyz
x,y,z
-x,-y,z
x,-y,-z
-x,y,-z
x,1/2+y,1/2+z
-x,1/2-y,1/2+z
x,1/2-y,1/2-z
-x,1/2+y,1/2-z
1/2+x,y,1/2+z
1/2-x,-y,1/2+z
1/2+x,-y,1/2-z
1/2-x,y,1/2-z
1/2+x,1/2+y,z
1/2-x,1/2-y,z
1/2+x,1/2-y,-z
1/2-x,1/2+y,-z
loop_
_atom_site_type_symbol
_atom_site_label
_atom_site_fract_x
_atom_site_fract_y
_atom_site_fract_z
Si Si1 0.649954 0.247719 0.602631
Si Si2 0.328037 0.494134 0.310953
Si Si3 0.064843 0.159754 0.998194
Si Si4 0.363473 0.719460 0.389204
Si Si5 0.215047 0.635193 0.012049
Si Si6 0.301446 0.481040 0.836593
O O1 0.649059 0.355485 0.659623
O O2 0.596111 0.222881 0.559161
O O3 0.692750 0.309153 0.552993
O O4 0.674156 0.106877 0.625632
O O5 0.367727 0.616504 0.331316
O O6 0.320334 0.496280 0.235779
O O7 0.265212 0.518966 0.336544
O O8 0.088787 0.217514 0.932172
O O9 0.000000 0.183093 0.000000
O O10 0.075365 0.000000 0.000000
O O11 0.335017 0.619467 0.440685
O O12 0.327411 0.844262 0.363767
O O13 0.250000 0.750000 0.042426
O O14 0.247036 0.500000 0.000000
#
# Coordination Sequence:
#
# PCOD9328095 Si02
#       6
#    16  16  16  16  16  16
#     4  11  22  37  57  87 114 153 203 241 291 350
#     4  11  22  37  57  84 132 159 196 236 279 343
#     4  10  22  43  67  86 109 149 199 255 316 362
#     4  11  22  37  57  87 114 153 203 241 291 350
#     4  11  22  32  52  80 119 154 186 241 293 346
#     4  11  22  37  57  86 120 177 196 220 277 355
#
# _framework density 18.642638000000002
#
# number of rings (size 3 to 8) (size 9 to 14) (size 15 to 20)
#    0.000    1.167    3.333    4.000    2.333    2.667 
#    0.000    1.667    0.000    6.000    0.000    0.000 
#    0.000    0.000    0.000    0.000    0.000    0.000 
#
# Total GULP energy -133787.516392 kJ/mol
# GULP energy per Si atom -5574.479850 kJ/mol
# Density = 1.860021 g / cm^3
# Si number density = 18.642638 Si / 1000 Ang^3
#
#
#
# Elastic Constant Matrix: (Units=GPa)
#
#
# Indices 1 2 3 4 5 6 
#
# 1 80.9502 35.6557 42.1832 0.0000 0.0000 0.0000
# 2 35.6557 119.2530 35.0867 0.0000 0.0000 0.0000
# 3 42.1832 35.0867 110.6563 0.0000 0.0000 0.0000
# 4 0.0000 0.0000 0.0000 33.2110 0.0000 0.0000
# 5 0.0000 0.0000 0.0000 0.0000 18.1026 0.0000
# 6 0.0000 0.0000 0.0000 0.0000 0.0000 19.4754
#
#
#
# Elastic Compliance Matrix: (Units=1/GPa)
#
#
# Indices 1 2 3 4 5 6 
#
# 1 0.016590 -0.003418 -0.005240 0.000000 0.000000 0.000000
# 2 -0.003418 0.009953 -0.001853 0.000000 0.000000 0.000000
# 3 -0.005240 -0.001853 0.011622 0.000000 0.000000 0.000000
# 4 0.000000 0.000000 0.000000 0.030111 0.000000 0.000000
# 5 0.000000 0.000000 0.000000 0.000000 0.055241 0.000000
# 6 0.000000 0.000000 0.000000 0.000000 0.000000 0.051347
#
#
# Mechanical properties :
#
#
# Convention : Reuss Voigt Hill
#
# Bulk Modulus (GPa) = 58.33678 59.63450 58.98564
# Shear Modulus (GPa) = 24.80172 27.35339 26.07756
#
# Velocity S-wave (km/s) = 3.65139 3.83462 3.74413
# Velocity P-wave (km/s) = 7.00977 7.18773 7.09931
#
# Compressibility (1/GPa) = 0.01714184
#
# Stress axis : x y z
#
# Youngs Moduli (GPa) = 60.27860 100.47531 86.04335
#
# Poissons Ratio (x) = 0.34346 0.45089
# Poissons Ratio (y) = 0.20606 0.15941
# Poissons Ratio (z) = 0.31587 0.18615
#
# Static dielectric constant tensor:
#      x y z
#    x 1.650620 0.000000 0.000000 
#    y 0.000000 1.780320 0.000000 
#    z 0.000000 0.000000 1.674270 
# 
# From -- ./inp_files/12865.got.cif
#   From: 2010.05.17/outbox.cif.g08.bks.cpg/sg22_7_cif.got.tgz:12865.got - 2010.06.03 23:40:54.
