data_PCOD9328053
_publ_section_title
;
Structure prediction by ZEFSAII (Michael W. Deem and Ramdas Pophale) SiO2 
 PCOD9328053
Probable space group: F 2 2 2
;
_chemical_formula_sum "Si O2"
_cell_formula_units_Z 64
_cell_length_a 17.086842
_cell_length_b 13.479062
_cell_length_c 12.615574
_cell_angle_alpha 90.000000
_cell_angle_beta 90.000000
_cell_angle_gamma 90.000000
_cell_volume 2905.550914
_symmetry_space_group_name_H-M "F 2 2 2"
_symmetry_group_IT_number 22
_symmetry_cell_setting 'orthorhombic'
loop_
_space_group_symop_operation_xyz
x,y,z
-x,-y,z
x,-y,-z
-x,y,-z
x,1/2+y,1/2+z
-x,1/2-y,1/2+z
x,1/2-y,1/2-z
-x,1/2+y,1/2-z
1/2+x,y,1/2+z
1/2-x,-y,1/2+z
1/2+x,-y,1/2-z
1/2-x,y,1/2-z
1/2+x,1/2+y,z
1/2-x,1/2-y,z
1/2+x,1/2-y,-z
1/2-x,1/2+y,-z
loop_
_atom_site_type_symbol
_atom_site_label
_atom_site_fract_x
_atom_site_fract_y
_atom_site_fract_z
Si Si1 0.771270 0.582570 0.135463
Si Si2 0.671128 0.721548 0.556429
Si Si3 0.079492 0.054740 0.672583
Si Si4 0.878228 0.436997 0.410495
O O1 0.750000 0.628319 0.250000
O O2 0.849487 0.519334 0.149602
O O3 0.701995 0.502044 0.111592
O O4 0.794182 0.660463 0.043787
O O5 0.750000 0.750000 0.622614
O O6 0.606533 0.654202 0.613167
O O7 0.635428 0.829397 0.538562
O O8 0.079476 0.074308 0.798478
O O9 0.000000 0.000000 0.639693
O O10 0.919399 0.500000 0.500000
#
# Coordination Sequence:
#
# PCOD9328053 Si02
#       4
#    16  16  16  16
#     4  10  22  42  68 103 141 183 246 312 360 434
#     4  12  22  41  73 109 133 189 251 303 365 442
#     4  11  25  44  67 102 149 193 241 307 377 444
#     4  11  22  43  69 102 140 188 250 311 364 435
#
# _framework density 22.026803000000001
#
# number of rings (size 3 to 8) (size 9 to 14) (size 15 to 20)
#    0.000    1.000    5.000    1.500    0.000    4.000 
#    0.000    7.500    0.000    0.000    0.000    0.000 
#    0.000    0.000    0.000    0.000    0.000    0.000 
#
# Total GULP energy -89287.003413 kJ/mol
# GULP energy per Si atom -5580.437713 kJ/mol
# Density = 2.197667 g / cm^3
# Si number density = 22.026803 Si / 1000 Ang^3
#
#
#
# Elastic Constant Matrix: (Units=GPa)
#
#
# Indices 1 2 3 4 5 6 
#
# 1 126.4208 53.3296 30.2015 0.0000 0.0000 0.0000
# 2 53.3296 192.5349 81.0815 0.0000 0.0000 0.0000
# 3 30.2015 81.0815 142.2395 0.0000 0.0000 0.0000
# 4 0.0000 0.0000 0.0000 15.0470 0.0000 0.0000
# 5 0.0000 0.0000 0.0000 0.0000 -12.9185 0.0000
# 6 0.0000 0.0000 0.0000 0.0000 0.0000 32.1689
#
#
#
# Elastic Compliance Matrix: (Units=1/GPa)
#
#
# Indices 1 2 3 4 5 6 
#
# 1 0.009001 -0.002222 -0.000645 0.000000 0.000000 0.000000
# 2 -0.002222 0.007383 -0.003737 0.000000 0.000000 0.000000
# 3 -0.000645 -0.003737 0.009297 0.000000 0.000000 0.000000
# 4 0.000000 0.000000 0.000000 0.066458 0.000000 0.000000
# 5 0.000000 0.000000 0.000000 0.000000 -0.077408 0.000000
# 6 0.000000 0.000000 0.000000 0.000000 0.000000 0.031086
#
#
# Mechanical properties :
#
#
# Convention : Reuss Voigt Hill
#
# Bulk Modulus (GPa) = 80.15978 87.82448 83.99213
# Shear Modulus (GPa) = 79.13555 26.63164 52.88360
#
# Velocity S-wave (km/s) = 6.00041 3.48092 4.90519
# Velocity P-wave (km/s) = 9.19116 7.49092 8.38425
#
# Compressibility (1/GPa) = 0.01247508
#
# Stress axis : x y z
#
# Youngs Moduli (GPa) = 111.09453 135.44795 107.55691
#
# Poissons Ratio (x) = 0.30093 0.06935
# Poissons Ratio (y) = 0.24682 0.40192
# Poissons Ratio (z) = 0.07163 0.50614
#
# Static dielectric constant tensor:
#      x y z
#    x 1.860480 0.000000 0.000000 
#    y 0.000000 1.834300 0.000000 
#    z 0.000000 0.000000 1.910070 
# 
# From -- ./inp_files/30245.got.cif
#   From: 2010.05.17/outbox.cif.g08.bks.cpg/sg22_16_cif.got.tgz:30245.got - 2010.06.03 23:40:54.
