data_PCOD9328026
_publ_section_title
;
Structure prediction by ZEFSAII (Michael W. Deem and Ramdas Pophale) SiO2 
 PCOD9328026
Probable space group: F 2 2 2
;
_chemical_formula_sum "Si O2"
_cell_formula_units_Z 68
_cell_length_a 32.313385
_cell_length_b 5.287782
_cell_length_c 19.518270
_cell_angle_alpha 90.000000
_cell_angle_beta 90.000000
_cell_angle_gamma 90.000000
_cell_volume 3335.011368
_symmetry_space_group_name_H-M "F 2 2 2"
_symmetry_group_IT_number 22
_symmetry_cell_setting 'orthorhombic'
loop_
_space_group_symop_operation_xyz
x,y,z
-x,-y,z
x,-y,-z
-x,y,-z
x,1/2+y,1/2+z
-x,1/2-y,1/2+z
x,1/2-y,1/2-z
-x,1/2+y,1/2-z
1/2+x,y,1/2+z
1/2-x,-y,1/2+z
1/2+x,-y,1/2-z
1/2-x,y,1/2-z
1/2+x,1/2+y,z
1/2-x,1/2-y,z
1/2+x,1/2-y,-z
1/2-x,1/2+y,-z
loop_
_atom_site_type_symbol
_atom_site_label
_atom_site_fract_x
_atom_site_fract_y
_atom_site_fract_z
Si Si1 0.379849 0.194210 0.669036
Si Si2 0.750000 0.750000 0.750000
Si Si3 0.687053 0.577986 0.577748
Si Si4 0.475934 0.246564 0.666658
Si Si5 0.198985 0.928945 0.858036
O O1 0.377157 0.250000 0.750000
O O2 0.355281 0.386665 0.620211
O O3 0.427752 0.208261 0.649314
O O4 0.350777 0.947639 0.656945
O O5 0.778912 0.562505 0.706065
O O6 0.681668 0.500000 0.500000
O O7 0.709572 0.352920 0.619054
O O8 0.706134 0.858937 0.583208
O O9 0.500000 0.500000 0.643920
O O10 0.477343 0.250000 0.750000
O O11 0.500000 0.000000 0.642297
#
# Coordination Sequence:
#
# PCOD9328026 Si02
#       5
#    16   4  16  16  16
#     4   9  20  36  60  93 120 159 209 254 312 364
#     4  12  24  46  64 106 124 154 206 274 336 358
#     4  10  22  42  63  91 122 171 211 245 307 382
#     4   9  18  30  49  82 123 155 191 252 309 358
#     4  10  23  38  66  90 123 160 199 258 307 378
#
# _framework density 20.389737
#
# number of rings (size 3 to 8) (size 9 to 14) (size 15 to 20)
#    1.412    0.941    1.176    0.706    3.294    5.647 
#    0.000    2.353    0.000    0.706    0.000    0.000 
#    0.000    0.000    0.000    0.000    0.000    0.000 
#
# Total GULP energy -94654.133065 kJ/mol
# GULP energy per Si atom -5567.890180 kJ/mol
# Density = 2.034333 g / cm^3
# Si number density = 20.389737 Si / 1000 Ang^3
#
#
#
# Elastic Constant Matrix: (Units=GPa)
#
#
# Indices 1 2 3 4 5 6 
#
# 1 119.5830 27.4893 9.4536 -0.0002 -0.0011 0.0013
# 2 27.4893 115.9475 10.1034 0.0013 -0.0016 0.0004
# 3 9.4536 10.1034 76.4687 0.0007 0.0000 -0.0002
# 4 -0.0002 0.0013 0.0007 18.5857 -0.0002 -0.0002
# 5 -0.0011 -0.0016 0.0000 -0.0002 -17.7340 0.0008
# 6 0.0013 0.0004 -0.0002 -0.0002 0.0008 28.0797
#
#
#
# Elastic Compliance Matrix: (Units=1/GPa)
#
#
# Indices 1 2 3 4 5 6 
#
# 1 0.008896 -0.002037 -0.000831 0.000000 0.000000 0.000000
# 2 -0.002037 0.009191 -0.000963 -0.000001 -0.000001 0.000000
# 3 -0.000831 -0.000963 0.013307 0.000000 0.000000 0.000000
# 4 0.000000 -0.000001 0.000000 0.053805 -0.000001 0.000000
# 5 0.000000 -0.000001 0.000000 -0.000001 -0.056389 0.000002
# 6 0.000000 0.000000 0.000000 0.000000 0.000002 0.035613
#
#
# Mechanical properties :
#
#
# Convention : Reuss Voigt Hill
#
# Bulk Modulus (GPa) = 42.13262 45.12131 43.62697
# Shear Modulus (GPa) = 62.50374 23.44982 42.97678
#
# Velocity S-wave (km/s) = 5.54266 3.39496 4.59602
# Velocity P-wave (km/s) = 7.85302 6.12741 7.04326
#
# Compressibility (1/GPa) = 0.02373458
#
# Stress axis : x y z
#
# Youngs Moduli (GPa) = 112.40664 108.79786 75.14770
#
# Poissons Ratio (x) = 0.22160 0.06243
# Poissons Ratio (y) = 0.22895 0.07234
# Poissons Ratio (z) = 0.09338 0.10473
#
# Static dielectric constant tensor:
#      x y z
#    x 1.808970 0.000000 0.000000 
#    y 0.000000 1.754010 0.000000 
#    z 0.000000 0.000000 1.704100 
# 
# From -- ./inp_files/45945.got.cif
#   From: 2010.05.17/outbox.cif.g08.bks.cpg/sg22_23_cif.got.tgz:45945.got - 2010.06.03 23:40:54.
