data_PCOD9328076
_publ_section_title
;
Structure prediction by ZEFSAII (Michael W. Deem and Ramdas Pophale) SiO2 
 PCOD9328076
Probable space group: F 2 2 2
;
_chemical_formula_sum "Si O2"
_cell_formula_units_Z 88
_cell_length_a 11.370441
_cell_length_b 15.120993
_cell_length_c 25.995880
_cell_angle_alpha 90.000000
_cell_angle_beta 90.000000
_cell_angle_gamma 90.000000
_cell_volume 4469.532967
_symmetry_space_group_name_H-M "F 2 2 2"
_symmetry_group_IT_number 22
_symmetry_cell_setting 'orthorhombic'
loop_
_space_group_symop_operation_xyz
x,y,z
-x,-y,z
x,-y,-z
-x,y,-z
x,1/2+y,1/2+z
-x,1/2-y,1/2+z
x,1/2-y,1/2-z
-x,1/2+y,1/2-z
1/2+x,y,1/2+z
1/2-x,-y,1/2+z
1/2+x,-y,1/2-z
1/2-x,y,1/2-z
1/2+x,1/2+y,z
1/2-x,1/2-y,z
1/2+x,1/2-y,-z
1/2-x,1/2+y,-z
loop_
_atom_site_type_symbol
_atom_site_label
_atom_site_fract_x
_atom_site_fract_y
_atom_site_fract_z
Si Si1 0.367134 0.395099 0.989015
Si Si2 0.362267 0.509257 0.653009
Si Si3 0.229391 0.649513 0.593723
Si Si4 0.303620 0.653476 0.127604
Si Si5 0.750000 0.897326 0.250000
Si Si6 0.459062 0.398092 0.176664
O O1 0.287827 0.351374 0.032853
O O2 0.359142 0.500000 0.000000
O O3 0.500000 0.366545 0.000000
O O4 0.338459 0.371812 0.930709
O O5 0.500000 0.500000 0.656901
O O6 0.332008 0.583220 0.610352
O O7 0.293352 0.419080 0.642594
O O8 0.365936 0.640844 0.780946
O O9 0.250000 0.750000 0.611726
O O10 0.116012 0.608573 0.623499
O O11 0.250000 0.750000 0.128959
O O12 0.417886 0.649350 0.164635
O O13 0.809597 0.953687 0.294375
O O14 0.500000 0.500000 0.187584
#
# Coordination Sequence:
#
# PCOD9328076 Si02
#       6
#    16  16  16  16   8  16
#     4  11  20  38  69 101 131 181 236 277 337 413
#     4  11  25  43  65  94 135 181 220 281 349 407
#     4  11  23  40  66  98 137 177 223 278 333 411
#     4  12  25  42  68 103 142 179 228 290 339 409
#     4  10  22  42  78  92 124 176 230 282 352 404
#     4  11  20  44  72  97 131 178 230 281 342 405
#
# _framework density 19.688856999999999
#
# number of rings (size 3 to 8) (size 9 to 14) (size 15 to 20)
#    0.000    0.909    7.273    1.091    2.545    0.000 
#    0.000    9.545    8.000    0.000    0.000    0.000 
#    0.000    0.000    0.000    0.000    0.000    0.000 
#
# Total GULP energy -122729.163434 kJ/mol
# GULP energy per Si atom -5578.598338 kJ/mol
# Density = 1.964404 g / cm^3
# Si number density = 19.688857 Si / 1000 Ang^3
#
#
#
# Elastic Constant Matrix: (Units=GPa)
#
#
# Indices 1 2 3 4 5 6 
#
# 1 153.8470 44.5780 52.6669 0.0000 0.0000 0.0000
# 2 44.5780 80.3381 24.9121 0.0000 0.0000 0.0000
# 3 52.6669 24.9121 107.7956 0.0000 0.0000 0.0000
# 4 0.0000 0.0000 0.0000 11.9415 0.0000 0.0000
# 5 0.0000 0.0000 0.0000 0.0000 30.8391 0.0000
# 6 0.0000 0.0000 0.0000 0.0000 0.0000 12.5715
#
#
#
# Elastic Compliance Matrix: (Units=1/GPa)
#
#
# Indices 1 2 3 4 5 6 
#
# 1 0.008769 -0.003810 -0.003404 0.000000 0.000000 0.000000
# 2 -0.003810 0.015064 -0.001620 0.000000 0.000000 0.000000
# 3 -0.003404 -0.001620 0.011314 0.000000 0.000000 0.000000
# 4 0.000000 0.000000 0.000000 0.083742 0.000000 0.000000
# 5 0.000000 0.000000 0.000000 0.000000 0.032426 0.000000
# 6 0.000000 0.000000 0.000000 0.000000 0.000000 0.079545
#
#
# Mechanical properties :
#
#
# Convention : Reuss Voigt Hill
#
# Bulk Modulus (GPa) = 57.20977 65.14384 61.17680
# Shear Modulus (GPa) = 19.65759 25.72534 22.69147
#
# Velocity S-wave (km/s) = 3.16319 3.61861 3.39854
# Velocity P-wave (km/s) = 6.51622 7.11460 6.82197
#
# Compressibility (1/GPa) = 0.01747953
#
# Stress axis : x y z
#
# Youngs Moduli (GPa) = 114.03382 66.38362 88.38429
#
# Poissons Ratio (x) = 0.25295 0.30085
# Poissons Ratio (y) = 0.43451 0.14315
# Poissons Ratio (z) = 0.38816 0.10752
#
# Static dielectric constant tensor:
#      x y z
#    x 1.688330 0.000000 0.000000 
#    y 0.000000 1.691900 0.000000 
#    z 0.000000 0.000000 1.675140 
# 
# From -- ./inp_files/23667.got.cif
#   From: 2010.05.17/outbox.cif.g08.bks.cpg/sg22_12_cif.got.tgz:23667.got - 2010.06.03 23:40:54.
