data_PCOD9328557
_publ_section_title
;
Structure prediction by ZEFSAII (Michael W. Deem and Ramdas Pophale) SiO2 
 PCOD9328557
Probable space group: F 2 2 2
;
_chemical_formula_sum "Si O2"
_cell_formula_units_Z 84
_cell_length_a 16.394584
_cell_length_b 20.173983
_cell_length_c 13.095324
_cell_angle_alpha 90.000000
_cell_angle_beta 90.000000
_cell_angle_gamma 90.000000
_cell_volume 4331.200612
_symmetry_space_group_name_H-M "F 2 2 2"
_symmetry_group_IT_number 22
_symmetry_cell_setting 'orthorhombic'
loop_
_space_group_symop_operation_xyz
x,y,z
-x,-y,z
x,-y,-z
-x,y,-z
x,1/2+y,1/2+z
-x,1/2-y,1/2+z
x,1/2-y,1/2-z
-x,1/2+y,1/2-z
1/2+x,y,1/2+z
1/2-x,-y,1/2+z
1/2+x,-y,1/2-z
1/2-x,y,1/2-z
1/2+x,1/2+y,z
1/2-x,1/2-y,z
1/2+x,1/2-y,-z
1/2-x,1/2+y,-z
loop_
_atom_site_type_symbol
_atom_site_label
_atom_site_fract_x
_atom_site_fract_y
_atom_site_fract_z
Si Si1 0.880833 0.411527 0.138258
Si Si2 0.500000 0.363621 0.000000
Si Si3 0.250000 0.999631 0.750000
Si Si4 0.657322 0.436197 0.927295
Si Si5 0.898523 0.316703 0.314201
Si Si6 0.500000 0.000000 0.000000
Si Si7 0.753033 0.324492 0.044007
O O1 0.803892 0.456250 0.173053
O O2 0.916589 0.379258 0.241231
O O3 0.841696 0.350173 0.075996
O O4 0.943009 0.454046 0.071485
O O5 0.566405 0.408963 0.942648
O O6 0.453945 0.320785 0.914684
O O7 0.313882 0.957289 0.684340
O O8 0.666395 0.500000 0.000000
O O9 0.715584 0.377928 0.967658
O O10 0.908447 0.250000 0.250000
O O11 0.806177 0.322992 0.356641
O O12 0.750000 0.250000 0.002683
#
# Coordination Sequence:
#
# PCOD9328557 Si02
#       7
#    16   8   8  16  16   4  16
#     4  12  23  43  67  98 130 177 218 285 333 398
#     4  10  25  41  56  99 130 173 210 274 341 396
#     4  12  22  40  72  94 128 174 230 266 330 404
#     4  11  22  41  65  95 131 172 218 277 330 399
#     4  11  22  40  68  93 129 173 226 276 336 402
#     4  12  32  42  64 104 148 170 226 280 356 394
#     4  11  21  42  69  98 126 168 231 279 320 395
#
# _framework density 19.394161
#
# number of rings (size 3 to 8) (size 9 to 14) (size 15 to 20)
#    0.000    0.762    5.714    2.571    2.667    0.762 
#    0.000    0.476    0.000    0.000    0.000    0.000 
#    0.000    0.000    0.000    0.000    0.000    0.000 
#
# Total GULP energy -117362.187855 kJ/mol
# GULP energy per Si atom -5588.675612 kJ/mol
# Density = 1.935002 g / cm^3
# Si number density = 19.394161 Si / 1000 Ang^3
#
#
#
# Elastic Constant Matrix: (Units=GPa)
#
#
# Indices 1 2 3 4 5 6 
#
# 1 84.4661 33.9586 31.0219 0.0000 0.0000 0.0000
# 2 33.9586 110.7742 26.5989 0.0000 0.0000 0.0000
# 3 31.0219 26.5989 40.9553 0.0000 0.0000 0.0000
# 4 0.0000 0.0000 0.0000 26.3379 0.0000 0.0000
# 5 0.0000 0.0000 0.0000 0.0000 32.0519 0.0000
# 6 0.0000 0.0000 0.0000 0.0000 0.0000 20.1831
#
#
#
# Elastic Compliance Matrix: (Units=1/GPa)
#
#
# Indices 1 2 3 4 5 6 
#
# 1 0.016970 -0.002507 -0.011226 0.000000 0.000000 0.000000
# 2 -0.002507 0.011066 -0.005288 0.000000 0.000000 0.000000
# 3 -0.011226 -0.005288 0.036354 0.000000 0.000000 0.000000
# 4 0.000000 0.000000 0.000000 0.037968 0.000000 0.000000
# 5 0.000000 0.000000 0.000000 0.000000 0.031199 0.000000
# 6 0.000000 0.000000 0.000000 0.000000 0.000000 0.049546
#
#
# Mechanical properties :
#
#
# Convention : Reuss Voigt Hill
#
# Bulk Modulus (GPa) = 37.95269 46.59493 42.27381
# Shear Modulus (GPa) = 21.74599 25.35566 23.55083
#
# Velocity S-wave (km/s) = 3.35216 3.61970 3.48850
# Velocity P-wave (km/s) = 5.88169 6.44570 6.17014
#
# Compressibility (1/GPa) = 0.02634859
#
# Stress axis : x y z
#
# Youngs Moduli (GPa) = 58.92826 90.37063 27.50706
#
# Poissons Ratio (x) = 0.22653 0.30879
# Poissons Ratio (y) = 0.14771 0.14546
# Poissons Ratio (z) = 0.66152 0.47788
#
# Static dielectric constant tensor:
#      x y z
#    x 1.686420 0.000000 0.000000 
#    y 0.000000 1.682120 0.000000 
#    z 0.000000 0.000000 1.678010 
# 
# From -- ./inp_files/21348.got.cif
#   From: 2010.05.17/outbox.cif.g08.bks.cpg/sg22_11_cif.got.tgz:21348.got - 2010.06.03 23:40:54.
