data_PCOD9328058
_publ_section_title
;
Structure prediction by ZEFSAII (Michael W. Deem and Ramdas Pophale) SiO2 
 PCOD9328058
Probable space group: F 2 2 2
;
_chemical_formula_sum "Si O2"
_cell_formula_units_Z 64
_cell_length_a 4.944990
_cell_length_b 19.604876
_cell_length_c 25.512346
_cell_angle_alpha 90.000000
_cell_angle_beta 90.000000
_cell_angle_gamma 90.000000
_cell_volume 2473.317746
_symmetry_space_group_name_H-M "F 2 2 2"
_symmetry_group_IT_number 22
_symmetry_cell_setting 'orthorhombic'
loop_
_space_group_symop_operation_xyz
x,y,z
-x,-y,z
x,-y,-z
-x,y,-z
x,1/2+y,1/2+z
-x,1/2-y,1/2+z
x,1/2-y,1/2-z
-x,1/2+y,1/2-z
1/2+x,y,1/2+z
1/2-x,-y,1/2+z
1/2+x,-y,1/2-z
1/2-x,y,1/2-z
1/2+x,1/2+y,z
1/2-x,1/2-y,z
1/2+x,1/2-y,-z
1/2-x,1/2+y,-z
loop_
_atom_site_type_symbol
_atom_site_label
_atom_site_fract_x
_atom_site_fract_y
_atom_site_fract_z
Si Si1 0.912890 0.363018 0.302711
Si Si2 0.500000 0.000000 0.718863
Si Si3 0.250000 0.750000 0.639622
Si Si4 0.108104 0.648457 0.946156
Si Si5 0.639362 0.073887 0.409348
O O1 0.750000 0.344018 0.250000
O O2 0.762727 0.397130 0.352724
O O3 0.122749 0.428161 0.300784
O O4 0.068986 0.297796 0.323981
O O5 0.250000 0.029775 0.750000
O O6 0.075325 0.796426 0.600077
O O7 0.413700 0.621941 0.936817
O O8 0.912505 0.582626 0.941410
O O9 0.000000 0.680932 0.000000
O O10 0.500000 0.000000 0.403677
#
# Coordination Sequence:
#
# PCOD9328058 Si02
#       5
#    16   8   8  16  16
#     4  10  23  47  74 106 151 201 252 311 380 449
#     4  10  22  42  70 100 131 188 247 292 358 430
#     4  10  26  48  75 114 158 206 261 324 386 476
#     4  11  26  47  75 109 151 202 254 318 401 466
#     4  11  24  46  75 113 150 194 257 322 386 468
#
# _framework density 25.876176000000001
#
# number of rings (size 3 to 8) (size 9 to 14) (size 15 to 20)
#    0.000    1.500    1.250    1.500    0.000   19.000 
#    0.000   13.125    0.000    0.000    0.000    0.000 
#    0.000    0.000    0.000    0.000    0.000    0.000 
#
# Total GULP energy -89086.965989 kJ/mol
# GULP energy per Si atom -5567.935374 kJ/mol
# Density = 2.581728 g / cm^3
# Si number density = 25.876176 Si / 1000 Ang^3
#
#
#
# Elastic Constant Matrix: (Units=GPa)
#
#
# Indices 1 2 3 4 5 6 
#
# 1 88.7231 26.8909 52.4759 0.0000 0.0000 0.0000
# 2 26.8909 170.6101 70.9100 0.0000 0.0000 0.0000
# 3 52.4759 70.9100 182.0983 0.0000 0.0000 0.0000
# 4 0.0000 0.0000 0.0000 -185.4093 0.0000 0.0000
# 5 0.0000 0.0000 0.0000 0.0000 41.9647 0.0000
# 6 0.0000 0.0000 0.0000 0.0000 0.0000 38.1805
#
#
#
# Elastic Compliance Matrix: (Units=1/GPa)
#
#
# Indices 1 2 3 4 5 6 
#
# 1 0.013641 -0.000616 -0.003691 0.000000 0.000000 0.000000
# 2 -0.000616 0.007021 -0.002557 0.000000 0.000000 0.000000
# 3 -0.003691 -0.002557 0.007551 0.000000 0.000000 0.000000
# 4 0.000000 0.000000 0.000000 -0.005393 0.000000 0.000000
# 5 0.000000 0.000000 0.000000 0.000000 0.023830 0.000000
# 6 0.000000 0.000000 0.000000 0.000000 0.000000 0.026191
#
#
# Mechanical properties :
#
#
# Convention : Reuss Voigt Hill
#
# Bulk Modulus (GPa) = 69.03453 82.44278 75.73866
# Shear Modulus (GPa) = 54.70733 -1.64252 26.53241
#
# Velocity S-wave (km/s) = 4.60303 -0.79758 3.20560
# Velocity P-wave (km/s) = 7.41534 5.57508 6.56006
#
# Compressibility (1/GPa) = 0.01448550
#
# Stress axis : x y z
#
# Youngs Moduli (GPa) = 73.30943 142.43099 132.43754
#
# Poissons Ratio (x) = 0.08772 0.48884
# Poissons Ratio (y) = 0.04515 0.33858
# Poissons Ratio (z) = 0.27059 0.36413
#
# Static dielectric constant tensor:
#      x y z
#    x 6.835240 0.000000 0.000000 
#    y 0.000000 2.087990 0.000000 
#    z 0.000000 0.000000 2.552010 
# 
# From -- ./inp_files/51082.got.cif
#   From: 2010.05.17/outbox.cif.g08.bks.cpg/sg22_26_cif.got.tgz:51082.got - 2010.06.03 23:40:54.
