data_PCOD9329607
_publ_section_title
;
Structure prediction by ZEFSAII (Michael W. Deem and Ramdas Pophale) SiO2 
 PCOD9329607
Probable space group: I 2 2 2
;
_chemical_formula_sum "Si O2"
_cell_formula_units_Z 56
_cell_length_a 11.927034
_cell_length_b 20.756558
_cell_length_c 11.163073
_cell_angle_alpha 90.000000
_cell_angle_beta 90.000000
_cell_angle_gamma 90.000000
_cell_volume 2763.576935
_symmetry_space_group_name_H-M "I 2 2 2"
_symmetry_group_IT_number 23
_symmetry_cell_setting 'orthorhombic'
loop_
_space_group_symop_operation_xyz
x,y,z
-x,-y,z
x,-y,-z
-x,y,-z
1/2+x,1/2+y,1/2+z
1/2-x,1/2-y,1/2+z
1/2+x,1/2-y,1/2-z
1/2-x,1/2+y,1/2-z
loop_
_atom_site_type_symbol
_atom_site_label
_atom_site_fract_x
_atom_site_fract_y
_atom_site_fract_z
Si Si1 0.879176 0.334100 0.468785
Si Si2 0.792363 0.388569 0.252243
Si Si3 0.829550 0.206580 0.592175
Si Si4 0.047720 0.228876 0.727175
Si Si5 0.486297 0.848641 0.360302
Si Si6 0.368118 0.499311 0.855078
Si Si7 0.773527 0.138705 0.335757
O O1 0.796586 0.380781 0.396235
O O2 0.830493 0.283457 0.565568
O O3 0.915582 0.282588 0.368096
O O4 0.000000 0.365047 0.500000
O O5 0.754738 0.321448 0.189751
O O6 0.707169 0.441969 0.201246
O O7 0.921454 0.392797 0.207095
O O8 0.803066 0.167575 0.469451
O O9 0.949780 0.192253 0.653712
O O10 0.150202 0.182187 0.749953
O O11 0.005257 0.272173 0.836098
O O12 0.500000 0.861992 0.500000
O O13 0.359228 0.859701 0.320196
O O14 0.500000 0.500000 0.821972
O O15 0.313923 0.566624 0.819658
O O16 0.362335 0.500000 0.000000
#
# Coordination Sequence:
#
# PCOD9329607 Si02
#       7
#     8   8   8   8   8   8   8
#     4   8  18  35  53  84 119 158 206 250 309 375
#     4  11  21  35  56  86 126 166 205 257 321 383
#     4  10  18  33  56  83 123 157 198 255 310 374
#     4   9  21  33  56  82 117 162 203 249 310 374
#     4  11  22  35  53  86 125 156 202 255 323 377
#     4  11  22  36  57  87 125 170 215 256 316 386
#     4  11  21  36  54  84 122 165 205 255 310 379
#
# _framework density 20.263591999999999
#
# number of rings (size 3 to 8) (size 9 to 14) (size 15 to 20)
#    0.000    1.857    2.857    2.143    8.000    0.571 
#    0.000    1.429    0.000    0.000    0.000   21.000 
#    0.000    0.000    0.000    0.000    0.000    0.000 
#
# Total GULP energy -156003.071374 kJ/mol
# GULP energy per Si atom -5571.538263 kJ/mol
# Density = 2.021747 g / cm^3
# Si number density = 20.263592 Si / 1000 Ang^3
#
#
#
# Elastic Constant Matrix: (Units=GPa)
#
#
# Indices 1 2 3 4 5 6 
#
# 1 180.6953 75.0209 35.3324 0.0000 0.0000 0.0000
# 2 75.0209 87.2112 28.6222 0.0000 0.0000 0.0000
# 3 35.3324 28.6222 49.5454 0.0000 0.0000 0.0000
# 4 0.0000 0.0000 0.0000 20.0846 0.0000 0.0000
# 5 0.0000 0.0000 0.0000 0.0000 27.4250 0.0000
# 6 0.0000 0.0000 0.0000 0.0000 0.0000 29.1412
#
#
#
# Elastic Compliance Matrix: (Units=1/GPa)
#
#
# Indices 1 2 3 4 5 6 
#
# 1 0.008826 -0.006819 -0.002354 0.000000 0.000000 0.000000
# 2 -0.006819 0.019418 -0.006355 0.000000 0.000000 0.000000
# 3 -0.002354 -0.006355 0.025534 0.000000 0.000000 0.000000
# 4 0.000000 0.000000 0.000000 0.049789 0.000000 0.000000
# 5 0.000000 0.000000 0.000000 0.000000 0.036463 0.000000
# 6 0.000000 0.000000 0.000000 0.000000 0.000000 0.034316
#
#
# Mechanical properties :
#
#
# Convention : Reuss Voigt Hill
#
# Bulk Modulus (GPa) = 44.01295 66.15587 55.08441
# Shear Modulus (GPa) = 23.47676 27.22857 25.35267
#
# Velocity S-wave (km/s) = 3.40747 3.66965 3.54099
# Velocity P-wave (km/s) = 6.10315 7.11854 6.63032
#
# Compressibility (1/GPa) = 0.02272059
#
# Stress axis : x y z
#
# Youngs Moduli (GPa) = 113.30344 51.49803 39.16409
#
# Poissons Ratio (x) = 0.35119 0.09221
# Poissons Ratio (y) = 0.77267 0.24887
# Poissons Ratio (z) = 0.26676 0.32725
#
# Static dielectric constant tensor:
#      x y z
#    x 1.807870 0.000000 0.000000 
#    y 0.000000 1.740170 0.000000 
#    z 0.000000 0.000000 1.830410 
# 
# From -- ./inp_files/15918.got.cif
#   From: 2010.05.17/outbox.cif.g08.bks.cpg/sg23_8_cif.got.tgz:15918.got - 2010.06.04 12:02:01.
