data_PCOD9329476
_publ_section_title
;
Structure prediction by ZEFSAII (Michael W. Deem and Ramdas Pophale) SiO2 
 PCOD9329476
Probable space group: I 2 2 2
;
_chemical_formula_sum "Si O2"
_cell_formula_units_Z 48
_cell_length_a 19.210271
_cell_length_b 8.470299
_cell_length_c 14.532571
_cell_angle_alpha 90.000000
_cell_angle_beta 90.000000
_cell_angle_gamma 90.000000
_cell_volume 2364.692566
_symmetry_space_group_name_H-M "I 2 2 2"
_symmetry_group_IT_number 23
_symmetry_cell_setting 'orthorhombic'
loop_
_space_group_symop_operation_xyz
x,y,z
-x,-y,z
x,-y,-z
-x,y,-z
1/2+x,1/2+y,1/2+z
1/2-x,1/2-y,1/2+z
1/2+x,1/2-y,1/2-z
1/2-x,1/2+y,1/2-z
loop_
_atom_site_type_symbol
_atom_site_label
_atom_site_fract_x
_atom_site_fract_y
_atom_site_fract_z
Si Si1 0.337398 0.656483 0.313288
Si Si2 0.500000 0.000000 0.000000
Si Si3 0.389070 0.813004 0.877615
Si Si4 0.166548 0.000000 0.000000
Si Si5 0.112309 0.943340 0.631847
Si Si6 0.500000 0.500000 0.000000
Si Si7 0.693785 0.973208 0.769719
Si Si8 0.210723 0.721278 0.548337
O O1 0.364131 0.579116 0.407750
O O2 0.392111 0.633171 0.231424
O O3 0.314642 0.841535 0.309625
O O4 0.269062 0.556788 0.278751
O O5 0.549231 0.900181 0.069008
O O6 0.398716 0.628932 0.859187
O O7 0.364545 0.893460 0.782214
O O8 0.325813 0.815117 0.951960
O O9 0.212851 0.149639 0.963856
O O10 0.051284 0.895343 0.562147
O O11 0.184941 0.892883 0.582353
O O12 0.682537 0.878169 0.865205
#
# Coordination Sequence:
#
# PCOD9329476 Si02
#       8
#     8   2   8   4   8   2   8   8
#     4  10  21  35  56  80 109 157 197 253 296 349
#     4  12  24  32  58  80 118 174 180 222 310 362
#     4  12  19  35  50  78 120 157 193 238 291 362
#     4  10  19  38  62  80 120 155 208 248 294 354
#     4  11  24  33  56  84 118 153 194 238 301 359
#     4  12  22  36  52  88 122 148 184 244 286 382
#     4  10  19  33  52  76 111 150 199 238 290 347
#     4  10  17  34  52  79 111 155 184 235 285 346
#
# _framework density 20.298622000000002
#
# number of rings (size 3 to 8) (size 9 to 14) (size 15 to 20)
#    0.000    1.333    6.667    1.500    0.000    0.000 
#    0.000    0.000    0.000    0.500    0.000    0.000 
#    0.000    1.333    0.000    0.000    0.000    0.000 
#
# Total GULP energy -133604.270284 kJ/mol
# GULP energy per Si atom -5566.844595 kJ/mol
# Density = 2.025242 g / cm^3
# Si number density = 20.298622 Si / 1000 Ang^3
#
#
#
# Elastic Constant Matrix: (Units=GPa)
#
#
# Indices 1 2 3 4 5 6 
#
# 1 25.5880 14.0577 14.7874 0.0000 0.0000 0.0000
# 2 14.0577 97.4229 17.5821 0.0000 0.0000 0.0000
# 3 14.7874 17.5821 101.8900 0.0000 0.0000 0.0000
# 4 0.0000 0.0000 0.0000 39.6815 0.0000 0.0000
# 5 0.0000 0.0000 0.0000 0.0000 16.8740 0.0000
# 6 0.0000 0.0000 0.0000 0.0000 0.0000 20.0507
#
#
#
# Elastic Compliance Matrix: (Units=1/GPa)
#
#
# Indices 1 2 3 4 5 6 
#
# 1 0.045373 -0.005531 -0.005631 0.000000 0.000000 0.000000
# 2 -0.005531 0.011269 -0.001142 0.000000 0.000000 0.000000
# 3 -0.005631 -0.001142 0.010829 0.000000 0.000000 0.000000
# 4 0.000000 0.000000 0.000000 0.025201 0.000000 0.000000
# 5 0.000000 0.000000 0.000000 0.000000 0.059263 0.000000
# 6 0.000000 0.000000 0.000000 0.000000 0.000000 0.049874
#
#
# Mechanical properties :
#
#
# Convention : Reuss Voigt Hill
#
# Bulk Modulus (GPa) = 23.32966 35.30615 29.31790
# Shear Modulus (GPa) = 20.77251 27.21949 23.99600
#
# Velocity S-wave (km/s) = 3.20245 3.66587 3.44197
# Velocity P-wave (km/s) = 5.01920 5.94553 5.50190
#
# Compressibility (1/GPa) = 0.04286389
#
# Stress axis : x y z
#
# Youngs Moduli (GPa) = 22.03933 88.74141 92.34713
#
# Poissons Ratio (x) = 0.49083 0.51997
# Poissons Ratio (y) = 0.12190 0.10544
# Poissons Ratio (z) = 0.12410 0.10133
#
# Static dielectric constant tensor:
#      x y z
#    x 1.769100 0.000000 0.000000 
#    y 0.000000 1.873020 0.000000 
#    z 0.000000 0.000000 1.774120 
# 
# From -- ./inp_files/22344.got.cif
#   From: 2010.05.17/outbox.cif.g08.bks.cpg/sg23_12_cif.got.tgz:22344.got - 2010.06.04 12:02:01.
