data_PCOD9329149
_publ_section_title
;
Structure prediction by ZEFSAII (Michael W. Deem and Ramdas Pophale) SiO2 
 PCOD9329149
Probable space group: F 2 2 2
;
_chemical_formula_sum "Si O2"
_cell_formula_units_Z 92
_cell_length_a 8.386582
_cell_length_b 22.268428
_cell_length_c 21.183042
_cell_angle_alpha 90.000000
_cell_angle_beta 90.000000
_cell_angle_gamma 90.000000
_cell_volume 3956.060137
_symmetry_space_group_name_H-M "F 2 2 2"
_symmetry_group_IT_number 22
_symmetry_cell_setting 'orthorhombic'
loop_
_space_group_symop_operation_xyz
x,y,z
-x,-y,z
x,-y,-z
-x,y,-z
x,1/2+y,1/2+z
-x,1/2-y,1/2+z
x,1/2-y,1/2-z
-x,1/2+y,1/2-z
1/2+x,y,1/2+z
1/2-x,-y,1/2+z
1/2+x,-y,1/2-z
1/2-x,y,1/2-z
1/2+x,1/2+y,z
1/2-x,1/2-y,z
1/2+x,1/2-y,-z
1/2-x,1/2+y,-z
loop_
_atom_site_type_symbol
_atom_site_label
_atom_site_fract_x
_atom_site_fract_y
_atom_site_fract_z
Si Si1 0.637818 0.406739 0.404085
Si Si2 0.997469 0.927866 0.925887
Si Si3 0.434465 0.770647 0.068591
Si Si4 0.665126 0.122963 0.690499
Si Si5 0.932368 0.435214 0.235587
Si Si6 0.500000 0.500000 0.500000
Si Si7 0.750000 0.750000 0.351477
O O1 0.573168 0.342624 0.425790
O O2 0.550745 0.424079 0.338991
O O3 0.604249 0.457392 0.455879
O O4 0.829046 0.404880 0.398810
O O5 0.138377 0.905149 0.879025
O O6 0.000000 0.000000 0.923898
O O7 0.000000 0.909300 0.000000
O O8 0.250000 0.750000 0.079092
O O9 0.578826 0.747975 0.112810
O O10 0.500000 0.752799 0.000000
O O11 0.750000 0.088812 0.750000
O O12 0.493228 0.120843 0.723112
O O13 0.748378 0.186492 0.683500
O O14 0.750000 0.439963 0.250000
O O15 0.000000 0.500000 0.255532
#
# Coordination Sequence:
#
# PCOD9329149 Si02
#       7
#    16  16  16  16  16   4   8
#     4  12  26  45  74 114 156 199 260 325 402 484
#     4  11  26  46  75 113 159 203 253 325 410 487
#     4  12  27  48  78 115 156 214 268 337 399 480
#     4  12  27  47  79 108 149 207 264 326 396 481
#     4  12  26  46  76 114 155 202 258 323 404 486
#     4  12  24  44  78 112 156 200 250 324 408 476
#     4  12  29  52  76 108 158 212 277 326 404 475
#
# _framework density 23.255459999999999
#
# number of rings (size 3 to 8) (size 9 to 14) (size 15 to 20)
#    0.000    0.174    4.348    4.435    4.870    4.174 
#    0.000    0.000    0.000    0.000    0.000    0.000 
#    0.000    0.000    0.000    0.000    0.000    0.000 
#
# Total GULP energy -128469.979741 kJ/mol
# GULP energy per Si atom -5585.651293 kJ/mol
# Density = 2.320253 g / cm^3
# Si number density = 23.255460 Si / 1000 Ang^3
#
#
#
# Elastic Constant Matrix: (Units=GPa)
#
#
# Indices 1 2 3 4 5 6 
#
# 1 109.3190 9.4828 27.7456 0.0000 0.0000 0.0000
# 2 9.4828 83.5374 31.6308 0.0000 0.0000 0.0000
# 3 27.7456 31.6308 164.8229 0.0000 0.0000 0.0000
# 4 0.0000 0.0000 0.0000 6.0953 0.0000 0.0000
# 5 0.0000 0.0000 0.0000 0.0000 25.4695 0.0000
# 6 0.0000 0.0000 0.0000 0.0000 0.0000 41.6372
#
#
#
# Elastic Compliance Matrix: (Units=1/GPa)
#
#
# Indices 1 2 3 4 5 6 
#
# 1 0.009576 -0.000514 -0.001513 0.000000 0.000000 0.000000
# 2 -0.000514 0.012936 -0.002396 0.000000 0.000000 0.000000
# 3 -0.001513 -0.002396 0.006782 0.000000 0.000000 0.000000
# 4 0.000000 0.000000 0.000000 0.164062 0.000000 0.000000
# 5 0.000000 0.000000 0.000000 0.000000 0.039263 0.000000
# 6 0.000000 0.000000 0.000000 0.000000 0.000000 0.024017
#
#
# Mechanical properties :
#
#
# Convention : Reuss Voigt Hill
#
# Bulk Modulus (GPa) = 48.90618 55.04419 51.97519
# Shear Modulus (GPa) = 18.36219 33.89506 26.12863
#
# Velocity S-wave (km/s) = 2.81301 3.82188 3.35557
# Velocity P-wave (km/s) = 5.62373 6.57240 6.11648
#
# Compressibility (1/GPa) = 0.02044731
#
# Stress axis : x y z
#
# Youngs Moduli (GPa) = 104.42525 77.30196 147.45578
#
# Poissons Ratio (x) = 0.03974 0.22316
# Poissons Ratio (y) = 0.05368 0.35331
# Poissons Ratio (z) = 0.15804 0.18522
#
# Static dielectric constant tensor:
#      x y z
#    x 2.206690 0.000000 0.000000 
#    y 0.000000 1.853000 0.000000 
#    z 0.000000 0.000000 2.014500 
# 
# From -- ./inp_files/41869.got.cif
#   From: 2010.05.17/outbox.cif.g08.bks.cpg/sg22_21_cif.got.tgz:41869.got - 2010.06.03 23:40:54.
