data_PCOD9329217
_publ_section_title
;
Structure prediction by ZEFSAII (Michael W. Deem and Ramdas Pophale) SiO2 
 PCOD9329217
Probable space group: F 2 2 2
;
_chemical_formula_sum "Si O2"
_cell_formula_units_Z 44
_cell_length_a 20.657016
_cell_length_b 19.668533
_cell_length_c 4.663138
_cell_angle_alpha 90.000000
_cell_angle_beta 90.000000
_cell_angle_gamma 90.000000
_cell_volume 1894.601264
_symmetry_space_group_name_H-M "F 2 2 2"
_symmetry_group_IT_number 22
_symmetry_cell_setting 'orthorhombic'
loop_
_space_group_symop_operation_xyz
x,y,z
-x,-y,z
x,-y,-z
-x,y,-z
x,1/2+y,1/2+z
-x,1/2-y,1/2+z
x,1/2-y,1/2-z
-x,1/2+y,1/2-z
1/2+x,y,1/2+z
1/2-x,-y,1/2+z
1/2+x,-y,1/2-z
1/2-x,y,1/2-z
1/2+x,1/2+y,z
1/2-x,1/2-y,z
1/2+x,1/2-y,-z
1/2-x,1/2+y,-z
loop_
_atom_site_type_symbol
_atom_site_label
_atom_site_fract_x
_atom_site_fract_y
_atom_site_fract_z
Si Si1 0.250000 0.750000 0.750000
Si Si2 0.175124 0.072342 0.647332
Si Si3 0.138043 0.343579 0.390792
Si Si4 0.958643 0.250000 0.250000
O O1 0.202290 0.702452 0.567085
O O2 0.250000 0.077670 0.750000
O O3 0.148926 0.131989 0.436065
O O4 0.167675 0.000000 0.500000
O O5 0.137404 0.086154 0.937991
O O6 0.082575 0.298602 0.539019
O O7 0.000000 0.211805 0.500000
#
# Coordination Sequence:
#
# PCOD9329217 Si02
#       4
#     4  16  16   8
#     4  12  22  42  64 114 142 170 236 274 396 410
#     4  12  23  42  64 104 148 190 222 274 356 442
#     4  12  25  41  72 100 144 186 227 300 345 439
#     4  12  27  49  70 103 141 194 246 292 352 406
#
# _framework density 23.223883000000001
#
# number of rings (size 3 to 8) (size 9 to 14) (size 15 to 20)
#    0.000    0.000    3.636    8.727    0.000    1.455 
#    0.000    0.000    0.000   16.364    0.000    0.000 
#    0.000    0.000    0.000    0.000    0.000    0.000 
#
# Total GULP energy -61295.992395 kJ/mol
# GULP energy per Si atom -5572.362945 kJ/mol
# Density = 2.317102 g / cm^3
# Si number density = 23.223883 Si / 1000 Ang^3
#
#
#
# Elastic Constant Matrix: (Units=GPa)
#
#
# Indices 1 2 3 4 5 6 
#
# 1 69.5061 23.9794 41.5766 0.0001 -0.0009 -0.0006
# 2 23.9794 102.8191 34.6841 0.0062 -0.0020 0.0007
# 3 41.5766 34.6841 152.3240 0.0172 -0.0070 0.0018
# 4 0.0001 0.0062 0.0172 54.8628 -0.0023 0.0009
# 5 -0.0009 -0.0020 -0.0070 -0.0023 55.2101 -0.0001
# 6 -0.0006 0.0007 0.0018 0.0009 -0.0001 5.5179
#
#
#
# Elastic Compliance Matrix: (Units=1/GPa)
#
#
# Indices 1 2 3 4 5 6 
#
# 1 0.017877 -0.002733 -0.004257 0.000002 0.000000 0.000004
# 2 -0.002733 0.010953 -0.001748 -0.000001 0.000000 -0.000001
# 3 -0.004257 -0.001748 0.008125 -0.000002 0.000001 -0.000003
# 4 0.000002 -0.000001 -0.000002 0.018227 0.000001 -0.000003
# 5 0.000000 0.000000 0.000001 0.000001 0.018113 0.000000
# 6 0.000004 -0.000001 -0.000003 -0.000003 0.000000 0.181230
#
#
# Mechanical properties :
#
#
# Convention : Reuss Voigt Hill
#
# Bulk Modulus (GPa) = 51.33968 58.34771 54.84369
# Shear Modulus (GPa) = 17.95378 38.07875 28.01626
#
# Velocity S-wave (km/s) = 2.78344 4.05364 3.47703
# Velocity P-wave (km/s) = 5.69951 6.86206 6.30763
#
# Compressibility (1/GPa) = 0.01947811
#
# Stress axis : x y z
#
# Youngs Moduli (GPa) = 55.93900 91.30015 123.07808
#
# Poissons Ratio (x) = 0.24953 0.52395
# Poissons Ratio (y) = 0.15289 0.21514
# Poissons Ratio (z) = 0.23814 0.15959
#
# Static dielectric constant tensor:
#      x y z
#    x 1.973560 0.000000 0.000000 
#    y 0.000000 1.890720 0.000000 
#    z 0.000000 0.000000 1.986390 
# 
# From -- ./inp_files/3210.got.cif
#   From: 2010.05.17/outbox.cif.g08.bks.cpg/sg22_2_cif.got.tgz:3210.got - 2010.06.03 23:40:54.
