data_PCOD9329998
_publ_section_title
;
Structure prediction by ZEFSAII (Michael W. Deem and Ramdas Pophale) SiO2 
 PCOD9329998
Probable space group: I 2 2 2
;
_chemical_formula_sum "Si O2"
_cell_formula_units_Z 56
_cell_length_a 17.366832
_cell_length_b 20.447003
_cell_length_c 7.619019
_cell_angle_alpha 90.000000
_cell_angle_beta 90.000000
_cell_angle_gamma 90.000000
_cell_volume 2705.511102
_symmetry_space_group_name_H-M "I 2 2 2"
_symmetry_group_IT_number 23
_symmetry_cell_setting 'orthorhombic'
loop_
_space_group_symop_operation_xyz
x,y,z
-x,-y,z
x,-y,-z
-x,y,-z
1/2+x,1/2+y,1/2+z
1/2-x,1/2-y,1/2+z
1/2+x,1/2-y,1/2-z
1/2-x,1/2+y,1/2-z
loop_
_atom_site_type_symbol
_atom_site_label
_atom_site_fract_x
_atom_site_fract_y
_atom_site_fract_z
Si Si1 0.247080 0.988625 0.788071
Si Si2 0.275698 0.128828 0.724369
Si Si3 0.000000 0.835015 0.000000
Si Si4 0.922376 0.266625 0.446687
Si Si5 0.790701 0.651181 0.638625
Si Si6 0.357295 0.742672 0.328688
Si Si7 0.118299 0.000000 0.500000
Si Si8 0.409764 0.373185 0.186838
O O1 0.287656 0.918877 0.770560
O O2 0.290346 0.051292 0.703768
O O3 0.169649 0.984682 0.673072
O O4 0.234300 0.000000 0.000000
O O5 0.322627 0.185238 0.621900
O O6 0.183193 0.136179 0.700036
O O7 0.292956 0.139186 0.929647
O O8 0.045689 0.882979 0.132205
O O9 0.930928 0.787851 0.072053
O O10 0.865713 0.306249 0.321729
O O11 0.880498 0.248942 0.626538
O O12 0.942378 0.197400 0.363793
O O13 0.000000 0.303743 0.500000
O O14 0.713677 0.692520 0.666391
O O15 0.078187 0.067227 0.554942
#
# Coordination Sequence:
#
# PCOD9329998 Si02
#       8
#     8   8   4   8   8   8   4   8
#     4   9  19  38  63  96 130 166 217 281 319 389
#     4   9  19  36  63  92 124 160 223 258 326 392
#     4  12  24  38  64  95 137 168 216 282 332 376
#     4  11  22  37  59  93 131 157 214 274 322 382
#     4  10  19  35  64  90 121 172 213 262 326 386
#     4  11  21  36  62  95 124 172 214 271 320 386
#     4  10  22  40  67  92 130 171 222 264 326 399
#     4  11  21  41  61  93 125 168 212 274 324 392
#
# _framework density 20.698492000000002
#
# number of rings (size 3 to 8) (size 9 to 14) (size 15 to 20)
#    0.000    1.714    4.286    0.857    0.000    0.000 
#    5.143    0.357    3.143   18.429    0.000    1.000 
#    0.000    0.000    0.000    0.000    0.000    0.000 
#
# Total GULP energy -156085.539263 kJ/mol
# GULP energy per Si atom -5574.483545 kJ/mol
# Density = 2.065138 g / cm^3
# Si number density = 20.698492 Si / 1000 Ang^3
#
#
#
# Elastic Constant Matrix: (Units=GPa)
#
#
# Indices 1 2 3 4 5 6 
#
# 1 71.6223 47.3197 3.7888 0.0000 0.0000 0.0000
# 2 47.3197 128.0778 22.3842 0.0000 0.0000 0.0000
# 3 3.7888 22.3842 42.2833 0.0000 0.0000 0.0000
# 4 0.0000 0.0000 0.0000 29.8010 0.0000 0.0000
# 5 0.0000 0.0000 0.0000 0.0000 12.1110 0.0000
# 6 0.0000 0.0000 0.0000 0.0000 0.0000 -15.0757
#
#
#
# Elastic Compliance Matrix: (Units=1/GPa)
#
#
# Indices 1 2 3 4 5 6 
#
# 1 0.018651 -0.007272 0.002178 0.000000 0.000000 0.000000
# 2 -0.007272 0.011439 -0.005404 0.000000 0.000000 0.000000
# 3 0.002178 -0.005404 0.026316 0.000000 0.000000 0.000000
# 4 0.000000 0.000000 0.000000 0.033556 0.000000 0.000000
# 5 0.000000 0.000000 0.000000 0.000000 0.082570 0.000000
# 6 0.000000 0.000000 0.000000 0.000000 0.000000 -0.066332
#
#
# Mechanical properties :
#
#
# Convention : Reuss Voigt Hill
#
# Bulk Modulus (GPa) = 28.23987 43.21873 35.72930
# Shear Modulus (GPa) = 35.97196 16.59998 26.28597
#
# Velocity S-wave (km/s) = 4.17334 2.83501 3.56750
# Velocity P-wave (km/s) = 6.07416 5.62511 5.85394
#
# Compressibility (1/GPa) = 0.03541093
#
# Stress axis : x y z
#
# Youngs Moduli (GPa) = 53.61619 87.42218 38.00024
#
# Poissons Ratio (x) = 0.63569 -0.08277
# Poissons Ratio (y) = 0.38987 0.20535
# Poissons Ratio (z) = -0.11679 0.47242
#
# Static dielectric constant tensor:
#      x y z
#    x 1.792230 0.000000 0.000000 
#    y 0.000000 1.797720 0.000000 
#    z 0.000000 0.000000 1.822280 
# 
# From -- ./inp_files/10252.got.cif
#   From: 2010.05.17/outbox.cif.g08.bks.cpg/sg23_6_cif.got.tgz:10252.got - 2010.06.04 12:02:01.
