data_PCOD9329488
_publ_section_title
;
Structure prediction by ZEFSAII (Michael W. Deem and Ramdas Pophale) SiO2 
 PCOD9329488
Probable space group: I 2 2 2
;
_chemical_formula_sum "Si O2"
_cell_formula_units_Z 36
_cell_length_a 30.961018
_cell_length_b 5.311305
_cell_length_c 12.803636
_cell_angle_alpha 90.000000
_cell_angle_beta 90.000000
_cell_angle_gamma 90.000000
_cell_volume 2105.473561
_symmetry_space_group_name_H-M "I 2 2 2"
_symmetry_group_IT_number 23
_symmetry_cell_setting 'orthorhombic'
loop_
_space_group_symop_operation_xyz
x,y,z
-x,-y,z
x,-y,-z
-x,y,-z
1/2+x,1/2+y,1/2+z
1/2-x,1/2-y,1/2+z
1/2+x,1/2-y,1/2-z
1/2-x,1/2+y,1/2-z
loop_
_atom_site_type_symbol
_atom_site_label
_atom_site_fract_x
_atom_site_fract_y
_atom_site_fract_z
Si Si1 0.746254 0.500000 0.000000
Si Si2 0.723953 0.485381 0.773149
Si Si3 0.175393 0.185907 0.085120
Si Si4 0.095487 0.499014 0.121543
Si Si5 0.550164 0.501382 0.627677
O O1 0.718069 0.465938 0.103744
O O2 0.780281 0.720729 0.030585
O O3 0.740590 0.200954 0.756201
O O4 0.686222 0.540592 0.691330
O O5 0.145981 0.424605 0.115660
O O6 0.153542 0.000000 0.000000
O O7 0.078037 0.760998 0.164316
O O8 0.072050 0.256052 0.167979
O O9 0.081981 0.500000 0.000000
O O10 0.500000 0.500000 0.657919
O O11 0.550753 0.500000 0.500000
#
# Coordination Sequence:
#
# PCOD9329488 Si02
#       5
#     4   8   8   8   8
#     4  10  20  34  48  64  93 124 175 208 252 292
#     4  10  21  33  48  67  88 125 163 212 256 286
#     4  11  19  31  46  68  95 122 164 214 246 288
#     4  10  18  26  41  62  84 116 150 192 231 265
#     4   9  17  28  40  57  84 117 153 182 217 275
#
# _framework density 17.098293000000002
#
# number of rings (size 3 to 8) (size 9 to 14) (size 15 to 20)
#    0.000    2.000    3.333    2.667    0.000    2.667 
#    0.000    0.000    0.000    0.000    0.000    0.000 
#    0.000    0.000    0.000    1.000    0.000   60.444 
#
# Total GULP energy -100220.871754 kJ/mol
# GULP energy per Si atom -5567.826209 kJ/mol
# Density = 1.705938 g / cm^3
# Si number density = 17.098293 Si / 1000 Ang^3
#
#
#
# Elastic Constant Matrix: (Units=GPa)
#
#
# Indices 1 2 3 4 5 6 
#
# 1 62.1403 32.9299 19.1356 0.0000 0.0000 0.0000
# 2 32.9299 89.9863 0.5960 0.0000 0.0000 0.0000
# 3 19.1356 0.5960 81.3146 0.0000 0.0000 0.0000
# 4 0.0000 0.0000 0.0000 13.8270 0.0000 0.0000
# 5 0.0000 0.0000 0.0000 0.0000 1.8847 0.0000
# 6 0.0000 0.0000 0.0000 0.0000 0.0000 23.4957
#
#
#
# Elastic Compliance Matrix: (Units=1/GPa)
#
#
# Indices 1 2 3 4 5 6 
#
# 1 0.021887 -0.007976 -0.005092 0.000000 0.000000 0.000000
# 2 -0.007976 0.014020 0.001774 0.000000 0.000000 0.000000
# 3 -0.005092 0.001774 0.013483 0.000000 0.000000 0.000000
# 4 0.000000 0.000000 0.000000 0.072322 0.000000 0.000000
# 5 0.000000 0.000000 0.000000 0.000000 0.530580 0.000000
# 6 0.000000 0.000000 0.000000 0.000000 0.000000 0.042561
#
#
# Mechanical properties :
#
#
# Convention : Reuss Voigt Hill
#
# Bulk Modulus (GPa) = 37.30984 37.64048 37.47516
# Shear Modulus (GPa) = 6.88349 19.89346 13.38848
#
# Velocity S-wave (km/s) = 2.00863 3.41468 2.80130
# Velocity P-wave (km/s) = 5.21992 6.13259 5.69457
#
# Compressibility (1/GPa) = 0.02680258
#
# Stress axis : x y z
#
# Youngs Moduli (GPa) = 45.68851 71.32791 74.16602
#
# Poissons Ratio (x) = 0.56890 0.37767
# Poissons Ratio (y) = 0.36440 -0.13158
# Poissons Ratio (z) = 0.23266 -0.12655
#
# Static dielectric constant tensor:
#      x y z
#    x 1.620180 0.000000 0.000000 
#    y 0.000000 1.674400 0.000000 
#    z 0.000000 0.000000 1.565780 
# 
# From -- ./inp_files/5252.got.cif
#   From: 2010.05.17/outbox.cif.g08.bks.cpg/sg23_3_cif.got.tgz:5252.got - 2010.06.04 12:02:01.
