data_PCOD9329994
_publ_section_title
;
Structure prediction by ZEFSAII (Michael W. Deem and Ramdas Pophale) SiO2 
 PCOD9329994
Probable space group: I 2 2 2
;
_chemical_formula_sum "Si O2"
_cell_formula_units_Z 58
_cell_length_a 8.675004
_cell_length_b 15.171337
_cell_length_c 18.778651
_cell_angle_alpha 90.000000
_cell_angle_beta 90.000000
_cell_angle_gamma 90.000000
_cell_volume 2471.484720
_symmetry_space_group_name_H-M "I 2 2 2"
_symmetry_group_IT_number 23
_symmetry_cell_setting 'orthorhombic'
loop_
_space_group_symop_operation_xyz
x,y,z
-x,-y,z
x,-y,-z
-x,y,-z
1/2+x,1/2+y,1/2+z
1/2-x,1/2-y,1/2+z
1/2+x,1/2-y,1/2-z
1/2-x,1/2+y,1/2-z
loop_
_atom_site_type_symbol
_atom_site_label
_atom_site_fract_x
_atom_site_fract_y
_atom_site_fract_z
Si Si1 0.620983 0.830164 0.435022
Si Si2 0.809661 0.112725 0.916858
Si Si3 0.145872 0.334664 0.453165
Si Si4 0.890237 0.267144 0.828142
Si Si5 0.000000 0.000000 0.000000
Si Si6 0.935583 0.094509 0.579624
Si Si7 0.459879 0.090878 0.179177
Si Si8 0.065514 0.793969 0.289676
O O1 0.500000 0.837421 0.500000
O O2 0.728479 0.741594 0.438650
O O3 0.519331 0.825994 0.364049
O O4 0.751225 0.904536 0.428877
O O5 0.815119 0.215016 0.895339
O O6 0.704848 0.070922 0.856900
O O7 0.723365 0.098524 0.991773
O O8 0.971387 0.074293 0.937266
O O9 0.000000 0.300184 0.500000
O O10 0.078791 0.384220 0.384729
O O11 0.747174 0.314040 0.789250
O O12 0.964203 0.188874 0.780150
O O13 0.000000 0.109940 0.500000
O O14 0.990841 0.165238 0.639256
O O15 0.000000 0.000000 0.603340
O O16 0.444352 0.186741 0.214187
O O17 0.500000 0.000000 0.218042
#
# Coordination Sequence:
#
# PCOD9329994 Si02
#       8
#     8   8   8   8   2   8   8   8
#     4  12  21  38  73 106 134 172 229 283 349 418
#     4  10  21  35  56  95 137 171 215 268 327 416
#     4  10  19  35  63  97 133 173 214 269 341 405
#     4  11  24  42  66  98 131 180 236 275 340 424
#     4  12  20  36  54  96 148 164 206 276 344 408
#     4  11  25  47  73 103 135 176 232 295 360 409
#     4  10  21  37  62  94 132 175 224 266 341 413
#     4  11  24  46  67  93 137 184 230 292 350 410
#
# _framework density 23.467673999999999
#
# number of rings (size 3 to 8) (size 9 to 14) (size 15 to 20)
#    0.000    1.241    2.759    3.724    1.931    1.931 
#    1.241    7.586    0.000    0.000    0.000    0.000 
#    0.000    0.000    0.000    0.000    0.000    0.000 
#
# Total GULP energy -161530.598630 kJ/mol
# GULP energy per Si atom -5570.020642 kJ/mol
# Density = 2.341426 g / cm^3
# Si number density = 23.467674 Si / 1000 Ang^3
#
#
#
# Elastic Constant Matrix: (Units=GPa)
#
#
# Indices 1 2 3 4 5 6 
#
# 1 136.9061 14.1002 43.6238 0.0000 0.0000 0.0000
# 2 14.1002 91.9610 1.4910 0.0000 0.0000 0.0000
# 3 43.6238 1.4910 100.4269 0.0000 0.0000 0.0000
# 4 0.0000 0.0000 0.0000 6.3941 0.0000 0.0000
# 5 0.0000 0.0000 0.0000 0.0000 -2.4546 0.0000
# 6 0.0000 0.0000 0.0000 0.0000 0.0000 218.8630
#
#
#
# Elastic Compliance Matrix: (Units=1/GPa)
#
#
# Indices 1 2 3 4 5 6 
#
# 1 0.008622 -0.001262 -0.003726 0.000000 0.000000 0.000000
# 2 -0.001262 0.011061 0.000384 0.000000 0.000000 0.000000
# 3 -0.003726 0.000384 0.011570 0.000000 0.000000 0.000000
# 4 0.000000 0.000000 0.000000 0.156395 0.000000 0.000000
# 5 0.000000 0.000000 0.000000 0.000000 -0.407396 0.000000
# 6 0.000000 0.000000 0.000000 0.000000 0.000000 0.004569
#
#
# Mechanical properties :
#
#
# Convention : Reuss Voigt Hill
#
# Bulk Modulus (GPa) = 45.36132 49.74710 47.55421
# Shear Modulus (GPa) = -25.17340 62.56576 18.69618
#
# Velocity S-wave (km/s) = -3.27874 5.16897 2.82561
# Velocity P-wave (km/s) = 2.24449 7.54112 5.56355
#
# Compressibility (1/GPa) = 0.02204521
#
# Stress axis : x y z
#
# Youngs Moduli (GPa) = 115.98830 90.40462 86.42710
#
# Poissons Ratio (x) = 0.11405 0.32206
# Poissons Ratio (y) = 0.14632 -0.03317
# Poissons Ratio (z) = 0.43221 -0.03469
#
# Static dielectric constant tensor:
#      x y z
#    x 2.123740 0.000000 0.000000 
#    y 0.000000 1.940130 0.000000 
#    z 0.000000 0.000000 1.445980 
# 
# From -- ./inp_files/23886.got.cif
#   From: 2010.05.17/outbox.cif.g08.bks.cpg/sg23_12_cif.got.tgz:23886.got - 2010.06.04 12:02:01.
