data_PCOD9329780
_publ_section_title
;
Structure prediction by ZEFSAII (Michael W. Deem and Ramdas Pophale) SiO2 
 PCOD9329780
Probable space group: I 2 2 2
;
_chemical_formula_sum "Si O2"
_cell_formula_units_Z 64
_cell_length_a 23.922822
_cell_length_b 19.416930
_cell_length_c 8.989836
_cell_angle_alpha 90.000000
_cell_angle_beta 90.000000
_cell_angle_gamma 90.000000
_cell_volume 4175.848585
_symmetry_space_group_name_H-M "I 2 2 2"
_symmetry_group_IT_number 23
_symmetry_cell_setting 'orthorhombic'
loop_
_space_group_symop_operation_xyz
x,y,z
-x,-y,z
x,-y,-z
-x,y,-z
1/2+x,1/2+y,1/2+z
1/2-x,1/2-y,1/2+z
1/2+x,1/2-y,1/2-z
1/2-x,1/2+y,1/2-z
loop_
_atom_site_type_symbol
_atom_site_label
_atom_site_fract_x
_atom_site_fract_y
_atom_site_fract_z
Si Si1 0.246702 1.000000 0.177871
Si Si2 0.664308 0.264784 0.822284
Si Si3 0.114673 0.000000 0.821922
Si Si4 0.726655 0.142693 0.676948
Si Si5 0.773345 0.642693 0.176947
Si Si6 0.564608 0.637391 0.178994
Si Si7 0.935392 0.137391 0.678994
Si Si8 0.835692 0.764784 0.322283
O O1 0.273125 0.930977 0.244895
O O2 0.180537 1.000000 0.217023
O O3 0.273125 0.069023 0.244895
O O4 0.251372 0.000000 0.000000
O O5 0.680110 0.195007 0.738340
O O6 0.713947 0.319602 0.790162
O O7 0.606156 0.300478 0.779834
O O8 0.664860 0.252406 0.000000
O O9 0.085981 0.932225 0.755279
O O10 0.085981 0.067776 0.755279
O O11 0.109715 0.000000 0.000000
O O12 0.722213 0.135024 0.500000
O O13 0.786053 0.180398 0.709839
O O14 0.819890 0.695007 0.238340
O O15 0.500000 0.650374 0.215979
O O16 0.568975 0.628563 1.000000
O O17 0.893844 0.199522 0.720166
#
# Coordination Sequence:
#
# PCOD9329780 Si02
#       8
#     8   8   8   8   8   8   8   8
#     4  11  21  32  48  71  99 131 162 197 242 290
#     4   9  18  32  48  69  96 125 159 201 241 281
#     4  11  22  32  45  68 100 133 167 203 238 277
#     4  10  19  31  50  71  94 125 160 199 243 289
#     4  10  19  31  50  71  94 125 160 199 243 289
#     4  10  20  34  51  69  94 132 171 201 234 280
#     4  10  20  34  51  69  94 132 171 201 234 280
#     4   9  18  32  48  69  96 125 159 201 241 281
#
# _framework density 15.326225000000001
#
# number of rings (size 3 to 8) (size 9 to 14) (size 15 to 20)
#    0.000    2.000    2.500    1.875    0.000    5.000 
#    0.000    0.000    0.000    0.000    0.000    0.875 
#    0.000    7.000    0.000    0.000    0.000    0.000 
#
# Total GULP energy -178594.010241 kJ/mol
# GULP energy per Si atom -5581.062820 kJ/mol
# Density = 1.529134 g / cm^3
# Si number density = 15.326225 Si / 1000 Ang^3
#
#
#
# Elastic Constant Matrix: (Units=GPa)
#
#
# Indices 1 2 3 4 5 6 
#
# 1 103.1405 77.1483 38.5373 0.0000 0.0000 0.0000
# 2 77.1483 149.2094 60.9494 0.0000 0.0000 0.0000
# 3 38.5373 60.9494 36.3128 0.0000 0.0000 0.0000
# 4 0.0000 0.0000 0.0000 26.7434 0.0000 0.0000
# 5 0.0000 0.0000 0.0000 0.0000 18.4777 0.0000
# 6 0.0000 0.0000 0.0000 0.0000 0.0000 17.0911
#
#
#
# Elastic Compliance Matrix: (Units=1/GPa)
#
#
# Indices 1 2 3 4 5 6 
#
# 1 0.016969 -0.004509 -0.010440 0.000000 0.000000 0.000000
# 2 -0.004509 0.022516 -0.033007 0.000000 0.000000 0.000000
# 3 -0.010440 -0.033007 0.094020 0.000000 0.000000 0.000000
# 4 0.000000 0.000000 0.000000 0.037392 0.000000 0.000000
# 5 0.000000 0.000000 0.000000 0.000000 0.054119 0.000000
# 6 0.000000 0.000000 0.000000 0.000000 0.000000 0.058510
#
#
# Mechanical properties :
#
#
# Convention : Reuss Voigt Hill
#
# Bulk Modulus (GPa) = 26.60158 71.32586 48.96372
# Shear Modulus (GPa) = 12.75604 19.93096 16.34350
#
# Velocity S-wave (km/s) = 2.88809 3.61008 3.26908
# Velocity P-wave (km/s) = 5.34004 8.00103 6.80193
#
# Compressibility (1/GPa) = 0.03759175
#
# Stress axis : x y z
#
# Youngs Moduli (GPa) = 58.93001 44.41205 10.63607
#
# Poissons Ratio (x) = 0.20027 0.11104
# Poissons Ratio (y) = 0.26573 0.35107
# Poissons Ratio (z) = 0.61524 1.46592
#
# Static dielectric constant tensor:
#      x y z
#    x 1.502330 0.000000 0.000000 
#    y 0.000000 1.481360 0.000000 
#    z 0.000000 0.000000 1.509730 
# 
# From -- ./inp_files/12762.got.cif
#   From: 2010.05.17/outbox.cif.g08.bks.cpg/sg23_7_cif.got.tgz:12762.got - 2010.06.04 12:02:01.
