data_PCOD9329795
_publ_section_title
;
Structure prediction by ZEFSAII (Michael W. Deem and Ramdas Pophale) SiO2 
 PCOD9329795
Probable space group: I 2 2 2
;
_chemical_formula_sum "Si O2"
_cell_formula_units_Z 48
_cell_length_a 14.666513
_cell_length_b 18.475021
_cell_length_c 8.221084
_cell_angle_alpha 90.000000
_cell_angle_beta 90.000000
_cell_angle_gamma 90.000000
_cell_volume 2227.618920
_symmetry_space_group_name_H-M "I 2 2 2"
_symmetry_group_IT_number 23
_symmetry_cell_setting 'orthorhombic'
loop_
_space_group_symop_operation_xyz
x,y,z
-x,-y,z
x,-y,-z
-x,y,-z
1/2+x,1/2+y,1/2+z
1/2-x,1/2-y,1/2+z
1/2+x,1/2-y,1/2-z
1/2-x,1/2+y,1/2-z
loop_
_atom_site_type_symbol
_atom_site_label
_atom_site_fract_x
_atom_site_fract_y
_atom_site_fract_z
Si Si1 0.130016 0.304968 0.250878
Si Si2 0.182965 0.947740 0.653263
Si Si3 0.308687 0.049725 0.869199
Si Si4 0.128223 0.871005 0.143542
Si Si5 0.500000 0.744633 0.500000
Si Si6 0.000000 0.000000 0.793187
Si Si7 0.693375 0.304334 0.974533
O O1 0.131107 0.391718 0.277000
O O2 0.147506 0.259835 0.419039
O O3 0.037107 0.286020 0.157395
O O4 0.215468 0.286798 0.129399
O O5 0.212554 0.867551 0.605613
O O6 0.076632 0.951013 0.703698
O O7 0.187112 0.000000 0.500000
O O8 0.251554 0.989002 0.772339
O O9 0.226014 0.103938 0.923114
O O10 0.358302 0.000000 0.000000
O O11 0.083401 0.806402 0.048700
O O12 0.134759 0.844795 0.332071
O O13 0.064944 0.940895 0.126041
#
# Coordination Sequence:
#
# PCOD9329795 Si02
#       7
#     8   8   8   8   4   4   8
#     4  11  24  42  63  95 132 175 226 272 333 403
#     4  11  19  35  59  90 128 168 210 257 326 393
#     4  10  23  41  63  96 129 171 221 270 326 401
#     4  10  23  37  58  98 136 174 210 260 343 401
#     4  12  26  41  62  97 138 176 212 282 336 392
#     4  10  19  31  54  94 139 161 194 258 323 409
#     4  11  23  41  64  94 129 175 217 264 331 415
#
# _framework density 21.54767
#
# number of rings (size 3 to 8) (size 9 to 14) (size 15 to 20)
#    0.000    1.333    5.000    3.250    9.333    2.000 
#    0.000    0.000    0.000    2.000    0.000    0.000 
#    0.000    0.000    0.000    0.000    0.000    0.000 
#
# Total GULP energy -133755.238545 kJ/mol
# GULP energy per Si atom -5573.134939 kJ/mol
# Density = 2.149863 g / cm^3
# Si number density = 21.547670 Si / 1000 Ang^3
#
#
#
# Elastic Constant Matrix: (Units=GPa)
#
#
# Indices 1 2 3 4 5 6 
#
# 1 19.2996 22.5285 12.3379 0.0000 0.0000 0.0000
# 2 22.5285 106.7623 49.8209 0.0000 0.0000 0.0000
# 3 12.3379 49.8209 64.5836 0.0000 0.0000 0.0000
# 4 0.0000 0.0000 0.0000 52.9056 0.0000 0.0000
# 5 0.0000 0.0000 0.0000 0.0000 26.0547 0.0000
# 6 0.0000 0.0000 0.0000 0.0000 0.0000 -7.7448
#
#
#
# Elastic Compliance Matrix: (Units=1/GPa)
#
#
# Indices 1 2 3 4 5 6 
#
# 1 0.069132 -0.013164 -0.003052 0.000000 0.000000 0.000000
# 2 -0.013164 0.017141 -0.010708 0.000000 0.000000 0.000000
# 3 -0.003052 -0.010708 0.024328 0.000000 0.000000 0.000000
# 4 0.000000 0.000000 0.000000 0.018902 0.000000 0.000000
# 5 0.000000 0.000000 0.000000 0.000000 0.038381 0.000000
# 6 0.000000 0.000000 0.000000 0.000000 0.000000 -0.129119
#
#
# Mechanical properties :
#
#
# Convention : Reuss Voigt Hill
#
# Bulk Modulus (GPa) = 17.62041 40.00223 28.81132
# Shear Modulus (GPa) = 44.83095 21.30698 33.06897
#
# Velocity S-wave (km/s) = 4.56625 3.14798 3.92176
# Velocity P-wave (km/s) = 5.99967 5.64073 5.82297
#
# Compressibility (1/GPa) = 0.05675237
#
# Stress axis : x y z
#
# Youngs Moduli (GPa) = 14.46513 58.33809 41.10557
#
# Poissons Ratio (x) = 0.76794 0.12546
# Poissons Ratio (y) = 0.19041 0.44018
# Poissons Ratio (z) = 0.04415 0.62471
#
# Static dielectric constant tensor:
#      x y z
#    x 1.690410 0.000000 0.000000 
#    y 0.000000 1.770370 0.000000 
#    z 0.000000 0.000000 2.008470 
# 
# From -- ./inp_files/9988.got.cif
#   From: 2010.05.17/outbox.cif.g08.bks.cpg/sg23_5_cif.got.tgz:9988.got - 2010.06.04 12:02:01.
