data_PCOD9329409
_publ_section_title
;
Structure prediction by ZEFSAII (Michael W. Deem and Ramdas Pophale) SiO2 
 PCOD9329409
Probable space group: I 2 2 2
;
_chemical_formula_sum "Si O2"
_cell_formula_units_Z 48
_cell_length_a 7.762768
_cell_length_b 7.372322
_cell_length_c 34.831694
_cell_angle_alpha 90.000000
_cell_angle_beta 90.000000
_cell_angle_gamma 90.000000
_cell_volume 1993.404796
_symmetry_space_group_name_H-M "I 2 2 2"
_symmetry_group_IT_number 23
_symmetry_cell_setting 'orthorhombic'
loop_
_space_group_symop_operation_xyz
x,y,z
-x,-y,z
x,-y,-z
-x,y,-z
1/2+x,1/2+y,1/2+z
1/2-x,1/2-y,1/2+z
1/2+x,1/2-y,1/2-z
1/2-x,1/2+y,1/2-z
loop_
_atom_site_type_symbol
_atom_site_label
_atom_site_fract_x
_atom_site_fract_y
_atom_site_fract_z
Si Si1 0.327519 0.116643 0.823001
Si Si2 0.402288 0.690680 0.740629
Si Si3 0.992993 0.722032 0.544044
Si Si4 0.291835 0.292508 0.400302
Si Si5 0.312605 0.264349 0.600021
Si Si6 0.309953 0.752092 0.314302
O O1 0.285081 0.194703 0.781136
O O2 0.287792 0.247181 0.858200
O O3 0.500000 0.000000 0.829783
O O4 0.180616 0.962030 0.823088
O O5 0.500000 0.500000 0.744545
O O6 0.520526 0.801566 0.710146
O O7 0.346746 0.735231 0.784077
O O8 0.162146 0.775481 0.567650
O O9 0.000000 0.500000 0.543924
O O10 0.000000 0.780366 0.500000
O O11 0.825850 0.787590 0.567774
O O12 0.294960 0.514198 0.400787
O O13 0.485721 0.227350 0.406496
O O14 0.278054 0.179916 0.642562
#
# Coordination Sequence:
#
# PCOD9329409 Si02
#       6
#     8   8   8   8   8   8
#     4  10  17  28  45  63  87 120 161 204 233 281
#     4  10  20  31  46  69  94 123 166 208 243 285
#     4   9  17  26  38  61  88 116 152 193 237 283
#     4   9  15  26  41  59  81 115 156 192 229 278
#     4   9  16  27  42  57  83 117 154 194 232 282
#     4  10  18  30  43  63  89 121 162 198 243 282
#
# _framework density 24.079405000000001
#
# number of rings (size 3 to 8) (size 9 to 14) (size 15 to 20)
#    0.000    2.500    1.667    3.500    0.000    0.667 
#    0.000    3.333    0.000    0.000    0.000    0.000 
#    0.000    0.667    0.000    0.000    3.667    0.000 
#
# Total GULP energy -133744.936071 kJ/mol
# GULP energy per Si atom -5572.705670 kJ/mol
# Density = 2.402460 g / cm^3
# Si number density = 24.079405 Si / 1000 Ang^3
#
#
#
# Elastic Constant Matrix: (Units=GPa)
#
#
# Indices 1 2 3 4 5 6 
#
# 1 197.6343 14.7327 131.8687 0.0000 0.0000 0.0000
# 2 14.7327 73.4849 16.8447 0.0000 0.0000 0.0000
# 3 131.8687 16.8447 272.7898 0.0000 0.0000 0.0000
# 4 0.0000 0.0000 0.0000 1.1340 0.0000 0.0000
# 5 0.0000 0.0000 0.0000 0.0000 29.2211 0.0000
# 6 0.0000 0.0000 0.0000 0.0000 0.0000 -1.4698
#
#
#
# Elastic Compliance Matrix: (Units=1/GPa)
#
#
# Indices 1 2 3 4 5 6 
#
# 1 0.007503 -0.000682 -0.003585 0.000000 0.000000 0.000000
# 2 -0.000682 0.013866 -0.000526 0.000000 0.000000 0.000000
# 3 -0.003585 -0.000526 0.005431 0.000000 0.000000 0.000000
# 4 0.000000 0.000000 0.000000 0.881872 0.000000 0.000000
# 5 0.000000 0.000000 0.000000 0.000000 0.034222 0.000000
# 6 0.000000 0.000000 0.000000 0.000000 0.000000 -0.680384
#
#
# Mechanical properties :
#
#
# Convention : Reuss Voigt Hill
#
# Bulk Modulus (GPa) = 58.09697 96.75570 77.42634
# Shear Modulus (GPa) = 17.99635 31.14126 24.56880
#
# Velocity S-wave (km/s) = 2.73678 3.60011 3.19772
# Velocity P-wave (km/s) = 5.84519 7.58619 6.77187
#
# Compressibility (1/GPa) = 0.01721260
#
# Stress axis : x y z
#
# Youngs Moduli (GPa) = 133.28849 72.12044 184.12249
#
# Poissons Ratio (x) = 0.04922 0.66001
# Poissons Ratio (y) = 0.09096 0.09690
# Poissons Ratio (z) = 0.47779 0.03796
#
# Static dielectric constant tensor:
#      x y z
#    x 1.978460 0.000000 0.000000 
#    y 0.000000 2.131700 0.000000 
#    z 0.000000 0.000000 2.016370 
# 
# From -- ./inp_files/30293.got.cif
#   From: 2010.05.17/outbox.cif.g08.bks.cpg/sg23_16_cif.got.tgz:30293.got - 2010.06.04 12:02:01.
