data_PCOD9329279
_publ_section_title
;
Structure prediction by ZEFSAII (Michael W. Deem and Ramdas Pophale) SiO2 
 PCOD9329279
Probable space group: F 2 2 2
;
_chemical_formula_sum "Si O2"
_cell_formula_units_Z 80
_cell_length_a 26.566336
_cell_length_b 18.698419
_cell_length_c 6.872745
_cell_angle_alpha 90.000000
_cell_angle_beta 90.000000
_cell_angle_gamma 90.000000
_cell_volume 3414.025645
_symmetry_space_group_name_H-M "F 2 2 2"
_symmetry_group_IT_number 22
_symmetry_cell_setting 'orthorhombic'
loop_
_space_group_symop_operation_xyz
x,y,z
-x,-y,z
x,-y,-z
-x,y,-z
x,1/2+y,1/2+z
-x,1/2-y,1/2+z
x,1/2-y,1/2-z
-x,1/2+y,1/2-z
1/2+x,y,1/2+z
1/2-x,-y,1/2+z
1/2+x,-y,1/2-z
1/2-x,y,1/2-z
1/2+x,1/2+y,z
1/2-x,1/2-y,z
1/2+x,1/2-y,-z
1/2-x,1/2+y,-z
loop_
_atom_site_type_symbol
_atom_site_label
_atom_site_fract_x
_atom_site_fract_y
_atom_site_fract_z
Si Si1 0.569447 0.335334 0.701830
Si Si2 0.353415 0.669860 0.166623
Si Si3 0.342356 0.080477 0.057192
Si Si4 0.269186 0.420774 0.973892
Si Si5 0.461822 0.666108 0.248007
O O1 0.579244 0.250000 0.750000
O O2 0.619751 0.383159 0.709246
O O3 0.555240 0.345135 0.471032
O O4 0.517165 0.364231 0.795370
O O5 0.348134 0.750000 0.250000
O O6 0.346634 0.623059 0.357656
O O7 0.309599 0.643490 0.022355
O O8 0.412327 0.657292 0.113179
O O9 0.282530 0.083253 0.098755
O O10 0.356377 0.000000 0.000000
O O11 0.250000 0.420517 0.750000
O O12 0.292984 0.500000 0.000000
O O13 0.472988 0.750000 0.250000
#
# Coordination Sequence:
#
# PCOD9329279 Si02
#       5
#    16  16  16  16  16
#     4   9  16  29  51  75 102 135 171 212 254 307
#     4   9  17  32  54  75  97 132 179 216 245 302
#     4   9  18  32  48  73 107 136 166 209 262 309
#     4   9  18  33  52  73 104 139 172 210 259 311
#     4   8  15  29  48  76 104 130 168 213 261 302
#
# _framework density 23.432746000000002
#
# number of rings (size 3 to 8) (size 9 to 14) (size 15 to 20)
#    0.000    3.200    0.000    0.000    0.000    3.600 
#    0.000   26.000    0.000    4.800    0.000    9.800 
#    0.000    0.000    0.000    0.000    0.000    0.000 
#
# Total GULP energy -111372.921689 kJ/mol
# GULP energy per Si atom -5568.646084 kJ/mol
# Density = 2.337941 g / cm^3
# Si number density = 23.432746 Si / 1000 Ang^3
#
#
#
# Elastic Constant Matrix: (Units=GPa)
#
#
# Indices 1 2 3 4 5 6 
#
# 1 213.6796 90.7055 39.4877 0.0000 0.0000 0.0000
# 2 90.7055 128.0745 24.8884 -0.0001 0.0000 0.0000
# 3 39.4877 24.8884 47.4668 -0.0001 0.0000 0.0000
# 4 0.0000 -0.0001 -0.0001 29.3895 0.0000 0.0000
# 5 0.0000 0.0000 0.0000 0.0000 55.7074 0.0000
# 6 0.0000 0.0000 0.0000 0.0000 0.0000 16.9714
#
#
#
# Elastic Compliance Matrix: (Units=1/GPa)
#
#
# Indices 1 2 3 4 5 6 
#
# 1 0.007234 -0.004403 -0.003710 0.000000 0.000000 0.000000
# 2 -0.004403 0.011373 -0.002301 0.000000 0.000000 0.000000
# 3 -0.003710 -0.002301 0.025360 0.000000 0.000000 0.000000
# 4 0.000000 0.000000 0.000000 0.034026 0.000000 0.000000
# 5 0.000000 0.000000 0.000000 0.000000 0.017951 0.000000
# 6 0.000000 0.000000 0.000000 0.000000 0.000000 0.058923
#
#
# Mechanical properties :
#
#
# Convention : Reuss Voigt Hill
#
# Bulk Modulus (GPa) = 43.21336 77.70934 60.46135
# Shear Modulus (GPa) = 27.26179 36.02295 31.64237
#
# Velocity S-wave (km/s) = 3.41457 3.92508 3.67870
# Velocity P-wave (km/s) = 5.83329 7.33324 6.62585
#
# Compressibility (1/GPa) = 0.02314099
#
# Stress axis : x y z
#
# Youngs Moduli (GPa) = 138.22917 87.92672 39.43230
#
# Poissons Ratio (x) = 0.38711 0.14629
# Poissons Ratio (y) = 0.60857 0.09072
# Poissons Ratio (z) = 0.51281 0.20230
#
# Static dielectric constant tensor:
#      x y z
#    x 2.077240 0.000000 0.000000 
#    y 0.000000 1.825740 0.000000 
#    z 0.000000 0.000000 1.991570 
# 
# From -- ./inp_files/11587.got.cif
#   From: 2010.05.17/outbox.cif.g08.bks.cpg/sg22_6_cif.got.tgz:11587.got - 2010.06.03 23:40:54.
