data_PCOD9329427
_publ_section_title
;
Structure prediction by ZEFSAII (Michael W. Deem and Ramdas Pophale) SiO2 
 PCOD9329427
Probable space group: I 2 2 2
;
_chemical_formula_sum "Si O2"
_cell_formula_units_Z 34
_cell_length_a 13.388254
_cell_length_b 10.406888
_cell_length_c 10.519161
_cell_angle_alpha 90.000000
_cell_angle_beta 90.000000
_cell_angle_gamma 90.000000
_cell_volume 1465.635332
_symmetry_space_group_name_H-M "I 2 2 2"
_symmetry_group_IT_number 23
_symmetry_cell_setting 'orthorhombic'
loop_
_space_group_symop_operation_xyz
x,y,z
-x,-y,z
x,-y,-z
-x,y,-z
1/2+x,1/2+y,1/2+z
1/2-x,1/2-y,1/2+z
1/2+x,1/2-y,1/2-z
1/2-x,1/2+y,1/2-z
loop_
_atom_site_type_symbol
_atom_site_label
_atom_site_fract_x
_atom_site_fract_y
_atom_site_fract_z
Si Si1 0.126405 0.676148 0.181372
Si Si2 0.000000 0.500000 0.000000
Si Si3 0.821881 0.536786 0.361077
Si Si4 0.642841 0.312847 0.091178
Si Si5 0.373257 0.577487 0.806320
O O1 0.126138 0.590702 0.309070
O O2 0.239281 0.687837 0.126954
O O3 0.083449 0.816870 0.210176
O O4 0.066350 0.592924 0.083338
O O5 0.778905 0.500000 0.500000
O O6 0.886857 0.666449 0.378198
O O7 0.738375 0.563486 0.253700
O O8 0.594026 0.430067 0.170907
O O9 0.630393 0.356104 0.945189
#
# Coordination Sequence:
#
# PCOD9329427 Si02
#       5
#     8   2   8   8   8
#     4  10  20  34  54  79 113 156 187 220 284 335
#     4  12  24  40  54  74 120 160 200 230 256 368
#     4  10  17  29  52  87 115 140 181 238 293 334
#     4   9  17  32  57  86 115 136 177 246 296 328
#     4   9  17  30  51  83 112 142 178 230 297 329
#
# _framework density 23.198131
#
# number of rings (size 3 to 8) (size 9 to 14) (size 15 to 20)
#    0.000    2.353    2.353    2.824    0.000    0.000 
#    0.000    0.588    0.000    2.824    0.000    3.294 
#    0.000    0.000    0.000    0.000    0.000    0.000 
#
# Total GULP energy -94858.562721 kJ/mol
# GULP energy per Si atom -5579.915454 kJ/mol
# Density = 2.314533 g / cm^3
# Si number density = 23.198131 Si / 1000 Ang^3
#
#
#
# Elastic Constant Matrix: (Units=GPa)
#
#
# Indices 1 2 3 4 5 6 
#
# 1 46.5307 2.3990 0.5174 0.0000 0.0000 0.0000
# 2 2.3990 99.6307 -15.0155 0.0000 0.0000 0.0000
# 3 0.5174 -15.0155 50.8349 0.0000 0.0000 0.0000
# 4 0.0000 0.0000 0.0000 11.9785 0.0000 0.0000
# 5 0.0000 0.0000 0.0000 0.0000 10.4637 0.0000
# 6 0.0000 0.0000 0.0000 0.0000 0.0000 18.3339
#
#
#
# Elastic Compliance Matrix: (Units=1/GPa)
#
#
# Indices 1 2 3 4 5 6 
#
# 1 0.021525 -0.000577 -0.000390 0.000000 0.000000 0.000000
# 2 -0.000577 0.010520 0.003113 0.000000 0.000000 0.000000
# 3 -0.000390 0.003113 0.020595 0.000000 0.000000 0.000000
# 4 0.000000 0.000000 0.000000 0.083483 0.000000 0.000000
# 5 0.000000 0.000000 0.000000 0.000000 0.095568 0.000000
# 6 0.000000 0.000000 0.000000 0.000000 0.000000 0.054544
#
#
# Mechanical properties :
#
#
# Convention : Reuss Voigt Hill
#
# Bulk Modulus (GPa) = 17.56416 19.19977 18.38197
# Shear Modulus (GPa) = 16.61572 22.09492 19.35532
#
# Velocity S-wave (km/s) = 2.67919 3.08952 2.89164
# Velocity P-wave (km/s) = 4.14229 4.58489 4.36920
#
# Compressibility (1/GPa) = 0.05693412
#
# Stress axis : x y z
#
# Youngs Moduli (GPa) = 46.45703 95.05545 48.55522
#
# Poissons Ratio (x) = 0.05485 0.01891
# Poissons Ratio (y) = 0.02681 -0.15117
# Poissons Ratio (z) = 0.01810 -0.29594
#
# Static dielectric constant tensor:
#      x y z
#    x 1.988320 0.000000 0.000000 
#    y 0.000000 1.874580 0.000000 
#    z 0.000000 0.000000 1.882070 
# 
# From -- ./inp_files/10666.got.cif
#   From: 2010.05.17/outbox.cif.g08.bks.cpg/sg23_6_cif.got.tgz:10666.got - 2010.06.04 12:02:01.
