data_PCOD9329663
_publ_section_title
;
Structure prediction by ZEFSAII (Michael W. Deem and Ramdas Pophale) SiO2 
 PCOD9329663
Probable space group: I 2 2 2
;
_chemical_formula_sum "Si O2"
_cell_formula_units_Z 52
_cell_length_a 9.191909
_cell_length_b 15.657552
_cell_length_c 17.916807
_cell_angle_alpha 90.000000
_cell_angle_beta 90.000000
_cell_angle_gamma 90.000000
_cell_volume 2578.636908
_symmetry_space_group_name_H-M "I 2 2 2"
_symmetry_group_IT_number 23
_symmetry_cell_setting 'orthorhombic'
loop_
_space_group_symop_operation_xyz
x,y,z
-x,-y,z
x,-y,-z
-x,y,-z
1/2+x,1/2+y,1/2+z
1/2-x,1/2-y,1/2+z
1/2+x,1/2-y,1/2-z
1/2-x,1/2+y,1/2-z
loop_
_atom_site_type_symbol
_atom_site_label
_atom_site_fract_x
_atom_site_fract_y
_atom_site_fract_z
Si Si1 0.256608 0.500000 0.500000
Si Si2 0.965930 0.407692 0.670646
Si Si3 0.828942 0.322002 0.435936
Si Si4 0.100629 0.182143 0.199038
Si Si5 0.148998 0.727061 0.044683
Si Si6 0.640469 0.594637 0.364257
Si Si7 0.871688 0.663325 0.801623
O O1 0.177379 0.589395 0.482613
O O2 0.345835 0.479935 0.424895
O O3 0.793853 0.400868 0.678443
O O4 0.000000 0.500000 0.634787
O O5 0.029351 0.333661 0.616225
O O6 0.056500 0.406809 0.747628
O O7 0.697557 0.317459 0.376042
O O8 0.788792 0.244481 0.491605
O O9 0.216642 0.183168 0.264882
O O10 0.995170 0.100664 0.191011
O O11 0.991841 0.261622 0.207317
O O12 0.129603 0.818711 0.086182
O O13 0.156161 0.657159 0.110207
O O14 0.000000 0.712058 0.000000
#
# Coordination Sequence:
#
# PCOD9329663 Si02
#       7
#     4   8   8   8   8   8   8
#     4  10  20  30  52  82 126 152 180 232 278 360
#     4  11  22  38  52  84 120 162 187 236 292 366
#     4  10  20  34  55  83 116 150 194 224 295 349
#     4  10  20  36  53  80 104 159 191 243 282 345
#     4  10  18  35  55  82 107 149 196 246 288 333
#     4  10  20  33  53  78 119 154 192 221 287 353
#     4  10  20  35  57  74 113 150 203 242 288 340
#
# _framework density 20.165692
#
# number of rings (size 3 to 8) (size 9 to 14) (size 15 to 20)
#    0.000    1.846    4.615    1.846    0.000    4.308 
#    0.000    0.000    0.000    0.462    0.000    0.000 
#    0.000    0.000   12.308    0.000    0.000    0.000 
#
# Total GULP energy -144850.745896 kJ/mol
# GULP energy per Si atom -5571.182534 kJ/mol
# Density = 2.011979 g / cm^3
# Si number density = 20.165692 Si / 1000 Ang^3
#
#
#
# Elastic Constant Matrix: (Units=GPa)
#
#
# Indices 1 2 3 4 5 6 
#
# 1 126.8185 13.6999 42.6629 0.0000 0.0000 0.0000
# 2 13.6999 19.9885 8.9063 0.0000 0.0000 0.0000
# 3 42.6629 8.9063 91.9438 0.0000 0.0000 0.0000
# 4 0.0000 0.0000 0.0000 31.7757 0.0000 0.0000
# 5 0.0000 0.0000 0.0000 0.0000 42.9642 0.0000
# 6 0.0000 0.0000 0.0000 0.0000 0.0000 20.6282
#
#
#
# Elastic Compliance Matrix: (Units=1/GPa)
#
#
# Indices 1 2 3 4 5 6 
#
# 1 0.009781 -0.004893 -0.004065 0.000000 0.000000 0.000000
# 2 -0.004893 0.054733 -0.003031 0.000000 0.000000 0.000000
# 3 -0.004065 -0.003031 0.013056 0.000000 0.000000 0.000000
# 4 0.000000 0.000000 0.000000 0.031471 0.000000 0.000000
# 5 0.000000 0.000000 0.000000 0.000000 0.023275 0.000000
# 6 0.000000 0.000000 0.000000 0.000000 0.000000 0.048477
#
#
# Mechanical properties :
#
#
# Convention : Reuss Voigt Hill
#
# Bulk Modulus (GPa) = 18.65944 41.03214 29.84579
# Shear Modulus (GPa) = 22.45825 30.63906 26.54865
#
# Velocity S-wave (km/s) = 3.34081 3.90213 3.63233
# Velocity P-wave (km/s) = 4.91473 6.37917 5.69422
#
# Compressibility (1/GPa) = 0.05359219
#
# Stress axis : x y z
#
# Youngs Moduli (GPa) = 102.23663 18.27050 76.59375
#
# Poissons Ratio (x) = 0.08940 0.31133
# Poissons Ratio (y) = 0.50023 0.23219
# Poissons Ratio (z) = 0.41556 0.05539
#
# Static dielectric constant tensor:
#      x y z
#    x 1.797060 0.000000 0.000000 
#    y 0.000000 1.744700 0.000000 
#    z 0.000000 0.000000 1.811120 
# 
# From -- ./inp_files/23859.got.cif
#   From: 2010.05.17/outbox.cif.g08.bks.cpg/sg23_12_cif.got.tgz:23859.got - 2010.06.04 12:02:01.
