data_PCOD9329164
_publ_section_title
;
Structure prediction by ZEFSAII (Michael W. Deem and Ramdas Pophale) SiO2 
 PCOD9329164
Probable space group: F 2 2 2
;
_chemical_formula_sum "Si O2"
_cell_formula_units_Z 48
_cell_length_a 5.345299
_cell_length_b 21.268230
_cell_length_c 17.900771
_cell_angle_alpha 90.000000
_cell_angle_beta 90.000000
_cell_angle_gamma 90.000000
_cell_volume 2035.050020
_symmetry_space_group_name_H-M "F 2 2 2"
_symmetry_group_IT_number 22
_symmetry_cell_setting 'orthorhombic'
loop_
_space_group_symop_operation_xyz
x,y,z
-x,-y,z
x,-y,-z
-x,y,-z
x,1/2+y,1/2+z
-x,1/2-y,1/2+z
x,1/2-y,1/2-z
-x,1/2+y,1/2-z
1/2+x,y,1/2+z
1/2-x,-y,1/2+z
1/2+x,-y,1/2-z
1/2-x,y,1/2-z
1/2+x,1/2+y,z
1/2-x,1/2-y,z
1/2+x,1/2-y,-z
1/2-x,1/2+y,-z
loop_
_atom_site_type_symbol
_atom_site_label
_atom_site_fract_x
_atom_site_fract_y
_atom_site_fract_z
Si Si1 0.000000 0.500000 0.665086
Si Si2 0.250000 0.887286 0.250000
Si Si3 0.247657 0.924084 0.549268
Si Si4 0.645346 0.680236 0.332573
O O1 0.936352 0.561326 0.713037
O O2 0.777777 0.479831 0.609740
O O3 0.358736 0.841428 0.185170
O O4 0.500000 0.923543 0.500000
O O5 0.233039 0.861860 0.599313
O O6 0.000000 0.928105 0.500000
O O7 0.750000 0.665560 0.250000
O O8 0.750000 0.750000 0.346537
#
# Coordination Sequence:
#
# PCOD9329164 Si02
#       4
#     8   8  16  16
#     4  12  25  46  78 116 155 210 252 332 401 476
#     4  12  24  49  80 116 161 192 274 332 390 468
#     4  12  28  50  75 114 159 204 258 325 404 475
#     4  11  26  50  76 110 145 209 263 323 385 460
#
# _framework density 23.586645999999998
#
# number of rings (size 3 to 8) (size 9 to 14) (size 15 to 20)
#    0.000    0.333    3.333    4.500    0.000   12.000 
#    0.000    0.000    0.000    0.000    0.000    0.000 
#    0.000    0.000    0.000    0.000    0.000    0.000 
#
# Total GULP energy -67036.303351 kJ/mol
# GULP energy per Si atom -5586.358613 kJ/mol
# Density = 2.353296 g / cm^3
# Si number density = 23.586646 Si / 1000 Ang^3
#
#
#
# Elastic Constant Matrix: (Units=GPa)
#
#
# Indices 1 2 3 4 5 6 
#
# 1 114.6066 55.8753 38.1678 0.0000 0.0000 0.0000
# 2 55.8753 211.9542 61.5966 0.0000 0.0000 0.0000
# 3 38.1678 61.5966 87.8366 0.0000 0.0000 0.0000
# 4 0.0000 0.0000 0.0000 49.8922 0.0000 0.0000
# 5 0.0000 0.0000 0.0000 0.0000 48.5821 0.0000
# 6 0.0000 0.0000 0.0000 0.0000 0.0000 27.5788
#
#
#
# Elastic Compliance Matrix: (Units=1/GPa)
#
#
# Indices 1 2 3 4 5 6 
#
# 1 0.010753 -0.001855 -0.003372 0.000000 0.000000 0.000000
# 2 -0.001855 0.006246 -0.003574 0.000000 0.000000 0.000000
# 3 -0.003372 -0.003574 0.015356 0.000000 0.000000 0.000000
# 4 0.000000 0.000000 0.000000 0.020043 0.000000 0.000000
# 5 0.000000 0.000000 0.000000 0.000000 0.020584 0.000000
# 6 0.000000 0.000000 0.000000 0.000000 0.000000 0.036260
#
#
# Mechanical properties :
#
#
# Convention : Reuss Voigt Hill
#
# Bulk Modulus (GPa) = 67.77948 80.63075 74.20511
# Shear Modulus (GPa) = 37.94795 42.46112 40.20454
#
# Velocity S-wave (km/s) = 4.01543 4.24750 4.13309
# Velocity P-wave (km/s) = 7.09204 7.63637 7.36923
#
# Compressibility (1/GPa) = 0.01475373
#
# Stress axis : x y z
#
# Youngs Moduli (GPa) = 93.00027 160.11400 65.12074
#
# Poissons Ratio (x) = 0.29697 0.21957
# Poissons Ratio (y) = 0.17249 0.23273
# Poissons Ratio (z) = 0.31357 0.57222
#
# Static dielectric constant tensor:
#      x y z
#    x 2.314480 0.000000 0.000000 
#    y 0.000000 1.884110 0.000000 
#    z 0.000000 0.000000 1.871710 
# 
# From -- ./inp_files/33989.got.cif
#   From: 2010.05.17/outbox.cif.g08.bks.cpg/sg22_17_cif.got.tgz:33989.got - 2010.06.03 23:40:54.
