data_PCOD9329961
_publ_section_title
;
Structure prediction by ZEFSAII (Michael W. Deem and Ramdas Pophale) SiO2 
 PCOD9329961
Probable space group: I 2 2 2
;
_chemical_formula_sum "Si O2"
_cell_formula_units_Z 56
_cell_length_a 15.864151
_cell_length_b 21.105819
_cell_length_c 7.544315
_cell_angle_alpha 90.000000
_cell_angle_beta 90.000000
_cell_angle_gamma 90.000000
_cell_volume 2526.032057
_symmetry_space_group_name_H-M "I 2 2 2"
_symmetry_group_IT_number 23
_symmetry_cell_setting 'orthorhombic'
loop_
_space_group_symop_operation_xyz
x,y,z
-x,-y,z
x,-y,-z
-x,y,-z
1/2+x,1/2+y,1/2+z
1/2-x,1/2-y,1/2+z
1/2+x,1/2-y,1/2-z
1/2-x,1/2+y,1/2-z
loop_
_atom_site_type_symbol
_atom_site_label
_atom_site_fract_x
_atom_site_fract_y
_atom_site_fract_z
Si Si1 0.645227 0.565667 0.597455
Si Si2 0.060477 0.695646 0.666958
Si Si3 0.755399 0.324008 0.509088
Si Si4 0.795006 0.559790 0.876604
Si Si5 0.522641 0.067214 0.707120
Si Si6 0.244235 0.687759 0.091987
Si Si7 0.436535 0.667506 0.162655
O O1 0.620937 0.500000 0.500000
O O2 0.695872 0.614845 0.468185
O O3 0.713298 0.550321 0.753516
O O4 0.575709 0.609258 0.699607
O O5 0.157477 0.680831 0.615730
O O6 0.050088 0.764459 0.760702
O O7 0.000000 0.707802 0.500000
O O8 0.023209 0.631086 0.740658
O O9 0.773888 0.321310 0.299731
O O10 0.711185 0.256087 0.541258
O O11 0.877990 0.570412 0.761792
O O12 0.790010 0.623871 0.994186
O O13 0.807281 0.500000 0.000000
O O14 0.500000 0.062462 0.500000
O O15 0.500000 0.000000 0.791705
O O16 0.345001 0.681398 0.072894
O O17 0.500000 0.653896 0.000000
#
# Coordination Sequence:
#
# PCOD9329961 Si02
#       7
#     8   8   8   8   8   8   8
#     4  10  22  36  59  96 124 152 205 264 318 362
#     4  10  19  35  58  83 120 169 210 252 302 362
#     4   9  19  35  54  89 123 158 205 256 298 365
#     4  10  20  38  55  83 128 169 208 248 295 370
#     4  11  23  36  49  84 129 178 216 241 295 363
#     4   9  19  34  58  90 118 157 212 250 303 366
#     4   8  17  37  62  88 119 159 208 255 314 380
#
# _framework density 22.169156999999998
#
# number of rings (size 3 to 8) (size 9 to 14) (size 15 to 20)
#    0.000    2.714    1.429    1.714    2.000    4.857 
#    0.000    0.000    0.000   10.286    0.000   53.000 
#    0.000    0.000    0.000    0.000    0.000    0.000 
#
# Total GULP energy -155938.435902 kJ/mol
# GULP energy per Si atom -5569.229854 kJ/mol
# Density = 2.211870 g / cm^3
# Si number density = 22.169157 Si / 1000 Ang^3
#
#
#
# Elastic Constant Matrix: (Units=GPa)
#
#
# Indices 1 2 3 4 5 6 
#
# 1 39.6594 56.6586 16.9829 0.0000 0.0000 0.0000
# 2 56.6586 255.2575 50.9505 0.0000 0.0000 0.0000
# 3 16.9829 50.9505 50.8629 0.0000 0.0000 0.0000
# 4 0.0000 0.0000 0.0000 35.7753 0.0000 0.0000
# 5 0.0000 0.0000 0.0000 0.0000 -2.2053 0.0000
# 6 0.0000 0.0000 0.0000 0.0000 0.0000 11.9505
#
#
#
# Elastic Compliance Matrix: (Units=1/GPa)
#
#
# Indices 1 2 3 4 5 6 
#
# 1 0.038034 -0.007384 -0.005303 0.000000 0.000000 0.000000
# 2 -0.007384 0.006330 -0.003876 0.000000 0.000000 0.000000
# 3 -0.005303 -0.003876 0.025314 0.000000 0.000000 0.000000
# 4 0.000000 0.000000 0.000000 0.027952 0.000000 0.000000
# 5 0.000000 0.000000 0.000000 0.000000 -0.453446 0.000000
# 6 0.000000 0.000000 0.000000 0.000000 0.000000 0.083678
#
#
# Mechanical properties :
#
#
# Convention : Reuss Voigt Hill
#
# Bulk Modulus (GPa) = 27.35727 66.10709 46.73218
# Shear Modulus (GPa) = -22.04319 23.84994 0.90337
#
# Velocity S-wave (km/s) = -3.15670 3.28352 0.63904
# Velocity P-wave (km/s) = 0.95881 6.65278 4.65511
#
# Compressibility (1/GPa) = 0.03655335
#
# Stress axis : x y z
#
# Youngs Moduli (GPa) = 26.29201 157.97334 39.50435
#
# Poissons Ratio (x) = 1.16645 0.20949
# Poissons Ratio (y) = 0.19414 0.15311
# Poissons Ratio (z) = 0.13942 0.61225
#
# Static dielectric constant tensor:
#      x y z
#    x 1.943760 0.000000 0.000000 
#    y 0.000000 1.989460 0.000000 
#    z 0.000000 0.000000 1.847540 
# 
# From -- ./inp_files/10203.got.cif
#   From: 2010.05.17/outbox.cif.g08.bks.cpg/sg23_6_cif.got.tgz:10203.got - 2010.06.04 12:02:01.
