data_PCOD9329158
_publ_section_title
;
Structure prediction by ZEFSAII (Michael W. Deem and Ramdas Pophale) SiO2 
 PCOD9329158
Probable space group: F 2 2 2
;
_chemical_formula_sum "Si O2"
_cell_formula_units_Z 96
_cell_length_a 16.377706
_cell_length_b 8.590019
_cell_length_c 26.858871
_cell_angle_alpha 90.000000
_cell_angle_beta 90.000000
_cell_angle_gamma 90.000000
_cell_volume 3778.635048
_symmetry_space_group_name_H-M "F 2 2 2"
_symmetry_group_IT_number 22
_symmetry_cell_setting 'orthorhombic'
loop_
_space_group_symop_operation_xyz
x,y,z
-x,-y,z
x,-y,-z
-x,y,-z
x,1/2+y,1/2+z
-x,1/2-y,1/2+z
x,1/2-y,1/2-z
-x,1/2+y,1/2-z
1/2+x,y,1/2+z
1/2-x,-y,1/2+z
1/2+x,-y,1/2-z
1/2-x,y,1/2-z
1/2+x,1/2+y,z
1/2-x,1/2-y,z
1/2+x,1/2-y,-z
1/2-x,1/2+y,-z
loop_
_atom_site_type_symbol
_atom_site_label
_atom_site_fract_x
_atom_site_fract_y
_atom_site_fract_z
Si Si1 0.680807 0.628895 0.956001
Si Si2 0.423647 0.679273 0.301859
Si Si3 0.484986 0.677816 0.442441
Si Si4 0.326019 0.380744 0.293785
Si Si5 0.682776 0.065987 0.343296
Si Si6 0.925742 0.802962 0.137446
O O1 0.750000 0.750000 0.973647
O O2 0.601758 0.733176 0.939838
O O3 0.709471 0.563326 0.901294
O O4 0.668069 0.500000 0.000000
O O5 0.449665 0.750000 0.250000
O O6 0.397668 0.505315 0.288944
O O7 0.495255 0.718464 0.339799
O O8 0.342730 0.765299 0.323157
O O9 0.500000 0.500000 0.422337
O O10 0.500000 0.663422 0.500000
O O11 0.554201 0.790880 0.419999
O O12 0.329978 0.250000 0.250000
O O13 0.255790 0.478902 0.194445
O O14 0.347529 0.293201 0.344986
O O15 0.596363 0.972930 0.343763
#
# Coordination Sequence:
#
# PCOD9329158 Si02
#       6
#    16  16  16  16  16  16
#     4  12  29  52  86 126 173 222 286 346 424 507
#     4  12  26  46  75 107 152 207 266 334 406 492
#     4  11  26  48  82 118 166 221 276 341 427 494
#     4  12  28  50  74 112 157 214 269 342 415 499
#     4  12  28  49  78 114 166 209 277 344 421 495
#     4  12  26  46  76 112 155 205 274 335 414 493
#
# _framework density 25.405998
#
# number of rings (size 3 to 8) (size 9 to 14) (size 15 to 20)
#    0.000    0.167    1.667    6.500    4.667   10.333 
#    0.000    0.000    0.000    0.000    0.000    0.000 
#    0.000    0.000    0.000    0.000    0.000    0.000 
#
# Total GULP energy -134174.340092 kJ/mol
# GULP energy per Si atom -5590.597504 kJ/mol
# Density = 2.534817 g / cm^3
# Si number density = 25.405998 Si / 1000 Ang^3
#
#
#
# Elastic Constant Matrix: (Units=GPa)
#
#
# Indices 1 2 3 4 5 6 
#
# 1 104.2804 66.1167 21.6070 0.0000 0.0000 0.0000
# 2 66.1167 166.9788 54.3094 0.0000 0.0000 0.0000
# 3 21.6070 54.3094 134.3621 0.0000 0.0000 0.0000
# 4 0.0000 0.0000 0.0000 41.8071 0.0000 0.0000
# 5 0.0000 0.0000 0.0000 0.0000 28.1726 0.0000
# 6 0.0000 0.0000 0.0000 0.0000 0.0000 46.4579
#
#
#
# Elastic Compliance Matrix: (Units=1/GPa)
#
#
# Indices 1 2 3 4 5 6 
#
# 1 0.012804 -0.005066 -0.000011 0.000000 0.000000 0.000000
# 2 -0.005066 0.008900 -0.002783 0.000000 0.000000 0.000000
# 3 -0.000011 -0.002783 0.008569 0.000000 0.000000 0.000000
# 4 0.000000 0.000000 0.000000 0.023919 0.000000 0.000000
# 5 0.000000 0.000000 0.000000 0.000000 0.035495 0.000000
# 6 0.000000 0.000000 0.000000 0.000000 0.000000 0.021525
#
#
# Mechanical properties :
#
#
# Convention : Reuss Voigt Hill
#
# Bulk Modulus (GPa) = 68.71542 76.63195 72.67369
# Shear Modulus (GPa) = 37.94098 40.86008 39.40053
#
# Velocity S-wave (km/s) = 3.86863 4.01469 3.94234
# Velocity P-wave (km/s) = 6.86008 7.19158 7.02778
#
# Compressibility (1/GPa) = 0.01455277
#
# Stress axis : x y z
#
# Youngs Moduli (GPa) = 78.10078 112.36183 116.69798
#
# Poissons Ratio (x) = 0.56924 0.00132
# Poissons Ratio (y) = 0.39567 0.32473
# Poissons Ratio (z) = 0.00088 0.31266
#
# Static dielectric constant tensor:
#      x y z
#    x 2.046540 0.000000 0.000000 
#    y 0.000000 2.174910 0.000000 
#    z 0.000000 0.000000 2.073950 
# 
# From -- ./inp_files/53848.got.cif
#   From: 2010.05.17/outbox.cif.g08.bks.cpg/sg22_27_cif.got.tgz:53848.got - 2010.06.03 23:40:54.
