data_PCOD9329210
_publ_section_title
;
Structure prediction by ZEFSAII (Michael W. Deem and Ramdas Pophale) SiO2 
 PCOD9329210
Probable space group: F 2 2 2
;
_chemical_formula_sum "Si O2"
_cell_formula_units_Z 60
_cell_length_a 26.001867
_cell_length_b 17.834480
_cell_length_c 5.390591
_cell_angle_alpha 90.000000
_cell_angle_beta 90.000000
_cell_angle_gamma 90.000000
_cell_volume 2499.777562
_symmetry_space_group_name_H-M "F 2 2 2"
_symmetry_group_IT_number 22
_symmetry_cell_setting 'orthorhombic'
loop_
_space_group_symop_operation_xyz
x,y,z
-x,-y,z
x,-y,-z
-x,y,-z
x,1/2+y,1/2+z
-x,1/2-y,1/2+z
x,1/2-y,1/2-z
-x,1/2+y,1/2-z
1/2+x,y,1/2+z
1/2-x,-y,1/2+z
1/2+x,-y,1/2-z
1/2-x,y,1/2-z
1/2+x,1/2+y,z
1/2-x,1/2-y,z
1/2+x,1/2-y,-z
1/2-x,1/2+y,-z
loop_
_atom_site_type_symbol
_atom_site_label
_atom_site_fract_x
_atom_site_fract_y
_atom_site_fract_z
Si Si1 0.000000 0.500000 0.000000
Si Si2 0.122534 0.500000 0.500000
Si Si3 0.298632 0.932341 0.131325
Si Si4 0.451152 0.376270 0.166296
Si Si5 0.869601 0.704601 0.014201
O O1 0.031342 0.553465 0.826351
O O2 0.160237 0.514869 0.273029
O O3 0.091153 0.578992 0.503759
O O4 0.250000 0.889398 0.250000
O O5 0.334025 0.867651 0.018775
O O6 0.268146 0.000000 0.000000
O O7 0.424514 0.321749 0.366501
O O8 0.500000 0.349611 0.000000
O O9 0.874466 0.750000 0.750000
O O10 0.847242 0.750000 0.250000
#
# Coordination Sequence:
#
# PCOD9329210 Si02
#       5
#     4   8  16  16  16
#     4  12  22  40  78 118 148 194 272 348 394 464
#     4  12  21  46  77 120 158 187 271 352 408 470
#     4  12  26  48  85 124 156 210 281 352 414 490
#     4  12  25  45  79 117 158 212 275 338 413 483
#     4  12  30  55  79 117 175 226 268 337 422 508
#
# _framework density 24.002137999999999
#
# number of rings (size 3 to 8) (size 9 to 14) (size 15 to 20)
#    0.000    0.000    6.667    3.200    3.733    0.533 
#    2.400    4.000    0.000    0.000    0.000    0.000 
#    0.000    0.000    0.000    0.000    0.000    0.000 
#
# Total GULP energy -83545.306176 kJ/mol
# GULP energy per Si atom -5569.687078 kJ/mol
# Density = 2.394751 g / cm^3
# Si number density = 24.002138 Si / 1000 Ang^3
#
#
#
# Elastic Constant Matrix: (Units=GPa)
#
#
# Indices 1 2 3 4 5 6 
#
# 1 122.8315 47.4271 46.6315 0.0000 0.0000 0.0000
# 2 47.4271 145.9529 66.4031 0.0000 0.0000 0.0003
# 3 46.6315 66.4031 126.3845 0.0000 0.0002 0.0012
# 4 0.0000 0.0000 0.0000 76.2598 0.0002 0.0005
# 5 0.0000 0.0000 0.0002 0.0002 65.8595 -0.0002
# 6 0.0000 0.0003 0.0012 0.0005 -0.0002 304.5914
#
#
#
# Elastic Compliance Matrix: (Units=1/GPa)
#
#
# Indices 1 2 3 4 5 6 
#
# 1 0.009911 -0.002046 -0.002582 0.000000 0.000000 0.000000
# 2 -0.002046 0.009426 -0.004198 0.000000 0.000000 0.000000
# 3 -0.002582 -0.004198 0.011070 0.000000 0.000000 0.000000
# 4 0.000000 0.000000 0.000000 0.013113 0.000000 0.000000
# 5 0.000000 0.000000 0.000000 0.000000 0.015184 0.000000
# 6 0.000000 0.000000 0.000000 0.000000 0.000000 0.003283
#
#
# Mechanical properties :
#
#
# Convention : Reuss Voigt Hill
#
# Bulk Modulus (GPa) = 78.38957 79.56583 78.97770
# Shear Modulus (GPa) = 59.60070 104.98929 82.29500
#
# Velocity S-wave (km/s) = 4.98852 6.62092 5.86182
# Velocity P-wave (km/s) = 8.11854 9.57446 8.87640
#
# Compressibility (1/GPa) = 0.01275680
#
# Stress axis : x y z
#
# Youngs Moduli (GPa) = 100.89345 106.08799 90.33016
#
# Poissons Ratio (x) = 0.21705 0.23323
# Poissons Ratio (y) = 0.20643 0.37917
# Poissons Ratio (z) = 0.26051 0.44532
#
# Static dielectric constant tensor:
#      x y z
#    x 1.682600 0.000000 0.000000 
#    y 0.000000 1.816100 0.000000 
#    z 0.000000 0.000000 0.672080 
# 
# From -- ./inp_files/2639.got.cif
#   From: 2010.05.17/outbox.cif.g08.bks.cpg/sg22_2_cif.got.tgz:2639.got - 2010.06.03 23:40:54.
