data_PCOD9329997
_publ_section_title
;
Structure prediction by ZEFSAII (Michael W. Deem and Ramdas Pophale) SiO2 
 PCOD9329997
Probable space group: I 2 2 2
;
_chemical_formula_sum "Si O2"
_cell_formula_units_Z 52
_cell_length_a 17.428637
_cell_length_b 18.189871
_cell_length_c 7.951339
_cell_angle_alpha 90.000000
_cell_angle_beta 90.000000
_cell_angle_gamma 90.000000
_cell_volume 2520.770533
_symmetry_space_group_name_H-M "I 2 2 2"
_symmetry_group_IT_number 23
_symmetry_cell_setting 'orthorhombic'
loop_
_space_group_symop_operation_xyz
x,y,z
-x,-y,z
x,-y,-z
-x,y,-z
1/2+x,1/2+y,1/2+z
1/2-x,1/2-y,1/2+z
1/2+x,1/2-y,1/2-z
1/2-x,1/2+y,1/2-z
loop_
_atom_site_type_symbol
_atom_site_label
_atom_site_fract_x
_atom_site_fract_y
_atom_site_fract_z
Si Si1 0.000000 0.201253 0.000000
Si Si2 0.616612 0.424314 0.552116
Si Si3 0.248446 0.854423 0.888770
Si Si4 0.059159 0.272903 0.346311
Si Si5 0.376868 0.068042 0.895009
Si Si6 0.274563 0.706229 0.049273
Si Si7 0.761696 0.941631 0.651209
O O1 0.032144 0.246588 0.160661
O O2 0.937783 0.144781 0.078593
O O3 0.578226 0.500000 0.500000
O O4 0.671947 0.401165 0.397916
O O5 0.672739 0.442728 0.706659
O O6 0.268901 0.828397 0.705819
O O7 0.315911 0.898537 0.973296
O O8 0.234162 0.780227 0.991731
O O9 0.072201 0.361552 0.344826
O O10 0.139692 0.231812 0.394330
O O11 0.000000 0.256983 0.500000
O O12 0.321463 0.045790 0.738722
O O13 0.411797 0.000000 0.000000
O O14 0.269436 0.642256 0.913135
O O15 0.772925 0.000000 0.500000
#
# Coordination Sequence:
#
# PCOD9329997 Si02
#       7
#     4   8   8   8   8   8   8
#     4  12  25  44  68  93 134 184 240 266 319 412
#     4  11  22  39  61  90 131 175 215 271 328 385
#     4  10  19  35  64  89 128 160 211 268 337 387
#     4  11  25  44  67  94 132 181 226 274 326 394
#     4  10  22  43  65  97 129 164 210 279 349 396
#     4  11  20  37  59  97 125 167 215 273 328 397
#     4  11  22  37  66 100 131 166 218 275 345 403
#
# _framework density 20.628613000000001
#
# number of rings (size 3 to 8) (size 9 to 14) (size 15 to 20)
#    0.000    1.231    1.538    7.615    0.000    1.538 
#    2.769    0.000    0.000    0.000    0.000    0.000 
#    0.000    0.000    0.000    0.000    0.000    0.000 
#
# Total GULP energy -145070.606620 kJ/mol
# GULP energy per Si atom -5579.638716 kJ/mol
# Density = 2.058166 g / cm^3
# Si number density = 20.628613 Si / 1000 Ang^3
#
#
#
# Elastic Constant Matrix: (Units=GPa)
#
#
# Indices 1 2 3 4 5 6 
#
# 1 55.0638 35.3318 19.3847 0.0000 0.0000 0.0000
# 2 35.3318 153.3029 40.4353 0.0000 0.0000 0.0000
# 3 19.3847 40.4353 85.9680 0.0000 0.0000 0.0000
# 4 0.0000 0.0000 0.0000 36.5684 0.0000 0.0000
# 5 0.0000 0.0000 0.0000 0.0000 17.0633 0.0000
# 6 0.0000 0.0000 0.0000 0.0000 0.0000 -3.9956
#
#
#
# Elastic Compliance Matrix: (Units=1/GPa)
#
#
# Indices 1 2 3 4 5 6 
#
# 1 0.021942 -0.004283 -0.002933 0.000000 0.000000 0.000000
# 2 -0.004283 0.008283 -0.002930 0.000000 0.000000 0.000000
# 3 -0.002933 -0.002930 0.013672 0.000000 0.000000 0.000000
# 4 0.000000 0.000000 0.000000 0.027346 0.000000 0.000000
# 5 0.000000 0.000000 0.000000 0.000000 0.058605 0.000000
# 6 0.000000 0.000000 0.000000 0.000000 0.000000 -0.250276
#
#
# Mechanical properties :
#
#
# Convention : Reuss Voigt Hill
#
# Bulk Modulus (GPa) = 42.36610 53.84871 48.10740
# Shear Modulus (GPa) = -54.19020 23.20608 -15.49206
#
# Velocity S-wave (km/s) = -5.13093 3.35766 -2.74341
# Velocity P-wave (km/s) = 3.81049 6.41813 3.65189
#
# Compressibility (1/GPa) = 0.02360378
#
# Stress axis : x y z
#
# Youngs Moduli (GPa) = 45.57549 120.72832 73.14350
#
# Poissons Ratio (x) = 0.51712 0.21452
# Poissons Ratio (y) = 0.19521 0.21432
# Poissons Ratio (z) = 0.13367 0.35375
#
# Static dielectric constant tensor:
#      x y z
#    x 1.761360 0.000000 0.000000 
#    y 0.000000 1.759760 0.000000 
#    z 0.000000 0.000000 1.770600 
# 
# From -- ./inp_files/11234.got.cif
#   From: 2010.05.17/outbox.cif.g08.bks.cpg/sg23_6_cif.got.tgz:11234.got - 2010.06.04 12:02:01.
