data_PCOD9329375
_publ_section_title
;
Structure prediction by ZEFSAII (Michael W. Deem and Ramdas Pophale) SiO2 
 PCOD9329375
Probable space group: I 2 2 2
;
_chemical_formula_sum "Si O2"
_cell_formula_units_Z 36
_cell_length_a 22.090279
_cell_length_b 5.402212
_cell_length_c 13.067969
_cell_angle_alpha 90.000000
_cell_angle_beta 90.000000
_cell_angle_gamma 90.000000
_cell_volume 1559.483988
_symmetry_space_group_name_H-M "I 2 2 2"
_symmetry_group_IT_number 23
_symmetry_cell_setting 'orthorhombic'
loop_
_space_group_symop_operation_xyz
x,y,z
-x,-y,z
x,-y,-z
-x,y,-z
1/2+x,1/2+y,1/2+z
1/2-x,1/2-y,1/2+z
1/2+x,1/2-y,1/2-z
1/2-x,1/2+y,1/2-z
loop_
_atom_site_type_symbol
_atom_site_label
_atom_site_fract_x
_atom_site_fract_y
_atom_site_fract_z
Si Si1 0.248744 0.000000 0.000000
Si Si2 0.538739 0.746184 0.277864
Si Si3 0.569560 0.749723 0.043364
Si Si4 0.282219 0.917702 0.776477
Si Si5 0.355798 0.157442 0.408529
O O1 0.286183 0.927724 0.898986
O O2 0.202117 0.212085 0.960897
O O3 0.500000 0.500000 0.271151
O O4 0.567822 0.766862 0.164843
O O5 0.589631 0.687893 0.362110
O O6 0.500000 0.000000 0.296137
O O7 0.598918 0.500000 0.000000
O O8 0.500000 0.745119 0.000000
O O9 0.596181 0.000000 0.000000
O O10 0.266835 0.631815 0.750052
O O11 0.333769 0.986987 0.693776
O O12 0.382688 0.000000 0.500000
#
# Coordination Sequence:
#
# PCOD9329375 Si02
#       5
#     4   8   8   8   8
#     4  10  22  46  73  98 139 168 226 294 352 418
#     4  12  25  41  65  97 139 188 234 276 331 405
#     4  10  16  35  62  82 118 170 215 278 324 357
#     4  10  21  41  73  97 128 173 219 279 355 400
#     4  11  25  45  68 101 137 185 227 285 346 423
#
# _framework density 23.084558000000001
#
# number of rings (size 3 to 8) (size 9 to 14) (size 15 to 20)
#    0.000    1.333    6.667    0.000    3.111    0.444 
#    2.000    0.000    9.778    0.000    0.000    0.000 
#    0.000    0.000    0.000    0.000    0.000    0.000 
#
# Total GULP energy -100375.477958 kJ/mol
# GULP energy per Si atom -5576.415442 kJ/mol
# Density = 2.303202 g / cm^3
# Si number density = 23.084558 Si / 1000 Ang^3
#
#
#
# Elastic Constant Matrix: (Units=GPa)
#
#
# Indices 1 2 3 4 5 6 
#
# 1 41.3633 19.1575 52.7410 0.0000 0.0000 0.0000
# 2 19.1575 122.0723 33.4416 0.0000 0.0000 0.0000
# 3 52.7410 33.4416 213.6362 0.0000 0.0000 0.0000
# 4 0.0000 0.0000 0.0000 409.9651 0.0000 0.0000
# 5 0.0000 0.0000 0.0000 0.0000 45.7631 0.0000
# 6 0.0000 0.0000 0.0000 0.0000 0.0000 -28.0126
#
#
#
# Elastic Compliance Matrix: (Units=1/GPa)
#
#
# Indices 1 2 3 4 5 6 
#
# 1 0.036595 -0.003415 -0.008500 0.000000 0.000000 0.000000
# 2 -0.003415 0.008877 -0.000547 0.000000 0.000000 0.000000
# 3 -0.008500 -0.000547 0.006865 0.000000 0.000000 0.000000
# 4 0.000000 0.000000 0.000000 0.002439 0.000000 0.000000
# 5 0.000000 0.000000 0.000000 0.000000 0.021852 0.000000
# 6 0.000000 0.000000 0.000000 0.000000 0.000000 -0.035698
#
#
# Mechanical properties :
#
#
# Convention : Reuss Voigt Hill
#
# Bulk Modulus (GPa) = 36.47584 65.30581 50.89082
# Shear Modulus (GPa) = 66.67445 103.65857 85.16651
#
# Velocity S-wave (km/s) = 5.38009 6.70830 6.08057
# Velocity P-wave (km/s) = 7.37761 9.39963 8.44932
#
# Compressibility (1/GPa) = 0.02741541
#
# Stress axis : x y z
#
# Youngs Moduli (GPa) = 27.32580 112.64438 145.66996
#
# Poissons Ratio (x) = 0.38463 1.23818
# Poissons Ratio (y) = 0.09331 0.07963
# Poissons Ratio (z) = 0.23227 0.06158
#
# Static dielectric constant tensor:
#      x y z
#    x 1.807540 0.000000 0.000000 
#    y 0.000000 1.876650 0.000000 
#    z 0.000000 0.000000 1.839370 
# 
# From -- ./inp_files/18189.got.cif
#   From: 2010.05.17/outbox.cif.g08.bks.cpg/sg23_10_cif.got.tgz:18189.got - 2010.06.04 12:02:01.
