data_PCOD9329527
_publ_section_title
;
Structure prediction by ZEFSAII (Michael W. Deem and Ramdas Pophale) SiO2 
 PCOD9329527
Probable space group: I 2 2 2
;
_chemical_formula_sum "Si O2"
_cell_formula_units_Z 64
_cell_length_a 28.711535
_cell_length_b 18.231600
_cell_length_c 5.521270
_cell_angle_alpha 90.000000
_cell_angle_beta 90.000000
_cell_angle_gamma 90.000000
_cell_volume 2890.148653
_symmetry_space_group_name_H-M "I 2 2 2"
_symmetry_group_IT_number 23
_symmetry_cell_setting 'orthorhombic'
loop_
_space_group_symop_operation_xyz
x,y,z
-x,-y,z
x,-y,-z
-x,y,-z
1/2+x,1/2+y,1/2+z
1/2-x,1/2-y,1/2+z
1/2+x,1/2-y,1/2-z
1/2-x,1/2+y,1/2-z
loop_
_atom_site_type_symbol
_atom_site_label
_atom_site_fract_x
_atom_site_fract_y
_atom_site_fract_z
Si Si1 0.281256 0.621071 0.936448
Si Si2 0.192895 0.274285 0.065052
Si Si3 0.943951 0.583359 0.995098
Si Si4 0.090045 0.083640 0.008722
Si Si5 0.555727 0.170353 0.003689
Si Si6 0.444594 0.585786 0.994606
Si Si7 0.353967 0.749633 0.936443
Si Si8 0.199497 0.099732 0.061761
O O1 0.239214 0.678354 0.951491
O O2 0.329940 0.668527 0.933822
O O3 0.276945 0.577893 0.687077
O O4 0.282897 0.575149 0.179700
O O5 0.168482 0.287013 0.323844
O O6 0.205620 0.188133 0.065679
O O7 0.162027 0.283508 0.822201
O O8 0.932985 0.628750 0.241623
O O9 0.925093 0.500000 0.000000
O O10 0.933862 0.620990 0.735658
O O11 0.000000 0.578372 0.000000
O O12 0.073475 0.117635 0.757808
O O13 0.071693 0.119828 0.252892
O O14 0.145219 0.082520 0.033135
O O15 0.071255 0.000000 0.000000
O O16 0.591252 0.237845 0.973259
O O17 0.500000 0.187816 0.000000
O O18 0.427290 0.500000 0.000000
O O19 0.500000 0.584886 0.000000
#
# Coordination Sequence:
#
# PCOD9329527 Si02
#       8
#     8   8   8   8   8   8   8   8
#     4  10  19  33  53  77  96 119 164 214 252 288
#     4  10  19  33  53  76  95 118 165 215 249 286
#     4   9  17  30  47  68  95 127 168 212 240 267
#     4  10  19  30  47  74 100 125 163 202 241 291
#     4  10  19  30  47  73 102 134 167 197 239 294
#     4   9  17  30  47  65  90 126 166 207 238 265
#     4  10  18  30  49  74  98 122 155 204 252 290
#     4  10  18  30  49  71  99 123 144 196 257 294
#
# _framework density 22.144190999999999
#
# number of rings (size 3 to 8) (size 9 to 14) (size 15 to 20)
#    0.000    2.250    0.000    6.000    0.000    3.000 
#    0.000    0.000    0.000   18.000    0.000   29.750 
#    0.000    0.000    0.000    0.000    0.000    0.000 
#
# Total GULP energy -178553.878250 kJ/mol
# GULP energy per Si atom -5579.808695 kJ/mol
# Density = 2.209379 g / cm^3
# Si number density = 22.144191 Si / 1000 Ang^3
#
#
#
# Elastic Constant Matrix: (Units=GPa)
#
#
# Indices 1 2 3 4 5 6 
#
# 1 50.2178 17.6449 30.9635 0.0000 0.0000 0.0000
# 2 17.6449 42.9206 24.0026 0.0000 0.0000 0.0000
# 3 30.9635 24.0026 252.3404 0.0000 0.0000 0.0000
# 4 0.0000 0.0000 0.0000 3.2418 0.0000 0.0000
# 5 0.0000 0.0000 0.0000 0.0000 31.7737 0.0000
# 6 0.0000 0.0000 0.0000 0.0000 0.0000 21.4807
#
#
#
# Elastic Compliance Matrix: (Units=1/GPa)
#
#
# Indices 1 2 3 4 5 6 
#
# 1 0.024330 -0.008801 -0.002148 0.000000 0.000000 0.000000
# 2 -0.008801 0.027791 -0.001564 0.000000 0.000000 0.000000
# 3 -0.002148 -0.001564 0.004375 0.000000 0.000000 0.000000
# 4 0.000000 0.000000 0.000000 0.308470 0.000000 0.000000
# 5 0.000000 0.000000 0.000000 0.000000 0.031473 0.000000
# 6 0.000000 0.000000 0.000000 0.000000 0.000000 0.046553
#
#
# Mechanical properties :
#
#
# Convention : Reuss Voigt Hill
#
# Bulk Modulus (GPa) = 31.77507 54.52233 43.14870
# Shear Modulus (GPa) = 10.44912 29.49041 19.96977
#
# Velocity S-wave (km/s) = 2.17461 3.65327 3.00627
# Velocity P-wave (km/s) = 4.54814 6.51691 5.61941
#
# Compressibility (1/GPa) = 0.03147122
#
# Stress axis : x y z
#
# Youngs Moduli (GPa) = 41.10113 35.98242 228.55895
#
# Poissons Ratio (x) = 0.31668 0.49102
# Poissons Ratio (y) = 0.36173 0.35737
# Poissons Ratio (z) = 0.08830 0.05626
#
# Static dielectric constant tensor:
#      x y z
#    x 1.780290 0.000000 0.000000 
#    y 0.000000 1.828150 0.000000 
#    z 0.000000 0.000000 1.911000 
# 
# From -- ./inp_files/4599.got.cif
#   From: 2010.05.17/outbox.cif.g08.bks.cpg/sg23_3_cif.got.tgz:4599.got - 2010.06.04 12:02:01.
