data_PCOD9329129
_publ_section_title
;
Structure prediction by ZEFSAII (Michael W. Deem and Ramdas Pophale) SiO2 
 PCOD9329129
Probable space group: F 2 2 2
;
_chemical_formula_sum "Si O2"
_cell_formula_units_Z 64
_cell_length_a 12.617716
_cell_length_b 8.920604
_cell_length_c 25.814408
_cell_angle_alpha 90.000000
_cell_angle_beta 90.000000
_cell_angle_gamma 90.000000
_cell_volume 2905.609044
_symmetry_space_group_name_H-M "F 2 2 2"
_symmetry_group_IT_number 22
_symmetry_cell_setting 'orthorhombic'
loop_
_space_group_symop_operation_xyz
x,y,z
-x,-y,z
x,-y,-z
-x,y,-z
x,1/2+y,1/2+z
-x,1/2-y,1/2+z
x,1/2-y,1/2-z
-x,1/2+y,1/2-z
1/2+x,y,1/2+z
1/2-x,-y,1/2+z
1/2+x,-y,1/2-z
1/2-x,y,1/2-z
1/2+x,1/2+y,z
1/2-x,1/2-y,z
1/2+x,1/2-y,-z
1/2-x,1/2+y,-z
loop_
_atom_site_type_symbol
_atom_site_label
_atom_site_fract_x
_atom_site_fract_y
_atom_site_fract_z
Si Si1 0.213685 0.004037 0.181691
Si Si2 0.582063 0.705251 0.667804
Si Si3 0.594616 0.750000 0.250000
Si Si4 0.250000 0.750000 0.596205
Si Si5 0.523068 0.675811 0.443754
O O1 0.328858 0.920350 0.180802
O O2 0.134229 0.864825 0.180523
O O3 0.163431 0.118522 0.223758
O O4 0.217736 0.109320 0.131630
O O5 0.480671 0.687339 0.704592
O O6 0.543675 0.716450 0.608019
O O7 0.353585 0.703842 0.565511
O O8 0.500000 0.500000 0.447515
O O9 0.500000 0.746723 0.500000
#
# Coordination Sequence:
#
# PCOD9329129 Si02
#       5
#    16  16   8   8  16
#     4  11  27  46  77 110 151 204 257 319 390 468
#     4  11  26  51  72 113 157 199 262 324 388 469
#     4  12  26  46  76 112 160 206 255 319 396 466
#     4  12  24  45  78 114 144 203 262 306 392 476
#     4  11  25  49  77 113 158 204 258 330 392 457
#
# _framework density 22.026361999999999
#
# number of rings (size 3 to 8) (size 9 to 14) (size 15 to 20)
#    0.000    0.750    5.000    0.750    0.000   12.500 
#    0.000    1.250    0.000    0.000    0.000    0.000 
#    0.000    0.000    0.000    0.000    0.000    0.000 
#
# Total GULP energy -89417.870769 kJ/mol
# GULP energy per Si atom -5588.616923 kJ/mol
# Density = 2.197623 g / cm^3
# Si number density = 22.026362 Si / 1000 Ang^3
#
#
#
# Elastic Constant Matrix: (Units=GPa)
#
#
# Indices 1 2 3 4 5 6 
#
# 1 199.0701 87.3591 106.4099 0.0000 0.0000 0.0000
# 2 87.3591 126.0897 55.4828 0.0000 0.0000 0.0000
# 3 106.4099 55.4828 186.2275 0.0000 0.0000 0.0000
# 4 0.0000 0.0000 0.0000 65.2983 0.0000 0.0000
# 5 0.0000 0.0000 0.0000 0.0000 98.9172 0.0000
# 6 0.0000 0.0000 0.0000 0.0000 0.0000 42.9112
#
#
#
# Elastic Compliance Matrix: (Units=1/GPa)
#
#
# Indices 1 2 3 4 5 6 
#
# 1 0.009091 -0.004618 -0.003819 0.000000 0.000000 0.000000
# 2 -0.004618 0.011474 -0.000779 0.000000 0.000000 0.000000
# 3 -0.003819 -0.000779 0.007784 0.000000 0.000000 0.000000
# 4 0.000000 0.000000 0.000000 0.015314 0.000000 0.000000
# 5 0.000000 0.000000 0.000000 0.000000 0.010109 0.000000
# 6 0.000000 0.000000 0.000000 0.000000 0.000000 0.023304
#
#
# Mechanical properties :
#
#
# Convention : Reuss Voigt Hill
#
# Bulk Modulus (GPa) = 100.84934 112.21007 106.52971
# Shear Modulus (GPa) = 50.59943 58.90101 54.75022
#
# Velocity S-wave (km/s) = 4.79813 5.17679 4.99106
# Velocity P-wave (km/s) = 8.75107 9.31592 9.03791
#
# Compressibility (1/GPa) = 0.00991578
#
# Stress axis : x y z
#
# Youngs Moduli (GPa) = 109.99425 87.15650 128.46798
#
# Poissons Ratio (x) = 0.40253 0.49060
# Poissons Ratio (y) = 0.50800 0.10012
# Poissons Ratio (z) = 0.42005 0.06793
#
# Static dielectric constant tensor:
#      x y z
#    x 1.827030 0.000000 0.000000 
#    y 0.000000 1.754260 0.000000 
#    z 0.000000 0.000000 1.893340 
# 
# From -- ./inp_files/55361.got.cif
#   From: 2010.05.17/outbox.cif.g08.bks.cpg/sg22_28_cif.got.tgz:55361.got - 2010.06.03 23:40:54.
