data_PCOD9329414
_publ_section_title
;
Structure prediction by ZEFSAII (Michael W. Deem and Ramdas Pophale) SiO2 
 PCOD9329414
Probable space group: I 2 2 2
;
_chemical_formula_sum "Si O2"
_cell_formula_units_Z 48
_cell_length_a 8.813973
_cell_length_b 30.009189
_cell_length_c 7.560103
_cell_angle_alpha 90.000000
_cell_angle_beta 90.000000
_cell_angle_gamma 90.000000
_cell_volume 1999.648616
_symmetry_space_group_name_H-M "I 2 2 2"
_symmetry_group_IT_number 23
_symmetry_cell_setting 'orthorhombic'
loop_
_space_group_symop_operation_xyz
x,y,z
-x,-y,z
x,-y,-z
-x,y,-z
1/2+x,1/2+y,1/2+z
1/2-x,1/2-y,1/2+z
1/2+x,1/2-y,1/2-z
1/2-x,1/2+y,1/2-z
loop_
_atom_site_type_symbol
_atom_site_label
_atom_site_fract_x
_atom_site_fract_y
_atom_site_fract_z
Si Si1 0.325481 0.499637 0.784703
Si Si2 0.793480 0.818139 0.125369
Si Si3 0.686180 0.906399 0.696223
Si Si4 0.165537 0.592659 0.234914
Si Si5 0.675428 0.232838 0.548752
Si Si6 0.097099 0.829644 0.331674
O O1 0.500000 0.500000 0.725193
O O2 0.244326 0.545751 0.740933
O O3 0.233742 0.456033 0.724549
O O4 0.326922 0.500000 0.000000
O O5 0.746873 0.869210 0.150728
O O6 0.692594 0.791789 0.267331
O O7 0.777926 0.785001 0.959067
O O8 0.964335 0.814179 0.201006
O O9 0.514242 0.901882 0.759886
O O10 0.687309 0.902507 0.479531
O O11 0.802557 0.868390 0.752879
O O12 0.500000 0.227761 0.500000
O O13 0.791089 0.206226 0.420928
O O14 0.000000 0.848566 0.500000
#
# Coordination Sequence:
#
# PCOD9329414 Si02
#       6
#     8   8   8   8   8   8
#     4   9  17  25  43  70 104 148 180 222 276 347
#     4  11  22  36  57  79 111 149 188 234 282 337
#     4  10  17  28  47  70 108 146 183 224 282 342
#     4  10  18  30  47  72 107 146 184 226 286 333
#     4  11  22  38  56  80 108 147 191 234 281 331
#     4  10  19  31  50  72 103 142 181 225 281 328
#
# _framework density 24.004218999999999
#
# number of rings (size 3 to 8) (size 9 to 14) (size 15 to 20)
#    0.000    1.833    3.333    3.500    2.333    2.000 
#    0.000    1.667    0.000    0.000    0.000    0.000 
#    0.000   15.333    0.000   33.500    0.000    0.000 
#
# Total GULP energy -134230.168950 kJ/mol
# GULP energy per Si atom -5592.923706 kJ/mol
# Density = 2.394958 g / cm^3
# Si number density = 24.004219 Si / 1000 Ang^3
#
#
#
# Elastic Constant Matrix: (Units=GPa)
#
#
# Indices 1 2 3 4 5 6 
#
# 1 157.3349 58.9118 1.7875 0.0032 0.0009 0.0001
# 2 58.9118 177.8647 4.5664 0.0043 0.0000 0.0002
# 3 1.7875 4.5664 55.0511 0.0169 0.0026 -0.0016
# 4 0.0032 0.0043 0.0169 -14.7103 -0.0006 0.0000
# 5 0.0009 0.0000 0.0026 -0.0006 12.2263 -0.0011
# 6 0.0001 0.0002 -0.0016 0.0000 -0.0011 40.3806
#
#
#
# Elastic Compliance Matrix: (Units=1/GPa)
#
#
# Indices 1 2 3 4 5 6 
#
# 1 0.007256 -0.002402 -0.000036 0.000001 -0.000001 0.000000
# 2 -0.002402 0.006430 -0.000455 0.000001 0.000000 0.000000
# 3 -0.000036 -0.000455 0.018204 0.000021 -0.000004 0.000001
# 4 0.000001 0.000001 0.000021 -0.067980 -0.000003 0.000000
# 5 -0.000001 0.000000 -0.000004 -0.000003 0.081791 0.000002
# 6 0.000000 0.000000 0.000001 0.000000 0.000002 0.024764
#
#
# Mechanical properties :
#
#
# Convention : Reuss Voigt Hill
#
# Bulk Modulus (GPa) = 38.31217 57.86470 48.08843
# Shear Modulus (GPa) = 58.85583 29.24499 44.05041
#
# Velocity S-wave (km/s) = 4.95703 3.49424 4.28847
# Velocity P-wave (km/s) = 6.98270 6.35909 6.67818
#
# Compressibility (1/GPa) = 0.02610137
#
# Stress axis : x y z
#
# Youngs Moduli (GPa) = 137.82090 155.53007 54.93335
#
# Poissons Ratio (x) = 0.37363 0.00200
# Poissons Ratio (y) = 0.33109 0.02501
# Poissons Ratio (z) = 0.00501 0.07082
#
# Static dielectric constant tensor:
#      x y z
#    x 1.873400 0.000000 0.000000 
#    y 0.000000 1.878600 0.000000 
#    z 0.000000 0.000000 2.082240 
# 
# From -- ./inp_files/14833.got.cif
#   From: 2010.05.17/outbox.cif.g08.bks.cpg/sg23_8_cif.got.tgz:14833.got - 2010.06.04 12:02:01.
