data_PCOD9329504
_publ_section_title
;
Structure prediction by ZEFSAII (Michael W. Deem and Ramdas Pophale) SiO2 
 PCOD9329504
Probable space group: I 2 2 2
;
_chemical_formula_sum "Si O2"
_cell_formula_units_Z 64
_cell_length_a 29.146464
_cell_length_b 5.575422
_cell_length_c 17.901053
_cell_angle_alpha 90.000000
_cell_angle_beta 90.000000
_cell_angle_gamma 90.000000
_cell_volume 2908.989792
_symmetry_space_group_name_H-M "I 2 2 2"
_symmetry_group_IT_number 23
_symmetry_cell_setting 'orthorhombic'
loop_
_space_group_symop_operation_xyz
x,y,z
-x,-y,z
x,-y,-z
-x,y,-z
1/2+x,1/2+y,1/2+z
1/2-x,1/2-y,1/2+z
1/2+x,1/2-y,1/2-z
1/2-x,1/2+y,1/2-z
loop_
_atom_site_type_symbol
_atom_site_label
_atom_site_fract_x
_atom_site_fract_y
_atom_site_fract_z
Si Si1 0.127831 0.417137 0.925624
Si Si2 0.417146 0.402497 0.740702
Si Si3 0.846934 0.363872 0.373005
Si Si4 0.751077 0.372487 0.293585
Si Si5 0.981896 0.751896 0.415660
Si Si6 0.921079 0.597688 0.764047
Si Si7 0.160325 0.087749 0.113760
Si Si8 0.623294 0.362035 0.099424
O O1 0.101219 0.407976 0.846843
O O2 0.162231 0.643405 0.919397
O O3 0.150221 0.154341 0.932622
O O4 0.100049 0.500000 0.000000
O O5 0.444894 0.647318 0.741350
O O6 0.383248 0.401660 0.670074
O O7 0.382572 0.397713 0.810987
O O8 0.444980 0.157121 0.744427
O O9 0.796846 0.317773 0.340298
O O10 0.882604 0.392767 0.302522
O O11 0.846521 0.625034 0.412274
O O12 0.862537 0.133296 0.422679
O O13 0.760723 0.617404 0.246354
O O14 0.707251 0.446093 0.342162
O O15 0.927575 0.780607 0.422925
O O16 0.000000 0.500000 0.382985
O O17 0.000000 0.749760 0.500000
O O18 0.000000 0.000000 0.380866
#
# Coordination Sequence:
#
# PCOD9329504 Si02
#       8
#     8   8   8   8   8   8   8   8
#     4  10  18  29  43  60  81 127 172 205 245 284
#     4   8  14  25  41  62  92 122 146 184 246 303
#     4  10  19  30  48  76 101 129 163 201 272 331
#     4  12  20  30  48  73 105 133 166 220 271 318
#     4  10  21  37  57  83 104 126 167 219 273 335
#     4   8  14  25  38  59  90 109 149 193 225 293
#     4  10  19  30  43  67  96 123 166 216 251 302
#     4  10  18  32  51  74 102 125 156 203 262 339
#
# _framework density 22.000765999999999
#
# number of rings (size 3 to 8) (size 9 to 14) (size 15 to 20)
#    0.000    2.250    0.000    7.125    0.000    0.000 
#    0.000    0.000    0.000    0.000   32.500    0.000 
#    0.000    0.000    0.000    0.000    0.000  759.375 
#
# Total GULP energy -178176.418706 kJ/mol
# GULP energy per Si atom -5568.013085 kJ/mol
# Density = 2.195069 g / cm^3
# Si number density = 22.000766 Si / 1000 Ang^3
#
#
#
# Elastic Constant Matrix: (Units=GPa)
#
#
# Indices 1 2 3 4 5 6 
#
# 1 61.7943 32.5308 7.5691 0.0000 0.0000 0.0000
# 2 32.5308 250.6394 38.3342 0.0000 0.0000 0.0000
# 3 7.5691 38.3342 53.7053 0.0000 0.0000 0.0000
# 4 0.0000 0.0000 0.0000 28.7588 0.0000 0.0000
# 5 0.0000 0.0000 0.0000 0.0000 -15.6234 0.0000
# 6 0.0000 0.0000 0.0000 0.0000 0.0000 15.3734
#
#
#
# Elastic Compliance Matrix: (Units=1/GPa)
#
#
# Indices 1 2 3 4 5 6 
#
# 1 0.017412 -0.002116 -0.000944 0.000000 0.000000 0.000000
# 2 -0.002116 0.004736 -0.003082 0.000000 0.000000 0.000000
# 3 -0.000944 -0.003082 0.020953 0.000000 0.000000 0.000000
# 4 0.000000 0.000000 0.000000 0.034772 0.000000 0.000000
# 5 0.000000 0.000000 0.000000 0.000000 -0.064007 0.000000
# 6 0.000000 0.000000 0.000000 0.000000 0.000000 0.065047
#
#
# Mechanical properties :
#
#
# Convention : Reuss Voigt Hill
#
# Bulk Modulus (GPa) = 32.44894 58.11189 45.28041
# Shear Modulus (GPa) = 49.27582 24.88210 37.07896
#
# Velocity S-wave (km/s) = 4.73771 3.36663 4.10975
# Velocity P-wave (km/s) = 6.68647 6.44850 6.56857
#
# Compressibility (1/GPa) = 0.03081765
#
# Stress axis : x y z
#
# Youngs Moduli (GPa) = 57.43149 211.15833 47.72538
#
# Poissons Ratio (x) = 0.44672 0.04505
# Poissons Ratio (y) = 0.12150 0.14710
# Poissons Ratio (z) = 0.05421 0.65083
#
# Static dielectric constant tensor:
#      x y z
#    x 1.719220 0.000000 0.000000 
#    y 0.000000 1.953460 0.000000 
#    z 0.000000 0.000000 2.108190 
# 
# From -- ./inp_files/27412.got.cif
#   From: 2010.05.17/outbox.cif.g08.bks.cpg/sg23_14_cif.got.tgz:27412.got - 2010.06.04 12:02:01.
