data_PCOD9329956
_publ_section_title
;
Structure prediction by ZEFSAII (Michael W. Deem and Ramdas Pophale) SiO2 
 PCOD9329956
Probable space group: I 2 2 2
;
_chemical_formula_sum "Si O2"
_cell_formula_units_Z 56
_cell_length_a 13.740583
_cell_length_b 15.061226
_cell_length_c 13.993674
_cell_angle_alpha 90.000000
_cell_angle_beta 90.000000
_cell_angle_gamma 90.000000
_cell_volume 2895.991197
_symmetry_space_group_name_H-M "I 2 2 2"
_symmetry_group_IT_number 23
_symmetry_cell_setting 'orthorhombic'
loop_
_space_group_symop_operation_xyz
x,y,z
-x,-y,z
x,-y,-z
-x,y,-z
1/2+x,1/2+y,1/2+z
1/2-x,1/2-y,1/2+z
1/2+x,1/2-y,1/2-z
1/2-x,1/2+y,1/2-z
loop_
_atom_site_type_symbol
_atom_site_label
_atom_site_fract_x
_atom_site_fract_y
_atom_site_fract_z
Si Si1 0.203995 0.538129 0.743257
Si Si2 0.246416 0.207372 0.644075
Si Si3 0.632095 0.825324 0.012975
Si Si4 0.894655 0.263109 0.014573
Si Si5 0.339691 0.162790 0.294077
Si Si6 0.673272 0.418343 0.560479
Si Si7 0.516032 0.136575 0.162597
O O1 0.236637 0.606367 0.825926
O O2 0.194156 0.436615 0.772802
O O3 0.285159 0.550117 0.661425
O O4 0.097346 0.570056 0.703970
O O5 0.159413 0.237505 0.572817
O O6 0.341076 0.238123 0.586290
O O7 0.225957 0.265550 0.738384
O O8 0.567716 0.887489 0.083920
O O9 0.730134 0.878710 0.991234
O O10 0.580428 0.804698 0.912055
O O11 0.837624 0.318595 0.093918
O O12 0.899002 0.164681 0.060229
O O13 0.000000 0.302257 0.000000
O O14 0.449808 0.171847 0.249795
O O15 0.634684 0.500000 0.500000
#
# Coordination Sequence:
#
# PCOD9329956 Si02
#       7
#     8   8   8   8   8   8   8
#     4  11  20  34  59  85 122 159 194 243 301 368
#     4  10  21  39  56  83 120 161 202 234 301 371
#     4   8  17  32  54  83 120 147 189 248 295 357
#     4  11  23  39  58  87 123 160 199 252 308 361
#     4  11  22  38  58  89 123 153 200 250 303 369
#     4  10  19  35  57  85 114 154 204 250 298 352
#     4   9  17  31  54  87 114 151 185 247 310 343
#
# _framework density 19.337076
#
# number of rings (size 3 to 8) (size 9 to 14) (size 15 to 20)
#    0.000    2.000    1.429    3.857    0.000    2.000 
#    0.000    5.714    0.000    0.000    0.000    0.000 
#    8.571    0.000    0.000    0.000    0.000    0.000 
#
# Total GULP energy -155944.127276 kJ/mol
# GULP energy per Si atom -5569.433117 kJ/mol
# Density = 1.929306 g / cm^3
# Si number density = 19.337076 Si / 1000 Ang^3
#
#
#
# Elastic Constant Matrix: (Units=GPa)
#
#
# Indices 1 2 3 4 5 6 
#
# 1 29.5838 0.6948 14.1908 0.0000 0.0000 0.0000
# 2 0.6948 74.2432 23.4105 0.0000 0.0000 0.0000
# 3 14.1908 23.4105 55.6500 0.0000 0.0000 0.0000
# 4 0.0000 0.0000 0.0000 34.9167 0.0000 0.0000
# 5 0.0000 0.0000 0.0000 0.0000 24.1688 0.0000
# 6 0.0000 0.0000 0.0000 0.0000 0.0000 7.9900
#
#
#
# Elastic Compliance Matrix: (Units=1/GPa)
#
#
# Indices 1 2 3 4 5 6 
#
# 1 0.039165 0.003208 -0.011337 0.000000 0.000000 0.000000
# 2 0.003208 0.015792 -0.007461 0.000000 0.000000 0.000000
# 3 -0.011337 -0.007461 0.023999 0.000000 0.000000 0.000000
# 4 0.000000 0.000000 0.000000 0.028640 0.000000 0.000000
# 5 0.000000 0.000000 0.000000 0.000000 0.041376 0.000000
# 6 0.000000 0.000000 0.000000 0.000000 0.000000 0.125157
#
#
# Mechanical properties :
#
#
# Convention : Reuss Voigt Hill
#
# Bulk Modulus (GPa) = 20.93090 26.22991 23.58041
# Shear Modulus (GPa) = 15.56503 21.49381 18.52942
#
# Velocity S-wave (km/s) = 2.84021 3.33758 3.09889
# Velocity P-wave (km/s) = 4.64795 5.33354 5.00250
#
# Compressibility (1/GPa) = 0.04777625
#
# Stress axis : x y z
#
# Youngs Moduli (GPa) = 25.53308 63.32344 41.66821
#
# Poissons Ratio (x) = -0.20315 0.47238
# Poissons Ratio (y) = -0.08191 0.31090
# Poissons Ratio (z) = 0.28946 0.47248
#
# Static dielectric constant tensor:
#      x y z
#    x 1.726990 0.000000 0.000000 
#    y 0.000000 1.685690 0.000000 
#    z 0.000000 0.000000 1.706170 
# 
# From -- ./inp_files/21689.got.cif
#   From: 2010.05.17/outbox.cif.g08.bks.cpg/sg23_11_cif.got.tgz:21689.got - 2010.06.04 12:02:01.
