data_PCOD9329339
_publ_section_title
;
Structure prediction by ZEFSAII (Michael W. Deem and Ramdas Pophale) SiO2 
 PCOD9329339
Probable space group: I 2 2 2
;
_chemical_formula_sum "Si O2"
_cell_formula_units_Z 32
_cell_length_a 33.792669
_cell_length_b 5.309167
_cell_length_c 7.248182
_cell_angle_alpha 90.000000
_cell_angle_beta 90.000000
_cell_angle_gamma 90.000000
_cell_volume 1300.403023
_symmetry_space_group_name_H-M "I 2 2 2"
_symmetry_group_IT_number 23
_symmetry_cell_setting 'orthorhombic'
loop_
_space_group_symop_operation_xyz
x,y,z
-x,-y,z
x,-y,-z
-x,y,-z
1/2+x,1/2+y,1/2+z
1/2-x,1/2-y,1/2+z
1/2+x,1/2-y,1/2-z
1/2-x,1/2+y,1/2-z
loop_
_atom_site_type_symbol
_atom_site_label
_atom_site_fract_x
_atom_site_fract_y
_atom_site_fract_z
Si Si1 0.106362 0.943060 0.288776
Si Si2 0.271830 0.882246 0.202526
Si Si3 0.982631 0.753856 0.709714
Si Si4 0.860743 0.447097 0.723002
O O1 0.063957 0.805004 0.296745
O O2 0.133636 0.729016 0.199696
O O3 0.119026 0.000000 0.500000
O O4 0.108665 0.228500 0.213848
O O5 0.250837 0.611205 0.196189
O O6 0.316956 0.850361 0.266942
O O7 0.274563 0.000000 0.000000
O O8 0.000000 0.500000 0.791843
O O9 0.000000 0.751715 0.500000
O O10 0.000000 0.000000 0.801445
O O11 0.865028 0.500000 0.500000
#
# Coordination Sequence:
#
# PCOD9329339 Si02
#       4
#     8   8   8   8
#     4  10  16  26  38  56  87 125 171 229 250 310
#     4  11  22  39  60  85 114 147 193 248 295 357
#     4  10  17  22  32  51  80 119 174 216 247 296
#     4   9  19  29  45  66  91 129 175 224 269 325
#
# _framework density 24.607756999999999
#
# number of rings (size 3 to 8) (size 9 to 14) (size 15 to 20)
#    0.000    2.000    2.500    3.750    7.000    4.000 
#    0.000    0.000    0.000    0.000    0.000    0.000 
#    0.000    0.000    0.000    0.000    0.000  262.500 
#
# Total GULP energy -89252.148752 kJ/mol
# GULP energy per Si atom -5578.259297 kJ/mol
# Density = 2.455175 g / cm^3
# Si number density = 24.607757 Si / 1000 Ang^3
#
#
#
# Elastic Constant Matrix: (Units=GPa)
#
#
# Indices 1 2 3 4 5 6 
#
# 1 110.7578 62.1330 -4.9086 0.0000 0.0000 0.0000
# 2 62.1330 258.2751 5.9420 0.0000 0.0000 0.0000
# 3 -4.9086 5.9420 70.2223 0.0000 0.0000 0.0000
# 4 0.0000 0.0000 0.0000 2.1612 0.0000 0.0000
# 5 0.0000 0.0000 0.0000 0.0000 -12.2805 0.0000
# 6 0.0000 0.0000 0.0000 0.0000 0.0000 46.4827
#
#
#
# Elastic Compliance Matrix: (Units=1/GPa)
#
#
# Indices 1 2 3 4 5 6 
#
# 1 0.010500 -0.002548 0.000950 0.000000 0.000000 0.000000
# 2 -0.002548 0.004498 -0.000559 0.000000 0.000000 0.000000
# 3 0.000950 -0.000559 0.014354 0.000000 0.000000 0.000000
# 4 0.000000 0.000000 0.000000 0.462702 0.000000 0.000000
# 5 0.000000 0.000000 0.000000 0.000000 -0.081430 0.000000
# 6 0.000000 0.000000 0.000000 0.000000 0.000000 0.021513
#
#
# Mechanical properties :
#
#
# Convention : Reuss Voigt Hill
#
# Bulk Modulus (GPa) = 39.93938 62.84310 51.39124
# Shear Modulus (GPa) = 11.24107 32.34527 21.79317
#
# Velocity S-wave (km/s) = 2.13963 3.62945 2.97917
# Velocity P-wave (km/s) = 4.72966 6.56941 5.72393
#
# Compressibility (1/GPa) = 0.02503795
#
# Stress axis : x y z
#
# Youngs Moduli (GPa) = 95.23735 222.33955 69.66630
#
# Poissons Ratio (x) = 0.56649 -0.06615
# Poissons Ratio (y) = 0.24265 0.03892
# Poissons Ratio (z) = -0.09043 0.12422
#
# Static dielectric constant tensor:
#      x y z
#    x 1.912660 0.000000 0.000000 
#    y 0.000000 2.055210 0.000000 
#    z 0.000000 0.000000 1.987650 
# 
# From -- ./inp_files/704.got.cif
#   From: 2010.05.17/outbox.cif.g08.bks.cpg/sg23_1_cif.got.tgz:704.got - 2010.06.04 12:02:01.
