data_PCOD9329065
_publ_section_title
;
Structure prediction by ZEFSAII (Michael W. Deem and Ramdas Pophale) SiO2 
 PCOD9329065
Probable space group: F 2 2 2
;
_chemical_formula_sum "Si O2"
_cell_formula_units_Z 88
_cell_length_a 11.571068
_cell_length_b 13.594777
_cell_length_c 25.337868
_cell_angle_alpha 90.000000
_cell_angle_beta 90.000000
_cell_angle_gamma 90.000000
_cell_volume 3985.800922
_symmetry_space_group_name_H-M "F 2 2 2"
_symmetry_group_IT_number 22
_symmetry_cell_setting 'orthorhombic'
loop_
_space_group_symop_operation_xyz
x,y,z
-x,-y,z
x,-y,-z
-x,y,-z
x,1/2+y,1/2+z
-x,1/2-y,1/2+z
x,1/2-y,1/2-z
-x,1/2+y,1/2-z
1/2+x,y,1/2+z
1/2-x,-y,1/2+z
1/2+x,-y,1/2-z
1/2-x,y,1/2-z
1/2+x,1/2+y,z
1/2-x,1/2-y,z
1/2+x,1/2-y,-z
1/2-x,1/2+y,-z
loop_
_atom_site_type_symbol
_atom_site_label
_atom_site_fract_x
_atom_site_fract_y
_atom_site_fract_z
Si Si1 0.541595 0.654074 0.725770
Si Si2 0.000000 0.000000 0.183522
Si Si3 0.250000 0.750000 0.162668
Si Si4 0.617873 0.911431 0.593792
Si Si5 0.000000 0.000000 0.641088
Si Si6 0.000000 0.822456 0.000000
Si Si7 0.750000 0.250000 0.970094
Si Si8 0.685193 0.468896 0.554235
O O1 0.481941 0.750000 0.750000
O O2 0.540348 0.583855 0.776388
O O3 0.663438 0.687972 0.700202
O O4 0.484176 0.593779 0.678780
O O5 0.899360 0.006111 0.139565
O O6 0.328997 0.681574 0.125091
O O7 0.511488 0.880246 0.555891
O O8 0.706943 0.958021 0.553780
O O9 0.890442 0.996671 0.603493
O O10 0.875395 0.766716 0.001276
O O11 0.722550 0.145191 0.941966
O O12 0.623784 0.500000 0.500000
#
# Coordination Sequence:
#
# PCOD9329065 Si02
#       8
#    16   8   8  16   8   8   8  16
#     4  11  24  47  72 109 142 188 261 329 383 460
#     4  11  26  39  71 107 141 186 241 328 378 444
#     4  12  24  46  81 108 136 201 260 320 380 480
#     4  12  26  46  75 108 151 198 257 306 395 464
#     4  11  27  46  77 113 158 195 265 322 406 460
#     4  12  28  51  73 116 158 210 261 316 379 486
#     4  12  29  44  75 106 167 204 260 313 388 454
#     4  12  27  47  71 115 157 209 248 326 383 486
#
# _framework density 22.078372999999999
#
# number of rings (size 3 to 8) (size 9 to 14) (size 15 to 20)
#    0.000    0.364    5.455    2.182    5.091    2.182 
#    0.000    0.000    0.000    1.091    0.000    0.000 
#    0.000    0.000    0.000    0.000    0.000    0.000 
#
# Total GULP energy -122488.647276 kJ/mol
# GULP energy per Si atom -5567.665785 kJ/mol
# Density = 2.202812 g / cm^3
# Si number density = 22.078373 Si / 1000 Ang^3
#
#
#
# Elastic Constant Matrix: (Units=GPa)
#
#
# Indices 1 2 3 4 5 6 
#
# 1 88.4328 24.3951 35.8229 0.0000 0.0000 0.0000
# 2 24.3951 99.8005 55.7175 0.0000 0.0000 0.0000
# 3 35.8229 55.7175 163.7361 0.0000 0.0000 0.0000
# 4 0.0000 0.0000 0.0000 9.7079 0.0000 0.0000
# 5 0.0000 0.0000 0.0000 0.0000 0.0704 0.0000
# 6 0.0000 0.0000 0.0000 0.0000 0.0000 32.3055
#
#
#
# Elastic Compliance Matrix: (Units=1/GPa)
#
#
# Indices 1 2 3 4 5 6 
#
# 1 0.012698 -0.001917 -0.002126 0.000000 0.000000 0.000000
# 2 -0.001917 0.012659 -0.003888 0.000000 0.000000 0.000000
# 3 -0.002126 -0.003888 0.007896 0.000000 0.000000 0.000000
# 4 0.000000 0.000000 0.000000 0.103008 0.000000 0.000000
# 5 0.000000 0.000000 0.000000 0.000000 14.199959 0.000000
# 6 0.000000 0.000000 0.000000 0.000000 0.000000 0.030954
#
#
# Mechanical properties :
#
#
# Convention : Reuss Voigt Hill
#
# Bulk Modulus (GPa) = 57.50250 64.87113 61.18682
# Shear Modulus (GPa) = 0.34749 24.15237 12.24993
#
# Velocity S-wave (km/s) = 0.39715 3.31106 2.35806
# Velocity P-wave (km/s) = 5.12948 6.63803 5.93191
#
# Compressibility (1/GPa) = 0.01739055
#
# Stress axis : x y z
#
# Youngs Moduli (GPa) = 78.75266 78.99225 126.65182
#
# Poissons Ratio (x) = 0.15144 0.26923
# Poissons Ratio (y) = 0.15098 0.49248
# Poissons Ratio (z) = 0.16741 0.30716
#
# Static dielectric constant tensor:
#      x y z
#    x 1.865950 0.000000 0.000000 
#    y 0.000000 1.908050 0.000000 
#    z 0.000000 0.000000 1.788480 
# 
# From -- ./inp_files/24574.got.cif
#   From: 2010.05.17/outbox.cif.g08.bks.cpg/sg22_13_cif.got.tgz:24574.got - 2010.06.03 23:40:54.
