data_PCOD9329218
_publ_section_title
;
Structure prediction by ZEFSAII (Michael W. Deem and Ramdas Pophale) SiO2 
 PCOD9329218
Probable space group: F 2 2 2
;
_chemical_formula_sum "Si O2"
_cell_formula_units_Z 88
_cell_length_a 13.874362
_cell_length_b 27.040008
_cell_length_c 11.624808
_cell_angle_alpha 90.000000
_cell_angle_beta 90.000000
_cell_angle_gamma 90.000000
_cell_volume 4361.196210
_symmetry_space_group_name_H-M "F 2 2 2"
_symmetry_group_IT_number 22
_symmetry_cell_setting 'orthorhombic'
loop_
_space_group_symop_operation_xyz
x,y,z
-x,-y,z
x,-y,-z
-x,y,-z
x,1/2+y,1/2+z
-x,1/2-y,1/2+z
x,1/2-y,1/2-z
-x,1/2+y,1/2-z
1/2+x,y,1/2+z
1/2-x,-y,1/2+z
1/2+x,-y,1/2-z
1/2-x,y,1/2-z
1/2+x,1/2+y,z
1/2-x,1/2-y,z
1/2+x,1/2-y,-z
1/2-x,1/2+y,-z
loop_
_atom_site_type_symbol
_atom_site_label
_atom_site_fract_x
_atom_site_fract_y
_atom_site_fract_z
Si Si1 0.464895 0.556595 0.223499
Si Si2 0.136747 0.193657 0.385580
Si Si3 0.410354 0.414207 0.428355
Si Si4 0.233304 0.000000 0.500000
Si Si5 0.131793 0.803067 0.883554
Si Si6 0.750000 0.961460 0.750000
Si Si7 0.500000 0.117682 0.500000
O O1 0.500000 0.500000 0.217050
O O2 0.550300 0.580940 0.298994
O O3 0.356172 0.562097 0.275723
O O4 0.463873 0.583177 0.101831
O O5 0.106478 0.143788 0.449591
O O6 0.105740 0.192053 0.251410
O O7 0.105129 0.247933 0.427215
O O8 0.252814 0.193356 0.387570
O O9 0.500000 0.433756 0.500000
O O10 0.324909 0.450704 0.461699
O O11 0.277452 0.987190 0.373507
O O12 0.083302 0.846233 0.954711
#
# Coordination Sequence:
#
# PCOD9329218 Si02
#       7
#    16  16  16   8  16   8   8
#     4  12  26  45  61  98 133 175 222 266 338 397
#     4   9  20  39  65  90 124 170 224 269 327 402
#     4  12  22  42  66  91 126 179 221 262 315 404
#     4  12  27  44  69  98 136 178 227 272 329 398
#     4   9  20  40  62  94 126 163 220 279 332 393
#     4  12  28  44  68  94 141 177 220 282 322 406
#     4  12  25  38  66  98 140 165 210 296 340 388
#
# _framework density 20.177949999999999
#
# number of rings (size 3 to 8) (size 9 to 14) (size 15 to 20)
#    0.000    1.091    5.455    1.636    6.364    1.455 
#    0.000    0.000    0.000    0.000    0.000    1.273 
#    0.000    0.000    0.000    0.000    0.000    0.000 
#
# Total GULP energy -122526.969451 kJ/mol
# GULP energy per Si atom -5569.407702 kJ/mol
# Density = 2.013202 g / cm^3
# Si number density = 20.177950 Si / 1000 Ang^3
#
#
#
# Elastic Constant Matrix: (Units=GPa)
#
#
# Indices 1 2 3 4 5 6 
#
# 1 40.9440 18.6983 8.1550 0.0000 0.0000 0.0000
# 2 18.6983 108.5322 -1.5980 0.0000 0.0000 0.0000
# 3 8.1550 -1.5980 73.3919 0.0000 0.0000 0.0000
# 4 0.0000 0.0000 0.0000 28.1580 0.0000 0.0000
# 5 0.0000 0.0000 0.0000 0.0000 29.0129 0.0000
# 6 0.0000 0.0000 0.0000 0.0000 0.0000 26.1803
#
#
#
# Elastic Compliance Matrix: (Units=1/GPa)
#
#
# Indices 1 2 3 4 5 6 
#
# 1 0.027208 -0.004734 -0.003126 0.000000 0.000000 0.000000
# 2 -0.004734 0.010040 0.000745 0.000000 0.000000 0.000000
# 3 -0.003126 0.000745 0.013989 0.000000 0.000000 0.000000
# 4 0.000000 0.000000 0.000000 0.035514 0.000000 0.000000
# 5 0.000000 0.000000 0.000000 0.000000 0.034467 0.000000
# 6 0.000000 0.000000 0.000000 0.000000 0.000000 0.038197
#
#
# Mechanical properties :
#
#
# Convention : Reuss Voigt Hill
#
# Bulk Modulus (GPa) = 27.02196 30.37539 28.69868
# Shear Modulus (GPa) = 26.88439 29.84442 28.36440
#
# Velocity S-wave (km/s) = 3.65412 3.85003 3.75335
# Velocity P-wave (km/s) = 5.58787 5.90339 5.74780
#
# Compressibility (1/GPa) = 0.03700694
#
# Stress axis : x y z
#
# Youngs Moduli (GPa) = 36.75388 99.59837 71.48438
#
# Poissons Ratio (x) = 0.47145 0.22348
# Poissons Ratio (y) = 0.17397 -0.05323
# Poissons Ratio (z) = 0.11490 -0.07416
#
# Static dielectric constant tensor:
#      x y z
#    x 1.775960 0.000000 0.000000 
#    y 0.000000 1.709640 0.000000 
#    z 0.000000 0.000000 1.785570 
# 
# From -- ./inp_files/19987.got.cif
#   From: 2010.05.17/outbox.cif.g08.bks.cpg/sg22_10_cif.got.tgz:19987.got - 2010.06.03 23:40:54.
