data_PCOD9329364
_publ_section_title
;
Structure prediction by ZEFSAII (Michael W. Deem and Ramdas Pophale) SiO2 
 PCOD9329364
Probable space group: I 2 2 2
;
_chemical_formula_sum "Si O2"
_cell_formula_units_Z 48
_cell_length_a 8.697954
_cell_length_b 10.756612
_cell_length_c 23.939096
_cell_angle_alpha 90.000000
_cell_angle_beta 90.000000
_cell_angle_gamma 90.000000
_cell_volume 2239.754183
_symmetry_space_group_name_H-M "I 2 2 2"
_symmetry_group_IT_number 23
_symmetry_cell_setting 'orthorhombic'
loop_
_space_group_symop_operation_xyz
x,y,z
-x,-y,z
x,-y,-z
-x,y,-z
1/2+x,1/2+y,1/2+z
1/2-x,1/2-y,1/2+z
1/2+x,1/2-y,1/2-z
1/2-x,1/2+y,1/2-z
loop_
_atom_site_type_symbol
_atom_site_label
_atom_site_fract_x
_atom_site_fract_y
_atom_site_fract_z
Si Si1 0.421961 0.133014 0.689674
Si Si2 0.374956 0.242029 0.217899
Si Si3 0.728169 0.357750 0.521989
Si Si4 0.169289 0.980408 0.816340
Si Si5 0.414154 0.866596 0.128186
Si Si6 0.589999 0.295850 0.415392
O O1 0.518277 0.227909 0.728461
O O2 0.245652 0.146531 0.710486
O O3 0.427096 0.180623 0.626156
O O4 0.500000 0.000000 0.695370
O O5 0.272927 0.115340 0.217931
O O6 0.480632 0.227704 0.162677
O O7 0.736175 0.500000 0.500000
O O8 0.862110 0.331301 0.566159
O O9 0.711916 0.279213 0.465222
O O10 0.570032 0.334009 0.555886
O O11 0.142968 0.907347 0.875111
O O12 0.264526 0.102050 0.833953
O O13 0.000000 0.000000 0.792473
O O14 0.500000 0.000000 0.125216
#
# Coordination Sequence:
#
# PCOD9329364 Si02
#       6
#     8   8   8   8   8   8
#     4  11  25  47  66  93 138 178 230 286 346 419
#     4  10  25  39  65  95 127 178 225 281 350 410
#     4  11  19  34  61  98 143 178 221 282 337 383
#     4  10  16  33  59  94 134 165 212 269 340 405
#     4  10  20  34  57  98 141 172 214 274 349 401
#     4  10  20  33  59  96 130 181 226 264 332 406
#
# _framework density 21.430921999999999
#
# number of rings (size 3 to 8) (size 9 to 14) (size 15 to 20)
#    0.000    1.667    3.333    2.500    2.333    3.000 
#    0.000    1.667    0.000    0.000    0.000    0.000 
#   10.000    0.000    0.000    0.000    0.000    0.000 
#
# Total GULP energy -134149.446240 kJ/mol
# GULP energy per Si atom -5589.560260 kJ/mol
# Density = 2.138214 g / cm^3
# Si number density = 21.430922 Si / 1000 Ang^3
#
#
#
# Elastic Constant Matrix: (Units=GPa)
#
#
# Indices 1 2 3 4 5 6 
#
# 1 119.0559 34.8967 48.3351 0.0000 0.0000 0.0000
# 2 34.8967 70.9445 39.1959 0.0000 0.0000 0.0000
# 3 48.3351 39.1959 132.3499 0.0000 0.0000 0.0000
# 4 0.0000 0.0000 0.0000 29.6534 0.0000 0.0000
# 5 0.0000 0.0000 0.0000 0.0000 54.5709 0.0000
# 6 0.0000 0.0000 0.0000 0.0000 0.0000 32.9516
#
#
#
# Elastic Compliance Matrix: (Units=1/GPa)
#
#
# Indices 1 2 3 4 5 6 
#
# 1 0.010608 -0.003680 -0.002785 0.000000 0.000000 0.000000
# 2 -0.003680 0.018129 -0.004025 0.000000 0.000000 0.000000
# 3 -0.002785 -0.004025 0.009765 0.000000 0.000000 0.000000
# 4 0.000000 0.000000 0.000000 0.033723 0.000000 0.000000
# 5 0.000000 0.000000 0.000000 0.000000 0.018325 0.000000
# 6 0.000000 0.000000 0.000000 0.000000 0.000000 0.030348
#
#
# Mechanical properties :
#
#
# Convention : Reuss Voigt Hill
#
# Bulk Modulus (GPa) = 57.06575 63.02285 60.04430
# Shear Modulus (GPa) = 33.84826 36.76336 35.30581
#
# Velocity S-wave (km/s) = 3.97849 4.14627 4.06325
# Velocity P-wave (km/s) = 6.91304 7.23833 7.07755
#
# Compressibility (1/GPa) = 0.01752365
#
# Stress axis : x y z
#
# Youngs Moduli (GPa) = 94.26429 55.15891 102.40932
#
# Poissons Ratio (x) = 0.20297 0.28516
# Poissons Ratio (y) = 0.34687 0.41222
# Poissons Ratio (z) = 0.26248 0.22203
#
# Static dielectric constant tensor:
#      x y z
#    x 1.865860 0.000000 0.000000 
#    y 0.000000 1.787240 0.000000 
#    z 0.000000 0.000000 1.807550 
# 
# From -- ./inp_files/27974.got.cif
#   From: 2010.05.17/outbox.cif.g08.bks.cpg/sg23_14_cif.got.tgz:27974.got - 2010.06.04 12:02:01.
