data_PCOD9329740
_publ_section_title
;
Structure prediction by ZEFSAII (Michael W. Deem and Ramdas Pophale) SiO2 
 PCOD9329740
Probable space group: I 2 2 2
;
_chemical_formula_sum "Si O2"
_cell_formula_units_Z 56
_cell_length_a 8.745484
_cell_length_b 11.993988
_cell_length_c 29.975522
_cell_angle_alpha 90.000000
_cell_angle_beta 90.000000
_cell_angle_gamma 90.000000
_cell_volume 3144.229328
_symmetry_space_group_name_H-M "I 2 2 2"
_symmetry_group_IT_number 23
_symmetry_cell_setting 'orthorhombic'
loop_
_space_group_symop_operation_xyz
x,y,z
-x,-y,z
x,-y,-z
-x,y,-z
1/2+x,1/2+y,1/2+z
1/2-x,1/2-y,1/2+z
1/2+x,1/2-y,1/2-z
1/2-x,1/2+y,1/2-z
loop_
_atom_site_type_symbol
_atom_site_label
_atom_site_fract_x
_atom_site_fract_y
_atom_site_fract_z
Si Si1 0.198798 0.895253 0.899205
Si Si2 0.282941 0.733660 0.160716
Si Si3 0.428553 0.606728 0.718083
Si Si4 0.347444 0.654090 0.580616
Si Si5 0.272565 0.415040 0.763375
Si Si6 0.828985 0.366059 0.492756
Si Si7 0.924619 0.621735 0.680285
O O1 0.287608 0.845981 0.941639
O O2 0.280279 0.865781 0.852863
O O3 0.026227 0.853391 0.907231
O O4 0.208657 0.029956 0.904788
O O5 0.163631 0.810771 0.188207
O O6 0.235335 0.752352 0.110084
O O7 0.263257 0.615558 0.185109
O O8 0.449337 0.786332 0.168947
O O9 0.500000 0.500000 0.691074
O O10 0.314865 0.543026 0.752241
O O11 0.576216 0.649056 0.744399
O O12 0.297303 0.670491 0.529244
O O13 0.134943 0.378914 0.731284
O O14 0.833758 0.500000 0.500000
O O15 0.000000 0.322198 0.500000
O O16 0.000000 0.500000 0.672152
#
# Coordination Sequence:
#
# PCOD9329740 Si02
#       7
#     8   8   8   8   8   8   8
#     4  10  19  29  43  59  91 122 158 192 240 278
#     4  12  19  29  48  65  88 122 165 195 235 284
#     4   8  18  34  43  59  91 120 153 193 246 278
#     4  10  19  28  43  62  88 124 156 194 232 286
#     4   9  20  32  45  64  89 122 158 196 244 279
#     4   9  17  28  42  62  86 116 159 198 226 271
#     4  12  19  29  45  67  85 118 163 204 230 278
#
# _framework density 17.810406
#
# number of rings (size 3 to 8) (size 9 to 14) (size 15 to 20)
#    0.857    1.000    2.857    3.000    4.000    1.714 
#    0.000    0.000    0.000    0.000    0.000    0.000 
#    0.000    0.000    0.000   39.857   14.000    1.000 
#
# Total GULP energy -155903.277869 kJ/mol
# GULP energy per Si atom -5567.974210 kJ/mol
# Density = 1.776987 g / cm^3
# Si number density = 17.810406 Si / 1000 Ang^3
#
#
#
# Elastic Constant Matrix: (Units=GPa)
#
#
# Indices 1 2 3 4 5 6 
#
# 1 65.4287 -6.0777 18.8887 0.0000 0.0000 0.0000
# 2 -6.0777 8.8362 4.1910 0.0000 0.0000 0.0000
# 3 18.8887 4.1910 76.7043 0.0000 0.0000 0.0000
# 4 0.0000 0.0000 0.0000 20.7582 0.0000 0.0000
# 5 0.0000 0.0000 0.0000 0.0000 19.6540 0.0000
# 6 0.0000 0.0000 0.0000 0.0000 0.0000 6.1615
#
#
#
# Elastic Compliance Matrix: (Units=1/GPa)
#
#
# Indices 1 2 3 4 5 6 
#
# 1 0.018213 0.015045 -0.005307 0.000000 0.000000 0.000000
# 2 0.015045 0.128609 -0.010732 0.000000 0.000000 0.000000
# 3 -0.005307 -0.010732 0.014930 0.000000 0.000000 0.000000
# 4 0.000000 0.000000 0.000000 0.048174 0.000000 0.000000
# 5 0.000000 0.000000 0.000000 0.000000 0.050880 0.000000
# 6 0.000000 0.000000 0.000000 0.000000 0.000000 0.162299
#
#
# Mechanical properties :
#
#
# Convention : Reuss Voigt Hill
#
# Bulk Modulus (GPa) = 6.25923 20.55258 13.40591
# Shear Modulus (GPa) = 10.45263 18.24588 14.34926
#
# Velocity S-wave (km/s) = 2.42520 3.20418 2.84151
# Velocity P-wave (km/s) = 3.37107 5.02531 4.27889
#
# Compressibility (1/GPa) = 0.15976395
#
# Stress axis : x y z
#
# Youngs Moduli (GPa) = 54.90456 7.77553 66.97776
#
# Poissons Ratio (x) = -0.11698 0.35546
# Poissons Ratio (y) = -0.82602 0.71879
# Poissons Ratio (z) = 0.29139 0.08344
#
# Static dielectric constant tensor:
#      x y z
#    x 1.659460 0.000000 0.000000 
#    y 0.000000 1.624380 0.000000 
#    z 0.000000 0.000000 1.648930 
# 
# From -- ./inp_files/30374.got.cif
#   From: 2010.05.17/outbox.cif.g08.bks.cpg/sg23_16_cif.got.tgz:30374.got - 2010.06.04 12:02:01.
