data_PCOD9329619
_publ_section_title
;
Structure prediction by ZEFSAII (Michael W. Deem and Ramdas Pophale) SiO2 
 PCOD9329619
Probable space group: I 2 2 2
;
_chemical_formula_sum "Si O2"
_cell_formula_units_Z 48
_cell_length_a 10.138831
_cell_length_b 15.042849
_cell_length_c 17.536758
_cell_angle_alpha 90.000000
_cell_angle_beta 90.000000
_cell_angle_gamma 90.000000
_cell_volume 2674.652032
_symmetry_space_group_name_H-M "I 2 2 2"
_symmetry_group_IT_number 23
_symmetry_cell_setting 'orthorhombic'
loop_
_space_group_symop_operation_xyz
x,y,z
-x,-y,z
x,-y,-z
-x,y,-z
1/2+x,1/2+y,1/2+z
1/2-x,1/2-y,1/2+z
1/2+x,1/2-y,1/2-z
1/2-x,1/2+y,1/2-z
loop_
_atom_site_type_symbol
_atom_site_label
_atom_site_fract_x
_atom_site_fract_y
_atom_site_fract_z
Si Si1 0.267503 0.348690 0.302620
Si Si2 0.520382 0.898740 0.183658
Si Si3 0.525281 0.268528 0.586022
Si Si4 0.595259 0.077596 0.636451
Si Si5 0.778644 0.190887 0.812431
Si Si6 0.148257 0.975755 0.710712
O O1 0.116179 0.349000 0.329980
O O2 0.371127 0.329955 0.369055
O O3 0.275448 0.268982 0.241665
O O4 0.296675 0.442238 0.261245
O O5 0.548359 0.901703 0.275660
O O6 0.650444 0.854019 0.149735
O O7 0.500000 0.000000 0.158881
O O8 0.500000 0.296581 0.500000
O O9 0.581122 0.168279 0.590645
O O10 0.387198 0.271427 0.630959
O O11 0.744487 0.042815 0.645097
O O12 0.500000 0.000000 0.607670
O O13 0.847958 0.113665 0.761909
O O14 0.000000 0.000000 0.687195
#
# Coordination Sequence:
#
# PCOD9329619 Si02
#       6
#     8   8   8   8   8   8
#     4  12  19  36  59  87 121 156 204 259 298 371
#     4  10  18  33  61  86 109 146 208 259 293 342
#     4  12  25  38  57  92 130 164 198 255 335 379
#     4  10  18  37  58  89 118 153 206 261 298 360
#     4  11  20  36  59  87 119 156 206 254 303 366
#     4  11  20  31  59  93 119 148 210 260 300 348
#
# _framework density 17.946261
#
# number of rings (size 3 to 8) (size 9 to 14) (size 15 to 20)
#    0.000    1.000   11.667    0.000    0.000    0.333 
#    0.000    2.500    0.000    1.000    0.000    4.667 
#    0.000    0.000    0.000    0.000    0.000    0.000 
#
# Total GULP energy -133942.408722 kJ/mol
# GULP energy per Si atom -5580.933697 kJ/mol
# Density = 1.790541 g / cm^3
# Si number density = 17.946261 Si / 1000 Ang^3
#
#
#
# Elastic Constant Matrix: (Units=GPa)
#
#
# Indices 1 2 3 4 5 6 
#
# 1 141.6487 6.4835 27.1746 0.0000 0.0000 0.0000
# 2 6.4835 76.2401 14.0253 0.0000 0.0000 0.0000
# 3 27.1746 14.0253 46.9462 0.0000 0.0000 0.0000
# 4 0.0000 0.0000 0.0000 10.7062 0.0000 0.0000
# 5 0.0000 0.0000 0.0000 0.0000 13.1627 0.0000
# 6 0.0000 0.0000 0.0000 0.0000 0.0000 37.8764
#
#
#
# Elastic Compliance Matrix: (Units=1/GPa)
#
#
# Indices 1 2 3 4 5 6 
#
# 1 0.007944 0.000180 -0.004652 0.000000 0.000000 0.000000
# 2 0.000180 0.013883 -0.004252 0.000000 0.000000 0.000000
# 3 -0.004652 -0.004252 0.025264 0.000000 0.000000 0.000000
# 4 0.000000 0.000000 0.000000 0.093404 0.000000 0.000000
# 5 0.000000 0.000000 0.000000 0.000000 0.075972 0.000000
# 6 0.000000 0.000000 0.000000 0.000000 0.000000 0.026402
#
#
# Mechanical properties :
#
#
# Convention : Reuss Voigt Hill
#
# Bulk Modulus (GPa) = 33.73412 40.02243 36.87827
# Shear Modulus (GPa) = 18.50491 26.82584 22.66538
#
# Velocity S-wave (km/s) = 3.21460 3.87044 3.55767
# Velocity P-wave (km/s) = 5.71107 6.50565 6.12127
#
# Compressibility (1/GPa) = 0.02964358
#
# Stress axis : x y z
#
# Youngs Moduli (GPa) = 125.88175 72.02879 39.58174
#
# Poissons Ratio (x) = -0.01298 0.18414
# Poissons Ratio (y) = -0.02269 0.16830
# Poissons Ratio (z) = 0.58562 0.30627
#
# Static dielectric constant tensor:
#      x y z
#    x 1.646460 0.000000 0.000000 
#    y 0.000000 1.637610 0.000000 
#    z 0.000000 0.000000 1.582270 
# 
# From -- ./inp_files/11059.got.cif
#   From: 2010.05.17/outbox.cif.g08.bks.cpg/sg23_6_cif.got.tgz:11059.got - 2010.06.04 12:02:01.
