data_PCOD9329573
_publ_section_title
;
Structure prediction by ZEFSAII (Michael W. Deem and Ramdas Pophale) SiO2 
 PCOD9329573
Probable space group: I 2 2 2
;
_chemical_formula_sum "Si O2"
_cell_formula_units_Z 30
_cell_length_a 11.164049
_cell_length_b 14.671616
_cell_length_c 8.454047
_cell_angle_alpha 90.000000
_cell_angle_beta 90.000000
_cell_angle_gamma 90.000000
_cell_volume 1384.727584
_symmetry_space_group_name_H-M "I 2 2 2"
_symmetry_group_IT_number 23
_symmetry_cell_setting 'orthorhombic'
loop_
_space_group_symop_operation_xyz
x,y,z
-x,-y,z
x,-y,-z
-x,y,-z
1/2+x,1/2+y,1/2+z
1/2-x,1/2-y,1/2+z
1/2+x,1/2-y,1/2-z
1/2-x,1/2+y,1/2-z
loop_
_atom_site_type_symbol
_atom_site_label
_atom_site_fract_x
_atom_site_fract_y
_atom_site_fract_z
Si Si1 0.000000 0.167474 0.000000
Si Si2 0.163843 0.340666 0.938781
Si Si3 0.565934 0.132554 0.245580
Si Si4 0.567799 0.655447 0.838844
Si Si5 0.000000 0.500000 0.500000
O O1 0.887480 0.236865 0.036714
O O2 0.025203 0.118692 0.167116
O O3 0.290670 0.354722 0.861428
O O4 0.059739 0.386946 0.835444
O O5 0.164634 0.375152 0.118815
O O6 0.552669 0.234825 0.180790
O O7 0.581855 0.064291 0.104928
O O8 0.500000 0.626210 0.000000
#
# Coordination Sequence:
#
# PCOD9329573 Si02
#       5
#     4   8   8   8   2
#     4   8  20  26  44  79 106 149 168 210 268 346
#     4   8  18  35  48  75 115 142 177 227 281 333
#     4   9  21  32  52  81 108 150 176 227 275 330
#     4  10  18  32  53  80 115 144 171 228 288 331
#     4  12  20  34  52  84 110 142 200 218 272 340
#
# _framework density 21.664911
#
# number of rings (size 3 to 8) (size 9 to 14) (size 15 to 20)
#    0.000    3.733    1.333    0.000   14.933    2.133 
#    0.000    0.000    0.000    0.000    0.000    5.600 
#    0.000    0.000    0.000    0.000    0.000    0.000 
#
# Total GULP energy -83580.346823 kJ/mol
# GULP energy per Si atom -5572.023122 kJ/mol
# Density = 2.161560 g / cm^3
# Si number density = 21.664911 Si / 1000 Ang^3
#
#
#
# Elastic Constant Matrix: (Units=GPa)
#
#
# Indices 1 2 3 4 5 6 
#
# 1 86.8482 -11.7151 51.9763 0.0000 0.0000 0.0000
# 2 -11.7151 22.7630 14.2842 0.0000 0.0000 0.0000
# 3 51.9763 14.2842 182.6632 0.0000 0.0000 0.0000
# 4 0.0000 0.0000 0.0000 8.9167 0.0000 0.0000
# 5 0.0000 0.0000 0.0000 0.0000 28.3309 0.0000
# 6 0.0000 0.0000 0.0000 0.0000 0.0000 -1.5991
#
#
#
# Elastic Compliance Matrix: (Units=1/GPa)
#
#
# Indices 1 2 3 4 5 6 
#
# 1 0.016514 0.012038 -0.005640 0.000000 0.000000 0.000000
# 2 0.012038 0.054974 -0.007724 0.000000 0.000000 0.000000
# 3 -0.005640 -0.007724 0.007684 0.000000 0.000000 0.000000
# 4 0.000000 0.000000 0.000000 0.112149 0.000000 0.000000
# 5 0.000000 0.000000 0.000000 0.000000 0.035297 0.000000
# 6 0.000000 0.000000 0.000000 0.000000 0.000000 -0.625369
#
#
# Mechanical properties :
#
#
# Convention : Reuss Voigt Hill
#
# Bulk Modulus (GPa) = 13.06873 44.59611 28.83242
# Shear Modulus (GPa) = -13.49191 22.97832 4.74320
#
# Velocity S-wave (km/s) = -2.49821 3.26025 1.48125
# Velocity P-wave (km/s) = 1.50868 5.89928 4.03270
#
# Compressibility (1/GPa) = 0.07651851
#
# Stress axis : x y z
#
# Youngs Moduli (GPa) = 60.55528 18.19046 130.14813
#
# Poissons Ratio (x) = -0.21898 0.73408
# Poissons Ratio (y) = -0.72899 1.00532
# Poissons Ratio (z) = 0.34155 0.14051
#
# Static dielectric constant tensor:
#      x y z
#    x 1.780090 0.000000 0.000000 
#    y 0.000000 1.834100 0.000000 
#    z 0.000000 0.000000 1.858640 
# 
# From -- ./inp_files/6648.got.cif
#   From: 2010.05.17/outbox.cif.g08.bks.cpg/sg23_4_cif.got.tgz:6648.got - 2010.06.04 12:02:01.
