data_PCOD9329559
_publ_section_title
;
Structure prediction by ZEFSAII (Michael W. Deem and Ramdas Pophale) SiO2 
 PCOD9329559
Probable space group: I 2 2 2
;
_chemical_formula_sum "Si O2"
_cell_formula_units_Z 48
_cell_length_a 5.405948
_cell_length_b 23.547564
_cell_length_c 17.880373
_cell_angle_alpha 90.000000
_cell_angle_beta 90.000000
_cell_angle_gamma 90.000000
_cell_volume 2276.116170
_symmetry_space_group_name_H-M "I 2 2 2"
_symmetry_group_IT_number 23
_symmetry_cell_setting 'orthorhombic'
loop_
_space_group_symop_operation_xyz
x,y,z
-x,-y,z
x,-y,-z
-x,y,-z
1/2+x,1/2+y,1/2+z
1/2-x,1/2-y,1/2+z
1/2+x,1/2-y,1/2-z
1/2-x,1/2+y,1/2-z
loop_
_atom_site_type_symbol
_atom_site_label
_atom_site_fract_x
_atom_site_fract_y
_atom_site_fract_z
Si Si1 0.000000 0.500000 0.668985
Si Si2 0.261163 0.732761 0.293527
Si Si3 0.250572 0.074338 0.543845
Si Si4 0.407634 0.384577 0.757778
Si Si5 0.249572 0.788563 0.455552
Si Si6 0.000000 0.000000 0.834385
Si Si7 0.909086 0.587365 0.197102
O O1 0.246866 0.501634 0.621684
O O2 0.038636 0.551612 0.727875
O O3 0.501196 0.756028 0.248535
O O4 0.307848 0.664754 0.295249
O O5 0.252439 0.758707 0.375648
O O6 0.500000 0.060391 0.500000
O O7 0.247930 0.142885 0.552517
O O8 0.292503 0.052062 0.628342
O O9 0.000000 0.059334 0.500000
O O10 0.456362 0.445138 0.718464
O O11 0.684285 0.369606 0.785450
O O12 0.187014 0.389774 0.819811
O O13 0.500000 0.773870 0.500000
O O14 0.000000 0.773147 0.500000
#
# Coordination Sequence:
#
# PCOD9329559 Si02
#       7
#     4   8   8   8   8   4   8
#     4   8  16  28  47  66  90 124 157 200 260 310
#     4  12  23  35  55  85 114 141 182 237 284 324
#     4  10  19  30  45  63  86 126 173 205 239 299
#     4  10  19  32  52  75 101 129 165 215 271 320
#     4  10  21  36  51  71 106 147 178 208 264 337
#     4   8  16  30  48  72  96 126 162 200 256 322
#     4  10  18  32  49  69  96 128 165 214 266 312
#
# _framework density 21.088553999999998
#
# number of rings (size 3 to 8) (size 9 to 14) (size 15 to 20)
#    0.000    2.000    0.000    5.000    0.000    2.667 
#    0.000    0.417    0.000    1.000    0.000    0.583 
#    0.000    1.333    0.000    0.000    0.000    0.000 
#
# Total GULP energy -133722.960054 kJ/mol
# GULP energy per Si atom -5571.790002 kJ/mol
# Density = 2.104056 g / cm^3
# Si number density = 21.088554 Si / 1000 Ang^3
#
#
#
# Elastic Constant Matrix: (Units=GPa)
#
#
# Indices 1 2 3 4 5 6 
#
# 1 243.1302 29.0037 43.5024 0.0000 0.0000 0.0000
# 2 29.0037 104.4534 41.9440 0.0000 0.0000 0.0000
# 3 43.5024 41.9440 74.9813 0.0000 -0.0001 0.0000
# 4 0.0000 0.0000 0.0000 5.3742 -0.0001 0.0000
# 5 0.0000 0.0000 -0.0001 -0.0001 183.3270 0.0000
# 6 0.0000 0.0000 0.0000 0.0000 0.0000 28.8686
#
#
#
# Elastic Compliance Matrix: (Units=1/GPa)
#
#
# Indices 1 2 3 4 5 6 
#
# 1 0.004595 -0.000265 -0.002518 0.000000 0.000000 0.000000
# 2 -0.000265 0.012362 -0.006762 0.000000 0.000000 0.000000
# 3 -0.002518 -0.006762 0.018580 0.000000 0.000000 0.000000
# 4 0.000000 0.000000 0.000000 0.186074 0.000000 0.000000
# 5 0.000000 0.000000 0.000000 0.000000 0.005455 0.000000
# 6 0.000000 0.000000 0.000000 0.000000 0.000000 0.034640
#
#
# Mechanical properties :
#
#
# Convention : Reuss Voigt Hill
#
# Bulk Modulus (GPa) = 60.79569 72.38501 66.59035
# Shear Modulus (GPa) = 17.46557 64.05496 40.76026
#
# Velocity S-wave (km/s) = 2.88097 5.51727 4.40115
# Velocity P-wave (km/s) = 6.32123 8.65943 7.58102
#
# Compressibility (1/GPa) = 0.01644853
#
# Stress axis : x y z
#
# Youngs Moduli (GPa) = 217.62199 80.89013 53.82156
#
# Poissons Ratio (x) = 0.02143 0.13551
# Poissons Ratio (y) = 0.05765 0.36393
# Poissons Ratio (z) = 0.54793 0.54696
#
# Static dielectric constant tensor:
#      x y z
#    x 1.205160 0.000000 0.000000 
#    y 0.000000 -8.245650 0.000000 
#    z 0.000000 0.000000 1.713050 
# 
# From -- ./inp_files/19254.got.cif
#   From: 2010.05.17/outbox.cif.g08.bks.cpg/sg23_10_cif.got.tgz:19254.got - 2010.06.04 12:02:01.
