data_PCOD9329079
_publ_section_title
;
Structure prediction by ZEFSAII (Michael W. Deem and Ramdas Pophale) SiO2 
 PCOD9329079
Probable space group: F 2 2 2
;
_chemical_formula_sum "Si O2"
_cell_formula_units_Z 88
_cell_length_a 11.118525
_cell_length_b 10.396583
_cell_length_c 30.295437
_cell_angle_alpha 90.000000
_cell_angle_beta 90.000000
_cell_angle_gamma 90.000000
_cell_volume 3501.990982
_symmetry_space_group_name_H-M "F 2 2 2"
_symmetry_group_IT_number 22
_symmetry_cell_setting 'orthorhombic'
loop_
_space_group_symop_operation_xyz
x,y,z
-x,-y,z
x,-y,-z
-x,y,-z
x,1/2+y,1/2+z
-x,1/2-y,1/2+z
x,1/2-y,1/2-z
-x,1/2+y,1/2-z
1/2+x,y,1/2+z
1/2-x,-y,1/2+z
1/2+x,-y,1/2-z
1/2-x,y,1/2-z
1/2+x,1/2+y,z
1/2-x,1/2-y,z
1/2+x,1/2-y,-z
1/2-x,1/2+y,-z
loop_
_atom_site_type_symbol
_atom_site_label
_atom_site_fract_x
_atom_site_fract_y
_atom_site_fract_z
Si Si1 0.364602 0.963814 0.360916
Si Si2 0.982599 0.649335 0.930902
Si Si3 0.000000 0.825978 0.000000
Si Si4 0.765369 0.079916 0.043070
Si Si5 0.542741 0.305718 0.328129
Si Si6 0.687178 0.438079 0.702788
O O1 0.287661 0.960845 0.405844
O O2 0.385531 0.830425 0.332320
O O3 0.297047 0.068775 0.331471
O O4 0.500000 0.000000 0.372628
O O5 0.846743 0.674651 0.947690
O O6 0.992060 0.672920 0.879392
O O7 0.000000 0.500000 0.938599
O O8 0.062563 0.737786 0.962158
O O9 0.098942 0.899644 0.027110
O O10 0.719524 0.000000 0.000000
O O11 0.625688 0.423653 0.310553
O O12 0.417856 0.331317 0.301883
O O13 0.750000 0.440588 0.750000
#
# Coordination Sequence:
#
# PCOD9329079 Si02
#       6
#    16  16   8  16  16  16
#     4  12  26  46  76 110 158 210 257 324 408 465
#     4  12  23  44  68 103 145 202 260 319 381 461
#     4  12  24  36  68 104 142 200 258 304 378 440
#     4  12  25  44  66 105 155 203 263 318 374 471
#     4  11  24  49  81 109 153 201 260 322 401 495
#     4  11  26  50  81 115 147 193 263 334 409 487
#
# _framework density 25.128561000000001
#
# number of rings (size 3 to 8) (size 9 to 14) (size 15 to 20)
#    0.000    0.364    5.455    3.818    2.545    2.182 
#    0.000    2.727    0.000    0.000    0.000    0.000 
#    0.000    0.000    0.000    0.000    0.000    0.000 
#
# Total GULP energy -122704.068153 kJ/mol
# GULP energy per Si atom -5577.457643 kJ/mol
# Density = 2.507137 g / cm^3
# Si number density = 25.128561 Si / 1000 Ang^3
#
#
#
# Elastic Constant Matrix: (Units=GPa)
#
#
# Indices 1 2 3 4 5 6 
#
# 1 83.7559 4.8245 45.8480 0.0000 0.0000 0.0000
# 2 4.8245 61.4778 7.2657 0.0000 0.0000 0.0000
# 3 45.8480 7.2657 190.3323 0.0000 0.0000 0.0000
# 4 0.0000 0.0000 0.0000 11.9036 0.0000 0.0000
# 5 0.0000 0.0000 0.0000 0.0000 52.9244 0.0000
# 6 0.0000 0.0000 0.0000 0.0000 0.0000 -1.4870
#
#
#
# Elastic Compliance Matrix: (Units=1/GPa)
#
#
# Indices 1 2 3 4 5 6 
#
# 1 0.013782 -0.000692 -0.003293 0.000000 0.000000 0.000000
# 2 -0.000692 0.016375 -0.000458 0.000000 0.000000 0.000000
# 3 -0.003293 -0.000458 0.006065 0.000000 0.000000 0.000000
# 4 0.000000 0.000000 0.000000 0.084008 0.000000 0.000000
# 5 0.000000 0.000000 0.000000 0.000000 0.018895 0.000000
# 6 0.000000 0.000000 0.000000 0.000000 0.000000 -0.672503
#
#
# Mechanical properties :
#
#
# Convention : Reuss Voigt Hill
#
# Bulk Modulus (GPa) = 36.58541 50.16027 43.37284
# Shear Modulus (GPa) = -9.70161 31.17671 10.73755
#
# Velocity S-wave (km/s) = -1.96702 3.52616 2.06938
# Velocity P-wave (km/s) = 3.07116 6.04841 4.79663
#
# Compressibility (1/GPa) = 0.02733330
#
# Stress axis : x y z
#
# Youngs Moduli (GPa) = 72.55739 61.07043 164.88561
#
# Poissons Ratio (x) = 0.04228 0.54305
# Poissons Ratio (y) = 0.05023 0.07557
# Poissons Ratio (z) = 0.23897 0.02799
#
# Static dielectric constant tensor:
#      x y z
#    x 2.201170 0.000000 0.000000 
#    y 0.000000 0.085680 0.000000 
#    z 0.000000 0.000000 1.904960 
# 
# From -- ./inp_files/18426.got.cif
#   From: 2010.05.17/outbox.cif.g08.bks.cpg/sg22_10_cif.got.tgz:18426.got - 2010.06.03 23:40:54.
