data_PCOD9329270
_publ_section_title
;
Structure prediction by ZEFSAII (Michael W. Deem and Ramdas Pophale) SiO2 
 PCOD9329270
Probable space group: F 2 2 2
;
_chemical_formula_sum "Si O2"
_cell_formula_units_Z 36
_cell_length_a 14.257361
_cell_length_b 4.803143
_cell_length_c 19.835864
_cell_angle_alpha 90.000000
_cell_angle_beta 90.000000
_cell_angle_gamma 90.000000
_cell_volume 1358.362817
_symmetry_space_group_name_H-M "F 2 2 2"
_symmetry_group_IT_number 22
_symmetry_cell_setting 'orthorhombic'
loop_
_space_group_symop_operation_xyz
x,y,z
-x,-y,z
x,-y,-z
-x,y,-z
x,1/2+y,1/2+z
-x,1/2-y,1/2+z
x,1/2-y,1/2-z
-x,1/2+y,1/2-z
1/2+x,y,1/2+z
1/2-x,-y,1/2+z
1/2+x,-y,1/2-z
1/2-x,y,1/2-z
1/2+x,1/2+y,z
1/2-x,1/2-y,z
1/2+x,1/2-y,-z
1/2-x,1/2+y,-z
loop_
_atom_site_type_symbol
_atom_site_label
_atom_site_fract_x
_atom_site_fract_y
_atom_site_fract_z
Si Si1 0.846959 0.685417 0.411224
Si Si2 0.500000 0.000000 0.000000
Si Si3 0.102678 0.853447 0.324885
O O1 0.750000 0.750000 0.450299
O O2 0.878334 0.391384 0.379381
O O3 0.833815 0.895876 0.348648
O O4 0.931552 0.806348 0.455911
O O5 0.120567 0.750000 0.250000
O O6 0.000000 0.000000 0.324155
#
# Coordination Sequence:
#
# PCOD9329270 Si02
#       3
#    16   4  16
#     4  12  29  52  83 122 162 224 278 340 416 491
#     4  12  32  58  82 110 178 220 278 342 398 486
#     4  12  26  50  83 122 167 212 268 343 426 494
#
# _framework density 26.502493000000001
#
# number of rings (size 3 to 8) (size 9 to 14) (size 15 to 20)
#    0.000    0.000    2.222    6.667    0.000   12.444 
#    0.000    0.000    0.000    0.000    0.000    0.000 
#    0.000    0.000    0.000    0.000    0.000    0.000 
#
# Total GULP energy -50406.997510 kJ/mol
# GULP energy per Si atom -5600.777501 kJ/mol
# Density = 2.644217 g / cm^3
# Si number density = 26.502493 Si / 1000 Ang^3
#
#
#
# Elastic Constant Matrix: (Units=GPa)
#
#
# Indices 1 2 3 4 5 6 
#
# 1 206.2804 84.3699 61.6102 0.0000 0.0000 -0.0005
# 2 84.3699 211.3421 48.7045 0.0001 0.0000 -0.0020
# 3 61.6102 48.7045 103.2933 -0.0001 0.0000 -0.0005
# 4 0.0000 0.0001 -0.0001 61.4969 0.0000 -0.0001
# 5 0.0000 0.0000 0.0000 0.0000 8.0021 0.0001
# 6 -0.0005 -0.0020 -0.0005 -0.0001 0.0001 40.9931
#
#
#
# Elastic Compliance Matrix: (Units=1/GPa)
#
#
# Indices 1 2 3 4 5 6 
#
# 1 0.006524 -0.001916 -0.002988 0.000000 0.000000 0.000000
# 2 -0.001916 0.005871 -0.001626 0.000000 0.000000 0.000000
# 3 -0.002988 -0.001626 0.012230 0.000000 0.000000 0.000000
# 4 0.000000 0.000000 0.000000 0.016261 0.000000 0.000000
# 5 0.000000 0.000000 0.000000 0.000000 0.124968 0.000000
# 6 0.000000 0.000000 0.000000 0.000000 0.000000 0.024394
#
#
# Mechanical properties :
#
#
# Convention : Reuss Voigt Hill
#
# Bulk Modulus (GPa) = 86.45919 101.14280 93.80099
# Shear Modulus (GPa) = 24.13576 43.84716 33.99146
#
# Velocity S-wave (km/s) = 3.02105 4.07191 3.58519
# Velocity P-wave (km/s) = 6.69797 7.76876 7.25315
#
# Compressibility (1/GPa) = 0.01156615
#
# Stress axis : x y z
#
# Youngs Moduli (GPa) = 153.28699 170.32588 81.76762
#
# Poissons Ratio (x) = 0.32631 0.24431
# Poissons Ratio (y) = 0.29366 0.13292
# Poissons Ratio (z) = 0.45799 0.27689
#
# Static dielectric constant tensor:
#      x y z
#    x 2.448130 0.000000 0.000000 
#    y 0.000000 2.022260 0.000000 
#    z 0.000000 0.000000 2.085760 
# 
# From -- ./inp_files/43089.got.cif
#   From: 2010.05.17/outbox.cif.g08.bks.cpg/sg22_22_cif.got.tgz:43089.got - 2010.06.03 23:40:54.
