data_PCOD9329442
_publ_section_title
;
Structure prediction by ZEFSAII (Michael W. Deem and Ramdas Pophale) SiO2 
 PCOD9329442
Probable space group: I 2 2 2
;
_chemical_formula_sum "Si O2"
_cell_formula_units_Z 52
_cell_length_a 9.705251
_cell_length_b 23.062984
_cell_length_c 9.502108
_cell_angle_alpha 90.000000
_cell_angle_beta 90.000000
_cell_angle_gamma 90.000000
_cell_volume 2126.876299
_symmetry_space_group_name_H-M "I 2 2 2"
_symmetry_group_IT_number 23
_symmetry_cell_setting 'orthorhombic'
loop_
_space_group_symop_operation_xyz
x,y,z
-x,-y,z
x,-y,-z
-x,y,-z
1/2+x,1/2+y,1/2+z
1/2-x,1/2-y,1/2+z
1/2+x,1/2-y,1/2-z
1/2-x,1/2+y,1/2-z
loop_
_atom_site_type_symbol
_atom_site_label
_atom_site_fract_x
_atom_site_fract_y
_atom_site_fract_z
Si Si1 0.767410 0.817789 0.819270
Si Si2 0.654966 0.762132 0.547782
Si Si3 0.604216 0.075434 0.189033
Si Si4 0.426416 0.355282 0.697046
Si Si5 0.292421 0.067086 0.513950
Si Si6 0.203809 0.446121 0.694588
Si Si7 0.000000 0.113240 0.500000
O O1 0.736427 0.803508 0.654966
O O2 0.660802 0.865292 0.873457
O O3 0.913919 0.848683 0.844623
O O4 0.768294 0.758419 0.907037
O O5 0.500000 0.781373 0.500000
O O6 0.640583 0.702169 0.634239
O O7 0.612732 0.086842 0.358539
O O8 0.699999 0.016826 0.178823
O O9 0.550853 0.065969 0.860472
O O10 0.341886 0.412515 0.647924
O O11 0.441737 0.353125 0.866474
O O12 0.307574 0.083061 0.351290
O O13 0.131185 0.075893 0.551924
O O14 0.323883 0.000000 0.500000
#
# Coordination Sequence:
#
# PCOD9329442 Si02
#       7
#     8   8   8   8   8   8   4
#     4  11  24  45  71  95 132 181 237 290 364 418
#     4  10  26  47  68 102 140 180 243 311 359 429
#     4  10  19  36  59  95 134 182 222 274 355 421
#     4  10  22  41  64  97 135 174 228 288 352 422
#     4   9  16  27  49  87 130 170 213 265 328 405
#     4   9  20  34  59  96 140 173 220 282 340 429
#     4  10  17  30  58  94 124 170 216 277 334 404
#
# _framework density 24.448999000000001
#
# number of rings (size 3 to 8) (size 9 to 14) (size 15 to 20)
#    0.000    2.154    1.538    0.692    2.154    6.154 
#    0.000    4.615    0.000    4.615    0.000    0.000 
#    0.000    0.000    0.000    0.000    0.000    0.000 
#
# Total GULP energy -144883.659895 kJ/mol
# GULP energy per Si atom -5572.448457 kJ/mol
# Density = 2.439335 g / cm^3
# Si number density = 24.448999 Si / 1000 Ang^3
#
#
#
# Elastic Constant Matrix: (Units=GPa)
#
#
# Indices 1 2 3 4 5 6 
#
# 1 118.6317 66.0973 23.6655 0.0000 0.0000 0.0000
# 2 66.0973 91.0687 10.6057 0.0000 0.0001 0.0000
# 3 23.6655 10.6057 104.7416 0.0004 0.0006 -0.0001
# 4 0.0000 0.0000 0.0004 20.6599 0.0000 0.0000
# 5 0.0000 0.0001 0.0006 0.0000 31.7040 0.0000
# 6 0.0000 0.0000 -0.0001 0.0000 0.0000 34.5371
#
#
#
# Elastic Compliance Matrix: (Units=1/GPa)
#
#
# Indices 1 2 3 4 5 6 
#
# 1 0.014664 -0.010380 -0.002262 0.000000 0.000000 0.000000
# 2 -0.010380 0.018459 0.000476 0.000000 0.000000 0.000000
# 3 -0.002262 0.000476 0.010010 0.000000 0.000000 0.000000
# 4 0.000000 0.000000 0.000000 0.048403 0.000000 0.000000
# 5 0.000000 0.000000 0.000000 0.000000 0.031542 0.000000
# 6 0.000000 0.000000 0.000000 0.000000 0.000000 0.028954
#
#
# Mechanical properties :
#
#
# Convention : Reuss Voigt Hill
#
# Bulk Modulus (GPa) = 53.18703 57.24212 55.21457
# Shear Modulus (GPa) = 27.37774 31.65177 29.51475
#
# Velocity S-wave (km/s) = 3.34996 3.60196 3.47824
# Velocity P-wave (km/s) = 6.06337 6.38456 6.22603
#
# Compressibility (1/GPa) = 0.01880158
#
# Stress axis : x y z
#
# Youngs Moduli (GPa) = 68.19506 54.17504 99.89797
#
# Poissons Ratio (x) = 0.56231 0.22599
# Poissons Ratio (y) = 0.70783 -0.04756
# Poissons Ratio (z) = 0.15427 -0.02579
#
# Static dielectric constant tensor:
#      x y z
#    x 1.971030 0.000000 0.000000 
#    y 0.000000 1.958590 0.000000 
#    z 0.000000 0.000000 2.576630 
# 
# From -- ./inp_files/8825.got.cif
#   From: 2010.05.17/outbox.cif.g08.bks.cpg/sg23_5_cif.got.tgz:8825.got - 2010.06.04 12:02:01.
