data_PCOD9329722
_publ_section_title
;
Structure prediction by ZEFSAII (Michael W. Deem and Ramdas Pophale) SiO2 
 PCOD9329722
Probable space group: I 2 2 2
;
_chemical_formula_sum "Si O2"
_cell_formula_units_Z 32
_cell_length_a 16.457049
_cell_length_b 5.275619
_cell_length_c 14.853201
_cell_angle_alpha 90.000000
_cell_angle_beta 90.000000
_cell_angle_gamma 90.000000
_cell_volume 1289.571552
_symmetry_space_group_name_H-M "I 2 2 2"
_symmetry_group_IT_number 23
_symmetry_cell_setting 'orthorhombic'
loop_
_space_group_symop_operation_xyz
x,y,z
-x,-y,z
x,-y,-z
-x,y,-z
1/2+x,1/2+y,1/2+z
1/2-x,1/2-y,1/2+z
1/2+x,1/2-y,1/2-z
1/2-x,1/2+y,1/2-z
loop_
_atom_site_type_symbol
_atom_site_label
_atom_site_fract_x
_atom_site_fract_y
_atom_site_fract_z
Si Si1 0.632280 0.550024 0.299637
Si Si2 0.406553 0.425248 0.099120
Si Si3 0.772185 0.612124 0.596871
Si Si4 0.625156 0.941918 0.602674
O O1 0.620485 0.478081 0.196642
O O2 0.727927 0.544479 0.325821
O O3 0.593569 0.327282 0.360450
O O4 0.604123 0.825706 0.332302
O O5 0.500000 0.500000 0.095680
O O6 0.368455 0.141940 0.105667
O O7 0.374003 0.500000 0.000000
O O8 0.750776 0.500000 0.500000
O O9 0.722697 0.878532 0.602670
O O10 0.601969 0.000000 0.500000
#
# Coordination Sequence:
#
# PCOD9329722 Si02
#       4
#     8   8   8   8
#     4  10  23  40  73 106 137 190 242 306 358 430
#     4  11  27  47  67 102 156 203 246 294 369 447
#     4  10  22  39  77 105 140 176 249 300 372 421
#     4  10  18  39  72 112 138 163 233 314 373 419
#
# _framework density 24.814442
#
# number of rings (size 3 to 8) (size 9 to 14) (size 15 to 20)
#    1.500    0.250    2.500    1.500    3.500    2.000 
#    0.000    8.750    0.000    8.250    0.000    0.000 
#    0.000    0.000    0.000    0.000    0.000    0.000 
#
# Total GULP energy -89118.896389 kJ/mol
# GULP energy per Si atom -5569.931024 kJ/mol
# Density = 2.475796 g / cm^3
# Si number density = 24.814442 Si / 1000 Ang^3
#
#
#
# Elastic Constant Matrix: (Units=GPa)
#
#
# Indices 1 2 3 4 5 6 
#
# 1 85.8486 9.5076 17.2055 0.0000 0.0000 0.0000
# 2 9.5076 134.7234 42.2328 0.0000 0.0000 0.0000
# 3 17.2055 42.2328 203.0244 0.0000 0.0000 0.0000
# 4 0.0000 0.0000 0.0000 26.4214 0.0000 0.0000
# 5 0.0000 0.0000 0.0000 0.0000 0.3509 0.0000
# 6 0.0000 0.0000 0.0000 0.0000 0.0000 -0.0254
#
#
#
# Elastic Compliance Matrix: (Units=1/GPa)
#
#
# Indices 1 2 3 4 5 6 
#
# 1 0.011889 -0.000560 -0.000891 0.000000 0.000000 0.000000
# 2 -0.000560 0.007967 -0.001610 0.000000 0.000000 0.000000
# 3 -0.000891 -0.001610 0.005336 0.000000 0.000000 0.000000
# 4 0.000000 0.000000 0.000000 0.037848 0.000000 0.000000
# 5 0.000000 0.000000 0.000000 0.000000 2.850124 0.000000
# 6 0.000000 0.000000 0.000000 0.000000 0.000000-39.409893
#
#
# Mechanical properties :
#
#
# Convention : Reuss Voigt Hill
#
# Bulk Modulus (GPa) = 52.43715 62.38757 57.41236
# Shear Modulus (GPa) = -0.13705 28.99274 14.42785
#
# Velocity S-wave (km/s) = -0.23526 3.42187 2.41390
# Velocity P-wave (km/s) = 4.59389 6.38815 5.56382
#
# Compressibility (1/GPa) = 0.01907045
#
# Stress axis : x y z
#
# Youngs Moduli (GPa) = 84.11146 125.52169 187.40969
#
# Poissons Ratio (x) = 0.07025 0.16700
# Poissons Ratio (y) = 0.04708 0.30169
# Poissons Ratio (z) = 0.07495 0.20206
#
# Static dielectric constant tensor:
#      x y z
#    x 2.114350 0.000000 0.000000 
#    y 0.000000 2.029190 0.000000 
#    z 0.000000 0.000000 1.932650 
# 
# From -- ./inp_files/17750.got.cif
#   From: 2010.05.17/outbox.cif.g08.bks.cpg/sg23_9_cif.got.tgz:17750.got - 2010.06.04 12:02:01.
