data_PCOD9329987
_publ_section_title
;
Structure prediction by ZEFSAII (Michael W. Deem and Ramdas Pophale) SiO2 
 PCOD9329987
Probable space group: I 2 2 2
;
_chemical_formula_sum "Si O2"
_cell_formula_units_Z 60
_cell_length_a 24.447493
_cell_length_b 23.143685
_cell_length_c 5.097530
_cell_angle_alpha 90.000000
_cell_angle_beta 90.000000
_cell_angle_gamma 90.000000
_cell_volume 2884.208354
_symmetry_space_group_name_H-M "I 2 2 2"
_symmetry_group_IT_number 23
_symmetry_cell_setting 'orthorhombic'
loop_
_space_group_symop_operation_xyz
x,y,z
-x,-y,z
x,-y,-z
-x,y,-z
1/2+x,1/2+y,1/2+z
1/2-x,1/2-y,1/2+z
1/2+x,1/2-y,1/2-z
1/2-x,1/2+y,1/2-z
loop_
_atom_site_type_symbol
_atom_site_label
_atom_site_fract_x
_atom_site_fract_y
_atom_site_fract_z
Si Si1 0.783844 0.255573 0.335809
Si Si2 0.796312 0.055812 0.620224
Si Si3 0.131990 0.842151 0.489933
Si Si4 0.849743 0.561795 0.378021
Si Si5 0.191841 0.380030 0.851009
Si Si6 0.935149 0.124022 0.014817
Si Si7 0.525132 0.935467 0.749499
Si Si8 0.885648 0.000000 0.000000
O O1 0.749354 0.274700 0.595110
O O2 0.829717 0.213612 0.458040
O O3 0.804984 0.311722 0.179648
O O4 0.827628 0.102712 0.443135
O O5 0.749368 0.093405 0.755753
O O6 0.844033 0.025190 0.784583
O O7 0.766972 0.000000 0.500000
O O8 0.100269 0.854295 0.763133
O O9 0.087760 0.842021 0.262783
O O10 0.830906 0.500000 0.500000
O O11 0.852565 0.599655 0.641025
O O12 0.910453 0.556258 0.261429
O O13 0.816868 0.593368 0.141765
O O14 0.922282 0.055752 0.064791
O O15 0.000000 0.131433 0.000000
O O16 0.500000 0.904947 0.500000
O O17 0.500000 0.000000 0.749470
O O18 0.500000 0.905019 0.000000
#
# Coordination Sequence:
#
# PCOD9329987 Si02
#       8
#     8   8   8   8   8   8   8   4
#     4  12  25  47  71  96 135 183 246 285 339 418
#     4  11  22  40  61  98 142 179 212 269 351 420
#     4  11  24  42  70  98 132 184 229 289 341 406
#     4  12  24  42  61 101 139 172 215 283 351 418
#     4  12  28  39  65  98 140 184 219 280 351 418
#     4  11  23  42  67 101 133 181 229 286 355 417
#     4  10  19  35  62  86 119 174 223 260 321 409
#     4  10  23  36  60  94 144 174 217 272 330 430
#
# _framework density 20.802934
#
# number of rings (size 3 to 8) (size 9 to 14) (size 15 to 20)
#    0.000    0.800    4.000    4.200    6.533    0.000 
#    0.000    1.333    0.000    8.000    0.000    0.000 
#    0.000    0.000    0.000    0.000    0.000    0.000 
#
# Total GULP energy -167244.145583 kJ/mol
# GULP energy per Si atom -5574.804853 kJ/mol
# Density = 2.075559 g / cm^3
# Si number density = 20.802934 Si / 1000 Ang^3
#
#
#
# Elastic Constant Matrix: (Units=GPa)
#
#
# Indices 1 2 3 4 5 6 
#
# 1 91.3270 40.4606 20.6261 0.0000 0.0000 0.0000
# 2 40.4606 113.5795 31.0641 0.0000 0.0000 0.0000
# 3 20.6261 31.0641 132.9443 0.0000 0.0000 0.0000
# 4 0.0000 0.0000 0.0000 24.9580 0.0000 0.0000
# 5 0.0000 0.0000 0.0000 0.0000 30.9575 0.0000
# 6 0.0000 0.0000 0.0000 0.0000 0.0000 -2.8685
#
#
#
# Elastic Compliance Matrix: (Units=1/GPa)
#
#
# Indices 1 2 3 4 5 6 
#
# 1 0.013127 -0.004400 -0.001008 0.000000 0.000000 0.000000
# 2 -0.004400 0.010881 -0.001860 0.000000 0.000000 0.000000
# 3 -0.001008 -0.001860 0.008113 0.000000 0.000000 0.000000
# 4 0.000000 0.000000 0.000000 0.040067 0.000000 0.000000
# 5 0.000000 0.000000 0.000000 0.000000 0.032302 0.000000
# 6 0.000000 0.000000 0.000000 0.000000 0.000000 -0.348618
#
#
# Mechanical properties :
#
#
# Convention : Reuss Voigt Hill
#
# Bulk Modulus (GPa) = 56.87161 58.01691 57.44426
# Shear Modulus (GPa) = -22.34843 26.98940 2.32048
#
# Velocity S-wave (km/s) = -3.28120 3.60583 1.05730
# Velocity P-wave (km/s) = 3.61146 6.72944 5.40037
#
# Compressibility (1/GPa) = 0.01758347
#
# Stress axis : x y z
#
# Youngs Moduli (GPa) = 76.17925 91.90668 123.25992
#
# Poissons Ratio (x) = 0.40443 0.12430
# Poissons Ratio (y) = 0.33522 0.22922
# Poissons Ratio (z) = 0.07682 0.17092
#
# Static dielectric constant tensor:
#      x y z
#    x 1.785360 0.000000 0.000000 
#    y 0.000000 1.856370 0.000000 
#    z 0.000000 0.000000 1.827200 
# 
# From -- ./inp_files/4544.got.cif
#   From: 2010.05.17/outbox.cif.g08.bks.cpg/sg23_3_cif.got.tgz:4544.got - 2010.06.04 12:02:01.
