data_PCOD9329848
_publ_section_title
;
Structure prediction by ZEFSAII (Michael W. Deem and Ramdas Pophale) SiO2 
 PCOD9329848
Probable space group: I 2 2 2
;
_chemical_formula_sum "Si O2"
_cell_formula_units_Z 64
_cell_length_a 23.498479
_cell_length_b 8.951294
_cell_length_c 15.142728
_cell_angle_alpha 90.000000
_cell_angle_beta 90.000000
_cell_angle_gamma 90.000000
_cell_volume 3185.148575
_symmetry_space_group_name_H-M "I 2 2 2"
_symmetry_group_IT_number 23
_symmetry_cell_setting 'orthorhombic'
loop_
_space_group_symop_operation_xyz
x,y,z
-x,-y,z
x,-y,-z
-x,y,-z
1/2+x,1/2+y,1/2+z
1/2-x,1/2-y,1/2+z
1/2+x,1/2-y,1/2-z
1/2-x,1/2+y,1/2-z
loop_
_atom_site_type_symbol
_atom_site_label
_atom_site_fract_x
_atom_site_fract_y
_atom_site_fract_z
Si Si1 0.771278 0.418454 0.588474
Si Si2 0.171259 0.430524 0.098314
Si Si3 0.178755 0.892453 0.830165
Si Si4 0.096247 0.427412 0.407177
Si Si5 0.907703 0.067895 0.589723
Si Si6 0.284942 0.597153 0.137249
Si Si7 0.558804 0.931318 0.713734
Si Si8 0.943454 0.072242 0.783697
O O1 0.753702 0.500000 0.500000
O O2 0.726469 0.483118 0.656688
O O3 0.836666 0.461435 0.605643
O O4 0.769503 0.241382 0.579779
O O5 0.178192 0.250445 0.105713
O O6 0.229150 0.497221 0.140003
O O7 0.114975 0.468215 0.156303
O O8 0.165936 0.500000 0.000000
O O9 0.192464 0.836419 0.730607
O O10 0.116214 0.964652 0.830212
O O11 0.077497 0.500000 0.500000
O O12 0.090878 0.248030 0.415263
O O13 0.066980 0.478141 0.316423
O O14 0.841304 0.019341 0.599193
O O15 0.936867 0.023095 0.681357
O O16 0.931287 0.000000 0.500000
O O17 0.553431 0.751631 0.713944
O O18 0.500000 0.000000 0.679375
O O19 0.000000 0.000000 0.821942
#
# Coordination Sequence:
#
# PCOD9329848 Si02
#       8
#     8   8   8   8   8   8   8   8
#     4  10  19  33  53  79 110 139 168 212 269 327
#     4  11  22  37  58  84 113 148 190 234 280 331
#     4  10  20  36  56  78 110 143 177 226 274 325
#     4   9  19  35  54  80 114 148 181 224 281 344
#     4   9  18  32  51  78 111 140 173 219 269 329
#     4  10  19  33  54  82 112 142 178 217 269 331
#     4  10  22  39  56  77 109 146 190 240 284 329
#     4   9  20  37  54  75 103 140 183 228 275 323
#
# _framework density 20.093254000000002
#
# number of rings (size 3 to 8) (size 9 to 14) (size 15 to 20)
#    0.000    2.250    0.000    4.875    0.000    4.750 
#    0.000    5.000    0.000    1.875    0.000    0.000 
#    0.000    0.000    0.000    0.000    0.000    0.000 
#
# Total GULP energy -178481.017859 kJ/mol
# GULP energy per Si atom -5577.531808 kJ/mol
# Density = 2.004752 g / cm^3
# Si number density = 20.093254 Si / 1000 Ang^3
#
#
#
# Elastic Constant Matrix: (Units=GPa)
#
#
# Indices 1 2 3 4 5 6 
#
# 1 116.9662 30.9042 28.6885 0.0000 0.0000 0.0000
# 2 30.9042 15.4099 8.1656 0.0000 0.0000 0.0000
# 3 28.6885 8.1656 62.0954 0.0000 0.0000 0.0000
# 4 0.0000 0.0000 0.0000 26.2149 0.0000 0.0000
# 5 0.0000 0.0000 0.0000 0.0000 7.4132 0.0000
# 6 0.0000 0.0000 0.0000 0.0000 0.0000 23.0624
#
#
#
# Elastic Compliance Matrix: (Units=1/GPa)
#
#
# Indices 1 2 3 4 5 6 
#
# 1 0.019097 -0.036142 -0.004070 0.000000 0.000000 0.000000
# 2 -0.036142 0.138153 -0.001470 0.000000 0.000000 0.000000
# 3 -0.004070 -0.001470 0.018178 0.000000 0.000000 0.000000
# 4 0.000000 0.000000 0.000000 0.038146 0.000000 0.000000
# 5 0.000000 0.000000 0.000000 0.000000 0.134894 0.000000
# 6 0.000000 0.000000 0.000000 0.000000 0.000000 0.043361
#
#
# Mechanical properties :
#
#
# Convention : Reuss Voigt Hill
#
# Bulk Modulus (GPa) = 10.86189 36.66536 23.76362
# Shear Modulus (GPa) = 9.88376 19.78564 14.83470
#
# Velocity S-wave (km/s) = 2.22027 3.14138 2.72010
# Velocity P-wave (km/s) = 3.46270 5.60758 4.66022
#
# Compressibility (1/GPa) = 0.09206504
#
# Stress axis : x y z
#
# Youngs Moduli (GPa) = 52.36429 7.23834 55.01155
#
# Poissons Ratio (x) = 0.26161 0.22391
# Poissons Ratio (y) = 1.89254 0.08085
# Poissons Ratio (z) = 0.21314 0.01064
#
# Static dielectric constant tensor:
#      x y z
#    x 1.720250 0.000000 0.000000 
#    y 0.000000 1.715810 0.000000 
#    z 0.000000 0.000000 1.799180 
# 
# From -- ./inp_files/10360.got.cif
#   From: 2010.05.17/outbox.cif.g08.bks.cpg/sg23_6_cif.got.tgz:10360.got - 2010.06.04 12:02:01.
