data_PCOD9329585
_publ_section_title
;
Structure prediction by ZEFSAII (Michael W. Deem and Ramdas Pophale) SiO2 
 PCOD9329585
Probable space group: I 2 2 2
;
_chemical_formula_sum "Si O2"
_cell_formula_units_Z 48
_cell_length_a 28.585345
_cell_length_b 8.811875
_cell_length_c 9.009402
_cell_angle_alpha 90.000000
_cell_angle_beta 90.000000
_cell_angle_gamma 90.000000
_cell_volume 2269.382657
_symmetry_space_group_name_H-M "I 2 2 2"
_symmetry_group_IT_number 23
_symmetry_cell_setting 'orthorhombic'
loop_
_space_group_symop_operation_xyz
x,y,z
-x,-y,z
x,-y,-z
-x,y,-z
1/2+x,1/2+y,1/2+z
1/2-x,1/2-y,1/2+z
1/2+x,1/2-y,1/2-z
1/2-x,1/2+y,1/2-z
loop_
_atom_site_type_symbol
_atom_site_label
_atom_site_fract_x
_atom_site_fract_y
_atom_site_fract_z
Si Si1 0.552465 0.822399 0.980673
Si Si2 0.805720 0.664003 0.056496
Si Si3 0.780064 0.165947 0.231395
Si Si4 0.152999 0.680729 0.464243
Si Si5 0.552060 0.551603 0.824920
Si Si6 0.850660 0.107534 0.756058
O O1 0.598295 0.791521 0.078717
O O2 0.500000 0.762935 0.000000
O O3 0.560326 0.735528 0.826032
O O4 0.548734 0.000000 0.000000
O O5 0.769726 0.642547 0.192170
O O6 0.847318 0.770495 0.112690
O O7 0.820964 0.500000 0.000000
O O8 0.778458 0.752886 0.926733
O O9 0.811302 0.271781 0.338501
O O10 0.807654 0.007606 0.222824
O O11 0.157464 0.500000 0.500000
O O12 0.157732 0.797146 0.603292
O O13 0.500000 0.500000 0.773066
O O14 0.601074 0.511048 0.747615
O O15 0.555731 0.500000 0.000000
#
# Coordination Sequence:
#
# PCOD9329585 Si02
#       6
#     8   8   8   8   8   8
#     4   9  16  27  47  81 122 156 193 243 298 351
#     4  12  26  43  63  89 124 166 209 255 315 379
#     4  12  24  40  64  90 121 164 207 260 307 371
#     4  10  20  35  58  90 126 163 202 253 309 362
#     4  10  18  32  58  92 125 159 202 257 310 360
#     4  11  23  40  62  93 129 162 208 263 310 368
#
# _framework density 21.151126999999999
#
# number of rings (size 3 to 8) (size 9 to 14) (size 15 to 20)
#    0.000    1.333    1.667    7.000    0.000    1.333 
#    0.000    0.000    0.000    2.000    0.000    1.167 
#    0.000    0.000    0.000    0.000    0.000    0.000 
#
# Total GULP energy -133614.788854 kJ/mol
# GULP energy per Si atom -5567.282869 kJ/mol
# Density = 2.110299 g / cm^3
# Si number density = 21.151127 Si / 1000 Ang^3
#
#
#
# Elastic Constant Matrix: (Units=GPa)
#
#
# Indices 1 2 3 4 5 6 
#
# 1 112.9587 17.5440 15.5047 0.0000 0.0000 0.0000
# 2 17.5440 136.6355 19.6994 0.0000 0.0000 0.0000
# 3 15.5047 19.6994 57.4228 0.0000 0.0000 0.0000
# 4 0.0000 0.0000 0.0000 27.2802 0.0000 0.0000
# 5 0.0000 0.0000 0.0000 0.0000 18.3221 0.0000
# 6 0.0000 0.0000 0.0000 0.0000 0.0000 28.2614
#
#
#
# Elastic Compliance Matrix: (Units=1/GPa)
#
#
# Indices 1 2 3 4 5 6 
#
# 1 0.009292 -0.000875 -0.002209 0.000000 0.000000 0.000000
# 2 -0.000875 0.007782 -0.002433 0.000000 0.000000 0.000000
# 3 -0.002209 -0.002433 0.018846 0.000000 0.000000 0.000000
# 4 0.000000 0.000000 0.000000 0.036657 0.000000 0.000000
# 5 0.000000 0.000000 0.000000 0.000000 0.054579 0.000000
# 6 0.000000 0.000000 0.000000 0.000000 0.000000 0.035384
#
#
# Mechanical properties :
#
#
# Convention : Reuss Voigt Hill
#
# Bulk Modulus (GPa) = 40.18367 45.83483 43.00925
# Shear Modulus (GPa) = 27.49244 31.72401 29.60822
#
# Velocity S-wave (km/s) = 3.60920 3.87702 3.74550
# Velocity P-wave (km/s) = 6.03391 6.46211 6.25168
#
# Compressibility (1/GPa) = 0.02488573
#
# Stress axis : x y z
#
# Youngs Moduli (GPa) = 107.62161 128.50347 53.06191
#
# Poissons Ratio (x) = 0.11239 0.11721
# Poissons Ratio (y) = 0.09413 0.12913
# Poissons Ratio (z) = 0.23772 0.31271
#
# Static dielectric constant tensor:
#      x y z
#    x 1.894210 0.000000 0.000000 
#    y 0.000000 1.760520 0.000000 
#    z 0.000000 0.000000 1.776170 
# 
# From -- ./inp_files/13332.got.cif
#   From: 2010.05.17/outbox.cif.g08.bks.cpg/sg23_7_cif.got.tgz:13332.got - 2010.06.04 12:02:01.
