data_PCOD9329690
_publ_section_title
;
Structure prediction by ZEFSAII (Michael W. Deem and Ramdas Pophale) SiO2 
 PCOD9329690
Probable space group: I 2 2 2
;
_chemical_formula_sum "Si O2"
_cell_formula_units_Z 32
_cell_length_a 16.027357
_cell_length_b 11.512493
_cell_length_c 7.651857
_cell_angle_alpha 90.000000
_cell_angle_beta 90.000000
_cell_angle_gamma 90.000000
_cell_volume 1411.881134
_symmetry_space_group_name_H-M "I 2 2 2"
_symmetry_group_IT_number 23
_symmetry_cell_setting 'orthorhombic'
loop_
_space_group_symop_operation_xyz
x,y,z
-x,-y,z
x,-y,-z
-x,y,-z
1/2+x,1/2+y,1/2+z
1/2-x,1/2-y,1/2+z
1/2+x,1/2-y,1/2-z
1/2-x,1/2+y,1/2-z
loop_
_atom_site_type_symbol
_atom_site_label
_atom_site_fract_x
_atom_site_fract_y
_atom_site_fract_z
Si Si1 0.718951 0.000000 0.000000
Si Si2 0.839209 0.133224 0.484929
Si Si3 0.691035 0.726629 0.627126
Si Si4 0.920138 0.580876 0.224076
Si Si5 0.000000 0.245305 0.500000
O O1 0.779751 0.111921 0.979284
O O2 0.655287 0.984338 0.832440
O O3 0.775664 0.201109 0.366020
O O4 0.831313 0.180671 0.681730
O O5 0.930886 0.162105 0.418391
O O6 0.820002 0.000000 0.500000
O O7 0.622813 0.829280 0.583550
O O8 0.959859 0.668618 0.362739
O O9 0.000000 0.500000 0.178041
#
# Coordination Sequence:
#
# PCOD9329690 Si02
#       5
#     4   8   8   8   4
#     4  12  19  40  66 100 141 176 228 300 341 413
#     4  11  23  39  63 101 133 181 231 297 350 422
#     4  11  23  38  66 103 134 175 237 289 356 410
#     4  11  19  37  69 102 135 183 236 284 342 426
#     4  10  18  36  62  98 128 181 239 272 336 430
#
# _framework density 22.664797
#
# number of rings (size 3 to 8) (size 9 to 14) (size 15 to 20)
#    0.000    1.000    7.500    1.875    0.000    0.000 
#    0.000    0.000    0.000   29.250    0.000    0.000 
#    0.000    0.000    0.000    0.000    0.000    0.000 
#
# Total GULP energy -89147.033428 kJ/mol
# GULP energy per Si atom -5571.689589 kJ/mol
# Density = 2.261321 g / cm^3
# Si number density = 22.664797 Si / 1000 Ang^3
#
#
#
# Elastic Constant Matrix: (Units=GPa)
#
#
# Indices 1 2 3 4 5 6 
#
# 1 117.1675 68.5487 5.4697 0.0000 0.0000 0.0000
# 2 68.5487 176.2587 22.9193 0.0000 0.0000 0.0000
# 3 5.4697 22.9193 32.2939 0.0000 0.0000 0.0000
# 4 0.0000 0.0000 0.0000 34.5530 0.0000 0.0000
# 5 0.0000 0.0000 0.0000 0.0000 39.5599 0.0000
# 6 0.0000 0.0000 0.0000 0.0000 0.0000 67.5786
#
#
#
# Elastic Compliance Matrix: (Units=1/GPa)
#
#
# Indices 1 2 3 4 5 6 
#
# 1 0.011098 -0.004486 0.001304 0.000000 0.000000 0.000000
# 2 -0.004486 0.008063 -0.004963 0.000000 0.000000 0.000000
# 3 0.001304 -0.004963 0.034267 0.000000 0.000000 0.000000
# 4 0.000000 0.000000 0.000000 0.028941 0.000000 0.000000
# 5 0.000000 0.000000 0.000000 0.000000 0.025278 0.000000
# 6 0.000000 0.000000 0.000000 0.000000 0.000000 0.014798
#
#
# Mechanical properties :
#
#
# Convention : Reuss Voigt Hill
#
# Bulk Modulus (GPa) = 26.92585 57.73284 42.32934
# Shear Modulus (GPa) = 33.08744 43.59046 38.33895
#
# Velocity S-wave (km/s) = 3.82496 4.39026 4.11732
# Velocity P-wave (km/s) = 5.60472 7.15730 6.42806
#
# Compressibility (1/GPa) = 0.03713903
#
# Stress axis : x y z
#
# Youngs Moduli (GPa) = 90.10364 124.01746 29.18263
#
# Poissons Ratio (x) = 0.55632 -0.03805
# Poissons Ratio (y) = 0.40419 0.14483
# Poissons Ratio (z) = -0.11748 0.61548
#
# Static dielectric constant tensor:
#      x y z
#    x 1.801060 0.000000 0.000000 
#    y 0.000000 1.847050 0.000000 
#    z 0.000000 0.000000 1.875530 
# 
# From -- ./inp_files/7969.got.cif
#   From: 2010.05.17/outbox.cif.g08.bks.cpg/sg23_4_cif.got.tgz:7969.got - 2010.06.04 12:02:01.
