data_PCOD9329523
_publ_section_title
;
Structure prediction by ZEFSAII (Michael W. Deem and Ramdas Pophale) SiO2 
 PCOD9329523
Probable space group: I 2 2 2
;
_chemical_formula_sum "Si O2"
_cell_formula_units_Z 64
_cell_length_a 12.164387
_cell_length_b 27.336287
_cell_length_c 11.020778
_cell_angle_alpha 90.000000
_cell_angle_beta 90.000000
_cell_angle_gamma 90.000000
_cell_volume 3664.730208
_symmetry_space_group_name_H-M "I 2 2 2"
_symmetry_group_IT_number 23
_symmetry_cell_setting 'orthorhombic'
loop_
_space_group_symop_operation_xyz
x,y,z
-x,-y,z
x,-y,-z
-x,y,-z
1/2+x,1/2+y,1/2+z
1/2-x,1/2-y,1/2+z
1/2+x,1/2-y,1/2-z
1/2-x,1/2+y,1/2-z
loop_
_atom_site_type_symbol
_atom_site_label
_atom_site_fract_x
_atom_site_fract_y
_atom_site_fract_z
Si Si1 0.219714 0.323875 0.799182
Si Si2 0.857580 0.319931 0.743912
Si Si3 0.078667 0.213401 0.179928
Si Si4 0.624792 0.021788 0.380398
Si Si5 0.374553 0.131553 0.525062
Si Si6 0.874148 0.481624 0.372354
Si Si7 0.444231 0.869608 0.870129
Si Si8 0.660998 0.283256 0.596227
O O1 0.346358 0.321669 0.761426
O O2 0.147102 0.332497 0.678912
O O3 0.186854 0.272016 0.859387
O O4 0.186149 0.365011 0.896458
O O5 0.913542 0.267014 0.759240
O O6 0.815069 0.333901 0.877345
O O7 0.762980 0.315475 0.643684
O O8 0.950514 0.360052 0.715340
O O9 0.952234 0.200334 0.160263
O O10 0.135536 0.216132 0.046798
O O11 0.619106 0.078487 0.414430
O O12 0.500000 0.000000 0.376826
O O13 0.681644 0.000000 0.500000
O O14 0.673513 0.005745 0.250560
O O15 0.500000 0.149091 0.500000
O O16 0.823406 0.500000 0.500000
O O17 0.888838 0.423105 0.365860
O O18 0.000000 0.500000 0.376121
O O19 0.500000 0.861162 0.000000
#
# Coordination Sequence:
#
# PCOD9329523 Si02
#       8
#     8   8   8   8   8   8   8   8
#     4  11  22  33  52  81 102 145 185 228 274 327
#     4  11  21  32  53  78  99 143 183 221 268 321
#     4  10  20  39  54  70 107 139 187 229 282 313
#     4  10  18  30  47  74 103 152 178 201 262 337
#     4  12  19  32  53  75 113 145 176 215 266 335
#     4  10  19  32  45  70 114 156 167 216 279 328
#     4  12  21  32  50  79 114 142 185 220 268 335
#     4  10  20  39  55  70 103 144 185 231 275 317
#
# _framework density 17.46377
#
# number of rings (size 3 to 8) (size 9 to 14) (size 15 to 20)
#    0.000    1.250    6.250    3.000    0.000    0.000 
#    0.000    0.625    0.000    0.000    0.000    0.000 
#    0.000   13.000    0.000    0.000    0.000    0.000 
#
# Total GULP energy -178272.633900 kJ/mol
# GULP energy per Si atom -5571.019809 kJ/mol
# Density = 1.742402 g / cm^3
# Si number density = 17.463770 Si / 1000 Ang^3
#
#
#
# Elastic Constant Matrix: (Units=GPa)
#
#
# Indices 1 2 3 4 5 6 
#
# 1 56.9406 16.9236 16.4787 0.0000 0.0000 0.0000
# 2 16.9236 55.3216 20.3509 -0.0001 0.0000 0.0001
# 3 16.4787 20.3509 107.8862 -0.0004 0.0001 0.0003
# 4 0.0000 -0.0001 -0.0004 21.6410 0.0001 0.0001
# 5 0.0000 0.0000 0.0001 0.0001 24.0822 -0.0001
# 6 0.0000 0.0001 0.0003 0.0001 -0.0001 7.5610
#
#
#
# Elastic Compliance Matrix: (Units=1/GPa)
#
#
# Indices 1 2 3 4 5 6 
#
# 1 0.019717 -0.005291 -0.002014 0.000000 0.000000 0.000000
# 2 -0.005291 0.020844 -0.003124 0.000000 0.000000 0.000000
# 3 -0.002014 -0.003124 0.010166 0.000000 0.000000 0.000000
# 4 0.000000 0.000000 0.000000 0.046209 0.000000 -0.000001
# 5 0.000000 0.000000 0.000000 0.000000 0.041525 0.000000
# 6 0.000000 0.000000 0.000000 -0.000001 0.000000 0.132257
#
#
# Mechanical properties :
#
#
# Convention : Reuss Voigt Hill
#
# Bulk Modulus (GPa) = 33.47795 36.40608 34.94202
# Shear Modulus (GPa) = 16.58203 21.74985 19.16594
#
# Velocity S-wave (km/s) = 3.08476 3.53289 3.31640
# Velocity P-wave (km/s) = 5.64794 6.12647 5.89206
#
# Compressibility (1/GPa) = 0.02987041
#
# Stress axis : x y z
#
# Youngs Moduli (GPa) = 50.71638 47.97581 98.36890
#
# Poissons Ratio (x) = 0.25384 0.19808
# Poissons Ratio (y) = 0.26835 0.30727
# Poissons Ratio (z) = 0.10212 0.14986
#
# Static dielectric constant tensor:
#      x y z
#    x 1.554800 0.000000 0.000000 
#    y 0.000000 1.637690 0.000000 
#    z 0.000000 0.000000 1.704070 
# 
# From -- ./inp_files/16142.got.cif
#   From: 2010.05.17/outbox.cif.g08.bks.cpg/sg23_9_cif.got.tgz:16142.got - 2010.06.04 12:02:01.
