data_PCOD9329230
_publ_section_title
;
Structure prediction by ZEFSAII (Michael W. Deem and Ramdas Pophale) SiO2 
 PCOD9329230
Probable space group: F 2 2 2
;
_chemical_formula_sum "Si O2"
_cell_formula_units_Z 60
_cell_length_a 24.621517
_cell_length_b 7.834183
_cell_length_c 12.608800
_cell_angle_alpha 90.000000
_cell_angle_beta 90.000000
_cell_angle_gamma 90.000000
_cell_volume 2432.104748
_symmetry_space_group_name_H-M "F 2 2 2"
_symmetry_group_IT_number 22
_symmetry_cell_setting 'orthorhombic'
loop_
_space_group_symop_operation_xyz
x,y,z
-x,-y,z
x,-y,-z
-x,y,-z
x,1/2+y,1/2+z
-x,1/2-y,1/2+z
x,1/2-y,1/2-z
-x,1/2+y,1/2-z
1/2+x,y,1/2+z
1/2-x,-y,1/2+z
1/2+x,-y,1/2-z
1/2-x,y,1/2-z
1/2+x,1/2+y,z
1/2-x,1/2-y,z
1/2+x,1/2-y,-z
1/2-x,1/2+y,-z
loop_
_atom_site_type_symbol
_atom_site_label
_atom_site_fract_x
_atom_site_fract_y
_atom_site_fract_z
Si Si1 0.342044 0.500000 0.000000
Si Si2 0.059799 0.248725 0.992800
Si Si3 0.177232 0.950703 0.770614
Si Si4 0.940992 0.987535 0.690995
Si Si5 0.750000 0.750000 0.750000
O O1 0.384194 0.654241 0.989384
O O2 0.309053 0.501556 0.892006
O O3 0.057050 0.385731 0.088690
O O4 0.064399 0.310980 0.871288
O O5 0.000000 0.169795 0.000000
O O6 0.190256 0.750000 0.750000
O O7 0.112350 0.969425 0.755885
O O8 0.206918 0.104122 0.705683
O O9 0.000000 0.000000 0.744906
#
# Coordination Sequence:
#
# PCOD9329230 Si02
#       5
#     8  16  16  16   4
#     4  12  23  40  68 108 138 192 247 314 372 444
#     4   9  18  34  62 103 148 195 241 291 367 456
#     4  12  26  51  75 108 149 195 259 319 382 458
#     4   9  19  40  68 100 149 195 236 304 376 448
#     4  12  30  56  76 102 138 204 262 314 392 450
#
# _framework density 24.669989000000001
#
# number of rings (size 3 to 8) (size 9 to 14) (size 15 to 20)
#    0.000    1.600    2.667    4.000    0.000    2.133 
#    7.200    0.000    0.000    0.000    0.000    0.000 
#    0.000    0.000    0.000    0.000    0.000    0.000 
#
# Total GULP energy -83592.560105 kJ/mol
# GULP energy per Si atom -5572.837340 kJ/mol
# Density = 2.461384 g / cm^3
# Si number density = 24.669989 Si / 1000 Ang^3
#
#
#
# Elastic Constant Matrix: (Units=GPa)
#
#
# Indices 1 2 3 4 5 6 
#
# 1 160.1905 47.3207 32.4068 0.0000 0.0000 0.0000
# 2 47.3207 123.7771 19.4350 0.0000 0.0000 0.0000
# 3 32.4068 19.4350 116.9534 0.0000 0.0000 0.0000
# 4 0.0000 0.0000 0.0000 20.1074 0.0000 0.0000
# 5 0.0000 0.0000 0.0000 0.0000 7.9761 0.0000
# 6 0.0000 0.0000 0.0000 0.0000 0.0000 26.3523
#
#
#
# Elastic Compliance Matrix: (Units=1/GPa)
#
#
# Indices 1 2 3 4 5 6 
#
# 1 0.007319 -0.002546 -0.001605 0.000000 0.000000 0.000000
# 2 -0.002546 0.009181 -0.000820 0.000000 0.000000 0.000000
# 3 -0.001605 -0.000820 0.009131 0.000000 0.000000 0.000000
# 4 0.000000 0.000000 0.000000 0.049733 0.000000 0.000000
# 5 0.000000 0.000000 0.000000 0.000000 0.125375 0.000000
# 6 0.000000 0.000000 0.000000 0.000000 0.000000 0.037947
#
#
# Mechanical properties :
#
#
# Convention : Reuss Voigt Hill
#
# Bulk Modulus (GPa) = 63.73789 66.58288 65.16039
# Shear Modulus (GPa) = 19.69587 31.00438 25.35012
#
# Velocity S-wave (km/s) = 2.82862 3.54893 3.20905
# Velocity P-wave (km/s) = 6.04652 6.62127 6.34041
#
# Compressibility (1/GPa) = 0.01568926
#
# Stress axis : x y z
#
# Youngs Moduli (GPa) = 136.62257 108.91746 109.51166
#
# Poissons Ratio (x) = 0.27733 0.17577
# Poissons Ratio (y) = 0.34787 0.08982
# Poissons Ratio (z) = 0.21928 0.08933
#
# Static dielectric constant tensor:
#      x y z
#    x 1.919260 0.000000 0.000000 
#    y 0.000000 2.363020 0.000000 
#    z 0.000000 0.000000 1.971930 
# 
# From -- ./inp_files/24303.got.cif
#   From: 2010.05.17/outbox.cif.g08.bks.cpg/sg22_13_cif.got.tgz:24303.got - 2010.06.03 23:40:54.
