data_PCOD9329127
_publ_section_title
;
Structure prediction by ZEFSAII (Michael W. Deem and Ramdas Pophale) SiO2 
 PCOD9329127
Probable space group: F 2 2 2
;
_chemical_formula_sum "Si O2"
_cell_formula_units_Z 88
_cell_length_a 15.589227
_cell_length_b 12.562751
_cell_length_c 22.921360
_cell_angle_alpha 90.000000
_cell_angle_beta 90.000000
_cell_angle_gamma 90.000000
_cell_volume 4489.001134
_symmetry_space_group_name_H-M "F 2 2 2"
_symmetry_group_IT_number 22
_symmetry_cell_setting 'orthorhombic'
loop_
_space_group_symop_operation_xyz
x,y,z
-x,-y,z
x,-y,-z
-x,y,-z
x,1/2+y,1/2+z
-x,1/2-y,1/2+z
x,1/2-y,1/2-z
-x,1/2+y,1/2-z
1/2+x,y,1/2+z
1/2-x,-y,1/2+z
1/2+x,-y,1/2-z
1/2-x,y,1/2-z
1/2+x,1/2+y,z
1/2-x,1/2-y,z
1/2+x,1/2-y,-z
1/2-x,1/2+y,-z
loop_
_atom_site_type_symbol
_atom_site_label
_atom_site_fract_x
_atom_site_fract_y
_atom_site_fract_z
Si Si1 0.445174 0.412610 0.694960
Si Si2 0.003079 0.124956 0.069706
Si Si3 0.672286 0.668435 0.137948
Si Si4 0.076931 0.250000 0.250000
Si Si5 0.157675 0.741569 0.370635
Si Si6 0.323914 0.537330 0.204198
O O1 0.500000 0.500000 0.660677
O O2 0.512969 0.325695 0.715332
O O3 0.373722 0.352724 0.657100
O O4 0.407112 0.466668 0.753676
O O5 0.921430 0.189207 0.094487
O O6 0.092030 0.173190 0.093940
O O7 0.000000 0.000000 0.088831
O O8 0.000000 0.127338 0.000000
O O9 0.750000 0.750000 0.123880
O O10 0.636990 0.698565 0.201762
O O11 0.690035 0.542887 0.149937
O O12 0.250000 0.750000 0.402224
O O13 0.175552 0.657699 0.318800
O O14 0.250000 0.514911 0.250000
#
# Coordination Sequence:
#
# PCOD9329127 Si02
#       6
#    16  16  16   8  16  16
#     4  12  23  34  58  91 138 184 217 256 324 405
#     4  11  25  49  74  94 124 174 237 291 336 397
#     4  12  25  40  64 102 137 174 218 275 344 408
#     4  12  21  36  59  94 140 178 211 256 339 406
#     4  12  24  41  65  95 130 176 226 272 331 400
#     4  12  22  35  57  95 141 178 208 259 326 420
#
# _framework density 19.603470000000002
#
# number of rings (size 3 to 8) (size 9 to 14) (size 15 to 20)
#    0.000    0.182    9.091    1.364    0.000    0.727 
#    0.000    0.000    0.000    0.545    0.000    0.000 
#    0.000    0.000    0.000    0.000    0.000    0.000 
#
# Total GULP energy -122755.753005 kJ/mol
# GULP energy per Si atom -5579.806955 kJ/mol
# Density = 1.955885 g / cm^3
# Si number density = 19.603470 Si / 1000 Ang^3
#
#
#
# Elastic Constant Matrix: (Units=GPa)
#
#
# Indices 1 2 3 4 5 6 
#
# 1 142.1995 52.1234 27.7570 0.0000 0.0000 0.0000
# 2 52.1234 91.4100 15.3757 0.0000 0.0000 0.0000
# 3 27.7570 15.3757 50.4675 0.0000 0.0000 0.0000
# 4 0.0000 0.0000 0.0000 15.4315 0.0000 0.0000
# 5 0.0000 0.0000 0.0000 0.0000 11.7633 0.0000
# 6 0.0000 0.0000 0.0000 0.0000 0.0000 36.9469
#
#
#
# Elastic Compliance Matrix: (Units=1/GPa)
#
#
# Indices 1 2 3 4 5 6 
#
# 1 0.009529 -0.004798 -0.003779 0.000000 0.000000 0.000000
# 2 -0.004798 0.013946 -0.001610 0.000000 0.000000 0.000000
# 3 -0.003779 -0.001610 0.022384 0.000000 0.000000 0.000000
# 4 0.000000 0.000000 0.000000 0.064803 0.000000 0.000000
# 5 0.000000 0.000000 0.000000 0.000000 0.085010 0.000000
# 6 0.000000 0.000000 0.000000 0.000000 0.000000 0.027066
#
#
# Mechanical properties :
#
#
# Convention : Reuss Voigt Hill
#
# Bulk Modulus (GPa) = 39.23914 52.73215 45.98565
# Shear Modulus (GPa) = 19.87233 25.41639 22.64436
#
# Velocity S-wave (km/s) = 3.18734 3.60464 3.40239
# Velocity P-wave (km/s) = 5.79702 6.65450 6.24050
#
# Compressibility (1/GPa) = 0.02548476
#
# Stress axis : x y z
#
# Youngs Moduli (GPa) = 104.94674 71.70356 44.67521
#
# Poissons Ratio (x) = 0.34401 0.16883
# Poissons Ratio (y) = 0.50351 0.07194
# Poissons Ratio (z) = 0.39660 0.11546
#
# Static dielectric constant tensor:
#      x y z
#    x 1.785980 0.000000 0.000000 
#    y 0.000000 1.780700 0.000000 
#    z 0.000000 0.000000 1.639780 
# 
# From -- ./inp_files/19940.got.cif
#   From: 2010.05.17/outbox.cif.g08.bks.cpg/sg22_10_cif.got.tgz:19940.got - 2010.06.03 23:40:54.
