data_PCOD9329231
_publ_section_title
;
Structure prediction by ZEFSAII (Michael W. Deem and Ramdas Pophale) SiO2 
 PCOD9329231
Probable space group: F 2 2 2
;
_chemical_formula_sum "Si O2"
_cell_formula_units_Z 52
_cell_length_a 24.996705
_cell_length_b 4.854811
_cell_length_c 17.627102
_cell_angle_alpha 90.000000
_cell_angle_beta 90.000000
_cell_angle_gamma 90.000000
_cell_volume 2139.124243
_symmetry_space_group_name_H-M "F 2 2 2"
_symmetry_group_IT_number 22
_symmetry_cell_setting 'orthorhombic'
loop_
_space_group_symop_operation_xyz
x,y,z
-x,-y,z
x,-y,-z
-x,y,-z
x,1/2+y,1/2+z
-x,1/2-y,1/2+z
x,1/2-y,1/2-z
-x,1/2+y,1/2-z
1/2+x,y,1/2+z
1/2-x,-y,1/2+z
1/2+x,-y,1/2-z
1/2-x,y,1/2-z
1/2+x,1/2+y,z
1/2-x,1/2-y,z
1/2+x,1/2-y,-z
1/2-x,1/2+y,-z
loop_
_atom_site_type_symbol
_atom_site_label
_atom_site_fract_x
_atom_site_fract_y
_atom_site_fract_z
Si Si1 0.250000 0.750000 0.000965
Si Si2 0.750000 0.750000 0.750000
Si Si3 0.894938 0.469560 0.409637
Si Si4 0.675540 0.466175 0.630248
Si Si5 0.000000 0.000000 0.191965
O O1 0.220488 0.505489 0.936386
O O2 0.296561 0.500000 0.000000
O O3 0.710210 0.560934 0.701091
O O4 0.905435 0.500000 0.500000
O O5 0.872394 0.167160 0.391460
O O6 0.948759 0.523906 0.362444
O O7 0.850499 0.669608 0.370881
O O8 0.006720 0.750000 0.250000
#
# Coordination Sequence:
#
# PCOD9329231 Si02
#       5
#     8   4  16  16   8
#     4  12  23  43  68 103 147 194 254 308 358 441
#     4  12  30  46  68 118 158 218 242 330 360 474
#     4  12  27  50  80 112 151 200 257 318 380 454
#     4  12  27  44  73 106 152 202 254 298 384 438
#     4  12  29  52  79 118 148 194 248 322 393 464
#
# _framework density 24.309013
#
# number of rings (size 3 to 8) (size 9 to 14) (size 15 to 20)
#    0.000    0.000    0.000   10.615    6.462    4.308 
#    0.000    4.615    0.000    0.000    0.000    0.000 
#    0.000    0.000    0.000    0.000    0.000    0.000 
#
# Total GULP energy -72646.207166 kJ/mol
# GULP energy per Si atom -5588.169782 kJ/mol
# Density = 2.425368 g / cm^3
# Si number density = 24.309013 Si / 1000 Ang^3
#
#
#
# Elastic Constant Matrix: (Units=GPa)
#
#
# Indices 1 2 3 4 5 6 
#
# 1 140.8070 -11.0181 77.2061 0.0009 0.0001 0.0000
# 2 -11.0181 155.4893 19.8592 0.0055 0.0004 -0.0006
# 3 77.2061 19.8592 193.6917 0.0011 0.0000 -0.0004
# 4 0.0009 0.0055 0.0011 32.6651 0.0000 -0.0008
# 5 0.0001 0.0004 0.0000 0.0000 42.5922 -0.0003
# 6 0.0000 -0.0006 -0.0004 -0.0008 -0.0003 37.2422
#
#
#
# Elastic Compliance Matrix: (Units=1/GPa)
#
#
# Indices 1 2 3 4 5 6 
#
# 1 0.009285 0.001146 -0.003819 0.000000 0.000000 0.000000
# 2 0.001146 0.006658 -0.001139 -0.000001 0.000000 0.000000
# 3 -0.003819 -0.001139 0.006802 0.000000 0.000000 0.000000
# 4 0.000000 -0.000001 0.000000 0.030614 0.000000 0.000001
# 5 0.000000 0.000000 0.000000 0.000000 0.023479 0.000000
# 6 0.000000 0.000000 0.000000 0.000001 0.000000 0.026851
#
#
# Mechanical properties :
#
#
# Convention : Reuss Voigt Hill
#
# Bulk Modulus (GPa) = 66.13489 73.56470 69.84980
# Shear Modulus (GPa) = 42.97252 49.42927 46.20089
#
# Velocity S-wave (km/s) = 4.20904 4.51418 4.36428
# Velocity P-wave (km/s) = 7.13346 7.58278 7.36155
#
# Compressibility (1/GPa) = 0.01512061
#
# Stress axis : x y z
#
# Youngs Moduli (GPa) = 107.69626 150.19506 147.02031
#
# Poissons Ratio (x) = -0.17208 0.56142
# Poissons Ratio (y) = -0.12339 0.16750
# Poissons Ratio (z) = 0.41125 0.17112
#
# Static dielectric constant tensor:
#      x y z
#    x 1.853780 0.000000 0.000000 
#    y 0.000000 1.978050 0.000000 
#    z 0.000000 0.000000 1.996150 
# 
# From -- ./inp_files/39736.got.cif
#   From: 2010.05.17/outbox.cif.g08.bks.cpg/sg22_20_cif.got.tgz:39736.got - 2010.06.03 23:40:54.
