data_PCOD9329903
_publ_section_title
;
Structure prediction by ZEFSAII (Michael W. Deem and Ramdas Pophale) SiO2 
 PCOD9329903
Probable space group: I 2 2 2
;
_chemical_formula_sum "Si O2"
_cell_formula_units_Z 40
_cell_length_a 8.233576
_cell_length_b 28.210048
_cell_length_c 9.073359
_cell_angle_alpha 90.000000
_cell_angle_beta 90.000000
_cell_angle_gamma 90.000000
_cell_volume 2107.465231
_symmetry_space_group_name_H-M "I 2 2 2"
_symmetry_group_IT_number 23
_symmetry_cell_setting 'orthorhombic'
loop_
_space_group_symop_operation_xyz
x,y,z
-x,-y,z
x,-y,-z
-x,y,-z
1/2+x,1/2+y,1/2+z
1/2-x,1/2-y,1/2+z
1/2+x,1/2-y,1/2-z
1/2-x,1/2+y,1/2-z
loop_
_atom_site_type_symbol
_atom_site_label
_atom_site_fract_x
_atom_site_fract_y
_atom_site_fract_z
Si Si1 0.171786 0.885460 0.927958
Si Si2 0.553808 0.948376 0.171945
Si Si3 0.814401 0.203746 0.447300
Si Si4 0.633744 0.858686 0.778207
Si Si5 0.309893 0.199590 0.231724
O O1 0.261442 0.928983 0.843889
O O2 0.179012 0.839849 0.820943
O O3 0.278139 0.867885 0.067332
O O4 0.000000 0.897763 0.000000
O O5 0.455121 0.908072 0.258449
O O6 0.500000 0.000000 0.227042
O O7 0.500000 0.947746 0.000000
O O8 0.754369 0.160781 0.344895
O O9 0.708302 0.206633 0.594712
O O10 0.790766 0.251542 0.353780
O O11 0.000000 0.199581 0.500000
O O12 0.488103 0.821418 0.799717
#
# Coordination Sequence:
#
# PCOD9329903 Si02
#       5
#     8   8   8   8   8
#     4  10  19  34  57  85 113 141 183 232 270 317
#     4   8  16  34  58  82 110 143 180 223 276 332
#     4  12  23  35  54  80 111 146 188 230 270 324
#     4  10  21  37  55  79 111 146 182 224 277 332
#     4  11  22  36  54  77 112 151 184 220 276 332
#
# _framework density 18.980148
#
# number of rings (size 3 to 8) (size 9 to 14) (size 15 to 20)
#    0.000    1.800    0.000    7.200    0.000    1.600 
#    0.000    8.000    0.000    9.600    0.000    5.600 
#    0.000    0.000    0.000    0.000    0.000    0.000 
#
# Total GULP energy -111596.633248 kJ/mol
# GULP energy per Si atom -5579.831662 kJ/mol
# Density = 1.893695 g / cm^3
# Si number density = 18.980148 Si / 1000 Ang^3
#
#
#
# Elastic Constant Matrix: (Units=GPa)
#
#
# Indices 1 2 3 4 5 6 
#
# 1 62.3460 47.8928 12.0202 0.0002 -0.0001 0.0000
# 2 47.8928 139.0275 43.6630 0.0002 0.0000 0.0000
# 3 12.0202 43.6630 77.3666 0.0004 0.0001 0.0000
# 4 0.0002 0.0002 0.0004 18.9169 0.0000 0.0000
# 5 -0.0001 0.0000 0.0001 0.0000 22.1254 0.0000
# 6 0.0000 0.0000 0.0000 0.0000 0.0000 9.3589
#
#
#
# Elastic Compliance Matrix: (Units=1/GPa)
#
#
# Indices 1 2 3 4 5 6 
#
# 1 0.021880 -0.007863 0.001038 0.000000 0.000000 0.000000
# 2 -0.007863 0.011568 -0.005307 0.000000 0.000000 0.000000
# 3 0.001038 -0.005307 0.015759 0.000000 0.000000 0.000000
# 4 0.000000 0.000000 0.000000 0.052863 0.000000 0.000000
# 5 0.000000 0.000000 0.000000 0.000000 0.045197 0.000000
# 6 0.000000 0.000000 0.000000 0.000000 0.000000 0.106850
#
#
# Mechanical properties :
#
#
# Convention : Reuss Voigt Hill
#
# Bulk Modulus (GPa) = 40.09081 53.98802 47.03941
# Shear Modulus (GPa) = 17.44007 21.75784 19.59896
#
# Velocity S-wave (km/s) = 3.03456 3.38945 3.21690
# Velocity P-wave (km/s) = 5.78329 6.61997 6.21572
#
# Compressibility (1/GPa) = 0.02494337
#
# Stress axis : x y z
#
# Youngs Moduli (GPa) = 45.70428 86.44253 63.45473
#
# Poissons Ratio (x) = 0.67973 -0.06589
# Poissons Ratio (y) = 0.35939 0.33676
# Poissons Ratio (z) = -0.04746 0.45876
#
# Static dielectric constant tensor:
#      x y z
#    x 1.706170 0.000000 0.000000 
#    y 0.000000 1.684970 0.000000 
#    z 0.000000 0.000000 1.650390 
# 
# From -- ./inp_files/7081.got.cif
#   From: 2010.05.17/outbox.cif.g08.bks.cpg/sg23_4_cif.got.tgz:7081.got - 2010.06.04 12:02:01.
