data_PCOD9329172
_publ_section_title
;
Structure prediction by ZEFSAII (Michael W. Deem and Ramdas Pophale) SiO2 
 PCOD9329172
Probable space group: F 2 2 2
;
_chemical_formula_sum "Si O2"
_cell_formula_units_Z 52
_cell_length_a 20.331110
_cell_length_b 20.141624
_cell_length_c 5.609884
_cell_angle_alpha 90.000000
_cell_angle_beta 90.000000
_cell_angle_gamma 90.000000
_cell_volume 2297.256323
_symmetry_space_group_name_H-M "F 2 2 2"
_symmetry_group_IT_number 22
_symmetry_cell_setting 'orthorhombic'
loop_
_space_group_symop_operation_xyz
x,y,z
-x,-y,z
x,-y,-z
-x,y,-z
x,1/2+y,1/2+z
-x,1/2-y,1/2+z
x,1/2-y,1/2-z
-x,1/2+y,1/2-z
1/2+x,y,1/2+z
1/2-x,-y,1/2+z
1/2+x,-y,1/2-z
1/2-x,y,1/2-z
1/2+x,1/2+y,z
1/2-x,1/2-y,z
1/2+x,1/2-y,-z
1/2-x,1/2+y,-z
loop_
_atom_site_type_symbol
_atom_site_label
_atom_site_fract_x
_atom_site_fract_y
_atom_site_fract_z
Si Si1 0.928750 0.076616 0.077633
Si Si2 0.423273 0.688492 0.434733
Si Si3 0.819671 0.339414 0.651646
Si Si4 0.250000 0.250000 0.750000
O O1 0.919306 0.112724 0.332346
O O2 0.865956 0.103687 0.942818
O O3 0.000000 0.105254 0.000000
O O4 0.931909 0.000000 0.000000
O O5 0.500000 0.696845 0.500000
O O6 0.413548 0.750000 0.250000
O O7 0.367653 0.690464 0.641030
O O8 0.750000 0.363365 0.750000
O O9 0.793391 0.294968 0.429339
#
# Coordination Sequence:
#
# PCOD9329172 Si02
#       4
#    16  16  16   4
#     4  11  26  52  79 116 161 217 271 332 408 502
#     4  12  28  48  84 122 161 211 278 344 415 493
#     4  12  29  50  78 116 162 212 267 345 414 494
#     4  12  30  52  82 116 168 214 278 348 428 476
#
# _framework density 22.635695999999999
#
# number of rings (size 3 to 8) (size 9 to 14) (size 15 to 20)
#    0.000    0.308    3.077    3.231   12.923    1.231 
#    8.308    0.000    0.000    0.000    0.000    0.000 
#    0.000    0.000    0.000    0.000    0.000    0.000 
#
# Total GULP energy -72396.125792 kJ/mol
# GULP energy per Si atom -5568.932753 kJ/mol
# Density = 2.258418 g / cm^3
# Si number density = 22.635696 Si / 1000 Ang^3
#
#
#
# Elastic Constant Matrix: (Units=GPa)
#
#
# Indices 1 2 3 4 5 6 
#
# 1 269.3346 63.7621 83.9050 0.0011 -0.0003 -0.0029
# 2 63.7621 114.8071 51.5329 0.0020 -0.0017 0.0010
# 3 83.9050 51.5329 116.1563 0.0062 -0.0089 -0.0031
# 4 0.0011 0.0020 0.0062 28.9019 -0.0027 0.0078
# 5 -0.0003 -0.0017 -0.0089 -0.0027 72.0135 0.0066
# 6 -0.0029 0.0010 -0.0031 0.0078 0.0066 86.2862
#
#
#
# Elastic Compliance Matrix: (Units=1/GPa)
#
#
# Indices 1 2 3 4 5 6 
#
# 1 0.004973 -0.001435 -0.002956 0.000001 0.000000 0.000000
# 2 -0.001435 0.011290 -0.003972 0.000000 0.000000 0.000000
# 3 -0.002956 -0.003972 0.012506 -0.000002 0.000001 0.000000
# 4 0.000001 0.000000 -0.000002 0.034600 0.000001 -0.000003
# 5 0.000000 0.000000 0.000001 0.000001 0.013886 -0.000001
# 6 0.000000 0.000000 0.000000 -0.000003 -0.000001 0.011589
#
#
# Mechanical properties :
#
#
# Convention : Reuss Voigt Hill
#
# Bulk Modulus (GPa) = 83.03106 99.85532 91.44319
# Shear Modulus (GPa) = 45.62587 57.51350 51.56968
#
# Velocity S-wave (km/s) = 4.49448 5.04614 4.77828
# Velocity P-wave (km/s) = 7.98091 8.84088 8.42188
#
# Compressibility (1/GPa) = 0.01204369
#
# Stress axis : x y z
#
# Youngs Moduli (GPa) = 201.06685 88.57044 79.95923
#
# Poissons Ratio (x) = 0.12714 0.23634
# Poissons Ratio (y) = 0.28863 0.31761
# Poissons Ratio (z) = 0.59430 0.35181
#
# Static dielectric constant tensor:
#      x y z
#    x 1.925410 0.000000 0.000010 
#    y 0.000000 1.825370 -0.000010 
#    z 0.000010 -0.000010 1.984660 
# 
# From -- ./inp_files/3298.got.cif
#   From: 2010.05.17/outbox.cif.g08.bks.cpg/sg22_2_cif.got.tgz:3298.got - 2010.06.03 23:40:54.
