data_PCOD9329598
_publ_section_title
;
Structure prediction by ZEFSAII (Michael W. Deem and Ramdas Pophale) SiO2 
 PCOD9329598
Probable space group: I 2 2 2
;
_chemical_formula_sum "Si O2"
_cell_formula_units_Z 64
_cell_length_a 17.710876
_cell_length_b 16.937052
_cell_length_c 12.787659
_cell_angle_alpha 90.000000
_cell_angle_beta 90.000000
_cell_angle_gamma 90.000000
_cell_volume 3835.914425
_symmetry_space_group_name_H-M "I 2 2 2"
_symmetry_group_IT_number 23
_symmetry_cell_setting 'orthorhombic'
loop_
_space_group_symop_operation_xyz
x,y,z
-x,-y,z
x,-y,-z
-x,y,-z
1/2+x,1/2+y,1/2+z
1/2-x,1/2-y,1/2+z
1/2+x,1/2-y,1/2-z
1/2-x,1/2+y,1/2-z
loop_
_atom_site_type_symbol
_atom_site_label
_atom_site_fract_x
_atom_site_fract_y
_atom_site_fract_z
Si Si1 0.174913 0.343351 0.125060
Si Si2 0.655301 0.406189 0.877041
Si Si3 0.585372 1.000000 0.373105
Si Si4 0.655300 0.593811 0.877041
Si Si5 0.674913 0.843351 0.374940
Si Si6 0.411520 0.693815 0.699062
Si Si7 0.411521 0.693816 0.300938
Si Si8 0.591233 0.411254 0.500000
O O1 0.262229 0.366686 0.138155
O O2 0.128420 0.420938 0.157053
O O3 0.142260 0.269698 0.188819
O O4 0.162268 0.328719 1.000000
O O5 0.657566 0.500000 0.851155
O O6 0.599899 0.356928 0.803547
O O7 0.636518 0.400376 1.000000
O O8 0.628420 0.920938 0.342947
O O9 0.500000 0.000000 0.335203
O O10 0.584688 0.000000 0.500000
O O11 0.737771 0.633314 0.861846
O O12 0.599898 0.643072 0.803547
O O13 0.642260 0.769698 0.311181
O O14 0.500000 0.716196 0.686297
O O15 0.388574 0.636784 0.603303
O O16 0.388575 0.636784 0.396695
O O17 0.621617 0.500000 0.500000
O O18 0.500000 0.416037 0.500000
#
# Coordination Sequence:
#
# PCOD9329598 Si02
#       8
#     8   8   8   8   8   8   8   8
#     4  10  18  33  53  78 109 139 174 218 268 320
#     4  10  21  37  55  76 106 145 183 217 260 314
#     4   9  16  26  48  78 108 138 167 210 268 321
#     4  10  21  37  55  76 106 145 183 217 260 314
#     4  10  18  33  53  78 109 139 174 218 268 320
#     4  11  21  33  53  80 109 140 176 222 268 313
#     4  11  21  33  53  80 109 140 176 222 268 313
#     4   9  18  32  48  71 105 139 169 209 264 316
#
# _framework density 16.684417
#
# number of rings (size 3 to 8) (size 9 to 14) (size 15 to 20)
#    0.000    2.000    2.500    2.250    0.000    3.000 
#    0.000    1.250    0.000    0.000    0.000    0.875 
#    0.000    3.000    0.000    0.000    0.000    0.000 
#
# Total GULP energy -178427.574475 kJ/mol
# GULP energy per Si atom -5575.861702 kJ/mol
# Density = 1.664644 g / cm^3
# Si number density = 16.684417 Si / 1000 Ang^3
#
#
#
# Elastic Constant Matrix: (Units=GPa)
#
#
# Indices 1 2 3 4 5 6 
#
# 1 20.8432 9.5271 10.5624 0.0000 0.0000 0.0000
# 2 9.5271 116.8854 32.9584 0.0000 0.0000 0.0000
# 3 10.5624 32.9584 43.5441 0.0000 0.0000 0.0000
# 4 0.0000 0.0000 0.0000 25.3682 0.0000 0.0000
# 5 0.0000 0.0000 0.0000 0.0000 22.4895 0.0000
# 6 0.0000 0.0000 0.0000 0.0000 0.0000 10.7327
#
#
#
# Elastic Compliance Matrix: (Units=1/GPa)
#
#
# Indices 1 2 3 4 5 6 
#
# 1 0.054778 -0.000913 -0.012596 0.000000 0.000000 0.000000
# 2 -0.000913 0.010892 -0.008023 0.000000 0.000000 0.000000
# 3 -0.012596 -0.008023 0.032093 0.000000 0.000000 0.000000
# 4 0.000000 0.000000 0.000000 0.039419 0.000000 0.000000
# 5 0.000000 0.000000 0.000000 0.000000 0.044465 0.000000
# 6 0.000000 0.000000 0.000000 0.000000 0.000000 0.093173
#
#
# Mechanical properties :
#
#
# Convention : Reuss Voigt Hill
#
# Bulk Modulus (GPa) = 18.28188 31.92983 25.10586
# Shear Modulus (GPa) = 14.87575 20.26640 17.57107
#
# Velocity S-wave (km/s) = 2.98920 3.48902 3.24874
# Velocity P-wave (km/s) = 4.78487 5.95064 5.39931
#
# Compressibility (1/GPa) = 0.05469897
#
# Stress axis : x y z
#
# Youngs Moduli (GPa) = 18.25552 91.81088 31.15948
#
# Poissons Ratio (x) = 0.08383 0.39249
# Poissons Ratio (y) = 0.01667 0.24998
# Poissons Ratio (z) = 0.22995 0.73656
#
# Static dielectric constant tensor:
#      x y z
#    x 1.563180 0.000000 0.000000 
#    y 0.000000 1.554930 0.000000 
#    z 0.000000 0.000000 1.552790 
# 
# From -- ./inp_files/17581.got.cif
#   From: 2010.05.17/outbox.cif.g08.bks.cpg/sg23_9_cif.got.tgz:17581.got - 2010.06.04 12:02:01.
