data_PCOD9329709
_publ_section_title
;
Structure prediction by ZEFSAII (Michael W. Deem and Ramdas Pophale) SiO2 
 PCOD9329709
Probable space group: I 2 2 2
;
_chemical_formula_sum "Si O2"
_cell_formula_units_Z 40
_cell_length_a 8.720069
_cell_length_b 22.965103
_cell_length_c 9.035773
_cell_angle_alpha 90.000000
_cell_angle_beta 90.000000
_cell_angle_gamma 90.000000
_cell_volume 1809.479349
_symmetry_space_group_name_H-M "I 2 2 2"
_symmetry_group_IT_number 23
_symmetry_cell_setting 'orthorhombic'
loop_
_space_group_symop_operation_xyz
x,y,z
-x,-y,z
x,-y,-z
-x,y,-z
1/2+x,1/2+y,1/2+z
1/2-x,1/2-y,1/2+z
1/2+x,1/2-y,1/2-z
1/2-x,1/2+y,1/2-z
loop_
_atom_site_type_symbol
_atom_site_label
_atom_site_fract_x
_atom_site_fract_y
_atom_site_fract_z
Si Si1 0.500000 0.000000 0.500000
Si Si2 0.000000 0.000000 0.500000
Si Si3 0.375855 0.293638 0.381386
Si Si4 0.881371 0.801975 0.370780
Si Si5 0.247875 0.925264 0.667981
Si Si6 0.500000 0.000000 0.000000
Si Si7 0.247924 0.916846 0.026390
Si Si8 0.500000 0.500000 0.500000
O O1 0.605535 0.042010 0.600529
O O2 0.894644 0.038810 0.605231
O O3 0.500000 0.269619 0.500000
O O4 0.245557 0.247391 0.338102
O O5 0.495235 0.313753 0.257242
O O6 0.282975 0.350447 0.436008
O O7 0.782560 0.860286 0.393924
O O8 0.000000 0.784430 0.500000
O O9 0.253223 0.922127 0.847024
O O10 0.392321 0.046335 0.915589
O O11 0.107663 0.955468 0.085680
#
# Coordination Sequence:
#
# PCOD9329709 Si02
#       8
#     2   2   8   8   8   2   8   2
#     4  10  26  42  66 108 148 192 232 308 358 452
#     4  10  22  42  70 100 144 184 238 284 356 444
#     4  12  26  48  74 103 144 191 246 308 366 440
#     4  12  27  47  72 106 141 192 244 306 371 434
#     4  11  22  44  67 100 139 186 238 288 365 425
#     4  10  26  38  66 112 132 176 220 304 350 432
#     4  11  22  43  69 101 138 180 238 291 369 422
#     4  10  18  38  66  96 128 168 228 288 354 432
#
# _framework density 22.105806000000001
#
# number of rings (size 3 to 8) (size 9 to 14) (size 15 to 20)
#    0.000    0.800    4.000    2.400    2.800    1.600 
#    3.600    0.000    0.000    0.000    0.000    0.000 
#    0.000    0.000    0.000    0.000    0.000    0.000 
#
# Total GULP energy -111634.920268 kJ/mol
# GULP energy per Si atom -5581.746013 kJ/mol
# Density = 2.205549 g / cm^3
# Si number density = 22.105806 Si / 1000 Ang^3
#
#
#
# Elastic Constant Matrix: (Units=GPa)
#
#
# Indices 1 2 3 4 5 6 
#
# 1 165.4217 85.3356 30.6232 -0.0012 -0.0008 -0.0004
# 2 85.3356 183.4893 10.2811 -0.0018 -0.0017 -0.0006
# 3 30.6232 10.2811 62.9913 -0.0032 -0.0031 -0.0016
# 4 -0.0012 -0.0018 -0.0032 22.8898 -0.0003 -0.0001
# 5 -0.0008 -0.0017 -0.0031 -0.0003 25.1936 -0.0004
# 6 -0.0004 -0.0006 -0.0016 -0.0001 -0.0004 0.8703
#
#
#
# Elastic Compliance Matrix: (Units=1/GPa)
#
#
# Indices 1 2 3 4 5 6 
#
# 1 0.008693 -0.003841 -0.003599 0.000000 0.000000 -0.000006
# 2 -0.003841 0.007198 0.000693 0.000000 0.000000 0.000005
# 3 -0.003599 0.000693 0.017512 0.000002 0.000002 0.000032
# 4 0.000000 0.000000 0.000002 0.043688 0.000001 0.000005
# 5 0.000000 0.000000 0.000002 0.000001 0.039693 0.000020
# 6 -0.000006 0.000005 0.000032 0.000005 0.000020 1.148990
#
#
# Mechanical properties :
#
#
# Convention : Reuss Voigt Hill
#
# Bulk Modulus (GPa) = 50.23355 73.82023 62.02689
# Shear Modulus (GPa) = 3.88832 28.83491 16.36161
#
# Velocity S-wave (km/s) = 1.32770 3.61557 2.72352
# Velocity P-wave (km/s) = 5.01237 7.13417 6.16523
#
# Compressibility (1/GPa) = 0.01990701
#
# Stress axis : x y z
#
# Youngs Moduli (GPa) = 115.03527 138.93660 57.10408
#
# Poissons Ratio (x) = 0.53368 0.20553
# Poissons Ratio (y) = 0.44187 -0.03955
# Poissons Ratio (z) = 0.41403 -0.09624
#
# Static dielectric constant tensor:
#      x y z
#    x 1.827350 0.000000 -0.000010 
#    y 0.000000 1.790590 0.000000 
#    z -0.000010 0.000000 1.971290 
# 
# From -- ./inp_files/7003.got.cif
#   From: 2010.05.17/outbox.cif.g08.bks.cpg/sg23_4_cif.got.tgz:7003.got - 2010.06.04 12:02:01.
