data_PCOD9329645
_publ_section_title
;
Structure prediction by ZEFSAII (Michael W. Deem and Ramdas Pophale) SiO2 
 PCOD9329645
Probable space group: I 2 2 2
;
_chemical_formula_sum "Si O2"
_cell_formula_units_Z 48
_cell_length_a 21.667535
_cell_length_b 9.735566
_cell_length_c 13.201979
_cell_angle_alpha 90.000000
_cell_angle_beta 90.000000
_cell_angle_gamma 90.000000
_cell_volume 2784.900927
_symmetry_space_group_name_H-M "I 2 2 2"
_symmetry_group_IT_number 23
_symmetry_cell_setting 'orthorhombic'
loop_
_space_group_symop_operation_xyz
x,y,z
-x,-y,z
x,-y,-z
-x,y,-z
1/2+x,1/2+y,1/2+z
1/2-x,1/2-y,1/2+z
1/2+x,1/2-y,1/2-z
1/2-x,1/2+y,1/2-z
loop_
_atom_site_type_symbol
_atom_site_label
_atom_site_fract_x
_atom_site_fract_y
_atom_site_fract_z
Si Si1 0.128757 0.298650 0.287856
Si Si2 0.866426 0.728770 0.711247
Si Si3 0.786706 0.497700 0.389762
Si Si4 0.501541 0.834460 0.117996
Si Si5 0.331417 0.017554 0.381778
Si Si6 0.301471 0.489515 0.793440
O O1 0.160474 0.388289 0.376773
O O2 0.141833 0.391628 0.187460
O O3 0.057675 0.284146 0.318503
O O4 0.164122 0.154941 0.283882
O O5 0.819362 0.643728 0.640196
O O6 0.935477 0.706057 0.673277
O O7 0.854994 0.654930 0.821392
O O8 0.848532 0.886143 0.695424
O O9 0.760449 0.500000 0.500000
O O10 0.733992 0.524606 0.309890
O O11 0.500000 0.000000 0.117371
O O12 0.500000 0.788694 0.000000
O O13 0.256515 0.016836 0.370869
O O14 0.348017 0.000000 0.500000
#
# Coordination Sequence:
#
# PCOD9329645 Si02
#       6
#     8   8   8   8   8   8
#     4  10  21  36  54  82 111 140 180 223 267 314
#     4  10  21  36  54  82 111 140 180 223 267 314
#     4  10  18  34  59  79 103 146 185 217 264 319
#     4  11  20  37  61  79 102 140 183 222 263 319
#     4  10  20  36  58  80 108 146 184 218 260 318
#     4  10  22  35  51  82 119 140 169 225 274 319
#
# _framework density 17.235803000000001
#
# number of rings (size 3 to 8) (size 9 to 14) (size 15 to 20)
#    0.000    2.167    3.333    5.000    0.000    7.333 
#    0.000    2.500    0.000    0.000    0.000    3.500 
#    0.000    0.000    0.000    0.000    0.000    0.000 
#
# Total GULP energy -133732.315715 kJ/mol
# GULP energy per Si atom -5572.179821 kJ/mol
# Density = 1.719657 g / cm^3
# Si number density = 17.235803 Si / 1000 Ang^3
#
#
#
# Elastic Constant Matrix: (Units=GPa)
#
#
# Indices 1 2 3 4 5 6 
#
# 1 90.2640 5.3140 18.2822 0.0000 0.0000 0.0000
# 2 5.3140 61.0371 -6.4523 0.0000 0.0000 0.0000
# 3 18.2822 -6.4523 84.5513 0.0000 0.0000 0.0000
# 4 0.0000 0.0000 0.0000 -5.2819 0.0000 0.0000
# 5 0.0000 0.0000 0.0000 0.0000 0.3711 0.0000
# 6 0.0000 0.0000 0.0000 0.0000 0.0000 35.0537
#
#
#
# Elastic Compliance Matrix: (Units=1/GPa)
#
#
# Indices 1 2 3 4 5 6 
#
# 1 0.011687 -0.001295 -0.002626 0.000000 0.000000 0.000000
# 2 -0.001295 0.016660 0.001551 0.000000 0.000000 0.000000
# 3 -0.002626 0.001551 0.012513 0.000000 0.000000 0.000000
# 4 0.000000 0.000000 0.000000 -0.189325 0.000000 0.000000
# 5 0.000000 0.000000 0.000000 0.000000 2.694902 0.000000
# 6 0.000000 0.000000 0.000000 0.000000 0.000000 0.028528
#
#
# Mechanical properties :
#
#
# Convention : Reuss Voigt Hill
#
# Bulk Modulus (GPa) = 27.68446 30.01559 28.85003
# Shear Modulus (GPa) = 1.92920 20.60913 11.26917
#
# Velocity S-wave (km/s) = 1.05912 3.46166 2.55977
# Velocity P-wave (km/s) = 4.19436 5.78187 5.05087
#
# Compressibility (1/GPa) = 0.03612134
#
# Stress axis : x y z
#
# Youngs Moduli (GPa) = 85.56744 60.02316 79.91498
#
# Poissons Ratio (x) = 0.07773 0.20984
# Poissons Ratio (y) = 0.11081 -0.12398
# Poissons Ratio (z) = 0.22468 -0.09312
#
# Static dielectric constant tensor:
#      x y z
#    x 1.586460 0.000000 0.000000 
#    y 0.000000 1.629930 0.000000 
#    z 0.000000 0.000000 1.579850 
# 
# From -- ./inp_files/22314.got.cif
#   From: 2010.05.17/outbox.cif.g08.bks.cpg/sg23_12_cif.got.tgz:22314.got - 2010.06.04 12:02:01.
