data_PCOD9329642
_publ_section_title
;
Structure prediction by ZEFSAII (Michael W. Deem and Ramdas Pophale) SiO2 
 PCOD9329642
Probable space group: I 2 2 2
;
_chemical_formula_sum "Si O2"
_cell_formula_units_Z 32
_cell_length_a 21.826379
_cell_length_b 9.625771
_cell_length_c 7.426499
_cell_angle_alpha 90.000000
_cell_angle_beta 90.000000
_cell_angle_gamma 90.000000
_cell_volume 1560.275699
_symmetry_space_group_name_H-M "I 2 2 2"
_symmetry_group_IT_number 23
_symmetry_cell_setting 'orthorhombic'
loop_
_space_group_symop_operation_xyz
x,y,z
-x,-y,z
x,-y,-z
-x,y,-z
1/2+x,1/2+y,1/2+z
1/2-x,1/2-y,1/2+z
1/2+x,1/2-y,1/2-z
1/2-x,1/2+y,1/2-z
loop_
_atom_site_type_symbol
_atom_site_label
_atom_site_fract_x
_atom_site_fract_y
_atom_site_fract_z
Si Si1 0.266987 0.967867 0.749992
Si Si2 0.590736 0.011824 0.292662
Si Si3 0.433479 0.232055 0.006739
Si Si4 0.701900 0.694363 0.069555
O O1 0.335378 0.018579 0.707417
O O2 0.278982 0.855363 0.906656
O O3 0.239827 0.870818 0.592612
O O4 0.220977 0.098222 0.739603
O O5 0.569961 0.880481 0.171014
O O6 0.570825 0.000000 0.500000
O O7 0.570470 0.145300 0.179198
O O8 0.370442 0.315171 0.030836
O O9 0.500000 0.302974 0.000000
#
# Coordination Sequence:
#
# PCOD9329642 Si02
#       4
#     8   8   8   8
#     4  10  20  35  57  90 115 148 192 241 308 336
#     4  10  18  34  57  85 112 149 197 252 288 327
#     4  10  22  35  53  83 120 157 192 233 287 348
#     4  10  20  35  57  83 122 147 188 243 290 352
#
# _framework density 20.509195999999999
#
# number of rings (size 3 to 8) (size 9 to 14) (size 15 to 20)
#    0.000    2.000    2.500    3.000    0.000    5.000 
#    0.000    2.500    0.000    0.000    0.000    0.000 
#    0.000    0.000    0.000    0.000    0.000    0.000 
#
# Total GULP energy -89164.559390 kJ/mol
# GULP energy per Si atom -5572.784962 kJ/mol
# Density = 2.046252 g / cm^3
# Si number density = 20.509196 Si / 1000 Ang^3
#
#
#
# Elastic Constant Matrix: (Units=GPa)
#
#
# Indices 1 2 3 4 5 6 
#
# 1 192.8940 22.8520 26.5916 0.0000 0.0000 0.0000
# 2 22.8520 58.8963 5.4664 0.0000 0.0000 0.0000
# 3 26.5916 5.4664 116.0494 0.0000 0.0000 0.0000
# 4 0.0000 0.0000 0.0000 27.0259 0.0000 0.0000
# 5 0.0000 0.0000 0.0000 0.0000 0.0257 0.0000
# 6 0.0000 0.0000 0.0000 0.0000 0.0000 20.3977
#
#
#
# Elastic Compliance Matrix: (Units=1/GPa)
#
#
# Indices 1 2 3 4 5 6 
#
# 1 0.005591 -0.002060 -0.001184 0.000000 0.000000 0.000000
# 2 -0.002060 0.017812 -0.000367 0.000000 0.000000 0.000000
# 3 -0.001184 -0.000367 0.008906 0.000000 0.000000 0.000000
# 4 0.000000 0.000000 0.000000 0.037001 0.000000 0.000000
# 5 0.000000 0.000000 0.000000 0.000000 38.852417 0.000000
# 6 0.000000 0.000000 0.000000 0.000000 0.000000 0.049025
#
#
# Mechanical properties :
#
#
# Convention : Reuss Voigt Hill
#
# Bulk Modulus (GPa) = 39.86045 53.07331 46.46688
# Shear Modulus (GPa) = 0.12825 30.35186 15.24005
#
# Velocity S-wave (km/s) = 0.25034 3.85114 2.72891
# Velocity P-wave (km/s) = 4.42280 6.76084 5.71271
#
# Compressibility (1/GPa) = 0.02508752
#
# Stress axis : x y z
#
# Youngs Moduli (GPa) = 178.84472 56.14128 112.28809
#
# Poissons Ratio (x) = 0.11563 0.13297
# Poissons Ratio (y) = 0.36835 0.04122
# Poissons Ratio (z) = 0.21179 0.02061
#
# Static dielectric constant tensor:
#      x y z
#    x 1.728020 0.000000 0.000000 
#    y 0.000000 1.776600 0.000000 
#    z 0.000000 0.000000 1.753760 
# 
# From -- ./inp_files/11605.got.cif
#   From: 2010.05.17/outbox.cif.g08.bks.cpg/sg23_6_cif.got.tgz:11605.got - 2010.06.04 12:02:01.
