data_PCOD9329730
_publ_section_title
;
Structure prediction by ZEFSAII (Michael W. Deem and Ramdas Pophale) SiO2 
 PCOD9329730
Probable space group: I 2 2 2
;
_chemical_formula_sum "Si O2"
_cell_formula_units_Z 52
_cell_length_a 20.035864
_cell_length_b 14.850520
_cell_length_c 8.894160
_cell_angle_alpha 90.000000
_cell_angle_beta 90.000000
_cell_angle_gamma 90.000000
_cell_volume 2646.395040
_symmetry_space_group_name_H-M "I 2 2 2"
_symmetry_group_IT_number 23
_symmetry_cell_setting 'orthorhombic'
loop_
_space_group_symop_operation_xyz
x,y,z
-x,-y,z
x,-y,-z
-x,y,-z
1/2+x,1/2+y,1/2+z
1/2-x,1/2-y,1/2+z
1/2+x,1/2-y,1/2-z
1/2-x,1/2+y,1/2-z
loop_
_atom_site_type_symbol
_atom_site_label
_atom_site_fract_x
_atom_site_fract_y
_atom_site_fract_z
Si Si1 0.712689 0.500000 0.000000
Si Si2 0.838347 0.000000 0.000000
Si Si3 0.500000 0.615225 0.000000
Si Si4 0.775096 0.135644 0.239490
Si Si5 0.901776 0.256682 0.340322
Si Si6 0.496015 0.894057 0.319868
Si Si7 0.609276 0.593514 0.782217
Si Si8 0.370764 0.800369 0.172195
O O1 0.742328 0.426215 0.885883
O O2 0.670034 0.559420 0.884073
O O3 0.883676 0.051961 0.880495
O O4 0.795721 0.929786 0.899242
O O5 0.451454 0.678628 0.900104
O O6 0.546213 0.566167 0.880201
O O7 0.837524 0.203888 0.270598
O O8 0.706589 0.185304 0.205476
O O9 0.879494 0.306520 0.492749
O O10 0.945330 0.328417 0.244933
O O11 0.500000 0.886674 0.500000
O O12 0.424639 0.862252 0.255160
O O13 0.500000 0.000000 0.279721
O O14 0.610296 0.700200 0.776696
#
# Coordination Sequence:
#
# PCOD9329730 Si02
#       8
#     4   4   4   8   8   8   8   8
#     4  10  20  43  62  92 137 174 222 266 332 406
#     4  10  26  42  59 108 139 162 226 290 328 412
#     4  10  18  41  69  88 122 182 222 262 329 407
#     4  11  25  42  69 101 139 182 222 284 345 411
#     4  11  22  44  71  95 132 182 226 275 343 407
#     4  11  26  46  70 102 134 173 229 290 342 406
#     4  10  21  41  66  93 136 173 221 275 333 406
#     4  11  24  44  71  96 134 184 229 275 348 404
#
# _framework density 19.649373000000001
#
# number of rings (size 3 to 8) (size 9 to 14) (size 15 to 20)
#    0.000    1.385    6.154    0.000    4.308    4.000 
#    2.769    0.769    0.000    0.000    0.000    0.000 
#    0.000    0.000    0.000    0.000    0.000    0.000 
#
# Total GULP energy -145004.583350 kJ/mol
# GULP energy per Si atom -5577.099360 kJ/mol
# Density = 1.960465 g / cm^3
# Si number density = 19.649373 Si / 1000 Ang^3
#
#
#
# Elastic Constant Matrix: (Units=GPa)
#
#
# Indices 1 2 3 4 5 6 
#
# 1 124.2907 43.0306 47.5342 0.0000 0.0000 0.0000
# 2 43.0306 95.7558 43.4601 0.0000 0.0000 0.0000
# 3 47.5342 43.4601 130.7433 0.0000 0.0000 0.0000
# 4 0.0000 0.0000 0.0000 28.5512 0.0000 0.0000
# 5 0.0000 0.0000 0.0000 0.0000 58.6443 0.0000
# 6 0.0000 0.0000 0.0000 0.0000 0.0000 44.5358
#
#
#
# Elastic Compliance Matrix: (Units=1/GPa)
#
#
# Indices 1 2 3 4 5 6 
#
# 1 0.010216 -0.003421 -0.002577 0.000000 0.000000 0.000000
# 2 -0.003421 0.013444 -0.003225 0.000000 0.000000 0.000000
# 3 -0.002577 -0.003225 0.009658 0.000000 0.000000 0.000000
# 4 0.000000 0.000000 0.000000 0.035025 0.000000 0.000000
# 5 0.000000 0.000000 0.000000 0.000000 0.017052 0.000000
# 6 0.000000 0.000000 0.000000 0.000000 0.000000 0.022454
#
#
# Mechanical properties :
#
#
# Convention : Reuss Voigt Hill
#
# Bulk Modulus (GPa) = 67.24437 68.75996 68.00217
# Shear Modulus (GPa) = 38.09480 40.79727 39.44603
#
# Velocity S-wave (km/s) = 4.40788 4.56155 4.48537
# Velocity P-wave (km/s) = 7.75901 7.92547 7.84268
#
# Compressibility (1/GPa) = 0.01487113
#
# Stress axis : x y z
#
# Youngs Moduli (GPa) = 97.88962 74.38032 103.54617
#
# Poissons Ratio (x) = 0.25446 0.26682
# Poissons Ratio (y) = 0.33489 0.33396
# Poissons Ratio (z) = 0.25225 0.23989
#
# Static dielectric constant tensor:
#      x y z
#    x 1.676280 0.000000 0.000000 
#    y 0.000000 1.735710 0.000000 
#    z 0.000000 0.000000 1.650520 
# 
# From -- ./inp_files/12025.got.cif
#   From: 2010.05.17/outbox.cif.g08.bks.cpg/sg23_7_cif.got.tgz:12025.got - 2010.06.04 12:02:01.
