data_PCOD9329426
_publ_section_title
;
Structure prediction by ZEFSAII (Michael W. Deem and Ramdas Pophale) SiO2 
 PCOD9329426
Probable space group: I 2 2 2
;
_chemical_formula_sum "Si O2"
_cell_formula_units_Z 24
_cell_length_a 7.275152
_cell_length_b 17.997349
_cell_length_c 9.009676
_cell_angle_alpha 90.000000
_cell_angle_beta 90.000000
_cell_angle_gamma 90.000000
_cell_volume 1179.667958
_symmetry_space_group_name_H-M "I 2 2 2"
_symmetry_group_IT_number 23
_symmetry_cell_setting 'orthorhombic'
loop_
_space_group_symop_operation_xyz
x,y,z
-x,-y,z
x,-y,-z
-x,y,-z
1/2+x,1/2+y,1/2+z
1/2-x,1/2-y,1/2+z
1/2+x,1/2-y,1/2-z
1/2-x,1/2+y,1/2-z
loop_
_atom_site_type_symbol
_atom_site_label
_atom_site_fract_x
_atom_site_fract_y
_atom_site_fract_z
Si Si1 0.069247 0.357050 0.157110
Si Si2 0.290784 0.075371 0.936254
Si Si3 0.678979 0.215185 0.901784
O O1 0.179305 0.415119 0.260968
O O2 0.199680 0.286307 0.129683
O O3 0.899058 0.324315 0.253542
O O4 0.000000 0.386647 0.000000
O O5 0.500000 0.075771 0.000000
O O6 0.215342 0.151833 0.004086
O O7 0.207235 0.000000 0.000000
O O8 0.500000 0.236552 0.000000
#
# Coordination Sequence:
#
# PCOD9329426 Si02
#       3
#     8   8   8
#     4  10  17  29  51  76  98 130 166 201 242 290
#     4   8  16  31  47  69  99 125 158 205 249 287
#     4   9  18  30  48  74 102 128 161 204 244 290
#
# _framework density 20.344705999999999
#
# number of rings (size 3 to 8) (size 9 to 14) (size 15 to 20)
#    0.000    3.667    0.000    4.000    0.000    0.000 
#    0.000   13.333    0.000    9.000    0.000   11.667 
#    0.000    0.000    0.000    0.000    0.000    0.000 
#
# Total GULP energy -66857.940838 kJ/mol
# GULP energy per Si atom -5571.495070 kJ/mol
# Density = 2.029840 g / cm^3
# Si number density = 20.344706 Si / 1000 Ang^3
#
#
#
# Elastic Constant Matrix: (Units=GPa)
#
#
# Indices 1 2 3 4 5 6 
#
# 1 50.1949 15.8208 19.9030 0.0000 0.0000 0.0000
# 2 15.8208 101.0186 50.4749 0.0000 0.0000 0.0000
# 3 19.9030 50.4749 177.0102 0.0000 0.0000 0.0000
# 4 0.0000 0.0000 0.0000 15.8545 0.0000 0.0000
# 5 0.0000 0.0000 0.0000 0.0000 1.8932 0.0000
# 6 0.0000 0.0000 0.0000 0.0000 0.0000 1.1197
#
#
#
# Elastic Compliance Matrix: (Units=1/GPa)
#
#
# Indices 1 2 3 4 5 6 
#
# 1 0.021382 -0.002504 -0.001690 0.000000 0.000000 0.000000
# 2 -0.002504 0.011837 -0.003094 0.000000 0.000000 0.000000
# 3 -0.001690 -0.003094 0.006722 0.000000 0.000000 0.000000
# 4 0.000000 0.000000 0.000000 0.063074 0.000000 0.000000
# 5 0.000000 0.000000 0.000000 0.000000 0.528198 0.000001
# 6 0.000000 0.000000 0.000000 0.000000 0.000001 0.893127
#
#
# Mechanical properties :
#
#
# Convention : Reuss Voigt Hill
#
# Bulk Modulus (GPa) = 39.42534 55.62455 47.52495
# Shear Modulus (GPa) = 3.23129 19.90849 11.56989
#
# Velocity S-wave (km/s) = 1.26163 3.13159 2.38732
# Velocity P-wave (km/s) = 4.64145 6.36209 5.56863
#
# Compressibility (1/GPa) = 0.02536440
#
# Stress axis : x y z
#
# Youngs Moduli (GPa) = 46.76882 84.47928 148.77323
#
# Poissons Ratio (x) = 0.21155 0.25144
# Poissons Ratio (y) = 0.11712 0.46028
# Poissons Ratio (z) = 0.07904 0.26137
#
# Static dielectric constant tensor:
#      x y z
#    x 1.760760 0.000000 0.000000 
#    y 0.000000 1.813090 0.000000 
#    z 0.000000 0.000000 1.781880 
# 
# From -- ./inp_files/6192.got.cif
#   From: 2010.05.17/outbox.cif.g08.bks.cpg/sg23_4_cif.got.tgz:6192.got - 2010.06.04 12:02:01.
