data_PCOD9329480
_publ_section_title
;
Structure prediction by ZEFSAII (Michael W. Deem and Ramdas Pophale) SiO2 
 PCOD9329480
Probable space group: I 2 2 2
;
_chemical_formula_sum "Si O2"
_cell_formula_units_Z 54
_cell_length_a 20.686626
_cell_length_b 7.835218
_cell_length_c 14.750293
_cell_angle_alpha 90.000000
_cell_angle_beta 90.000000
_cell_angle_gamma 90.000000
_cell_volume 2390.789800
_symmetry_space_group_name_H-M "I 2 2 2"
_symmetry_group_IT_number 23
_symmetry_cell_setting 'orthorhombic'
loop_
_space_group_symop_operation_xyz
x,y,z
-x,-y,z
x,-y,-z
-x,y,-z
1/2+x,1/2+y,1/2+z
1/2-x,1/2-y,1/2+z
1/2+x,1/2-y,1/2-z
1/2-x,1/2+y,1/2-z
loop_
_atom_site_type_symbol
_atom_site_label
_atom_site_fract_x
_atom_site_fract_y
_atom_site_fract_z
Si Si1 0.000000 0.000000 0.277941
Si Si2 0.717599 0.510403 0.247534
Si Si3 0.108374 0.393177 0.120953
Si Si4 0.836606 0.573872 0.622209
Si Si5 0.000000 0.500000 0.000000
Si Si6 0.746188 0.834140 0.559879
Si Si7 0.612262 0.261631 0.180184
Si Si8 0.606202 0.741567 0.287876
O O1 0.040688 0.866337 0.216877
O O2 0.946308 0.894076 0.335646
O O3 0.778349 0.471870 0.308905
O O4 0.742499 0.621609 0.164818
O O5 0.679597 0.360551 0.195697
O O6 0.664669 0.611299 0.305654
O O7 0.168422 0.316035 0.063821
O O8 0.099831 0.309410 0.218582
O O9 0.114006 0.595654 0.146984
O O10 0.045011 0.383524 0.061515
O O11 0.796763 0.679216 0.545512
O O12 0.877373 0.398494 0.613252
O O13 0.882628 0.695127 0.683374
O O14 0.761295 0.000000 0.500000
#
# Coordination Sequence:
#
# PCOD9329480 Si02
#       8
#     4   8   8   8   2   8   8   8
#     4  10  20  32  50  87 115 144 194 278 322 374
#     4  10  17  34  61  86 111 155 216 282 327 376
#     4  11  20  35  53  78 114 177 222 255 299 383
#     4  10  18  33  58  86 111 163 216 271 326 382
#     4  12  24  32  52  78 132 184 214 236 304 376
#     4  11  21  35  55  88 124 160 210 278 349 394
#     4  10  19  34  60  83 114 154 221 278 312 377
#     4   9  19  32  55  82 113 155 209 266 308 368
#
# _framework density 22.586677999999999
#
# number of rings (size 3 to 8) (size 9 to 14) (size 15 to 20)
#    0.000    1.778    5.185    1.778    0.000    1.778 
#    0.000    0.741    0.000   21.333    0.000   42.000 
#    0.000   49.778    0.000    0.000    0.000    0.000 
#
# Total GULP energy -150566.887407 kJ/mol
# GULP energy per Si atom -5576.551385 kJ/mol
# Density = 2.253527 g / cm^3
# Si number density = 22.586678 Si / 1000 Ang^3
#
#
#
# Elastic Constant Matrix: (Units=GPa)
#
#
# Indices 1 2 3 4 5 6 
#
# 1 110.4465 43.5413 24.0528 0.0000 0.0000 0.0000
# 2 43.5413 107.9524 7.9215 0.0000 0.0000 0.0000
# 3 24.0528 7.9215 39.9568 0.0000 0.0000 0.0000
# 4 0.0000 0.0000 0.0000 25.9523 0.0000 0.0000
# 5 0.0000 0.0000 0.0000 0.0000 25.8053 0.0000
# 6 0.0000 0.0000 0.0000 0.0000 0.0000 41.4830
#
#
#
# Elastic Compliance Matrix: (Units=1/GPa)
#
#
# Indices 1 2 3 4 5 6 
#
# 1 0.012220 -0.004454 -0.006473 0.000000 0.000000 0.000000
# 2 -0.004454 0.011023 0.000496 0.000000 0.000000 0.000000
# 3 -0.006473 0.000496 0.028825 0.000000 0.000000 0.000000
# 4 0.000000 0.000000 0.000000 0.038532 0.000000 0.000000
# 5 0.000000 0.000000 0.000000 0.000000 0.038752 0.000000
# 6 0.000000 0.000000 0.000000 0.000000 0.000000 0.024106
#
#
# Mechanical properties :
#
#
# Convention : Reuss Voigt Hill
#
# Bulk Modulus (GPa) = 32.04489 45.48744 38.76617
# Shear Modulus (GPa) = 27.06766 30.83747 28.95257
#
# Velocity S-wave (km/s) = 3.46553 3.69900 3.58417
# Velocity P-wave (km/s) = 5.49832 6.19889 5.85909
#
# Compressibility (1/GPa) = 0.03120623
#
# Stress axis : x y z
#
# Youngs Moduli (GPa) = 81.83595 90.71698 34.69180
#
# Poissons Ratio (x) = 0.40402 0.22456
# Poissons Ratio (y) = 0.36447 -0.01719
# Poissons Ratio (z) = 0.52971 -0.04496
#
# Static dielectric constant tensor:
#      x y z
#    x 1.876540 0.000000 0.000000 
#    y 0.000000 1.999860 0.000000 
#    z 0.000000 0.000000 1.825150 
# 
# From -- ./inp_files/25252.got.cif
#   From: 2010.05.17/outbox.cif.g08.bks.cpg/sg23_13_cif.got.tgz:25252.got - 2010.06.04 12:02:01.
