data_PCOD9329789
_publ_section_title
;
Structure prediction by ZEFSAII (Michael W. Deem and Ramdas Pophale) SiO2 
 PCOD9329789
Probable space group: I 2 2 2
;
_chemical_formula_sum "Si O2"
_cell_formula_units_Z 52
_cell_length_a 12.150540
_cell_length_b 8.551083
_cell_length_c 27.528712
_cell_angle_alpha 90.000000
_cell_angle_beta 90.000000
_cell_angle_gamma 90.000000
_cell_volume 2860.240776
_symmetry_space_group_name_H-M "I 2 2 2"
_symmetry_group_IT_number 23
_symmetry_cell_setting 'orthorhombic'
loop_
_space_group_symop_operation_xyz
x,y,z
-x,-y,z
x,-y,-z
-x,y,-z
1/2+x,1/2+y,1/2+z
1/2-x,1/2-y,1/2+z
1/2+x,1/2-y,1/2-z
1/2-x,1/2+y,1/2-z
loop_
_atom_site_type_symbol
_atom_site_label
_atom_site_fract_x
_atom_site_fract_y
_atom_site_fract_z
Si Si1 0.923352 0.760367 0.369325
Si Si2 0.870059 0.524428 0.442761
Si Si3 0.000000 0.000000 0.831961
Si Si4 0.787439 0.145041 0.870460
Si Si5 0.843847 0.457643 0.712105
Si Si6 0.144400 0.902484 0.347814
Si Si7 0.633245 0.277373 0.741742
O O1 0.860080 0.691192 0.415859
O O2 0.923518 0.635561 0.324925
O O3 0.047295 0.819863 0.379234
O O4 0.859316 0.913947 0.352776
O O5 0.859409 0.500000 0.500000
O O6 0.780089 0.416811 0.416577
O O7 0.000000 0.500000 0.430655
O O8 0.940845 0.867830 0.798066
O O9 0.089016 0.911910 0.865246
O O10 0.759494 0.326172 0.862647
O O11 0.727661 0.063479 0.824520
O O12 0.760846 0.326320 0.732692
O O13 0.881764 0.589335 0.751198
O O14 0.109553 0.857625 0.293405
#
# Coordination Sequence:
#
# PCOD9329789 Si02
#       7
#     8   8   4   8   8   8   8
#     4  10  19  33  51  79 111 147 175 236 297 333
#     4  10  19  35  60  83 107 137 184 238 293 360
#     4  10  20  36  55  80 120 152 201 234 266 344
#     4   9  19  35  54  78 110 149 181 232 285 331
#     4   9  19  32  51  70 106 140 190 227 270 311
#     4  10  19  31  52  76 117 152 183 226 282 338
#     4  10  19  32  49  77 105 152 193 231 263 316
#
# _framework density 18.180288000000001
#
# number of rings (size 3 to 8) (size 9 to 14) (size 15 to 20)
#    0.000    2.308    1.538    1.846    0.000    2.462 
#    0.000    7.308    0.000   12.923    0.000    0.000 
#    0.000   14.769    0.000    0.000    0.000    0.000 
#
# Total GULP energy -144749.286323 kJ/mol
# GULP energy per Si atom -5567.280243 kJ/mol
# Density = 1.813891 g / cm^3
# Si number density = 18.180288 Si / 1000 Ang^3
#
#
#
# Elastic Constant Matrix: (Units=GPa)
#
#
# Indices 1 2 3 4 5 6 
#
# 1 84.5748 46.4087 34.4430 0.0000 0.0000 0.0000
# 2 46.4087 133.4232 36.3314 0.0000 0.0000 0.0000
# 3 34.4430 36.3314 76.8449 0.0000 0.0000 0.0000
# 4 0.0000 0.0000 0.0000 8.4593 0.0000 0.0000
# 5 0.0000 0.0000 0.0000 0.0000 17.5141 0.0000
# 6 0.0000 0.0000 0.0000 0.0000 0.0000 23.4800
#
#
#
# Elastic Compliance Matrix: (Units=1/GPa)
#
#
# Indices 1 2 3 4 5 6 
#
# 1 0.016305 -0.004225 -0.005311 0.000000 0.000000 0.000000
# 2 -0.004225 0.009697 -0.002691 0.000000 0.000000 0.000000
# 3 -0.005311 -0.002691 0.016666 0.000000 0.000000 0.000000
# 4 0.000000 0.000000 0.000000 0.118213 0.000000 0.000000
# 5 0.000000 0.000000 0.000000 0.000000 0.057097 0.000000
# 6 0.000000 0.000000 0.000000 0.000000 0.000000 0.042589
#
#
# Mechanical properties :
#
#
# Convention : Reuss Voigt Hill
#
# Bulk Modulus (GPa) = 54.90092 58.80101 56.85097
# Shear Modulus (GPa) = 17.17663 21.73465 19.45564
#
# Velocity S-wave (km/s) = 3.07709 3.46136 3.27486
# Velocity P-wave (km/s) = 6.54891 6.95616 6.75560
#
# Compressibility (1/GPa) = 0.01821463
#
# Stress axis : x y z
#
# Youngs Moduli (GPa) = 61.33040 103.12027 60.00335
#
# Poissons Ratio (x) = 0.43572 0.31865
# Poissons Ratio (y) = 0.25914 0.16147
# Poissons Ratio (z) = 0.32570 0.27749
#
# Static dielectric constant tensor:
#      x y z
#    x 1.731910 0.000000 0.000000 
#    y 0.000000 1.686830 0.000000 
#    z 0.000000 0.000000 1.630260 
# 
# From -- ./inp_files/29427.got.cif
#   From: 2010.05.17/outbox.cif.g08.bks.cpg/sg23_15_cif.got.tgz:29427.got - 2010.06.04 12:02:01.
