data_PCOD9329597
_publ_section_title
;
Structure prediction by ZEFSAII (Michael W. Deem and Ramdas Pophale) SiO2 
 PCOD9329597
Probable space group: I 2 2 2
;
_chemical_formula_sum "Si O2"
_cell_formula_units_Z 64
_cell_length_a 12.182171
_cell_length_b 29.643120
_cell_length_c 7.414195
_cell_angle_alpha 90.000000
_cell_angle_beta 90.000000
_cell_angle_gamma 90.000000
_cell_volume 2677.395984
_symmetry_space_group_name_H-M "I 2 2 2"
_symmetry_group_IT_number 23
_symmetry_cell_setting 'orthorhombic'
loop_
_space_group_symop_operation_xyz
x,y,z
-x,-y,z
x,-y,-z
-x,y,-z
1/2+x,1/2+y,1/2+z
1/2-x,1/2-y,1/2+z
1/2+x,1/2-y,1/2-z
1/2-x,1/2+y,1/2-z
loop_
_atom_site_type_symbol
_atom_site_label
_atom_site_fract_x
_atom_site_fract_y
_atom_site_fract_z
Si Si1 0.267342 0.060392 0.324765
Si Si2 0.053660 0.731641 0.169566
Si Si3 0.413439 0.838686 0.160329
Si Si4 0.985404 0.434722 0.716157
Si Si5 0.805907 0.866864 0.794278
Si Si6 0.249142 0.465625 0.233470
Si Si7 0.503365 0.319138 0.197707
Si Si8 0.759642 0.163172 0.627604
O O1 0.399786 0.058740 0.312277
O O2 0.227801 0.047734 0.525713
O O3 0.245391 0.112803 0.284643
O O4 0.219911 0.016987 0.215748
O O5 0.156147 0.697409 0.151951
O O6 0.947880 0.701800 0.216559
O O7 0.063379 0.771744 0.312661
O O8 0.000000 0.757964 0.000000
O O9 0.439853 0.885118 0.262542
O O10 0.289067 0.841073 0.095727
O O11 0.500000 0.836381 0.000000
O O12 0.883329 0.466327 0.754481
O O13 0.000000 0.436213 0.500000
O O14 0.791070 0.920254 0.830318
O O15 0.773427 0.850186 0.587226
O O16 0.928916 0.850651 0.821821
O O17 0.633268 0.313805 0.216298
O O18 0.500000 0.341971 0.000000
#
# Coordination Sequence:
#
# PCOD9329597 Si02
#       8
#     8   8   8   8   8   8   8   8
#     4  10  18  33  52  82 111 149 193 237 284 356
#     4  12  23  38  60  87 117 153 196 248 301 355
#     4  10  20  35  56  86 113 153 190 235 298 353
#     4  10  19  30  47  79 117 148 183 231 289 346
#     4   9  19  40  60  82 119 154 195 245 299 353
#     4   9  19  31  55  79 112 152 190 233 293 349
#     4  10  24  42  60  83 114 161 202 250 298 356
#     4  10  21  38  62  83 118 154 199 245 300 354
#
# _framework density 23.903822000000002
#
# number of rings (size 3 to 8) (size 9 to 14) (size 15 to 20)
#    0.000    2.000    2.500    1.125    1.750    2.000 
#    2.250    0.625    0.000    3.750    0.000    0.000 
#    0.000    3.250    0.000    0.000    0.000    0.000 
#
# Total GULP energy -178263.892942 kJ/mol
# GULP energy per Si atom -5570.746654 kJ/mol
# Density = 2.384942 g / cm^3
# Si number density = 23.903822 Si / 1000 Ang^3
#
#
#
# Elastic Constant Matrix: (Units=GPa)
#
#
# Indices 1 2 3 4 5 6 
#
# 1 105.9502 56.8856 26.1543 -0.0028 -0.0045 0.0017
# 2 56.8856 128.2256 2.5340 -0.0062 0.0039 0.0027
# 3 26.1543 2.5340 35.1079 -0.0149 -0.0048 0.0089
# 4 -0.0028 -0.0062 -0.0149 20.1704 0.0058 0.0025
# 5 -0.0045 0.0039 -0.0048 0.0058 24.1425 -0.0039
# 6 0.0017 0.0027 0.0089 0.0025 -0.0039 22.5795
#
#
#
# Elastic Compliance Matrix: (Units=1/GPa)
#
#
# Indices 1 2 3 4 5 6 
#
# 1 0.015913 -0.006835 -0.011361 -0.000008 0.000002 0.000004
# 2 -0.006835 0.010746 0.004316 0.000006 -0.000002 -0.000003
# 3 -0.011361 0.004316 0.036636 0.000027 0.000004 -0.000014
# 4 -0.000008 0.000006 0.000027 0.049578 -0.000012 -0.000005
# 5 0.000002 -0.000002 0.000004 -0.000012 0.041421 0.000007
# 6 0.000004 -0.000003 -0.000014 -0.000005 0.000007 0.044288
#
#
# Mechanical properties :
#
#
# Convention : Reuss Voigt Hill
#
# Bulk Modulus (GPa) = 28.14171 48.93685 38.53928
# Shear Modulus (GPa) = 20.99209 25.62580 23.30894
#
# Velocity S-wave (km/s) = 2.96664 3.27775 3.12607
# Velocity P-wave (km/s) = 4.85109 5.90269 5.40253
#
# Compressibility (1/GPa) = 0.03553445
#
# Stress axis : x y z
#
# Youngs Moduli (GPa) = 62.84297 93.06067 27.29571
#
# Poissons Ratio (x) = 0.63606 0.31011
# Poissons Ratio (y) = 0.42953 -0.11781
# Poissons Ratio (z) = 0.71397 -0.40167
#
# Static dielectric constant tensor:
#      x y z
#    x 1.915690 0.000000 0.000000 
#    y 0.000000 1.965420 0.000000 
#    z 0.000000 0.000000 2.211060 
# 
# From -- ./inp_files/8966.got.cif
#   From: 2010.05.17/outbox.cif.g08.bks.cpg/sg23_5_cif.got.tgz:8966.got - 2010.06.04 12:02:01.
