data_PCOD9329461
_publ_section_title
;
Structure prediction by ZEFSAII (Michael W. Deem and Ramdas Pophale) SiO2 
 PCOD9329461
Probable space group: I 2 2 2
;
_chemical_formula_sum "Si O2"
_cell_formula_units_Z 48
_cell_length_a 6.894978
_cell_length_b 18.245053
_cell_length_c 13.737416
_cell_angle_alpha 90.000000
_cell_angle_beta 90.000000
_cell_angle_gamma 90.000000
_cell_volume 1728.156479
_symmetry_space_group_name_H-M "I 2 2 2"
_symmetry_group_IT_number 23
_symmetry_cell_setting 'orthorhombic'
loop_
_space_group_symop_operation_xyz
x,y,z
-x,-y,z
x,-y,-z
-x,y,-z
1/2+x,1/2+y,1/2+z
1/2-x,1/2-y,1/2+z
1/2+x,1/2-y,1/2-z
1/2-x,1/2+y,1/2-z
loop_
_atom_site_type_symbol
_atom_site_label
_atom_site_fract_x
_atom_site_fract_y
_atom_site_fract_z
Si Si1 0.230743 0.177802 0.416196
Si Si2 0.732045 0.015431 0.611737
Si Si3 0.656302 0.823177 0.819045
Si Si4 0.267911 0.021923 0.826942
Si Si5 0.675617 0.119181 0.917611
Si Si6 0.178632 0.276570 0.108375
O O1 0.204996 0.099257 0.370983
O O2 0.124180 0.250184 0.380883
O O3 0.212092 0.171579 0.532411
O O4 0.454292 0.200891 0.397249
O O5 0.790297 0.977463 0.713318
O O6 0.500000 0.000000 0.609101
O O7 0.793306 0.000000 0.500000
O O8 0.442467 0.858501 0.818497
O O9 0.737335 0.794953 0.717693
O O10 0.773197 0.894090 0.858057
O O11 0.202983 0.954143 0.894885
O O12 0.500000 0.000000 0.832056
O O13 0.797426 0.193486 0.929235
O O14 0.500000 0.111513 0.000000
#
# Coordination Sequence:
#
# PCOD9329461 Si02
#       6
#     8   8   8   8   8   8
#     4  11  22  36  59  91 121 155 200 263 318 362
#     4  10  17  32  56  89 118 150 197 252 311 359
#     4  11  21  38  60  90 119 160 205 261 315 363
#     4   9  19  33  56  83 115 156 207 248 298 365
#     4  11  22  40  59  89 122 169 210 255 316 382
#     4  11  21  37  58  86 123 155 205 258 313 381
#
# _framework density 27.775261
#
# number of rings (size 3 to 8) (size 9 to 14) (size 15 to 20)
#    0.000    1.500    1.667    8.000    0.000    3.000 
#    0.000    0.833    0.000    2.000    0.000   16.333 
#    0.000    0.000    0.000    0.000    0.000    0.000 
#
# Total GULP energy -133972.304894 kJ/mol
# GULP energy per Si atom -5582.179371 kJ/mol
# Density = 2.771204 g / cm^3
# Si number density = 27.775261 Si / 1000 Ang^3
#
#
#
# Elastic Constant Matrix: (Units=GPa)
#
#
# Indices 1 2 3 4 5 6 
#
# 1 71.3426 9.5142 -0.5937 0.0000 0.0000 0.0000
# 2 9.5142 197.9469 43.2249 0.0000 0.0000 0.0000
# 3 -0.5937 43.2249 126.0014 0.0000 0.0000 0.0000
# 4 0.0000 0.0000 0.0000 54.1707 0.0000 0.0000
# 5 0.0000 0.0000 0.0000 0.0000 3.0003 0.0000
# 6 0.0000 0.0000 0.0000 0.0000 0.0000 33.5216
#
#
#
# Elastic Compliance Matrix: (Units=1/GPa)
#
#
# Indices 1 2 3 4 5 6 
#
# 1 0.014119 -0.000749 0.000324 0.000000 0.000000 0.000000
# 2 -0.000749 0.005501 -0.001891 0.000000 0.000000 0.000000
# 3 0.000324 -0.001891 0.008587 0.000000 0.000000 0.000000
# 4 0.000000 0.000000 0.000000 0.018460 0.000000 0.000000
# 5 0.000000 0.000000 0.000000 0.000000 0.333303 0.000000
# 6 0.000000 0.000000 0.000000 0.000000 0.000000 0.029832
#
#
# Mechanical properties :
#
#
# Convention : Reuss Voigt Hill
#
# Bulk Modulus (GPa) = 42.41935 55.50907 48.96421
# Shear Modulus (GPa) = 11.84015 41.01487 26.42751
#
# Velocity S-wave (km/s) = 2.06690 3.84691 3.08795
# Velocity P-wave (km/s) = 4.58275 6.30556 5.51189
#
# Compressibility (1/GPa) = 0.02357415
#
# Stress axis : x y z
#
# Youngs Moduli (GPa) = 70.82409 181.79476 116.46184
#
# Poissons Ratio (x) = 0.13622 -0.03768
# Poissons Ratio (y) = 0.05307 0.22018
# Poissons Ratio (z) = -0.02292 0.34369
#
# Static dielectric constant tensor:
#      x y z
#    x 1.423270 0.000000 0.000000 
#    y 0.000000 2.195460 0.000000 
#    z 0.000000 0.000000 2.175190 
# 
# From -- ./inp_files/20004.got.cif
#   From: 2010.05.17/outbox.cif.g08.bks.cpg/sg23_11_cif.got.tgz:20004.got - 2010.06.04 12:02:01.
