data_PCOD9329334
_publ_section_title
;
Structure prediction by ZEFSAII (Michael W. Deem and Ramdas Pophale) SiO2 
 PCOD9329334
Probable space group: I 2 2 2
;
_chemical_formula_sum "Si O2"
_cell_formula_units_Z 64
_cell_length_a 31.298744
_cell_length_b 7.244589
_cell_length_c 15.064178
_cell_angle_alpha 90.000000
_cell_angle_beta 90.000000
_cell_angle_gamma 90.000000
_cell_volume 3415.750187
_symmetry_space_group_name_H-M "I 2 2 2"
_symmetry_group_IT_number 23
_symmetry_cell_setting 'orthorhombic'
loop_
_space_group_symop_operation_xyz
x,y,z
-x,-y,z
x,-y,-z
-x,y,-z
1/2+x,1/2+y,1/2+z
1/2-x,1/2-y,1/2+z
1/2+x,1/2-y,1/2-z
1/2-x,1/2+y,1/2-z
loop_
_atom_site_type_symbol
_atom_site_label
_atom_site_fract_x
_atom_site_fract_y
_atom_site_fract_z
Si Si1 0.201985 0.228487 0.818089
Si Si2 0.135799 0.253022 0.675502
Si Si3 0.780388 0.293105 0.995872
Si Si4 0.184168 0.277507 0.496854
Si Si5 0.452266 0.781414 0.107921
Si Si6 0.634627 0.201344 0.178716
Si Si7 0.048009 0.730254 0.401672
Si Si8 0.787059 0.332397 0.796493
O O1 0.160440 0.177745 0.760775
O O2 0.204775 0.451610 0.813690
O O3 0.245441 0.170693 0.767006
O O4 0.199958 0.179479 0.922306
O O5 0.164790 0.212127 0.589494
O O6 0.134389 0.477089 0.681043
O O7 0.087386 0.196040 0.655439
O O8 0.780423 0.237918 0.892395
O O9 0.799083 0.500000 0.000000
O O10 0.730505 0.301944 0.021407
O O11 0.188970 0.500000 0.500000
O O12 0.152628 0.238662 0.416642
O O13 0.414428 0.733834 0.176106
O O14 0.500346 0.717887 0.128314
O O15 0.451656 0.005932 0.103023
O O16 0.444718 0.722146 0.005444
O O17 0.671118 0.251226 0.249263
#
# Coordination Sequence:
#
# PCOD9329334 Si02
#       8
#     8   8   8   8   8   8   8   8
#     4  10  19  29  41  57  79 106 136 165 195 232
#     4   9  15  23  36  55  77 104 132 157 192 235
#     4  10  20  30  38  55  82 107 134 168 198 225
#     4  10  16  24  41  60  78 103 135 165 192 227
#     4   8  12  18  30  51  78 100 119 153 198 235
#     4   9  15  23  36  55  77 104 132 157 192 235
#     4   8  12  18  30  51  78 100 119 153 198 235
#     4  10  19  29  41  57  79 106 136 165 195 232
#
# _framework density 18.736733999999998
#
# number of rings (size 3 to 8) (size 9 to 14) (size 15 to 20)
#    0.000    2.750    3.750    0.750    0.000    0.000 
#    0.000    0.000    0.000    0.000    0.000    0.875 
#    0.000   12.000    0.000    0.000    0.000    4.500 
#
# Total GULP energy -178415.965005 kJ/mol
# GULP energy per Si atom -5575.498906 kJ/mol
# Density = 1.869409 g / cm^3
# Si number density = 18.736734 Si / 1000 Ang^3
#
#
#
# Elastic Constant Matrix: (Units=GPa)
#
#
# Indices 1 2 3 4 5 6 
#
# 1 123.7864 -19.1615 35.1901 0.0000 0.0000 0.0000
# 2 -19.1615 60.8014 -17.3741 0.0000 0.0000 0.0000
# 3 35.1901 -17.3741 87.8433 0.0000 0.0000 0.0000
# 4 0.0000 0.0000 0.0000 0.1007 0.0000 0.0000
# 5 0.0000 0.0000 0.0000 0.0000 26.8920 0.0000
# 6 0.0000 0.0000 0.0000 0.0000 0.0000 0.0863
#
#
#
# Elastic Compliance Matrix: (Units=1/GPa)
#
#
# Indices 1 2 3 4 5 6 
#
# 1 0.009338 0.001986 -0.003348 0.000000 0.000000 0.000000
# 2 0.001986 0.017855 0.002736 0.000000 0.000000 0.000000
# 3 -0.003348 0.002736 0.013266 0.000000 0.000000 0.000000
# 4 0.000000 0.000000 0.000000 9.926923 0.000000 0.000000
# 5 0.000000 0.000000 0.000000 0.000000 0.037186 0.000000
# 6 0.000000 0.000000 0.000000 0.000000 0.000000 11.591016
#
#
# Mechanical properties :
#
#
# Convention : Reuss Voigt Hill
#
# Bulk Modulus (GPa) = 23.14474 29.97113 26.55794
# Shear Modulus (GPa) = 0.23140 23.66756 11.94948
#
# Velocity S-wave (km/s) = 0.35181 3.55796 2.52812
# Velocity P-wave (km/s) = 3.54181 5.73667 4.76728
#
# Compressibility (1/GPa) = 0.04320637
#
# Stress axis : x y z
#
# Youngs Moduli (GPa) = 107.09398 56.00787 75.37985
#
# Poissons Ratio (x) = -0.11124 0.25236
# Poissons Ratio (y) = -0.21270 -0.20622
# Poissons Ratio (z) = 0.35853 -0.15322
#
# Static dielectric constant tensor:
#      x y z
#    x 1.653220 0.000000 0.000000 
#    y 0.000000 1.782700 0.000000 
#    z 0.000000 0.000000 1.666780 
# 
# From -- ./inp_files/22813.got.cif
#   From: 2010.05.17/outbox.cif.g08.bks.cpg/sg23_12_cif.got.tgz:22813.got - 2010.06.04 12:02:01.
