data_PCOD9329551
_publ_section_title
;
Structure prediction by ZEFSAII (Michael W. Deem and Ramdas Pophale) SiO2 
 PCOD9329551
Probable space group: I 2 2 2
;
_chemical_formula_sum "Si O2"
_cell_formula_units_Z 56
_cell_length_a 21.016637
_cell_length_b 15.401310
_cell_length_c 7.088945
_cell_angle_alpha 90.000000
_cell_angle_beta 90.000000
_cell_angle_gamma 90.000000
_cell_volume 2294.576242
_symmetry_space_group_name_H-M "I 2 2 2"
_symmetry_group_IT_number 23
_symmetry_cell_setting 'orthorhombic'
loop_
_space_group_symop_operation_xyz
x,y,z
-x,-y,z
x,-y,-z
-x,y,-z
1/2+x,1/2+y,1/2+z
1/2-x,1/2-y,1/2+z
1/2+x,1/2-y,1/2-z
1/2-x,1/2+y,1/2-z
loop_
_atom_site_type_symbol
_atom_site_label
_atom_site_fract_x
_atom_site_fract_y
_atom_site_fract_z
Si Si1 0.294008 0.032795 0.175792
Si Si2 0.515669 0.256341 0.782139
Si Si3 0.249474 0.140076 0.612120
Si Si4 0.849015 0.289522 0.319370
Si Si5 0.669706 0.421575 0.262610
Si Si6 0.123955 0.735074 0.771293
Si Si7 0.060299 0.956707 0.290501
O O1 0.325192 0.118025 0.255021
O O2 0.228554 0.075084 0.096785
O O3 0.273525 0.950447 0.296543
O O4 0.334487 0.000000 0.000000
O O5 0.582216 0.216041 0.727103
O O6 0.451069 0.221643 0.686406
O O7 0.539334 0.357375 0.786089
O O8 0.500000 0.238202 0.000000
O O9 0.200192 0.209338 0.709461
O O10 0.206505 0.104251 0.434485
O O11 0.316103 0.195448 0.614800
O O12 0.859642 0.288391 0.549993
O O13 0.625747 0.339546 0.293175
O O14 0.628414 0.509140 0.278350
O O15 0.063063 0.000000 0.500000
O O16 0.000000 0.000000 0.194207
#
# Coordination Sequence:
#
# PCOD9329551 Si02
#       7
#     8   8   8   8   8   8   8
#     4  12  23  38  59  89 124 160 209 259 310 370
#     4  10  18  31  56  86 126 158 203 266 322 372
#     4  11  22  38  61  89 128 162 210 257 316 390
#     4  10  21  37  57  87 124 161 206 259 315 372
#     4  11  22  37  59  92 125 163 204 259 326 382
#     4  10  19  36  59  91 124 162 202 258 321 376
#     4  11  16  28  52  90 122 154 206 268 319 380
#
# _framework density 24.405376
#
# number of rings (size 3 to 8) (size 9 to 14) (size 15 to 20)
#    0.000    1.286    5.714    3.857    0.000    0.000 
#    0.000    0.714    0.000    1.286    0.000    2.000 
#    0.000    0.000    0.000    0.000    0.000    0.000 
#
# Total GULP energy -155894.154812 kJ/mol
# GULP energy per Si atom -5567.648386 kJ/mol
# Density = 2.434983 g / cm^3
# Si number density = 24.405376 Si / 1000 Ang^3
#
#
#
# Elastic Constant Matrix: (Units=GPa)
#
#
# Indices 1 2 3 4 5 6 
#
# 1 223.5526 67.1564 23.3957 0.0000 0.0000 0.0000
# 2 67.1564 127.5923 24.0865 0.0000 0.0000 0.0000
# 3 23.3957 24.0865 82.7548 0.0000 0.0000 0.0000
# 4 0.0000 0.0000 0.0000 19.6782 0.0000 0.0000
# 5 0.0000 0.0000 0.0000 0.0000 12.5669 0.0000
# 6 0.0000 0.0000 0.0000 0.0000 0.0000 47.1291
#
#
#
# Elastic Compliance Matrix: (Units=1/GPa)
#
#
# Indices 1 2 3 4 5 6 
#
# 1 0.005355 -0.002680 -0.000734 0.000000 0.000000 0.000000
# 2 -0.002680 0.009634 -0.002046 0.000000 0.000000 0.000000
# 3 -0.000734 -0.002046 0.012887 0.000000 0.000000 0.000000
# 4 0.000000 0.000000 0.000000 0.050818 0.000000 0.000000
# 5 0.000000 0.000000 0.000000 0.000000 0.079574 0.000000
# 6 0.000000 0.000000 0.000000 0.000000 0.000000 0.021218
#
#
# Mechanical properties :
#
#
# Convention : Reuss Voigt Hill
#
# Bulk Modulus (GPa) = 58.97736 73.68631 66.33184
# Shear Modulus (GPa) = 25.50247 37.15892 31.33069
#
# Velocity S-wave (km/s) = 3.23608 3.90625 3.58685
# Velocity P-wave (km/s) = 6.17909 7.11359 6.66275
#
# Compressibility (1/GPa) = 0.01695566
#
# Stress axis : x y z
#
# Youngs Moduli (GPa) = 186.73689 103.79477 77.59745
#
# Poissons Ratio (x) = 0.27818 0.05695
# Poissons Ratio (y) = 0.50046 0.15880
# Poissons Ratio (z) = 0.13705 0.21241
#
# Static dielectric constant tensor:
#      x y z
#    x 2.000690 0.000000 0.000000 
#    y 0.000000 2.038340 0.000000 
#    z 0.000000 0.000000 1.754290 
# 
# From -- ./inp_files/12055.got.cif
#   From: 2010.05.17/outbox.cif.g08.bks.cpg/sg23_7_cif.got.tgz:12055.got - 2010.06.04 12:02:01.
