data_PCOD9329420
_publ_section_title
;
Structure prediction by ZEFSAII (Michael W. Deem and Ramdas Pophale) SiO2 
 PCOD9329420
Probable space group: I 2 2 2
;
_chemical_formula_sum "Si O2"
_cell_formula_units_Z 48
_cell_length_a 4.951185
_cell_length_b 27.026911
_cell_length_c 25.339724
_cell_angle_alpha 90.000000
_cell_angle_beta 90.000000
_cell_angle_gamma 90.000000
_cell_volume 3390.841156
_symmetry_space_group_name_H-M "I 2 2 2"
_symmetry_group_IT_number 23
_symmetry_cell_setting 'orthorhombic'
loop_
_space_group_symop_operation_xyz
x,y,z
-x,-y,z
x,-y,-z
-x,y,-z
1/2+x,1/2+y,1/2+z
1/2-x,1/2-y,1/2+z
1/2+x,1/2-y,1/2-z
1/2-x,1/2+y,1/2-z
loop_
_atom_site_type_symbol
_atom_site_label
_atom_site_fract_x
_atom_site_fract_y
_atom_site_fract_z
Si Si1 0.117757 0.141212 0.226721
Si Si2 0.614007 0.825168 0.839381
Si Si3 0.628153 0.551943 0.580120
Si Si4 0.265954 0.465780 0.703573
Si Si5 0.236983 0.766417 0.718320
Si Si6 0.875910 0.385442 0.553975
O O1 0.319213 0.166242 0.184544
O O2 0.229221 0.086058 0.234074
O O3 0.143557 0.176861 0.277576
O O4 0.824923 0.145081 0.198803
O O5 0.692638 0.767562 0.832796
O O6 0.608738 0.847689 0.897404
O O7 0.500000 0.500000 0.563030
O O8 0.646429 0.549606 0.643854
O O9 0.426700 0.593556 0.557893
O O10 0.928458 0.567008 0.563566
O O11 0.500000 0.500000 0.726020
O O12 0.000000 0.500000 0.700868
O O13 0.543232 0.760246 0.738028
O O14 0.000000 0.364122 0.500000
#
# Coordination Sequence:
#
# PCOD9329420 Si02
#       6
#     8   8   8   8   8   8
#     4  10  17  29  45  59  77  98 125 160 197 238
#     4  10  17  31  42  59  78  96 124 167 197 244
#     4  11  22  34  43  53  73 102 139 173 207 238
#     4  11  19  28  43  59  78 103 129 160 205 240
#     4   8  16  26  44  61  74  94 120 154 201 234
#     4  12  22  32  44  57  74 102 132 172 213 240
#
# _framework density 14.155779000000001
#
# number of rings (size 3 to 8) (size 9 to 14) (size 15 to 20)
#    0.000    1.667    3.333    4.000    0.000    2.000 
#    0.000    0.000    0.000    0.000    0.000    0.000 
#    0.000    0.000    0.000    0.000    0.000    0.833 
#
# Total GULP energy -133632.837234 kJ/mol
# GULP energy per Si atom -5568.034885 kJ/mol
# Density = 1.412356 g / cm^3
# Si number density = 14.155779 Si / 1000 Ang^3
#
#
#
# Elastic Constant Matrix: (Units=GPa)
#
#
# Indices 1 2 3 4 5 6 
#
# 1 66.4833 10.3177 4.7531 0.0000 0.0000 0.0000
# 2 10.3177 92.6405 37.3165 0.0000 0.0000 0.0000
# 3 4.7531 37.3165 35.5016 0.0000 0.0000 0.0000
# 4 0.0000 0.0000 0.0000 10.1947 0.0000 0.0000
# 5 0.0000 0.0000 0.0000 0.0000 8.1598 0.0000
# 6 0.0000 0.0000 0.0000 0.0000 0.0000 16.5227
#
#
#
# Elastic Compliance Matrix: (Units=1/GPa)
#
#
# Indices 1 2 3 4 5 6 
#
# 1 0.015310 -0.001525 -0.000447 0.000000 0.000000 0.000000
# 2 -0.001525 0.018873 -0.019633 0.000000 0.000000 0.000000
# 3 -0.000447 -0.019633 0.048865 0.000000 0.000000 0.000000
# 4 0.000000 0.000000 0.000000 0.098090 0.000000 0.000000
# 5 0.000000 0.000000 0.000000 0.000000 0.122552 0.000000
# 6 0.000000 0.000000 0.000000 0.000000 0.000000 0.060523
#
#
# Mechanical properties :
#
#
# Convention : Reuss Voigt Hill
#
# Bulk Modulus (GPa) = 25.10224 33.26664 29.18444
# Shear Modulus (GPa) = 11.88491 16.45798 14.17144
#
# Velocity S-wave (km/s) = 2.90069 3.41344 3.16746
# Velocity P-wave (km/s) = 5.38424 6.25195 5.83425
#
# Compressibility (1/GPa) = 0.03983708
#
# Stress axis : x y z
#
# Youngs Moduli (GPa) = 65.31674 52.98620 20.46468
#
# Poissons Ratio (x) = 0.08082 0.00914
# Poissons Ratio (y) = 0.09963 0.40179
# Poissons Ratio (z) = 0.02917 1.04030
#
# Static dielectric constant tensor:
#      x y z
#    x 1.495650 0.000000 0.000000 
#    y 0.000000 1.554710 0.000000 
#    z 0.000000 0.000000 1.467860 
# 
# From -- ./inp_files/23292.got.cif
#   From: 2010.05.17/outbox.cif.g08.bks.cpg/sg23_12_cif.got.tgz:23292.got - 2010.06.04 12:02:01.
