data_PCOD9329229
_publ_section_title
;
Structure prediction by ZEFSAII (Michael W. Deem and Ramdas Pophale) SiO2 
 PCOD9329229
Probable space group: F 2 2 2
;
_chemical_formula_sum "Si O2"
_cell_formula_units_Z 104
_cell_length_a 12.579115
_cell_length_b 17.460586
_cell_length_c 26.221559
_cell_angle_alpha 90.000000
_cell_angle_beta 90.000000
_cell_angle_gamma 90.000000
_cell_volume 5759.269636
_symmetry_space_group_name_H-M "F 2 2 2"
_symmetry_group_IT_number 22
_symmetry_cell_setting 'orthorhombic'
loop_
_space_group_symop_operation_xyz
x,y,z
-x,-y,z
x,-y,-z
-x,y,-z
x,1/2+y,1/2+z
-x,1/2-y,1/2+z
x,1/2-y,1/2-z
-x,1/2+y,1/2-z
1/2+x,y,1/2+z
1/2-x,-y,1/2+z
1/2+x,-y,1/2-z
1/2-x,y,1/2-z
1/2+x,1/2+y,z
1/2-x,1/2-y,z
1/2+x,1/2-y,-z
1/2-x,1/2+y,-z
loop_
_atom_site_type_symbol
_atom_site_label
_atom_site_fract_x
_atom_site_fract_y
_atom_site_fract_z
Si Si1 0.373928 0.158668 0.188195
Si Si2 0.708339 0.077284 0.529143
Si Si3 0.428792 0.923596 0.914631
Si Si4 0.500000 0.197001 0.000000
Si Si5 0.119947 0.339630 0.305372
Si Si6 0.013151 0.409364 0.400242
Si Si7 0.831730 0.306655 0.447031
O O1 0.424169 0.109791 0.142717
O O2 0.246052 0.148279 0.186053
O O3 0.397153 0.249409 0.182906
O O4 0.405167 0.141261 0.246589
O O5 0.809068 0.060913 0.564980
O O6 0.609870 0.109645 0.561380
O O7 0.733245 0.138424 0.485247
O O8 0.675995 0.000000 0.500000
O O9 0.471268 0.858014 0.952685
O O10 0.500000 0.000000 0.918193
O O11 0.406910 0.252773 0.981083
O O12 0.051621 0.388129 0.344181
O O13 0.000000 0.500000 0.404914
O O14 0.908796 0.361310 0.414675
O O15 0.750000 0.250000 0.418751
#
# Coordination Sequence:
#
# PCOD9329229 Si02
#       7
#    16  16  16   8  16  16  16
#     4   9  19  38  64  89 118 149 198 260 320 362
#     4  12  23  40  57  84 130 166 211 255 310 375
#     4  12  25  38  58  87 126 166 197 250 320 388
#     4  12  23  38  57  88 114 160 208 242 309 374
#     4   9  19  38  64  92 113 148 204 263 306 374
#     4  12  23  38  63  90 121 170 215 256 316 376
#     4  12  25  38  59  88 126 165 214 265 303 373
#
# _framework density 18.057845
#
# number of rings (size 3 to 8) (size 9 to 14) (size 15 to 20)
#    0.000    0.923    6.154    3.000    0.000    0.615 
#    0.000    0.000    0.000    0.000    0.000    1.077 
#    0.000    0.000    0.000    0.000    0.000    0.000 
#
# Total GULP energy -145161.777747 kJ/mol
# GULP energy per Si atom -5583.145298 kJ/mol
# Density = 1.801674 g / cm^3
# Si number density = 18.057845 Si / 1000 Ang^3
#
#
#
# Elastic Constant Matrix: (Units=GPa)
#
#
# Indices 1 2 3 4 5 6 
#
# 1 72.9611 39.4355 32.7662 0.0000 0.0000 0.0000
# 2 39.4355 94.5976 51.5912 0.0000 0.0000 0.0000
# 3 32.7662 51.5912 99.8422 0.0000 0.0000 0.0000
# 4 0.0000 0.0000 0.0000 32.1350 0.0000 0.0000
# 5 0.0000 0.0000 0.0000 0.0000 26.2882 0.0000
# 6 0.0000 0.0000 0.0000 0.0000 0.0000 36.0313
#
#
#
# Elastic Compliance Matrix: (Units=1/GPa)
#
#
# Indices 1 2 3 4 5 6 
#
# 1 0.018264 -0.006050 -0.002868 0.000000 0.000000 0.000000
# 2 -0.006050 0.016723 -0.006656 0.000000 0.000000 0.000000
# 3 -0.002868 -0.006656 0.014396 0.000000 0.000000 0.000000
# 4 0.000000 0.000000 0.000000 0.031119 0.000000 0.000000
# 5 0.000000 0.000000 0.000000 0.000000 0.038040 0.000000
# 6 0.000000 0.000000 0.000000 0.000000 0.000000 0.027754
#
#
# Mechanical properties :
#
#
# Convention : Reuss Voigt Hill
#
# Bulk Modulus (GPa) = 54.83561 57.22076 56.02819
# Shear Modulus (GPa) = 27.24491 28.46476 27.85484
#
# Velocity S-wave (km/s) = 3.88849 3.97458 3.93177
# Velocity P-wave (km/s) = 7.11288 7.26769 7.19070
#
# Compressibility (1/GPa) = 0.01823632
#
# Stress axis : x y z
#
# Youngs Moduli (GPa) = 54.75347 59.79785 69.46284
#
# Poissons Ratio (x) = 0.36176 0.19920
# Poissons Ratio (y) = 0.33124 0.46233
# Poissons Ratio (z) = 0.15702 0.39801
#
# Static dielectric constant tensor:
#      x y z
#    x 1.642390 0.000000 0.000000 
#    y 0.000000 1.628360 0.000000 
#    z 0.000000 0.000000 1.601310 
# 
# From -- ./inp_files/52696.got.cif
#   From: 2010.05.17/outbox.cif.g08.bks.cpg/sg22_27_cif.got.tgz:52696.got - 2010.06.03 23:40:54.
