data_PCOD9329157
_publ_section_title
;
Structure prediction by ZEFSAII (Michael W. Deem and Ramdas Pophale) SiO2 
 PCOD9329157
Probable space group: F 2 2 2
;
_chemical_formula_sum "Si O2"
_cell_formula_units_Z 108
_cell_length_a 26.194939
_cell_length_b 14.670604
_cell_length_c 12.033714
_cell_angle_alpha 90.000000
_cell_angle_beta 90.000000
_cell_angle_gamma 90.000000
_cell_volume 4624.503064
_symmetry_space_group_name_H-M "F 2 2 2"
_symmetry_group_IT_number 22
_symmetry_cell_setting 'orthorhombic'
loop_
_space_group_symop_operation_xyz
x,y,z
-x,-y,z
x,-y,-z
-x,y,-z
x,1/2+y,1/2+z
-x,1/2-y,1/2+z
x,1/2-y,1/2-z
-x,1/2+y,1/2-z
1/2+x,y,1/2+z
1/2-x,-y,1/2+z
1/2+x,-y,1/2-z
1/2-x,y,1/2-z
1/2+x,1/2+y,z
1/2-x,1/2-y,z
1/2+x,1/2-y,-z
1/2-x,1/2+y,-z
loop_
_atom_site_type_symbol
_atom_site_label
_atom_site_fract_x
_atom_site_fract_y
_atom_site_fract_z
Si Si1 0.958982 0.662816 0.591576
Si Si2 0.250000 0.993246 0.750000
Si Si3 0.861866 0.104805 0.962202
Si Si4 0.855726 0.892179 0.509807
Si Si5 0.000000 0.000000 0.500000
Si Si6 0.556073 0.363710 0.340382
Si Si7 0.741881 0.648686 0.928485
Si Si8 0.658120 0.147620 0.775491
O O1 0.904086 0.655418 0.534070
O O2 0.954112 0.614949 0.711756
O O3 0.968721 0.767570 0.625210
O O4 0.000000 0.630729 0.500000
O O5 0.296736 0.927362 0.781916
O O6 0.266600 0.063844 0.654140
O O7 0.873491 0.116480 0.832235
O O8 0.805803 0.145837 0.987729
O O9 0.862326 0.000000 0.000000
O O10 0.884678 0.858562 0.620394
O O11 0.796133 0.870194 0.516307
O O12 0.872907 0.851481 0.391065
O O13 0.861357 0.000000 0.500000
O O14 0.033683 0.938700 0.420527
O O15 0.750000 0.750000 0.879337
O O16 0.676938 0.250000 0.750000
#
# Coordination Sequence:
#
# PCOD9329157 Si02
#       8
#    16   8  16  16   4  16  16  16
#     4  11  27  52  76 112 150 196 249 318 385 456
#     4  12  24  42  68 108 142 204 256 312 366 460
#     4  12  27  48  72 106 153 198 257 314 378 451
#     4  12  25  46  73 110 151 199 254 309 377 456
#     4  12  24  48  82 108 150 192 244 322 374 440
#     4  11  26  48  81 113 149 193 252 312 382 462
#     4  12  25  45  70 105 154 204 253 311 379 451
#     4  12  25  44  70 103 146 201 251 313 373 445
#
# _framework density 23.353860999999998
#
# number of rings (size 3 to 8) (size 9 to 14) (size 15 to 20)
#    0.000    0.296    4.444    4.444    4.148    2.667 
#    2.667    0.000    0.000    0.000    0.000    0.000 
#    0.000    0.000    0.000    0.000    0.000    0.000 
#
# Total GULP energy -151079.843220 kJ/mol
# GULP energy per Si atom -5595.549749 kJ/mol
# Density = 2.330071 g / cm^3
# Si number density = 23.353861 Si / 1000 Ang^3
#
#
#
# Elastic Constant Matrix: (Units=GPa)
#
#
# Indices 1 2 3 4 5 6 
#
# 1 80.9680 10.6016 59.3786 0.0000 0.0000 0.0000
# 2 10.6016 126.9880 31.5474 0.0000 0.0000 0.0000
# 3 59.3786 31.5474 193.3347 0.0000 0.0000 0.0000
# 4 0.0000 0.0000 0.0000 13.0732 0.0000 0.0000
# 5 0.0000 0.0000 0.0000 0.0000 29.1281 0.0000
# 6 0.0000 0.0000 0.0000 0.0000 0.0000 -48.6572
#
#
#
# Elastic Compliance Matrix: (Units=1/GPa)
#
#
# Indices 1 2 3 4 5 6 
#
# 1 0.015943 -0.000119 -0.004877 0.000000 0.000000 0.000000
# 2 -0.000119 0.008208 -0.001303 0.000000 0.000000 0.000000
# 3 -0.004877 -0.001303 0.006883 0.000000 0.000000 0.000000
# 4 0.000000 0.000000 0.000000 0.076493 0.000000 0.000000
# 5 0.000000 0.000000 0.000000 0.000000 0.034331 0.000000
# 6 0.000000 0.000000 0.000000 0.000000 0.000000 -0.020552
#
#
# Mechanical properties :
#
#
# Convention : Reuss Voigt Hill
#
# Bulk Modulus (GPa) = 54.24257 67.14954 60.69606
# Shear Modulus (GPa) = 35.70173 18.69302 27.19738
#
# Velocity S-wave (km/s) = 3.91414 2.83225 3.41629
# Velocity P-wave (km/s) = 6.61091 6.28578 6.45039
#
# Compressibility (1/GPa) = 0.01843571
#
# Stress axis : x y z
#
# Youngs Moduli (GPa) = 62.72429 121.82699 145.28934
#
# Poissons Ratio (x) = 0.01455 0.70858
# Poissons Ratio (y) = 0.00749 0.18927
# Poissons Ratio (z) = 0.30591 0.15871
#
# Static dielectric constant tensor:
#      x y z
#    x 1.956560 0.000000 0.000000 
#    y 0.000000 1.892640 0.000000 
#    z 0.000000 0.000000 1.976920 
# 
# From -- ./inp_files/25455.got.cif
#   From: 2010.05.17/outbox.cif.g08.bks.cpg/sg22_13_cif.got.tgz:25455.got - 2010.06.03 23:40:54.
