data_PCOD9329707
_publ_section_title
;
Structure prediction by ZEFSAII (Michael W. Deem and Ramdas Pophale) SiO2 
 PCOD9329707
Probable space group: I 2 2 2
;
_chemical_formula_sum "Si O2"
_cell_formula_units_Z 56
_cell_length_a 14.037769
_cell_length_b 15.003474
_cell_length_c 11.730160
_cell_angle_alpha 90.000000
_cell_angle_beta 90.000000
_cell_angle_gamma 90.000000
_cell_volume 2470.551193
_symmetry_space_group_name_H-M "I 2 2 2"
_symmetry_group_IT_number 23
_symmetry_cell_setting 'orthorhombic'
loop_
_space_group_symop_operation_xyz
x,y,z
-x,-y,z
x,-y,-z
-x,y,-z
1/2+x,1/2+y,1/2+z
1/2-x,1/2-y,1/2+z
1/2+x,1/2-y,1/2-z
1/2-x,1/2+y,1/2-z
loop_
_atom_site_type_symbol
_atom_site_label
_atom_site_fract_x
_atom_site_fract_y
_atom_site_fract_z
Si Si1 0.737104 0.427182 0.834005
Si Si2 0.716802 0.152741 0.095931
Si Si3 0.579859 0.148504 0.906798
Si Si4 0.638575 0.303685 0.244034
Si Si5 0.351762 0.784269 0.477580
Si Si6 0.341961 0.894680 0.681863
Si Si7 0.537628 0.359433 0.874934
O O1 0.761007 0.409803 0.701256
O O2 0.773319 0.347473 0.915800
O O3 0.794568 0.515355 0.862847
O O4 0.624310 0.423671 0.845961
O O5 0.642671 0.224347 0.150299
O O6 0.673049 0.120371 0.978265
O O7 0.808433 0.207064 0.056306
O O8 0.585138 0.098784 0.786589
O O9 0.574536 0.255030 0.877006
O O10 0.500000 0.127220 0.000000
O O11 0.608279 0.263939 0.366105
O O12 0.746752 0.342367 0.232401
O O13 0.553538 0.366877 0.206201
O O14 0.394416 0.847192 0.575532
O O15 0.500000 0.378167 0.000000
#
# Coordination Sequence:
#
# PCOD9329707 Si02
#       7
#     8   8   8   8   8   8   8
#     4  11  23  37  62  98 135 172 214 270 340 403
#     4  10  18  38  63  88 121 169 224 268 317 384
#     4  11  20  40  70  94 121 170 235 278 305 384
#     4  10  19  35  65  92 129 172 221 265 325 392
#     4  10  19  38  64  86 126 180 217 259 320 401
#     4  11  23  39  60  99 138 171 212 272 345 397
#     4  11  19  37  68 101 132 168 229 284 316 387
#
# _framework density 22.667006000000001
#
# number of rings (size 3 to 8) (size 9 to 14) (size 15 to 20)
#    0.000    1.429    5.714    3.000    0.000    1.143 
#    0.000    5.000    0.000    0.000    7.429    0.000 
#    0.000    0.000    0.000    0.000    0.000    0.000 
#
# Total GULP energy -156173.315747 kJ/mol
# GULP energy per Si atom -5577.618420 kJ/mol
# Density = 2.261542 g / cm^3
# Si number density = 22.667006 Si / 1000 Ang^3
#
#
#
# Elastic Constant Matrix: (Units=GPa)
#
#
# Indices 1 2 3 4 5 6 
#
# 1 27.4121 15.6697 -0.8161 0.0000 0.0000 0.0000
# 2 15.6697 44.3090 14.5138 0.0000 0.0000 0.0000
# 3 -0.8161 14.5138 114.1004 0.0000 0.0000 0.0000
# 4 0.0000 0.0000 0.0000 18.0619 0.0000 0.0000
# 5 0.0000 0.0000 0.0000 0.0000 20.5260 0.0000
# 6 0.0000 0.0000 0.0000 0.0000 0.0000 -10.3357
#
#
#
# Elastic Compliance Matrix: (Units=1/GPa)
#
#
# Indices 1 2 3 4 5 6 
#
# 1 0.046410 -0.017240 0.002525 0.000000 0.000000 0.000000
# 2 -0.017240 0.029954 -0.003934 0.000000 0.000000 0.000000
# 3 0.002525 -0.003934 0.009283 0.000000 0.000000 0.000000
# 4 0.000000 0.000000 0.000000 0.055365 0.000000 0.000000
# 5 0.000000 0.000000 0.000000 0.000000 0.048719 0.000000
# 6 0.000000 0.000000 0.000000 0.000000 0.000000 -0.096752
#
#
# Mechanical properties :
#
#
# Convention : Reuss Voigt Hill
#
# Bulk Modulus (GPa) = 20.68253 27.17291 23.92772
# Shear Modulus (GPa) = 34.15480 16.08073 25.11777
#
# Velocity S-wave (km/s) = 3.88597 2.66641 3.33246
# Velocity P-wave (km/s) = 5.41098 4.63611 5.03846
#
# Compressibility (1/GPa) = 0.04834999
#
# Stress axis : x y z
#
# Youngs Moduli (GPa) = 21.54691 33.38440 107.72818
#
# Poissons Ratio (x) = 0.57554 -0.27200
# Poissons Ratio (y) = 0.37147 0.42375
# Poissons Ratio (z) = -0.05440 0.13132
#
# Static dielectric constant tensor:
#      x y z
#    x 1.802170 0.000000 0.000000 
#    y 0.000000 1.894050 0.000000 
#    z 0.000000 0.000000 1.826610 
# 
# From -- ./inp_files/16782.got.cif
#   From: 2010.05.17/outbox.cif.g08.bks.cpg/sg23_9_cif.got.tgz:16782.got - 2010.06.04 12:02:01.
