data_PCOD9329995
_publ_section_title
;
Structure prediction by ZEFSAII (Michael W. Deem and Ramdas Pophale) SiO2 
 PCOD9329995
Probable space group: I 2 2 2
;
_chemical_formula_sum "Si O2"
_cell_formula_units_Z 30
_cell_length_a 9.043073
_cell_length_b 17.848145
_cell_length_c 8.787892
_cell_angle_alpha 90.000000
_cell_angle_beta 90.000000
_cell_angle_gamma 90.000000
_cell_volume 1418.384031
_symmetry_space_group_name_H-M "I 2 2 2"
_symmetry_group_IT_number 23
_symmetry_cell_setting 'orthorhombic'
loop_
_space_group_symop_operation_xyz
x,y,z
-x,-y,z
x,-y,-z
-x,y,-z
1/2+x,1/2+y,1/2+z
1/2-x,1/2-y,1/2+z
1/2+x,1/2-y,1/2-z
1/2-x,1/2+y,1/2-z
loop_
_atom_site_type_symbol
_atom_site_label
_atom_site_fract_x
_atom_site_fract_y
_atom_site_fract_z
Si Si1 0.500000 0.648088 0.000000
Si Si2 0.000000 0.500000 0.000000
Si Si3 0.716576 0.104949 0.318511
Si Si4 0.168378 0.847765 0.026232
Si Si5 0.704157 0.733769 0.763430
O O1 0.628384 0.603737 0.088813
O O2 0.416773 0.698965 0.124636
O O3 0.896621 0.450145 0.893658
O O4 0.655651 0.190387 0.323316
O O5 0.750431 0.094816 0.138854
O O6 0.242583 0.826626 0.865702
O O7 0.172034 0.771411 0.128995
O O8 0.000000 0.869859 0.000000
#
# Coordination Sequence:
#
# PCOD9329995 Si02
#       5
#     4   2   8   8   8
#     4  12  20  39  70 111 130 170 216 294 364 392
#     4  12  28  50  56  98 136 202 250 262 340 388
#     4  10  24  39  68  93 139 188 219 282 325 428
#     4  10  19  35  64 107 141 165 209 280 359 400
#     4  10  19  35  65 113 135 159 209 286 363 405
#
# _framework density 21.150831
#
# number of rings (size 3 to 8) (size 9 to 14) (size 15 to 20)
#    1.600    0.000    5.333    0.000    1.867    2.667 
#    0.000    0.000    0.000    7.200    0.000    0.000 
#    0.000    0.000    0.000    0.000    0.000    0.000 
#
# Total GULP energy -83530.878788 kJ/mol
# GULP energy per Si atom -5568.725253 kJ/mol
# Density = 2.110269 g / cm^3
# Si number density = 21.150831 Si / 1000 Ang^3
#
#
#
# Elastic Constant Matrix: (Units=GPa)
#
#
# Indices 1 2 3 4 5 6 
#
# 1 86.1182 37.6375 42.7626 -0.0002 0.0000 0.0000
# 2 37.6375 42.3481 38.0780 -0.0005 0.0000 0.0002
# 3 42.7626 38.0780 152.5424 -0.0009 -0.0001 0.0003
# 4 -0.0002 -0.0005 -0.0009 -12.0217 0.0000 0.0001
# 5 0.0000 0.0000 -0.0001 0.0000 46.6084 0.0000
# 6 0.0000 0.0002 0.0003 0.0001 0.0000 5.9170
#
#
#
# Elastic Compliance Matrix: (Units=1/GPa)
#
#
# Indices 1 2 3 4 5 6 
#
# 1 0.019233 -0.015789 -0.001450 0.000000 0.000000 0.000000
# 2 -0.015789 0.043411 -0.006410 -0.000001 0.000000 -0.000001
# 3 -0.001450 -0.006410 0.008562 0.000000 0.000000 0.000000
# 4 0.000000 -0.000001 0.000000 -0.083183 0.000000 0.000002
# 5 0.000000 0.000000 0.000000 0.000000 0.021455 0.000000
# 6 0.000000 -0.000001 0.000000 0.000002 0.000000 0.169005
#
#
# Mechanical properties :
#
#
# Convention : Reuss Voigt Hill
#
# Bulk Modulus (GPa) = 41.82996 57.55166 49.69081
# Shear Modulus (GPa) = 21.39030 18.93612 20.16321
#
# Velocity S-wave (km/s) = 3.18358 2.99538 3.09091
# Velocity P-wave (km/s) = 5.77352 6.26357 6.02353
#
# Compressibility (1/GPa) = 0.02390631
#
# Stress axis : x y z
#
# Youngs Moduli (GPa) = 51.99474 23.03587 116.79308
#
# Poissons Ratio (x) = 0.36372 0.16937
# Poissons Ratio (y) = 0.82097 0.74864
# Poissons Ratio (z) = 0.07540 0.14766
#
# Static dielectric constant tensor:
#      x y z
#    x 1.769570 0.000000 0.000000 
#    y 0.000000 1.743000 0.000000 
#    z 0.000000 0.000000 1.810690 
# 
# From -- ./inp_files/6544.got.cif
#   From: 2010.05.17/outbox.cif.g08.bks.cpg/sg23_4_cif.got.tgz:6544.got - 2010.06.04 12:02:01.
