data_PCOD9329738
_publ_section_title
;
Structure prediction by ZEFSAII (Michael W. Deem and Ramdas Pophale) SiO2 
 PCOD9329738
Probable space group: I 2 2 2
;
_chemical_formula_sum "Si O2"
_cell_formula_units_Z 28
_cell_length_a 24.489596
_cell_length_b 5.763263
_cell_length_c 8.256988
_cell_angle_alpha 90.000000
_cell_angle_beta 90.000000
_cell_angle_gamma 90.000000
_cell_volume 1165.391142
_symmetry_space_group_name_H-M "I 2 2 2"
_symmetry_group_IT_number 23
_symmetry_cell_setting 'orthorhombic'
loop_
_space_group_symop_operation_xyz
x,y,z
-x,-y,z
x,-y,-z
-x,y,-z
1/2+x,1/2+y,1/2+z
1/2-x,1/2-y,1/2+z
1/2+x,1/2-y,1/2-z
1/2-x,1/2+y,1/2-z
loop_
_atom_site_type_symbol
_atom_site_label
_atom_site_fract_x
_atom_site_fract_y
_atom_site_fract_z
Si Si1 0.888243 0.500000 0.500000
Si Si2 0.922376 0.124166 0.739361
Si Si3 0.819216 0.173451 0.261360
Si Si4 0.773733 0.500000 0.000000
Si Si5 0.500000 0.500000 0.000000
Si Si6 0.000000 0.000000 0.000000
O O1 0.922811 0.346670 0.624954
O O2 0.849242 0.342605 0.388309
O O3 0.958043 0.154549 0.897498
O O4 0.860885 0.039945 0.763215
O O5 0.955143 0.925892 0.636451
O O6 0.807818 0.302755 0.092700
O O7 0.764711 0.096452 0.355494
#
# Coordination Sequence:
#
# PCOD9329738 Si02
#       6
#     4   8   8   4   2   2
#     4  12  22  47  77 100 158 203 244 319 400 442
#     4  11  24  47  73 108 152 197 252 320 381 466
#     4  12  26  48  70 116 149 202 258 321 376 476
#     4  12  27  46  80 108 156 204 257 312 400 448
#     4  10  18  48  68  98 142 198 246 292 380 468
#     4  10  28  46  76 114 156 194 252 338 386 444
#
# _framework density 24.026266
#
# number of rings (size 3 to 8) (size 9 to 14) (size 15 to 20)
#    0.000    0.571    5.714    1.714    4.000    0.571 
#    0.000    1.429    0.000    0.000    0.000    0.000 
#    0.000    0.000    0.000    0.000    0.000    0.000 
#
# Total GULP energy -78142.613893 kJ/mol
# GULP energy per Si atom -5581.615278 kJ/mol
# Density = 2.397158 g / cm^3
# Si number density = 24.026266 Si / 1000 Ang^3
#
#
#
# Elastic Constant Matrix: (Units=GPa)
#
#
# Indices 1 2 3 4 5 6 
#
# 1 94.9120 33.4697 64.2651 0.0000 0.0000 0.0000
# 2 33.4697 88.2149 55.2294 0.0000 0.0000 0.0000
# 3 64.2651 55.2294 132.6959 0.0000 0.0000 0.0000
# 4 0.0000 0.0000 0.0000 55.2900 0.0000 0.0000
# 5 0.0000 0.0000 0.0000 0.0000 66.2075 0.0000
# 6 0.0000 0.0000 0.0000 0.0000 0.0000 -2.2406
#
#
#
# Elastic Compliance Matrix: (Units=1/GPa)
#
#
# Indices 1 2 3 4 5 6 
#
# 1 0.015849 -0.001633 -0.006996 0.000000 0.000000 0.000000
# 2 -0.001633 0.015499 -0.005660 0.000000 0.000000 0.000000
# 3 -0.006996 -0.005660 0.013280 0.000000 0.000000 0.000000
# 4 0.000000 0.000000 0.000000 0.018086 0.000000 0.000000
# 5 0.000000 0.000000 0.000000 0.000000 0.015104 0.000000
# 6 0.000000 0.000000 0.000000 0.000000 0.000000 -0.446306
#
#
# Mechanical properties :
#
#
# Convention : Reuss Voigt Hill
#
# Bulk Modulus (GPa) = 62.30602 69.08347 65.69475
# Shear Modulus (GPa) = -14.94503 34.70863 9.88180
#
# Velocity S-wave (km/s) = -2.49676 3.80493 2.03023
# Velocity P-wave (km/s) = 4.20441 6.93679 5.73568
#
# Compressibility (1/GPa) = 0.01604981
#
# Stress axis : x y z
#
# Youngs Moduli (GPa) = 63.09546 64.51958 75.30178
#
# Poissons Ratio (x) = 0.10538 0.52681
# Poissons Ratio (y) = 0.10305 0.42620
# Poissons Ratio (z) = 0.44141 0.36517
#
# Static dielectric constant tensor:
#      x y z
#    x 1.952870 0.000000 0.000000 
#    y 0.000000 2.257470 0.000000 
#    z 0.000000 0.000000 1.936530 
# 
# From -- ./inp_files/651.got.cif
#   From: 2010.05.17/outbox.cif.g08.bks.cpg/sg23_1_cif.got.tgz:651.got - 2010.06.04 12:02:01.
