data_PCOD9329683
_publ_section_title
;
Structure prediction by ZEFSAII (Michael W. Deem and Ramdas Pophale) SiO2 
 PCOD9329683
Probable space group: I 2 2 2
;
_chemical_formula_sum "Si O2"
_cell_formula_units_Z 34
_cell_length_a 8.757313
_cell_length_b 20.680313
_cell_length_c 10.182395
_cell_angle_alpha 90.000000
_cell_angle_beta 90.000000
_cell_angle_gamma 90.000000
_cell_volume 1844.072198
_symmetry_space_group_name_H-M "I 2 2 2"
_symmetry_group_IT_number 23
_symmetry_cell_setting 'orthorhombic'
loop_
_space_group_symop_operation_xyz
x,y,z
-x,-y,z
x,-y,-z
-x,y,-z
1/2+x,1/2+y,1/2+z
1/2-x,1/2-y,1/2+z
1/2+x,1/2-y,1/2-z
1/2-x,1/2+y,1/2-z
loop_
_atom_site_type_symbol
_atom_site_label
_atom_site_fract_x
_atom_site_fract_y
_atom_site_fract_z
Si Si1 0.617763 0.202934 0.828354
Si Si2 0.748075 0.905071 0.534287
Si Si3 0.000000 0.000000 0.500000
Si Si4 0.465431 0.928099 0.712412
Si Si5 0.197824 0.764372 0.574728
O O1 0.591623 0.126499 0.811386
O O2 0.681224 0.230188 0.691509
O O3 0.459677 0.238730 0.863105
O O4 0.728880 0.218331 0.950313
O O5 0.619886 0.900537 0.645626
O O6 0.657967 0.933265 0.406497
O O7 0.809494 0.835791 0.488649
O O8 0.886155 0.951682 0.575002
O O9 0.500000 0.000000 0.762605
#
# Coordination Sequence:
#
# PCOD9329683 Si02
#       5
#     8   8   2   8   8
#     4  10  21  35  59  79 124 144 193 230 282 335
#     4  10  19  30  54  78 118 139 193 242 285 317
#     4  12  16  26  48  84 108 140 174 264 280 320
#     4  10  18  36  52  80 111 159 184 227 281 352
#     4  10  21  38  53  90 110 154 186 237 282 337
#
# _framework density 18.437456999999998
#
# number of rings (size 3 to 8) (size 9 to 14) (size 15 to 20)
#    0.000    1.882    2.353    3.529    0.000    2.824 
#    0.000    2.353    0.000    0.000    0.000    0.000 
#    0.000    0.000    0.000    0.000    0.000    0.000 
#
# Total GULP energy -94761.878526 kJ/mol
# GULP energy per Si atom -5574.228149 kJ/mol
# Density = 1.839549 g / cm^3
# Si number density = 18.437457 Si / 1000 Ang^3
#
#
#
# Elastic Constant Matrix: (Units=GPa)
#
#
# Indices 1 2 3 4 5 6 
#
# 1 53.7848 38.0074 24.2062 0.0000 0.0000 0.0000
# 2 38.0074 131.8657 71.8018 0.0000 0.0000 0.0000
# 3 24.2062 71.8018 87.1101 0.0001 -0.0001 -0.0001
# 4 0.0000 0.0000 0.0001 13.9112 0.0000 0.0000
# 5 0.0000 0.0000 -0.0001 0.0000 30.2373 0.0000
# 6 0.0000 0.0000 -0.0001 0.0000 0.0000 33.3428
#
#
#
# Elastic Compliance Matrix: (Units=1/GPa)
#
#
# Indices 1 2 3 4 5 6 
#
# 1 0.023489 -0.005835 -0.001718 0.000000 0.000000 0.000000
# 2 -0.005835 0.015208 -0.010914 0.000000 0.000000 0.000000
# 3 -0.001718 -0.010914 0.020953 0.000000 0.000000 0.000000
# 4 0.000000 0.000000 0.000000 0.071885 0.000000 0.000000
# 5 0.000000 0.000000 0.000000 0.000000 0.033072 0.000000
# 6 0.000000 0.000000 0.000000 0.000000 0.000000 0.029991
#
#
# Mechanical properties :
#
#
# Convention : Reuss Voigt Hill
#
# Bulk Modulus (GPa) = 44.02007 60.08793 52.05400
# Shear Modulus (GPa) = 20.91146 24.74793 22.82970
#
# Velocity S-wave (km/s) = 3.37142 3.66767 3.52266
# Velocity P-wave (km/s) = 6.25160 7.11313 6.69623
#
# Compressibility (1/GPa) = 0.02271691
#
# Stress axis : x y z
#
# Youngs Moduli (GPa) = 42.57332 65.75477 47.72577
#
# Poissons Ratio (x) = 0.38367 0.08197
# Poissons Ratio (y) = 0.24841 0.52088
# Poissons Ratio (z) = 0.07312 0.71765
#
# Static dielectric constant tensor:
#      x y z
#    x 1.662850 0.000000 0.000000 
#    y 0.000000 1.665030 0.000000 
#    z 0.000000 0.000000 1.637620 
# 
# From -- ./inp_files/6715.got.cif
#   From: 2010.05.17/outbox.cif.g08.bks.cpg/sg23_4_cif.got.tgz:6715.got - 2010.06.04 12:02:01.
