data_PCOD9329813
_publ_section_title
;
Structure prediction by ZEFSAII (Michael W. Deem and Ramdas Pophale) SiO2 
 PCOD9329813
Probable space group: I 2 2 2
;
_chemical_formula_sum "Si O2"
_cell_formula_units_Z 48
_cell_length_a 20.229151
_cell_length_b 8.938800
_cell_length_c 15.962074
_cell_angle_alpha 90.000000
_cell_angle_beta 90.000000
_cell_angle_gamma 90.000000
_cell_volume 2886.331416
_symmetry_space_group_name_H-M "I 2 2 2"
_symmetry_group_IT_number 23
_symmetry_cell_setting 'orthorhombic'
loop_
_space_group_symop_operation_xyz
x,y,z
-x,-y,z
x,-y,-z
-x,y,-z
1/2+x,1/2+y,1/2+z
1/2-x,1/2-y,1/2+z
1/2+x,1/2-y,1/2-z
1/2-x,1/2+y,1/2-z
loop_
_atom_site_type_symbol
_atom_site_label
_atom_site_fract_x
_atom_site_fract_y
_atom_site_fract_z
Si Si1 0.364294 0.643816 0.137413
Si Si2 0.745555 0.410475 0.917328
Si Si3 0.142721 0.357815 0.218352
Si Si4 0.438543 0.108288 0.186792
Si Si5 0.352263 0.829519 0.972852
Si Si6 0.972632 0.150022 0.769710
O O1 0.315938 0.507209 0.118719
O O2 0.330610 0.759699 0.203093
O O3 0.377861 0.732998 0.051854
O O4 0.431454 0.601888 0.185905
O O5 0.802583 0.392129 0.849643
O O6 0.768427 0.500000 0.000000
O O7 0.714779 0.252037 0.944168
O O8 0.110845 0.505783 0.258867
O O9 0.082149 0.253653 0.184533
O O10 0.468691 0.241741 0.241306
O O11 0.500000 0.000000 0.163228
O O12 0.402831 0.167456 0.104248
O O13 0.341637 0.000000 0.000000
O O14 0.000000 0.000000 0.811157
#
# Coordination Sequence:
#
# PCOD9329813 Si02
#       6
#     8   8   8   8   8   8
#     4   9  20  33  49  78 113 137 179 210 264 331
#     4  10  22  37  53  77 112 140 182 228 267 322
#     4   9  20  35  53  78 104 143 182 215 275 317
#     4  10  19  32  52  76 112 141 180 216 256 327
#     4  11  19  33  50  79 109 146 177 217 259 319
#     4   9  18  34  51  80 107 141 180 220 259 319
#
# _framework density 16.630106999999999
#
# number of rings (size 3 to 8) (size 9 to 14) (size 15 to 20)
#    1.000    1.333    1.667    1.000    2.333    2.333 
#    0.000    2.500    0.000    4.500    0.000    1.167 
#    0.000    0.000    0.000    0.000    0.000    0.000 
#
# Total GULP energy -133623.172554 kJ/mol
# GULP energy per Si atom -5567.632190 kJ/mol
# Density = 1.659226 g / cm^3
# Si number density = 16.630107 Si / 1000 Ang^3
#
#
#
# Elastic Constant Matrix: (Units=GPa)
#
#
# Indices 1 2 3 4 5 6 
#
# 1 25.7604 7.0299 2.3719 0.0000 0.0000 0.0000
# 2 7.0299 60.8501 -17.6475 0.0000 0.0000 0.0000
# 3 2.3719 -17.6475 13.9992 0.0000 0.0000 0.0000
# 4 0.0000 0.0000 0.0000 6.6162 0.0000 0.0000
# 5 0.0000 0.0000 0.0000 0.0000 5.6917 0.0000
# 6 0.0000 0.0000 0.0000 0.0000 0.0000 11.5941
#
#
#
# Elastic Compliance Matrix: (Units=1/GPa)
#
#
# Indices 1 2 3 4 5 6 
#
# 1 0.043941 -0.011405 -0.021822 0.000000 0.000000 0.000000
# 2 -0.011405 0.028865 0.038319 0.000000 0.000000 0.000000
# 3 -0.021822 0.038319 0.123435 0.000000 0.000000 0.000000
# 4 0.000000 0.000000 0.000000 0.151143 0.000000 0.000000
# 5 0.000000 0.000000 0.000000 0.000000 0.175695 0.000000
# 6 0.000000 0.000000 0.000000 0.000000 0.000000 0.086251
#
#
# Mechanical properties :
#
#
# Convention : Reuss Voigt Hill
#
# Bulk Modulus (GPa) = 4.84439 9.34647 7.09543
# Shear Modulus (GPa) = 7.48553 12.03743 9.76148
#
# Velocity S-wave (km/s) = 2.12390 2.69333 2.42539
# Velocity P-wave (km/s) = 2.98897 3.91209 3.48127
#
# Compressibility (1/GPa) = 0.20642452
#
# Stress axis : x y z
#
# Youngs Moduli (GPa) = 22.75781 34.64449 8.10141
#
# Poissons Ratio (x) = 0.39513 0.17679
# Poissons Ratio (y) = 0.25956 -0.31044
# Poissons Ratio (z) = 0.49663 -1.32755
#
# Static dielectric constant tensor:
#      x y z
#    x 1.548330 0.000000 0.000000 
#    y 0.000000 1.589920 0.000000 
#    z 0.000000 0.000000 1.542140 
# 
# From -- ./inp_files/22032.got.cif
#   From: 2010.05.17/outbox.cif.g08.bks.cpg/sg23_12_cif.got.tgz:22032.got - 2010.06.04 12:02:01.
