data_PCOD9329302
_publ_section_title
;
Structure prediction by ZEFSAII (Michael W. Deem and Ramdas Pophale) SiO2 
 PCOD9329302
Probable space group: F 2 2 2
;
_chemical_formula_sum "Si O2"
_cell_formula_units_Z 15
_cell_length_a 15.000000
_cell_length_b 15.000000
_cell_length_c 15.000000
_cell_angle_alpha 90.000000
_cell_angle_beta 90.000000
_cell_angle_gamma 90.000000
_cell_volume 3375.000000
_symmetry_space_group_name_H-M "F 2 2 2"
_symmetry_group_IT_number 22
_symmetry_cell_setting 'orthorhombic'
loop_
_space_group_symop_operation_xyz
x,y,z
-x,-y,z
x,-y,-z
-x,y,-z
x,1/2+y,1/2+z
-x,1/2-y,1/2+z
x,1/2-y,1/2-z
-x,1/2+y,1/2-z
1/2+x,y,1/2+z
1/2-x,-y,1/2+z
1/2+x,-y,1/2-z
1/2-x,y,1/2-z
1/2+x,1/2+y,z
1/2-x,1/2-y,z
1/2+x,1/2-y,-z
1/2-x,1/2+y,-z
loop_
_atom_site_type_symbol
_atom_site_label
_atom_site_fract_x
_atom_site_fract_y
_atom_site_fract_z
Si Si1 0.287092 0.500000 0.500000
Si Si2 0.608587 0.633179 0.366821
Si Si3 0.000000 0.763736 0.000000
Si Si4 0.614268 0.926028 0.573972
Si Si5 0.750000 0.750000 0.250000
Si Si6 0.000000 0.000000 0.763736
O O1 0.344540 0.435912 0.435912
O O2 0.221425 0.438079 0.561921
O O3 0.548359 0.701899 0.425499
O O4 0.684546 0.688419 0.311581
O O5 0.548359 0.574501 0.298101
O O6 0.927058 0.831192 0.955612
O O7 0.572942 0.955612 0.668808
O O8 0.587515 0.000000 0.500000
#
# Coordination Sequence:
#
# PCOD9329302 Si02
#       6
#     8  16   8  16   4   8
#     4  10  22  44  58  88 126 170 188 236 324 366
#     4  12  25  37  64  95 125 149 201 265 298 342
#     4  12  21  41  62  94 118 162 204 245 299 360
#     4  10  20  41  66  80 114 174 206 222 287 392
#     4  12  24  40  60 100 112 158 212 260 276 348
#     4  12  21  41  62  94 118 162 204 245 299 360
#
# _framework density 4.4444439999999998
#
# number of rings (size 3 to 8) (size 9 to 14) (size 15 to 20)
#    0.800    0.000    2.667    6.400    0.000    0.000 
#    0.000    0.000    0.000    3.200    0.000    0.000 
#    0.000    0.000    0.000    0.000    0.000    0.000 
#
# Total GULP energy -83669.859660 kJ/mol
# GULP energy per Si atom -5577.990644 kJ/mol
# Density = 0.443433 g / cm^3
# Si number density = 4.444444 Si / 1000 Ang^3
#
#
#
# Elastic Constant Matrix: (Units=GPa)
#
#
# Indices 1 2 3 4 5 6 
#
# 1 101.6858 71.9642 71.9642 0.0000 0.0000 0.0000
# 2 71.9642 153.1206 92.5642 0.0000 0.0000 0.0000
# 3 71.9642 92.5642 153.1206 0.0000 0.0000 0.0000
# 4 0.0000 0.0000 0.0000 58.3602 0.0000 0.0000
# 5 0.0000 0.0000 0.0000 0.0000 32.2818 0.0000
# 6 0.0000 0.0000 0.0000 0.0000 0.0000 32.2818
#
#
#
# Elastic Compliance Matrix: (Units=1/GPa)
#
#
# Indices 1 2 3 4 5 6 
#
# 1 0.016799 -0.004921 -0.004921 0.000000 0.000000 0.000000
# 2 -0.004921 0.011733 -0.004780 0.000000 0.000000 0.000000
# 3 -0.004921 -0.004780 0.011733 0.000000 0.000000 0.000000
# 4 0.000000 0.000000 0.000000 0.017135 0.000000 0.000000
# 5 0.000000 0.000000 0.000000 0.000000 0.030977 0.000000
# 6 0.000000 0.000000 0.000000 0.000000 0.000000 0.030977
#
#
# Mechanical properties :
#
#
# Convention : Reuss Voigt Hill
#
# Bulk Modulus (GPa) = 90.72582 97.87914 94.30248
# Shear Modulus (GPa) = 32.83599 36.01375 34.42487
#
# Velocity S-wave (km/s) = 4.30236 4.50574 4.40523
# Velocity P-wave (km/s) = 8.70773 9.06893 8.89016
#
# Compressibility (1/GPa) = 0.01102222
#
# Stress axis : x y z
#
# Youngs Moduli (GPa) = 59.52737 85.22819 85.22819
#
# Poissons Ratio (x) = 0.41938 0.41938
# Poissons Ratio (y) = 0.29291 0.40742
# Poissons Ratio (z) = 0.29291 0.40742
#
# Static dielectric constant tensor:
#      x y z
#    x 1.651810 0.000000 0.000000 
#    y 0.000000 1.591070 0.000000 
#    z 0.000000 0.000000 1.591070 
# 
# From -- ./inp_files/28901.got.cif
#   From: 2010.05.17/outbox.ucp.g08.bks.cvg/sg22_15_cif.got.tgz:28901.got - 2010.06.11 15:16:44.
