data_PCOD9329841
_publ_section_title
;
Structure prediction by ZEFSAII (Michael W. Deem and Ramdas Pophale) SiO2 
 PCOD9329841
Probable space group: I 2 2 2
;
_chemical_formula_sum "Si O2"
_cell_formula_units_Z 64
_cell_length_a 19.987259
_cell_length_b 9.216387
_cell_length_c 16.941018
_cell_angle_alpha 90.000000
_cell_angle_beta 90.000000
_cell_angle_gamma 90.000000
_cell_volume 3120.710245
_symmetry_space_group_name_H-M "I 2 2 2"
_symmetry_group_IT_number 23
_symmetry_cell_setting 'orthorhombic'
loop_
_space_group_symop_operation_xyz
x,y,z
-x,-y,z
x,-y,-z
-x,y,-z
1/2+x,1/2+y,1/2+z
1/2-x,1/2-y,1/2+z
1/2+x,1/2-y,1/2-z
1/2-x,1/2+y,1/2-z
loop_
_atom_site_type_symbol
_atom_site_label
_atom_site_fract_x
_atom_site_fract_y
_atom_site_fract_z
Si Si1 0.928004 0.574391 0.420231
Si Si2 0.238838 0.973237 0.198575
Si Si3 0.750402 0.768107 0.083951
Si Si4 0.119527 0.450058 0.745992
Si Si5 0.094600 0.086532 0.420626
Si Si6 0.371035 0.359059 0.188793
Si Si7 0.360417 0.985850 0.412738
Si Si8 0.259681 0.290704 0.909199
O O1 0.896621 0.500000 0.500000
O O2 0.896696 0.534899 0.335142
O O3 0.931996 0.749025 0.425152
O O4 0.000000 0.500000 0.416827
O O5 0.173134 0.946430 0.248594
O O6 0.260436 0.819504 0.162684
O O7 0.229392 0.087426 0.129141
O O8 0.299636 0.035691 0.249928
O O9 0.682754 0.706143 0.125100
O O10 0.810975 0.653128 0.090743
O O11 0.736494 0.792647 0.992297
O O12 0.098926 0.284102 0.729623
O O13 0.096834 0.506412 0.831885
O O14 0.174988 0.108974 0.410245
O O15 0.080359 0.000000 0.500000
O O16 0.078692 0.971080 0.352007
O O17 0.308716 0.120693 0.410896
O O18 0.393278 0.000000 0.500000
#
# Coordination Sequence:
#
# PCOD9329841 Si02
#       8
#     8   8   8   8   8   8   8   8
#     4  11  27  46  63  87 112 141 199 266 320 358
#     4  11  21  28  48  79 120 151 198 237 276 345
#     4  10  20  29  44  72 118 155 200 225 276 329
#     4  11  21  36  58  77 116 160 192 246 298 350
#     4  12  21  37  61  83 111 157 200 240 293 366
#     4  11  21  32  48  86 116 155 200 229 280 354
#     4  10  19  33  51  81 123 159 194 235 278 343
#     4  11  18  33  47  79 119 159 193 234 273 344
#
# _framework density 20.508151000000002
#
# number of rings (size 3 to 8) (size 9 to 14) (size 15 to 20)
#    0.000    1.125    6.250    1.500    5.250    0.000 
#    0.000    4.375    0.000    0.375    0.000    0.000 
#    0.000    0.000    0.500    0.000    0.000    0.000 
#
# Total GULP energy -178655.554880 kJ/mol
# GULP energy per Si atom -5582.986090 kJ/mol
# Density = 2.046147 g / cm^3
# Si number density = 20.508151 Si / 1000 Ang^3
#
#
#
# Elastic Constant Matrix: (Units=GPa)
#
#
# Indices 1 2 3 4 5 6 
#
# 1 24.1739 16.3490 17.7911 0.0000 0.0000 0.0000
# 2 16.3490 129.3752 36.7767 0.0000 0.0000 0.0000
# 3 17.7911 36.7767 128.8390 0.0000 0.0000 0.0000
# 4 0.0000 0.0000 0.0000 34.5685 0.0000 0.0000
# 5 0.0000 0.0000 0.0000 0.0000 2.9624 0.0000
# 6 0.0000 0.0000 0.0000 0.0000 0.0000 11.1490
#
#
#
# Elastic Compliance Matrix: (Units=1/GPa)
#
#
# Indices 1 2 3 4 5 6 
#
# 1 0.048429 -0.004592 -0.005377 0.000000 0.000000 0.000000
# 2 -0.004592 0.008847 -0.001891 0.000000 0.000000 0.000000
# 3 -0.005377 -0.001891 0.009044 0.000000 0.000000 0.000000
# 4 0.000000 0.000000 0.000000 0.028928 0.000000 0.000000
# 5 0.000000 0.000000 0.000000 0.000000 0.337563 0.000000
# 6 0.000000 0.000000 0.000000 0.000000 0.000000 0.089694
#
#
# Mechanical properties :
#
#
# Convention : Reuss Voigt Hill
#
# Bulk Modulus (GPa) = 23.47359 47.13573 35.30466
# Shear Modulus (GPa) = 8.92179 23.83407 16.37793
#
# Velocity S-wave (km/s) = 2.08802 3.41277 2.82903
# Velocity P-wave (km/s) = 4.15739 6.20992 5.28427
#
# Compressibility (1/GPa) = 0.04260107
#
# Stress axis : x y z
#
# Youngs Moduli (GPa) = 20.64867 113.02828 110.57049
#
# Poissons Ratio (x) = 0.51897 0.59452
# Poissons Ratio (y) = 0.09481 0.20914
# Poissons Ratio (z) = 0.11102 0.21378
#
# Static dielectric constant tensor:
#      x y z
#    x 1.786930 0.000000 0.000000 
#    y 0.000000 1.749710 0.000000 
#    z 0.000000 0.000000 1.820340 
# 
# From -- ./inp_files/25267.got.cif
#   From: 2010.05.17/outbox.cif.g08.bks.cpg/sg23_13_cif.got.tgz:25267.got - 2010.06.04 12:02:01.
