data_PCOD9329266
_publ_section_title
;
Structure prediction by ZEFSAII (Michael W. Deem and Ramdas Pophale) SiO2 
 PCOD9329266
Probable space group: F 2 2 2
;
_chemical_formula_sum "Si O2"
_cell_formula_units_Z 60
_cell_length_a 25.003162
_cell_length_b 11.792720
_cell_length_c 8.138964
_cell_angle_alpha 90.000000
_cell_angle_beta 90.000000
_cell_angle_gamma 90.000000
_cell_volume 2399.816579
_symmetry_space_group_name_H-M "F 2 2 2"
_symmetry_group_IT_number 22
_symmetry_cell_setting 'orthorhombic'
loop_
_space_group_symop_operation_xyz
x,y,z
-x,-y,z
x,-y,-z
-x,y,-z
x,1/2+y,1/2+z
-x,1/2-y,1/2+z
x,1/2-y,1/2-z
-x,1/2+y,1/2-z
1/2+x,y,1/2+z
1/2-x,-y,1/2+z
1/2+x,-y,1/2-z
1/2-x,y,1/2-z
1/2+x,1/2+y,z
1/2-x,1/2-y,z
1/2+x,1/2-y,-z
1/2-x,1/2+y,-z
loop_
_atom_site_type_symbol
_atom_site_label
_atom_site_fract_x
_atom_site_fract_y
_atom_site_fract_z
Si Si1 0.082263 0.054024 0.845885
Si Si2 0.673705 0.274596 0.062481
Si Si3 0.999402 0.250000 0.250000
Si Si4 0.585117 0.384414 0.577307
Si Si5 0.750000 0.250000 0.750000
O O1 0.133706 0.122980 0.903070
O O2 0.040203 0.143556 0.770612
O O3 0.101340 0.943449 0.746406
O O4 0.054288 0.000000 0.000000
O O5 0.695583 0.250000 0.250000
O O6 0.635805 0.166987 0.015545
O O7 0.709412 0.298108 0.896534
O O8 0.041914 0.287669 0.110062
O O9 0.562271 0.500000 0.500000
#
# Coordination Sequence:
#
# PCOD9329266 Si02
#       5
#    16  16   8  16   4
#     4  12  26  46  74 110 163 212 260 319 380 456
#     4  12  26  54  79 116 156 202 262 336 401 471
#     4  12  27  44  74 120 162 214 267 302 368 462
#     4  12  26  47  75 111 163 211 256 311 383 461
#     4  12  28  52  92 114 144 202 264 340 420 472
#
# _framework density 25.001911
#
# number of rings (size 3 to 8) (size 9 to 14) (size 15 to 20)
#    0.000    0.000    4.000    5.200    0.000   16.000 
#    0.000    4.000    0.000    0.000    0.000    0.000 
#    0.000    0.000    0.000    0.000    0.000    0.000 
#
# Total GULP energy -83555.965714 kJ/mol
# GULP energy per Si atom -5570.397714 kJ/mol
# Density = 2.494501 g / cm^3
# Si number density = 25.001911 Si / 1000 Ang^3
#
#
#
# Elastic Constant Matrix: (Units=GPa)
#
#
# Indices 1 2 3 4 5 6 
#
# 1 150.3520 41.7578 64.7126 0.0000 0.0000 0.0000
# 2 41.7578 108.8894 39.1502 0.0000 0.0000 0.0000
# 3 64.7126 39.1502 184.0788 0.0000 0.0000 0.0000
# 4 0.0000 0.0000 0.0000 69.8641 0.0000 0.0000
# 5 0.0000 0.0000 0.0000 0.0000 42.5016 0.0000
# 6 0.0000 0.0000 0.0000 0.0000 0.0000 -86.6344
#
#
#
# Elastic Compliance Matrix: (Units=1/GPa)
#
#
# Indices 1 2 3 4 5 6 
#
# 1 0.008347 -0.002324 -0.002440 0.000000 0.000000 0.000000
# 2 -0.002324 0.010591 -0.001436 0.000000 0.000000 0.000000
# 3 -0.002440 -0.001436 0.006596 0.000000 0.000000 0.000000
# 4 0.000000 0.000000 0.000000 0.014314 0.000000 0.000000
# 5 0.000000 0.000000 0.000000 0.000000 0.023529 0.000000
# 6 0.000000 0.000000 0.000000 0.000000 0.000000 -0.011543
#
#
# Mechanical properties :
#
#
# Convention : Reuss Voigt Hill
#
# Bulk Modulus (GPa) = 76.13493 81.61793 78.87643
# Shear Modulus (GPa) = 72.87676 24.99289 48.93482
#
# Velocity S-wave (km/s) = 5.40479 3.16514 4.42887
# Velocity P-wave (km/s) = 8.33467 6.78771 7.60065
#
# Compressibility (1/GPa) = 0.01313458
#
# Stress axis : x y z
#
# Youngs Moduli (GPa) = 119.80931 94.42113 151.61637
#
# Poissons Ratio (x) = 0.21939 0.36995
# Poissons Ratio (y) = 0.27838 0.21767
# Poissons Ratio (z) = 0.29234 0.13556
#
# Static dielectric constant tensor:
#      x y z
#    x 1.953110 0.000000 0.000000 
#    y 0.000000 1.904200 0.000000 
#    z 0.000000 0.000000 3.188300 
# 
# From -- ./inp_files/14339.got.cif
#   From: 2010.05.17/outbox.cif.g08.bks.cpg/sg22_8_cif.got.tgz:14339.got - 2010.06.03 23:40:54.
