data_PCOD9329955
_publ_section_title
;
Structure prediction by ZEFSAII (Michael W. Deem and Ramdas Pophale) SiO2 
 PCOD9329955
Probable space group: I 2 2 2
;
_chemical_formula_sum "Si O2"
_cell_formula_units_Z 40
_cell_length_a 7.335410
_cell_length_b 15.582549
_cell_length_c 14.984992
_cell_angle_alpha 90.000000
_cell_angle_beta 90.000000
_cell_angle_gamma 90.000000
_cell_volume 1712.850306
_symmetry_space_group_name_H-M "I 2 2 2"
_symmetry_group_IT_number 23
_symmetry_cell_setting 'orthorhombic'
loop_
_space_group_symop_operation_xyz
x,y,z
-x,-y,z
x,-y,-z
-x,y,-z
1/2+x,1/2+y,1/2+z
1/2-x,1/2-y,1/2+z
1/2+x,1/2-y,1/2-z
1/2-x,1/2+y,1/2-z
loop_
_atom_site_type_symbol
_atom_site_label
_atom_site_fract_x
_atom_site_fract_y
_atom_site_fract_z
Si Si1 0.699024 0.581921 0.453642
Si Si2 0.147439 0.823068 0.714268
Si Si3 0.204386 0.994404 0.244151
Si Si4 0.792493 0.222596 0.523249
Si Si5 0.781251 0.662825 0.163923
O O1 0.791139 0.500000 0.500000
O O2 0.500000 0.588665 0.500000
O O3 0.688549 0.555105 0.350105
O O4 0.784390 0.674385 0.468630
O O5 0.253898 0.812175 0.621046
O O6 0.144689 0.738206 0.773843
O O7 0.936246 0.833354 0.686040
O O8 0.238446 0.903897 0.765665
O O9 0.327962 0.933857 0.305675
O O10 0.000000 0.000000 0.284246
O O11 0.683523 0.187120 0.438453
O O12 0.000000 0.198423 0.500000
#
# Coordination Sequence:
#
# PCOD9329955 Si02
#       5
#     8   8   8   8   8
#     4  11  20  33  58  86 110 141 196 238 280 328
#     4  10  21  38  57  82 117 148 191 232 283 339
#     4  10  19  35  57  84 110 148 192 234 272 335
#     4  10  22  37  54  84 118 149 180 234 294 335
#     4  10  21  36  58  82 114 151 189 234 282 338
#
# _framework density 23.352888
#
# number of rings (size 3 to 8) (size 9 to 14) (size 15 to 20)
#    0.000    1.800    4.000    1.200    2.800    1.200 
#    0.000    5.000    0.000    0.000    0.000    4.200 
#    0.000    0.000    0.000    0.000    0.000    0.000 
#
# Total GULP energy -111624.427278 kJ/mol
# GULP energy per Si atom -5581.221364 kJ/mol
# Density = 2.329974 g / cm^3
# Si number density = 23.352888 Si / 1000 Ang^3
#
#
#
# Elastic Constant Matrix: (Units=GPa)
#
#
# Indices 1 2 3 4 5 6 
#
# 1 43.9649 0.8432 11.6857 0.0000 0.0000 0.0000
# 2 0.8432 114.2758 33.8881 0.0000 0.0000 0.0000
# 3 11.6857 33.8881 128.5305 0.0000 0.0000 0.0000
# 4 0.0000 0.0000 0.0000 45.8684 0.0000 0.0000
# 5 0.0000 0.0000 0.0000 0.0000 18.1292 0.0000
# 6 0.0000 0.0000 0.0000 0.0000 0.0000 25.0304
#
#
#
# Elastic Compliance Matrix: (Units=1/GPa)
#
#
# Indices 1 2 3 4 5 6 
#
# 1 0.023335 0.000496 -0.002252 0.000000 0.000000 0.000000
# 2 0.000496 0.009504 -0.002551 0.000000 0.000000 0.000000
# 3 -0.002252 -0.002551 0.008658 0.000000 0.000000 0.000000
# 4 0.000000 0.000000 0.000000 0.021802 0.000000 0.000000
# 5 0.000000 0.000000 0.000000 0.000000 0.055160 0.000000
# 6 0.000000 0.000000 0.000000 0.000000 0.000000 0.039951
#
#
# Mechanical properties :
#
#
# Convention : Reuss Voigt Hill
#
# Bulk Modulus (GPa) = 30.41263 42.17836 36.29550
# Shear Modulus (GPa) = 28.09258 33.82921 30.96089
#
# Velocity S-wave (km/s) = 3.47213 3.81019 3.64508
# Velocity P-wave (km/s) = 5.39682 6.12023 5.76987
#
# Compressibility (1/GPa) = 0.03288107
#
# Stress axis : x y z
#
# Youngs Moduli (GPa) = 42.85495 105.22419 115.50618
#
# Poissons Ratio (x) = -0.05216 0.26014
# Poissons Ratio (y) = -0.02124 0.29463
# Poissons Ratio (z) = 0.09652 0.26840
#
# Static dielectric constant tensor:
#      x y z
#    x 1.990250 0.000000 0.000000 
#    y 0.000000 1.968890 0.000000 
#    z 0.000000 0.000000 1.896550 
# 
# From -- ./inp_files/9557.got.cif
#   From: 2010.05.17/outbox.cif.g08.bks.cpg/sg23_5_cif.got.tgz:9557.got - 2010.06.04 12:02:01.
