data_PCOD9329400
_publ_section_title
;
Structure prediction by ZEFSAII (Michael W. Deem and Ramdas Pophale) SiO2 
 PCOD9329400
Probable space group: I 2 2 2
;
_chemical_formula_sum "Si O2"
_cell_formula_units_Z 56
_cell_length_a 26.773199
_cell_length_b 6.955769
_cell_length_c 12.949584
_cell_angle_alpha 90.000000
_cell_angle_beta 90.000000
_cell_angle_gamma 90.000000
_cell_volume 2411.577559
_symmetry_space_group_name_H-M "I 2 2 2"
_symmetry_group_IT_number 23
_symmetry_cell_setting 'orthorhombic'
loop_
_space_group_symop_operation_xyz
x,y,z
-x,-y,z
x,-y,-z
-x,y,-z
1/2+x,1/2+y,1/2+z
1/2-x,1/2-y,1/2+z
1/2+x,1/2-y,1/2-z
1/2-x,1/2+y,1/2-z
loop_
_atom_site_type_symbol
_atom_site_label
_atom_site_fract_x
_atom_site_fract_y
_atom_site_fract_z
Si Si1 0.884879 0.913629 0.883381
Si Si2 0.489567 0.730736 0.618842
Si Si3 0.185897 0.336719 0.310363
Si Si4 0.203052 0.106723 0.741865
Si Si5 0.916541 0.291625 0.756925
Si Si6 0.054943 0.225961 0.479742
Si Si7 0.339875 0.271990 0.033900
O O1 0.929645 0.759695 0.868149
O O2 0.831844 0.841444 0.839740
O O3 0.900804 0.094837 0.813652
O O4 0.882999 0.000000 0.000000
O O5 0.500000 0.500000 0.633613
O O6 0.500000 0.774364 0.500000
O O7 0.531591 0.839763 0.685566
O O8 0.238810 0.404113 0.268145
O O9 0.135593 0.408396 0.252578
O O10 0.180769 0.340693 0.434353
O O11 0.187932 0.108365 0.288479
O O12 0.189952 0.235013 0.641152
O O13 0.930773 0.255794 0.638491
O O14 0.102199 0.290780 0.548036
O O15 0.000000 0.303699 0.500000
O O16 0.051738 0.000000 0.500000
O O17 0.340591 0.500000 0.000000
#
# Coordination Sequence:
#
# PCOD9329400 Si02
#       7
#     8   8   8   8   8   8   8
#     4  10  17  26  41  69  96 124 156 198 253 301
#     4   9  14  24  38  60  96 125 137 184 260 307
#     4   9  19  34  48  71  94 133 167 205 244 297
#     4  10  20  32  52  67 100 129 166 208 248 286
#     4   9  17  26  39  58  95 123 149 187 246 295
#     4   9  16  21  36  60  84 118 155 178 218 288
#     4   8  16  32  43  63  97 128 153 193 246 292
#
# _framework density 23.221312000000001
#
# number of rings (size 3 to 8) (size 9 to 14) (size 15 to 20)
#    0.000    2.857    2.857    2.571    8.000    2.286 
#    0.000    0.000    0.000    0.000    0.000    1.000 
#    0.000    2.571    0.000    0.000    0.000    0.000 
#
# Total GULP energy -156181.006248 kJ/mol
# GULP energy per Si atom -5577.893080 kJ/mol
# Density = 2.316846 g / cm^3
# Si number density = 23.221312 Si / 1000 Ang^3
#
#
#
# Elastic Constant Matrix: (Units=GPa)
#
#
# Indices 1 2 3 4 5 6 
#
# 1 238.5287 24.4983 120.2410 0.0000 0.0000 0.0000
# 2 24.4983 61.3920 21.4873 0.0000 0.0000 0.0000
# 3 120.2410 21.4873 123.1972 0.0000 0.0000 0.0000
# 4 0.0000 0.0000 0.0000 -15.2756 0.0000 0.0000
# 5 0.0000 0.0000 0.0000 0.0000 40.6608 0.0000
# 6 0.0000 0.0000 0.0000 0.0000 0.0000 23.4565
#
#
#
# Elastic Compliance Matrix: (Units=1/GPa)
#
#
# Indices 1 2 3 4 5 6 
#
# 1 0.008267 -0.000506 -0.007981 0.000000 0.000000 0.000000
# 2 -0.000506 0.017379 -0.002537 0.000000 0.000000 0.000000
# 3 -0.007981 -0.002537 0.016349 0.000000 0.000000 0.000000
# 4 0.000000 0.000000 0.000000 -0.065464 0.000000 0.000000
# 5 0.000000 0.000000 0.000000 0.000000 0.024594 0.000000
# 6 0.000000 0.000000 0.000000 0.000000 0.000000 0.042632
#
#
# Mechanical properties :
#
#
# Convention : Reuss Voigt Hill
#
# Bulk Modulus (GPa) = 50.13287 83.95235 67.04261
# Shear Modulus (GPa) = 69.00924 26.89442 47.95183
#
# Velocity S-wave (km/s) = 5.45734 3.40689 4.54915
# Velocity P-wave (km/s) = 7.83238 7.19080 7.51843
#
# Compressibility (1/GPa) = 0.01994699
#
# Stress axis : x y z
#
# Youngs Moduli (GPa) = 120.95728 57.54163 61.16616
#
# Poissons Ratio (x) = 0.02910 0.48815
# Poissons Ratio (y) = 0.06118 0.15521
# Poissons Ratio (z) = 0.96533 0.14601
#
# Static dielectric constant tensor:
#      x y z
#    x 1.977000 0.000000 0.000000 
#    y 0.000000 1.987080 0.000000 
#    z 0.000000 0.000000 1.816920 
# 
# From -- ./inp_files/18397.got.cif
#   From: 2010.05.17/outbox.cif.g08.bks.cpg/sg23_10_cif.got.tgz:18397.got - 2010.06.04 12:02:01.
