data_PCOD9329860
_publ_section_title
;
Structure prediction by ZEFSAII (Michael W. Deem and Ramdas Pophale) SiO2 
 PCOD9329860
Probable space group: I 2 2 2
;
_chemical_formula_sum "Si O2"
_cell_formula_units_Z 58
_cell_length_a 22.545076
_cell_length_b 14.658853
_cell_length_c 9.797644
_cell_angle_alpha 90.000000
_cell_angle_beta 90.000000
_cell_angle_gamma 90.000000
_cell_volume 3237.973936
_symmetry_space_group_name_H-M "I 2 2 2"
_symmetry_group_IT_number 23
_symmetry_cell_setting 'orthorhombic'
loop_
_space_group_symop_operation_xyz
x,y,z
-x,-y,z
x,-y,-z
-x,y,-z
1/2+x,1/2+y,1/2+z
1/2-x,1/2-y,1/2+z
1/2+x,1/2-y,1/2-z
1/2-x,1/2+y,1/2-z
loop_
_atom_site_type_symbol
_atom_site_label
_atom_site_fract_x
_atom_site_fract_y
_atom_site_fract_z
Si Si1 0.828588 0.778051 0.041582
Si Si2 0.783902 0.607204 0.460939
Si Si3 0.070124 0.106209 0.523197
Si Si4 0.749528 0.369218 0.065350
Si Si5 0.282775 0.455501 0.208504
Si Si6 0.000000 0.000000 0.000000
Si Si7 0.398457 0.597430 0.671893
Si Si8 0.144719 0.245739 0.345800
O O1 0.862729 0.757592 0.182696
O O2 0.766620 0.838685 0.049874
O O3 0.808315 0.680268 0.982856
O O4 0.868880 0.831673 0.932588
O O5 0.789601 0.500000 0.500000
O O6 0.755248 0.603631 0.310824
O O7 0.845373 0.661722 0.434631
O O8 0.083647 0.133794 0.679369
O O9 0.100566 0.175722 0.418794
O O10 0.000000 0.107588 0.500000
O O11 0.089418 0.000000 0.500000
O O12 0.752979 0.455851 0.162318
O O13 0.710212 0.296165 0.140660
O O14 0.711905 0.399779 0.931883
O O15 0.344855 0.473019 0.286548
O O16 0.955177 0.054776 0.098323
#
# Coordination Sequence:
#
# PCOD9329860 Si02
#       8
#     8   8   8   8   8   2   8   8
#     4  10  23  36  56  86 122 154 195 247 304 356
#     4  10  21  34  54  84 120 151 196 237 296 362
#     4  11  24  40  60  83 115 155 209 248 298 360
#     4  10  19  33  56  81 117 155 187 234 293 366
#     4  10  19  35  55  83 117 154 197 232 294 361
#     4  12  28  40  58  80 124 158 218 252 290 348
#     4  11  25  39  54  83 116 163 201 246 296 348
#     4  11  21  36  57  81 117 155 196 244 297 356
#
# _framework density 17.912436
#
# number of rings (size 3 to 8) (size 9 to 14) (size 15 to 20)
#    0.000    1.517    2.759    2.483    9.655    1.103 
#    0.000    0.000    0.000    0.414    0.000    0.000 
#    0.000    2.207    0.000    0.000    0.000    0.000 
#
# Total GULP energy -161520.480827 kJ/mol
# GULP energy per Si atom -5569.671753 kJ/mol
# Density = 1.787167 g / cm^3
# Si number density = 17.912436 Si / 1000 Ang^3
#
#
#
# Elastic Constant Matrix: (Units=GPa)
#
#
# Indices 1 2 3 4 5 6 
#
# 1 86.8067 45.4148 44.1176 0.0000 0.0000 0.0000
# 2 45.4148 96.7244 33.0121 0.0000 0.0000 0.0000
# 3 44.1176 33.0121 101.0486 0.0000 0.0000 0.0000
# 4 0.0000 0.0000 0.0000 28.6855 0.0000 0.0000
# 5 0.0000 0.0000 0.0000 0.0000 19.5097 0.0000
# 6 0.0000 0.0000 0.0000 0.0000 0.0000 31.1513
#
#
#
# Elastic Compliance Matrix: (Units=1/GPa)
#
#
# Indices 1 2 3 4 5 6 
#
# 1 0.017743 -0.006400 -0.005655 0.000000 0.000000 0.000000
# 2 -0.006400 0.013945 -0.001761 0.000000 0.000000 0.000000
# 3 -0.005655 -0.001761 0.012941 0.000000 0.000000 0.000000
# 4 0.000000 0.000000 0.000000 0.034861 0.000000 0.000000
# 5 0.000000 0.000000 0.000000 0.000000 0.051256 0.000000
# 6 0.000000 0.000000 0.000000 0.000000 0.000000 0.032101
#
#
# Mechanical properties :
#
#
# Convention : Reuss Voigt Hill
#
# Bulk Modulus (GPa) = 58.84424 58.85208 58.84816
# Shear Modulus (GPa) = 25.49120 26.67165 26.08142
#
# Velocity S-wave (km/s) = 3.77649 3.86294 3.81996
# Velocity P-wave (km/s) = 7.20682 7.26796 7.23745
#
# Compressibility (1/GPa) = 0.01699402
#
# Stress axis : x y z
#
# Youngs Moduli (GPa) = 56.36152 71.71028 77.27516
#
# Poissons Ratio (x) = 0.45898 0.43702
# Poissons Ratio (y) = 0.36074 0.13611
# Poissons Ratio (z) = 0.31875 0.12631
#
# Static dielectric constant tensor:
#      x y z
#    x 1.618340 0.000000 0.000000 
#    y 0.000000 1.695350 0.000000 
#    z 0.000000 0.000000 1.661150 
# 
# From -- ./inp_files/12701.got.cif
#   From: 2010.05.17/outbox.cif.g08.bks.cpg/sg23_7_cif.got.tgz:12701.got - 2010.06.04 12:02:01.
