data_PCOD9329039
_publ_section_title
;
Structure prediction by ZEFSAII (Michael W. Deem and Ramdas Pophale) SiO2 
 PCOD9329039
Probable space group: F 2 2 2
;
_chemical_formula_sum "Si O2"
_cell_formula_units_Z 64
_cell_length_a 11.374749
_cell_length_b 13.610675
_cell_length_c 18.069885
_cell_angle_alpha 90.000000
_cell_angle_beta 90.000000
_cell_angle_gamma 90.000000
_cell_volume 2797.543670
_symmetry_space_group_name_H-M "F 2 2 2"
_symmetry_group_IT_number 22
_symmetry_cell_setting 'orthorhombic'
loop_
_space_group_symop_operation_xyz
x,y,z
-x,-y,z
x,-y,-z
-x,y,-z
x,1/2+y,1/2+z
-x,1/2-y,1/2+z
x,1/2-y,1/2-z
-x,1/2+y,1/2-z
1/2+x,y,1/2+z
1/2-x,-y,1/2+z
1/2+x,-y,1/2-z
1/2-x,y,1/2-z
1/2+x,1/2+y,z
1/2-x,1/2-y,z
1/2+x,1/2-y,-z
1/2-x,1/2+y,-z
loop_
_atom_site_type_symbol
_atom_site_label
_atom_site_fract_x
_atom_site_fract_y
_atom_site_fract_z
Si Si1 0.818405 0.906094 0.943905
Si Si2 0.576833 0.301470 0.438087
Si Si3 0.623662 0.276960 0.836484
Si Si4 0.627175 0.002732 0.704856
O O1 0.686441 0.871449 0.924388
O O2 0.878677 0.804438 0.970362
O O3 0.873357 0.928307 0.863636
O O4 0.826290 0.000000 0.000000
O O5 0.500000 0.352738 0.500000
O O6 0.488008 0.275447 0.372244
O O7 0.624579 0.250000 0.750000
O O8 0.750000 0.250000 0.870886
O O9 0.626191 0.393348 0.836124
O O10 0.750000 0.993404 0.750000
O O11 0.500000 0.000000 0.746368
#
# Coordination Sequence:
#
# PCOD9329039 Si02
#       4
#    16  16  16  16
#     4  11  27  46  71 103 136 186 235 291 350 417
#     4  11  26  45  70 101 142 179 233 294 349 416
#     4  11  24  45  70 101 140 185 229 284 355 424
#     4  12  26  46  73 105 142 187 235 289 351 427
#
# _framework density 22.877210000000002
#
# number of rings (size 3 to 8) (size 9 to 14) (size 15 to 20)
#    0.000    0.750    5.000    1.500   10.500    0.500 
#    0.000    2.500    0.000    0.000    0.000    0.000 
#    0.000    0.000    0.000    0.000    0.000    0.000 
#
# Total GULP energy -89287.672379 kJ/mol
# GULP energy per Si atom -5580.479524 kJ/mol
# Density = 2.282514 g / cm^3
# Si number density = 22.877210 Si / 1000 Ang^3
#
#
#
# Elastic Constant Matrix: (Units=GPa)
#
#
# Indices 1 2 3 4 5 6 
#
# 1 184.1474 20.6441 46.6285 0.0000 0.0000 0.0000
# 2 20.6441 46.6049 -1.2959 0.0000 0.0000 0.0000
# 3 46.6285 -1.2959 77.3088 0.0000 0.0000 0.0000
# 4 0.0000 0.0000 0.0000 13.8431 0.0000 0.0000
# 5 0.0000 0.0000 0.0000 0.0000 47.2413 0.0000
# 6 0.0000 0.0000 0.0000 0.0000 0.0000 33.8818
#
#
#
# Elastic Compliance Matrix: (Units=1/GPa)
#
#
# Indices 1 2 3 4 5 6 
#
# 1 0.006841 -0.003147 -0.004179 0.000000 0.000000 0.000000
# 2 -0.003147 0.022914 0.002282 0.000000 0.000000 0.000000
# 3 -0.004179 0.002282 0.015494 0.000000 0.000000 0.000000
# 4 0.000000 0.000000 0.000000 0.072238 0.000000 0.000000
# 5 0.000000 0.000000 0.000000 0.000000 0.021168 0.000000
# 6 0.000000 0.000000 0.000000 0.000000 0.000000 0.029514
#
#
# Mechanical properties :
#
#
# Convention : Reuss Voigt Hill
#
# Bulk Modulus (GPa) = 28.43972 48.89052 38.66512
# Shear Modulus (GPa) = 26.31883 35.13222 30.72552
#
# Velocity S-wave (km/s) = 3.39549 3.92303 3.66876
# Velocity P-wave (km/s) = 5.27550 6.47592 5.90629
#
# Compressibility (1/GPa) = 0.03516210
#
# Stress axis : x y z
#
# Youngs Moduli (GPa) = 146.16896 43.64094 64.54111
#
# Poissons Ratio (x) = 0.13732 0.26972
# Poissons Ratio (y) = 0.45995 -0.14728
# Poissons Ratio (z) = 0.61086 -0.09959
#
# Static dielectric constant tensor:
#      x y z
#    x 1.978810 0.000000 0.000000 
#    y 0.000000 1.574490 0.000000 
#    z 0.000000 0.000000 1.715830 
# 
# From -- ./inp_files/17752.got.cif
#   From: 2010.05.17/outbox.cif.g08.bks.cpg/sg22_9_cif.got.tgz:17752.got - 2010.06.03 23:40:54.
