data_PCOD9329288
_publ_section_title
;
Structure prediction by ZEFSAII (Michael W. Deem and Ramdas Pophale) SiO2 
 PCOD9329288
Probable space group: F 2 2 2
;
_chemical_formula_sum "Si O2"
_cell_formula_units_Z 28
_cell_length_a 30.000000
_cell_length_b 12.000000
_cell_length_c 15.000000
_cell_angle_alpha 90.000000
_cell_angle_beta 90.000000
_cell_angle_gamma 90.000000
_cell_volume 5400.000000
_symmetry_space_group_name_H-M "F 2 2 2"
_symmetry_group_IT_number 22
_symmetry_cell_setting 'orthorhombic'
loop_
_space_group_symop_operation_xyz
x,y,z
-x,-y,z
x,-y,-z
-x,y,-z
x,1/2+y,1/2+z
-x,1/2-y,1/2+z
x,1/2-y,1/2-z
-x,1/2+y,1/2-z
1/2+x,y,1/2+z
1/2-x,-y,1/2+z
1/2+x,-y,1/2-z
1/2-x,y,1/2-z
1/2+x,1/2+y,z
1/2-x,1/2-y,z
1/2+x,1/2-y,-z
1/2-x,1/2+y,-z
loop_
_atom_site_type_symbol
_atom_site_label
_atom_site_fract_x
_atom_site_fract_y
_atom_site_fract_z
Si Si1 0.949759 0.687176 0.465907
Si Si2 0.300602 0.716221 0.921740
Si Si3 0.066210 0.441801 0.088053
Si Si4 0.635870 0.888447 0.559016
Si Si5 0.568004 0.378321 0.774340
Si Si6 0.332744 0.968667 0.711968
Si Si7 0.169636 0.960732 0.596790
O O1 0.935953 0.810944 0.434685
O O2 0.913641 0.657319 0.541857
O O3 0.946098 0.608697 0.377649
O O4 0.000000 0.685654 0.500000
O O5 0.250000 0.750000 0.937529
O O6 0.303992 0.614878 0.850504
O O7 0.324470 0.828579 0.890166
O O8 0.327157 0.686187 0.011108
O O9 0.049192 0.449792 0.190613
O O10 0.116999 0.486089 0.093373
O O11 0.046584 0.500000 0.000000
O O12 0.636623 0.000000 0.500000
O O13 0.651336 0.924089 0.656232
O O14 0.558547 0.250000 0.750000
O O15 0.621045 0.400444 0.774006
O O16 0.312842 0.003591 0.807643
O O17 0.188427 0.000000 0.500000
#
# Coordination Sequence:
#
# PCOD9329288 Si02
#       7
#    16  16  16  16  16  16  16
#     4  11  20  34  63  87 118 157 202 256 303 362
#     4  11  21  36  61  91 120 154 199 249 295 357
#     4   9  18  35  63  83 117 162 199 241 302 357
#     4  10  20  38  59  86 123 157 196 244 310 356
#     4   9  16  33  60  84 117 156 201 245 301 348
#     4  10  19  36  62  86 115 162 197 245 296 356
#     4  10  20  36  62  87 116 157 202 244 297 356
#
# _framework density 5.1851849999999997
#
# number of rings (size 3 to 8) (size 9 to 14) (size 15 to 20)
#    0.000    2.000    4.286    2.143    0.000    3.429 
#    0.000    0.714   37.714    0.857    0.000    0.000 
#    0.000    0.000    0.000    0.000    0.000    0.000 
#
# Total GULP energy -155931.629581 kJ/mol
# GULP energy per Si atom -5568.986771 kJ/mol
# Density = 0.517338 g / cm^3
# Si number density = 5.185185 Si / 1000 Ang^3
#
#
#
# Elastic Constant Matrix: (Units=GPa)
#
#
# Indices 1 2 3 4 5 6 
#
# 1 65.9448 10.4603 9.2435 0.0000 0.0000 0.0000
# 2 10.4603 25.4306 34.6664 0.0000 0.0000 0.0000
# 3 9.2435 34.6664 155.4796 0.0000 0.0000 0.0000
# 4 0.0000 0.0000 0.0000 22.7295 0.0000 0.0000
# 5 0.0000 0.0000 0.0000 0.0000 -5.5169 0.0000
# 6 0.0000 0.0000 0.0000 0.0000 0.0000 -27.2573
#
#
#
# Elastic Compliance Matrix: (Units=1/GPa)
#
#
# Indices 1 2 3 4 5 6 
#
# 1 0.016284 -0.007727 0.000755 0.000000 0.000000 0.000000
# 2 -0.007727 0.060160 -0.012954 0.000000 0.000000 0.000000
# 3 0.000755 -0.012954 0.009275 0.000000 0.000000 0.000000
# 4 0.000000 0.000000 0.000000 0.043996 0.000000 0.000000
# 5 0.000000 0.000000 0.000000 0.000000 -0.181262 0.000000
# 6 0.000000 0.000000 0.000000 0.000000 0.000000 -0.036687
#
#
# Mechanical properties :
#
#
# Convention : Reuss Voigt Hill
#
# Bulk Modulus (GPa) = 21.80250 39.51061 30.65656
# Shear Modulus (GPa) = -151.08620 10.82337 -70.13141
#
# Velocity S-wave (km/s) = -8.54420 2.28686 -5.82123
# Velocity P-wave (km/s) = 9.31681 5.10530 5.51085
#
# Compressibility (1/GPa) = 0.04586629
#
# Stress axis : x y z
#
# Youngs Moduli (GPa) = 61.40970 16.62247 107.81518
#
# Poissons Ratio (x) = 0.12844 -0.08137
# Poissons Ratio (y) = 0.47450 1.39664
# Poissons Ratio (z) = -0.04635 0.21533
#
# Static dielectric constant tensor:
#      x y z
#    x 1.772650 0.000000 0.000000 
#    y 0.000000 1.790050 0.000000 
#    z 0.000000 0.000000 1.875930 
# 
# From -- ./inp_files/33518.got.cif
#   From: 2010.05.17/outbox.ucp.g08.bks.cvg/sg22_17_cif.got.tgz:33518.got - 2010.06.11 15:16:44.
