data_PCOD9329802
_publ_section_title
;
Structure prediction by ZEFSAII (Michael W. Deem and Ramdas Pophale) SiO2 
 PCOD9329802
Probable space group: I 2 2 2
;
_chemical_formula_sum "Si O2"
_cell_formula_units_Z 52
_cell_length_a 18.813062
_cell_length_b 7.619631
_cell_length_c 14.311067
_cell_angle_alpha 90.000000
_cell_angle_beta 90.000000
_cell_angle_gamma 90.000000
_cell_volume 2051.471282
_symmetry_space_group_name_H-M "I 2 2 2"
_symmetry_group_IT_number 23
_symmetry_cell_setting 'orthorhombic'
loop_
_space_group_symop_operation_xyz
x,y,z
-x,-y,z
x,-y,-z
-x,y,-z
1/2+x,1/2+y,1/2+z
1/2-x,1/2-y,1/2+z
1/2+x,1/2-y,1/2-z
1/2-x,1/2+y,1/2-z
loop_
_atom_site_type_symbol
_atom_site_label
_atom_site_fract_x
_atom_site_fract_y
_atom_site_fract_z
Si Si1 0.014822 0.287264 0.295273
Si Si2 0.133597 0.764829 0.354745
Si Si3 0.459287 0.718264 0.595275
Si Si4 0.316173 0.404301 0.346702
Si Si5 0.332571 0.872138 0.168706
Si Si6 0.883961 0.500000 0.000000
Si Si7 0.717247 0.191057 0.371824
O O1 0.095654 0.257396 0.328925
O O2 0.000000 0.500000 0.292329
O O3 0.950898 0.204659 0.357380
O O4 0.004114 0.212828 0.190300
O O5 0.156794 0.813978 0.248684
O O6 0.143301 0.557555 0.373678
O O7 0.202080 0.849979 0.403656
O O8 0.500000 0.687277 0.500000
O O9 0.388806 0.601942 0.597186
O O10 0.429143 0.915220 0.582271
O O11 0.242060 0.310157 0.376196
O O12 0.292028 0.605804 0.342916
O O13 0.308761 0.904528 0.276943
O O14 0.835629 0.645401 0.046391
#
# Coordination Sequence:
#
# PCOD9329802 Si02
#       7
#     8   8   8   8   8   4   8
#     4   9  15  28  52  79 103 130 170 219 265 312
#     4   8  16  31  52  75 101 133 176 226 267 307
#     4  11  21  35  51  75 109 145 180 217 265 327
#     4   9  19  33  50  73 104 140 179 222 265 314
#     4   9  16  31  54  76 101 136 175 217 265 320
#     4  12  23  34  50  70 103 150 186 212 261 336
#     4  10  19  32  49  73 104 142 181 215 262 322
#
# _framework density 25.347662
#
# number of rings (size 3 to 8) (size 9 to 14) (size 15 to 20)
#    0.000    2.462    0.000    4.846    0.000    1.846 
#    0.000   10.000    0.000    0.000    0.000    2.154 
#    0.000    6.154    0.000    0.000    0.000    0.000 
#
# Total GULP energy -145106.335972 kJ/mol
# GULP energy per Si atom -5581.012922 kJ/mol
# Density = 2.528997 g / cm^3
# Si number density = 25.347662 Si / 1000 Ang^3
#
#
#
# Elastic Constant Matrix: (Units=GPa)
#
#
# Indices 1 2 3 4 5 6 
#
# 1 221.1039 18.7672 10.7212 0.0000 0.0000 0.0000
# 2 18.7672 57.3299 6.3720 0.0000 0.0000 0.0000
# 3 10.7212 6.3720 16.1320 0.0000 0.0000 0.0000
# 4 0.0000 0.0000 0.0000 12.5051 0.0000 0.0000
# 5 0.0000 0.0000 0.0000 0.0000 34.2942 0.0000
# 6 0.0000 0.0000 0.0000 0.0000 0.0000 36.3299
#
#
#
# Elastic Compliance Matrix: (Units=1/GPa)
#
#
# Indices 1 2 3 4 5 6 
#
# 1 0.004759 -0.001262 -0.002664 0.000000 0.000000 0.000000
# 2 -0.001262 0.018578 -0.006500 0.000000 0.000000 0.000000
# 3 -0.002664 -0.006500 0.066327 0.000000 0.000000 0.000000
# 4 0.000000 0.000000 0.000000 0.079967 0.000000 0.000000
# 5 0.000000 0.000000 0.000000 0.000000 0.029159 0.000000
# 6 0.000000 0.000000 0.000000 0.000000 0.000000 0.027526
#
#
# Mechanical properties :
#
#
# Convention : Reuss Voigt Hill
#
# Bulk Modulus (GPa) = 14.53231 40.69850 27.61540
# Shear Modulus (GPa) = 18.51127 33.87287 26.19207
#
# Velocity S-wave (km/s) = 2.70533 3.65955 3.21801
# Velocity P-wave (km/s) = 3.93752 5.82644 4.97250
#
# Compressibility (1/GPa) = 0.06881219
#
# Stress axis : x y z
#
# Youngs Moduli (GPa) = 210.12576 53.82605 15.07690
#
# Poissons Ratio (x) = 0.06792 0.04017
# Poissons Ratio (y) = 0.26513 0.09800
# Poissons Ratio (z) = 0.55987 0.34986
#
# Static dielectric constant tensor:
#      x y z
#    x 2.089240 0.000000 0.000000 
#    y 0.000000 2.062240 0.000000 
#    z 0.000000 0.000000 1.979330 
# 
# From -- ./inp_files/25038.got.cif
#   From: 2010.05.17/outbox.cif.g08.bks.cpg/sg23_13_cif.got.tgz:25038.got - 2010.06.04 12:02:01.
