data_PCOD9329467
_publ_section_title
;
Structure prediction by ZEFSAII (Michael W. Deem and Ramdas Pophale) SiO2 
 PCOD9329467
Probable space group: I 2 2 2
;
_chemical_formula_sum "Si O2"
_cell_formula_units_Z 64
_cell_length_a 14.736692
_cell_length_b 9.351043
_cell_length_c 20.923522
_cell_angle_alpha 90.000000
_cell_angle_beta 90.000000
_cell_angle_gamma 90.000000
_cell_volume 2883.333320
_symmetry_space_group_name_H-M "I 2 2 2"
_symmetry_group_IT_number 23
_symmetry_cell_setting 'orthorhombic'
loop_
_space_group_symop_operation_xyz
x,y,z
-x,-y,z
x,-y,-z
-x,y,-z
1/2+x,1/2+y,1/2+z
1/2-x,1/2-y,1/2+z
1/2+x,1/2-y,1/2-z
1/2-x,1/2+y,1/2-z
loop_
_atom_site_type_symbol
_atom_site_label
_atom_site_fract_x
_atom_site_fract_y
_atom_site_fract_z
Si Si1 0.141301 0.512322 0.429503
Si Si2 0.721602 0.246231 0.561125
Si Si3 0.710233 0.333318 0.926012
Si Si4 0.627221 0.209748 0.333040
Si Si5 0.540767 0.349800 0.606684
Si Si6 0.173873 0.029630 0.787840
Si Si7 0.344324 0.566811 0.147948
Si Si8 0.120440 0.635951 0.694093
O O1 0.097666 0.500000 0.500000
O O2 0.225230 0.398547 0.436265
O O3 0.172708 0.673460 0.418267
O O4 0.092135 0.462753 0.364947
O O5 0.752799 0.166153 0.497600
O O6 0.615931 0.280382 0.561878
O O7 0.755608 0.150676 0.620482
O O8 0.793767 0.354901 0.876692
O O9 0.636536 0.453565 0.907889
O O10 0.540881 0.246269 0.376026
O O11 0.667434 0.363554 0.309282
O O12 0.594877 0.127902 0.268837
O O13 0.500000 0.500000 0.582553
O O14 0.596753 0.390266 0.671574
O O15 0.271539 0.099118 0.799994
O O16 0.160546 0.025287 0.712235
O O17 0.402833 0.704339 0.168779
#
# Coordination Sequence:
#
# PCOD9329467 Si02
#       8
#     8   8   8   8   8   8   8   8
#     4   9  17  30  51  75 103 137 185 231 271 320
#     4  10  20  35  50  73 112 146 181 229 264 328
#     4  11  19  31  50  78 106 149 189 218 271 332
#     4  10  20  30  52  80 105 143 187 225 268 326
#     4  10  19  35  53  79 112 147 188 226 269 329
#     4  10  17  33  55  75 101 144 184 234 274 317
#     4  10  20  31  53  77 102 140 179 236 283 312
#     4  10  17  33  53  77 104 139 183 236 279 310
#
# _framework density 22.196532000000001
#
# number of rings (size 3 to 8) (size 9 to 14) (size 15 to 20)
#    0.000    2.000    5.000    1.125    0.000    0.500 
#    0.000    2.500    0.000    1.500    0.000    0.000 
#    0.000   99.000    0.000    0.000    0.000    0.000 
#
# Total GULP energy -178335.674861 kJ/mol
# GULP energy per Si atom -5572.989839 kJ/mol
# Density = 2.214601 g / cm^3
# Si number density = 22.196532 Si / 1000 Ang^3
#
#
#
# Elastic Constant Matrix: (Units=GPa)
#
#
# Indices 1 2 3 4 5 6 
#
# 1 34.9524 14.4862 -5.1391 0.0000 0.0000 0.0000
# 2 14.4862 81.5064 14.4131 0.0000 0.0000 0.0000
# 3 -5.1391 14.4131 101.4575 0.0000 0.0000 0.0000
# 4 0.0000 0.0000 0.0000 33.9292 0.0000 0.0000
# 5 0.0000 0.0000 0.0000 0.0000 -9.5766 0.0000
# 6 0.0000 0.0000 0.0000 0.0000 0.0000 3.5051
#
#
#
# Elastic Compliance Matrix: (Units=1/GPa)
#
#
# Indices 1 2 3 4 5 6 
#
# 1 0.031468 -0.006026 0.002450 0.000000 0.000000 0.000000
# 2 -0.006026 0.013739 -0.002257 0.000000 0.000000 0.000000
# 3 0.002450 -0.002257 0.010301 0.000000 0.000000 0.000000
# 4 0.000000 0.000000 0.000000 0.029473 0.000000 0.000000
# 5 0.000000 0.000000 0.000000 0.000000 -0.104421 0.000000
# 6 0.000000 0.000000 0.000000 0.000000 0.000000 0.285301
#
#
# Mechanical properties :
#
#
# Convention : Reuss Voigt Hill
#
# Bulk Modulus (GPa) = 22.80911 29.49295 26.15103
# Shear Modulus (GPa) = 17.11496 18.51525 17.81510
#
# Velocity S-wave (km/s) = 2.77982 2.89130 2.83611
# Velocity P-wave (km/s) = 4.53888 4.94593 4.74677
#
# Compressibility (1/GPa) = 0.04384214
#
# Stress axis : x y z
#
# Youngs Moduli (GPa) = 31.77815 72.78482 97.07721
#
# Poissons Ratio (x) = 0.43861 -0.23784
# Poissons Ratio (y) = 0.19150 0.21911
# Poissons Ratio (z) = -0.07786 0.16428
#
# Static dielectric constant tensor:
#      x y z
#    x 1.812030 0.000000 0.000000 
#    y 0.000000 1.836100 0.000000 
#    z 0.000000 0.000000 1.870530 
# 
# From -- ./inp_files/27188.got.cif
#   From: 2010.05.17/outbox.cif.g08.bks.cpg/sg23_14_cif.got.tgz:27188.got - 2010.06.04 12:02:01.
