data_PCOD9329968
_publ_section_title
;
Structure prediction by ZEFSAII (Michael W. Deem and Ramdas Pophale) SiO2 
 PCOD9329968
Probable space group: I 2 2 2
;
_chemical_formula_sum "Si O2"
_cell_formula_units_Z 32
_cell_length_a 5.216557
_cell_length_b 7.252737
_cell_length_c 34.639582
_cell_angle_alpha 90.000000
_cell_angle_beta 90.000000
_cell_angle_gamma 90.000000
_cell_volume 1310.564890
_symmetry_space_group_name_H-M "I 2 2 2"
_symmetry_group_IT_number 23
_symmetry_cell_setting 'orthorhombic'
loop_
_space_group_symop_operation_xyz
x,y,z
-x,-y,z
x,-y,-z
-x,y,-z
1/2+x,1/2+y,1/2+z
1/2-x,1/2-y,1/2+z
1/2+x,1/2-y,1/2-z
1/2-x,1/2+y,1/2-z
loop_
_atom_site_type_symbol
_atom_site_label
_atom_site_fract_x
_atom_site_fract_y
_atom_site_fract_z
Si Si1 0.610402 0.205062 0.227717
Si Si2 0.528947 0.722941 0.600627
Si Si3 0.022476 0.724157 0.641711
Si Si4 0.255607 0.207050 0.517622
O O1 0.891457 0.200836 0.246212
O O2 0.614789 0.280022 0.184147
O O3 0.500000 0.000000 0.224457
O O4 0.500000 0.500000 0.597706
O O5 0.239610 0.784958 0.610756
O O6 0.677479 0.792856 0.562603
O O7 0.729712 0.779577 0.633849
O O8 0.000000 0.500000 0.639398
O O9 0.500000 0.303774 0.500000
O O10 0.000000 0.291526 0.500000
O O11 0.252162 0.000000 0.500000
#
# Coordination Sequence:
#
# PCOD9329968 Si02
#       4
#     8   8   8   8
#     4  11  22  39  66  93 133 172 214 268 322 390
#     4  10  19  35  59  86 115 149 208 261 296 365
#     4   9  19  35  59  89 116 158 201 250 316 359
#     4  10  21  37  58  79 115 155 196 238 314 371
#
# _framework density 24.41695
#
# number of rings (size 3 to 8) (size 9 to 14) (size 15 to 20)
#    0.000    2.000    0.000    3.750    0.000    4.500 
#    0.000    1.250   55.000    0.000    0.000    0.000 
#    0.000    0.000    0.000    0.000    0.000    0.000 
#
# Total GULP energy -89313.210598 kJ/mol
# GULP energy per Si atom -5582.075662 kJ/mol
# Density = 2.436138 g / cm^3
# Si number density = 24.416950 Si / 1000 Ang^3
#
#
#
# Elastic Constant Matrix: (Units=GPa)
#
#
# Indices 1 2 3 4 5 6 
#
# 1 210.1211 11.9330 57.7858 0.0000 0.0000 0.0000
# 2 11.9330 95.9228 4.9114 0.0000 0.0000 0.0000
# 3 57.7858 4.9114 132.3840 0.0000 0.0000 0.0000
# 4 0.0000 0.0000 0.0000 8.6270 0.0000 0.0000
# 5 0.0000 0.0000 0.0000 0.0000 45.6937 0.0000
# 6 0.0000 0.0000 0.0000 0.0000 0.0000 -14.0092
#
#
#
# Elastic Compliance Matrix: (Units=1/GPa)
#
#
# Indices 1 2 3 4 5 6 
#
# 1 0.005438 -0.000556 -0.002353 0.000000 0.000000 0.000000
# 2 -0.000556 0.010502 -0.000147 0.000000 0.000000 0.000000
# 3 -0.002353 -0.000147 0.008586 0.000000 0.000000 0.000000
# 4 0.000000 0.000000 0.000000 0.115915 0.000000 0.000000
# 5 0.000000 0.000000 0.000000 0.000000 0.021885 0.000000
# 6 0.000000 0.000000 0.000000 0.000000 0.000000 -0.071381
#
#
# Mechanical properties :
#
#
# Convention : Reuss Voigt Hill
#
# Bulk Modulus (GPa) = 54.30632 65.29871 59.80251
# Shear Modulus (GPa) = 48.45222 32.31547 40.38384
#
# Velocity S-wave (km/s) = 4.45946 3.64192 4.07126
# Velocity P-wave (km/s) = 6.98607 6.66978 6.82976
#
# Compressibility (1/GPa) = 0.01841406
#
# Stress axis : x y z
#
# Youngs Moduli (GPa) = 183.89652 95.22234 116.46429
#
# Poissons Ratio (x) = 0.05294 0.27404
# Poissons Ratio (y) = 0.10225 0.01711
# Poissons Ratio (z) = 0.43271 0.01399
#
# Static dielectric constant tensor:
#      x y z
#    x 1.905370 0.000000 0.000000 
#    y 0.000000 2.006690 0.000000 
#    z 0.000000 0.000000 2.046270 
# 
# From -- ./inp_files/727.got.cif
#   From: 2010.05.17/outbox.cif.g08.bks.cpg/sg23_1_cif.got.tgz:727.got - 2010.06.04 12:02:01.
