data_PCOD9329657
_publ_section_title
;
Structure prediction by ZEFSAII (Michael W. Deem and Ramdas Pophale) SiO2 
 PCOD9329657
Probable space group: I 2 2 2
;
_chemical_formula_sum "Si O2"
_cell_formula_units_Z 54
_cell_length_a 12.994920
_cell_length_b 6.550135
_cell_length_c 30.466471
_cell_angle_alpha 90.000000
_cell_angle_beta 90.000000
_cell_angle_gamma 90.000000
_cell_volume 2593.259712
_symmetry_space_group_name_H-M "I 2 2 2"
_symmetry_group_IT_number 23
_symmetry_cell_setting 'orthorhombic'
loop_
_space_group_symop_operation_xyz
x,y,z
-x,-y,z
x,-y,-z
-x,y,-z
1/2+x,1/2+y,1/2+z
1/2-x,1/2-y,1/2+z
1/2+x,1/2-y,1/2-z
1/2-x,1/2+y,1/2-z
loop_
_atom_site_type_symbol
_atom_site_label
_atom_site_fract_x
_atom_site_fract_y
_atom_site_fract_z
Si Si1 0.768949 0.827349 0.800856
Si Si2 0.000000 0.000000 0.000000
Si Si3 0.118474 0.987316 0.285187
Si Si4 0.688886 0.500000 0.000000
Si Si5 0.351272 0.881856 0.954646
Si Si6 0.297440 0.796946 0.860701
Si Si7 0.672502 0.313993 0.553689
Si Si8 0.377801 0.043486 0.364490
O O1 0.813350 0.906321 0.755151
O O2 0.661109 0.711507 0.795888
O O3 0.845281 0.651343 0.819149
O O4 0.751088 0.014070 0.834124
O O5 0.933086 0.145167 0.030087
O O6 0.136821 0.840848 0.327007
O O7 0.000000 0.000000 0.272780
O O8 0.629283 0.350956 0.967919
O O9 0.758935 0.650637 0.971937
O O10 0.368568 0.876497 0.901631
O O11 0.235590 0.974604 0.950186
O O12 0.388793 0.000000 0.000000
O O13 0.199417 0.648658 0.873358
O O14 0.651157 0.216922 0.600284
O O15 0.500000 0.000000 0.366508
#
# Coordination Sequence:
#
# PCOD9329657 Si02
#       8
#     8   2   8   4   8   8   8   8
#     4  11  24  45  67  98 136 168 224 274 328 420
#     4  12  24  30  44  76 126 168 238 282 316 396
#     4  11  26  45  73 102 132 180 220 278 348 408
#     4  10  18  35  48  74 113 164 218 272 329 398
#     4  10  20  36  59  85 121 172 224 281 340 405
#     4  11  23  44  61  95 137 170 226 283 337 413
#     4  11  22  33  46  77 120 175 225 270 329 391
#     4  11  26  35  58  89 130 184 224 274 336 390
#
# _framework density 20.823212000000002
#
# number of rings (size 3 to 8) (size 9 to 14) (size 15 to 20)
#    0.000    1.185    6.667    0.000    6.222    0.593 
#    0.000    0.000    0.000    0.000    0.000    7.778 
#    0.000    0.000    0.000    0.000    0.000    0.000 
#
# Total GULP energy -150359.325185 kJ/mol
# GULP energy per Si atom -5568.863896 kJ/mol
# Density = 2.077582 g / cm^3
# Si number density = 20.823212 Si / 1000 Ang^3
#
#
#
# Elastic Constant Matrix: (Units=GPa)
#
#
# Indices 1 2 3 4 5 6 
#
# 1 51.3822 21.5671 5.5319 0.0000 0.0000 0.0000
# 2 21.5671 93.1241 33.0068 0.0000 0.0000 0.0000
# 3 5.5319 33.0068 122.4924 0.0000 0.0000 0.0000
# 4 0.0000 0.0000 0.0000 49.3300 0.0000 0.0000
# 5 0.0000 0.0000 0.0000 0.0000 8.7851 0.0000
# 6 0.0000 0.0000 0.0000 0.0000 0.0000 -14.9036
#
#
#
# Elastic Compliance Matrix: (Units=1/GPa)
#
#
# Indices 1 2 3 4 5 6 
#
# 1 0.021576 -0.005143 0.000411 0.000000 0.000000 0.000000
# 2 -0.005143 0.013098 -0.003297 0.000000 0.000000 0.000000
# 3 0.000411 -0.003297 0.009034 0.000000 0.000000 0.000000
# 4 0.000000 0.000000 0.000000 0.020272 0.000000 0.000000
# 5 0.000000 0.000000 0.000000 0.000000 0.113830 0.000000
# 6 0.000000 0.000000 0.000000 0.000000 0.000000 -0.067098
#
#
# Mechanical properties :
#
#
# Convention : Reuss Voigt Hill
#
# Bulk Modulus (GPa) = 36.16520 43.02336 39.59428
# Shear Modulus (GPa) = 36.76856 22.43515 29.60186
#
# Velocity S-wave (km/s) = 4.20664 3.28595 3.77447
# Velocity P-wave (km/s) = 6.40311 5.92476 6.16857
#
# Compressibility (1/GPa) = 0.02765089
#
# Stress axis : x y z
#
# Youngs Moduli (GPa) = 46.34705 76.34724 110.69728
#
# Poissons Ratio (x) = 0.39264 -0.04554
# Poissons Ratio (y) = 0.23835 0.36499
# Poissons Ratio (z) = -0.01907 0.25173
#
# Static dielectric constant tensor:
#      x y z
#    x 1.735620 0.000000 0.000000 
#    y 0.000000 1.755220 0.000000 
#    z 0.000000 0.000000 1.814460 
# 
# From -- ./inp_files/30571.got.cif
#   From: 2010.05.17/outbox.cif.g08.bks.cpg/sg23_16_cif.got.tgz:30571.got - 2010.06.04 12:02:01.
