data_PCOD9329016
_publ_section_title
;
Structure prediction by ZEFSAII (Michael W. Deem and Ramdas Pophale) SiO2 
 PCOD9329016
Probable space group: F 2 2 2
;
_chemical_formula_sum "Si O2"
_cell_formula_units_Z 64
_cell_length_a 21.063607
_cell_length_b 8.510632
_cell_length_c 13.621426
_cell_angle_alpha 90.000000
_cell_angle_beta 90.000000
_cell_angle_gamma 90.000000
_cell_volume 2441.839589
_symmetry_space_group_name_H-M "F 2 2 2"
_symmetry_group_IT_number 22
_symmetry_cell_setting 'orthorhombic'
loop_
_space_group_symop_operation_xyz
x,y,z
-x,-y,z
x,-y,-z
-x,y,-z
x,1/2+y,1/2+z
-x,1/2-y,1/2+z
x,1/2-y,1/2-z
-x,1/2+y,1/2-z
1/2+x,y,1/2+z
1/2-x,-y,1/2+z
1/2+x,-y,1/2-z
1/2-x,y,1/2-z
1/2+x,1/2+y,z
1/2-x,1/2-y,z
1/2+x,1/2-y,-z
1/2-x,1/2+y,-z
loop_
_atom_site_type_symbol
_atom_site_label
_atom_site_fract_x
_atom_site_fract_y
_atom_site_fract_z
Si Si1 0.938619 0.606391 0.173986
Si Si2 0.601946 0.838961 0.475487
Si Si3 0.830232 0.847327 0.648986
Si Si4 0.727715 0.583125 0.135681
O O1 0.934999 0.750000 0.250000
O O2 0.938302 0.700340 0.071995
O O3 0.877716 0.492329 0.173185
O O4 0.000000 0.500000 0.190688
O O5 0.635888 0.760528 0.568800
O O6 0.654968 0.904577 0.397253
O O7 0.567107 0.000000 0.500000
O O8 0.820563 0.750000 0.750000
O O9 0.766902 0.929092 0.604722
O O10 0.750000 0.585308 0.250000
O O11 0.750000 0.750000 0.095613
#
# Coordination Sequence:
#
# PCOD9329016 Si02
#       4
#    16  16  16  16
#     4  12  27  52  81 111 151 203 263 329 393 463
#     4  12  28  46  78 119 161 203 259 322 391 470
#     4  12  27  49  77 119 158 209 261 316 389 467
#     4  11  24  43  71 109 161 212 251 309 379 464
#
# _framework density 26.209748000000001
#
# number of rings (size 3 to 8) (size 9 to 14) (size 15 to 20)
#    0.000    0.250    2.500    6.000    3.500    4.500 
#    0.000    1.250    0.000    0.000    0.000    0.000 
#    0.000    0.000    0.000    0.000    0.000    0.000 
#
# Total GULP energy -89631.189091 kJ/mol
# GULP energy per Si atom -5601.949318 kJ/mol
# Density = 2.615009 g / cm^3
# Si number density = 26.209748 Si / 1000 Ang^3
#
#
#
# Elastic Constant Matrix: (Units=GPa)
#
#
# Indices 1 2 3 4 5 6 
#
# 1 135.5207 63.0989 35.4381 0.0000 0.0000 0.0000
# 2 63.0989 234.9737 67.7811 0.0000 0.0000 0.0000
# 3 35.4381 67.7811 158.1500 0.0000 0.0000 0.0000
# 4 0.0000 0.0000 0.0000 58.7980 0.0000 0.0000
# 5 0.0000 0.0000 0.0000 0.0000 14.9543 0.0000
# 6 0.0000 0.0000 0.0000 0.0000 0.0000 32.1045
#
#
#
# Elastic Compliance Matrix: (Units=1/GPa)
#
#
# Indices 1 2 3 4 5 6 
#
# 1 0.008589 -0.001998 -0.001068 0.000000 0.000000 0.000000
# 2 -0.001998 0.005321 -0.001833 0.000000 0.000000 0.000000
# 3 -0.001068 -0.001833 0.007348 0.000000 0.000000 0.000000
# 4 0.000000 0.000000 0.000000 0.017007 0.000000 0.000000
# 5 0.000000 0.000000 0.000000 0.000000 0.066871 0.000000
# 6 0.000000 0.000000 0.000000 0.000000 0.000000 0.031148
#
#
# Mechanical properties :
#
#
# Convention : Reuss Voigt Hill
#
# Bulk Modulus (GPa) = 87.26459 95.69785 91.48122
# Shear Modulus (GPa) = 33.35513 45.32645 39.34079
#
# Velocity S-wave (km/s) = 3.57125 4.16309 3.87848
# Velocity P-wave (km/s) = 7.09733 7.72657 7.41863
#
# Compressibility (1/GPa) = 0.01145940
#
# Stress axis : x y z
#
# Youngs Moduli (GPa) = 116.43275 187.93150 136.09218
#
# Poissons Ratio (x) = 0.37553 0.14536
# Poissons Ratio (y) = 0.23266 0.24943
# Poissons Ratio (z) = 0.12436 0.34444
#
# Static dielectric constant tensor:
#      x y z
#    x 2.062400 0.000000 0.000000 
#    y 0.000000 2.033050 0.000000 
#    z 0.000000 0.000000 2.159430 
# 
# From -- ./inp_files/32121.got.cif
#   From: 2010.05.17/outbox.cif.g08.bks.cpg/sg22_17_cif.got.tgz:32121.got - 2010.06.03 23:40:54.
