data_PCOD9329890
_publ_section_title
;
Structure prediction by ZEFSAII (Michael W. Deem and Ramdas Pophale) SiO2 
 PCOD9329890
Probable space group: I 2 2 2
;
_chemical_formula_sum "Si O2"
_cell_formula_units_Z 64
_cell_length_a 5.759950
_cell_length_b 28.642383
_cell_length_c 20.726056
_cell_angle_alpha 90.000000
_cell_angle_beta 90.000000
_cell_angle_gamma 90.000000
_cell_volume 3419.357650
_symmetry_space_group_name_H-M "I 2 2 2"
_symmetry_group_IT_number 23
_symmetry_cell_setting 'orthorhombic'
loop_
_space_group_symop_operation_xyz
x,y,z
-x,-y,z
x,-y,-z
-x,y,-z
1/2+x,1/2+y,1/2+z
1/2-x,1/2-y,1/2+z
1/2+x,1/2-y,1/2-z
1/2-x,1/2+y,1/2-z
loop_
_atom_site_type_symbol
_atom_site_label
_atom_site_fract_x
_atom_site_fract_y
_atom_site_fract_z
Si Si1 0.135519 0.366741 0.287856
Si Si2 0.252877 0.389697 0.816581
Si Si3 0.590383 0.047488 0.378923
Si Si4 0.522376 0.304769 0.221479
Si Si5 0.369516 0.453724 0.250642
Si Si6 0.748040 0.769273 0.537761
Si Si7 0.862499 0.710630 0.659218
Si Si8 0.252153 0.374986 0.036477
O O1 0.293764 0.332012 0.244780
O O2 0.261300 0.416305 0.300956
O O3 0.932092 0.381415 0.239817
O O4 0.028162 0.334747 0.343978
O O5 0.352958 0.338786 0.829872
O O6 0.444281 0.422434 0.786263
O O7 0.126187 0.417728 0.871444
O O8 0.691208 0.034454 0.307824
O O9 0.767659 0.080359 0.416543
O O10 0.500000 0.000000 0.410222
O O11 0.668145 0.300771 0.287446
O O12 0.495563 0.254474 0.190782
O O13 0.500000 0.500000 0.275091
O O14 0.500000 0.763709 0.500000
O O15 0.760802 0.730227 0.593167
O O16 0.736689 0.822407 0.565672
O O17 0.000000 0.766183 0.500000
O O18 0.500000 0.374796 0.000000
O O19 0.000000 0.379997 0.000000
#
# Coordination Sequence:
#
# PCOD9329890 Si02
#       8
#     8   8   8   8   8   8   8   8
#     4   9  20  34  48  84 114 148 188 228 301 358
#     4   9  20  33  50  78 112 140 187 229 283 374
#     4  11  22  35  56  78 102 146 199 250 311 361
#     4  10  20  32  52  87 111 152 185 244 318 343
#     4  10  19  34  55  81 115 148 190 228 287 374
#     4  10  25  43  61  86 114 166 215 260 314 363
#     4  11  21  34  58  80 120 146 205 256 300 380
#     4  10  25  44  58  76 105 142 204 274 321 359
#
# _framework density 18.716964999999998
#
# number of rings (size 3 to 8) (size 9 to 14) (size 15 to 20)
#    0.000    2.000    2.500    0.000    8.750    2.250 
#    0.000    0.625    0.000    0.000    0.000    0.000 
#    0.000    0.000    0.000   32.625    0.500    0.000 
#
# Total GULP energy -178182.633630 kJ/mol
# GULP energy per Si atom -5568.207301 kJ/mol
# Density = 1.867436 g / cm^3
# Si number density = 18.716965 Si / 1000 Ang^3
#
#
#
# Elastic Constant Matrix: (Units=GPa)
#
#
# Indices 1 2 3 4 5 6 
#
# 1 91.9528 48.2075 23.1355 0.0000 0.0000 0.0000
# 2 48.2075 139.7847 44.4623 0.0000 0.0000 0.0000
# 3 23.1355 44.4623 40.4567 0.0000 0.0000 0.0000
# 4 0.0000 0.0000 0.0000 45.5623 0.0000 0.0000
# 5 0.0000 0.0000 0.0000 0.0000 17.0329 0.0000
# 6 0.0000 0.0000 0.0000 0.0000 0.0000 43.5947
#
#
#
# Elastic Compliance Matrix: (Units=1/GPa)
#
#
# Indices 1 2 3 4 5 6 
#
# 1 0.013696 -0.003432 -0.004061 0.000000 0.000000 0.000000
# 2 -0.003432 0.011859 -0.011070 0.000000 0.000000 0.000000
# 3 -0.004061 -0.011070 0.039206 0.000000 0.000000 0.000000
# 4 0.000000 0.000000 0.000000 0.021948 0.000000 0.000000
# 5 0.000000 0.000000 0.000000 0.000000 0.058710 0.000000
# 6 0.000000 0.000000 0.000000 0.000000 0.000000 0.022939
#
#
# Mechanical properties :
#
#
# Convention : Reuss Voigt Hill
#
# Bulk Modulus (GPa) = 36.18535 55.97830 46.08182
# Shear Modulus (GPa) = 23.28898 31.66390 27.47644
#
# Velocity S-wave (km/s) = 3.53125 4.11752 3.83560
# Velocity P-wave (km/s) = 6.00010 7.25107 6.65504
#
# Compressibility (1/GPa) = 0.02763550
#
# Stress axis : x y z
#
# Youngs Moduli (GPa) = 73.01440 84.32766 25.50625
#
# Poissons Ratio (x) = 0.28939 0.10357
# Poissons Ratio (y) = 0.25056 0.28236
# Poissons Ratio (z) = 0.29649 0.93352
#
# Static dielectric constant tensor:
#      x y z
#    x 1.728740 0.000000 0.000000 
#    y 0.000000 1.675680 0.000000 
#    z 0.000000 0.000000 1.664910 
# 
# From -- ./inp_files/5080.got.cif
#   From: 2010.05.17/outbox.cif.g08.bks.cpg/sg23_3_cif.got.tgz:5080.got - 2010.06.04 12:02:01.
