data_PCOD9329829
_publ_section_title
;
Structure prediction by ZEFSAII (Michael W. Deem and Ramdas Pophale) SiO2 
 PCOD9329829
Probable space group: I 2 2 2
;
_chemical_formula_sum "Si O2"
_cell_formula_units_Z 36
_cell_length_a 7.939976
_cell_length_b 14.317881
_cell_length_c 14.088099
_cell_angle_alpha 90.000000
_cell_angle_beta 90.000000
_cell_angle_gamma 90.000000
_cell_volume 1601.586255
_symmetry_space_group_name_H-M "I 2 2 2"
_symmetry_group_IT_number 23
_symmetry_cell_setting 'orthorhombic'
loop_
_space_group_symop_operation_xyz
x,y,z
-x,-y,z
x,-y,-z
-x,y,-z
1/2+x,1/2+y,1/2+z
1/2-x,1/2-y,1/2+z
1/2+x,1/2-y,1/2-z
1/2-x,1/2+y,1/2-z
loop_
_atom_site_type_symbol
_atom_site_label
_atom_site_fract_x
_atom_site_fract_y
_atom_site_fract_z
Si Si1 0.269424 0.863623 0.315757
Si Si2 0.893429 0.704787 0.805111
Si Si3 0.196096 0.804842 0.510939
Si Si4 0.000000 0.000000 0.775013
Si Si5 0.884096 0.857754 0.081933
O O1 0.193570 0.763343 0.278468
O O2 0.460076 0.867078 0.274829
O O3 0.283904 0.866484 0.429512
O O4 0.128528 0.935893 0.283090
O O5 0.757644 0.672635 0.882981
O O6 0.000200 0.779495 0.866985
O O7 0.240552 0.698851 0.475401
O O8 0.000000 0.819418 0.500000
O O9 0.127534 0.936872 0.838870
O O10 0.000000 0.899053 0.000000
#
# Coordination Sequence:
#
# PCOD9329829 Si02
#       5
#     8   8   8   4   8
#     4  10  19  34  57  87 118 150 194 240 295 350
#     4   9  18  33  57  86 112 149 198 240 279 344
#     4  10  19  34  60  86 109 147 201 246 282 339
#     4  10  19  32  57  88 122 154 180 236 304 352
#     4   8  16  31  53  81 113 148 186 233 288 338
#
# _framework density 22.477713999999999
#
# number of rings (size 3 to 8) (size 9 to 14) (size 15 to 20)
#    0.000    2.667    0.000    3.667    0.000    0.000 
#    0.000    0.556    0.000   90.667    0.000   52.889 
#    0.000    0.000    0.000    0.000    0.000    0.000 
#
# Total GULP energy -100251.268514 kJ/mol
# GULP energy per Si atom -5569.514917 kJ/mol
# Density = 2.242655 g / cm^3
# Si number density = 22.477714 Si / 1000 Ang^3
#
#
#
# Elastic Constant Matrix: (Units=GPa)
#
#
# Indices 1 2 3 4 5 6 
#
# 1 112.7455 11.3469 13.3666 0.0000 0.0000 0.0000
# 2 11.3469 36.1590 11.7086 0.0000 0.0000 0.0000
# 3 13.3666 11.7086 79.0748 0.0000 0.0000 0.0000
# 4 0.0000 0.0000 0.0000 13.3760 0.0000 0.0000
# 5 0.0000 0.0000 0.0000 0.0000 40.3310 0.0000
# 6 0.0000 0.0000 0.0000 0.0000 0.0000 21.8212
#
#
#
# Elastic Compliance Matrix: (Units=1/GPa)
#
#
# Indices 1 2 3 4 5 6 
#
# 1 0.009265 -0.002521 -0.001193 0.000000 0.000000 0.000000
# 2 -0.002521 0.029734 -0.003977 0.000000 0.000000 0.000000
# 3 -0.001193 -0.003977 0.013437 0.000000 0.000000 0.000000
# 4 0.000000 0.000000 0.000000 0.074761 0.000000 0.000000
# 5 0.000000 0.000000 0.000000 0.000000 0.024795 0.000000
# 6 0.000000 0.000000 0.000000 0.000000 0.000000 0.045827
#
#
# Mechanical properties :
#
#
# Convention : Reuss Voigt Hill
#
# Bulk Modulus (GPa) = 26.98701 33.42484 30.20593
# Shear Modulus (GPa) = 22.16795 27.87613 25.02204
#
# Velocity S-wave (km/s) = 3.14382 3.52542 3.34007
# Velocity P-wave (km/s) = 5.02099 5.61017 5.32373
#
# Compressibility (1/GPa) = 0.03705486
#
# Stress axis : x y z
#
# Youngs Moduli (GPa) = 107.93696 33.63102 74.42309
#
# Poissons Ratio (x) = 0.08479 0.08877
# Poissons Ratio (y) = 0.27212 0.29595
# Poissons Ratio (z) = 0.12875 0.13374
#
# Static dielectric constant tensor:
#      x y z
#    x 1.878410 0.000000 0.000000 
#    y 0.000000 1.907230 0.000000 
#    z 0.000000 0.000000 1.938900 
# 
# From -- ./inp_files/19843.got.cif
#   From: 2010.05.17/outbox.cif.g08.bks.cpg/sg23_10_cif.got.tgz:19843.got - 2010.06.04 12:02:01.
