data_PCOD9329626
_publ_section_title
;
Structure prediction by ZEFSAII (Michael W. Deem and Ramdas Pophale) SiO2 
 PCOD9329626
Probable space group: I 2 2 2
;
_chemical_formula_sum "Si O2"
_cell_formula_units_Z 58
_cell_length_a 14.856359
_cell_length_b 8.915226
_cell_length_c 23.290311
_cell_angle_alpha 90.000000
_cell_angle_beta 90.000000
_cell_angle_gamma 90.000000
_cell_volume 3084.750407
_symmetry_space_group_name_H-M "I 2 2 2"
_symmetry_group_IT_number 23
_symmetry_cell_setting 'orthorhombic'
loop_
_space_group_symop_operation_xyz
x,y,z
-x,-y,z
x,-y,-z
-x,y,-z
1/2+x,1/2+y,1/2+z
1/2-x,1/2-y,1/2+z
1/2+x,1/2-y,1/2-z
1/2-x,1/2+y,1/2-z
loop_
_atom_site_type_symbol
_atom_site_label
_atom_site_fract_x
_atom_site_fract_y
_atom_site_fract_z
Si Si1 0.500000 0.000000 0.000000
Si Si2 0.411692 0.593215 0.695586
Si Si3 0.095434 0.550221 0.807107
Si Si4 0.273971 0.802704 0.647187
Si Si5 0.043107 0.247116 0.587330
Si Si6 0.636117 0.553015 0.935419
Si Si7 0.698556 0.318808 0.270083
Si Si8 0.595767 0.161999 0.791361
O O1 0.445560 0.883932 0.958252
O O2 0.500000 0.500000 0.678020
O O3 0.350967 0.674169 0.646805
O O4 0.342980 0.483333 0.728233
O O5 0.436983 0.720437 0.742478
O O6 0.171796 0.452278 0.836590
O O7 0.128978 0.718039 0.805375
O O8 0.092610 0.496341 0.740832
O O9 0.000000 0.500000 0.832513
O O10 0.213264 0.846927 0.593591
O O11 0.213126 0.771798 0.703777
O O12 0.042371 0.318643 0.650377
O O13 0.952775 0.157681 0.569004
O O14 0.114258 0.109165 0.593004
O O15 0.654511 0.500000 0.000000
O O16 0.797143 0.310549 0.298510
#
# Coordination Sequence:
#
# PCOD9329626 Si02
#       8
#     2   8   8   8   8   8   8   8
#     4  12  24  38  52  80 124 146 222 272 294 334
#     4  10  20  34  54  86 118 160 199 248 308 377
#     4  10  20  33  50  84 119 149 186 237 298 370
#     4  10  21  35  57  81 113 156 197 250 294 361
#     4  11  23  39  56  84 115 166 206 262 302 368
#     4  11  22  42  61  78 114 162 217 252 307 363
#     4  10  18  34  50  81 122 151 199 247 287 372
#     4  10  21  33  53  81 114 162 202 230 307 361
#
# _framework density 18.802168999999999
#
# number of rings (size 3 to 8) (size 9 to 14) (size 15 to 20)
#    0.000    1.931    1.379    7.034    6.759    1.103 
#    0.000    0.000    0.000    0.414    0.000    0.000 
#    0.000    1.379    0.000    0.000    0.000    0.000 
#
# Total GULP energy -161549.588587 kJ/mol
# GULP energy per Si atom -5570.675469 kJ/mol
# Density = 1.875937 g / cm^3
# Si number density = 18.802169 Si / 1000 Ang^3
#
#
#
# Elastic Constant Matrix: (Units=GPa)
#
#
# Indices 1 2 3 4 5 6 
#
# 1 96.0031 19.8852 28.7251 0.0000 0.0000 0.0000
# 2 19.8852 65.5654 5.1701 0.0000 0.0000 0.0000
# 3 28.7251 5.1701 64.3605 0.0000 0.0000 0.0000
# 4 0.0000 0.0000 0.0000 15.3531 0.0000 0.0000
# 5 0.0000 0.0000 0.0000 0.0000 20.1314 0.0000
# 6 0.0000 0.0000 0.0000 0.0000 0.0000 39.7154
#
#
#
# Elastic Compliance Matrix: (Units=1/GPa)
#
#
# Indices 1 2 3 4 5 6 
#
# 1 0.012749 -0.003440 -0.005414 0.000000 0.000000 0.000000
# 2 -0.003440 0.016277 0.000228 0.000000 0.000000 0.000000
# 3 -0.005414 0.000228 0.017935 0.000000 0.000000 0.000000
# 4 0.000000 0.000000 0.000000 0.065134 0.000000 0.000000
# 5 0.000000 0.000000 0.000000 0.000000 0.049674 0.000000
# 6 0.000000 0.000000 0.000000 0.000000 0.000000 0.025179
#
#
# Mechanical properties :
#
#
# Convention : Reuss Voigt Hill
#
# Bulk Modulus (GPa) = 33.65877 37.05443 35.35660
# Shear Modulus (GPa) = 23.35335 26.51653 24.93494
#
# Velocity S-wave (km/s) = 3.52811 3.75946 3.64562
# Velocity P-wave (km/s) = 5.87683 6.21249 6.04699
#
# Compressibility (1/GPa) = 0.02970994
#
# Stress axis : x y z
#
# Youngs Moduli (GPa) = 78.44007 61.43560 55.75574
#
# Poissons Ratio (x) = 0.21131 0.30184
# Poissons Ratio (y) = 0.26980 -0.01269
# Poissons Ratio (z) = 0.42464 -0.01398
#
# Static dielectric constant tensor:
#      x y z
#    x 1.732160 0.000000 0.000000 
#    y 0.000000 1.717540 0.000000 
#    z 0.000000 0.000000 1.642040 
# 
# From -- ./inp_files/28530.got.cif
#   From: 2010.05.17/outbox.cif.g08.bks.cpg/sg23_15_cif.got.tgz:28530.got - 2010.06.04 12:02:01.
