data_PCOD9329445
_publ_section_title
;
Structure prediction by ZEFSAII (Michael W. Deem and Ramdas Pophale) SiO2 
 PCOD9329445
Probable space group: I 2 2 2
;
_chemical_formula_sum "Si O2"
_cell_formula_units_Z 64
_cell_length_a 30.808884
_cell_length_b 14.322519
_cell_length_c 9.448151
_cell_angle_alpha 90.000000
_cell_angle_beta 90.000000
_cell_angle_gamma 90.000000
_cell_volume 4169.098919
_symmetry_space_group_name_H-M "I 2 2 2"
_symmetry_group_IT_number 23
_symmetry_cell_setting 'orthorhombic'
loop_
_space_group_symop_operation_xyz
x,y,z
-x,-y,z
x,-y,-z
-x,y,-z
1/2+x,1/2+y,1/2+z
1/2-x,1/2-y,1/2+z
1/2+x,1/2-y,1/2-z
1/2-x,1/2+y,1/2-z
loop_
_atom_site_type_symbol
_atom_site_label
_atom_site_fract_x
_atom_site_fract_y
_atom_site_fract_z
Si Si1 0.834398 0.217510 0.327069
Si Si2 0.240831 0.496179 0.160050
Si Si3 0.578757 0.619527 0.159070
Si Si4 0.589344 0.396731 0.171660
Si Si5 0.686370 0.361349 0.130417
Si Si6 0.995190 0.113210 0.838944
Si Si7 0.751334 0.687476 0.333257
Si Si8 0.302255 0.906321 0.919857
O O1 0.881108 0.179835 0.284258
O O2 0.819610 0.153885 0.461441
O O3 0.798232 0.213440 0.203700
O O4 0.835072 0.321743 0.392310
O O5 0.288826 0.542216 0.160313
O O6 0.238224 0.391913 0.218469
O O7 0.214512 0.559332 0.269238
O O8 0.224910 0.500000 0.000000
O O9 0.589209 0.509650 0.181316
O O10 0.534207 0.644569 0.237020
O O11 0.576378 0.629968 0.989175
O O12 0.638292 0.361451 0.195212
O O13 0.551844 0.362840 0.276263
O O14 0.717513 0.276994 0.179387
O O15 0.000000 0.000000 0.839390
O O16 0.000000 0.145535 0.000000
O O17 0.763528 0.639083 0.483665
O O18 0.317742 0.000000 0.000000
#
# Coordination Sequence:
#
# PCOD9329445 Si02
#       8
#     8   8   8   8   8   8   8   8
#     4  10  17  31  48  69  95 124 163 202 237 278
#     4  11  19  31  49  63  90 130 164 198 237 282
#     4   9  17  28  49  68  86 121 161 191 230 279
#     4   9  17  29  46  65  89 121 161 193 224 280
#     4  10  19  30  47  69  93 125 167 199 232 276
#     4   9  17  31  44  63  93 121 148 189 239 284
#     4  10  19  31  47  66  96 126 159 203 241 273
#     4   9  20  33  44  66  95 132 164 196 245 280
#
# _framework density 15.351039
#
# number of rings (size 3 to 8) (size 9 to 14) (size 15 to 20)
#    0.000    2.375    2.500    1.125    1.750    1.500 
#    2.250    0.000    0.000    0.000    0.000    0.000 
#    0.000   31.000    0.000   19.125    0.000    0.625 
#
# Total GULP energy -178211.000869 kJ/mol
# GULP energy per Si atom -5569.093777 kJ/mol
# Density = 1.531610 g / cm^3
# Si number density = 15.351039 Si / 1000 Ang^3
#
#
#
# Elastic Constant Matrix: (Units=GPa)
#
#
# Indices 1 2 3 4 5 6 
#
# 1 100.0017 27.9045 45.9023 0.0000 0.0000 0.0000
# 2 27.9045 58.7546 24.4190 0.0000 0.0000 0.0000
# 3 45.9023 24.4190 77.9284 0.0000 0.0000 0.0000
# 4 0.0000 0.0000 0.0000 13.7364 0.0000 0.0000
# 5 0.0000 0.0000 0.0000 0.0000 21.3803 0.0000
# 6 0.0000 0.0000 0.0000 0.0000 0.0000 20.2534
#
#
#
# Elastic Compliance Matrix: (Units=1/GPa)
#
#
# Indices 1 2 3 4 5 6 
#
# 1 0.014412 -0.003813 -0.007294 0.000000 0.000000 0.000000
# 2 -0.003813 0.020577 -0.004202 0.000000 0.000000 0.000000
# 3 -0.007294 -0.004202 0.018446 0.000000 0.000000 0.000000
# 4 0.000000 0.000000 0.000000 0.072799 0.000000 0.000000
# 5 0.000000 0.000000 0.000000 0.000000 0.046772 0.000000
# 6 0.000000 0.000000 0.000000 0.000000 0.000000 0.049374
#
#
# Mechanical properties :
#
#
# Convention : Reuss Voigt Hill
#
# Bulk Modulus (GPa) = 43.82848 48.12625 45.97736
# Shear Modulus (GPa) = 19.18618 20.30463 19.74541
#
# Velocity S-wave (km/s) = 3.53913 3.64082 3.59034
# Velocity P-wave (km/s) = 6.73152 7.00662 6.87045
#
# Compressibility (1/GPa) = 0.02281622
#
# Stress axis : x y z
#
# Youngs Moduli (GPa) = 69.38640 48.59727 54.21375
#
# Poissons Ratio (x) = 0.18531 0.39545
# Poissons Ratio (y) = 0.26458 0.22780
# Poissons Ratio (z) = 0.50612 0.20420
#
# Static dielectric constant tensor:
#      x y z
#    x 1.502850 0.000000 0.000000 
#    y 0.000000 1.521840 0.000000 
#    z 0.000000 0.000000 1.530660 
# 
# From -- ./inp_files/10435.got.cif
#   From: 2010.05.17/outbox.cif.g08.bks.cpg/sg23_6_cif.got.tgz:10435.got - 2010.06.04 12:02:01.
