data_PCOD9329045
_publ_section_title
;
Structure prediction by ZEFSAII (Michael W. Deem and Ramdas Pophale) SiO2 
 PCOD9329045
Probable space group: F 2 2 2
;
_chemical_formula_sum "Si O2"
_cell_formula_units_Z 44
_cell_length_a 8.580468
_cell_length_b 32.356632
_cell_length_c 7.071020
_cell_angle_alpha 90.000000
_cell_angle_beta 90.000000
_cell_angle_gamma 90.000000
_cell_volume 1963.162959
_symmetry_space_group_name_H-M "F 2 2 2"
_symmetry_group_IT_number 22
_symmetry_cell_setting 'orthorhombic'
loop_
_space_group_symop_operation_xyz
x,y,z
-x,-y,z
x,-y,-z
-x,y,-z
x,1/2+y,1/2+z
-x,1/2-y,1/2+z
x,1/2-y,1/2-z
-x,1/2+y,1/2-z
1/2+x,y,1/2+z
1/2-x,-y,1/2+z
1/2+x,-y,1/2-z
1/2-x,y,1/2-z
1/2+x,1/2+y,z
1/2-x,1/2-y,z
1/2+x,1/2-y,-z
1/2-x,1/2+y,-z
loop_
_atom_site_type_symbol
_atom_site_label
_atom_site_fract_x
_atom_site_fract_y
_atom_site_fract_z
Si Si1 0.675201 0.380162 0.945699
Si Si2 0.250000 0.449270 0.750000
Si Si3 0.000000 0.500000 0.000000
Si Si4 0.317530 0.207521 0.963016
O O1 0.750000 0.396839 0.750000
O O2 0.500000 0.365974 0.000000
O O3 0.691030 0.417865 0.090283
O O4 0.770860 0.337742 0.966618
O O5 0.385259 0.475009 0.643353
O O6 0.250000 0.207155 0.750000
O O7 0.250000 0.250000 0.046884
O O8 0.500000 0.210645 0.000000
#
# Coordination Sequence:
#
# PCOD9329045 Si02
#       4
#    16   8   4  16
#     4  12  26  46  80 111 155 204 259 319 389 462
#     4  12  30  54  75 118 150 202 251 336 386 492
#     4  12  32  52  88 108 166 194 264 322 416 462
#     4  11  24  45  73 110 159 205 259 316 376 452
#
# _framework density 22.412811999999999
#
# number of rings (size 3 to 8) (size 9 to 14) (size 15 to 20)
#    0.000    0.364    1.818    5.455   10.182    3.636 
#    0.000    0.000    0.000    0.000    0.000    0.000 
#    0.000    0.000    0.000    0.000    0.000    0.000 
#
# Total GULP energy -61294.266126 kJ/mol
# GULP energy per Si atom -5572.206011 kJ/mol
# Density = 2.236180 g / cm^3
# Si number density = 22.412812 Si / 1000 Ang^3
#
#
#
# Elastic Constant Matrix: (Units=GPa)
#
#
# Indices 1 2 3 4 5 6 
#
# 1 229.4005 86.8914 54.2518 0.0000 0.0000 0.0000
# 2 86.8914 163.9515 46.2569 0.0000 0.0000 0.0000
# 3 54.2518 46.2569 170.0664 0.0000 0.0000 0.0000
# 4 0.0000 0.0000 0.0000 -520.1108 0.0000 0.0000
# 5 0.0000 0.0000 0.0000 0.0000 39.1097 0.0000
# 6 0.0000 0.0000 0.0000 0.0000 0.0000 11.5992
#
#
#
# Elastic Compliance Matrix: (Units=1/GPa)
#
#
# Indices 1 2 3 4 5 6 
#
# 1 0.005627 -0.002681 -0.001066 0.000000 0.000000 0.000000
# 2 -0.002681 0.007884 -0.001289 0.000000 0.000000 0.000000
# 3 -0.001066 -0.001289 0.006571 0.000000 0.000000 0.000000
# 4 0.000000 0.000000 0.000000 -0.001923 0.000000 0.000000
# 5 0.000000 0.000000 0.000000 0.000000 0.025569 0.000000
# 6 0.000000 0.000000 0.000000 0.000000 0.000000 0.086213
#
#
# Mechanical properties :
#
#
# Convention : Reuss Voigt Hill
#
# Bulk Modulus (GPa) = 99.90680 104.24653 102.07667
# Shear Modulus (GPa) = 34.87964 -68.81252 -16.96644
#
# Velocity S-wave (km/s) = 3.94920 -5.54698 -2.75434
# Velocity P-wave (km/s) = 8.09119 2.36383 5.96050
#
# Compressibility (1/GPa) = 0.01000933
#
# Stress axis : x y z
#
# Youngs Moduli (GPa) = 177.71789 126.83597 152.19273
#
# Poissons Ratio (x) = 0.34011 0.16218
# Poissons Ratio (y) = 0.47655 0.19618
# Poissons Ratio (z) = 0.18939 0.16350
#
# Static dielectric constant tensor:
#      x y z
#    x 2.357100 0.000000 0.000000 
#    y 0.000000 1.809330 0.000000 
#    z 0.000000 0.000000 1.754150 
# 
# From -- ./inp_files/7387.got.cif
#   From: 2010.05.17/outbox.cif.g08.bks.cpg/sg22_4_cif.got.tgz:7387.got - 2010.06.03 23:40:54.
