data_PCOD9329790
_publ_section_title
;
Structure prediction by ZEFSAII (Michael W. Deem and Ramdas Pophale) SiO2 
 PCOD9329790
Probable space group: I 2 2 2
;
_chemical_formula_sum "Si O2"
_cell_formula_units_Z 48
_cell_length_a 7.055614
_cell_length_b 12.873071
_cell_length_c 24.147719
_cell_angle_alpha 90.000000
_cell_angle_beta 90.000000
_cell_angle_gamma 90.000000
_cell_volume 2193.275015
_symmetry_space_group_name_H-M "I 2 2 2"
_symmetry_group_IT_number 23
_symmetry_cell_setting 'orthorhombic'
loop_
_space_group_symop_operation_xyz
x,y,z
-x,-y,z
x,-y,-z
-x,y,-z
1/2+x,1/2+y,1/2+z
1/2-x,1/2-y,1/2+z
1/2+x,1/2-y,1/2-z
1/2-x,1/2+y,1/2-z
loop_
_atom_site_type_symbol
_atom_site_label
_atom_site_fract_x
_atom_site_fract_y
_atom_site_fract_z
Si Si1 0.838852 0.793571 0.831354
Si Si2 0.708860 0.541483 0.200118
Si Si3 0.725741 0.496814 0.918431
Si Si4 0.203757 0.490393 0.680916
Si Si5 0.403603 0.232820 0.205376
Si Si6 0.512835 0.179773 0.559160
O O1 0.846883 0.919740 0.838533
O O2 0.611832 0.773919 0.822136
O O3 0.918161 0.749062 0.772391
O O4 0.924770 0.742982 0.886489
O O5 0.500000 0.500000 0.214472
O O6 0.772895 0.480644 0.146382
O O7 0.821810 0.529476 0.255720
O O8 0.688664 0.661042 0.185034
O O9 0.500000 0.500000 0.925198
O O10 0.829052 0.589397 0.949724
O O11 0.821786 0.386525 0.930488
O O12 0.223303 0.366607 0.688436
O O13 0.000000 0.500000 0.651021
O O14 0.500000 0.237706 0.500000
#
# Coordination Sequence:
#
# PCOD9329790 Si02
#       6
#     8   8   8   8   8   8
#     4  10  21  35  57  87 130 170 215 270 327 405
#     4  10  19  31  52  86 125 163 206 259 321 390
#     4  10  21  37  61  89 123 167 218 266 324 394
#     4   9  19  31  51  82 123 172 204 257 325 389
#     4  10  19  34  56  88 131 171 215 265 336 393
#     4  11  24  39  59  88 126 174 216 269 331 396
#
# _framework density 21.885079000000001
#
# number of rings (size 3 to 8) (size 9 to 14) (size 15 to 20)
#    0.000    2.000    0.000    5.000    9.333    1.333 
#    0.000    0.000    0.000    0.000    0.000    3.500 
#    0.000    4.000   52.000    0.000    0.000    0.000 
#
# Total GULP energy -133898.399621 kJ/mol
# GULP energy per Si atom -5579.099984 kJ/mol
# Density = 2.183527 g / cm^3
# Si number density = 21.885079 Si / 1000 Ang^3
#
#
#
# Elastic Constant Matrix: (Units=GPa)
#
#
# Indices 1 2 3 4 5 6 
#
# 1 111.8080 41.7792 29.8597 0.0000 0.0000 0.0000
# 2 41.7792 165.0599 34.7498 0.0000 0.0000 0.0000
# 3 29.8597 34.7498 141.4134 0.0000 0.0000 0.0000
# 4 0.0000 0.0000 0.0000 24.9819 0.0000 0.0000
# 5 0.0000 0.0000 0.0000 0.0000 5.8813 0.0000
# 6 0.0000 0.0000 0.0000 0.0000 0.0000 31.5682
#
#
#
# Elastic Compliance Matrix: (Units=1/GPa)
#
#
# Indices 1 2 3 4 5 6 
#
# 1 0.010212 -0.002247 -0.001604 0.000000 0.000000 0.000000
# 2 -0.002247 0.006883 -0.001217 0.000000 0.000000 0.000000
# 3 -0.001604 -0.001217 0.007709 0.000000 0.000000 0.000000
# 4 0.000000 0.000000 0.000000 0.040029 0.000000 0.000000
# 5 0.000000 0.000000 0.000000 0.000000 0.170032 0.000000
# 6 0.000000 0.000000 0.000000 0.000000 0.000000 0.031677
#
#
# Mechanical properties :
#
#
# Convention : Reuss Voigt Hill
#
# Bulk Modulus (GPa) = 68.17458 70.11763 69.14610
# Shear Modulus (GPa) = 17.75767 33.27911 25.51839
#
# Velocity S-wave (km/s) = 2.85161 3.90376 3.41840
# Velocity P-wave (km/s) = 6.48545 7.24069 6.87345
#
# Compressibility (1/GPa) = 0.01466822
#
# Stress axis : x y z
#
# Youngs Moduli (GPa) = 97.92427 145.27718 129.71473
#
# Poissons Ratio (x) = 0.32645 0.20807
# Poissons Ratio (y) = 0.22005 0.15786
# Poissons Ratio (z) = 0.15708 0.17680
#
# Static dielectric constant tensor:
#      x y z
#    x 1.889140 0.000000 0.000000 
#    y 0.000000 1.881730 0.000000 
#    z 0.000000 0.000000 1.797740 
# 
# From -- ./inp_files/28024.got.cif
#   From: 2010.05.17/outbox.cif.g08.bks.cpg/sg23_15_cif.got.tgz:28024.got - 2010.06.04 12:02:01.
