data_PCOD9329639
_publ_section_title
;
Structure prediction by ZEFSAII (Michael W. Deem and Ramdas Pophale) SiO2 
 PCOD9329639
Probable space group: I 2 2 2
;
_chemical_formula_sum "Si O2"
_cell_formula_units_Z 32
_cell_length_a 18.417573
_cell_length_b 7.035742
_cell_length_c 9.816466
_cell_angle_alpha 90.000000
_cell_angle_beta 90.000000
_cell_angle_gamma 90.000000
_cell_volume 1272.030346
_symmetry_space_group_name_H-M "I 2 2 2"
_symmetry_group_IT_number 23
_symmetry_cell_setting 'orthorhombic'
loop_
_space_group_symop_operation_xyz
x,y,z
-x,-y,z
x,-y,-z
-x,y,-z
1/2+x,1/2+y,1/2+z
1/2-x,1/2-y,1/2+z
1/2+x,1/2-y,1/2-z
1/2-x,1/2+y,1/2-z
loop_
_atom_site_type_symbol
_atom_site_label
_atom_site_fract_x
_atom_site_fract_y
_atom_site_fract_z
Si Si1 0.082924 0.268172 0.479575
Si Si2 0.420925 0.103272 0.696541
Si Si3 0.316539 0.757968 0.782304
Si Si4 0.807373 0.280374 0.986314
O O1 0.089797 0.500000 0.500000
O O2 0.091710 0.247597 0.318390
O O3 0.132170 0.176538 0.596633
O O4 0.000000 0.218258 0.500000
O O5 0.362878 0.939687 0.732343
O O6 0.391600 0.202991 0.560210
O O7 0.500000 0.000000 0.694591
O O8 0.299553 0.677604 0.631507
O O9 0.242720 0.793146 0.864036
O O10 0.781289 0.500000 0.000000
#
# Coordination Sequence:
#
# PCOD9329639 Si02
#       4
#     8   8   8   8
#     4   9  14  28  50  79 106 135 178 219 278 329
#     4  10  18  34  56  86 112 139 188 241 284 335
#     4  10  19  33  49  76 115 146 181 228 282 331
#     4  10  22  34  52  81 117 149 184 231 287 345
#
# _framework density 25.156635000000001
#
# number of rings (size 3 to 8) (size 9 to 14) (size 15 to 20)
#    0.000    2.250    5.000    1.500    0.000    6.500 
#    0.000    0.000    0.000    0.750    0.000    0.000 
#   15.000    0.000    0.000    0.000    0.000    0.000 
#
# Total GULP energy -89124.761407 kJ/mol
# GULP energy per Si atom -5570.297588 kJ/mol
# Density = 2.509938 g / cm^3
# Si number density = 25.156635 Si / 1000 Ang^3
#
#
#
# Elastic Constant Matrix: (Units=GPa)
#
#
# Indices 1 2 3 4 5 6 
#
# 1 151.5630 20.4275 92.9783 0.0000 0.0000 0.0000
# 2 20.4275 72.9410 21.7128 0.0000 0.0000 0.0000
# 3 92.9783 21.7128 268.5050 0.0000 0.0000 0.0000
# 4 0.0000 0.0000 0.0000 12.3444 0.0000 0.0000
# 5 0.0000 0.0000 0.0000 0.0000 56.0204 0.0000
# 6 0.0000 0.0000 0.0000 0.0000 0.0000 6.2001
#
#
#
# Elastic Compliance Matrix: (Units=1/GPa)
#
#
# Indices 1 2 3 4 5 6 
#
# 1 0.008545 -0.001550 -0.002834 0.000000 0.000000 0.000000
# 2 -0.001550 0.014329 -0.000622 0.000000 0.000000 0.000000
# 3 -0.002834 -0.000622 0.004756 0.000000 0.000000 0.000000
# 4 0.000000 0.000000 0.000000 0.081009 0.000000 0.000000
# 5 0.000000 0.000000 0.000000 0.000000 0.017851 0.000000
# 6 0.000000 0.000000 0.000000 0.000000 0.000000 0.161288
#
#
# Mechanical properties :
#
#
# Convention : Reuss Voigt Hill
#
# Bulk Modulus (GPa) = 56.75668 84.80514 70.78091
# Shear Modulus (GPa) = 16.46571 38.77232 27.61902
#
# Velocity S-wave (km/s) = 2.56115 3.93012 3.31702
# Velocity P-wave (km/s) = 5.59967 7.37418 6.54732
#
# Compressibility (1/GPa) = 0.01761907
#
# Stress axis : x y z
#
# Youngs Moduli (GPa) = 117.02551 69.78917 210.26529
#
# Poissons Ratio (x) = 0.10814 0.59583
# Poissons Ratio (y) = 0.18134 0.13081
# Poissons Ratio (z) = 0.33162 0.04342
#
# Static dielectric constant tensor:
#      x y z
#    x 1.967470 0.000000 0.000000 
#    y 0.000000 2.150800 0.000000 
#    z 0.000000 0.000000 2.265180 
# 
# From -- ./inp_files/17299.got.cif
#   From: 2010.05.17/outbox.cif.g08.bks.cpg/sg23_9_cif.got.tgz:17299.got - 2010.06.04 12:02:01.
