data_PCOD9329558
_publ_section_title
;
Structure prediction by ZEFSAII (Michael W. Deem and Ramdas Pophale) SiO2 
 PCOD9329558
Probable space group: I 2 2 2
;
_chemical_formula_sum "Si O2"
_cell_formula_units_Z 60
_cell_length_a 30.908766
_cell_length_b 5.922799
_cell_length_c 12.808676
_cell_angle_alpha 90.000000
_cell_angle_beta 90.000000
_cell_angle_gamma 90.000000
_cell_volume 2344.838311
_symmetry_space_group_name_H-M "I 2 2 2"
_symmetry_group_IT_number 23
_symmetry_cell_setting 'orthorhombic'
loop_
_space_group_symop_operation_xyz
x,y,z
-x,-y,z
x,-y,-z
-x,y,-z
1/2+x,1/2+y,1/2+z
1/2-x,1/2-y,1/2+z
1/2+x,1/2-y,1/2-z
1/2-x,1/2+y,1/2-z
loop_
_atom_site_type_symbol
_atom_site_label
_atom_site_fract_x
_atom_site_fract_y
_atom_site_fract_z
Si Si1 0.427783 0.000000 0.000000
Si Si2 0.131732 0.248855 0.882850
Si Si3 0.734417 0.139471 0.873770
Si Si4 0.542658 0.645645 0.147400
Si Si5 0.772347 0.638536 0.881392
Si Si6 0.610172 0.645694 0.735488
Si Si7 0.646152 0.986571 0.163103
Si Si8 0.952060 0.466832 0.151796
O O1 0.453175 0.216269 0.040128
O O2 0.395772 0.963537 0.095857
O O3 0.178019 0.331025 0.920385
O O4 0.134758 0.335256 0.762231
O O5 0.084575 0.336689 0.916522
O O6 0.127933 0.983557 0.866313
O O7 0.754982 0.381720 0.907222
O O8 0.731681 0.136398 0.746240
O O9 0.751701 0.888124 0.905317
O O10 0.683472 0.131476 0.900912
O O11 0.500000 0.500000 0.147549
O O12 0.584900 0.498684 0.177047
O O13 0.539052 0.817493 0.244636
O O14 0.652459 0.768250 0.784140
O O15 0.573017 0.810313 0.690240
O O16 0.000000 0.500000 0.107945
#
# Coordination Sequence:
#
# PCOD9329558 Si02
#       8
#     4   8   8   8   8   8   8   8
#     4  12  22  40  49  70  82 122 168 218 263 304
#     4   9  19  30  49  68  88 113 145 190 240 299
#     4   9  19  30  48  70  92 111 138 180 239 308
#     4  11  22  37  49  59  82 118 165 215 261 303
#     4   9  18  30  49  72  90 113 136 177 240 299
#     4  10  18  33  50  62  86 117 147 203 247 293
#     4  10  21  33  48  65  89 113 154 193 247 301
#     4  10  18  32  49  65  85 114 158 191 242 290
#
# _framework density 25.58812
#
# number of rings (size 3 to 8) (size 9 to 14) (size 15 to 20)
#    0.000    2.133    5.333    0.000   11.200    0.533 
#    0.000    6.333    0.000    0.000    0.000    0.000 
#    0.000    0.000    0.000    0.000    0.000    0.000 
#
# Total GULP energy -167342.565436 kJ/mol
# GULP energy per Si atom -5578.085515 kJ/mol
# Density = 2.552988 g / cm^3
# Si number density = 25.588120 Si / 1000 Ang^3
#
#
#
# Elastic Constant Matrix: (Units=GPa)
#
#
# Indices 1 2 3 4 5 6 
#
# 1 188.6095 84.8398 8.0758 0.0000 0.0000 0.0000
# 2 84.8398 158.8284 29.3823 0.0000 0.0000 0.0000
# 3 8.0758 29.3823 48.1935 0.0000 0.0000 0.0000
# 4 0.0000 0.0000 0.0000 44.0252 0.0000 0.0000
# 5 0.0000 0.0000 0.0000 0.0000 9.7625 0.0000
# 6 0.0000 0.0000 0.0000 0.0000 0.0000 42.0267
#
#
#
# Elastic Compliance Matrix: (Units=1/GPa)
#
#
# Indices 1 2 3 4 5 6 
#
# 1 0.007046 -0.003996 0.001255 0.000000 0.000000 0.000000
# 2 -0.003996 0.009363 -0.005039 0.000000 0.000000 0.000000
# 3 0.001255 -0.005039 0.023611 0.000000 0.000000 0.000000
# 4 0.000000 0.000000 0.000000 0.022714 0.000000 0.000000
# 5 0.000000 0.000000 0.000000 0.000000 0.102433 0.000000
# 6 0.000000 0.000000 0.000000 0.000000 0.000000 0.023794
#
#
# Mechanical properties :
#
#
# Convention : Reuss Voigt Hill
#
# Bulk Modulus (GPa) = 40.88028 71.13635 56.00832
# Shear Modulus (GPa) = 23.51033 37.38511 30.44772
#
# Velocity S-wave (km/s) = 3.03446 3.82649 3.45326
# Velocity P-wave (km/s) = 5.31867 6.88358 6.15109
#
# Compressibility (1/GPa) = 0.02446167
#
# Stress axis : x y z
#
# Youngs Moduli (GPa) = 141.93377 106.80858 42.35287
#
# Poissons Ratio (x) = 0.42677 -0.05317
# Poissons Ratio (y) = 0.56712 0.21340
# Poissons Ratio (z) = -0.17819 0.53816
#
# Static dielectric constant tensor:
#      x y z
#    x 2.043580 0.000000 0.000000 
#    y 0.000000 2.272920 0.000000 
#    z 0.000000 0.000000 2.140500 
# 
# From -- ./inp_files/27438.got.cif
#   From: 2010.05.17/outbox.cif.g08.bks.cpg/sg23_14_cif.got.tgz:27438.got - 2010.06.04 12:02:01.
