data_PCOD9329928
_publ_section_title
;
Structure prediction by ZEFSAII (Michael W. Deem and Ramdas Pophale) SiO2 
 PCOD9329928
Probable space group: I 2 2 2
;
_chemical_formula_sum "Si O2"
_cell_formula_units_Z 42
_cell_length_a 19.711091
_cell_length_b 4.862956
_cell_length_c 24.619494
_cell_angle_alpha 90.000000
_cell_angle_beta 90.000000
_cell_angle_gamma 90.000000
_cell_volume 2359.881120
_symmetry_space_group_name_H-M "I 2 2 2"
_symmetry_group_IT_number 23
_symmetry_cell_setting 'orthorhombic'
loop_
_space_group_symop_operation_xyz
x,y,z
-x,-y,z
x,-y,-z
-x,y,-z
1/2+x,1/2+y,1/2+z
1/2-x,1/2-y,1/2+z
1/2+x,1/2-y,1/2-z
1/2-x,1/2+y,1/2-z
loop_
_atom_site_type_symbol
_atom_site_label
_atom_site_fract_x
_atom_site_fract_y
_atom_site_fract_z
Si Si1 0.177367 0.153640 0.618218
Si Si2 0.275602 0.086452 0.713131
Si Si3 0.927157 0.420184 0.227393
Si Si4 0.929614 0.083071 0.700151
Si Si5 0.500000 0.000000 0.000000
Si Si6 0.864845 0.660501 0.447966
O O1 0.127896 0.012620 0.661097
O O2 0.150672 0.450873 0.600910
O O3 0.245410 0.161503 0.654038
O O4 0.169317 0.948828 0.566868
O O5 0.237006 0.837281 0.744645
O O6 0.354098 0.002503 0.704270
O O7 0.926392 0.102840 0.245071
O O8 0.000000 0.500000 0.200647
O O9 0.928214 0.602904 0.282531
O O10 0.000000 0.000000 0.673214
O O11 0.445762 0.170966 0.963024
O O12 0.834994 0.500000 0.500000
#
# Coordination Sequence:
#
# PCOD9329928 Si02
#       6
#     8   8   8   8   2   8
#     4  12  21  34  53  75 101 139 183 219 270 321
#     4  12  21  35  51  78 111 141 176 226 269 322
#     4  10  19  35  46  70 103 143 170 211 250 311
#     4  10  20  28  48  71 100 131 179 213 252 300
#     4   8  24  42  56  70 112 142 182 246 284 302
#     4  10  24  37  52  73  99 138 180 228 270 312
#
# _framework density 17.797508000000001
#
# number of rings (size 3 to 8) (size 9 to 14) (size 15 to 20)
#    0.571    0.762    3.810    2.857    2.667    0.762 
#    0.000    0.000    0.000    0.000    0.000    0.000 
#    0.000    4.571    0.000    0.000    0.000    0.000 
#
# Total GULP energy -116928.725954 kJ/mol
# GULP energy per Si atom -5568.034569 kJ/mol
# Density = 1.775700 g / cm^3
# Si number density = 17.797508 Si / 1000 Ang^3
#
#
#
# Elastic Constant Matrix: (Units=GPa)
#
#
# Indices 1 2 3 4 5 6 
#
# 1 109.1298 2.9961 34.8189 0.0000 0.0000 0.0000
# 2 2.9961 85.9001 13.6955 0.0000 0.0000 0.0000
# 3 34.8189 13.6955 48.3549 0.0000 0.0000 0.0000
# 4 0.0000 0.0000 0.0000 18.8443 0.0000 0.0000
# 5 0.0000 0.0000 0.0000 0.0000 31.8205 0.0000
# 6 0.0000 0.0000 0.0000 0.0000 0.0000 16.9362
#
#
#
# Elastic Compliance Matrix: (Units=1/GPa)
#
#
# Indices 1 2 3 4 5 6 
#
# 1 0.011978 0.001003 -0.008909 0.000000 0.000000 0.000000
# 2 0.001003 0.012276 -0.004199 0.000000 0.000000 0.000000
# 3 -0.008909 -0.004199 0.028285 0.000000 0.000000 0.000000
# 4 0.000000 0.000000 0.000000 0.053067 0.000000 0.000000
# 5 0.000000 0.000000 0.000000 0.000000 0.031426 0.000000
# 6 0.000000 0.000000 0.000000 0.000000 0.000000 0.059045
#
#
# Mechanical properties :
#
#
# Convention : Reuss Voigt Hill
#
# Bulk Modulus (GPa) = 35.30037 38.48953 36.89495
# Shear Modulus (GPa) = 21.76457 26.31183 24.03820
#
# Velocity S-wave (km/s) = 3.50079 3.84917 3.67911
# Velocity P-wave (km/s) = 6.01816 6.43647 6.23082
#
# Compressibility (1/GPa) = 0.02832831
#
# Stress axis : x y z
#
# Youngs Moduli (GPa) = 83.48307 81.46039 35.35442
#
# Poissons Ratio (x) = -0.08168 0.31498
# Poissons Ratio (y) = -0.08371 0.14845
# Poissons Ratio (z) = 0.74378 0.34204
#
# Static dielectric constant tensor:
#      x y z
#    x 1.689310 0.000000 0.000000 
#    y 0.000000 1.665520 0.000000 
#    z 0.000000 0.000000 1.655720 
# 
# From -- ./inp_files/27241.got.cif
#   From: 2010.05.17/outbox.cif.g08.bks.cpg/sg23_14_cif.got.tgz:27241.got - 2010.06.04 12:02:01.
