data_PCOD9329798
_publ_section_title
;
Structure prediction by ZEFSAII (Michael W. Deem and Ramdas Pophale) SiO2 
 PCOD9329798
Probable space group: I 2 2 2
;
_chemical_formula_sum "Si O2"
_cell_formula_units_Z 60
_cell_length_a 5.632226
_cell_length_b 22.311922
_cell_length_c 21.076095
_cell_angle_alpha 90.000000
_cell_angle_beta 90.000000
_cell_angle_gamma 90.000000
_cell_volume 2648.544069
_symmetry_space_group_name_H-M "I 2 2 2"
_symmetry_group_IT_number 23
_symmetry_cell_setting 'orthorhombic'
loop_
_space_group_symop_operation_xyz
x,y,z
-x,-y,z
x,-y,-z
-x,y,-z
1/2+x,1/2+y,1/2+z
1/2-x,1/2-y,1/2+z
1/2+x,1/2-y,1/2-z
1/2-x,1/2+y,1/2-z
loop_
_atom_site_type_symbol
_atom_site_label
_atom_site_fract_x
_atom_site_fract_y
_atom_site_fract_z
Si Si1 0.883655 0.310320 0.564224
Si Si2 0.426539 0.064803 0.682906
Si Si3 0.500000 0.226128 0.500000
Si Si4 0.418519 0.408083 0.844443
Si Si5 0.619906 0.905248 0.824274
Si Si6 0.927293 0.763060 0.213998
Si Si7 0.697795 0.701162 0.105676
Si Si8 0.888186 0.093545 0.805669
O O1 0.655459 0.271509 0.543246
O O2 0.849038 0.353327 0.623607
O O3 0.000000 0.338119 0.500000
O O4 0.073082 0.262878 0.589031
O O5 0.644521 0.081631 0.636248
O O6 0.390995 0.106052 0.746684
O O7 0.173534 0.058374 0.646716
O O8 0.500000 0.000000 0.709161
O O9 0.325213 0.184713 0.540599
O O10 0.502683 0.342893 0.866510
O O11 0.383529 0.416520 0.769355
O O12 0.355312 0.928040 0.836496
O O13 0.872535 0.936892 0.830224
O O14 0.684444 0.749398 0.254314
O O15 0.897174 0.716206 0.156989
O O16 0.907007 0.832884 0.191897
#
# Coordination Sequence:
#
# PCOD9329798 Si02
#       8
#     8   8   4   8   8   8   8   8
#     4  10  22  37  51  79 118 162 206 244 279 335
#     4  10  22  41  60  88 121 148 191 247 316 374
#     4  10  24  38  56  76 129 177 208 244 278 328
#     4  10  22  34  60  87 116 153 190 235 298 363
#     4  10  20  35  57  78 111 157 195 233 294 354
#     4  12  23  30  51  79 120 157 190 241 284 344
#     4  11  23  35  55  82 125 162 206 239 290 352
#     4  10  19  32  46  81 108 147 186 227 279 352
#
# _framework density 22.653955
#
# number of rings (size 3 to 8) (size 9 to 14) (size 15 to 20)
#    0.000    1.600    2.667    2.000    9.333    0.000 
#    0.000    0.000    0.000    0.400    0.000    0.467 
#    0.000    0.000    0.000    0.000    0.000    0.000 
#
# Total GULP energy -167063.849988 kJ/mol
# GULP energy per Si atom -5568.795000 kJ/mol
# Density = 2.260239 g / cm^3
# Si number density = 22.653955 Si / 1000 Ang^3
#
#
#
# Elastic Constant Matrix: (Units=GPa)
#
#
# Indices 1 2 3 4 5 6 
#
# 1 224.6574 28.1888 40.2477 0.0000 0.0000 0.0000
# 2 28.1888 53.4356 22.8767 0.0000 0.0000 0.0000
# 3 40.2477 22.8767 43.7129 0.0000 0.0000 0.0000
# 4 0.0000 0.0000 0.0000 5.0640 0.0000 0.0000
# 5 0.0000 0.0000 0.0000 0.0000 28.4325 0.0000
# 6 0.0000 0.0000 0.0000 0.0000 0.0000 32.0559
#
#
#
# Elastic Compliance Matrix: (Units=1/GPa)
#
#
# Indices 1 2 3 4 5 6 
#
# 1 0.005366 -0.000922 -0.004458 0.000000 0.000000 0.000000
# 2 -0.000922 0.024276 -0.011856 0.000000 0.000000 0.000000
# 3 -0.004458 -0.011856 0.033185 0.000000 0.000000 0.000000
# 4 0.000000 0.000000 0.000000 0.197471 0.000000 0.000000
# 5 0.000000 0.000000 0.000000 0.000000 0.035171 0.000000
# 6 0.000000 0.000000 0.000000 0.000000 0.000000 0.031195
#
#
# Mechanical properties :
#
#
# Convention : Reuss Voigt Hill
#
# Bulk Modulus (GPa) = 35.26559 56.04802 45.65680
# Shear Modulus (GPa) = 13.49211 28.47668 20.98439
#
# Velocity S-wave (km/s) = 2.44309 3.54931 3.04682
# Velocity P-wave (km/s) = 4.85377 6.44914 5.70747
#
# Compressibility (1/GPa) = 0.02835625
#
# Stress axis : x y z
#
# Youngs Moduli (GPa) = 186.37569 41.19272 30.13385
#
# Poissons Ratio (x) = 0.03798 0.13432
# Poissons Ratio (y) = 0.17185 0.35726
# Poissons Ratio (z) = 0.83079 0.48837
#
# Static dielectric constant tensor:
#      x y z
#    x 2.015700 0.000000 0.000000 
#    y 0.000000 1.893060 0.000000 
#    z 0.000000 0.000000 1.883890 
# 
# From -- ./inp_files/25803.got.cif
#   From: 2010.05.17/outbox.cif.g08.bks.cpg/sg23_13_cif.got.tgz:25803.got - 2010.06.04 12:02:01.
