data_PCOD9329378
_publ_section_title
;
Structure prediction by ZEFSAII (Michael W. Deem and Ramdas Pophale) SiO2 
 PCOD9329378
Probable space group: I 2 2 2
;
_chemical_formula_sum "Si O2"
_cell_formula_units_Z 44
_cell_length_a 15.552343
_cell_length_b 18.534575
_cell_length_c 7.637494
_cell_angle_alpha 90.000000
_cell_angle_beta 90.000000
_cell_angle_gamma 90.000000
_cell_volume 2201.553988
_symmetry_space_group_name_H-M "I 2 2 2"
_symmetry_group_IT_number 23
_symmetry_cell_setting 'orthorhombic'
loop_
_space_group_symop_operation_xyz
x,y,z
-x,-y,z
x,-y,-z
-x,y,-z
1/2+x,1/2+y,1/2+z
1/2-x,1/2-y,1/2+z
1/2+x,1/2-y,1/2-z
1/2-x,1/2+y,1/2-z
loop_
_atom_site_type_symbol
_atom_site_label
_atom_site_fract_x
_atom_site_fract_y
_atom_site_fract_z
Si Si1 0.500000 0.500000 0.000000
Si Si2 0.000000 0.752385 0.500000
Si Si3 0.000000 0.801401 0.000000
Si Si4 0.500000 0.000000 0.000000
Si Si5 0.737270 0.829816 0.867962
Si Si6 0.897124 0.372757 0.333810
Si Si7 0.586572 0.628115 0.190292
Si Si8 0.838836 0.697079 0.001160
O O1 0.561558 0.448251 0.887585
O O2 0.032519 0.692466 0.357897
O O3 0.077118 0.810913 0.463746
O O4 0.986842 0.848708 0.827853
O O5 0.918091 0.751197 0.018853
O O6 0.442556 0.052776 0.118906
O O7 0.825444 0.867688 0.800913
O O8 0.764472 0.748620 0.922293
O O9 0.681495 0.830165 0.692929
O O10 0.680275 0.860303 0.026759
O O11 0.860728 0.363880 0.139624
#
# Coordination Sequence:
#
# PCOD9329378 Si02
#       8
#     2   4   4   2   8   8   8   8
#     4  10  24  44  60  82 128 182 208 254 340 404
#     4  10  16  36  64  84 120 160 208 270 306 376
#     4  10  20  35  62 101 118 154 220 256 322 381
#     4  10  28  46  62  94 140 198 216 258 334 414
#     4  11  21  38  64  98 129 156 213 276 332 368
#     4  11  22  43  64  92 135 171 223 266 324 398
#     4  10  21  39  60  93 122 164 213 267 330 386
#     4  11  21  37  66 104 121 165 209 284 325 376
#
# _framework density 19.985883000000001
#
# number of rings (size 3 to 8) (size 9 to 14) (size 15 to 20)
#    0.000    1.455    5.455    1.091    2.545    1.818 
#    3.273    0.909    0.000    0.000    0.000    0.000 
#    0.000    0.000    0.000    0.000    0.000    0.000 
#
# Total GULP energy -122559.161349 kJ/mol
# GULP energy per Si atom -5570.870970 kJ/mol
# Density = 1.994039 g / cm^3
# Si number density = 19.985883 Si / 1000 Ang^3
#
#
#
# Elastic Constant Matrix: (Units=GPa)
#
#
# Indices 1 2 3 4 5 6 
#
# 1 80.4551 37.9456 45.3771 0.0000 0.0000 0.0000
# 2 37.9456 112.9119 18.5575 0.0000 0.0000 0.0000
# 3 45.3771 18.5575 91.7481 0.0000 0.0000 0.0000
# 4 0.0000 0.0000 0.0000 14.9978 0.0000 0.0000
# 5 0.0000 0.0000 0.0000 0.0000 30.5271 0.0000
# 6 0.0000 0.0000 0.0000 0.0000 0.0000 20.2510
#
#
#
# Elastic Compliance Matrix: (Units=1/GPa)
#
#
# Indices 1 2 3 4 5 6 
#
# 1 0.019829 -0.005226 -0.008750 0.000000 0.000000 0.000000
# 2 -0.005226 0.010538 0.000453 0.000000 0.000000 0.000000
# 3 -0.008750 0.000453 0.015135 0.000000 0.000000 0.000000
# 4 0.000000 0.000000 0.000000 0.066676 0.000000 0.000000
# 5 0.000000 0.000000 0.000000 0.000000 0.032758 0.000000
# 6 0.000000 0.000000 0.000000 0.000000 0.000000 0.049380
#
#
# Mechanical properties :
#
#
# Convention : Reuss Voigt Hill
#
# Bulk Modulus (GPa) = 54.17982 54.31950 54.24966
# Shear Modulus (GPa) = 21.97658 25.37086 23.67372
#
# Velocity S-wave (km/s) = 3.31963 3.56678 3.44542
# Velocity P-wave (km/s) = 6.47002 6.64835 6.55979
#
# Compressibility (1/GPa) = 0.01845706
#
# Stress axis : x y z
#
# Youngs Moduli (GPa) = 50.43106 94.89307 66.07005
#
# Poissons Ratio (x) = 0.49588 0.57812
# Poissons Ratio (y) = 0.26354 -0.02993
# Poissons Ratio (z) = 0.44128 -0.04299
#
# Static dielectric constant tensor:
#      x y z
#    x 1.790340 0.000000 0.000000 
#    y 0.000000 1.683670 0.000000 
#    z 0.000000 0.000000 1.755330 
# 
# From -- ./inp_files/9893.got.cif
#   From: 2010.05.17/outbox.cif.g08.bks.cpg/sg23_5_cif.got.tgz:9893.got - 2010.06.04 12:02:01.
