data_PCOD9329620
_publ_section_title
;
Structure prediction by ZEFSAII (Michael W. Deem and Ramdas Pophale) SiO2 
 PCOD9329620
Probable space group: I 2 2 2
;
_chemical_formula_sum "Si O2"
_cell_formula_units_Z 26
_cell_length_a 5.150016
_cell_length_b 12.760694
_cell_length_c 15.407451
_cell_angle_alpha 90.000000
_cell_angle_beta 90.000000
_cell_angle_gamma 90.000000
_cell_volume 1012.543449
_symmetry_space_group_name_H-M "I 2 2 2"
_symmetry_group_IT_number 23
_symmetry_cell_setting 'orthorhombic'
loop_
_space_group_symop_operation_xyz
x,y,z
-x,-y,z
x,-y,-z
-x,y,-z
1/2+x,1/2+y,1/2+z
1/2-x,1/2-y,1/2+z
1/2+x,1/2-y,1/2-z
1/2-x,1/2+y,1/2-z
loop_
_atom_site_type_symbol
_atom_site_label
_atom_site_fract_x
_atom_site_fract_y
_atom_site_fract_z
Si Si1 0.500000 0.000000 0.000000
Si Si2 0.309834 0.650803 0.634093
Si Si3 0.076195 0.142130 0.308505
Si Si4 0.429977 0.860041 0.405220
O O1 0.323204 0.927068 0.064900
O O2 0.470725 0.608792 0.715830
O O3 0.511959 0.734425 0.593624
O O4 0.102969 0.730523 0.680563
O O5 0.859194 0.115321 0.378677
O O6 0.356316 0.101652 0.336183
O O7 0.500000 0.895467 0.500000
#
# Coordination Sequence:
#
# PCOD9329620 Si02
#       4
#     2   8   8   8
#     4  12  24  40  66 112 156 158 230 312 370 360
#     4  10  21  38  60  93 138 196 213 286 345 430
#     4  10  19  36  63  74 137 187 232 247 339 441
#     4  10  18  33  61  87 115 169 242 277 308 397
#
# _framework density 25.677913
#
# number of rings (size 3 to 8) (size 9 to 14) (size 15 to 20)
#    1.846    0.000    3.077    2.769    0.000    0.000 
#    0.000    6.923    0.000    0.000    0.000    1.077 
#    9.231    0.000    0.000    0.000    0.000    0.000 
#
# Total GULP energy -72604.296183 kJ/mol
# GULP energy per Si atom -5584.945860 kJ/mol
# Density = 2.561947 g / cm^3
# Si number density = 25.677913 Si / 1000 Ang^3
#
#
#
# Elastic Constant Matrix: (Units=GPa)
#
#
# Indices 1 2 3 4 5 6 
#
# 1 126.7351 22.7785 34.8840 0.0000 0.0000 0.0000
# 2 22.7785 150.0365 33.5073 0.0000 0.0000 0.0000
# 3 34.8840 33.5073 151.4049 0.0000 0.0000 0.0000
# 4 0.0000 0.0000 0.0000 -27.8613 0.0000 0.0000
# 5 0.0000 0.0000 0.0000 0.0000 36.5456 0.0000
# 6 0.0000 0.0000 0.0000 0.0000 0.0000 13.8231
#
#
#
# Elastic Compliance Matrix: (Units=1/GPa)
#
#
# Indices 1 2 3 4 5 6 
#
# 1 0.008539 -0.000902 -0.001768 0.000000 0.000000 0.000000
# 2 -0.000902 0.007107 -0.001365 0.000000 0.000000 0.000000
# 3 -0.001768 -0.001365 0.007314 0.000000 0.000000 0.000000
# 4 0.000000 0.000000 0.000000 -0.035892 0.000000 0.000000
# 5 0.000000 0.000000 0.000000 0.000000 0.027363 0.000000
# 6 0.000000 0.000000 0.000000 0.000000 0.000000 0.072343
#
#
# Mechanical properties :
#
#
# Convention : Reuss Voigt Hill
#
# Bulk Modulus (GPa) = 67.15451 67.83512 67.49481
# Shear Modulus (GPa) = 50.09682 26.96857 38.53270
#
# Velocity S-wave (km/s) = 4.42177 3.24429 3.87798
# Velocity P-wave (km/s) = 7.23041 6.36466 6.81131
#
# Compressibility (1/GPa) = 0.01489103
#
# Stress axis : x y z
#
# Youngs Moduli (GPa) = 117.10780 140.71064 136.71961
#
# Poissons Ratio (x) = 0.12686 0.24171
# Poissons Ratio (y) = 0.10558 0.18663
# Poissons Ratio (z) = 0.20704 0.19208
#
# Static dielectric constant tensor:
#      x y z
#    x 1.975100 0.000000 0.000000 
#    y 0.000000 2.273700 0.000000 
#    z 0.000000 0.000000 1.990790 
# 
# From -- ./inp_files/18934.got.cif
#   From: 2010.05.17/outbox.cif.g08.bks.cpg/sg23_10_cif.got.tgz:18934.got - 2010.06.04 12:02:01.
