data_PCOD9329031
_publ_section_title
;
Structure prediction by ZEFSAII (Michael W. Deem and Ramdas Pophale) SiO2 
 PCOD9329031
Probable space group: F 2 2 2
;
_chemical_formula_sum "Si O2"
_cell_formula_units_Z 88
_cell_length_a 23.324212
_cell_length_b 15.004890
_cell_length_c 11.461771
_cell_angle_alpha 90.000000
_cell_angle_beta 90.000000
_cell_angle_gamma 90.000000
_cell_volume 4011.358927
_symmetry_space_group_name_H-M "F 2 2 2"
_symmetry_group_IT_number 22
_symmetry_cell_setting 'orthorhombic'
loop_
_space_group_symop_operation_xyz
x,y,z
-x,-y,z
x,-y,-z
-x,y,-z
x,1/2+y,1/2+z
-x,1/2-y,1/2+z
x,1/2-y,1/2-z
-x,1/2+y,1/2-z
1/2+x,y,1/2+z
1/2-x,-y,1/2+z
1/2+x,-y,1/2-z
1/2-x,y,1/2-z
1/2+x,1/2+y,z
1/2-x,1/2-y,z
1/2+x,1/2-y,-z
1/2-x,1/2+y,-z
loop_
_atom_site_type_symbol
_atom_site_label
_atom_site_fract_x
_atom_site_fract_y
_atom_site_fract_z
Si Si1 0.828704 0.866041 0.493489
Si Si2 0.290766 0.080121 0.408765
Si Si3 0.600329 0.803762 0.475343
Si Si4 0.849807 0.998681 0.692217
Si Si5 0.473471 0.250000 0.250000
Si Si6 0.041188 0.084423 0.821088
O O1 0.766096 0.860201 0.431768
O O2 0.864755 0.779758 0.526704
O O3 0.821993 0.924263 0.609592
O O4 0.864950 0.922198 0.397885
O O5 0.348458 0.133774 0.433263
O O6 0.286101 0.000000 0.500000
O O7 0.305460 0.037113 0.284772
O O8 0.564168 0.769369 0.364902
O O9 0.562262 0.859839 0.565970
O O10 0.903772 0.957634 0.757965
O O11 0.511023 0.159657 0.240562
O O12 0.000000 0.000000 0.847676
#
# Coordination Sequence:
#
# PCOD9329031 Si02
#       6
#    16  16  16  16   8  16
#     4  11  25  45  71 107 148 186 228 302 368 436
#     4  12  23  43  73 105 138 185 234 287 357 437
#     4  12  26  46  72 105 143 185 243 301 366 432
#     4  11  24  44  72 102 145 188 243 291 362 435
#     4  12  28  44  69 108 143 188 248 310 370 430
#     4  12  26  47  74 103 142 195 251 305 364 434
#
# _framework density 21.937702000000002
#
# number of rings (size 3 to 8) (size 9 to 14) (size 15 to 20)
#    0.000    0.364    3.636    6.000    0.000    2.182 
#    0.000    8.182    4.000    0.000    0.000    0.000 
#    0.000    0.000    0.000    0.000    0.000    0.000 
#
# Total GULP energy -122992.713753 kJ/mol
# GULP energy per Si atom -5590.577898 kJ/mol
# Density = 2.188777 g / cm^3
# Si number density = 21.937702 Si / 1000 Ang^3
#
#
#
# Elastic Constant Matrix: (Units=GPa)
#
#
# Indices 1 2 3 4 5 6 
#
# 1 160.6849 72.8522 55.4636 0.0000 0.0000 0.0000
# 2 72.8522 144.9301 51.4901 0.0000 0.0000 0.0000
# 3 55.4636 51.4901 112.4450 0.0000 0.0000 0.0000
# 4 0.0000 0.0000 0.0000 18.6212 0.0000 0.0000
# 5 0.0000 0.0000 0.0000 0.0000 21.9299 0.0000
# 6 0.0000 0.0000 0.0000 0.0000 0.0000 155.7962
#
#
#
# Elastic Compliance Matrix: (Units=1/GPa)
#
#
# Indices 1 2 3 4 5 6 
#
# 1 0.008713 -0.003407 -0.002738 0.000000 0.000000 0.000000
# 2 -0.003407 0.009573 -0.002703 0.000000 0.000000 0.000000
# 3 -0.002738 -0.002703 0.011481 0.000000 0.000000 0.000000
# 4 0.000000 0.000000 0.000000 0.053702 0.000000 0.000000
# 5 0.000000 0.000000 0.000000 0.000000 0.045600 0.000000
# 6 0.000000 0.000000 0.000000 0.000000 0.000000 0.006419
#
#
# Mechanical properties :
#
#
# Convention : Reuss Voigt Hill
#
# Bulk Modulus (GPa) = 82.83755 86.40797 84.62276
# Shear Modulus (GPa) = 31.80517 55.15306 43.47912
#
# Velocity S-wave (km/s) = 3.81175 5.01950 4.45672
# Velocity P-wave (km/s) = 7.56405 8.54793 8.07100
#
# Compressibility (1/GPa) = 0.01207182
#
# Stress axis : x y z
#
# Youngs Moduli (GPa) = 114.77036 104.46174 87.09880
#
# Poissons Ratio (x) = 0.35593 0.23843
# Poissons Ratio (y) = 0.39105 0.23542
# Poissons Ratio (z) = 0.31418 0.28235
#
# Static dielectric constant tensor:
#      x y z
#    x 1.808610 0.000000 0.000000 
#    y 0.000000 1.835220 0.000000 
#    z 0.000000 0.000000 1.733280 
# 
# From -- ./inp_files/23642.got.cif
#   From: 2010.05.17/outbox.cif.g08.bks.cpg/sg22_12_cif.got.tgz:23642.got - 2010.06.03 23:40:54.
