data_PCOD9329610
_publ_section_title
;
Structure prediction by ZEFSAII (Michael W. Deem and Ramdas Pophale) SiO2 
 PCOD9329610
Probable space group: I 2 2 2
;
_chemical_formula_sum "Si O2"
_cell_formula_units_Z 56
_cell_length_a 12.259517
_cell_length_b 12.076235
_cell_length_c 20.121027
_cell_angle_alpha 90.000000
_cell_angle_beta 90.000000
_cell_angle_gamma 90.000000
_cell_volume 2978.894069
_symmetry_space_group_name_H-M "I 2 2 2"
_symmetry_group_IT_number 23
_symmetry_cell_setting 'orthorhombic'
loop_
_space_group_symop_operation_xyz
x,y,z
-x,-y,z
x,-y,-z
-x,y,-z
1/2+x,1/2+y,1/2+z
1/2-x,1/2-y,1/2+z
1/2+x,1/2-y,1/2-z
1/2-x,1/2+y,1/2-z
loop_
_atom_site_type_symbol
_atom_site_label
_atom_site_fract_x
_atom_site_fract_y
_atom_site_fract_z
Si Si1 0.931617 0.841596 0.563835
Si Si2 0.812087 0.404264 0.898430
Si Si3 0.153583 0.374390 0.493499
Si Si4 0.618621 0.288480 0.497430
Si Si5 0.043943 0.623383 0.774183
Si Si6 0.152675 0.345766 0.870303
Si Si7 0.884752 0.244759 0.644989
O O1 0.816378 0.897029 0.582645
O O2 0.901067 0.715068 0.542776
O O3 0.000000 0.883780 0.500000
O O4 0.018064 0.836819 0.622873
O O5 0.851215 0.376709 0.823461
O O6 0.850613 0.531426 0.902734
O O7 0.871243 0.314997 0.946090
O O8 0.116556 0.500000 0.500000
O O9 0.280498 0.368614 0.514089
O O10 0.136850 0.324289 0.419373
O O11 0.500000 0.340365 0.500000
O O12 0.636271 0.237024 0.569616
O O13 0.075799 0.686778 0.708005
O O14 0.000000 0.500000 0.758598
O O15 0.942212 0.670458 0.816623
O O16 0.273241 0.322066 0.842173
#
# Coordination Sequence:
#
# PCOD9329610 Si02
#       7
#     8   8   8   8   8   8   8
#     4   9  20  36  57  85 111 148 186 231 291 332
#     4  10  20  36  57  85 115 144 186 226 288 343
#     4   9  20  36  55  83 110 142 193 237 279 327
#     4  10  18  33  57  83 113 144 177 234 284 329
#     4  10  22  36  56  83 109 152 192 229 277 341
#     4  10  21  37  56  86 112 144 189 227 278 343
#     4  10  22  36  56  81 113 148 184 234 279 331
#
# _framework density 18.798922999999998
#
# number of rings (size 3 to 8) (size 9 to 14) (size 15 to 20)
#    0.000    2.286    1.429    1.286    4.000    3.429 
#    0.000    3.571    0.000    0.000    0.000    0.000 
#    0.000    0.000    0.000    0.000    0.000    0.000 
#
# Total GULP energy -156056.471114 kJ/mol
# GULP energy per Si atom -5573.445397 kJ/mol
# Density = 1.875614 g / cm^3
# Si number density = 18.798923 Si / 1000 Ang^3
#
#
#
# Elastic Constant Matrix: (Units=GPa)
#
#
# Indices 1 2 3 4 5 6 
#
# 1 139.9805 8.9512 23.5271 0.0000 0.0000 0.0000
# 2 8.9512 48.6183 -2.2051 0.0000 0.0000 0.0000
# 3 23.5271 -2.2051 55.5447 0.0000 0.0000 0.0000
# 4 0.0000 0.0000 0.0000 7.0610 0.0000 0.0000
# 5 0.0000 0.0000 0.0000 0.0000 22.5080 0.0000
# 6 0.0000 0.0000 0.0000 0.0000 0.0000 6.5896
#
#
#
# Elastic Compliance Matrix: (Units=1/GPa)
#
#
# Indices 1 2 3 4 5 6 
#
# 1 0.007812 -0.001591 -0.003372 0.000000 0.000000 0.000000
# 2 -0.001591 0.020930 0.001505 0.000000 0.000000 0.000000
# 3 -0.003372 0.001505 0.019492 0.000000 0.000000 0.000000
# 4 0.000000 0.000000 0.000000 0.141623 0.000000 0.000000
# 5 0.000000 0.000000 0.000000 0.000000 0.044429 0.000000
# 6 0.000000 0.000000 0.000000 0.000000 0.000000 0.151754
#
#
# Mechanical properties :
#
#
# Convention : Reuss Voigt Hill
#
# Bulk Modulus (GPa) = 24.20350 33.85444 29.02897
# Shear Modulus (GPa) = 12.29321 21.48974 16.89148
#
# Velocity S-wave (km/s) = 2.55998 3.38470 3.00081
# Velocity P-wave (km/s) = 4.65198 5.77258 5.24231
#
# Compressibility (1/GPa) = 0.04131635
#
# Stress axis : x y z
#
# Youngs Moduli (GPa) = 128.00162 47.77919 51.30399
#
# Poissons Ratio (x) = 0.07603 0.17301
# Poissons Ratio (y) = 0.20369 -0.07721
# Poissons Ratio (z) = 0.43166 -0.07190
#
# Static dielectric constant tensor:
#      x y z
#    x 1.719420 0.000000 0.000000 
#    y 0.000000 1.646690 0.000000 
#    z 0.000000 0.000000 1.623400 
# 
# From -- ./inp_files/26705.got.cif
#   From: 2010.05.17/outbox.cif.g08.bks.cpg/sg23_14_cif.got.tgz:26705.got - 2010.06.04 12:02:01.
