data_PCOD9329472
_publ_section_title
;
Structure prediction by ZEFSAII (Michael W. Deem and Ramdas Pophale) SiO2 
 PCOD9329472
Probable space group: I 2 2 2
;
_chemical_formula_sum "Si O2"
_cell_formula_units_Z 48
_cell_length_a 17.275120
_cell_length_b 11.590450
_cell_length_c 11.536230
_cell_angle_alpha 90.000000
_cell_angle_beta 90.000000
_cell_angle_gamma 90.000000
_cell_volume 2309.857971
_symmetry_space_group_name_H-M "I 2 2 2"
_symmetry_group_IT_number 23
_symmetry_cell_setting 'orthorhombic'
loop_
_space_group_symop_operation_xyz
x,y,z
-x,-y,z
x,-y,-z
-x,y,-z
1/2+x,1/2+y,1/2+z
1/2-x,1/2-y,1/2+z
1/2+x,1/2-y,1/2-z
1/2-x,1/2+y,1/2-z
loop_
_atom_site_type_symbol
_atom_site_label
_atom_site_fract_x
_atom_site_fract_y
_atom_site_fract_z
Si Si1 0.178466 0.404037 0.410488
Si Si2 0.796542 0.729085 0.014499
Si Si3 0.730573 0.603753 0.698282
Si Si4 0.821064 0.953092 0.613296
Si Si5 0.515831 0.864076 0.864109
Si Si6 0.378489 0.752569 0.729689
O O1 0.145076 0.500000 0.500000
O O2 0.221246 0.297878 0.467952
O O3 0.246007 0.479154 0.352899
O O4 0.107227 0.355853 0.338896
O O5 0.821522 0.815472 0.118154
O O6 0.758614 0.612997 0.070066
O O7 0.857906 0.733486 0.907960
O O8 0.697485 0.571075 0.820776
O O9 0.811986 0.667038 0.715225
O O10 0.864074 0.868826 0.703681
O O11 0.864620 0.000000 0.500000
O O12 0.460590 0.798557 0.774678
O O13 0.500000 0.000000 0.852795
O O14 0.500000 0.829792 0.000000
#
# Coordination Sequence:
#
# PCOD9329472 Si02
#       6
#     8   8   8   8   8   8
#     4  10  17  33  57  83 121 163 200 257 321 386
#     4  10  21  34  56  89 121 165 217 258 329 397
#     4  10  19  33  54  85 120 164 206 256 326 386
#     4  11  21  34  53  85 127 159 208 277 319 386
#     4  11  18  31  54  88 127 159 203 265 326 390
#     4  11  21  34  56  91 124 165 211 271 332 390
#
# _framework density 20.780497
#
# number of rings (size 3 to 8) (size 9 to 14) (size 15 to 20)
#    0.000    1.500    6.667    2.000    0.000    0.000 
#    0.000    0.000    0.000    5.500    0.000    0.000 
#    0.000    6.333    0.667    0.000    0.000    0.000 
#
# Total GULP energy -133621.871017 kJ/mol
# GULP energy per Si atom -5567.577959 kJ/mol
# Density = 2.073320 g / cm^3
# Si number density = 20.780497 Si / 1000 Ang^3
#
#
#
# Elastic Constant Matrix: (Units=GPa)
#
#
# Indices 1 2 3 4 5 6 
#
# 1 48.3633 17.6698 30.0371 0.0000 0.0000 0.0000
# 2 17.6698 78.1110 38.8238 0.0000 0.0000 0.0000
# 3 30.0371 38.8238 125.0037 0.0000 0.0000 0.0000
# 4 0.0000 0.0000 0.0000 43.5159 0.0000 0.0000
# 5 0.0000 0.0000 0.0000 0.0000 22.5353 0.0000
# 6 0.0000 0.0000 0.0000 0.0000 0.0000 18.1083
#
#
#
# Elastic Compliance Matrix: (Units=1/GPa)
#
#
# Indices 1 2 3 4 5 6 
#
# 1 0.024942 -0.003150 -0.005015 0.000000 0.000000 0.000000
# 2 -0.003150 0.015537 -0.004069 0.000000 0.000000 0.000000
# 3 -0.005015 -0.004069 0.010469 0.000000 0.000000 0.000000
# 4 0.000000 0.000000 0.000000 0.022980 0.000000 0.000000
# 5 0.000000 0.000000 0.000000 0.000000 0.044375 0.000000
# 6 0.000000 0.000000 0.000000 0.000000 0.000000 0.055223
#
#
# Mechanical properties :
#
#
# Convention : Reuss Voigt Hill
#
# Bulk Modulus (GPa) = 37.76297 47.17103 42.46700
# Shear Modulus (GPa) = 24.17559 27.82838 26.00198
#
# Velocity S-wave (km/s) = 3.41453 3.66342 3.54117
# Velocity P-wave (km/s) = 5.81009 6.37520 6.09919
#
# Compressibility (1/GPa) = 0.02648097
#
# Stress axis : x y z
#
# Youngs Moduli (GPa) = 40.09245 64.36223 95.52448
#
# Poissons Ratio (x) = 0.20272 0.47907
# Poissons Ratio (y) = 0.12628 0.38866
# Poissons Ratio (z) = 0.20107 0.26187
#
# Static dielectric constant tensor:
#      x y z
#    x 1.764630 0.000000 0.000000 
#    y 0.000000 1.757290 0.000000 
#    z 0.000000 0.000000 1.925500 
# 
# From -- ./inp_files/15737.got.cif
#   From: 2010.05.17/outbox.cif.g08.bks.cpg/sg23_8_cif.got.tgz:15737.got - 2010.06.04 12:02:01.
