data_PCOD9329263
_publ_section_title
;
Structure prediction by ZEFSAII (Michael W. Deem and Ramdas Pophale) SiO2 
 PCOD9329263
Probable space group: F 2 2 2
;
_chemical_formula_sum "Si O2"
_cell_formula_units_Z 56
_cell_length_a 16.993087
_cell_length_b 15.296230
_cell_length_c 8.275349
_cell_angle_alpha 90.000000
_cell_angle_beta 90.000000
_cell_angle_gamma 90.000000
_cell_volume 2151.012849
_symmetry_space_group_name_H-M "F 2 2 2"
_symmetry_group_IT_number 22
_symmetry_cell_setting 'orthorhombic'
loop_
_space_group_symop_operation_xyz
x,y,z
-x,-y,z
x,-y,-z
-x,y,-z
x,1/2+y,1/2+z
-x,1/2-y,1/2+z
x,1/2-y,1/2-z
-x,1/2+y,1/2-z
1/2+x,y,1/2+z
1/2-x,-y,1/2+z
1/2+x,-y,1/2-z
1/2-x,y,1/2-z
1/2+x,1/2+y,z
1/2-x,1/2-y,z
1/2+x,1/2-y,-z
1/2-x,1/2+y,-z
loop_
_atom_site_type_symbol
_atom_site_label
_atom_site_fract_x
_atom_site_fract_y
_atom_site_fract_z
Si Si1 0.574988 0.555666 0.726520
Si Si2 0.120735 0.750000 0.750000
Si Si3 0.500000 0.824289 0.500000
Si Si4 0.322237 0.000000 0.500000
Si Si5 0.204471 0.840955 0.485566
O O1 0.500000 0.500000 0.664162
O O2 0.541296 0.619819 0.862473
O O3 0.627244 0.491424 0.836922
O O4 0.630283 0.614859 0.611117
O O5 0.065744 0.773119 0.901273
O O6 0.174284 0.822475 0.666091
O O7 0.269570 0.084733 0.523422
O O8 0.250000 0.750000 0.434557
#
# Coordination Sequence:
#
# PCOD9329263 Si02
#       5
#    16   8   8   8  16
#     4  12  27  53  89 127 176 237 300 373 453 545
#     4  12  29  52  82 130 175 234 296 378 455 550
#     4  12  25  50  84 117 176 230 290 383 446 547
#     4  12  27  52  89 130 176 236 300 368 461 546
#     4  12  31  54  92 130 182 237 307 371 461 551
#
# _framework density 26.034248000000002
#
# number of rings (size 3 to 8) (size 9 to 14) (size 15 to 20)
#    0.000    0.000    2.857    4.714    4.000   11.429 
#    0.000    0.000    0.000    0.000    0.000    0.000 
#    0.000    0.000    0.000    0.000    0.000    0.000 
#
# Total GULP energy -78428.103996 kJ/mol
# GULP energy per Si atom -5602.007428 kJ/mol
# Density = 2.597499 g / cm^3
# Si number density = 26.034248 Si / 1000 Ang^3
#
#
#
# Elastic Constant Matrix: (Units=GPa)
#
#
# Indices 1 2 3 4 5 6 
#
# 1 210.8234 106.9660 104.9655 0.0000 0.0000 0.0000
# 2 106.9660 165.5472 69.9845 0.0000 0.0000 0.0000
# 3 104.9655 69.9845 169.5623 0.0000 0.0000 0.0000
# 4 0.0000 0.0000 0.0000 46.7007 0.0000 0.0000
# 5 0.0000 0.0000 0.0000 0.0000 28.9179 0.0000
# 6 0.0000 0.0000 0.0000 0.0000 0.0000 53.2311
#
#
#
# Elastic Compliance Matrix: (Units=1/GPa)
#
#
# Indices 1 2 3 4 5 6 
#
# 1 0.008605 -0.004007 -0.003673 0.000000 0.000000 0.000000
# 2 -0.004007 0.009184 -0.001310 0.000000 0.000000 0.000000
# 3 -0.003673 -0.001310 0.008712 0.000000 0.000000 0.000000
# 4 0.000000 0.000000 0.000000 0.021413 0.000000 0.000000
# 5 0.000000 0.000000 0.000000 0.000000 0.034581 0.000000
# 6 0.000000 0.000000 0.000000 0.000000 0.000000 0.018786
#
#
# Mechanical properties :
#
#
# Convention : Reuss Voigt Hill
#
# Bulk Modulus (GPa) = 117.36366 123.30721 120.33543
# Shear Modulus (GPa) = 40.94984 43.37105 42.16045
#
# Velocity S-wave (km/s) = 3.97031 4.08600 4.02857
# Velocity P-wave (km/s) = 8.13610 8.35026 8.24388
#
# Compressibility (1/GPa) = 0.00852053
#
# Stress axis : x y z
#
# Youngs Moduli (GPa) = 116.20754 108.89009 114.78706
#
# Poissons Ratio (x) = 0.43637 0.42161
# Poissons Ratio (y) = 0.46570 0.15033
# Poissons Ratio (z) = 0.42683 0.14261
#
# Static dielectric constant tensor:
#      x y z
#    x 2.172230 0.000000 0.000000 
#    y 0.000000 2.252550 0.000000 
#    z 0.000000 0.000000 1.988530 
# 
# From -- ./inp_files/12130.got.cif
#   From: 2010.05.17/outbox.cif.g08.bks.cpg/sg22_7_cif.got.tgz:12130.got - 2010.06.03 23:40:54.
