data_PCOD9329271
_publ_section_title
;
Structure prediction by ZEFSAII (Michael W. Deem and Ramdas Pophale) SiO2 
 PCOD9329271
Probable space group: F 2 2 2
;
_chemical_formula_sum "Si O2"
_cell_formula_units_Z 60
_cell_length_a 11.402640
_cell_length_b 15.712351
_cell_length_c 14.362555
_cell_angle_alpha 90.000000
_cell_angle_beta 90.000000
_cell_angle_gamma 90.000000
_cell_volume 2573.228129
_symmetry_space_group_name_H-M "F 2 2 2"
_symmetry_group_IT_number 22
_symmetry_cell_setting 'orthorhombic'
loop_
_space_group_symop_operation_xyz
x,y,z
-x,-y,z
x,-y,-z
-x,y,-z
x,1/2+y,1/2+z
-x,1/2-y,1/2+z
x,1/2-y,1/2-z
-x,1/2+y,1/2-z
1/2+x,y,1/2+z
1/2-x,-y,1/2+z
1/2+x,-y,1/2-z
1/2-x,y,1/2-z
1/2+x,1/2+y,z
1/2-x,1/2-y,z
1/2+x,1/2-y,-z
1/2-x,1/2+y,-z
loop_
_atom_site_type_symbol
_atom_site_label
_atom_site_fract_x
_atom_site_fract_y
_atom_site_fract_z
Si Si1 0.500000 0.696604 0.500000
Si Si2 0.504574 0.845680 0.211586
Si Si3 0.500000 0.000000 0.500000
Si Si4 0.250000 0.570258 0.750000
Si Si5 0.250000 0.750000 0.055468
Si Si6 0.169571 0.580314 0.355887
O O1 0.500974 0.649844 0.599765
O O2 0.626537 0.744819 0.500192
O O3 0.484901 0.750000 0.250000
O O4 0.633177 0.875050 0.243289
O O5 0.408638 0.902246 0.264478
O O6 0.420230 0.940432 0.437181
O O7 0.239884 0.506247 0.662358
O O8 0.238993 0.834832 0.117659
#
# Coordination Sequence:
#
# PCOD9329271 Si02
#       6
#     8  16   4   8   8  16
#     4  12  29  46  85 112 158 204 268 315 390 471
#     4  12  27  51  74 115 158 208 263 322 396 469
#     4  12  26  52  80 114 156 214 260 324 404 474
#     4  12  27  47  76 114 158 204 254 343 383 456
#     4  12  28  51  83 120 152 216 263 324 389 486
#     4  12  27  51  78 112 159 206 265 321 398 471
#
# _framework density 23.317015000000001
#
# number of rings (size 3 to 8) (size 9 to 14) (size 15 to 20)
#    0.000    0.000    5.333    2.800    7.467    1.067 
#    0.000    5.333    0.000    0.000    0.000    0.000 
#    0.000    0.000    0.000    0.000    0.000    0.000 
#
# Total GULP energy -83945.456063 kJ/mol
# GULP energy per Si atom -5596.363738 kJ/mol
# Density = 2.326394 g / cm^3
# Si number density = 23.317015 Si / 1000 Ang^3
#
#
#
# Elastic Constant Matrix: (Units=GPa)
#
#
# Indices 1 2 3 4 5 6 
#
# 1 138.7196 14.2084 18.7417 0.0000 0.0000 0.0000
# 2 14.2084 62.6398 22.3061 0.0000 0.0000 0.0000
# 3 18.7417 22.3061 136.8261 0.0000 0.0000 0.0000
# 4 0.0000 0.0000 0.0000 19.0047 0.0000 0.0000
# 5 0.0000 0.0000 0.0000 0.0000 47.1487 0.0000
# 6 0.0000 0.0000 0.0000 0.0000 0.0000 49.0974
#
#
#
# Elastic Compliance Matrix: (Units=1/GPa)
#
#
# Indices 1 2 3 4 5 6 
#
# 1 0.007460 -0.001410 -0.000792 0.000000 0.000000 0.000000
# 2 -0.001410 0.017215 -0.002613 0.000000 0.000000 0.000000
# 3 -0.000792 -0.002613 0.007843 0.000000 0.000000 0.000000
# 4 0.000000 0.000000 0.000000 0.052619 0.000000 0.000000
# 5 0.000000 0.000000 0.000000 0.000000 0.021210 0.000000
# 6 0.000000 0.000000 0.000000 0.000000 0.000000 0.020368
#
#
# Mechanical properties :
#
#
# Convention : Reuss Voigt Hill
#
# Bulk Modulus (GPa) = 43.69254 49.85533 46.77393
# Shear Modulus (GPa) = 34.72859 41.91211 38.32035
#
# Velocity S-wave (km/s) = 3.86347 4.24428 4.05835
# Velocity P-wave (km/s) = 6.21941 6.74140 6.48566
#
# Compressibility (1/GPa) = 0.02288720
#
# Stress axis : x y z
#
# Youngs Moduli (GPa) = 134.04422 58.08974 127.50128
#
# Poissons Ratio (x) = 0.08192 0.10098
# Poissons Ratio (y) = 0.18902 0.33320
# Poissons Ratio (z) = 0.10616 0.15180
#
# Static dielectric constant tensor:
#      x y z
#    x 1.932710 0.000000 0.000000 
#    y 0.000000 1.847930 0.000000 
#    z 0.000000 0.000000 1.879010 
# 
# From -- ./inp_files/19330.got.cif
#   From: 2010.05.17/outbox.cif.g08.bks.cpg/sg22_10_cif.got.tgz:19330.got - 2010.06.03 23:40:54.
