data_PCOD9329024
_publ_section_title
;
Structure prediction by ZEFSAII (Michael W. Deem and Ramdas Pophale) SiO2 
 PCOD9329024
Probable space group: F 2 2 2
;
_chemical_formula_sum "Si O2"
_cell_formula_units_Z 116
_cell_length_a 10.296712
_cell_length_b 18.622172
_cell_length_c 30.888939
_cell_angle_alpha 90.000000
_cell_angle_beta 90.000000
_cell_angle_gamma 90.000000
_cell_volume 5922.865770
_symmetry_space_group_name_H-M "F 2 2 2"
_symmetry_group_IT_number 22
_symmetry_cell_setting 'orthorhombic'
loop_
_space_group_symop_operation_xyz
x,y,z
-x,-y,z
x,-y,-z
-x,y,-z
x,1/2+y,1/2+z
-x,1/2-y,1/2+z
x,1/2-y,1/2-z
-x,1/2+y,1/2-z
1/2+x,y,1/2+z
1/2-x,-y,1/2+z
1/2+x,-y,1/2-z
1/2-x,y,1/2-z
1/2+x,1/2+y,z
1/2-x,1/2-y,z
1/2+x,1/2-y,-z
1/2-x,1/2+y,-z
loop_
_atom_site_type_symbol
_atom_site_label
_atom_site_fract_x
_atom_site_fract_y
_atom_site_fract_z
Si Si1 0.750000 0.250000 0.750000
Si Si2 0.013591 0.586256 0.224331
Si Si3 0.705814 0.409532 0.653164
Si Si4 0.938533 0.163441 0.808791
Si Si5 0.993128 0.082744 0.418786
Si Si6 0.620137 0.204167 0.371237
Si Si7 0.720332 0.423704 0.342916
Si Si8 0.595264 0.267847 0.461083
O O1 0.839288 0.202551 0.778792
O O2 0.894728 0.610678 0.192380
O O3 0.009152 0.612520 0.273800
O O4 0.000000 0.500000 0.224332
O O5 0.148471 0.604705 0.200111
O O6 0.844366 0.371112 0.655314
O O7 0.627236 0.402022 0.607801
O O8 0.743059 0.492326 0.662070
O O9 0.026161 0.222116 0.832289
O O10 0.887517 0.080541 0.380529
O O11 0.942377 0.148621 0.448843
O O12 0.000000 0.000000 0.436775
O O13 0.750000 0.250000 0.368774
O O14 0.659543 0.122644 0.359883
O O15 0.564536 0.221478 0.418088
O O16 0.500000 0.247644 0.500000
O O17 0.750000 0.250000 0.469699
#
# Coordination Sequence:
#
# PCOD9329024 Si02
#       8
#     4  16  16  16  16  16  16  16
#     4  12  28  40  50  80 132 168 214 282 320 360
#     4   9  19  36  57  84 120 163 218 266 302 348
#     4   9  19  36  61  89 119 166 218 261 311 359
#     4  12  25  37  56  82 128 171 217 273 314 371
#     4   9  18  38  69  96 124 167 215 260 310 395
#     4  11  25  41  62  86 124 166 208 255 326 403
#     4   9  18  38  63  87 122 165 212 262 304 374
#     4  11  24  44  70 100 133 162 211 272 340 411
#
# _framework density 19.585113
#
# number of rings (size 3 to 8) (size 9 to 14) (size 15 to 20)
#    0.000    1.931    4.138    1.655    5.793    1.931 
#    0.000    0.000    0.000    0.000    0.000    0.000 
#    0.000    0.000    0.000    0.000    0.000    0.000 
#
# Total GULP energy -161503.347555 kJ/mol
# GULP energy per Si atom -5569.080950 kJ/mol
# Density = 1.954054 g / cm^3
# Si number density = 19.585113 Si / 1000 Ang^3
#
#
#
# Elastic Constant Matrix: (Units=GPa)
#
#
# Indices 1 2 3 4 5 6 
#
# 1 50.7961 26.7682 51.4937 0.0000 0.0000 0.0000
# 2 26.7682 64.6676 38.1736 0.0000 0.0000 0.0000
# 3 51.4937 38.1736 92.9955 0.0000 0.0000 0.0000
# 4 0.0000 0.0000 0.0000 21.2307 0.0000 0.0000
# 5 0.0000 0.0000 0.0000 0.0000 32.8701 0.0000
# 6 0.0000 0.0000 0.0000 0.0000 0.0000 39.0971
#
#
#
# Elastic Compliance Matrix: (Units=1/GPa)
#
#
# Indices 1 2 3 4 5 6 
#
# 1 0.046220 -0.005311 -0.023413 0.000000 0.000000 0.000000
# 2 -0.005311 0.021019 -0.005687 0.000000 0.000000 0.000000
# 3 -0.023413 -0.005687 0.026052 0.000000 0.000000 0.000000
# 4 0.000000 0.000000 0.000000 0.047102 0.000000 0.000000
# 5 0.000000 0.000000 0.000000 0.000000 0.030423 0.000000
# 6 0.000000 0.000000 0.000000 0.000000 0.000000 0.025577
#
#
# Mechanical properties :
#
#
# Convention : Reuss Voigt Hill
#
# Bulk Modulus (GPa) = 40.86879 49.03668 44.95274
# Shear Modulus (GPa) = 18.29015 24.77449 21.53232
#
# Velocity S-wave (km/s) = 3.05926 3.56049 3.31935
# Velocity P-wave (km/s) = 5.77852 6.48035 6.13947
#
# Compressibility (1/GPa) = 0.02446855
#
# Stress axis : x y z
#
# Youngs Moduli (GPa) = 21.63584 47.57505 38.38495
#
# Poissons Ratio (x) = 0.25269 0.89869
# Poissons Ratio (y) = 0.11491 0.21830
# Poissons Ratio (z) = 0.50655 0.27057
#
# Static dielectric constant tensor:
#      x y z
#    x 1.746830 0.000000 0.000000 
#    y 0.000000 1.768020 0.000000 
#    z 0.000000 0.000000 1.660100 
# 
# From -- ./inp_files/52740.got.cif
#   From: 2010.05.17/outbox.cif.g08.bks.cpg/sg22_27_cif.got.tgz:52740.got - 2010.06.03 23:40:54.
