data_PCOD9329838
_publ_section_title
;
Structure prediction by ZEFSAII (Michael W. Deem and Ramdas Pophale) SiO2 
 PCOD9329838
Probable space group: I 2 2 2
;
_chemical_formula_sum "Si O2"
_cell_formula_units_Z 64
_cell_length_a 18.370391
_cell_length_b 8.555920
_cell_length_c 21.780751
_cell_angle_alpha 90.000000
_cell_angle_beta 90.000000
_cell_angle_gamma 90.000000
_cell_volume 3423.402515
_symmetry_space_group_name_H-M "I 2 2 2"
_symmetry_group_IT_number 23
_symmetry_cell_setting 'orthorhombic'
loop_
_space_group_symop_operation_xyz
x,y,z
-x,-y,z
x,-y,-z
-x,y,-z
1/2+x,1/2+y,1/2+z
1/2-x,1/2-y,1/2+z
1/2+x,1/2-y,1/2-z
1/2-x,1/2+y,1/2-z
loop_
_atom_site_type_symbol
_atom_site_label
_atom_site_fract_x
_atom_site_fract_y
_atom_site_fract_z
Si Si1 0.708843 0.257467 0.135639
Si Si2 0.381909 0.718889 0.263891
Si Si3 0.359674 0.280940 0.134938
Si Si4 0.242316 0.068275 0.179605
Si Si5 0.036534 0.327265 0.746437
Si Si6 0.831537 0.548354 0.807382
Si Si7 0.979910 0.334383 0.429542
Si Si8 0.097935 0.084964 0.433233
O O1 0.655473 0.266291 0.196269
O O2 0.774734 0.381234 0.144248
O O3 0.661680 0.287250 0.074725
O O4 0.741029 0.083742 0.140189
O O5 0.340825 0.581568 0.299532
O O6 0.468162 0.715518 0.257267
O O7 0.360676 0.871605 0.304565
O O8 0.279450 0.222046 0.149762
O O9 0.415060 0.230199 0.189126
O O10 0.394559 0.187418 0.078376
O O11 0.373472 0.457863 0.115887
O O12 0.286546 0.057157 0.243527
O O13 0.095868 0.347226 0.800171
O O14 0.000000 0.500000 0.736667
O O15 0.025464 0.178279 0.411926
O O16 0.000000 0.500000 0.399757
O O17 0.000000 0.343841 0.500000
O O18 0.090393 0.000000 0.500000
#
# Coordination Sequence:
#
# PCOD9329838 Si02
#       8
#     8   8   8   8   8   8   8   8
#     4  10  19  33  49  67 100 136 172 214 258 299
#     4   9  16  30  49  74  99 132 169 207 252 309
#     4  11  20  33  51  70 100 135 173 213 252 300
#     4   9  18  31  50  73  98 133 176 208 256 310
#     4   9  17  30  51  79 108 137 171 205 256 317
#     4   8  16  30  49  72 101 133 168 211 251 307
#     4  11  22  36  51  66  94 133 171 213 256 289
#     4  12  24  37  50  72  99 135 183 225 254 295
#
# _framework density 18.694852000000001
#
# number of rings (size 3 to 8) (size 9 to 14) (size 15 to 20)
#    0.000    2.125    1.250    3.750    0.000    3.000 
#    0.000    1.875    0.000    0.000    0.000    0.000 
#    0.000   12.500    0.000    9.000    0.000    0.500 
#
# Total GULP energy -178187.335465 kJ/mol
# GULP energy per Si atom -5568.354233 kJ/mol
# Density = 1.865230 g / cm^3
# Si number density = 18.694852 Si / 1000 Ang^3
#
#
#
# Elastic Constant Matrix: (Units=GPa)
#
#
# Indices 1 2 3 4 5 6 
#
# 1 97.4609 3.2646 24.9290 0.0000 0.0000 0.0000
# 2 3.2646 63.7556 7.6114 0.0000 0.0000 0.0000
# 3 24.9290 7.6114 29.8785 0.0000 0.0000 0.0000
# 4 0.0000 0.0000 0.0000 18.9122 0.0000 0.0000
# 5 0.0000 0.0000 0.0000 0.0000 16.3489 0.0000
# 6 0.0000 0.0000 0.0000 0.0000 0.0000 14.7100
#
#
#
# Elastic Compliance Matrix: (Units=1/GPa)
#
#
# Indices 1 2 3 4 5 6 
#
# 1 0.013071 0.000653 -0.011072 0.000000 0.000000 0.000000
# 2 0.000653 0.016209 -0.004674 0.000000 0.000000 0.000000
# 3 -0.011072 -0.004674 0.043897 0.000000 0.000000 0.000000
# 4 0.000000 0.000000 0.000000 0.052876 0.000000 0.000000
# 5 0.000000 0.000000 0.000000 0.000000 0.061166 0.000000
# 6 0.000000 0.000000 0.000000 0.000000 0.000000 0.067981
#
#
# Mechanical properties :
#
#
# Convention : Reuss Voigt Hill
#
# Bulk Modulus (GPa) = 23.26042 29.18944 26.22493
# Shear Modulus (GPa) = 16.68243 20.34688 18.51465
#
# Velocity S-wave (km/s) = 2.99047 3.30262 3.15041
# Velocity P-wave (km/s) = 4.93893 5.49460 5.22416
#
# Compressibility (1/GPa) = 0.04299148
#
# Stress axis : x y z
#
# Youngs Moduli (GPa) = 76.50733 61.69235 22.78051
#
# Poissons Ratio (x) = -0.04025 0.25222
# Poissons Ratio (y) = -0.04992 0.10647
# Poissons Ratio (z) = 0.84707 0.28833
#
# Static dielectric constant tensor:
#      x y z
#    x 1.701080 0.000000 0.000000 
#    y 0.000000 1.789310 0.000000 
#    z 0.000000 0.000000 1.818090 
# 
# From -- ./inp_files/28657.got.cif
#   From: 2010.05.17/outbox.cif.g08.bks.cpg/sg23_15_cif.got.tgz:28657.got - 2010.06.04 12:02:01.
