data_PCOD9329818
_publ_section_title
;
Structure prediction by ZEFSAII (Michael W. Deem and Ramdas Pophale) SiO2 
 PCOD9329818
Probable space group: I 2 2 2
;
_chemical_formula_sum "Si O2"
_cell_formula_units_Z 56
_cell_length_a 7.295470
_cell_length_b 19.312803
_cell_length_c 21.453145
_cell_angle_alpha 90.000000
_cell_angle_beta 90.000000
_cell_angle_gamma 90.000000
_cell_volume 3022.661779
_symmetry_space_group_name_H-M "I 2 2 2"
_symmetry_group_IT_number 23
_symmetry_cell_setting 'orthorhombic'
loop_
_space_group_symop_operation_xyz
x,y,z
-x,-y,z
x,-y,-z
-x,y,-z
1/2+x,1/2+y,1/2+z
1/2-x,1/2-y,1/2+z
1/2+x,1/2-y,1/2-z
1/2-x,1/2+y,1/2-z
loop_
_atom_site_type_symbol
_atom_site_label
_atom_site_fract_x
_atom_site_fract_y
_atom_site_fract_z
Si Si1 0.367035 0.752914 0.950885
Si Si2 0.500000 0.885229 0.000000
Si Si3 0.694690 0.128293 0.261499
Si Si4 0.120697 0.837627 0.756967
Si Si5 0.333585 0.773362 0.153216
Si Si6 0.000000 0.500000 0.603578
Si Si7 0.557427 0.233505 0.364707
Si Si8 0.718396 0.485679 0.286759
O O1 0.494863 0.762089 0.890334
O O2 0.181172 0.721879 0.925265
O O3 0.500000 0.714246 0.000000
O O4 0.343254 0.829476 0.981308
O O5 0.463908 0.934599 0.058404
O O6 0.639694 0.156660 0.192800
O O7 0.589068 0.168777 0.316634
O O8 0.910298 0.148937 0.263153
O O9 0.696389 0.045417 0.257081
O O10 0.190764 0.782888 0.707711
O O11 0.125076 0.799496 0.823477
O O12 0.228423 0.909078 0.758613
O O13 0.145619 0.758735 0.116754
O O14 0.173223 0.487728 0.648397
O O15 0.500000 0.500000 0.295494
#
# Coordination Sequence:
#
# PCOD9329818 Si02
#       8
#     8   4   8   8   8   4   8   8
#     4  10  21  36  50  71 106 140 183 221 257 304
#     4   9  22  36  52  72 102 157 190 216 252 301
#     4   9  18  32  51  78 108 136 170 223 277 323
#     4   9  18  32  51  78 108 136 170 223 277 323
#     4  10  19  32  53  76 102 138 180 223 272 316
#     4  11  20  36  52  72 112 148 185 216 252 314
#     4  10  19  32  53  76 102 138 180 223 272 316
#     4  10  21  33  51  80 112 141 175 213 273 332
#
# _framework density 18.526717000000001
#
# number of rings (size 3 to 8) (size 9 to 14) (size 15 to 20)
#    0.429    1.857    1.429    1.714    4.000    0.571 
#    0.000    2.857    0.000    0.000    0.000    2.000 
#    0.000    2.286    0.000    0.000    0.000    0.000 
#
# Total GULP energy -155968.194816 kJ/mol
# GULP energy per Si atom -5570.292672 kJ/mol
# Density = 1.848455 g / cm^3
# Si number density = 18.526717 Si / 1000 Ang^3
#
#
#
# Elastic Constant Matrix: (Units=GPa)
#
#
# Indices 1 2 3 4 5 6 
#
# 1 53.5975 -2.4262 2.1567 0.0000 0.0000 0.0000
# 2 -2.4262 90.0459 2.9289 0.0000 0.0000 0.0000
# 3 2.1567 2.9289 19.6973 0.0000 0.0000 0.0000
# 4 0.0000 0.0000 0.0000 18.8768 0.0000 0.0000
# 5 0.0000 0.0000 0.0000 0.0000 20.0140 0.0000
# 6 0.0000 0.0000 0.0000 0.0000 0.0000 18.3344
#
#
#
# Elastic Compliance Matrix: (Units=1/GPa)
#
#
# Indices 1 2 3 4 5 6 
#
# 1 0.018770 0.000575 -0.002141 0.000000 0.000000 0.000000
# 2 0.000575 0.011177 -0.001725 0.000000 0.000000 0.000000
# 3 -0.002141 -0.001725 0.051259 0.000000 0.000000 0.000000
# 4 0.000000 0.000000 0.000000 0.052975 0.000000 0.000000
# 5 0.000000 0.000000 0.000000 0.000000 0.049965 0.000000
# 6 0.000000 0.000000 0.000000 0.000000 0.000000 0.054542
#
#
# Mechanical properties :
#
#
# Convention : Reuss Voigt Hill
#
# Bulk Modulus (GPa) = 13.40024 18.73994 16.07009
# Shear Modulus (GPa) = 18.50861 22.15711 20.33286
#
# Velocity S-wave (km/s) = 3.16416 3.46201 3.31643
# Velocity P-wave (km/s) = 4.53849 5.11055 4.83299
#
# Compressibility (1/GPa) = 0.07462555
#
# Stress axis : x y z
#
# Youngs Moduli (GPa) = 53.27711 89.46892 19.50862
#
# Poissons Ratio (x) = -0.05148 0.04176
# Poissons Ratio (y) = -0.03065 0.03365
# Poissons Ratio (z) = 0.11405 0.15433
#
# Static dielectric constant tensor:
#      x y z
#    x 1.725770 0.000000 0.000000 
#    y 0.000000 1.661620 0.000000 
#    z 0.000000 0.000000 1.646460 
# 
# From -- ./inp_files/26408.got.cif
#   From: 2010.05.17/outbox.cif.g08.bks.cpg/sg23_14_cif.got.tgz:26408.got - 2010.06.04 12:02:01.
