data_PCOD9329554
_publ_section_title
;
Structure prediction by ZEFSAII (Michael W. Deem and Ramdas Pophale) SiO2 
 PCOD9329554
Probable space group: I 2 2 2
;
_chemical_formula_sum "Si O2"
_cell_formula_units_Z 48
_cell_length_a 37.697177
_cell_length_b 10.772726
_cell_length_c 4.907927
_cell_angle_alpha 90.000000
_cell_angle_beta 90.000000
_cell_angle_gamma 90.000000
_cell_volume 1993.115824
_symmetry_space_group_name_H-M "I 2 2 2"
_symmetry_group_IT_number 23
_symmetry_cell_setting 'orthorhombic'
loop_
_space_group_symop_operation_xyz
x,y,z
-x,-y,z
x,-y,-z
-x,y,-z
1/2+x,1/2+y,1/2+z
1/2-x,1/2-y,1/2+z
1/2+x,1/2-y,1/2-z
1/2-x,1/2+y,1/2-z
loop_
_atom_site_type_symbol
_atom_site_label
_atom_site_fract_x
_atom_site_fract_y
_atom_site_fract_z
Si Si1 0.524239 0.178322 0.262022
Si Si2 0.745169 0.827821 0.048950
Si Si3 0.095448 0.298075 0.452473
Si Si4 0.831193 0.288591 0.347352
Si Si5 0.924469 0.145642 0.015509
Si Si6 0.821327 0.880334 0.156834
O O1 0.500000 0.123749 0.500000
O O2 0.562282 0.121346 0.164654
O O3 0.538493 0.307692 0.387162
O O4 0.500000 0.189375 0.000000
O O5 0.751902 0.797135 0.734346
O O6 0.704412 0.864707 0.088285
O O7 0.778588 0.901067 0.165917
O O8 0.131411 0.352044 0.577332
O O9 0.103017 0.210507 0.191830
O O10 0.080252 0.208256 0.690641
O O11 0.827395 0.237629 0.042589
O O12 0.830992 0.164847 0.540981
O O13 0.921531 0.000000 0.000000
O O14 0.836990 0.000000 0.000000
#
# Coordination Sequence:
#
# PCOD9329554 Si02
#       6
#     8   8   8   8   8   8
#     4  10  18  32  40  50  67  94 126 162 196 236
#     4   8  16  30  44  59  79 105 134 158 193 243
#     4  10  20  29  39  54  70  94 127 161 196 235
#     4  10  19  31  44  59  82 108 132 167 205 244
#     4  10  20  30  37  51  69  91 123 163 197 233
#     4  10  19  29  45  64  82 105 132 168 204 238
#
# _framework density 24.082894
#
# number of rings (size 3 to 8) (size 9 to 14) (size 15 to 20)
#    1.000    1.333    1.667    2.000    0.000    4.333 
#    3.000    0.000    0.000    0.000    0.000    0.000 
#    0.000    0.000    0.000    0.000    0.000    0.833 
#
# Total GULP energy -133652.044769 kJ/mol
# GULP energy per Si atom -5568.835199 kJ/mol
# Density = 2.402808 g / cm^3
# Si number density = 24.082894 Si / 1000 Ang^3
#
#
#
# Elastic Constant Matrix: (Units=GPa)
#
#
# Indices 1 2 3 4 5 6 
#
# 1 195.9977 4.1434 24.9557 -0.0006 0.0013 -0.0004
# 2 4.1434 46.7106 9.5945 0.0103 0.0037 0.0019
# 3 24.9557 9.5945 142.7477 0.0070 0.0040 -0.0007
# 4 -0.0006 0.0103 0.0070 67.2379 0.0014 -0.0100
# 5 0.0013 0.0037 0.0040 0.0014 42.6148 -0.0005
# 6 -0.0004 0.0019 -0.0007 -0.0100 -0.0005 9.6448
#
#
#
# Elastic Compliance Matrix: (Units=1/GPa)
#
#
# Indices 1 2 3 4 5 6 
#
# 1 0.005222 -0.000280 -0.000894 0.000000 0.000000 0.000000
# 2 -0.000280 0.021723 -0.001411 -0.000003 -0.000002 -0.000004
# 3 -0.000894 -0.001411 0.007257 -0.000001 -0.000001 0.000001
# 4 0.000000 -0.000003 -0.000001 0.014873 0.000000 0.000015
# 5 0.000000 -0.000002 -0.000001 0.000000 0.023466 0.000001
# 6 0.000000 -0.000004 0.000001 0.000015 0.000001 0.103683
#
#
# Mechanical properties :
#
#
# Convention : Reuss Voigt Hill
#
# Bulk Modulus (GPa) = 34.44508 51.42705 42.93606
# Shear Modulus (GPa) = 26.16846 47.01701 36.59273
#
# Velocity S-wave (km/s) = 3.29994 4.42328 3.90224
# Velocity P-wave (km/s) = 5.37152 6.89113 6.17822
#
# Compressibility (1/GPa) = 0.02903172
#
# Stress axis : x y z
#
# Youngs Moduli (GPa) = 191.50283 46.03402 137.80692
#
# Poissons Ratio (x) = 0.01287 0.12322
# Poissons Ratio (y) = 0.05353 0.19447
# Poissons Ratio (z) = 0.17123 0.06496
#
# Static dielectric constant tensor:
#      x y z
#    x 2.045090 0.000000 0.000000 
#    y 0.000000 1.929990 0.000000 
#    z 0.000000 0.000000 1.861160 
# 
# From -- ./inp_files/5408.got.cif
#   From: 2010.05.17/outbox.cif.g08.bks.cpg/sg23_3_cif.got.tgz:5408.got - 2010.06.04 12:02:01.
