data_PCOD9329638
_publ_section_title
;
Structure prediction by ZEFSAII (Michael W. Deem and Ramdas Pophale) SiO2 
 PCOD9329638
Probable space group: I 2 2 2
;
_chemical_formula_sum "Si O2"
_cell_formula_units_Z 64
_cell_length_a 20.411464
_cell_length_b 12.005423
_cell_length_c 13.929975
_cell_angle_alpha 90.000000
_cell_angle_beta 90.000000
_cell_angle_gamma 90.000000
_cell_volume 3413.516127
_symmetry_space_group_name_H-M "I 2 2 2"
_symmetry_group_IT_number 23
_symmetry_cell_setting 'orthorhombic'
loop_
_space_group_symop_operation_xyz
x,y,z
-x,-y,z
x,-y,-z
-x,y,-z
1/2+x,1/2+y,1/2+z
1/2-x,1/2-y,1/2+z
1/2+x,1/2-y,1/2-z
1/2-x,1/2+y,1/2-z
loop_
_atom_site_type_symbol
_atom_site_label
_atom_site_fract_x
_atom_site_fract_y
_atom_site_fract_z
Si Si1 0.593619 0.625290 0.515397
Si Si2 0.198668 0.085272 0.164735
Si Si3 0.291454 0.184809 0.767454
Si Si4 0.155134 0.501526 0.613852
Si Si5 0.353309 0.347206 0.312989
Si Si6 0.664043 0.025789 0.390365
Si Si7 0.912364 0.641061 0.759632
Si Si8 0.531346 0.167031 0.399412
O O1 0.569829 0.500000 0.500000
O O2 0.664753 0.616075 0.564254
O O3 0.606377 0.674615 0.410562
O O4 0.549500 0.703311 0.582107
O O5 0.192078 0.192672 0.231282
O O6 0.274130 0.051978 0.145530
O O7 0.156128 0.979364 0.201047
O O8 0.221677 0.190945 0.819126
O O9 0.287192 0.099516 0.675609
O O10 0.341558 0.124470 0.839264
O O11 0.150841 0.500000 0.500000
O O12 0.097658 0.433533 0.665959
O O13 0.389119 0.266977 0.238453
O O14 0.599125 0.102335 0.390292
O O15 0.683864 0.000000 0.500000
O O16 0.639804 0.915100 0.334861
O O17 0.982271 0.642792 0.812428
O O18 0.500000 0.129595 0.500000
#
# Coordination Sequence:
#
# PCOD9329638 Si02
#       8
#     8   8   8   8   8   8   8   8
#     4  10  20  34  54  84 121 159 195 235 303 379
#     4  10  18  34  56  82 114 155 197 249 303 364
#     4  10  20  34  57  84 114 155 204 252 302 362
#     4  10  21  39  59  81 115 167 208 251 306 363
#     4  10  19  35  51  77 118 152 189 244 301 360
#     4  11  21  35  54  82 119 155 198 249 308 365
#     4  11  22  34  55  81 113 158 201 248 303 368
#     4  12  21  34  54  84 121 161 192 248 308 364
#
# _framework density 18.748996000000002
#
# number of rings (size 3 to 8) (size 9 to 14) (size 15 to 20)
#    0.000    1.500    5.000    2.250    0.000    0.250 
#    0.000    0.000    0.000    6.000    0.000    0.000 
#    0.000    0.000   15.000    0.000    0.000    0.000 
#
# Total GULP energy -178461.964860 kJ/mol
# GULP energy per Si atom -5576.936402 kJ/mol
# Density = 1.870632 g / cm^3
# Si number density = 18.748996 Si / 1000 Ang^3
#
#
#
# Elastic Constant Matrix: (Units=GPa)
#
#
# Indices 1 2 3 4 5 6 
#
# 1 65.1785 14.1698 24.0636 0.0000 0.0000 0.0000
# 2 14.1698 117.6803 42.2260 0.0000 0.0000 0.0000
# 3 24.0636 42.2260 103.7851 0.0000 0.0000 0.0000
# 4 0.0000 0.0000 0.0000 23.4559 0.0000 0.0000
# 5 0.0000 0.0000 0.0000 0.0000 27.0239 0.0000
# 6 0.0000 0.0000 0.0000 0.0000 0.0000 16.1326
#
#
#
# Elastic Compliance Matrix: (Units=1/GPa)
#
#
# Indices 1 2 3 4 5 6 
#
# 1 0.016833 -0.000733 -0.003604 0.000000 0.000000 0.000000
# 2 -0.000733 0.009982 -0.003891 0.000000 0.000000 0.000000
# 3 -0.003604 -0.003891 0.012054 0.000000 0.000000 0.000000
# 4 0.000000 0.000000 0.000000 0.042633 0.000000 0.000000
# 5 0.000000 0.000000 0.000000 0.000000 0.037004 0.000000
# 6 0.000000 0.000000 0.000000 0.000000 0.000000 0.061986
#
#
# Mechanical properties :
#
#
# Convention : Reuss Voigt Hill
#
# Bulk Modulus (GPa) = 44.62145 49.72918 47.17531
# Shear Modulus (GPa) = 24.45928 27.06810 25.76369
#
# Velocity S-wave (km/s) = 3.61579 3.80374 3.71096
# Velocity P-wave (km/s) = 6.42519 6.77292 6.60134
#
# Compressibility (1/GPa) = 0.02241075
#
# Stress axis : x y z
#
# Youngs Moduli (GPa) = 59.40826 100.17841 82.95852
#
# Poissons Ratio (x) = 0.07348 0.29901
# Poissons Ratio (y) = 0.04358 0.32282
# Poissons Ratio (z) = 0.21413 0.38982
#
# Static dielectric constant tensor:
#      x y z
#    x 1.673320 0.000000 0.000000 
#    y 0.000000 1.731430 0.000000 
#    z 0.000000 0.000000 1.663450 
# 
# From -- ./inp_files/18429.got.cif
#   From: 2010.05.17/outbox.cif.g08.bks.cpg/sg23_10_cif.got.tgz:18429.got - 2010.06.04 12:02:01.
