data_PCOD9329009
_publ_section_title
;
Structure prediction by ZEFSAII (Michael W. Deem and Ramdas Pophale) SiO2 
 PCOD9329009
Probable space group: F 2 2 2
;
_chemical_formula_sum "Si O2"
_cell_formula_units_Z 60
_cell_length_a 9.162796
_cell_length_b 24.841365
_cell_length_c 12.212431
_cell_angle_alpha 90.000000
_cell_angle_beta 90.000000
_cell_angle_gamma 90.000000
_cell_volume 2779.749089
_symmetry_space_group_name_H-M "F 2 2 2"
_symmetry_group_IT_number 22
_symmetry_cell_setting 'orthorhombic'
loop_
_space_group_symop_operation_xyz
x,y,z
-x,-y,z
x,-y,-z
-x,y,-z
x,1/2+y,1/2+z
-x,1/2-y,1/2+z
x,1/2-y,1/2-z
-x,1/2+y,1/2-z
1/2+x,y,1/2+z
1/2-x,-y,1/2+z
1/2+x,-y,1/2-z
1/2-x,y,1/2-z
1/2+x,1/2+y,z
1/2-x,1/2-y,z
1/2+x,1/2-y,-z
1/2-x,1/2+y,-z
loop_
_atom_site_type_symbol
_atom_site_label
_atom_site_fract_x
_atom_site_fract_y
_atom_site_fract_z
Si Si1 0.533770 0.164895 0.678104
Si Si2 0.584264 0.555666 0.288084
Si Si3 0.750000 0.250000 0.750000
Si Si4 0.000000 0.882818 0.500000
Si Si5 0.774618 0.311740 0.467135
O O1 0.516478 0.104380 0.718091
O O2 0.621813 0.202855 0.762780
O O3 0.636488 0.164469 0.570024
O O4 0.379512 0.187598 0.637736
O O5 0.500000 0.500000 0.277029
O O6 0.750000 0.549134 0.250000
O O7 0.572702 0.578781 0.410353
O O8 0.126128 0.844309 0.451535
O O9 0.750000 0.250000 0.501518
#
# Coordination Sequence:
#
# PCOD9329009 Si02
#       5
#    16  16   4   8  16
#     4  11  24  44  73 105 148 190 243 300 373 435
#     4  12  28  51  74 104 144 198 249 311 367 442
#     4  12  20  44  70 100 148 198 226 310 368 434
#     4  12  25  50  74 104 150 188 253 304 380 436
#     4  11  24  42  70 113 147 191 235 304 371 458
#
# _framework density 21.584682000000001
#
# number of rings (size 3 to 8) (size 9 to 14) (size 15 to 20)
#    0.000    0.533    5.333    2.000    7.467    0.000 
#    0.000    2.667    0.000    0.000    0.000    0.000 
#    0.000    0.000    0.000    0.000    0.000    0.000 
#
# Total GULP energy -83705.680332 kJ/mol
# GULP energy per Si atom -5580.378689 kJ/mol
# Density = 2.153555 g / cm^3
# Si number density = 21.584682 Si / 1000 Ang^3
#
#
#
# Elastic Constant Matrix: (Units=GPa)
#
#
# Indices 1 2 3 4 5 6 
#
# 1 128.0719 31.3414 38.8408 0.0000 0.0000 0.0000
# 2 31.3414 149.4048 36.4376 0.0000 0.0000 0.0000
# 3 38.8408 36.4376 58.1189 0.0000 0.0000 0.0000
# 4 0.0000 0.0000 0.0000 6.5746 0.0000 0.0000
# 5 0.0000 0.0000 0.0000 0.0000 40.9716 0.0000
# 6 0.0000 0.0000 0.0000 0.0000 0.0000 41.9022
#
#
#
# Elastic Compliance Matrix: (Units=1/GPa)
#
#
# Indices 1 2 3 4 5 6 
#
# 1 0.009830 -0.000543 -0.006229 0.000000 0.000000 0.000000
# 2 -0.000543 0.007931 -0.004610 0.000000 0.000000 0.000000
# 3 -0.006229 -0.004610 0.024259 0.000000 0.000000 0.000000
# 4 0.000000 0.000000 0.000000 0.152100 0.000000 0.000000
# 5 0.000000 0.000000 0.000000 0.000000 0.024407 0.000000
# 6 0.000000 0.000000 0.000000 0.000000 0.000000 0.023865
#
#
# Mechanical properties :
#
#
# Convention : Reuss Voigt Hill
#
# Bulk Modulus (GPa) = 51.92897 60.98169 56.45533
# Shear Modulus (GPa) = 18.41110 33.15472 25.78291
#
# Velocity S-wave (km/s) = 2.92373 3.92347 3.45990
# Velocity P-wave (km/s) = 5.95887 6.98845 6.49410
#
# Compressibility (1/GPa) = 0.01925708
#
# Stress axis : x y z
#
# Youngs Moduli (GPa) = 101.72845 126.08174 41.22176
#
# Poissons Ratio (x) = 0.06845 0.25677
# Poissons Ratio (y) = 0.05523 0.19002
# Poissons Ratio (z) = 0.63367 0.58120
#
# Static dielectric constant tensor:
#      x y z
#    x 1.754750 0.000000 0.000000 
#    y 0.000000 1.715830 0.000000 
#    z 0.000000 0.000000 2.042540 
# 
# From -- ./inp_files/9701.got.cif
#   From: 2010.05.17/outbox.cif.g08.bks.cpg/sg22_5_cif.got.tgz:9701.got - 2010.06.03 23:40:54.
