data_PCOD9329335
_publ_section_title
;
Structure prediction by ZEFSAII (Michael W. Deem and Ramdas Pophale) SiO2 
 PCOD9329335
Probable space group: I 2 2 2
;
_chemical_formula_sum "Si O2"
_cell_formula_units_Z 64
_cell_length_a 25.118195
_cell_length_b 16.720687
_cell_length_c 5.579178
_cell_angle_alpha 90.000000
_cell_angle_beta 90.000000
_cell_angle_gamma 90.000000
_cell_volume 2343.218365
_symmetry_space_group_name_H-M "I 2 2 2"
_symmetry_group_IT_number 23
_symmetry_cell_setting 'orthorhombic'
loop_
_space_group_symop_operation_xyz
x,y,z
-x,-y,z
x,-y,-z
-x,y,-z
1/2+x,1/2+y,1/2+z
1/2-x,1/2-y,1/2+z
1/2+x,1/2-y,1/2-z
1/2-x,1/2+y,1/2-z
loop_
_atom_site_type_symbol
_atom_site_label
_atom_site_fract_x
_atom_site_fract_y
_atom_site_fract_z
Si Si1 0.436157 0.291148 0.249999
Si Si2 0.846601 0.614642 0.749997
Si Si3 0.196218 0.624973 0.750003
Si Si4 0.063350 0.039870 0.750000
Si Si5 0.318666 0.476758 0.750000
Si Si6 0.027431 0.616815 0.250000
Si Si7 0.630190 0.296246 0.250001
Si Si8 0.278448 0.269053 0.249997
O O1 0.464795 0.375284 0.249999
O O2 0.472306 0.213491 0.250000
O O3 0.403703 0.295645 0.503674
O O4 0.403703 0.295645 0.996322
O O5 0.822456 0.587028 0.498512
O O6 0.909477 0.599440 0.750000
O O7 0.828500 0.709747 0.749996
O O8 0.822455 0.587028 0.001482
O O9 0.162270 0.711358 0.750003
O O10 0.260212 0.638959 0.749999
O O11 0.128269 0.034110 0.750000
O O12 0.051664 0.000000 0.500000
O O13 0.051664 0.000000 0.000000
O O14 0.291893 0.500000 0.500000
O O15 0.336177 0.380855 0.750000
O O16 0.291893 0.500000 0.000000
O O17 0.000000 0.590763 0.500000
O O18 0.000000 0.590763 0.000000
O O19 0.250000 0.249999 0.499995
#
# Coordination Sequence:
#
# PCOD9329335 Si02
#       8
#     8   8   8   8   8   8   8   8
#     4  12  20  30  44  56  73  95 120 160 200 226
#     4  10  18  32  46  58  79 103 118 146 189 226
#     4  10  17  28  44  68  81  94 119 145 187 240
#     4  10  16  27  42  58  65  87 123 156 188 237
#     4  10  16  25  36  60  74  90 122 152 179 228
#     4  12  24  35  44  58  77  98 130 161 193 237
#     4  12  17  26  44  62  77  96 117 152 194 229
#     4   8  16  27  44  63  82  97 115 140 176 233
#
# _framework density 27.312860000000001
#
# number of rings (size 3 to 8) (size 9 to 14) (size 15 to 20)
#    0.000    1.500    7.500    1.500    0.000    0.000 
#    0.000    0.000    0.000    2.250    0.000    0.000 
#    0.000    0.000    0.000    0.000    0.000    0.000 
#
# Total GULP energy -178415.315258 kJ/mol
# GULP energy per Si atom -5575.478602 kJ/mol
# Density = 2.725069 g / cm^3
# Si number density = 27.312860 Si / 1000 Ang^3
#
#
#
# Elastic Constant Matrix: (Units=GPa)
#
#
# Indices 1 2 3 4 5 6 
#
# 1 111.4125 25.0670 63.9229 0.0000 0.0000 0.0000
# 2 25.0670 142.2624 49.9578 0.0000 0.0000 0.0000
# 3 63.9229 49.9578 334.3919 0.0000 0.0000 0.0000
# 4 0.0000 0.0000 0.0000 -54.8086 0.0000 0.0000
# 5 0.0000 0.0000 0.0000 0.0000 49.8275 0.0000
# 6 0.0000 0.0000 0.0000 0.0000 0.0000 -13.3465
#
#
#
# Elastic Compliance Matrix: (Units=1/GPa)
#
#
# Indices 1 2 3 4 5 6 
#
# 1 0.010266 -0.001182 -0.001786 0.000000 0.000000 0.000000
# 2 -0.001182 0.007555 -0.000903 0.000000 0.000000 0.000000
# 3 -0.001786 -0.000903 0.003467 0.000000 0.000000 0.000000
# 4 0.000000 0.000000 0.000000 -0.018245 0.000000 0.000000
# 5 0.000000 0.000000 0.000000 0.000000 0.020069 0.000000
# 6 0.000000 0.000000 0.000000 0.000000 0.000000 -0.074926
#
#
# Mechanical properties :
#
#
# Convention : Reuss Voigt Hill
#
# Bulk Modulus (GPa) = 73.81919 96.21802 85.01861
# Shear Modulus (GPa) = -126.39612 26.27577 -50.06018
#
# Velocity S-wave (km/s) = -6.81011 3.10502 -4.28582
# Velocity P-wave (km/s) = 5.89499 6.93970 2.58927
#
# Compressibility (1/GPa) = 0.01354661
#
# Stress axis : x y z
#
# Youngs Moduli (GPa) = 97.40669 132.37141 288.45246
#
# Poissons Ratio (x) = 0.15643 0.51516
# Poissons Ratio (y) = 0.11511 0.26039
# Poissons Ratio (z) = 0.17396 0.11950
#
# Static dielectric constant tensor:
#      x y z
#    x 2.253000 0.000000 0.000000 
#    y 0.000000 2.219090 0.000000 
#    z 0.000000 0.000000 2.092000 
# 
# From -- ./inp_files/5107.got.cif
#   From: 2010.05.17/outbox.cif.g08.bks.cpg/sg23_3_cif.got.tgz:5107.got - 2010.06.04 12:02:01.
