data_PCOD9329308
_publ_section_title
;
Structure prediction by ZEFSAII (Michael W. Deem and Ramdas Pophale) SiO2 
 PCOD9329308
Probable space group: F 2 2 2
;
_chemical_formula_sum "Si O2"
_cell_formula_units_Z 20
_cell_length_a 9.000000
_cell_length_b 18.000000
_cell_length_c 27.000000
_cell_angle_alpha 90.000000
_cell_angle_beta 90.000000
_cell_angle_gamma 90.000000
_cell_volume 4374.000000
_symmetry_space_group_name_H-M "F 2 2 2"
_symmetry_group_IT_number 22
_symmetry_cell_setting 'orthorhombic'
loop_
_space_group_symop_operation_xyz
x,y,z
-x,-y,z
x,-y,-z
-x,y,-z
x,1/2+y,1/2+z
-x,1/2-y,1/2+z
x,1/2-y,1/2-z
-x,1/2+y,1/2-z
1/2+x,y,1/2+z
1/2-x,-y,1/2+z
1/2+x,-y,1/2-z
1/2-x,y,1/2-z
1/2+x,1/2+y,z
1/2-x,1/2-y,z
1/2+x,1/2-y,-z
1/2-x,1/2+y,-z
loop_
_atom_site_type_symbol
_atom_site_label
_atom_site_fract_x
_atom_site_fract_y
_atom_site_fract_z
Si Si1 0.427388 0.339622 0.053694
Si Si2 0.068452 0.916752 0.151524
Si Si3 0.072612 0.160378 0.446306
Si Si4 0.428926 0.660340 0.750000
Si Si5 0.068452 0.416752 0.848476
O O1 0.508487 0.378074 0.100662
O O2 0.250000 0.357102 0.053833
O O3 0.442065 0.250000 0.058927
O O4 0.500000 0.359597 0.000000
O O5 0.250000 0.917800 0.152241
O O6 0.004645 0.873963 0.200348
O O7 0.000000 0.000000 0.152907
O O8 0.991514 0.121926 0.399338
O O9 0.000000 0.140403 0.500000
O O10 0.446695 0.750000 0.750000
O O11 0.250000 0.644558 0.750000
O O12 0.504645 0.626038 0.700348
O O13 0.000000 0.500000 0.847093
#
# Coordination Sequence:
#
# PCOD9329308 Si02
#       5
#    16  16  16  16  16
#     4  10  21  39  63  91 123 159 201 248 298 354
#     4  12  25  41  62  89 123 160 201 248 300 357
#     4  10  21  39  63  91 123 159 201 248 298 354
#     4  11  24  43  66  91 121 157 198 245 298 357
#     4  12  25  41  62  89 123 160 201 248 300 357
#
# _framework density 4.5724739999999997
#
# number of rings (size 3 to 8) (size 9 to 14) (size 15 to 20)
#    0.000    1.000    0.000    7.200    0.000    9.600 
#    0.000    4.000    0.000    0.000    0.000    0.000 
#    0.000    0.000    0.000    0.000    0.000    0.000 
#
# Total GULP energy -111831.859779 kJ/mol
# GULP energy per Si atom -5591.592989 kJ/mol
# Density = 0.456207 g / cm^3
# Si number density = 4.572474 Si / 1000 Ang^3
#
#
#
# Elastic Constant Matrix: (Units=GPa)
#
#
# Indices 1 2 3 4 5 6 
#
# 1 227.0087 76.4326 111.3254 0.0000 0.0000 0.0000
# 2 76.4326 114.9054 87.7674 0.0000 0.0000 0.0000
# 3 111.3254 87.7674 227.8651 0.0000 0.0000 0.0000
# 4 0.0000 0.0000 0.0000 40.9361 0.0000 0.0000
# 5 0.0000 0.0000 0.0000 0.0000 49.9333 0.0000
# 6 0.0000 0.0000 0.0000 0.0000 0.0000 35.7947
#
#
#
# Elastic Compliance Matrix: (Units=1/GPa)
#
#
# Indices 1 2 3 4 5 6 
#
# 1 0.006300 -0.002606 -0.002074 0.000000 0.000000 0.000000
# 2 -0.002606 0.013409 -0.003891 0.000000 0.000000 0.000000
# 3 -0.002074 -0.003891 0.006901 0.000000 0.000000 0.000000
# 4 0.000000 0.000000 0.000000 0.024428 0.000000 0.000000
# 5 0.000000 0.000000 0.000000 0.000000 0.020027 0.000000
# 6 0.000000 0.000000 0.000000 0.000000 0.000000 0.027937
#
#
# Mechanical properties :
#
#
# Convention : Reuss Voigt Hill
#
# Bulk Modulus (GPa) = 105.64165 124.53666 115.08915
# Shear Modulus (GPa) = 41.91125 44.94973 43.43049
#
# Velocity S-wave (km/s) = 4.79215 4.96282 4.87823
# Velocity P-wave (km/s) = 9.40769 10.05374 9.73608
#
# Compressibility (1/GPa) = 0.00946596
#
# Stress axis : x y z
#
# Youngs Moduli (GPa) = 158.73790 74.57788 144.91466
#
# Poissons Ratio (x) = 0.19438 0.30054
# Poissons Ratio (y) = 0.41373 0.56391
# Poissons Ratio (z) = 0.32920 0.29021
#
# Static dielectric constant tensor:
#      x y z
#    x 1.623950 0.000000 0.000000 
#    y 0.000000 1.628310 0.000000 
#    z 0.000000 0.000000 1.606600 
# 
# From -- ./inp_files/51763.got.cif
#   From: 2010.05.17/outbox.ucp.g08.bks.cvg/sg22_26_cif.got.tgz:51763.got - 2010.06.11 15:16:44.
