data_PCOD9329096
_publ_section_title
;
Structure prediction by ZEFSAII (Michael W. Deem and Ramdas Pophale) SiO2 
 PCOD9329096
Probable space group: F 2 2 2
;
_chemical_formula_sum "Si O2"
_cell_formula_units_Z 64
_cell_length_a 8.508409
_cell_length_b 20.422730
_cell_length_c 14.100094
_cell_angle_alpha 90.000000
_cell_angle_beta 90.000000
_cell_angle_gamma 90.000000
_cell_volume 2450.101984
_symmetry_space_group_name_H-M "F 2 2 2"
_symmetry_group_IT_number 22
_symmetry_cell_setting 'orthorhombic'
loop_
_space_group_symop_operation_xyz
x,y,z
-x,-y,z
x,-y,-z
-x,y,-z
x,1/2+y,1/2+z
-x,1/2-y,1/2+z
x,1/2-y,1/2-z
-x,1/2+y,1/2-z
1/2+x,y,1/2+z
1/2-x,-y,1/2+z
1/2+x,-y,1/2-z
1/2-x,y,1/2-z
1/2+x,1/2+y,z
1/2-x,1/2-y,z
1/2+x,1/2-y,-z
1/2-x,1/2+y,-z
loop_
_atom_site_type_symbol
_atom_site_label
_atom_site_fract_x
_atom_site_fract_y
_atom_site_fract_z
Si Si1 0.677201 0.664397 0.023388
Si Si2 0.827776 0.903739 0.647881
Si Si3 0.174776 0.468077 0.353081
Si Si4 0.098556 0.309784 0.185729
O O1 0.655636 0.596331 0.082922
O O2 0.821141 0.698009 0.082255
O O3 0.500000 0.689555 0.000000
O O4 0.747559 0.647627 0.921569
O O5 0.750000 0.904954 0.750000
O O6 0.995719 0.873703 0.670628
O O7 0.792876 0.975723 0.606816
O O8 0.250000 0.455626 0.250000
O O9 0.000000 0.500000 0.345048
O O10 0.020769 0.250000 0.250000
O O11 0.250000 0.320438 0.250000
#
# Coordination Sequence:
#
# PCOD9329096 Si02
#       4
#    16  16  16  16
#     4  12  24  46  83 120 167 212 267 335 420 505
#     4  11  25  46  79 119 164 217 265 336 419 500
#     4  11  25  43  77 125 175 216 256 325 415 515
#     4  11  27  52  76 107 154 213 286 355 395 468
#
# _framework density 26.121359999999999
#
# number of rings (size 3 to 8) (size 9 to 14) (size 15 to 20)
#    0.000    0.750    2.500    3.750   10.500    0.500 
#    0.000   23.750    0.000    0.000    0.000    0.000 
#    0.000    0.000    0.000    0.000    0.000    0.000 
#
# Total GULP energy -89279.131977 kJ/mol
# GULP energy per Si atom -5579.945749 kJ/mol
# Density = 2.606191 g / cm^3
# Si number density = 26.121360 Si / 1000 Ang^3
#
#
#
# Elastic Constant Matrix: (Units=GPa)
#
#
# Indices 1 2 3 4 5 6 
#
# 1 134.1458 60.4064 19.1109 0.0000 0.0000 0.0000
# 2 60.4064 99.5833 11.4350 0.0000 0.0000 0.0000
# 3 19.1109 11.4350 141.5221 0.0000 0.0000 0.0000
# 4 0.0000 0.0000 0.0000 8.0343 0.0000 0.0000
# 5 0.0000 0.0000 0.0000 0.0000 42.4387 0.0000
# 6 0.0000 0.0000 0.0000 0.0000 0.0000 51.8785
#
#
#
# Elastic Compliance Matrix: (Units=1/GPa)
#
#
# Indices 1 2 3 4 5 6 
#
# 1 0.010368 -0.006186 -0.000900 0.000000 0.000000 0.000000
# 2 -0.006186 0.013827 -0.000282 0.000000 0.000000 0.000000
# 3 -0.000900 -0.000282 0.007210 0.000000 0.000000 0.000000
# 4 0.000000 0.000000 0.000000 0.124467 0.000000 0.000000
# 5 0.000000 0.000000 0.000000 0.000000 0.023563 0.000000
# 6 0.000000 0.000000 0.000000 0.000000 0.000000 0.019276
#
#
# Mechanical properties :
#
#
# Convention : Reuss Voigt Hill
#
# Bulk Modulus (GPa) = 59.99133 61.90620 60.94877
# Shear Modulus (GPa) = 22.83060 39.42357 31.12708
#
# Velocity S-wave (km/s) = 2.95959 3.88912 3.45575
# Velocity P-wave (km/s) = 5.89026 6.62706 6.26949
#
# Compressibility (1/GPa) = 0.01666908
#
# Stress axis : x y z
#
# Youngs Moduli (GPa) = 96.44660 72.32431 138.68895
#
# Poissons Ratio (x) = 0.44740 0.12486
# Poissons Ratio (y) = 0.59662 0.03909
# Poissons Ratio (z) = 0.08683 0.02038
#
# Static dielectric constant tensor:
#      x y z
#    x 2.082120 0.000000 0.000000 
#    y 0.000000 2.349690 0.000000 
#    z 0.000000 0.000000 2.569400 
# 
# From -- ./inp_files/9805.got.cif
#   From: 2010.05.17/outbox.cif.g08.bks.cpg/sg22_5_cif.got.tgz:9805.got - 2010.06.03 23:40:54.
