data_PCOD9329214
_publ_section_title
;
Structure prediction by ZEFSAII (Michael W. Deem and Ramdas Pophale) SiO2 
 PCOD9329214
Probable space group: F 2 2 2
;
_chemical_formula_sum "Si O2"
_cell_formula_units_Z 88
_cell_length_a 11.514772
_cell_length_b 15.125845
_cell_length_c 22.878216
_cell_angle_alpha 90.000000
_cell_angle_beta 90.000000
_cell_angle_gamma 90.000000
_cell_volume 3984.713900
_symmetry_space_group_name_H-M "F 2 2 2"
_symmetry_group_IT_number 22
_symmetry_cell_setting 'orthorhombic'
loop_
_space_group_symop_operation_xyz
x,y,z
-x,-y,z
x,-y,-z
-x,y,-z
x,1/2+y,1/2+z
-x,1/2-y,1/2+z
x,1/2-y,1/2-z
-x,1/2+y,1/2-z
1/2+x,y,1/2+z
1/2-x,-y,1/2+z
1/2+x,-y,1/2-z
1/2-x,y,1/2-z
1/2+x,1/2+y,z
1/2-x,1/2-y,z
1/2+x,1/2-y,-z
1/2-x,1/2+y,-z
loop_
_atom_site_type_symbol
_atom_site_label
_atom_site_fract_x
_atom_site_fract_y
_atom_site_fract_z
Si Si1 0.000000 0.500000 0.621524
Si Si2 0.257038 0.525407 0.819427
Si Si3 0.684561 0.103684 0.995049
Si Si4 0.324146 0.661859 0.372111
Si Si5 0.912001 0.667846 0.120637
Si Si6 0.568489 0.838301 0.444515
O O1 0.110197 0.528714 0.659186
O O2 0.983913 0.585443 0.580308
O O3 0.250000 0.526306 0.750000
O O4 0.218632 0.430023 0.844610
O O5 0.176790 0.605304 0.844245
O O6 0.593684 0.130956 0.945467
O O7 0.811576 0.122921 0.968325
O O8 0.678100 0.150659 0.057502
O O9 0.672558 0.000000 0.000000
O O10 0.250000 0.750000 0.356941
O O11 0.458814 0.666777 0.353905
O O12 0.893280 0.771162 0.106498
O O13 0.500000 0.798676 0.500000
#
# Coordination Sequence:
#
# PCOD9329214 Si02
#       6
#     8  16  16  16  16  16
#     4  12  25  48  76 106 148 199 254 312 384 452
#     4  12  29  49  75 103 144 204 264 325 383 451
#     4  12  22  39  69 113 153 198 241 304 393 475
#     4  12  25  46  74 110 149 191 250 320 394 472
#     4  12  25  44  72 109 152 193 246 310 388 467
#     4  12  23  42  73 114 157 195 242 311 387 486
#
# _framework density 22.084395000000001
#
# number of rings (size 3 to 8) (size 9 to 14) (size 15 to 20)
#    0.000    0.000    3.636    8.455    2.545    1.091 
#    0.000    1.818    0.000    0.000    0.000    0.000 
#    0.000    0.000    0.000    0.000    0.000    0.000 
#
# Total GULP energy -123023.033195 kJ/mol
# GULP energy per Si atom -5591.956054 kJ/mol
# Density = 2.203413 g / cm^3
# Si number density = 22.084395 Si / 1000 Ang^3
#
#
#
# Elastic Constant Matrix: (Units=GPa)
#
#
# Indices 1 2 3 4 5 6 
#
# 1 133.7136 53.9341 43.7228 0.0000 0.0000 0.0000
# 2 53.9341 156.9630 47.5422 0.0000 0.0000 0.0000
# 3 43.7228 47.5422 117.7608 0.0000 0.0000 0.0000
# 4 0.0000 0.0000 0.0000 12.8307 0.0000 0.0000
# 5 0.0000 0.0000 0.0000 0.0000 11.3017 0.0000
# 6 0.0000 0.0000 0.0000 0.0000 0.0000 45.4148
#
#
#
# Elastic Compliance Matrix: (Units=1/GPa)
#
#
# Indices 1 2 3 4 5 6 
#
# 1 0.009266 -0.002440 -0.002455 0.000000 0.000000 0.000000
# 2 -0.002440 0.007901 -0.002284 0.000000 0.000000 0.000000
# 3 -0.002455 -0.002284 0.010325 0.000000 0.000000 0.000000
# 4 0.000000 0.000000 0.000000 0.077938 0.000000 0.000000
# 5 0.000000 0.000000 0.000000 0.000000 0.088482 0.000000
# 6 0.000000 0.000000 0.000000 0.000000 0.000000 0.022019
#
#
# Mechanical properties :
#
#
# Convention : Reuss Voigt Hill
#
# Bulk Modulus (GPa) = 76.13811 77.64839 76.89325
# Shear Modulus (GPa) = 21.30672 31.45866 26.38269
#
# Velocity S-wave (km/s) = 3.10947 3.77832 3.46009
# Velocity P-wave (km/s) = 6.88786 7.36684 7.13137
#
# Compressibility (1/GPa) = 0.01313403
#
# Stress axis : x y z
#
# Youngs Moduli (GPa) = 107.92483 126.56396 96.84904
#
# Poissons Ratio (x) = 0.30884 0.23777
# Poissons Ratio (y) = 0.26336 0.22119
# Poissons Ratio (z) = 0.26496 0.28905
#
# Static dielectric constant tensor:
#      x y z
#    x 1.858990 0.000000 0.000000 
#    y 0.000000 1.865200 0.000000 
#    z 0.000000 0.000000 1.785430 
# 
# From -- ./inp_files/23658.got.cif
#   From: 2010.05.17/outbox.cif.g08.bks.cpg/sg22_12_cif.got.tgz:23658.got - 2010.06.03 23:40:54.
