data_PCOD9329718
_publ_section_title
;
Structure prediction by ZEFSAII (Michael W. Deem and Ramdas Pophale) SiO2 
 PCOD9329718
Probable space group: I 2 2 2
;
_chemical_formula_sum "Si O2"
_cell_formula_units_Z 58
_cell_length_a 16.419245
_cell_length_b 11.862617
_cell_length_c 15.307042
_cell_angle_alpha 90.000000
_cell_angle_beta 90.000000
_cell_angle_gamma 90.000000
_cell_volume 2981.432394
_symmetry_space_group_name_H-M "I 2 2 2"
_symmetry_group_IT_number 23
_symmetry_cell_setting 'orthorhombic'
loop_
_space_group_symop_operation_xyz
x,y,z
-x,-y,z
x,-y,-z
-x,y,-z
1/2+x,1/2+y,1/2+z
1/2-x,1/2-y,1/2+z
1/2+x,1/2-y,1/2-z
1/2-x,1/2+y,1/2-z
loop_
_atom_site_type_symbol
_atom_site_label
_atom_site_fract_x
_atom_site_fract_y
_atom_site_fract_z
Si Si1 0.500000 0.000000 0.000000
Si Si2 0.748457 0.322848 0.901915
Si Si3 0.760021 0.423986 0.642329
Si Si4 0.464598 0.874763 0.702891
Si Si5 0.129492 0.259628 0.258364
Si Si6 0.869495 0.621693 0.614606
Si Si7 0.295543 0.547243 0.182169
Si Si8 0.829483 0.290093 0.085378
O O1 0.554886 0.918869 0.058584
O O2 0.805271 0.279243 0.821006
O O3 0.672107 0.239093 0.908665
O O4 0.710261 0.446310 0.886859
O O5 0.804901 0.321364 0.987322
O O6 0.836873 0.345023 0.667968
O O7 0.798577 0.530916 0.595890
O O8 0.724055 0.479864 0.729569
O O9 0.694769 0.340689 0.599525
O O10 0.541030 0.798063 0.728816
O O11 0.401780 0.879525 0.785130
O O12 0.418400 0.823693 0.619211
O O13 0.500000 0.000000 0.687217
O O14 0.131473 0.132451 0.294971
O O15 0.228000 0.636106 0.149483
#
# Coordination Sequence:
#
# PCOD9329718 Si02
#       8
#     2   8   8   8   8   8   8   8
#     4  12  24  32  64 104 126 148 224 292 338 352
#     4  11  23  39  63  91 129 169 217 267 329 398
#     4  10  18  39  63  86 120 169 220 253 312 402
#     4  12  21  39  66  95 135 166 219 272 337 401
#     4  10  20  36  63  92 123 168 219 263 320 400
#     4  12  21  42  63  95 127 168 211 280 333 381
#     4  10  19  39  62  87 119 172 220 251 311 407
#     4  11  23  37  61  97 127 167 215 272 325 388
#
# _framework density 19.453737
#
# number of rings (size 3 to 8) (size 9 to 14) (size 15 to 20)
#    0.000    1.103    4.828    3.724    0.000    1.655 
#    0.000    3.448    0.000    0.000    3.586    0.000 
#    0.000    0.000    0.000    0.000    0.000    0.000 
#
# Total GULP energy -161777.662844 kJ/mol
# GULP energy per Si atom -5578.540098 kJ/mol
# Density = 1.940946 g / cm^3
# Si number density = 19.453737 Si / 1000 Ang^3
#
#
#
# Elastic Constant Matrix: (Units=GPa)
#
#
# Indices 1 2 3 4 5 6 
#
# 1 67.0873 30.7255 -7.4347 0.0000 0.0000 0.0000
# 2 30.7255 120.6582 -9.8830 0.0000 0.0000 0.0000
# 3 -7.4347 -9.8830 21.7136 0.0000 0.0000 0.0000
# 4 0.0000 0.0000 0.0000 15.8424 0.0000 0.0000
# 5 0.0000 0.0000 0.0000 0.0000 19.8506 0.0000
# 6 0.0000 0.0000 0.0000 0.0000 0.0000 10.3798
#
#
#
# Elastic Compliance Matrix: (Units=1/GPa)
#
#
# Indices 1 2 3 4 5 6 
#
# 1 0.017210 -0.004051 0.004049 0.000000 0.000000 0.000000
# 2 -0.004051 0.009562 0.002965 0.000000 0.000000 0.000000
# 3 0.004049 0.002965 0.048790 0.000000 0.000000 0.000000
# 4 0.000000 0.000000 0.000000 0.063122 0.000000 0.000000
# 5 0.000000 0.000000 0.000000 0.000000 0.050376 0.000000
# 6 0.000000 0.000000 0.000000 0.000000 0.000000 0.096341
#
#
# Mechanical properties :
#
#
# Convention : Reuss Voigt Hill
#
# Bulk Modulus (GPa) = 12.27161 26.25274 19.26218
# Shear Modulus (GPa) = 16.30588 22.28465 19.29527
#
# Velocity S-wave (km/s) = 2.89829 3.38823 3.15279
# Velocity P-wave (km/s) = 4.18592 5.36945 4.81419
#
# Compressibility (1/GPa) = 0.08148892
#
# Stress axis : x y z
#
# Youngs Moduli (GPa) = 58.10613 104.57734 20.49598
#
# Poissons Ratio (x) = 0.42363 -0.08299
# Poissons Ratio (y) = 0.23538 -0.06078
# Poissons Ratio (z) = -0.23526 -0.31011
#
# Static dielectric constant tensor:
#      x y z
#    x 1.687200 0.000000 0.000000 
#    y 0.000000 1.699600 0.000000 
#    z 0.000000 0.000000 1.762480 
# 
# From -- ./inp_files/24847.got.cif
#   From: 2010.05.17/outbox.cif.g08.bks.cpg/sg23_13_cif.got.tgz:24847.got - 2010.06.04 12:02:01.
