data_PCOD9329843
_publ_section_title
;
Structure prediction by ZEFSAII (Michael W. Deem and Ramdas Pophale) SiO2 
 PCOD9329843
Probable space group: I 2 2 2
;
_chemical_formula_sum "Si O2"
_cell_formula_units_Z 48
_cell_length_a 4.988168
_cell_length_b 31.657499
_cell_length_c 14.698479
_cell_angle_alpha 90.000000
_cell_angle_beta 90.000000
_cell_angle_gamma 90.000000
_cell_volume 2321.079789
_symmetry_space_group_name_H-M "I 2 2 2"
_symmetry_group_IT_number 23
_symmetry_cell_setting 'orthorhombic'
loop_
_space_group_symop_operation_xyz
x,y,z
-x,-y,z
x,-y,-z
-x,y,-z
1/2+x,1/2+y,1/2+z
1/2-x,1/2-y,1/2+z
1/2+x,1/2-y,1/2-z
1/2-x,1/2+y,1/2-z
loop_
_atom_site_type_symbol
_atom_site_label
_atom_site_fract_x
_atom_site_fract_y
_atom_site_fract_z
Si Si1 0.467290 0.600916 0.400393
Si Si2 0.230709 0.277706 0.754568
Si Si3 0.531836 0.450154 0.217253
Si Si4 0.548513 0.902471 0.659817
Si Si5 0.732772 0.829083 0.440306
Si Si6 0.948427 0.350974 0.659557
O O1 0.500000 0.581751 0.500000
O O2 0.529459 0.568745 0.317985
O O3 0.171145 0.618710 0.384420
O O4 0.673142 0.640558 0.392619
O O5 0.511436 0.258177 0.723738
O O6 0.284517 0.305085 0.845419
O O7 0.086769 0.306148 0.677261
O O8 0.500000 0.500000 0.214822
O O9 0.832650 0.436223 0.194730
O O10 0.326985 0.426895 0.147659
O O11 0.395294 0.874273 0.586468
O O12 0.607632 0.868409 0.739022
O O13 0.500000 0.807050 0.500000
O O14 0.000000 0.832698 0.500000
#
# Coordination Sequence:
#
# PCOD9329843 Si02
#       6
#     8   8   8   8   8   8
#     4  10  19  33  52  77 110 147 191 234 270 319
#     4  11  22  39  60  83 115 150 184 229 289 349
#     4  10  19  33  55  82 111 146 187 229 279 338
#     4   9  19  35  56  79 107 144 185 225 273 336
#     4  11  22  39  63  88 112 144 194 244 281 331
#     4   9  19  35  53  74 103 148 191 221 267 335
#
# _framework density 20.680029000000001
#
# number of rings (size 3 to 8) (size 9 to 14) (size 15 to 20)
#    0.000    2.000    0.000    4.000    0.000    5.667 
#    0.000    8.333    0.000   13.500    0.000    0.000 
#    0.000    0.000    0.000    0.000    0.000    0.000 
#
# Total GULP energy -133907.103015 kJ/mol
# GULP energy per Si atom -5579.462626 kJ/mol
# Density = 2.063296 g / cm^3
# Si number density = 20.680029 Si / 1000 Ang^3
#
#
#
# Elastic Constant Matrix: (Units=GPa)
#
#
# Indices 1 2 3 4 5 6 
#
# 1 90.9191 -9.2142 9.4077 0.0000 0.0000 0.0000
# 2 -9.2142 46.7494 10.0363 0.0000 0.0000 0.0000
# 3 9.4077 10.0363 48.2284 0.0000 0.0000 0.0000
# 4 0.0000 0.0000 0.0000 10.7941 0.0000 0.0000
# 5 0.0000 0.0000 0.0000 0.0000 25.3493 0.0000
# 6 0.0000 0.0000 0.0000 0.0000 0.0000 24.0289
#
#
#
# Elastic Compliance Matrix: (Units=1/GPa)
#
#
# Indices 1 2 3 4 5 6 
#
# 1 0.011589 0.002899 -0.002864 0.000000 0.000000 0.000000
# 2 0.002899 0.023116 -0.005376 0.000000 0.000000 0.000000
# 3 -0.002864 -0.005376 0.022412 0.000000 0.000000 0.000000
# 4 0.000000 0.000000 0.000000 0.092643 0.000000 0.000000
# 5 0.000000 0.000000 0.000000 0.000000 0.039449 0.000000
# 6 0.000000 0.000000 0.000000 0.000000 0.000000 0.041617
#
#
# Mechanical properties :
#
#
# Convention : Reuss Voigt Hill
#
# Bulk Modulus (GPa) = 21.53531 22.92852 22.23192
# Shear Modulus (GPa) = 19.45635 23.74561 21.60098
#
# Velocity S-wave (km/s) = 3.07062 3.39224 3.23543
# Velocity P-wave (km/s) = 4.79664 5.14339 4.97304
#
# Compressibility (1/GPa) = 0.04643536
#
# Stress axis : x y z
#
# Youngs Moduli (GPa) = 86.28929 43.25983 44.61885
#
# Poissons Ratio (x) = -0.12541 0.12778
# Poissons Ratio (y) = -0.25015 0.23987
# Poissons Ratio (z) = 0.24712 0.23256
#
# Static dielectric constant tensor:
#      x y z
#    x 1.733540 0.000000 0.000000 
#    y 0.000000 1.740980 0.000000 
#    z 0.000000 0.000000 1.779860 
# 
# From -- ./inp_files/19299.got.cif
#   From: 2010.05.17/outbox.cif.g08.bks.cpg/sg23_10_cif.got.tgz:19299.got - 2010.06.04 12:02:01.
