data_PCOD9329108
_publ_section_title
;
Structure prediction by ZEFSAII (Michael W. Deem and Ramdas Pophale) SiO2 
 PCOD9329108
Probable space group: F 2 2 2
;
_chemical_formula_sum "Si O2"
_cell_formula_units_Z 72
_cell_length_a 13.173919
_cell_length_b 28.226407
_cell_length_c 8.999254
_cell_angle_alpha 90.000000
_cell_angle_beta 90.000000
_cell_angle_gamma 90.000000
_cell_volume 3346.394193
_symmetry_space_group_name_H-M "F 2 2 2"
_symmetry_group_IT_number 22
_symmetry_cell_setting 'orthorhombic'
loop_
_space_group_symop_operation_xyz
x,y,z
-x,-y,z
x,-y,-z
-x,y,-z
x,1/2+y,1/2+z
-x,1/2-y,1/2+z
x,1/2-y,1/2-z
-x,1/2+y,1/2-z
1/2+x,y,1/2+z
1/2-x,-y,1/2+z
1/2+x,-y,1/2-z
1/2-x,y,1/2-z
1/2+x,1/2+y,z
1/2-x,1/2-y,z
1/2+x,1/2-y,-z
1/2-x,1/2+y,-z
loop_
_atom_site_type_symbol
_atom_site_label
_atom_site_fract_x
_atom_site_fract_y
_atom_site_fract_z
Si Si1 0.826209 0.395666 0.483445
Si Si2 0.000000 0.000000 0.246830
Si Si3 0.285192 0.799624 0.078291
Si Si4 0.492736 0.602158 0.754345
Si Si5 0.175794 0.500000 0.500000
Si Si6 0.500000 0.174786 0.000000
O O1 0.756514 0.349224 0.488061
O O2 0.898068 0.391771 0.336515
O O3 0.772708 0.447932 0.491640
O O4 0.907059 0.396441 0.618157
O O5 0.995095 0.949392 0.321644
O O6 0.099048 0.999081 0.140038
O O7 0.250000 0.800317 0.250000
O O8 0.250000 0.750000 0.008656
O O9 0.405247 0.797161 0.061277
O O10 0.468886 0.641616 0.636160
#
# Coordination Sequence:
#
# PCOD9329108 Si02
#       6
#    16   8  16  16   8   8
#     4   9  17  38  63  91 126 174 217 267 324 395
#     4   7  12  27  50  92 128 164 212 262 314 386
#     4  11  25  46  67  94 132 172 218 277 338 392
#     4   9  18  33  63  93 130 170 216 267 327 388
#     4   7  12  26  60  87 118 172 218 249 322 395
#     4  12  24  41  64  96 124 167 220 270 330 400
#
# _framework density 21.515696999999999
#
# number of rings (size 3 to 8) (size 9 to 14) (size 15 to 20)
#    0.000    2.667    2.222    2.667    0.000    3.111 
#    0.000    3.333    0.000    0.000    0.000    0.000 
#    0.000    0.000    0.000    0.000    0.000    0.000 
#
# Total GULP energy -100333.623371 kJ/mol
# GULP energy per Si atom -5574.090187 kJ/mol
# Density = 2.146673 g / cm^3
# Si number density = 21.515697 Si / 1000 Ang^3
#
#
#
# Elastic Constant Matrix: (Units=GPa)
#
#
# Indices 1 2 3 4 5 6 
#
# 1 84.6113 50.5762 8.5219 0.0000 0.0000 0.0000
# 2 50.5762 158.2647 3.4970 0.0000 0.0000 0.0000
# 3 8.5219 3.4970 52.6098 0.0000 0.0000 0.0000
# 4 0.0000 0.0000 0.0000 38.7498 0.0000 0.0000
# 5 0.0000 0.0000 0.0000 0.0000 9.9031 0.0000
# 6 0.0000 0.0000 0.0000 0.0000 0.0000 -20.7052
#
#
#
# Elastic Compliance Matrix: (Units=1/GPa)
#
#
# Indices 1 2 3 4 5 6 
#
# 1 0.014836 -0.004695 -0.002091 0.000000 0.000000 0.000000
# 2 -0.004695 0.007813 0.000241 0.000000 0.000000 0.000000
# 3 -0.002091 0.000241 0.019331 0.000000 0.000000 0.000000
# 4 0.000000 0.000000 0.000000 0.025807 0.000000 0.000000
# 5 0.000000 0.000000 0.000000 0.000000 0.100978 0.000000
# 6 0.000000 0.000000 0.000000 0.000000 0.000000 -0.048297
#
#
# Mechanical properties :
#
#
# Convention : Reuss Voigt Hill
#
# Bulk Modulus (GPa) = 34.61375 46.74177 40.67776
# Shear Modulus (GPa) = 34.91935 21.11558 28.01746
#
# Velocity S-wave (km/s) = 4.03298 3.13613 3.61250
# Velocity P-wave (km/s) = 6.14892 5.90639 6.02887
#
# Compressibility (1/GPa) = 0.02889025
#
# Stress axis : x y z
#
# Youngs Moduli (GPa) = 67.40517 127.98362 51.73159
#
# Poissons Ratio (x) = 0.60086 0.10817
# Poissons Ratio (y) = 0.31645 -0.01247
# Poissons Ratio (z) = 0.14095 -0.03086
#
# Static dielectric constant tensor:
#      x y z
#    x 1.832270 0.000000 0.000000 
#    y 0.000000 1.826300 0.000000 
#    z 0.000000 0.000000 1.785150 
# 
# From -- ./inp_files/10186.got.cif
#   From: 2010.05.17/outbox.cif.g08.bks.cpg/sg22_6_cif.got.tgz:10186.got - 2010.06.03 23:40:54.
