data_PCOD9329773
_publ_section_title
;
Structure prediction by ZEFSAII (Michael W. Deem and Ramdas Pophale) SiO2 
 PCOD9329773
Probable space group: I 2 2 2
;
_chemical_formula_sum "Si O2"
_cell_formula_units_Z 58
_cell_length_a 22.246205
_cell_length_b 13.597959
_cell_length_c 9.177650
_cell_angle_alpha 90.000000
_cell_angle_beta 90.000000
_cell_angle_gamma 90.000000
_cell_volume 2776.266506
_symmetry_space_group_name_H-M "I 2 2 2"
_symmetry_group_IT_number 23
_symmetry_cell_setting 'orthorhombic'
loop_
_space_group_symop_operation_xyz
x,y,z
-x,-y,z
x,-y,-z
-x,y,-z
1/2+x,1/2+y,1/2+z
1/2-x,1/2-y,1/2+z
1/2+x,1/2-y,1/2-z
1/2-x,1/2+y,1/2-z
loop_
_atom_site_type_symbol
_atom_site_label
_atom_site_fract_x
_atom_site_fract_y
_atom_site_fract_z
Si Si1 0.580624 0.161599 0.354092
Si Si2 0.634479 0.816019 0.331757
Si Si3 0.500000 0.000000 0.500000
Si Si4 0.630244 0.342156 0.245587
Si Si5 0.798549 0.034970 0.206909
Si Si6 0.220596 0.792763 0.986668
Si Si7 0.841745 0.510449 0.327160
Si Si8 0.838550 0.194248 0.421369
O O1 0.598092 0.186586 0.520567
O O2 0.533028 0.075615 0.388139
O O3 0.573758 0.272467 0.289584
O O4 0.629676 0.107413 0.248012
O O5 0.700654 0.790893 0.398045
O O6 0.620335 0.736133 0.208083
O O7 0.629261 0.920544 0.259116
O O8 0.647949 0.454946 0.285713
O O9 0.684377 0.288540 0.335990
O O10 0.633542 0.335568 0.072662
O O11 0.799880 0.108178 0.068311
O O12 0.729890 0.998121 0.200551
O O13 0.803960 0.103073 0.349670
O O14 0.290402 0.780411 0.956030
O O15 0.852828 0.500000 0.500000
#
# Coordination Sequence:
#
# PCOD9329773 Si02
#       8
#     8   8   2   8   8   8   8   8
#     4  11  24  42  66  86 119 161 228 292 355 413
#     4  10  20  34  50  77 113 157 207 269 324 384
#     4  12  24  52  74  88 114 176 238 320 384 406
#     4  11  21  34  52  86 124 167 222 273 321 402
#     4  11  21  32  52  87 138 193 213 246 324 415
#     4  10  19  31  48  76 121 178 221 247 293 391
#     4  12  21  33  56  88 129 168 215 275 323 399
#     4  11  20  32  52  82 130 177 219 254 308 395
#
# _framework density 20.891365
#
# number of rings (size 3 to 8) (size 9 to 14) (size 15 to 20)
#    0.000    1.103    1.379    9.103    0.000    1.103 
#    0.000    0.345    0.000    0.000    0.000   17.379 
#    0.000    8.828    0.000    0.000    0.000    0.000 
#
# Total GULP energy -161468.219356 kJ/mol
# GULP energy per Si atom -5567.869633 kJ/mol
# Density = 2.084382 g / cm^3
# Si number density = 20.891365 Si / 1000 Ang^3
#
#
#
# Elastic Constant Matrix: (Units=GPa)
#
#
# Indices 1 2 3 4 5 6 
#
# 1 25.4119 20.7470 13.1954 0.0000 0.0000 0.0000
# 2 20.7470 112.0038 45.6795 0.0000 0.0000 0.0000
# 3 13.1954 45.6795 157.9092 0.0000 0.0000 0.0000
# 4 0.0000 0.0000 0.0000 38.5568 0.0000 0.0000
# 5 0.0000 0.0000 0.0000 0.0000 12.4869 0.0000
# 6 0.0000 0.0000 0.0000 0.0000 0.0000 28.2459
#
#
#
# Elastic Compliance Matrix: (Units=1/GPa)
#
#
# Indices 1 2 3 4 5 6 
#
# 1 0.046712 -0.008005 -0.001588 0.000000 0.000000 0.000000
# 2 -0.008005 0.011494 -0.002656 0.000000 0.000000 0.000000
# 3 -0.001588 -0.002656 0.007234 0.000000 0.000000 0.000000
# 4 0.000000 0.000000 0.000000 0.025936 0.000000 0.000000
# 5 0.000000 0.000000 0.000000 0.000000 0.080084 0.000000
# 6 0.000000 0.000000 0.000000 0.000000 0.000000 0.035403
#
#
# Mechanical properties :
#
#
# Convention : Reuss Voigt Hill
#
# Bulk Modulus (GPa) = 24.42482 50.50764 37.46623
# Shear Modulus (GPa) = 20.40750 30.23811 25.32280
#
# Velocity S-wave (km/s) = 3.12883 3.80859 3.48533
# Velocity P-wave (km/s) = 4.97690 6.60071 5.84546
#
# Compressibility (1/GPa) = 0.04094196
#
# Stress axis : x y z
#
# Youngs Moduli (GPa) = 21.40795 86.99918 138.24029
#
# Poissons Ratio (x) = 0.69644 0.21948
# Poissons Ratio (y) = 0.17137 0.36718
# Poissons Ratio (z) = 0.03399 0.23108
#
# Static dielectric constant tensor:
#      x y z
#    x 1.809590 0.000000 0.000000 
#    y 0.000000 1.884180 0.000000 
#    z 0.000000 0.000000 1.762120 
# 
# From -- ./inp_files/13078.got.cif
#   From: 2010.05.17/outbox.cif.g08.bks.cpg/sg23_7_cif.got.tgz:13078.got - 2010.06.04 12:02:01.
