data_PCOD9329581
_publ_section_title
;
Structure prediction by ZEFSAII (Michael W. Deem and Ramdas Pophale) SiO2 
 PCOD9329581
Probable space group: I 2 2 2
;
_chemical_formula_sum "Si O2"
_cell_formula_units_Z 40
_cell_length_a 7.572980
_cell_length_b 12.087246
_cell_length_c 22.397128
_cell_angle_alpha 90.000000
_cell_angle_beta 90.000000
_cell_angle_gamma 90.000000
_cell_volume 2050.154085
_symmetry_space_group_name_H-M "I 2 2 2"
_symmetry_group_IT_number 23
_symmetry_cell_setting 'orthorhombic'
loop_
_space_group_symop_operation_xyz
x,y,z
-x,-y,z
x,-y,-z
-x,y,-z
1/2+x,1/2+y,1/2+z
1/2-x,1/2-y,1/2+z
1/2+x,1/2-y,1/2-z
1/2-x,1/2+y,1/2-z
loop_
_atom_site_type_symbol
_atom_site_label
_atom_site_fract_x
_atom_site_fract_y
_atom_site_fract_z
Si Si1 0.065117 0.375632 0.824510
Si Si2 0.255464 0.586616 0.639816
Si Si3 0.974646 0.228087 0.930002
Si Si4 0.752137 0.264571 0.752831
Si Si5 0.371716 0.836846 0.869638
O O1 0.053495 0.330548 0.891711
O O2 0.244532 0.344343 0.789783
O O3 0.000000 0.500000 0.819602
O O4 0.928901 0.298629 0.787617
O O5 0.415930 0.624479 0.597829
O O6 0.285944 0.637137 0.705843
O O7 0.212164 0.457468 0.644583
O O8 0.074802 0.641874 0.614058
O O9 0.766631 0.215542 0.915605
O O10 0.000000 0.237080 0.000000
O O11 0.631256 0.236626 0.810022
#
# Coordination Sequence:
#
# PCOD9329581 Si02
#       5
#     8   8   8   8   8
#     4  10  20  36  59  84 113 150 188 234 292 347
#     4  10  20  35  56  82 115 153 190 239 297 349
#     4  10  23  39  56  81 113 153 203 245 282 339
#     4  10  18  32  56  84 116 144 184 232 286 354
#     4  10  20  35  56  82 115 153 190 239 297 349
#
# _framework density 19.510729000000001
#
# number of rings (size 3 to 8) (size 9 to 14) (size 15 to 20)
#    0.000    2.000    2.000    1.800    0.000    2.800 
#    0.000    5.000    0.000    0.000    0.000    5.600 
#    0.000    0.000    0.000    0.000    0.000    0.000 
#
# Total GULP energy -111385.675830 kJ/mol
# GULP energy per Si atom -5569.283792 kJ/mol
# Density = 1.946632 g / cm^3
# Si number density = 19.510729 Si / 1000 Ang^3
#
#
#
# Elastic Constant Matrix: (Units=GPa)
#
#
# Indices 1 2 3 4 5 6 
#
# 1 84.1088 16.8886 32.0014 0.0000 0.0000 0.0000
# 2 16.8886 63.8652 10.6298 0.0000 0.0000 0.0000
# 3 32.0014 10.6298 139.1708 0.0000 0.0000 0.0000
# 4 0.0000 0.0000 0.0000 1.5912 0.0000 0.0000
# 5 0.0000 0.0000 0.0000 0.0000 26.4452 0.0000
# 6 0.0000 0.0000 0.0000 0.0000 0.0000 22.3368
#
#
#
# Elastic Compliance Matrix: (Units=1/GPa)
#
#
# Indices 1 2 3 4 5 6 
#
# 1 0.013616 -0.003119 -0.002893 0.000000 0.000000 0.000000
# 2 -0.003119 0.016574 -0.000549 0.000000 0.000000 0.000000
# 3 -0.002893 -0.000549 0.007892 0.000000 0.000000 0.000000
# 4 0.000000 0.000000 0.000000 0.628465 0.000000 0.000000
# 5 0.000000 0.000000 0.000000 0.000000 0.037814 0.000000
# 6 0.000000 0.000000 0.000000 0.000000 0.000000 0.044769
#
#
# Mechanical properties :
#
#
# Convention : Reuss Voigt Hill
#
# Bulk Modulus (GPa) = 40.06146 45.13159 42.59653
# Shear Modulus (GPa) = 6.48868 25.24962 15.86915
#
# Velocity S-wave (km/s) = 1.82563 3.60132 2.85503
# Velocity P-wave (km/s) = 5.00215 6.36196 5.72259
#
# Compressibility (1/GPa) = 0.02496165
#
# Stress axis : x y z
#
# Youngs Moduli (GPa) = 73.44135 60.33486 126.70275
#
# Poissons Ratio (x) = 0.18820 0.36652
# Poissons Ratio (y) = 0.22908 0.06952
# Poissons Ratio (z) = 0.21245 0.03310
#
# Static dielectric constant tensor:
#      x y z
#    x 1.909370 0.000000 0.000000 
#    y 0.000000 1.702490 0.000000 
#    z 0.000000 0.000000 1.659730 
# 
# From -- ./inp_files/8462.got.cif
#   From: 2010.05.17/outbox.cif.g08.bks.cpg/sg23_5_cif.got.tgz:8462.got - 2010.06.04 12:02:01.
