data_PCOD9329565
_publ_section_title
;
Structure prediction by ZEFSAII (Michael W. Deem and Ramdas Pophale) SiO2 
 PCOD9329565
Probable space group: I 2 2 2
;
_chemical_formula_sum "Si O2"
_cell_formula_units_Z 64
_cell_length_a 8.778089
_cell_length_b 23.979229
_cell_length_c 18.097624
_cell_angle_alpha 90.000000
_cell_angle_beta 90.000000
_cell_angle_gamma 90.000000
_cell_volume 3809.401566
_symmetry_space_group_name_H-M "I 2 2 2"
_symmetry_group_IT_number 23
_symmetry_cell_setting 'orthorhombic'
loop_
_space_group_symop_operation_xyz
x,y,z
-x,-y,z
x,-y,-z
-x,y,-z
1/2+x,1/2+y,1/2+z
1/2-x,1/2-y,1/2+z
1/2+x,1/2-y,1/2-z
1/2-x,1/2+y,1/2-z
loop_
_atom_site_type_symbol
_atom_site_label
_atom_site_fract_x
_atom_site_fract_y
_atom_site_fract_z
Si Si1 0.203635 0.356074 0.247617
Si Si2 0.894968 0.951604 0.809948
Si Si3 0.288788 0.760628 0.125862
Si Si4 0.327186 0.623363 0.357344
Si Si5 0.169046 0.516521 0.414231
Si Si6 0.336863 0.274256 0.529289
Si Si7 0.380891 0.720930 0.857591
Si Si8 0.633887 0.819816 0.264013
O O1 0.268517 0.416683 0.266071
O O2 0.209498 0.312468 0.316786
O O3 0.318636 0.331623 0.186631
O O4 0.025859 0.351558 0.225753
O O5 0.800726 0.982460 0.873454
O O6 0.014021 0.907291 0.842840
O O7 0.000000 0.000000 0.772874
O O8 0.445984 0.726425 0.117243
O O9 0.177994 0.714156 0.162329
O O10 0.248836 0.786487 0.046987
O O11 0.208108 0.580710 0.395610
O O12 0.353889 0.673956 0.414326
O O13 0.259969 0.642027 0.277342
O O14 0.175370 0.500000 0.500000
O O15 0.000000 0.500000 0.387550
O O16 0.500000 0.254178 0.500000
O O17 0.235553 0.231872 0.576209
O O18 0.377687 0.771247 0.797803
#
# Coordination Sequence:
#
# PCOD9329565 Si02
#       8
#     8   8   8   8   8   8   8   8
#     4  10  18  32  52  69  96 133 167 209 256 296
#     4  10  21  34  51  70  96 132 175 215 251 295
#     4  10  19  31  50  71  98 130 168 209 247 304
#     4  10  21  34  49  70  99 135 171 211 256 300
#     4  10  22  36  48  67  98 129 174 221 253 290
#     4  11  21  31  47  73 101 134 168 204 251 308
#     4   9  19  33  47  72 100 128 167 210 249 304
#     4   9  18  33  51  72  96 129 171 208 253 302
#
# _framework density 16.800540000000002
#
# number of rings (size 3 to 8) (size 9 to 14) (size 15 to 20)
#    0.000    2.125    0.000    3.375    3.500    5.750 
#    4.500    0.000    0.000    0.000    0.000    0.000 
#    0.000   17.000    0.000   32.250    0.000    2.375 
#
# Total GULP energy -178173.978455 kJ/mol
# GULP energy per Si atom -5567.936827 kJ/mol
# Density = 1.676230 g / cm^3
# Si number density = 16.800540 Si / 1000 Ang^3
#
#
#
# Elastic Constant Matrix: (Units=GPa)
#
#
# Indices 1 2 3 4 5 6 
#
# 1 78.1577 16.8777 -5.0473 0.0000 0.0000 0.0000
# 2 16.8777 48.3955 12.1614 0.0000 0.0000 0.0000
# 3 -5.0473 12.1614 21.8720 0.0000 0.0000 0.0000
# 4 0.0000 0.0000 0.0000 18.4524 0.0000 0.0000
# 5 0.0000 0.0000 0.0000 0.0000 19.6677 0.0000
# 6 0.0000 0.0000 0.0000 0.0000 0.0000 27.2836
#
#
#
# Elastic Compliance Matrix: (Units=1/GPa)
#
#
# Indices 1 2 3 4 5 6 
#
# 1 0.014774 -0.006985 0.007293 0.000000 0.000000 0.000000
# 2 -0.006985 0.027322 -0.016803 0.000000 0.000000 0.000000
# 3 0.007293 -0.016803 0.056747 0.000000 0.000000 0.000000
# 4 0.000000 0.000000 0.000000 0.054193 0.000000 0.000000
# 5 0.000000 0.000000 0.000000 0.000000 0.050845 0.000000
# 6 0.000000 0.000000 0.000000 0.000000 0.000000 0.036652
#
#
# Mechanical properties :
#
#
# Convention : Reuss Voigt Hill
#
# Bulk Modulus (GPa) = 15.18564 21.82321 18.50442
# Shear Modulus (GPa) = 16.92198 21.37631 19.14915
#
# Velocity S-wave (km/s) = 3.17713 3.57088 3.37975
# Velocity P-wave (km/s) = 4.74524 5.47900 5.12526
#
# Compressibility (1/GPa) = 0.06585171
#
# Stress axis : x y z
#
# Youngs Moduli (GPa) = 67.68638 36.60104 17.62219
#
# Poissons Ratio (x) = 0.25566 -0.12852
# Poissons Ratio (y) = 0.47280 0.29611
# Poissons Ratio (z) = -0.49365 0.61502
#
# Static dielectric constant tensor:
#      x y z
#    x 1.623370 0.000000 0.000000 
#    y 0.000000 1.571310 0.000000 
#    z 0.000000 0.000000 1.562460 
# 
# From -- ./inp_files/12195.got.cif
#   From: 2010.05.17/outbox.cif.g08.bks.cpg/sg23_7_cif.got.tgz:12195.got - 2010.06.04 12:02:01.
