data_PCOD9329189
_publ_section_title
;
Structure prediction by ZEFSAII (Michael W. Deem and Ramdas Pophale) SiO2 
 PCOD9329189
Probable space group: F 2 2 2
;
_chemical_formula_sum "Si O2"
_cell_formula_units_Z 40
_cell_length_a 7.191056
_cell_length_b 7.333780
_cell_length_c 28.468234
_cell_angle_alpha 90.000000
_cell_angle_beta 90.000000
_cell_angle_gamma 90.000000
_cell_volume 1501.346983
_symmetry_space_group_name_H-M "F 2 2 2"
_symmetry_group_IT_number 22
_symmetry_cell_setting 'orthorhombic'
loop_
_space_group_symop_operation_xyz
x,y,z
-x,-y,z
x,-y,-z
-x,y,-z
x,1/2+y,1/2+z
-x,1/2-y,1/2+z
x,1/2-y,1/2-z
-x,1/2+y,1/2-z
1/2+x,y,1/2+z
1/2-x,-y,1/2+z
1/2+x,-y,1/2-z
1/2-x,y,1/2-z
1/2+x,1/2+y,z
1/2-x,1/2-y,z
1/2+x,1/2-y,-z
1/2-x,1/2+y,-z
loop_
_atom_site_type_symbol
_atom_site_label
_atom_site_fract_x
_atom_site_fract_y
_atom_site_fract_z
Si Si1 0.466553 0.783829 0.822321
Si Si2 0.500000 0.500000 0.500000
Si Si3 0.470002 0.791863 0.568977
Si Si4 0.750000 0.250000 0.250000
O O1 0.250000 0.750000 0.813688
O O2 0.512482 0.735723 0.876139
O O3 0.601948 0.674021 0.787706
O O4 0.500000 0.000000 0.815119
O O5 0.579211 0.645553 0.537492
O O6 0.250000 0.750000 0.562841
O O7 0.500000 0.000000 0.555671
#
# Coordination Sequence:
#
# PCOD9329189 Si02
#       4
#    16   4  16   4
#     4  11  28  52  79 122 170 227 281 356 424 507
#     4  12  26  48  82 126 164 224 286 334 432 496
#     4  11  28  50  81 119 174 222 281 348 422 502
#     4  12  30  44  94 114 172 220 296 340 440 502
#
# _framework density 26.642742999999999
#
# number of rings (size 3 to 8) (size 9 to 14) (size 15 to 20)
#    0.000    0.800    2.000    1.200   22.400    0.000 
#    0.000    0.000    0.000    0.000    0.000    0.000 
#    0.000    0.000    0.000    0.000    0.000    0.000 
#
# Total GULP energy -55962.004066 kJ/mol
# GULP energy per Si atom -5596.200407 kJ/mol
# Density = 2.658210 g / cm^3
# Si number density = 26.642743 Si / 1000 Ang^3
#
#
#
# Elastic Constant Matrix: (Units=GPa)
#
#
# Indices 1 2 3 4 5 6 
#
# 1 169.4859 73.5302 78.1623 0.0000 0.0000 0.0000
# 2 73.5302 249.8032 54.4471 0.0000 0.0000 0.0000
# 3 78.1623 54.4471 242.7108 0.0000 0.0000 0.0000
# 4 0.0000 0.0000 0.0000 -40.8373 0.0000 0.0000
# 5 0.0000 0.0000 0.0000 0.0000 -42.1728 0.0000
# 6 0.0000 0.0000 0.0000 0.0000 0.0000 53.4267
#
#
#
# Elastic Compliance Matrix: (Units=1/GPa)
#
#
# Indices 1 2 3 4 5 6 
#
# 1 0.007627 -0.001798 -0.002053 0.000000 0.000000 0.000000
# 2 -0.001798 0.004633 -0.000460 0.000000 0.000000 0.000000
# 3 -0.002053 -0.000460 0.004885 0.000000 0.000000 0.000000
# 4 0.000000 0.000000 0.000000 -0.024487 0.000000 0.000000
# 5 0.000000 0.000000 0.000000 0.000000 -0.023712 0.000000
# 6 0.000000 0.000000 0.000000 0.000000 0.000000 0.018717
#
#
# Mechanical properties :
#
#
# Convention : Reuss Voigt Hill
#
# Bulk Modulus (GPa) = 117.33825 119.36433 118.35129
# Shear Modulus (GPa) = -5707.69513 24.47401 -2841.61056
#
# Velocity S-wave (km/s) = -46.33528 3.03413 -32.69367
# Velocity P-wave (km/s) = 53.08930 7.56133 37.15710
#
# Compressibility (1/GPa) = 0.00852237
#
# Stress axis : x y z
#
# Youngs Moduli (GPa) = 131.11717 215.86187 204.72886
#
# Poissons Ratio (x) = 0.38801 0.42028
# Poissons Ratio (y) = 0.23568 0.09425
# Poissons Ratio (z) = 0.26917 0.09937
#
# Static dielectric constant tensor:
#      x y z
#    x 2.136970 0.000000 0.000000 
#    y 0.000000 2.181400 0.000000 
#    z 0.000000 0.000000 2.036440 
# 
# From -- ./inp_files/51434.got.cif
#   From: 2010.05.17/outbox.cif.g08.bks.cpg/sg22_26_cif.got.tgz:51434.got - 2010.06.03 23:40:54.
