data_PCOD9329684
_publ_section_title
;
Structure prediction by ZEFSAII (Michael W. Deem and Ramdas Pophale) SiO2 
 PCOD9329684
Probable space group: I 2 2 2
;
_chemical_formula_sum "Si O2"
_cell_formula_units_Z 52
_cell_length_a 11.198079
_cell_length_b 16.094787
_cell_length_c 11.987313
_cell_angle_alpha 90.000000
_cell_angle_beta 90.000000
_cell_angle_gamma 90.000000
_cell_volume 2160.481769
_symmetry_space_group_name_H-M "I 2 2 2"
_symmetry_group_IT_number 23
_symmetry_cell_setting 'orthorhombic'
loop_
_space_group_symop_operation_xyz
x,y,z
-x,-y,z
x,-y,-z
-x,y,-z
1/2+x,1/2+y,1/2+z
1/2-x,1/2-y,1/2+z
1/2+x,1/2-y,1/2-z
1/2-x,1/2+y,1/2-z
loop_
_atom_site_type_symbol
_atom_site_label
_atom_site_fract_x
_atom_site_fract_y
_atom_site_fract_z
Si Si1 0.684234 0.247604 0.635241
Si Si2 0.251818 0.069371 0.277830
Si Si3 0.400637 0.669828 0.841308
Si Si4 0.565006 0.818938 0.850399
Si Si5 0.500000 0.500000 0.210054
Si Si6 0.500000 0.000000 0.826871
Si Si7 0.373847 0.833823 0.408216
Si Si8 0.829724 0.500000 0.000000
O O1 0.724118 0.168978 0.714825
O O2 0.611659 0.313543 0.708296
O O3 0.806740 0.292667 0.604862
O O4 0.617157 0.215548 0.525299
O O5 0.372532 0.027022 0.230444
O O6 0.250387 0.044974 0.407853
O O7 0.125423 0.033171 0.231366
O O8 0.471997 0.748794 0.883774
O O9 0.463004 0.582070 0.857364
O O10 0.267599 0.667900 0.885596
O O11 0.534411 0.912517 0.881946
O O12 0.569910 0.815249 0.712722
O O13 0.401759 0.929163 0.435829
#
# Coordination Sequence:
#
# PCOD9329684 Si02
#       8
#     8   8   8   8   4   4   8   4
#     4  10  22  41  61  94 131 180 216 273 338 404
#     4  11  21  36  61  94 133 173 209 273 341 410
#     4  11  22  40  63  93 133 174 221 270 337 401
#     4  11  22  40  63  93 133 174 221 270 337 401
#     4  12  22  41  64  95 134 180 220 278 337 405
#     4  12  22  41  64  95 134 180 220 278 337 405
#     4  10  22  39  62  96 134 166 218 281 336 412
#     4  10  18  36  56 100 128 160 204 274 356 402
#
# _framework density 24.068705000000001
#
# number of rings (size 3 to 8) (size 9 to 14) (size 15 to 20)
#    0.000    1.231    6.154    0.923    0.000    1.846 
#    0.000    0.000    0.000    5.538    0.000    0.000 
#    0.000    0.000    0.000    0.000    0.000    0.000 
#
# Total GULP energy -145153.722778 kJ/mol
# GULP energy per Si atom -5582.835491 kJ/mol
# Density = 2.401392 g / cm^3
# Si number density = 24.068705 Si / 1000 Ang^3
#
#
#
# Elastic Constant Matrix: (Units=GPa)
#
#
# Indices 1 2 3 4 5 6 
#
# 1 158.4138 61.8348 19.3470 0.0000 0.0000 0.0000
# 2 61.8348 186.4513 20.2078 0.0001 0.0000 0.0000
# 3 19.3470 20.2078 101.2150 0.0004 -0.0001 -0.0002
# 4 0.0000 0.0001 0.0004 -4.1253 -0.0001 -0.0001
# 5 0.0000 0.0000 -0.0001 -0.0001 21.7029 0.0000
# 6 0.0000 0.0000 -0.0002 -0.0001 0.0000 36.6413
#
#
#
# Elastic Compliance Matrix: (Units=1/GPa)
#
#
# Indices 1 2 3 4 5 6 
#
# 1 0.007337 -0.002332 -0.000937 0.000000 0.000000 0.000000
# 2 -0.002332 0.006223 -0.000797 0.000000 0.000000 0.000000
# 3 -0.000937 -0.000797 0.010218 0.000001 0.000000 0.000000
# 4 0.000000 0.000000 0.000001 -0.242405 -0.000001 -0.000001
# 5 0.000000 0.000000 0.000000 -0.000001 0.046077 0.000000
# 6 0.000000 0.000000 0.000000 -0.000001 0.000000 0.027292
#
#
# Mechanical properties :
#
#
# Convention : Reuss Voigt Hill
#
# Bulk Modulus (GPa) = 63.90822 72.09548 68.00185
# Shear Modulus (GPa) = -37.90403 33.82316 -2.04043
#
# Velocity S-wave (km/s) = -3.97271 3.75277 -0.92173
# Velocity P-wave (km/s) = 2.35940 6.98547 5.21361
#
# Compressibility (1/GPa) = 0.01564744
#
# Stress axis : x y z
#
# Youngs Moduli (GPa) = 136.29214 160.69461 97.86534
#
# Poissons Ratio (x) = 0.37470 0.09169
# Poissons Ratio (y) = 0.31780 0.07797
# Poissons Ratio (z) = 0.12770 0.12803
#
# Static dielectric constant tensor:
#      x y z
#    x 2.001560 0.000000 0.000000 
#    y 0.000000 1.911860 0.000000 
#    z 0.000000 0.000000 1.946290 
# 
# From -- ./inp_files/21004.got.cif
#   From: 2010.05.17/outbox.cif.g08.bks.cpg/sg23_11_cif.got.tgz:21004.got - 2010.06.04 12:02:01.
