data_PCOD9329486
_publ_section_title
;
Structure prediction by ZEFSAII (Michael W. Deem and Ramdas Pophale) SiO2 
 PCOD9329486
Probable space group: I 2 2 2
;
_chemical_formula_sum "Si O2"
_cell_formula_units_Z 44
_cell_length_a 9.159268
_cell_length_b 14.460001
_cell_length_c 15.474131
_cell_angle_alpha 90.000000
_cell_angle_beta 90.000000
_cell_angle_gamma 90.000000
_cell_volume 2049.440710
_symmetry_space_group_name_H-M "I 2 2 2"
_symmetry_group_IT_number 23
_symmetry_cell_setting 'orthorhombic'
loop_
_space_group_symop_operation_xyz
x,y,z
-x,-y,z
x,-y,-z
-x,y,-z
1/2+x,1/2+y,1/2+z
1/2-x,1/2-y,1/2+z
1/2+x,1/2-y,1/2-z
1/2-x,1/2+y,1/2-z
loop_
_atom_site_type_symbol
_atom_site_label
_atom_site_fract_x
_atom_site_fract_y
_atom_site_fract_z
Si Si1 0.827627 0.491879 0.830654
Si Si2 0.551580 0.596234 0.635917
Si Si3 0.145666 0.176368 0.298983
Si Si4 0.422965 0.599650 0.914652
Si Si5 0.737509 0.000000 0.000000
Si Si6 0.275563 0.881280 0.150678
O O1 0.753550 0.594550 0.832087
O O2 0.745686 0.426468 0.901396
O O3 0.797646 0.444804 0.736327
O O4 0.000000 0.500000 0.844000
O O5 0.500000 0.500000 0.682846
O O6 0.641514 0.663238 0.696668
O O7 0.653799 0.562206 0.559067
O O8 0.391966 0.635149 0.619285
O O9 0.173114 0.279397 0.327881
O O10 0.982758 0.154087 0.332731
O O11 0.500000 0.500000 0.909539
O O12 0.500000 0.642449 0.000000
O O13 0.655335 0.064131 0.069229
#
# Coordination Sequence:
#
# PCOD9329486 Si02
#       6
#     8   8   8   8   4   8
#     4  11  23  40  64 100 139 176 227 298 354 423
#     4  10  17  39  68  93 130 180 241 289 342 422
#     4  11  21  39  66  96 129 185 236 277 364 435
#     4   9  19  42  66  86 123 176 226 276 345 431
#     4  10  21  42  71 100 137 192 243 306 351 406
#     4  11  22  38  65 102 136 178 237 298 350 416
#
# _framework density 21.469273000000001
#
# number of rings (size 3 to 8) (size 9 to 14) (size 15 to 20)
#    0.000    1.636    5.455    3.000    2.545    0.000 
#    3.273   11.364    0.000    0.000    0.000    0.000 
#    0.000    0.000    0.000    0.000    0.000    0.000 
#
# Total GULP energy -122495.020483 kJ/mol
# GULP energy per Si atom -5567.955476 kJ/mol
# Density = 2.142041 g / cm^3
# Si number density = 21.469273 Si / 1000 Ang^3
#
#
#
# Elastic Constant Matrix: (Units=GPa)
#
#
# Indices 1 2 3 4 5 6 
#
# 1 111.4435 29.6992 27.6119 0.0000 0.0000 0.0000
# 2 29.6992 121.8642 43.3311 0.0000 0.0000 0.0000
# 3 27.6119 43.3311 118.2082 0.0000 0.0000 0.0000
# 4 0.0000 0.0000 0.0000 24.3641 0.0000 0.0000
# 5 0.0000 0.0000 0.0000 0.0000 18.5745 0.0000
# 6 0.0000 0.0000 0.0000 0.0000 0.0000 23.5529
#
#
#
# Elastic Compliance Matrix: (Units=1/GPa)
#
#
# Indices 1 2 3 4 5 6 
#
# 1 0.009864 -0.001822 -0.001636 0.000000 0.000000 0.000000
# 2 -0.001822 0.009772 -0.003157 0.000000 0.000000 0.000000
# 3 -0.001636 -0.003157 0.009999 0.000000 0.000000 0.000000
# 4 0.000000 0.000000 0.000000 0.041044 0.000000 0.000000
# 5 0.000000 0.000000 0.000000 0.000000 0.053837 0.000000
# 6 0.000000 0.000000 0.000000 0.000000 0.000000 0.042458
#
#
# Mechanical properties :
#
#
# Convention : Reuss Voigt Hill
#
# Bulk Modulus (GPa) = 60.95506 61.42225 61.18865
# Shear Modulus (GPa) = 26.92911 30.02321 28.47616
#
# Velocity S-wave (km/s) = 3.54547 3.74361 3.64588
# Velocity P-wave (km/s) = 6.72412 6.88169 6.80336
#
# Compressibility (1/GPa) = 0.01640553
#
# Stress axis : x y z
#
# Youngs Moduli (GPa) = 101.37716 102.32999 100.01072
#
# Poissons Ratio (x) = 0.18646 0.16364
# Poissons Ratio (y) = 0.18473 0.31569
# Poissons Ratio (z) = 0.16587 0.32301
#
# Static dielectric constant tensor:
#      x y z
#    x 1.818920 0.000000 0.000000 
#    y 0.000000 1.788660 0.000000 
#    z 0.000000 0.000000 1.918820 
# 
# From -- ./inp_files/23673.got.cif
#   From: 2010.05.17/outbox.cif.g08.bks.cpg/sg23_12_cif.got.tgz:23673.got - 2010.06.04 12:02:01.
