data_PCOD9329450
_publ_section_title
;
Structure prediction by ZEFSAII (Michael W. Deem and Ramdas Pophale) SiO2 
 PCOD9329450
Probable space group: I 2 2 2
;
_chemical_formula_sum "Si O2"
_cell_formula_units_Z 52
_cell_length_a 28.270007
_cell_length_b 18.398048
_cell_length_c 5.216805
_cell_angle_alpha 90.000000
_cell_angle_beta 90.000000
_cell_angle_gamma 90.000000
_cell_volume 2713.327816
_symmetry_space_group_name_H-M "I 2 2 2"
_symmetry_group_IT_number 23
_symmetry_cell_setting 'orthorhombic'
loop_
_space_group_symop_operation_xyz
x,y,z
-x,-y,z
x,-y,-z
-x,y,-z
1/2+x,1/2+y,1/2+z
1/2-x,1/2-y,1/2+z
1/2+x,1/2-y,1/2-z
1/2-x,1/2+y,1/2-z
loop_
_atom_site_type_symbol
_atom_site_label
_atom_site_fract_x
_atom_site_fract_y
_atom_site_fract_z
Si Si1 0.846262 0.566916 0.133297
Si Si2 0.393160 0.644471 0.037580
Si Si3 0.161174 0.712956 0.618431
Si Si4 0.943374 0.915047 0.972720
Si Si5 0.709279 0.579268 0.875399
Si Si6 0.233365 0.500000 0.500000
Si Si7 0.709501 0.816770 0.386598
O O1 0.862122 0.633617 0.317836
O O2 0.802290 0.531804 0.287406
O O3 0.873896 0.500000 0.000000
O O4 0.825557 0.613415 0.899279
O O5 0.376738 0.728135 0.030087
O O6 0.423262 0.629715 0.289987
O O7 0.344565 0.600074 0.081840
O O8 0.421564 0.616599 0.789618
O O9 0.187656 0.732883 0.887139
O O10 0.201285 0.709524 0.399631
O O11 0.000000 0.912250 0.000000
O O12 0.929274 0.000000 0.000000
O O13 0.731313 0.563476 0.594826
O O14 0.741356 0.646523 0.966981
O O15 0.716447 0.500000 0.000000
#
# Coordination Sequence:
#
# PCOD9329450 Si02
#       7
#     8   8   8   8   8   4   8
#     4  10  17  31  55  77 112 174 226 247 272 332
#     4  12  27  39  63  95 123 149 195 274 319 366
#     4  10  21  37  51  83 123 164 205 249 299 350
#     4  11  25  50  73  90 112 149 197 252 332 404
#     4  12  22  32  52  81 118 163 223 257 293 342
#     4  12  16  34  52  76 113 174 227 250 278 336
#     4  10  19  34  53  71 119 175 210 241 278 337
#
# _framework density 19.164659
#
# number of rings (size 3 to 8) (size 9 to 14) (size 15 to 20)
#    0.923    0.154    4.615    2.769    3.231    2.462 
#    0.000    0.000    0.000    0.000    0.000    0.000 
#    0.000    0.615    1.231    0.154    0.000    0.000 
#
# Total GULP energy -144744.510405 kJ/mol
# GULP energy per Si atom -5567.096554 kJ/mol
# Density = 1.912104 g / cm^3
# Si number density = 19.164659 Si / 1000 Ang^3
#
#
#
# Elastic Constant Matrix: (Units=GPa)
#
#
# Indices 1 2 3 4 5 6 
#
# 1 41.0639 10.7876 9.7378 0.0000 0.0000 0.0000
# 2 10.7876 97.4480 14.6022 0.0000 0.0000 0.0000
# 3 9.7378 14.6022 94.5698 0.0000 0.0000 0.0000
# 4 0.0000 0.0000 0.0000 15.2418 0.0000 0.0000
# 5 0.0000 0.0000 0.0000 0.0000 34.9628 0.0000
# 6 0.0000 0.0000 0.0000 0.0000 0.0000 11.2282
#
#
#
# Elastic Compliance Matrix: (Units=1/GPa)
#
#
# Indices 1 2 3 4 5 6 
#
# 1 0.025539 -0.002491 -0.002245 0.000000 0.000000 0.000000
# 2 -0.002491 0.010748 -0.001403 0.000000 0.000000 0.000000
# 3 -0.002245 -0.001403 0.011022 0.000000 0.000000 0.000000
# 4 0.000000 0.000000 0.000000 0.065609 0.000000 0.000000
# 5 0.000000 0.000000 0.000000 0.000000 0.028602 0.000000
# 6 0.000000 0.000000 0.000000 0.000000 0.000000 0.089061
#
#
# Mechanical properties :
#
#
# Convention : Reuss Voigt Hill
#
# Bulk Modulus (GPa) = 28.54620 33.70412 31.12516
# Shear Modulus (GPa) = 19.64357 25.48348 22.56352
#
# Velocity S-wave (km/s) = 3.20502 3.65048 3.43498
# Velocity P-wave (km/s) = 5.35012 5.94918 5.65758
#
# Compressibility (1/GPa) = 0.03503094
#
# Stress axis : x y z
#
# Youngs Moduli (GPa) = 39.15569 93.04182 90.72739
#
# Poissons Ratio (x) = 0.23175 0.20370
# Poissons Ratio (y) = 0.09753 0.12730
# Poissons Ratio (z) = 0.08791 0.13054
#
# Static dielectric constant tensor:
#      x y z
#    x 1.677350 0.000000 0.000000 
#    y 0.000000 1.761690 0.000000 
#    z 0.000000 0.000000 1.784770 
# 
# From -- ./inp_files/4994.got.cif
#   From: 2010.05.17/outbox.cif.g08.bks.cpg/sg23_3_cif.got.tgz:4994.got - 2010.06.04 12:02:01.
