data_PCOD9329482
_publ_section_title
;
Structure prediction by ZEFSAII (Michael W. Deem and Ramdas Pophale) SiO2 
 PCOD9329482
Probable space group: I 2 2 2
;
_chemical_formula_sum "Si O2"
_cell_formula_units_Z 38
_cell_length_a 12.241048
_cell_length_b 7.672558
_cell_length_c 24.980089
_cell_angle_alpha 90.000000
_cell_angle_beta 90.000000
_cell_angle_gamma 90.000000
_cell_volume 2346.133725
_symmetry_space_group_name_H-M "I 2 2 2"
_symmetry_group_IT_number 23
_symmetry_cell_setting 'orthorhombic'
loop_
_space_group_symop_operation_xyz
x,y,z
-x,-y,z
x,-y,-z
-x,y,-z
1/2+x,1/2+y,1/2+z
1/2-x,1/2-y,1/2+z
1/2+x,1/2-y,1/2-z
1/2-x,1/2+y,1/2-z
loop_
_atom_site_type_symbol
_atom_site_label
_atom_site_fract_x
_atom_site_fract_y
_atom_site_fract_z
Si Si1 0.500000 0.500000 0.254167
Si Si2 0.696209 0.474788 0.339214
Si Si3 0.000000 0.500000 0.000000
Si Si4 0.598373 0.186751 0.401527
Si Si5 0.589169 0.142150 0.781265
Si Si6 0.136495 0.644734 0.156329
O O1 0.602202 0.457783 0.293344
O O2 0.536456 0.666186 0.219932
O O3 0.653747 0.370779 0.390890
O O4 0.804403 0.385619 0.316775
O O5 0.707839 0.681286 0.349291
O O6 0.928981 0.622565 0.039062
O O7 0.482066 0.189688 0.369736
O O8 0.668316 0.032864 0.373309
O O9 0.622053 0.108707 0.719116
O O10 0.500000 0.000000 0.796723
#
# Coordination Sequence:
#
# PCOD9329482 Si02
#       6
#     4   8   2   8   8   8
#     4  10  22  32  46  75 102 149 186 202 260 312
#     4  11  20  31  51  69 106 145 176 212 264 314
#     4   8  20  32  58  72 104 132 180 216 290 302
#     4  10  17  36  49  73 102 138 165 230 258 321
#     4  11  21  31  46  73 106 150 182 210 251 322
#     4   9  18  29  47  67 102 134 173 204 256 307
#
# _framework density 16.196860000000001
#
# number of rings (size 3 to 8) (size 9 to 14) (size 15 to 20)
#    0.000    2.105    6.316    0.000   11.789    0.000 
#    0.000    8.421    0.000    0.000    0.000    0.000 
#    0.000   34.526    0.000    0.000    0.000    0.000 
#
# Total GULP energy -105877.608923 kJ/mol
# GULP energy per Si atom -5572.505733 kJ/mol
# Density = 1.616000 g / cm^3
# Si number density = 16.196860 Si / 1000 Ang^3
#
#
#
# Elastic Constant Matrix: (Units=GPa)
#
#
# Indices 1 2 3 4 5 6 
#
# 1 52.2904 33.9501 16.0972 0.0000 0.0000 0.0000
# 2 33.9501 89.6144 7.4082 0.0000 0.0000 0.0000
# 3 16.0972 7.4082 52.5162 0.0000 0.0000 0.0000
# 4 0.0000 0.0000 0.0000 14.8697 0.0000 0.0000
# 5 0.0000 0.0000 0.0000 0.0000 -3.5837 0.0000
# 6 0.0000 0.0000 0.0000 0.0000 0.0000 20.1743
#
#
#
# Elastic Compliance Matrix: (Units=1/GPa)
#
#
# Indices 1 2 3 4 5 6 
#
# 1 0.027758 -0.009929 -0.007108 0.000000 0.000000 0.000000
# 2 -0.009929 0.014842 0.000950 0.000000 0.000000 0.000000
# 3 -0.007108 0.000950 0.021086 0.000000 0.000000 0.000000
# 4 0.000000 0.000000 0.000000 0.067251 0.000000 0.000000
# 5 0.000000 0.000000 0.000000 0.000000 -0.279039 0.000000
# 6 0.000000 0.000000 0.000000 0.000000 0.000000 0.049568
#
#
# Mechanical properties :
#
#
# Convention : Reuss Voigt Hill
#
# Bulk Modulus (GPa) = 31.73295 34.37024 33.05159
# Shear Modulus (GPa) = -89.51562 15.42309 -37.04627
#
# Velocity S-wave (km/s) = -7.44226 3.08917 -4.78771
# Velocity P-wave (km/s) = 7.36309 5.83012 3.18000
#
# Compressibility (1/GPa) = 0.03151299
#
# Stress axis : x y z
#
# Youngs Moduli (GPa) = 36.02527 67.37716 47.42374
#
# Poissons Ratio (x) = 0.66896 0.33708
# Poissons Ratio (y) = 0.35768 -0.04504
# Poissons Ratio (z) = 0.25606 -0.06398
#
# Static dielectric constant tensor:
#      x y z
#    x 1.542090 0.000000 0.000000 
#    y 0.000000 1.611020 0.000000 
#    z 0.000000 0.000000 1.520370 
# 
# From -- ./inp_files/12506.got.cif
#   From: 2010.05.17/outbox.cif.g08.bks.cpg/sg23_7_cif.got.tgz:12506.got - 2010.06.04 12:02:01.
