data_PCOD9329359
_publ_section_title
;
Structure prediction by ZEFSAII (Michael W. Deem and Ramdas Pophale) SiO2 
 PCOD9329359
Probable space group: I 2 2 2
;
_chemical_formula_sum "Si O2"
_cell_formula_units_Z 52
_cell_length_a 17.394937
_cell_length_b 25.018547
_cell_length_c 5.211672
_cell_angle_alpha 90.000000
_cell_angle_beta 90.000000
_cell_angle_gamma 90.000000
_cell_volume 2268.099063
_symmetry_space_group_name_H-M "I 2 2 2"
_symmetry_group_IT_number 23
_symmetry_cell_setting 'orthorhombic'
loop_
_space_group_symop_operation_xyz
x,y,z
-x,-y,z
x,-y,-z
-x,y,-z
1/2+x,1/2+y,1/2+z
1/2-x,1/2-y,1/2+z
1/2+x,1/2-y,1/2-z
1/2-x,1/2+y,1/2-z
loop_
_atom_site_type_symbol
_atom_site_label
_atom_site_fract_x
_atom_site_fract_y
_atom_site_fract_z
Si Si1 0.916975 0.352584 0.580194
Si Si2 0.626329 0.668029 0.467195
Si Si3 0.270418 0.328590 0.968153
Si Si4 0.767573 0.000000 0.500000
Si Si5 0.114497 0.284083 0.918073
Si Si6 0.289930 0.077856 0.153201
Si Si7 0.129824 0.943764 0.120526
O O1 0.915744 0.322763 0.854118
O O2 0.852803 0.398315 0.536543
O O3 0.000000 0.374715 0.500000
O O4 0.899735 0.308179 0.362335
O O5 0.663868 0.673143 0.750603
O O6 0.583623 0.724014 0.428613
O O7 0.583838 0.611467 0.407006
O O8 0.692303 0.668080 0.245867
O O9 0.218588 0.379542 0.884621
O O10 0.207226 0.281986 0.957654
O O11 0.708668 0.979764 0.284330
O O12 0.829965 0.957325 0.608342
O O13 0.205474 0.072648 0.036602
O O14 0.099711 0.000000 0.000000
#
# Coordination Sequence:
#
# PCOD9329359 Si02
#       7
#     8   8   8   4   8   8   8
#     4  11  24  40  56  75 101 143 190 242 283 308
#     4  11  19  31  50  80 112 139 170 206 260 334
#     4  10  18  30  49  79 108 137 165 208 266 325
#     4  10  16  32  52  81 106 146 183 212 262 326
#     4  11  21  35  54  78 104 136 178 224 273 330
#     4   9  19  31  54  75 105 143 185 221 263 322
#     4   9  18  30  48  78 113 146 172 205 259 330
#
# _framework density 22.926686
#
# number of rings (size 3 to 8) (size 9 to 14) (size 15 to 20)
#    0.000    1.846    1.538    5.077    2.154    0.000 
#    0.000    0.000    0.000    5.077    0.000    0.000 
#    0.000    3.692    0.000    0.000    0.000    0.000 
#
# Total GULP energy -144838.770486 kJ/mol
# GULP energy per Si atom -5570.721942 kJ/mol
# Density = 2.287450 g / cm^3
# Si number density = 22.926686 Si / 1000 Ang^3
#
#
#
# Elastic Constant Matrix: (Units=GPa)
#
#
# Indices 1 2 3 4 5 6 
#
# 1 42.1779 14.1562 -0.8533 0.0000 0.0000 0.0000
# 2 14.1562 82.6349 14.7052 0.0000 0.0000 0.0000
# 3 -0.8533 14.7052 105.2074 0.0000 0.0000 0.0000
# 4 0.0000 0.0000 0.0000 34.1019 0.0000 0.0000
# 5 0.0000 0.0000 0.0000 0.0000 10.1909 0.0000
# 6 0.0000 0.0000 0.0000 0.0000 0.0000 -7.4135
#
#
#
# Elastic Compliance Matrix: (Units=1/GPa)
#
#
# Indices 1 2 3 4 5 6 
#
# 1 0.025226 -0.004469 0.000829 0.000000 0.000000 0.000000
# 2 -0.004469 0.013202 -0.001882 0.000000 0.000000 0.000000
# 3 0.000829 -0.001882 0.009775 0.000000 0.000000 0.000000
# 4 0.000000 0.000000 0.000000 0.029324 0.000000 0.000000
# 5 0.000000 0.000000 0.000000 0.000000 0.098126 0.000000
# 6 0.000000 0.000000 0.000000 0.000000 0.000000 -0.134889
#
#
# Mechanical properties :
#
#
# Convention : Reuss Voigt Hill
#
# Bulk Modulus (GPa) = 26.91076 31.78183 29.34629
# Shear Modulus (GPa) = 77.89078 20.84333 49.36705
#
# Velocity S-wave (km/s) = 5.83503 3.01845 4.64535
# Velocity P-wave (km/s) = 7.56043 5.10299 6.44983
#
# Compressibility (1/GPa) = 0.03715986
#
# Stress axis : x y z
#
# Youngs Moduli (GPa) = 39.64189 75.74708 102.30440
#
# Poissons Ratio (x) = 0.33851 -0.08484
# Poissons Ratio (y) = 0.17716 0.19249
# Poissons Ratio (z) = -0.03287 0.14252
#
# Static dielectric constant tensor:
#      x y z
#    x 1.928750 0.000000 0.000000 
#    y 0.000000 2.131480 0.000000 
#    z 0.000000 0.000000 1.887530 
# 
# From -- ./inp_files/3454.got.cif
#   From: 2010.05.17/outbox.cif.g08.bks.cpg/sg23_2_cif.got.tgz:3454.got - 2010.06.04 12:02:01.
