data_PCOD9329483
_publ_section_title
;
Structure prediction by ZEFSAII (Michael W. Deem and Ramdas Pophale) SiO2 
 PCOD9329483
Probable space group: I 2 2 2
;
_chemical_formula_sum "Si O2"
_cell_formula_units_Z 44
_cell_length_a 14.225562
_cell_length_b 9.249974
_cell_length_c 18.837712
_cell_angle_alpha 90.000000
_cell_angle_beta 90.000000
_cell_angle_gamma 90.000000
_cell_volume 2478.780653
_symmetry_space_group_name_H-M "I 2 2 2"
_symmetry_group_IT_number 23
_symmetry_cell_setting 'orthorhombic'
loop_
_space_group_symop_operation_xyz
x,y,z
-x,-y,z
x,-y,-z
-x,y,-z
1/2+x,1/2+y,1/2+z
1/2-x,1/2-y,1/2+z
1/2+x,1/2-y,1/2-z
1/2-x,1/2+y,1/2-z
loop_
_atom_site_type_symbol
_atom_site_label
_atom_site_fract_x
_atom_site_fract_y
_atom_site_fract_z
Si Si1 0.500000 0.702626 0.500000
Si Si2 0.000000 0.000000 0.132047
Si Si3 0.000000 0.500000 0.158508
Si Si4 0.990794 0.334624 0.702888
Si Si5 0.359126 0.617445 0.753582
Si Si6 0.163822 0.398187 0.940257
Si Si7 0.204659 0.814581 0.680736
O O1 0.527364 0.620256 0.573096
O O2 0.591198 0.792161 0.478524
O O3 0.918846 0.058711 0.185140
O O4 0.990173 0.634751 0.211927
O O5 0.906634 0.484100 0.112547
O O6 0.893476 0.268237 0.678509
O O7 0.000000 0.500000 0.674102
O O8 0.072106 0.214168 0.696557
O O9 0.276558 0.725141 0.729812
O O10 0.316219 0.475738 0.790638
O O11 0.243211 0.324176 0.894189
O O12 0.205939 0.500000 0.000000
#
# Coordination Sequence:
#
# PCOD9329483 Si02
#       7
#     4   4   4   8   8   8   8
#     4  11  21  36  58  84 131 169 196 252 317 384
#     4  11  22  36  60  90 125 172 194 256 333 358
#     4  10  17  36  60  86 124 161 200 248 342 361
#     4  10  21  38  63  92 126 162 198 272 328 363
#     4  12  22  39  61  94 132 162 208 270 315 378
#     4  12  22  35  60  88 126 173 203 247 308 396
#     4  12  23  37  60  95 126 166 220 251 317 384
#
# _framework density 17.750664
#
# number of rings (size 3 to 8) (size 9 to 14) (size 15 to 20)
#    0.545    0.182    7.273    2.182    0.000    1.455 
#    0.000    0.000    0.000    2.182    0.000    1.273 
#    0.000    0.000    0.000    0.000    0.000    0.000 
#
# Total GULP energy -122600.005555 kJ/mol
# GULP energy per Si atom -5572.727525 kJ/mol
# Density = 1.771026 g / cm^3
# Si number density = 17.750664 Si / 1000 Ang^3
#
#
#
# Elastic Constant Matrix: (Units=GPa)
#
#
# Indices 1 2 3 4 5 6 
#
# 1 128.7554 71.7920 28.3679 0.0000 0.0000 0.0000
# 2 71.7920 120.8033 32.1620 0.0000 0.0000 0.0000
# 3 28.3679 32.1620 51.3627 0.0000 0.0000 0.0000
# 4 0.0000 0.0000 0.0000 12.0638 0.0000 0.0000
# 5 0.0000 0.0000 0.0000 0.0000 2.1690 0.0000
# 6 0.0000 0.0000 0.0000 0.0000 0.0000 74.7479
#
#
#
# Elastic Compliance Matrix: (Units=1/GPa)
#
#
# Indices 1 2 3 4 5 6 
#
# 1 0.011892 -0.006383 -0.002571 0.000000 0.000000 0.000000
# 2 -0.006383 0.013360 -0.004840 0.000000 0.000000 0.000000
# 3 -0.002571 -0.004840 0.023920 0.000000 0.000000 0.000000
# 4 0.000000 0.000000 0.000000 0.082893 0.000000 0.000000
# 5 0.000000 0.000000 0.000000 0.000000 0.461040 0.000000
# 6 0.000000 0.000000 0.000000 0.000000 0.000000 0.013378
#
#
# Mechanical properties :
#
#
# Convention : Reuss Voigt Hill
#
# Bulk Modulus (GPa) = 46.33176 62.84057 54.58616
# Shear Modulus (GPa) = 7.79707 29.03612 18.41660
#
# Velocity S-wave (km/s) = 2.09812 4.04886 3.22454
# Velocity P-wave (km/s) = 5.65929 7.57208 6.68446
#
# Compressibility (1/GPa) = 0.02158347
#
# Stress axis : x y z
#
# Youngs Moduli (GPa) = 84.08927 74.85151 41.80526
#
# Poissons Ratio (x) = 0.47776 0.10750
# Poissons Ratio (y) = 0.53672 0.20235
# Poissons Ratio (z) = 0.21622 0.36230
#
# Static dielectric constant tensor:
#      x y z
#    x 1.588810 0.000000 0.000000 
#    y 0.000000 1.687350 0.000000 
#    z 0.000000 0.000000 1.615550 
# 
# From -- ./inp_files/24699.got.cif
#   From: 2010.05.17/outbox.cif.g08.bks.cpg/sg23_13_cif.got.tgz:24699.got - 2010.06.04 12:02:01.
