data_PCOD9329103
_publ_section_title
;
Structure prediction by ZEFSAII (Michael W. Deem and Ramdas Pophale) SiO2 
 PCOD9329103
Probable space group: F 2 2 2
;
_chemical_formula_sum "Si O2"
_cell_formula_units_Z 104
_cell_length_a 28.884495
_cell_length_b 22.725073
_cell_length_c 8.358462
_cell_angle_alpha 90.000000
_cell_angle_beta 90.000000
_cell_angle_gamma 90.000000
_cell_volume 5486.513326
_symmetry_space_group_name_H-M "F 2 2 2"
_symmetry_group_IT_number 22
_symmetry_cell_setting 'orthorhombic'
loop_
_space_group_symop_operation_xyz
x,y,z
-x,-y,z
x,-y,-z
-x,y,-z
x,1/2+y,1/2+z
-x,1/2-y,1/2+z
x,1/2-y,1/2-z
-x,1/2+y,1/2-z
1/2+x,y,1/2+z
1/2-x,-y,1/2+z
1/2+x,-y,1/2-z
1/2-x,y,1/2-z
1/2+x,1/2+y,z
1/2-x,1/2-y,z
1/2+x,1/2-y,-z
1/2-x,1/2+y,-z
loop_
_atom_site_type_symbol
_atom_site_label
_atom_site_fract_x
_atom_site_fract_y
_atom_site_fract_z
Si Si1 0.870113 0.500000 0.000000
Si Si2 0.151518 0.141340 0.934403
Si Si3 0.685124 0.885205 0.923577
Si Si4 0.273227 0.934944 0.572493
Si Si5 0.305031 0.758149 0.939522
Si Si6 0.550695 0.897729 0.495624
Si Si7 0.949443 0.004567 0.750843
O O1 0.839652 0.558741 0.004732
O O2 0.904618 0.506335 0.852633
O O3 0.167457 0.119851 0.758421
O O4 0.096510 0.137487 0.959712
O O5 0.178120 0.099050 0.061568
O O6 0.169125 0.206994 0.965199
O O7 0.739001 0.899860 0.953096
O O8 0.678204 0.822333 0.006897
O O9 0.250000 0.935355 0.750000
O O10 0.278386 0.000000 0.500000
O O11 0.312180 0.750000 0.750000
O O12 0.250000 0.750000 0.969587
O O13 0.500000 0.867862 0.500000
O O14 0.548418 0.952913 0.617708
O O15 0.555828 0.930907 0.326993
O O16 0.000000 0.000000 0.671850
#
# Coordination Sequence:
#
# PCOD9329103 Si02
#       7
#     8  16  16  16  16  16  16
#     4  12  23  36  62  98 140 156 207 262 328 378
#     4  12  24  41  69  88 128 173 211 266 325 372
#     4  12  25  41  61  99 129 167 207 262 319 391
#     4  12  26  39  58  92 133 170 211 259 320 388
#     4  11  25  45  66  89 124 172 226 262 308 384
#     4   9  20  38  62  94 125 166 216 252 313 384
#     4   9  19  37  60  90 128 168 210 261 312 376
#
# _framework density 18.955572
#
# number of rings (size 3 to 8) (size 9 to 14) (size 15 to 20)
#    0.000    1.077    3.846    3.923    6.462    0.615 
#    0.000    0.000    0.000    3.692    0.000    0.000 
#    0.000    0.000    0.000    0.000    0.000    0.000 
#
# Total GULP energy -145166.916309 kJ/mol
# GULP energy per Si atom -5583.342935 kJ/mol
# Density = 1.891243 g / cm^3
# Si number density = 18.955572 Si / 1000 Ang^3
#
#
#
# Elastic Constant Matrix: (Units=GPa)
#
#
# Indices 1 2 3 4 5 6 
#
# 1 135.9801 43.0688 35.0086 -0.0001 0.0000 0.0001
# 2 43.0688 129.8394 27.5457 0.0003 0.0000 0.0000
# 3 35.0086 27.5457 65.3106 0.0009 -0.0001 0.0000
# 4 -0.0001 0.0003 0.0009 20.6056 -0.0001 0.0000
# 5 0.0000 0.0000 -0.0001 -0.0001 25.4819 -0.0001
# 6 0.0001 0.0000 0.0000 0.0000 -0.0001 18.3999
#
#
#
# Elastic Compliance Matrix: (Units=1/GPa)
#
#
# Indices 1 2 3 4 5 6 
#
# 1 0.009055 -0.002168 -0.003939 0.000000 0.000000 0.000000
# 2 -0.002168 0.008978 -0.002624 0.000000 0.000000 0.000000
# 3 -0.003939 -0.002624 0.018530 -0.000001 0.000000 0.000000
# 4 0.000000 0.000000 -0.000001 0.048531 0.000000 0.000000
# 5 0.000000 0.000000 0.000000 0.000000 0.039244 0.000000
# 6 0.000000 0.000000 0.000000 0.000000 0.000000 0.054348
#
#
# Mechanical properties :
#
#
# Convention : Reuss Voigt Hill
#
# Bulk Modulus (GPa) = 52.35819 60.26406 56.31113
# Shear Modulus (GPa) = 24.68961 27.93128 26.31044
#
# Velocity S-wave (km/s) = 3.61293 3.84280 3.72964
# Velocity P-wave (km/s) = 6.71460 7.17989 6.95114
#
# Compressibility (1/GPa) = 0.01909921
#
# Stress axis : x y z
#
# Youngs Moduli (GPa) = 110.43819 111.38726 53.96658
#
# Poissons Ratio (x) = 0.24147 0.21260
# Poissons Ratio (y) = 0.23941 0.14163
# Poissons Ratio (z) = 0.43506 0.29233
#
# Static dielectric constant tensor:
#      x y z
#    x 1.677810 0.000000 0.000000 
#    y 0.000000 1.633540 0.000000 
#    z 0.000000 0.000000 1.716090 
# 
# From -- ./inp_files/14928.got.cif
#   From: 2010.05.17/outbox.cif.g08.bks.cpg/sg22_8_cif.got.tgz:14928.got - 2010.06.03 23:40:54.
