data_PCOD9329985
_publ_section_title
;
Structure prediction by ZEFSAII (Michael W. Deem and Ramdas Pophale) SiO2 
 PCOD9329985
Probable space group: I 2 2 2
;
_chemical_formula_sum "Si O2"
_cell_formula_units_Z 40
_cell_length_a 6.873364
_cell_length_b 16.956956
_cell_length_c 14.920106
_cell_angle_alpha 90.000000
_cell_angle_beta 90.000000
_cell_angle_gamma 90.000000
_cell_volume 1738.958212
_symmetry_space_group_name_H-M "I 2 2 2"
_symmetry_group_IT_number 23
_symmetry_cell_setting 'orthorhombic'
loop_
_space_group_symop_operation_xyz
x,y,z
-x,-y,z
x,-y,-z
-x,y,-z
1/2+x,1/2+y,1/2+z
1/2-x,1/2-y,1/2+z
1/2+x,1/2-y,1/2-z
1/2-x,1/2+y,1/2-z
loop_
_atom_site_type_symbol
_atom_site_label
_atom_site_fract_x
_atom_site_fract_y
_atom_site_fract_z
Si Si1 0.263353 0.225085 0.172486
Si Si2 0.636782 0.294126 0.124964
Si Si3 0.884511 0.840141 0.917650
Si Si4 0.933158 0.590591 0.294797
Si Si5 0.956083 0.592408 0.901768
O O1 0.406100 0.290539 0.131244
O O2 0.213032 0.235338 0.277338
O O3 0.397799 0.146293 0.164974
O O4 0.058943 0.208062 0.127967
O O5 0.727173 0.228451 0.058434
O O6 0.734273 0.379032 0.113135
O O7 0.765266 0.896438 0.850444
O O8 0.000000 0.879551 0.000000
O O9 0.930246 0.615307 0.189411
O O10 0.000000 0.500000 0.298771
O O11 0.000000 0.500000 0.907342
O O12 0.000000 0.626537 0.000000
#
# Coordination Sequence:
#
# PCOD9329985 Si02
#       5
#     8   8   8   8   8
#     4  10  20  37  62  89 124 165 223 263 341 394
#     4  10  19  35  61  92 127 171 214 282 330 403
#     4  11  23  39  61  94 128 172 226 284 335 406
#     4   9  21  40  62  90 128 174 219 274 340 403
#     4   9  18  36  65 100 136 174 218 276 342 414
#
# _framework density 23.002276999999999
#
# number of rings (size 3 to 8) (size 9 to 14) (size 15 to 20)
#    0.000    2.200    2.000    0.600    0.000    4.000 
#    0.000    5.000    0.000    4.800    0.000   30.800 
#    0.000    0.000    0.000    0.000    0.000    0.000 
#
# Total GULP energy -111540.822166 kJ/mol
# GULP energy per Si atom -5577.041108 kJ/mol
# Density = 2.294992 g / cm^3
# Si number density = 23.002277 Si / 1000 Ang^3
#
#
#
# Elastic Constant Matrix: (Units=GPa)
#
#
# Indices 1 2 3 4 5 6 
#
# 1 172.5626 43.4672 59.8354 0.0000 0.0000 0.0000
# 2 43.4672 89.4905 18.5802 0.0000 0.0000 0.0000
# 3 59.8354 18.5802 114.3182 0.0000 0.0000 0.0000
# 4 0.0000 0.0000 0.0000 27.2233 0.0000 0.0000
# 5 0.0000 0.0000 0.0000 0.0000 30.6331 0.0000
# 6 0.0000 0.0000 0.0000 0.0000 0.0000 36.1911
#
#
#
# Elastic Compliance Matrix: (Units=1/GPa)
#
#
# Indices 1 2 3 4 5 6 
#
# 1 0.007808 -0.003047 -0.003591 0.000000 0.000000 0.000000
# 2 -0.003047 0.012753 -0.000478 0.000000 0.000000 0.000000
# 3 -0.003591 -0.000478 0.010705 0.000000 0.000000 0.000000
# 4 0.000000 0.000000 0.000000 0.036733 0.000000 0.000000
# 5 0.000000 0.000000 0.000000 0.000000 0.032644 0.000000
# 6 0.000000 0.000000 0.000000 0.000000 0.000000 0.027631
#
#
# Mechanical properties :
#
#
# Convention : Reuss Voigt Hill
#
# Bulk Modulus (GPa) = 58.70742 68.90408 63.80575
# Shear Modulus (GPa) = 33.74146 35.77541 34.75844
#
# Velocity S-wave (km/s) = 3.83414 3.94801 3.89149
# Velocity P-wave (km/s) = 6.72151 7.12760 6.92753
#
# Compressibility (1/GPa) = 0.01703362
#
# Stress axis : x y z
#
# Youngs Moduli (GPa) = 128.07748 78.40991 93.41379
#
# Poissons Ratio (x) = 0.23889 0.33549
# Poissons Ratio (y) = 0.39021 0.04467
# Poissons Ratio (z) = 0.45999 0.03749
#
# Static dielectric constant tensor:
#      x y z
#    x 1.822220 0.000000 0.000000 
#    y 0.000000 1.902700 0.000000 
#    z 0.000000 0.000000 1.987810 
# 
# From -- ./inp_files/23028.got.cif
#   From: 2010.05.17/outbox.cif.g08.bks.cpg/sg23_12_cif.got.tgz:23028.got - 2010.06.04 12:02:01.
