data_PCOD9329390
_publ_section_title
;
Structure prediction by ZEFSAII (Michael W. Deem and Ramdas Pophale) SiO2 
 PCOD9329390
Probable space group: I 2 2 2
;
_chemical_formula_sum "Si O2"
_cell_formula_units_Z 44
_cell_length_a 9.594924
_cell_length_b 28.802855
_cell_length_c 8.551415
_cell_angle_alpha 90.000000
_cell_angle_beta 90.000000
_cell_angle_gamma 90.000000
_cell_volume 2363.279351
_symmetry_space_group_name_H-M "I 2 2 2"
_symmetry_group_IT_number 23
_symmetry_cell_setting 'orthorhombic'
loop_
_space_group_symop_operation_xyz
x,y,z
-x,-y,z
x,-y,-z
-x,y,-z
1/2+x,1/2+y,1/2+z
1/2-x,1/2-y,1/2+z
1/2+x,1/2-y,1/2-z
1/2-x,1/2+y,1/2-z
loop_
_atom_site_type_symbol
_atom_site_label
_atom_site_fract_x
_atom_site_fract_y
_atom_site_fract_z
Si Si1 0.027477 0.571377 0.258822
Si Si2 0.000000 0.500000 0.000000
Si Si3 0.180270 0.652035 0.659660
Si Si4 0.000000 0.500000 0.500000
Si Si5 0.966825 0.828219 0.683503
Si Si6 0.531897 0.775531 0.316210
Si Si7 0.761769 0.349384 0.291028
O O1 0.955750 0.539389 0.126981
O O2 0.081980 0.534952 0.387776
O O3 0.154170 0.606413 0.221301
O O4 0.909772 0.605598 0.322316
O O5 0.321350 0.650302 0.759694
O O6 0.085351 0.693576 0.728942
O O7 0.207653 0.657302 0.475213
O O8 0.000000 0.830546 0.500000
O O9 0.960860 0.774758 0.739351
O O10 0.098030 0.852141 0.766839
O O11 0.500000 0.771561 0.500000
O O12 0.675182 0.803996 0.293742
#
# Coordination Sequence:
#
# PCOD9329390 Si02
#       7
#     8   2   8   2   8   8   8
#     4  10  21  38  66  93 115 144 193 239 295 346
#     4  10  24  34  68  92 120 138 192 244 292 354
#     4  11  22  39  61  87 122 155 199 241 290 343
#     4  10  16  42  64  96 104 146 188 248 284 362
#     4  12  25  38  57  84 124 164 196 238 292 344
#     4  11  22  38  60  86 119 160 207 241 277 335
#     4  11  22  39  61  87 122 155 199 241 290 343
#
# _framework density 18.618196999999999
#
# number of rings (size 3 to 8) (size 9 to 14) (size 15 to 20)
#    0.000    1.091    1.818    6.545    7.636    0.000 
#    0.000    0.000    0.000    6.545    0.000    0.000 
#    0.000    0.000    0.000    0.000    0.000    0.000 
#
# Total GULP energy -122632.671592 kJ/mol
# GULP energy per Si atom -5574.212345 kJ/mol
# Density = 1.857582 g / cm^3
# Si number density = 18.618197 Si / 1000 Ang^3
#
#
#
# Elastic Constant Matrix: (Units=GPa)
#
#
# Indices 1 2 3 4 5 6 
#
# 1 92.5650 25.1785 -2.4406 0.0000 0.0000 0.0000
# 2 25.1785 91.1891 21.0890 -0.0001 0.0000 0.0000
# 3 -2.4406 21.0890 84.8196 -0.0010 0.0003 0.0000
# 4 0.0000 -0.0001 -0.0010 27.8614 0.0000 0.0000
# 5 0.0000 0.0000 0.0003 0.0000 29.6185 0.0000
# 6 0.0000 0.0000 0.0000 0.0000 0.0000 0.1530
#
#
#
# Elastic Compliance Matrix: (Units=1/GPa)
#
#
# Indices 1 2 3 4 5 6 
#
# 1 0.011798 -0.003540 0.001220 0.000000 0.000000 0.000001
# 2 -0.003540 0.012697 -0.003259 0.000000 0.000000 -0.000001
# 3 0.001220 -0.003259 0.012635 0.000000 0.000000 -0.000002
# 4 0.000000 0.000000 0.000000 0.035892 0.000000 0.000007
# 5 0.000000 0.000000 0.000000 0.000000 0.033763 0.000004
# 6 0.000001 -0.000001 -0.000002 0.000007 0.000004 6.537022
#
#
# Mechanical properties :
#
#
# Convention : Reuss Voigt Hill
#
# Bulk Modulus (GPa) = 38.50205 39.58085 39.04145
# Shear Modulus (GPa) = 0.75034 26.50970 13.63002
#
# Velocity S-wave (km/s) = 0.63552 3.77750 2.70863
# Velocity P-wave (km/s) = 4.61120 6.35070 5.54953
#
# Compressibility (1/GPa) = 0.02597264
#
# Stress axis : x y z
#
# Youngs Moduli (GPa) = 84.75868 78.75736 79.14474
#
# Poissons Ratio (x) = 0.27878 -0.09652
# Poissons Ratio (y) = 0.30002 0.25792
# Poissons Ratio (z) = -0.10337 0.25666
#
# Static dielectric constant tensor:
#      x y z
#    x 1.636820 0.000000 0.000000 
#    y 0.000000 1.625070 0.000000 
#    z 0.000000 0.000000 1.693180 
# 
# From -- ./inp_files/7276.got.cif
#   From: 2010.05.17/outbox.cif.g08.bks.cpg/sg23_4_cif.got.tgz:7276.got - 2010.06.04 12:02:01.
