data_PCOD9329006
_publ_section_title
;
Structure prediction by ZEFSAII (Michael W. Deem and Ramdas Pophale) SiO2 
 PCOD9329006
Probable space group: F 2 2 2
;
_chemical_formula_sum "Si O2"
_cell_formula_units_Z 80
_cell_length_a 5.418801
_cell_length_b 26.032673
_cell_length_c 26.113157
_cell_angle_alpha 90.000000
_cell_angle_beta 90.000000
_cell_angle_gamma 90.000000
_cell_volume 3683.675328
_symmetry_space_group_name_H-M "F 2 2 2"
_symmetry_group_IT_number 22
_symmetry_cell_setting 'orthorhombic'
loop_
_space_group_symop_operation_xyz
x,y,z
-x,-y,z
x,-y,-z
-x,y,-z
x,1/2+y,1/2+z
-x,1/2-y,1/2+z
x,1/2-y,1/2-z
-x,1/2+y,1/2-z
1/2+x,y,1/2+z
1/2-x,-y,1/2+z
1/2+x,-y,1/2-z
1/2-x,y,1/2-z
1/2+x,1/2+y,z
1/2-x,1/2-y,z
1/2+x,1/2-y,-z
1/2-x,1/2+y,-z
loop_
_atom_site_type_symbol
_atom_site_label
_atom_site_fract_x
_atom_site_fract_y
_atom_site_fract_z
Si Si1 0.989667 0.055537 0.131041
Si Si2 0.750000 0.250000 0.837312
Si Si3 0.500000 0.280923 0.000000
Si Si4 0.092025 0.669425 0.394564
Si Si5 0.013856 0.945427 0.697663
Si Si6 0.925368 0.166799 0.294001
O O1 0.011094 0.111025 0.104266
O O2 0.226499 0.055250 0.168287
O O3 0.726360 0.054417 0.160530
O O4 0.000000 0.000000 0.102536
O O5 0.936713 0.217152 0.871877
O O6 0.641549 0.205734 0.802373
O O7 0.250000 0.250000 0.017329
O O8 0.615834 0.313960 0.046672
O O9 0.306608 0.665032 0.351374
O O10 0.995406 0.890465 0.724241
O O11 0.000000 0.000000 0.726671
O O12 0.750000 0.187441 0.250000
#
# Coordination Sequence:
#
# PCOD9329006 Si02
#       6
#    16   8   8  16  16  16
#     4   9  18  36  65  95 130 171 217 273 334 394
#     4  12  22  43  66  90 138 174 223 266 340 400
#     4  12  26  44  69 100 129 176 230 288 338 398
#     4  11  24  42  66  98 133 176 228 278 342 399
#     4   9  18  38  64  92 128 173 223 275 326 388
#     4  11  25  42  64 101 135 184 226 276 339 412
#
# _framework density 21.717441000000001
#
# number of rings (size 3 to 8) (size 9 to 14) (size 15 to 20)
#    0.000    1.600    3.000    1.800    0.000    3.200 
#    0.000    8.500    0.000    0.000    0.000    5.600 
#    0.000    0.000    0.000    0.000    0.000    0.000 
#
# Total GULP energy -111421.293154 kJ/mol
# GULP energy per Si atom -5571.064658 kJ/mol
# Density = 2.166801 g / cm^3
# Si number density = 21.717441 Si / 1000 Ang^3
#
#
#
# Elastic Constant Matrix: (Units=GPa)
#
#
# Indices 1 2 3 4 5 6 
#
# 1 103.8206 3.6357 13.3786 0.0000 0.0000 0.0000
# 2 3.6357 174.8543 22.2303 0.0000 0.0000 0.0000
# 3 13.3786 22.2303 103.5091 0.0000 0.0000 0.0000
# 4 0.0000 0.0000 0.0000 81.2047 0.0000 0.0000
# 5 0.0000 0.0000 0.0000 0.0000 17.1193 0.0000
# 6 0.0000 0.0000 0.0000 0.0000 0.0000 28.7293
#
#
#
# Elastic Compliance Matrix: (Units=1/GPa)
#
#
# Indices 1 2 3 4 5 6 
#
# 1 0.009795 -0.000044 -0.001257 0.000000 0.000000 0.000000
# 2 -0.000044 0.005880 -0.001257 0.000000 0.000000 0.000000
# 3 -0.001257 -0.001257 0.010093 0.000000 0.000000 0.000000
# 4 0.000000 0.000000 0.000000 0.012315 0.000000 0.000000
# 5 0.000000 0.000000 0.000000 0.000000 0.058414 0.000000
# 6 0.000000 0.000000 0.000000 0.000000 0.000000 0.034808
#
#
# Mechanical properties :
#
#
# Convention : Reuss Voigt Hill
#
# Bulk Modulus (GPa) = 48.41831 51.18589 49.80210
# Shear Modulus (GPa) = 34.89079 48.27327 41.58203
#
# Velocity S-wave (km/s) = 4.01256 4.71976 4.38046
# Velocity P-wave (km/s) = 6.61896 7.30217 6.96894
#
# Compressibility (1/GPa) = 0.02065334
#
# Stress axis : x y z
#
# Youngs Moduli (GPa) = 102.08796 170.07427 99.07473
#
# Poissons Ratio (x) = 0.00747 0.12450
# Poissons Ratio (y) = 0.00448 0.12455
# Poissons Ratio (z) = 0.12829 0.21380
#
# Static dielectric constant tensor:
#      x y z
#    x 1.844940 0.000000 0.000000 
#    y 0.000000 1.847310 0.000000 
#    z 0.000000 0.000000 1.787970 
# 
# From -- ./inp_files/51286.got.cif
#   From: 2010.05.17/outbox.cif.g08.bks.cpg/sg22_26_cif.got.tgz:51286.got - 2010.06.03 23:40:54.
