data_PCOD9329887
_publ_section_title
;
Structure prediction by ZEFSAII (Michael W. Deem and Ramdas Pophale) SiO2 
 PCOD9329887
Probable space group: I 2 2 2
;
_chemical_formula_sum "Si O2"
_cell_formula_units_Z 26
_cell_length_a 9.442918
_cell_length_b 20.800204
_cell_length_c 7.487457
_cell_angle_alpha 90.000000
_cell_angle_beta 90.000000
_cell_angle_gamma 90.000000
_cell_volume 1470.646027
_symmetry_space_group_name_H-M "I 2 2 2"
_symmetry_group_IT_number 23
_symmetry_cell_setting 'orthorhombic'
loop_
_space_group_symop_operation_xyz
x,y,z
-x,-y,z
x,-y,-z
-x,y,-z
1/2+x,1/2+y,1/2+z
1/2-x,1/2-y,1/2+z
1/2+x,1/2-y,1/2-z
1/2-x,1/2+y,1/2-z
loop_
_atom_site_type_symbol
_atom_site_label
_atom_site_fract_x
_atom_site_fract_y
_atom_site_fract_z
Si Si1 0.357517 0.618213 0.677419
Si Si2 0.000000 0.000000 0.000000
Si Si3 0.158414 0.667398 0.967948
Si Si4 0.344213 0.311422 0.681397
O O1 0.407390 0.547366 0.622401
O O2 0.250227 0.622611 0.839163
O O3 0.499433 0.659792 0.721345
O O4 0.296420 0.651096 0.497563
O O5 0.146724 0.736661 0.869463
O O6 0.240846 0.677743 0.153389
O O7 0.000000 0.643519 0.000000
#
# Coordination Sequence:
#
# PCOD9329887 Si02
#       4
#     8   2   8   8
#     4  10  21  39  59  84 115 159 203 233 280 349
#     4   8  20  44  66  74 108 170 212 228 262 352
#     4  12  20  32  55  92 126 148 184 243 305 344
#     4  10  19  34  54  85 121 157 187 234 293 350
#
# _framework density 17.679303999999998
#
# number of rings (size 3 to 8) (size 9 to 14) (size 15 to 20)
#    0.000    1.846    6.154    0.923    0.000    1.231 
#    0.000   12.308    0.000   22.154    0.000    0.000 
#    0.000    0.000    0.000    0.000    0.000    0.000 
#
# Total GULP energy -72562.527393 kJ/mol
# GULP energy per Si atom -5581.732876 kJ/mol
# Density = 1.763907 g / cm^3
# Si number density = 17.679304 Si / 1000 Ang^3
#
#
#
# Elastic Constant Matrix: (Units=GPa)
#
#
# Indices 1 2 3 4 5 6 
#
# 1 115.9113 26.8777 87.3674 -0.0001 0.0000 0.0000
# 2 26.8777 85.1046 17.3660 -0.0003 0.0001 0.0000
# 3 87.3674 17.3660 106.6921 -0.0009 -0.0007 0.0001
# 4 -0.0001 -0.0003 -0.0009 11.0164 -0.0001 0.0000
# 5 0.0000 0.0001 -0.0007 -0.0001 27.5285 0.0000
# 6 0.0000 0.0000 0.0001 0.0000 0.0000 10.7097
#
#
#
# Elastic Compliance Matrix: (Units=1/GPa)
#
#
# Indices 1 2 3 4 5 6 
#
# 1 0.023573 -0.003626 -0.018713 -0.000001 -0.000001 0.000000
# 2 -0.003626 0.012712 0.000900 0.000000 0.000000 0.000000
# 3 -0.018713 0.000900 0.024550 0.000002 0.000001 0.000000
# 4 -0.000001 0.000000 0.000002 0.090774 0.000000 0.000000
# 5 -0.000001 0.000000 0.000001 0.000000 0.036326 0.000000
# 6 0.000000 0.000000 0.000000 0.000000 0.000000 0.093373
#
#
# Mechanical properties :
#
#
# Convention : Reuss Voigt Hill
#
# Bulk Modulus (GPa) = 55.68950 63.43672 59.56311
# Shear Modulus (GPa) = 15.14365 21.59071 18.36718
#
# Velocity S-wave (km/s) = 2.92991 3.49842 3.22671
# Velocity P-wave (km/s) = 6.55851 7.23038 6.90262
#
# Compressibility (1/GPa) = 0.01795671
#
# Stress axis : x y z
#
# Youngs Moduli (GPa) = 42.42125 78.66723 40.73335
#
# Poissons Ratio (x) = 0.28527 0.76225
# Poissons Ratio (y) = 0.15383 -0.03668
# Poissons Ratio (z) = 0.79384 -0.07084
#
# Static dielectric constant tensor:
#      x y z
#    x 1.606380 0.000000 0.000000 
#    y 0.000000 1.593770 0.000000 
#    z 0.000000 0.000000 1.603570 
# 
# From -- ./inp_files/6340.got.cif
#   From: 2010.05.17/outbox.cif.g08.bks.cpg/sg23_4_cif.got.tgz:6340.got - 2010.06.04 12:02:01.
