data_PCOD9329171
_publ_section_title
;
Structure prediction by ZEFSAII (Michael W. Deem and Ramdas Pophale) SiO2 
 PCOD9329171
Probable space group: F 2 2 2
;
_chemical_formula_sum "Si O2"
_cell_formula_units_Z 48
_cell_length_a 22.433827
_cell_length_b 4.970804
_cell_length_c 17.383052
_cell_angle_alpha 90.000000
_cell_angle_beta 90.000000
_cell_angle_gamma 90.000000
_cell_volume 1938.456390
_symmetry_space_group_name_H-M "F 2 2 2"
_symmetry_group_IT_number 22
_symmetry_cell_setting 'orthorhombic'
loop_
_space_group_symop_operation_xyz
x,y,z
-x,-y,z
x,-y,-z
-x,y,-z
x,1/2+y,1/2+z
-x,1/2-y,1/2+z
x,1/2-y,1/2-z
-x,1/2+y,1/2-z
1/2+x,y,1/2+z
1/2-x,-y,1/2+z
1/2+x,-y,1/2-z
1/2-x,y,1/2-z
1/2+x,1/2+y,z
1/2-x,1/2-y,z
1/2+x,1/2-y,-z
1/2-x,1/2+y,-z
loop_
_atom_site_type_symbol
_atom_site_label
_atom_site_fract_x
_atom_site_fract_y
_atom_site_fract_z
Si Si1 0.601100 0.500000 0.500000
Si Si2 0.567370 0.750000 0.750000
Si Si3 0.500000 0.500000 0.386797
Si Si4 0.849116 0.250000 0.750000
Si Si5 0.788853 0.491143 0.898206
O O1 0.552439 0.625309 0.440532
O O2 0.651436 0.394543 0.440396
O O3 0.529351 0.703656 0.673238
O O4 0.608674 0.498487 0.767428
O O5 0.811346 0.339772 0.822725
O O6 0.750000 0.250000 0.939968
O O7 0.750000 0.750000 0.879375
#
# Coordination Sequence:
#
# PCOD9329171 Si02
#       5
#     8   8   8   8  16
#     4  11  26  52  78 120 158 211 256 324 406 465
#     4  12  25  52  80 124 154 206 263 334 384 464
#     4  11  26  50  86 113 160 208 264 325 392 472
#     4  12  26  50  85 118 157 204 272 324 388 466
#     4  12  27  52  80 115 159 208 261 325 391 469
#
# _framework density 24.761972
#
# number of rings (size 3 to 8) (size 9 to 14) (size 15 to 20)
#    0.000    0.333    3.333    4.500    0.000    1.333 
#    0.000    0.000    0.000    0.000    0.000    0.000 
#    0.000    0.000    0.000    0.000    0.000    0.000 
#
# Total GULP energy -66968.320658 kJ/mol
# GULP energy per Si atom -5580.693388 kJ/mol
# Density = 2.470561 g / cm^3
# Si number density = 24.761972 Si / 1000 Ang^3
#
#
#
# Elastic Constant Matrix: (Units=GPa)
#
#
# Indices 1 2 3 4 5 6 
#
# 1 215.7033 81.4030 84.5707 0.0004 0.0001 -0.0001
# 2 81.4030 162.9732 37.0285 0.0035 0.0002 0.0005
# 3 84.5707 37.0285 156.3569 0.0004 0.0002 0.0000
# 4 0.0004 0.0035 0.0004 3.7108 -0.0003 0.0002
# 5 0.0001 0.0002 0.0002 -0.0003 89.2474 0.0007
# 6 -0.0001 0.0005 0.0000 0.0002 0.0007 47.6107
#
#
#
# Elastic Compliance Matrix: (Units=1/GPa)
#
#
# Indices 1 2 3 4 5 6 
#
# 1 0.006871 -0.002735 -0.003069 0.000002 0.000000 0.000000
# 2 -0.002735 0.007573 -0.000314 -0.000007 0.000000 0.000000
# 3 -0.003069 -0.000314 0.008130 0.000000 0.000000 0.000000
# 4 0.000002 -0.000007 0.000000 0.269484 0.000001 -0.000001
# 5 0.000000 0.000000 0.000000 0.000001 0.011205 0.000000
# 6 0.000000 0.000000 0.000000 -0.000001 0.000000 0.021004
#
#
# Mechanical properties :
#
#
# Convention : Reuss Voigt Hill
#
# Bulk Modulus (GPa) = 96.72511 104.55975 100.64243
# Shear Modulus (GPa) = 14.70807 50.24920 32.47863
#
# Velocity S-wave (km/s) = 2.43981 4.50965 3.62558
# Velocity P-wave (km/s) = 6.86175 8.33268 7.63273
#
# Compressibility (1/GPa) = 0.01033858
#
# Stress axis : x y z
#
# Youngs Moduli (GPa) = 145.53261 132.04080 123.00162
#
# Poissons Ratio (x) = 0.36111 0.37748
# Poissons Ratio (y) = 0.39801 0.03866
# Poissons Ratio (z) = 0.44663 0.04150
#
# Static dielectric constant tensor:
#      x y z
#    x 2.023530 0.000000 0.000000 
#    y 0.000000 2.023840 0.000000 
#    z 0.000000 0.000000 2.049020 
# 
# From -- ./inp_files/44516.got.cif
#   From: 2010.05.17/outbox.cif.g08.bks.cpg/sg22_23_cif.got.tgz:44516.got - 2010.06.03 23:40:54.
