data_PCOD9329636
_publ_section_title
;
Structure prediction by ZEFSAII (Michael W. Deem and Ramdas Pophale) SiO2 
 PCOD9329636
Probable space group: I 2 2 2
;
_chemical_formula_sum "Si O2"
_cell_formula_units_Z 40
_cell_length_a 11.439224
_cell_length_b 12.612889
_cell_length_c 11.688307
_cell_angle_alpha 90.000000
_cell_angle_beta 90.000000
_cell_angle_gamma 90.000000
_cell_volume 1686.408366
_symmetry_space_group_name_H-M "I 2 2 2"
_symmetry_group_IT_number 23
_symmetry_cell_setting 'orthorhombic'
loop_
_space_group_symop_operation_xyz
x,y,z
-x,-y,z
x,-y,-z
-x,y,-z
1/2+x,1/2+y,1/2+z
1/2-x,1/2-y,1/2+z
1/2+x,1/2-y,1/2-z
1/2-x,1/2+y,1/2-z
loop_
_atom_site_type_symbol
_atom_site_label
_atom_site_fract_x
_atom_site_fract_y
_atom_site_fract_z
Si Si1 0.352755 0.654051 0.597553
Si Si2 0.120347 0.551867 0.836958
Si Si3 0.130058 0.025902 0.294265
Si Si4 0.889350 0.393614 0.571088
Si Si5 0.913087 0.784565 0.142798
O O1 0.362283 0.554843 0.684079
O O2 0.218877 0.684428 0.582382
O O3 0.447200 0.734949 0.648398
O O4 0.389653 0.640593 0.466021
O O5 0.243895 0.492030 0.853384
O O6 0.093685 0.570782 0.701344
O O7 0.142091 0.671502 0.879576
O O8 0.000000 0.500000 0.880543
O O9 0.125106 0.146068 0.249325
O O10 0.000000 0.000000 0.345637
O O11 0.854534 0.500000 0.500000
O O12 0.000000 0.352185 0.500000
#
# Coordination Sequence:
#
# PCOD9329636 Si02
#       5
#     8   8   8   8   8
#     4   9  18  35  55  82 114 155 203 241 301 353
#     4  11  22  35  57  90 126 154 193 256 311 364
#     4   9  19  36  57  83 118 155 197 251 296 356
#     4  10  18  34  55  81 115 153 197 245 313 357
#     4  10  20  34  59  85 118 154 199 252 302 364
#
# _framework density 23.719048000000001
#
# number of rings (size 3 to 8) (size 9 to 14) (size 15 to 20)
#    0.000    2.200    2.000    3.000    0.000    8.800 
#    0.000    2.000    0.000    0.000    0.000    0.000 
#    0.000    0.000    0.000    0.000    0.000    0.000 
#
# Total GULP energy -111345.747464 kJ/mol
# GULP energy per Si atom -5567.287373 kJ/mol
# Density = 2.366506 g / cm^3
# Si number density = 23.719048 Si / 1000 Ang^3
#
#
#
# Elastic Constant Matrix: (Units=GPa)
#
#
# Indices 1 2 3 4 5 6 
#
# 1 231.0075 44.0636 10.5694 0.0000 0.0000 0.0000
# 2 44.0636 61.2910 -1.1074 0.0000 0.0000 0.0000
# 3 10.5694 -1.1074 71.5058 0.0000 0.0000 0.0000
# 4 0.0000 0.0000 0.0000 14.2332 0.0000 0.0000
# 5 0.0000 0.0000 0.0000 0.0000 -8.1491 0.0000
# 6 0.0000 0.0000 0.0000 0.0000 0.0000 25.0059
#
#
#
# Elastic Compliance Matrix: (Units=1/GPa)
#
#
# Indices 1 2 3 4 5 6 
#
# 1 0.005063 -0.003654 -0.000805 0.000000 0.000000 0.000000
# 2 -0.003654 0.018958 0.000834 0.000000 0.000000 0.000000
# 3 -0.000805 0.000834 0.014117 0.000000 0.000000 0.000000
# 4 0.000000 0.000000 0.000000 0.070259 0.000000 0.000000
# 5 0.000000 0.000000 0.000000 0.000000 -0.122714 0.000000
# 6 0.000000 0.000000 0.000000 0.000000 0.000000 0.039991
#
#
# Mechanical properties :
#
#
# Convention : Reuss Voigt Hill
#
# Bulk Modulus (GPa) = 32.37670 52.31728 42.34699
# Shear Modulus (GPa) = 115.68917 26.90324 71.29621
#
# Velocity S-wave (km/s) = 6.99147 3.37151 5.48852
# Velocity P-wave (km/s) = 8.87998 6.10418 7.61955
#
# Compressibility (1/GPa) = 0.03088641
#
# Stress axis : x y z
#
# Youngs Moduli (GPa) = 197.52205 52.74867 70.83776
#
# Poissons Ratio (x) = 0.19276 0.05702
# Poissons Ratio (y) = 0.72180 -0.05906
# Poissons Ratio (z) = 0.15899 -0.04398
#
# Static dielectric constant tensor:
#      x y z
#    x 2.066020 0.000000 0.000000 
#    y 0.000000 1.977040 0.000000 
#    z 0.000000 0.000000 1.921160 
# 
# From -- ./inp_files/16494.got.cif
#   From: 2010.05.17/outbox.cif.g08.bks.cpg/sg23_9_cif.got.tgz:16494.got - 2010.06.04 12:02:01.
