data_PCOD9329681
_publ_section_title
;
Structure prediction by ZEFSAII (Michael W. Deem and Ramdas Pophale) SiO2 
 PCOD9329681
Probable space group: I 2 2 2
;
_chemical_formula_sum "Si O2"
_cell_formula_units_Z 58
_cell_length_a 18.576375
_cell_length_b 27.218708
_cell_length_c 5.620248
_cell_angle_alpha 90.000000
_cell_angle_beta 90.000000
_cell_angle_gamma 90.000000
_cell_volume 2841.737484
_symmetry_space_group_name_H-M "I 2 2 2"
_symmetry_group_IT_number 23
_symmetry_cell_setting 'orthorhombic'
loop_
_space_group_symop_operation_xyz
x,y,z
-x,-y,z
x,-y,-z
-x,y,-z
1/2+x,1/2+y,1/2+z
1/2-x,1/2-y,1/2+z
1/2+x,1/2-y,1/2-z
1/2-x,1/2+y,1/2-z
loop_
_atom_site_type_symbol
_atom_site_label
_atom_site_fract_x
_atom_site_fract_y
_atom_site_fract_z
Si Si1 0.806635 0.914033 0.155799
Si Si2 0.322809 0.945200 0.575625
Si Si3 0.204227 0.743712 0.590527
Si Si4 0.140987 0.841491 0.479337
Si Si5 0.472342 0.942818 0.755707
Si Si6 0.708557 0.137306 0.213968
Si Si7 0.500000 0.500000 0.000000
Si Si8 0.068497 0.079640 0.830624
O O1 0.759846 0.945655 0.336505
O O2 0.857404 0.874972 0.287342
O O3 0.743402 0.885611 0.020110
O O4 0.859837 0.937663 0.968107
O O5 0.386427 0.936399 0.762364
O O6 0.329820 0.904528 0.368312
O O7 0.340023 0.000000 0.500000
O O8 0.251426 0.741687 0.338616
O O9 0.142396 0.784293 0.543651
O O10 0.174322 0.689345 0.646470
O O11 0.220891 0.848687 0.370064
O O12 0.086940 0.868774 0.300334
O O13 0.500000 0.923455 0.500000
O O14 0.500000 0.000000 0.757685
O O15 0.500000 0.919808 0.000000
O O16 0.548882 0.536546 0.150838
O O17 0.000000 0.085070 0.000000
#
# Coordination Sequence:
#
# PCOD9329681 Si02
#       8
#     8   8   8   8   8   8   2   8
#     4  10  21  41  60  93 130 169 224 284 349 404
#     4  11  23  40  59  98 142 175 221 285 336 414
#     4  10  18  35  65  96 138 174 215 280 351 425
#     4   9  19  38  61  94 128 164 231 283 345 420
#     4  10  21  39  65  87 124 173 237 253 305 394
#     4   9  20  35  57  96 139 170 210 272 352 406
#     4  12  26  48  64  86 132 188 256 292 368 436
#     4  11  24  45  64  86 130 185 241 293 359 436
#
# _framework density 20.410049999999998
#
# number of rings (size 3 to 8) (size 9 to 14) (size 15 to 20)
#    0.000    1.931    2.759    1.034    1.931    0.552 
#   29.793    0.000    0.000    0.000    0.000    9.655 
#    0.000    0.000    0.000    0.000    0.000    0.000 
#
# Total GULP energy -161537.239919 kJ/mol
# GULP energy per Si atom -5570.249652 kJ/mol
# Density = 2.036360 g / cm^3
# Si number density = 20.410050 Si / 1000 Ang^3
#
#
#
# Elastic Constant Matrix: (Units=GPa)
#
#
# Indices 1 2 3 4 5 6 
#
# 1 79.0555 42.5665 37.1564 0.0000 0.0000 0.0000
# 2 42.5665 112.5331 44.0440 0.0000 0.0000 0.0000
# 3 37.1564 44.0440 115.0855 0.0000 0.0000 0.0000
# 4 0.0000 0.0000 0.0000 5.6439 0.0000 0.0000
# 5 0.0000 0.0000 0.0000 0.0000 33.7217 0.0000
# 6 0.0000 0.0000 0.0000 0.0000 0.0000 29.7200
#
#
#
# Elastic Compliance Matrix: (Units=1/GPa)
#
#
# Indices 1 2 3 4 5 6 
#
# 1 0.017047 -0.005051 -0.003571 0.000000 0.000000 0.000000
# 2 -0.005051 0.011948 -0.002942 0.000000 0.000000 0.000000
# 3 -0.003571 -0.002942 0.010968 0.000000 0.000000 0.000000
# 4 0.000000 0.000000 0.000000 0.177183 0.000000 0.000000
# 5 0.000000 0.000000 0.000000 0.000000 0.029654 0.000000
# 6 0.000000 0.000000 0.000000 0.000000 0.000000 0.033647
#
#
# Mechanical properties :
#
#
# Convention : Reuss Voigt Hill
#
# Bulk Modulus (GPa) = 59.39563 61.57866 60.48715
# Shear Modulus (GPa) = 16.17143 26.01093 21.09118
#
# Velocity S-wave (km/s) = 2.81788 3.57377 3.21810
# Velocity P-wave (km/s) = 6.30489 6.87498 6.59610
#
# Compressibility (1/GPa) = 0.01683625
#
# Stress axis : x y z
#
# Youngs Moduli (GPa) = 58.66091 83.69493 91.17406
#
# Poissons Ratio (x) = 0.42271 0.32558
# Poissons Ratio (y) = 0.29627 0.26823
# Poissons Ratio (z) = 0.20947 0.24623
#
# Static dielectric constant tensor:
#      x y z
#    x 1.591570 0.000000 0.000000 
#    y 0.000000 1.739770 0.000000 
#    z 0.000000 0.000000 1.532550 
# 
# From -- ./inp_files/3500.got.cif
#   From: 2010.05.17/outbox.cif.g08.bks.cpg/sg23_2_cif.got.tgz:3500.got - 2010.06.04 12:02:01.
