data_PCOD9329612
_publ_section_title
;
Structure prediction by ZEFSAII (Michael W. Deem and Ramdas Pophale) SiO2 
 PCOD9329612
Probable space group: I 2 2 2
;
_chemical_formula_sum "Si O2"
_cell_formula_units_Z 48
_cell_length_a 29.587963
_cell_length_b 8.250962
_cell_length_c 10.593297
_cell_angle_alpha 90.000000
_cell_angle_beta 90.000000
_cell_angle_gamma 90.000000
_cell_volume 2586.132681
_symmetry_space_group_name_H-M "I 2 2 2"
_symmetry_group_IT_number 23
_symmetry_cell_setting 'orthorhombic'
loop_
_space_group_symop_operation_xyz
x,y,z
-x,-y,z
x,-y,-z
-x,y,-z
1/2+x,1/2+y,1/2+z
1/2-x,1/2-y,1/2+z
1/2+x,1/2-y,1/2-z
1/2-x,1/2+y,1/2-z
loop_
_atom_site_type_symbol
_atom_site_label
_atom_site_fract_x
_atom_site_fract_y
_atom_site_fract_z
Si Si1 0.710538 0.099509 0.369670
Si Si2 0.108520 0.579173 0.860524
Si Si3 0.025351 0.825719 0.384690
Si Si4 0.986716 0.310631 0.866117
Si Si5 0.112710 0.636435 0.391099
Si Si6 0.217166 0.616228 0.380773
O O1 0.658320 0.155672 0.357217
O O2 0.746315 0.242781 0.373903
O O3 0.713567 0.000000 0.500000
O O4 0.718937 0.985887 0.248652
O O5 0.066744 0.699585 0.843511
O O6 0.106017 0.449618 0.745892
O O7 0.102721 0.500000 0.000000
O O8 0.078318 0.787365 0.405982
O O9 0.000000 0.736049 0.500000
O O10 0.014028 0.757908 0.249033
O O11 0.000000 0.000000 0.381650
O O12 0.000000 0.500000 0.870739
O O13 0.000000 0.236664 0.000000
O O14 0.104330 0.500000 0.500000
O O15 0.165732 0.680543 0.397561
O O16 0.226250 0.500000 0.500000
#
# Coordination Sequence:
#
# PCOD9329612 Si02
#       6
#     8   8   8   8   8   8
#     4  10  21  37  59  83 117 148 190 244 289 344
#     4  10  18  33  57  85 106 140 192 232 271 333
#     4  11  24  38  52  84 121 146 185 237 292 337
#     4  11  19  34  61  83 106 146 195 229 269 343
#     4  10  20  36  60  83 110 155 195 231 279 350
#     4  10  21  39  60  87 116 150 197 240 292 352
#
# _framework density 18.560533
#
# number of rings (size 3 to 8) (size 9 to 14) (size 15 to 20)
#    0.000    1.667    3.333    2.000    0.000    0.333 
#    6.000    0.000    0.000    0.000    0.000    0.000 
#    0.000    0.000    0.000    0.000    0.000    0.000 
#
# Total GULP energy -133749.320211 kJ/mol
# GULP energy per Si atom -5572.888342 kJ/mol
# Density = 1.851829 g / cm^3
# Si number density = 18.560533 Si / 1000 Ang^3
#
#
#
# Elastic Constant Matrix: (Units=GPa)
#
#
# Indices 1 2 3 4 5 6 
#
# 1 181.7122 68.0560 26.0885 0.0000 0.0000 0.0000
# 2 68.0560 53.4329 21.9564 0.0000 0.0000 0.0000
# 3 26.0885 21.9564 124.0430 0.0000 0.0000 0.0000
# 4 0.0000 0.0000 0.0000 15.2432 0.0000 0.0000
# 5 0.0000 0.0000 0.0000 0.0000 50.2778 0.0000
# 6 0.0000 0.0000 0.0000 0.0000 0.0000 34.8442
#
#
#
# Elastic Compliance Matrix: (Units=1/GPa)
#
#
# Indices 1 2 3 4 5 6 
#
# 1 0.010526 -0.013478 0.000172 0.000000 0.000000 0.000000
# 2 -0.013478 0.037439 -0.003792 0.000000 0.000000 0.000000
# 3 0.000172 -0.003792 0.008697 0.000000 0.000000 0.000000
# 4 0.000000 0.000000 0.000000 0.065603 0.000000 0.000000
# 5 0.000000 0.000000 0.000000 0.000000 0.019890 0.000000
# 6 0.000000 0.000000 0.000000 0.000000 0.000000 0.028699
#
#
# Mechanical properties :
#
#
# Convention : Reuss Voigt Hill
#
# Bulk Modulus (GPa) = 44.51159 65.71000 55.11080
# Shear Modulus (GPa) = 23.52504 36.27885 29.90195
#
# Velocity S-wave (km/s) = 3.56403 4.42591 4.01814
# Velocity P-wave (km/s) = 6.40080 7.84845 7.16130
#
# Compressibility (1/GPa) = 0.02246606
#
# Stress axis : x y z
#
# Youngs Moduli (GPa) = 95.00051 26.70980 114.98375
#
# Poissons Ratio (x) = 0.35998 -0.01975
# Poissons Ratio (y) = 1.28038 0.43607
# Poissons Ratio (z) = -0.01632 0.10130
#
# Static dielectric constant tensor:
#      x y z
#    x 1.660170 0.000000 0.000000 
#    y 0.000000 1.594490 0.000000 
#    z 0.000000 0.000000 1.668600 
# 
# From -- ./inp_files/18550.got.cif
#   From: 2010.05.17/outbox.cif.g08.bks.cpg/sg23_10_cif.got.tgz:18550.got - 2010.06.04 12:02:01.
