data_PCOD9329322
_publ_section_title
;
Structure prediction by ZEFSAII (Michael W. Deem and Ramdas Pophale) SiO2 
 PCOD9329322
Probable space group: F 2 2 2
;
_chemical_formula_sum "Si O2"
_cell_formula_units_Z 26
_cell_length_a 21.000000
_cell_length_b 27.000000
_cell_length_c 9.000000
_cell_angle_alpha 90.000000
_cell_angle_beta 90.000000
_cell_angle_gamma 90.000000
_cell_volume 5103.000000
_symmetry_space_group_name_H-M "F 2 2 2"
_symmetry_group_IT_number 22
_symmetry_cell_setting 'orthorhombic'
loop_
_space_group_symop_operation_xyz
x,y,z
-x,-y,z
x,-y,-z
-x,y,-z
x,1/2+y,1/2+z
-x,1/2-y,1/2+z
x,1/2-y,1/2-z
-x,1/2+y,1/2-z
1/2+x,y,1/2+z
1/2-x,-y,1/2+z
1/2+x,-y,1/2-z
1/2-x,y,1/2-z
1/2+x,1/2+y,z
1/2-x,1/2-y,z
1/2+x,1/2-y,-z
1/2-x,1/2+y,-z
loop_
_atom_site_type_symbol
_atom_site_label
_atom_site_fract_x
_atom_site_fract_y
_atom_site_fract_z
Si Si1 0.819381 0.730120 0.416408
Si Si2 0.938701 0.032705 0.273494
Si Si3 0.623857 0.628452 0.170735
Si Si4 0.576042 0.118636 0.010891
Si Si5 0.185239 0.523752 0.658706
Si Si6 0.000000 0.404344 0.500000
Si Si7 0.064787 0.723860 0.096272
O O1 0.827496 0.750000 0.250000
O O2 0.750000 0.750000 0.467719
O O3 0.832587 0.672460 0.390897
O O4 0.876712 0.749433 0.516602
O O5 0.910244 0.068711 0.400080
O O6 0.966065 0.062823 0.129451
O O7 0.879049 0.999855 0.226132
O O8 0.000000 0.000000 0.322434
O O9 0.606409 0.628082 0.348103
O O10 0.665296 0.580272 0.141874
O O11 0.556295 0.625783 0.082653
O O12 0.587185 0.167024 0.111011
O O13 0.500000 0.115710 0.000000
O O14 0.196068 0.500000 0.500000
O O15 0.250000 0.517985 0.750000
O O16 0.050586 0.750000 0.250000
O O17 0.000000 0.724844 0.000000
#
# Coordination Sequence:
#
# PCOD9329322 Si02
#       7
#    16  16  16  16  16   8  16
#     4  11  26  49  74 101 141 194 240 295 378 449
#     4  12  23  46  71 102 148 190 241 301 365 433
#     4  12  26  45  77 104 143 191 248 305 368 442
#     4  11  24  41  66 110 140 179 236 298 364 425
#     4  12  28  46  67 106 147 196 248 296 362 441
#     4  12  23  44  78 108 136 188 252 306 367 424
#     4  11  26  43  71 107 143 179 237 305 364 434
#
# _framework density 5.0950420000000003
#
# number of rings (size 3 to 8) (size 9 to 14) (size 15 to 20)
#    0.000    0.462    6.154    0.692    9.692    1.846 
#    0.000    0.000    0.000    0.000    0.000    0.000 
#    0.000    0.000    0.000    0.000    0.000    0.000 
#
# Total GULP energy -145274.260901 kJ/mol
# GULP energy per Si atom -5587.471573 kJ/mol
# Density = 0.508345 g / cm^3
# Si number density = 5.095042 Si / 1000 Ang^3
#
#
#
# Elastic Constant Matrix: (Units=GPa)
#
#
# Indices 1 2 3 4 5 6 
#
# 1 150.5658 71.0964 51.8631 0.0000 0.0002 0.0000
# 2 71.0964 162.3284 50.0734 -0.0001 0.0002 0.0000
# 3 51.8631 50.0734 52.7426 -0.0003 0.0005 0.0002
# 4 0.0000 -0.0001 -0.0003 25.1517 0.0002 0.0001
# 5 0.0002 0.0002 0.0005 0.0002 23.6453 -0.0001
# 6 0.0000 0.0000 0.0002 0.0001 -0.0001 27.6686
#
#
#
# Elastic Compliance Matrix: (Units=1/GPa)
#
#
# Indices 1 2 3 4 5 6 
#
# 1 0.010482 -0.001996 -0.008412 0.000000 0.000000 0.000000
# 2 -0.001996 0.009092 -0.006669 0.000000 0.000000 0.000000
# 3 -0.008412 -0.006669 0.033563 0.000000 -0.000001 0.000000
# 4 0.000000 0.000000 0.000000 0.039759 0.000000 0.000000
# 5 0.000000 0.000000 -0.000001 0.000000 0.042292 0.000000
# 6 0.000000 0.000000 0.000000 0.000000 0.000000 0.036142
#
#
# Mechanical properties :
#
#
# Convention : Reuss Voigt Hill
#
# Bulk Modulus (GPa) = 52.67915 79.07807 65.87861
# Shear Modulus (GPa) = 23.60606 28.13339 25.86972
#
# Velocity S-wave (km/s) = 3.40705 3.71944 3.56667
# Velocity P-wave (km/s) = 6.43286 7.57175 7.02542
#
# Compressibility (1/GPa) = 0.01898284
#
# Stress axis : x y z
#
# Youngs Moduli (GPa) = 95.40531 109.99072 29.79459
#
# Poissons Ratio (x) = 0.21953 0.25063
# Poissons Ratio (y) = 0.19042 0.19870
# Poissons Ratio (z) = 0.80254 0.73352
#
# Static dielectric constant tensor:
#      x y z
#    x 1.687870 0.000000 0.000000 
#    y 0.000000 1.823190 0.000000 
#    z 0.000000 0.000000 1.710270 
# 
# From -- ./inp_files/12965.got.cif
#   From: 2010.05.17/outbox.ucp.g08.bks.cvg/sg22_7_cif.got.tgz:12965.got - 2010.06.11 15:16:44.
