data_PCOD9329932
_publ_section_title
;
Structure prediction by ZEFSAII (Michael W. Deem and Ramdas Pophale) SiO2 
 PCOD9329932
Probable space group: I 2 2 2
;
_chemical_formula_sum "Si O2"
_cell_formula_units_Z 56
_cell_length_a 22.105143
_cell_length_b 12.158414
_cell_length_c 11.660544
_cell_angle_alpha 90.000000
_cell_angle_beta 90.000000
_cell_angle_gamma 90.000000
_cell_volume 3133.928386
_symmetry_space_group_name_H-M "I 2 2 2"
_symmetry_group_IT_number 23
_symmetry_cell_setting 'orthorhombic'
loop_
_space_group_symop_operation_xyz
x,y,z
-x,-y,z
x,-y,-z
-x,y,-z
1/2+x,1/2+y,1/2+z
1/2-x,1/2-y,1/2+z
1/2+x,1/2-y,1/2-z
1/2-x,1/2+y,1/2-z
loop_
_atom_site_type_symbol
_atom_site_label
_atom_site_fract_x
_atom_site_fract_y
_atom_site_fract_z
Si Si1 0.160810 0.376888 0.468702
Si Si2 0.147178 0.474593 0.868912
Si Si3 0.800480 0.886906 0.879424
Si Si4 0.479411 0.127311 0.377382
Si Si5 0.205018 0.693747 0.291361
Si Si6 0.089250 0.309171 0.251826
Si Si7 0.834865 0.861892 0.130837
O O1 0.140228 0.500000 0.500000
O O2 0.228720 0.387668 0.413860
O O3 0.168929 0.317090 0.590147
O O4 0.114912 0.321360 0.379935
O O5 0.092196 0.385842 0.870055
O O6 0.195164 0.415154 0.786974
O O7 0.121971 0.588093 0.814766
O O8 0.165689 0.500000 0.000000
O O9 0.810806 0.801033 0.779674
O O10 0.822906 0.008939 0.850146
O O11 0.835393 0.848824 0.993901
O O12 0.500000 0.176276 0.500000
O O13 0.517914 0.177808 0.273687
O O14 0.500000 0.000000 0.380268
O O15 0.275236 0.699250 0.323669
O O16 0.110469 0.195883 0.194643
#
# Coordination Sequence:
#
# PCOD9329932 Si02
#       7
#     8   8   8   8   8   8   8
#     4  11  19  35  49  76 116 149 174 226 283 345
#     4  11  19  33  55  85 110 141 188 237 285 335
#     4  10  19  35  50  75 112 145 182 230 279 331
#     4   9  17  32  50  80 112 137 176 240 284 325
#     4  11  21  33  54  76 110 151 184 228 280 350
#     4  11  19  33  56  75 109 151 180 223 297 341
#     4  10  20  34  53  78 108 148 185 228 285 342
#
# _framework density 17.868948
#
# number of rings (size 3 to 8) (size 9 to 14) (size 15 to 20)
#    0.000    1.571    8.571    0.857    0.000    0.000 
#    0.000    1.429    0.000    0.857    0.000    0.000 
#    0.000    2.286    0.000    0.000    0.000    0.000 
#
# Total GULP energy -156126.881024 kJ/mol
# GULP energy per Si atom -5575.960037 kJ/mol
# Density = 1.782828 g / cm^3
# Si number density = 17.868948 Si / 1000 Ang^3
#
#
#
# Elastic Constant Matrix: (Units=GPa)
#
#
# Indices 1 2 3 4 5 6 
#
# 1 36.2861 11.8165 24.8578 0.0000 0.0000 0.0000
# 2 11.8165 79.6920 52.8684 0.0000 0.0000 0.0000
# 3 24.8578 52.8684 116.8159 0.0000 0.0000 0.0000
# 4 0.0000 0.0000 0.0000 28.2217 0.0000 0.0000
# 5 0.0000 0.0000 0.0000 0.0000 12.7924 0.0000
# 6 0.0000 0.0000 0.0000 0.0000 0.0000 16.5393
#
#
#
# Elastic Compliance Matrix: (Units=1/GPa)
#
#
# Indices 1 2 3 4 5 6 
#
# 1 0.032268 -0.000328 -0.006718 0.000000 0.000000 0.000000
# 2 -0.000328 0.017936 -0.008048 0.000000 0.000000 0.000000
# 3 -0.006718 -0.008048 0.013632 0.000000 0.000000 0.000000
# 4 0.000000 0.000000 0.000000 0.035434 0.000000 0.000000
# 5 0.000000 0.000000 0.000000 0.000000 0.078172 0.000000
# 6 0.000000 0.000000 0.000000 0.000000 0.000000 0.060462
#
#
# Mechanical properties :
#
#
# Convention : Reuss Voigt Hill
#
# Bulk Modulus (GPa) = 29.71870 45.76438 37.74154
# Shear Modulus (GPa) = 17.90152 21.06076 19.48114
#
# Velocity S-wave (km/s) = 3.16859 3.43683 3.30543
# Velocity P-wave (km/s) = 5.48217 6.43551 5.97788
#
# Compressibility (1/GPa) = 0.03364885
#
# Stress axis : x y z
#
# Youngs Moduli (GPa) = 30.99075 55.75458 73.35562
#
# Poissons Ratio (x) = 0.01827 0.49281
# Poissons Ratio (y) = 0.01016 0.59034
# Poissons Ratio (z) = 0.20820 0.44869
#
# Static dielectric constant tensor:
#      x y z
#    x 1.664140 0.000000 0.000000 
#    y 0.000000 1.611040 0.000000 
#    z 0.000000 0.000000 1.637730 
# 
# From -- ./inp_files/16119.got.cif
#   From: 2010.05.17/outbox.cif.g08.bks.cpg/sg23_9_cif.got.tgz:16119.got - 2010.06.04 12:02:01.
