data_PCOD9329125
_publ_section_title
;
Structure prediction by ZEFSAII (Michael W. Deem and Ramdas Pophale) SiO2 
 PCOD9329125
Probable space group: F 2 2 2
;
_chemical_formula_sum "Si O2"
_cell_formula_units_Z 64
_cell_length_a 9.291236
_cell_length_b 13.194507
_cell_length_c 20.688892
_cell_angle_alpha 90.000000
_cell_angle_beta 90.000000
_cell_angle_gamma 90.000000
_cell_volume 2536.319098
_symmetry_space_group_name_H-M "F 2 2 2"
_symmetry_group_IT_number 22
_symmetry_cell_setting 'orthorhombic'
loop_
_space_group_symop_operation_xyz
x,y,z
-x,-y,z
x,-y,-z
-x,y,-z
x,1/2+y,1/2+z
-x,1/2-y,1/2+z
x,1/2-y,1/2-z
-x,1/2+y,1/2-z
1/2+x,y,1/2+z
1/2-x,-y,1/2+z
1/2+x,-y,1/2-z
1/2-x,y,1/2-z
1/2+x,1/2+y,z
1/2-x,1/2-y,z
1/2+x,1/2-y,-z
1/2-x,1/2+y,-z
loop_
_atom_site_type_symbol
_atom_site_label
_atom_site_fract_x
_atom_site_fract_y
_atom_site_fract_z
Si Si1 0.663323 0.117661 0.490082
Si Si2 0.091413 0.608766 0.120728
Si Si3 0.122204 0.205608 0.114636
Si Si4 0.250000 0.073181 0.750000
Si Si5 0.000000 0.500000 0.667009
O O1 0.777141 0.122916 0.431371
O O2 0.723743 0.159076 0.557306
O O3 0.474866 0.105933 0.369216
O O4 0.645397 0.000000 0.500000
O O5 0.157911 0.624518 0.192751
O O6 0.000000 0.500000 0.116476
O O7 0.989318 0.703427 0.108681
O O8 0.250000 0.250000 0.160651
O O9 0.000000 0.162913 0.000000
O O10 0.139236 0.007269 0.789737
#
# Coordination Sequence:
#
# PCOD9329125 Si02
#       5
#    16  16  16   8   8
#     4  11  25  48  80 118 165 217 282 355 438 520
#     4  12  28  54  85 128 175 230 292 368 441 535
#     4  12  29  51  83 126 169 226 290 367 445 528
#     4  12  26  55  85 122 170 232 295 353 440 528
#     4  12  28  54  85 124 171 226 296 358 438 532
#
# _framework density 25.233419999999999
#
# number of rings (size 3 to 8) (size 9 to 14) (size 15 to 20)
#    0.000    0.250    1.250    7.500    3.500    7.500 
#    4.500    0.000    0.000    0.000    0.000    0.000 
#    0.000    0.000    0.000    0.000    0.000    0.000 
#
# Total GULP energy -89091.349066 kJ/mol
# GULP energy per Si atom -5568.209317 kJ/mol
# Density = 2.517599 g / cm^3
# Si number density = 25.233420 Si / 1000 Ang^3
#
#
#
# Elastic Constant Matrix: (Units=GPa)
#
#
# Indices 1 2 3 4 5 6 
#
# 1 201.1765 90.6928 80.6191 0.0000 0.0000 0.0000
# 2 90.6928 215.3372 66.0673 0.0000 0.0000 0.0000
# 3 80.6191 66.0673 150.2584 0.0000 0.0000 0.0000
# 4 0.0000 0.0000 0.0000 -63.4347 0.0000 0.0000
# 5 0.0000 0.0000 0.0000 0.0000 69.2029 0.0000
# 6 0.0000 0.0000 0.0000 0.0000 0.0000 34.7115
#
#
#
# Elastic Compliance Matrix: (Units=1/GPa)
#
#
# Indices 1 2 3 4 5 6 
#
# 1 0.007065 -0.002095 -0.002869 0.000000 0.000000 0.000000
# 2 -0.002095 0.005989 -0.001509 0.000000 0.000000 0.000000
# 3 -0.002869 -0.001509 0.008858 0.000000 0.000000 0.000000
# 4 0.000000 0.000000 0.000000 -0.015764 0.000000 0.000000
# 5 0.000000 0.000000 0.000000 0.000000 0.014450 0.000000
# 6 0.000000 0.000000 0.000000 0.000000 0.000000 0.028809
#
#
# Mechanical properties :
#
#
# Convention : Reuss Voigt Hill
#
# Bulk Modulus (GPa) = 111.54554 115.72562 113.63558
# Shear Modulus (GPa) = 76.51770 30.05549 53.28659
#
# Velocity S-wave (km/s) = 5.51269 3.45497 4.60036
# Velocity P-wave (km/s) = 9.20984 7.86622 8.56442
#
# Compressibility (1/GPa) = 0.00896495
#
# Stress axis : x y z
#
# Youngs Moduli (GPa) = 141.53796 166.96163 112.88704
#
# Poissons Ratio (x) = 0.34983 0.32393
# Poissons Ratio (y) = 0.29656 0.17038
# Poissons Ratio (z) = 0.40614 0.25200
#
# Static dielectric constant tensor:
#      x y z
#    x 2.114280 0.000000 0.000000 
#    y 0.000000 2.192620 0.000000 
#    z 0.000000 0.000000 2.262550 
# 
# From -- ./inp_files/34823.got.cif
#   From: 2010.05.17/outbox.cif.g08.bks.cpg/sg22_18_cif.got.tgz:34823.got - 2010.06.03 23:40:54.
