data_PCOD9329252
_publ_section_title
;
Structure prediction by ZEFSAII (Michael W. Deem and Ramdas Pophale) SiO2 
 PCOD9329252
Probable space group: F 2 2 2
;
_chemical_formula_sum "Si O2"
_cell_formula_units_Z 68
_cell_length_a 16.568643
_cell_length_b 11.615982
_cell_length_c 15.278616
_cell_angle_alpha 90.000000
_cell_angle_beta 90.000000
_cell_angle_gamma 90.000000
_cell_volume 2940.538613
_symmetry_space_group_name_H-M "F 2 2 2"
_symmetry_group_IT_number 22
_symmetry_cell_setting 'orthorhombic'
loop_
_space_group_symop_operation_xyz
x,y,z
-x,-y,z
x,-y,-z
-x,y,-z
x,1/2+y,1/2+z
-x,1/2-y,1/2+z
x,1/2-y,1/2-z
-x,1/2+y,1/2-z
1/2+x,y,1/2+z
1/2-x,-y,1/2+z
1/2+x,-y,1/2-z
1/2-x,y,1/2-z
1/2+x,1/2+y,z
1/2-x,1/2-y,z
1/2+x,1/2-y,-z
1/2-x,1/2+y,-z
loop_
_atom_site_type_symbol
_atom_site_label
_atom_site_fract_x
_atom_site_fract_y
_atom_site_fract_z
Si Si1 0.044051 0.750000 0.750000
Si Si2 0.632142 0.630542 0.120160
Si Si3 0.000000 0.000000 0.000000
Si Si4 0.000000 0.500000 0.806998
Si Si5 0.250000 0.010272 0.250000
Si Si6 0.843718 0.927449 0.587853
Si Si7 0.250000 0.750000 0.497341
O O1 0.094096 0.746851 0.659678
O O2 0.004695 0.621236 0.751761
O O3 0.673040 0.576203 0.207794
O O4 0.708020 0.656236 0.058804
O O5 0.562579 0.567556 0.064361
O O6 0.073599 0.469106 0.870654
O O7 0.219454 0.942734 0.333831
O O8 0.825382 0.797804 0.557624
O O9 0.831523 0.000000 0.500000
#
# Coordination Sequence:
#
# PCOD9329252 Si02
#       7
#     8  16   4   8   8  16   8
#     4  12  26  49  80 113 156 218 278 334 414 511
#     4  12  25  49  76 117 155 219 275 339 413 511
#     4  12  30  48  78 118 170 210 276 352 422 492
#     4  12  28  48  77 115 168 208 273 343 421 490
#     4  12  24  48  82 106 156 217 274 325 414 507
#     4  12  26  49  76 116 161 209 273 342 410 494
#     4  12  26  46  80 112 160 210 272 340 418 486
#
# _framework density 23.125015999999999
#
# number of rings (size 3 to 8) (size 9 to 14) (size 15 to 20)
#    0.000    0.000    4.706    5.294    3.294    2.353 
#    0.000    0.000    0.000    0.000    0.000    0.000 
#    0.000    0.000    0.000    0.000    0.000    0.000 
#
# Total GULP energy -94692.564792 kJ/mol
# GULP energy per Si atom -5570.150870 kJ/mol
# Density = 2.307238 g / cm^3
# Si number density = 23.125016 Si / 1000 Ang^3
#
#
#
# Elastic Constant Matrix: (Units=GPa)
#
#
# Indices 1 2 3 4 5 6 
#
# 1 94.6376 31.1605 43.4563 0.0000 0.0000 0.0000
# 2 31.1605 85.2336 42.7317 0.0000 0.0000 0.0000
# 3 43.4563 42.7317 134.8685 0.0000 0.0000 0.0000
# 4 0.0000 0.0000 0.0000 52.6823 0.0000 0.0000
# 5 0.0000 0.0000 0.0000 0.0000 44.5257 0.0000
# 6 0.0000 0.0000 0.0000 0.0000 0.0000 26.7449
#
#
#
# Elastic Compliance Matrix: (Units=1/GPa)
#
#
# Indices 1 2 3 4 5 6 
#
# 1 0.013086 -0.003174 -0.003211 0.000000 0.000000 0.000000
# 2 -0.003174 0.014718 -0.003640 0.000000 0.000000 0.000000
# 3 -0.003211 -0.003640 0.009603 0.000000 0.000000 0.000000
# 4 0.000000 0.000000 0.000000 0.018982 0.000000 0.000000
# 5 0.000000 0.000000 0.000000 0.000000 0.022459 0.000000
# 6 0.000000 0.000000 0.000000 0.000000 0.000000 0.037390
#
#
# Mechanical properties :
#
#
# Convention : Reuss Voigt Hill
#
# Bulk Modulus (GPa) = 57.61815 61.04851 59.33333
# Shear Modulus (GPa) = 35.19286 37.95001 36.57143
#
# Velocity S-wave (km/s) = 3.90532 4.05542 3.98108
# Velocity P-wave (km/s) = 6.73093 6.95595 6.84437
#
# Compressibility (1/GPa) = 0.01735564
#
# Stress axis : x y z
#
# Youngs Moduli (GPa) = 76.41649 67.94342 104.13847
#
# Poissons Ratio (x) = 0.21568 0.33436
# Poissons Ratio (y) = 0.24258 0.37911
# Poissons Ratio (z) = 0.24535 0.24734
#
# Static dielectric constant tensor:
#      x y z
#    x 1.910240 0.000000 0.000000 
#    y 0.000000 1.954770 0.000000 
#    z 0.000000 0.000000 1.863340 
# 
# From -- ./inp_files/31327.got.cif
#   From: 2010.05.17/outbox.cif.g08.bks.cpg/sg22_16_cif.got.tgz:31327.got - 2010.06.03 23:40:54.
