data_PCOD9329141
_publ_section_title
;
Structure prediction by ZEFSAII (Michael W. Deem and Ramdas Pophale) SiO2 
 PCOD9329141
Probable space group: F 2 2 2
;
_chemical_formula_sum "Si O2"
_cell_formula_units_Z 116
_cell_length_a 13.028771
_cell_length_b 16.321583
_cell_length_c 27.585362
_cell_angle_alpha 90.000000
_cell_angle_beta 90.000000
_cell_angle_gamma 90.000000
_cell_volume 5866.031843
_symmetry_space_group_name_H-M "F 2 2 2"
_symmetry_group_IT_number 22
_symmetry_cell_setting 'orthorhombic'
loop_
_space_group_symop_operation_xyz
x,y,z
-x,-y,z
x,-y,-z
-x,y,-z
x,1/2+y,1/2+z
-x,1/2-y,1/2+z
x,1/2-y,1/2-z
-x,1/2+y,1/2-z
1/2+x,y,1/2+z
1/2-x,-y,1/2+z
1/2+x,-y,1/2-z
1/2-x,y,1/2-z
1/2+x,1/2+y,z
1/2-x,1/2-y,z
1/2+x,1/2-y,-z
1/2-x,1/2+y,-z
loop_
_atom_site_type_symbol
_atom_site_label
_atom_site_fract_x
_atom_site_fract_y
_atom_site_fract_z
Si Si1 0.993589 0.859037 0.554717
Si Si2 0.770932 0.657643 0.807286
Si Si3 0.581398 0.636045 0.200310
Si Si4 0.918156 0.434756 0.803810
Si Si5 0.289112 0.004140 0.347248
Si Si6 0.984237 0.709650 0.844926
Si Si7 0.750000 0.750000 0.250000
Si Si8 0.829880 0.994950 0.445197
O O1 0.979856 0.793038 0.597094
O O2 0.000000 0.825762 0.500000
O O3 0.093990 0.917041 0.559638
O O4 0.900223 0.923800 0.560029
O O5 0.750000 0.650554 0.750000
O O6 0.750000 0.750000 0.823170
O O7 0.701107 0.591182 0.833968
O O8 0.891107 0.656927 0.821454
O O9 0.551152 0.587903 0.249058
O O10 0.619495 0.566394 0.163600
O O11 0.500999 0.702346 0.179605
O O12 0.677443 0.691853 0.217828
O O13 0.805341 0.471193 0.811116
O O14 0.000000 0.500000 0.824125
O O15 0.920243 0.348945 0.831856
O O16 0.250289 0.010003 0.402020
O O17 0.788174 0.000000 0.500000
#
# Coordination Sequence:
#
# PCOD9329141 Si02
#       8
#    16  16  16  16  16  16   4  16
#     4   9  17  33  59  89 112 150 205 258 313 368
#     4  11  26  39  59  83 120 161 210 252 301 369
#     4  12  25  35  56  87 128 162 199 243 306 376
#     4  12  21  34  60  85 117 161 205 237 299 371
#     4  12  21  39  59  87 123 160 202 255 310 367
#     4  12  22  38  60  86 123 162 197 253 317 366
#     4  12  20  36  44  80 128 160 176 236 284 360
#     4   9  17  32  59  89 114 149 200 263 315 367
#
# _framework density 19.774867
#
# number of rings (size 3 to 8) (size 9 to 14) (size 15 to 20)
#    0.000    0.966    6.897    1.655    3.862    0.000 
#    0.000    0.000    3.034    0.000    0.000    0.000 
#    0.000    0.000    0.000    0.000    0.000    0.000 
#
# Total GULP energy -161864.170460 kJ/mol
# GULP energy per Si atom -5581.523119 kJ/mol
# Density = 1.972986 g / cm^3
# Si number density = 19.774867 Si / 1000 Ang^3
#
#
#
# Elastic Constant Matrix: (Units=GPa)
#
#
# Indices 1 2 3 4 5 6 
#
# 1 24.6604 15.2622 15.5733 0.0000 0.0000 0.0000
# 2 15.2622 91.6136 34.0765 0.0000 0.0000 0.0000
# 3 15.5733 34.0765 145.8535 0.0000 0.0000 0.0000
# 4 0.0000 0.0000 0.0000 14.5615 0.0000 0.0000
# 5 0.0000 0.0000 0.0000 0.0000 28.9960 0.0000
# 6 0.0000 0.0000 0.0000 0.0000 0.0000 29.0144
#
#
#
# Elastic Compliance Matrix: (Units=1/GPa)
#
#
# Indices 1 2 3 4 5 6 
#
# 1 0.046767 -0.006498 -0.003475 0.000000 0.000000 0.000000
# 2 -0.006498 0.012857 -0.002310 0.000000 0.000000 0.000000
# 3 -0.003475 -0.002310 0.007767 0.000000 0.000000 0.000000
# 4 0.000000 0.000000 0.000000 0.068674 0.000000 0.000000
# 5 0.000000 0.000000 0.000000 0.000000 0.034488 0.000000
# 6 0.000000 0.000000 0.000000 0.000000 0.000000 0.034466
#
#
# Mechanical properties :
#
#
# Convention : Reuss Voigt Hill
#
# Bulk Modulus (GPa) = 23.35135 43.55016 33.45076
# Shear Modulus (GPa) = 20.50348 27.66209 24.08279
#
# Velocity S-wave (km/s) = 3.22350 3.74418 3.49355
# Velocity P-wave (km/s) = 5.06842 6.38456 5.76418
#
# Compressibility (1/GPa) = 0.04282407
#
# Stress axis : x y z
#
# Youngs Moduli (GPa) = 21.38244 77.77713 128.75040
#
# Poissons Ratio (x) = 0.50543 0.44744
# Poissons Ratio (y) = 0.13895 0.29742
# Poissons Ratio (z) = 0.07431 0.17967
#
# Static dielectric constant tensor:
#      x y z
#    x 1.830150 0.000000 0.000000 
#    y 0.000000 1.736860 0.000000 
#    z 0.000000 0.000000 1.711240 
# 
# From -- ./inp_files/53281.got.cif
#   From: 2010.05.17/outbox.cif.g08.bks.cpg/sg22_27_cif.got.tgz:53281.got - 2010.06.03 23:40:54.
