data_PCOD9329889
_publ_section_title
;
Structure prediction by ZEFSAII (Michael W. Deem and Ramdas Pophale) SiO2 
 PCOD9329889
Probable space group: I 2 2 2
;
_chemical_formula_sum "Si O2"
_cell_formula_units_Z 64
_cell_length_a 30.382963
_cell_length_b 5.575553
_cell_length_c 16.886776
_cell_angle_alpha 90.000000
_cell_angle_beta 90.000000
_cell_angle_gamma 90.000000
_cell_volume 2860.650597
_symmetry_space_group_name_H-M "I 2 2 2"
_symmetry_group_IT_number 23
_symmetry_cell_setting 'orthorhombic'
loop_
_space_group_symop_operation_xyz
x,y,z
-x,-y,z
x,-y,-z
-x,y,-z
1/2+x,1/2+y,1/2+z
1/2-x,1/2-y,1/2+z
1/2+x,1/2-y,1/2-z
1/2-x,1/2+y,1/2-z
loop_
_atom_site_type_symbol
_atom_site_label
_atom_site_fract_x
_atom_site_fract_y
_atom_site_fract_z
Si Si1 0.122617 0.835535 0.282079
Si Si2 0.517002 0.249252 0.408338
Si Si3 0.174256 0.257025 0.456679
Si Si4 0.619589 0.836831 0.609182
Si Si5 0.353121 0.656557 0.606669
Si Si6 0.768333 0.602255 0.922886
Si Si7 0.876616 0.331247 0.701307
Si Si8 0.269603 0.323153 0.214051
O O1 0.119676 0.859794 0.188114
O O2 0.103107 0.589894 0.314068
O O3 0.176646 0.821683 0.293654
O O4 0.099971 0.077674 0.311501
O O5 0.500000 0.500000 0.373480
O O6 0.500000 0.249038 0.500000
O O7 0.569234 0.237463 0.401605
O O8 0.500000 0.000000 0.371815
O O9 0.158915 0.500000 0.500000
O O10 0.226748 0.247965 0.452858
O O11 0.161046 0.293064 0.364529
O O12 0.161190 0.000000 0.500000
O O13 0.646075 0.611688 0.573910
O O14 0.634496 0.848851 0.703732
O O15 0.625005 0.102173 0.574234
O O16 0.303070 0.735884 0.622844
O O17 0.750013 0.382790 0.872134
O O18 0.791442 0.500000 0.000000
O O19 0.251021 0.567819 0.257865
#
# Coordination Sequence:
#
# PCOD9329889 Si02
#       8
#     8   8   8   8   8   8   8   8
#     4  10  19  34  55  78  97 144 198 250 298 355
#     4  10  21  41  69  95 121 153 186 217 287 368
#     4  11  24  38  54  75 115 161 215 251 303 361
#     4  10  22  41  63  91 117 143 197 245 291 363
#     4  10  22  38  56  81 119 154 195 252 308 344
#     4  11  26  40  53  81 116 158 208 267 317 347
#     4  10  20  36  59  82 110 149 192 259 299 333
#     4  12  24  36  60  74 100 145 214 255 304 366
#
# _framework density 22.372534999999999
#
# number of rings (size 3 to 8) (size 9 to 14) (size 15 to 20)
#    0.000    1.500    2.500    2.250    5.250    2.000 
#    6.750    0.000    0.000    0.000    0.000    0.000 
#    0.000    3.000    0.000    0.000    0.000    0.000 
#
# Total GULP energy -178271.815753 kJ/mol
# GULP energy per Si atom -5570.994242 kJ/mol
# Density = 2.232161 g / cm^3
# Si number density = 22.372535 Si / 1000 Ang^3
#
#
#
# Elastic Constant Matrix: (Units=GPa)
#
#
# Indices 1 2 3 4 5 6 
#
# 1 39.0656 17.6021 25.6301 0.0000 0.0000 0.0000
# 2 17.6021 233.9072 22.5870 0.0000 0.0000 0.0000
# 3 25.6301 22.5870 67.5419 0.0000 0.0000 0.0000
# 4 0.0000 0.0000 0.0000 25.9476 0.0000 0.0000
# 5 0.0000 0.0000 0.0000 0.0000 8.5836 0.0000
# 6 0.0000 0.0000 0.0000 0.0000 0.0000 24.6573
#
#
#
# Elastic Compliance Matrix: (Units=1/GPa)
#
#
# Indices 1 2 3 4 5 6 
#
# 1 0.034507 -0.001377 -0.012634 0.000000 0.000000 0.000000
# 2 -0.001377 0.004473 -0.000973 0.000000 0.000000 0.000000
# 3 -0.012634 -0.000973 0.019925 0.000000 0.000000 0.000000
# 4 0.000000 0.000000 0.000000 0.038539 0.000000 0.000000
# 5 0.000000 0.000000 0.000000 0.000000 0.116501 0.000000
# 6 0.000000 0.000000 0.000000 0.000000 0.000000 0.040556
#
#
# Mechanical properties :
#
#
# Convention : Reuss Voigt Hill
#
# Bulk Modulus (GPa) = 34.55769 52.46145 43.50957
# Shear Modulus (GPa) = 17.00012 30.15075 23.57543
#
# Velocity S-wave (km/s) = 2.75956 3.67504 3.24970
# Velocity P-wave (km/s) = 5.06296 6.44266 5.79402
#
# Compressibility (1/GPa) = 0.02893712
#
# Stress axis : x y z
#
# Youngs Moduli (GPa) = 28.97940 223.57394 50.18727
#
# Poissons Ratio (x) = 0.30781 0.63407
# Poissons Ratio (y) = 0.03990 0.04885
# Poissons Ratio (z) = 0.36613 0.21761
#
# Static dielectric constant tensor:
#      x y z
#    x 1.793560 0.000000 0.000000 
#    y 0.000000 1.992940 0.000000 
#    z 0.000000 0.000000 1.942900 
# 
# From -- ./inp_files/25491.got.cif
#   From: 2010.05.17/outbox.cif.g08.bks.cpg/sg23_13_cif.got.tgz:25491.got - 2010.06.04 12:02:01.
