data_PCOD9329719
_publ_section_title
;
Structure prediction by ZEFSAII (Michael W. Deem and Ramdas Pophale) SiO2 
 PCOD9329719
Probable space group: I 2 2 2
;
_chemical_formula_sum "Si O2"
_cell_formula_units_Z 38
_cell_length_a 13.168478
_cell_length_b 6.332122
_cell_length_c 22.283377
_cell_angle_alpha 90.000000
_cell_angle_beta 90.000000
_cell_angle_gamma 90.000000
_cell_volume 1858.086227
_symmetry_space_group_name_H-M "I 2 2 2"
_symmetry_group_IT_number 23
_symmetry_cell_setting 'orthorhombic'
loop_
_space_group_symop_operation_xyz
x,y,z
-x,-y,z
x,-y,-z
-x,y,-z
1/2+x,1/2+y,1/2+z
1/2-x,1/2-y,1/2+z
1/2+x,1/2-y,1/2-z
1/2-x,1/2+y,1/2-z
loop_
_atom_site_type_symbol
_atom_site_label
_atom_site_fract_x
_atom_site_fract_y
_atom_site_fract_z
Si Si1 0.750506 0.096380 0.684501
Si Si2 0.177907 0.219204 0.102406
Si Si3 0.682365 0.832665 0.926576
Si Si4 0.000000 0.500000 0.500000
Si Si5 0.319631 0.000000 0.500000
Si Si6 0.391068 0.455856 0.290904
O O1 0.816517 0.251622 0.642039
O O2 0.644288 0.216986 0.696408
O O3 0.732329 0.885641 0.646439
O O4 0.806126 0.046948 0.746264
O O5 0.125773 0.354167 0.049452
O O6 0.259433 0.057279 0.074117
O O7 0.109661 0.079332 0.145985
O O8 0.574180 0.863217 0.957704
O O9 0.748866 0.660831 0.962453
O O10 0.500000 0.500000 0.262672
#
# Coordination Sequence:
#
# PCOD9329719 Si02
#       6
#     8   8   8   2   4   8
#     4  10  22  42  62  90 132 171 212 280 327 394
#     4  10  20  40  62  89 126 170 214 267 331 388
#     4  10  22  36  59  89 130 170 212 270 326 399
#     4  12  20  38  56 100 132 164 220 268 328 428
#     4  10  18  39  64  83 120 180 206 266 344 368
#     4  11  23  41  66  95 129 172 223 271 337 404
#
# _framework density 20.451150999999999
#
# number of rings (size 3 to 8) (size 9 to 14) (size 15 to 20)
#    0.000    1.684    4.211    0.000    0.000    2.947 
#    0.000    0.000    0.000   36.632    0.000    0.000 
#    0.000    0.000    0.000    0.000    0.000    0.000 
#
# Total GULP energy -105982.711794 kJ/mol
# GULP energy per Si atom -5578.037463 kJ/mol
# Density = 2.040460 g / cm^3
# Si number density = 20.451151 Si / 1000 Ang^3
#
#
#
# Elastic Constant Matrix: (Units=GPa)
#
#
# Indices 1 2 3 4 5 6 
#
# 1 49.8055 26.5658 0.8667 0.0000 0.0000 0.0000
# 2 26.5658 113.3643 31.7346 0.0000 0.0000 0.0000
# 3 0.8667 31.7346 84.5766 0.0000 0.0000 0.0000
# 4 0.0000 0.0000 0.0000 56.8093 0.0000 0.0000
# 5 0.0000 0.0000 0.0000 0.0000 23.9231 0.0000
# 6 0.0000 0.0000 0.0000 0.0000 0.0000 6.8586
#
#
#
# Elastic Compliance Matrix: (Units=1/GPa)
#
#
# Indices 1 2 3 4 5 6 
#
# 1 0.023251 -0.006013 0.002018 0.000000 0.000000 0.000000
# 2 -0.006013 0.011412 -0.004220 0.000000 0.000000 0.000000
# 3 0.002018 -0.004220 0.013386 0.000000 0.000000 0.000000
# 4 0.000000 0.000000 0.000000 0.017603 0.000000 0.000000
# 5 0.000000 0.000000 0.000000 0.000000 0.041801 0.000000
# 6 0.000000 0.000000 0.000000 0.000000 0.000000 0.145803
#
#
# Mechanical properties :
#
#
# Convention : Reuss Voigt Hill
#
# Bulk Modulus (GPa) = 31.62811 40.67561 36.15186
# Shear Modulus (GPa) = 17.84279 30.09015 23.96647
#
# Velocity S-wave (km/s) = 2.95695 3.83994 3.42700
# Velocity P-wave (km/s) = 5.21122 6.29226 5.77708
#
# Compressibility (1/GPa) = 0.03161745
#
# Stress axis : x y z
#
# Youngs Moduli (GPa) = 43.00977 87.62921 74.70245
#
# Poissons Ratio (x) = 0.52696 -0.15076
# Poissons Ratio (y) = 0.25864 0.31526
# Poissons Ratio (z) = -0.08680 0.36982
#
# Static dielectric constant tensor:
#      x y z
#    x 1.678900 0.000000 0.000000 
#    y 0.000000 1.755350 0.000000 
#    z 0.000000 0.000000 1.768140 
# 
# From -- ./inp_files/1749.got.cif
#   From: 2010.05.17/outbox.cif.g08.bks.cpg/sg23_1_cif.got.tgz:1749.got - 2010.06.04 12:02:01.
