data_PCOD9329336
_publ_section_title
;
Structure prediction by ZEFSAII (Michael W. Deem and Ramdas Pophale) SiO2 
 PCOD9329336
Probable space group: I 2 2 2
;
_chemical_formula_sum "Si O2"
_cell_formula_units_Z 56
_cell_length_a 27.390246
_cell_length_b 17.679180
_cell_length_c 5.601709
_cell_angle_alpha 90.000000
_cell_angle_beta 90.000000
_cell_angle_gamma 90.000000
_cell_volume 2712.555261
_symmetry_space_group_name_H-M "I 2 2 2"
_symmetry_group_IT_number 23
_symmetry_cell_setting 'orthorhombic'
loop_
_space_group_symop_operation_xyz
x,y,z
-x,-y,z
x,-y,-z
-x,y,-z
1/2+x,1/2+y,1/2+z
1/2-x,1/2-y,1/2+z
1/2+x,1/2-y,1/2-z
1/2-x,1/2+y,1/2-z
loop_
_atom_site_type_symbol
_atom_site_label
_atom_site_fract_x
_atom_site_fract_y
_atom_site_fract_z
Si Si1 0.180919 0.771984 0.250000
Si Si2 0.907238 0.431527 0.250000
Si Si3 0.941007 0.403701 0.750000
Si Si4 0.638683 0.256081 0.250000
Si Si5 0.722095 0.868132 0.750000
Si Si6 0.978402 0.256294 0.750000
Si Si7 0.199247 0.409035 0.750000
O O1 0.154894 0.793778 0.498744
O O2 0.234996 0.806399 0.250000
O O3 0.184454 0.680711 0.250000
O O4 0.154894 0.793778 0.001256
O O5 0.915194 0.388448 0.496310
O O6 0.942127 0.505091 0.250000
O O7 0.850799 0.456555 0.250000
O O8 0.915194 0.388449 0.003690
O O9 0.986839 0.348160 0.750000
O O10 0.670940 0.178281 0.250000
O O11 0.580167 0.251097 0.250000
O O12 0.725305 0.915137 0.505185
O O13 0.725305 0.915137 0.994815
O O14 0.000000 0.226950 0.500000
O O15 0.000000 0.226950 0.000000
#
# Coordination Sequence:
#
# PCOD9329336 Si02
#       7
#     8   8   8   8   8   8   8
#     4  10  17  28  46  69  84 100 123 153 206 282
#     4  10  19  32  49  63  76 104 139 176 237 278
#     4  10  20  35  48  58  75 100 145 196 220 262
#     4  10  18  30  46  61  85 108 128 168 218 271
#     4  10  18  27  45  68  86 100 122 153 205 283
#     4  12  24  37  49  64  82 112 154 195 238 277
#     4  10  16  25  40  61  86 104 119 151 200 271
#
# _framework density 20.644741
#
# number of rings (size 3 to 8) (size 9 to 14) (size 15 to 20)
#    0.000    1.714    0.000   10.286    0.000    0.000 
#    0.000    8.571    0.000    0.000    0.000    0.000 
#    0.000    0.000    0.000    0.000    0.000    0.000 
#
# Total GULP energy -156127.002192 kJ/mol
# GULP energy per Si atom -5575.964364 kJ/mol
# Density = 2.059775 g / cm^3
# Si number density = 20.644741 Si / 1000 Ang^3
#
#
#
# Elastic Constant Matrix: (Units=GPa)
#
#
# Indices 1 2 3 4 5 6 
#
# 1 126.9788 24.1788 58.0360 0.0000 0.0000 0.0000
# 2 24.1788 12.4534 14.2765 0.0000 0.0000 0.0000
# 3 58.0360 14.2765 274.8944 0.0000 0.0000 0.0000
# 4 0.0000 0.0000 0.0000 6.8520 0.0000 0.0000
# 5 0.0000 0.0000 0.0000 0.0000 38.0434 0.0000
# 6 0.0000 0.0000 0.0000 0.0000 0.0000 17.7447
#
#
#
# Elastic Compliance Matrix: (Units=1/GPa)
#
#
# Indices 1 2 3 4 5 6 
#
# 1 0.013075 -0.023629 -0.001533 0.000000 0.000000 0.000000
# 2 -0.023629 0.128082 -0.001663 0.000000 0.000000 0.000000
# 3 -0.001533 -0.001663 0.004048 0.000000 0.000000 0.000000
# 4 0.000000 0.000000 0.000000 0.145944 0.000000 0.000000
# 5 0.000000 0.000000 0.000000 0.000000 0.026286 0.000000
# 6 0.000000 0.000000 0.000000 0.000000 0.000000 0.056355
#
#
# Mechanical properties :
#
#
# Convention : Reuss Voigt Hill
#
# Bulk Modulus (GPa) = 10.92245 67.47880 39.20062
# Shear Modulus (GPa) = 10.91803 33.71703 22.31753
#
# Velocity S-wave (km/s) = 2.30217 4.04567 3.29146
# Velocity P-wave (km/s) = 3.51694 7.38783 5.78571
#
# Compressibility (1/GPa) = 0.09155453
#
# Stress axis : x y z
#
# Youngs Moduli (GPa) = 76.47956 7.80751 247.04347
#
# Poissons Ratio (x) = 0.18448 0.37881
# Poissons Ratio (y) = 1.80710 0.41093
# Poissons Ratio (z) = 0.11727 0.01299
#
# Static dielectric constant tensor:
#      x y z
#    x 1.748080 0.000000 0.000000 
#    y 0.000000 1.739120 0.000000 
#    z 0.000000 0.000000 1.860290 
# 
# From -- ./inp_files/4576.got.cif
#   From: 2010.05.17/outbox.cif.g08.bks.cpg/sg23_3_cif.got.tgz:4576.got - 2010.06.04 12:02:01.
