data_PCOD9329315
_publ_section_title
;
Structure prediction by ZEFSAII (Michael W. Deem and Ramdas Pophale) SiO2 
 PCOD9329315
Probable space group: F 2 2 2
;
_chemical_formula_sum "Si O2"
_cell_formula_units_Z 26
_cell_length_a 9.000000
_cell_length_b 21.000000
_cell_length_c 27.000000
_cell_angle_alpha 90.000000
_cell_angle_beta 90.000000
_cell_angle_gamma 90.000000
_cell_volume 5103.000000
_symmetry_space_group_name_H-M "F 2 2 2"
_symmetry_group_IT_number 22
_symmetry_cell_setting 'orthorhombic'
loop_
_space_group_symop_operation_xyz
x,y,z
-x,-y,z
x,-y,-z
-x,y,-z
x,1/2+y,1/2+z
-x,1/2-y,1/2+z
x,1/2-y,1/2-z
-x,1/2+y,1/2-z
1/2+x,y,1/2+z
1/2-x,-y,1/2+z
1/2+x,-y,1/2-z
1/2-x,y,1/2-z
1/2+x,1/2+y,z
1/2-x,1/2-y,z
1/2+x,1/2-y,-z
1/2-x,1/2+y,-z
loop_
_atom_site_type_symbol
_atom_site_label
_atom_site_fract_x
_atom_site_fract_y
_atom_site_fract_z
Si Si1 0.500000 0.000000 0.842247
Si Si2 0.719949 0.889206 0.862566
Si Si3 0.287656 0.617434 0.668427
Si Si4 0.826718 0.818470 0.953881
Si Si5 0.977795 0.074686 0.209797
Si Si6 0.551550 0.685735 0.715845
Si Si7 0.324804 0.819523 0.568054
O O1 0.398204 0.054125 0.866211
O O2 0.623889 0.050738 0.821742
O O3 0.749933 0.866280 0.917076
O O4 0.661953 0.827936 0.830404
O O5 0.863811 0.917962 0.835422
O O6 0.132789 0.606823 0.695445
O O7 0.388010 0.673820 0.692134
O O8 0.244386 0.635901 0.611424
O O9 0.750000 0.750000 0.951080
O O10 0.995584 0.813005 0.932873
O O11 0.804553 0.840487 0.010745
O O12 0.918342 0.121651 0.252170
O O13 0.000000 0.000000 0.222622
O O14 0.564747 0.750000 0.750000
O O15 0.250000 0.750000 0.574202
#
# Coordination Sequence:
#
# PCOD9329315 Si02
#       7
#     8  16  16  16  16  16  16
#     4  10  24  44  65  98 130 178 222 270 331 400
#     4  11  24  44  69  95 138 175 225 279 334 392
#     4  11  24  44  69  95 138 175 225 279 334 392
#     4  10  23  43  70 102 133 171 217 274 348 410
#     4  12  25  43  70  94 134 187 231 270 335 399
#     4  11  29  44  64 103 139 179 231 277 332 393
#     4  10  23  43  70 102 133 171 217 274 348 410
#
# _framework density 5.0950420000000003
#
# number of rings (size 3 to 8) (size 9 to 14) (size 15 to 20)
#    0.000    1.231    3.077    0.923   12.923    2.462 
#    0.000    1.538    0.000    2.769    0.000    0.000 
#    0.000    0.000    0.000    0.000    0.000    0.000 
#
# Total GULP energy -144962.962108 kJ/mol
# GULP energy per Si atom -5575.498543 kJ/mol
# Density = 0.508345 g / cm^3
# Si number density = 5.095042 Si / 1000 Ang^3
#
#
#
# Elastic Constant Matrix: (Units=GPa)
#
#
# Indices 1 2 3 4 5 6 
#
# 1 110.4005 18.5821 34.8659 0.0000 0.0000 0.0000
# 2 18.5821 93.7053 40.4742 0.0000 0.0000 0.0000
# 3 34.8659 40.4742 92.9656 0.0000 0.0000 0.0000
# 4 0.0000 0.0000 0.0000 22.7448 0.0000 0.0000
# 5 0.0000 0.0000 0.0000 0.0000 9.5476 0.0000
# 6 0.0000 0.0000 0.0000 0.0000 0.0000 22.1754
#
#
#
# Elastic Compliance Matrix: (Units=1/GPa)
#
#
# Indices 1 2 3 4 5 6 
#
# 1 0.010291 -0.000460 -0.003659 0.000000 0.000000 0.000000
# 2 -0.000460 0.013164 -0.005559 0.000000 0.000000 0.000000
# 3 -0.003659 -0.005559 0.014549 0.000000 0.000000 0.000000
# 4 0.000000 0.000000 0.000000 0.043966 0.000000 0.000000
# 5 0.000000 0.000000 0.000000 0.000000 0.104738 0.000000
# 6 0.000000 0.000000 0.000000 0.000000 0.000000 0.045095
#
#
# Mechanical properties :
#
#
# Convention : Reuss Voigt Hill
#
# Bulk Modulus (GPa) = 53.62491 53.87953 53.75222
# Shear Modulus (GPa) = 19.42687 24.43684 21.93185
#
# Velocity S-wave (km/s) = 3.09078 3.46649 3.28401
# Velocity P-wave (km/s) = 6.25353 6.52048 6.38840
#
# Compressibility (1/GPa) = 0.01864805
#
# Stress axis : x y z
#
# Youngs Moduli (GPa) = 97.17222 75.96514 68.73319
#
# Poissons Ratio (x) = 0.03496 0.25151
# Poissons Ratio (y) = 0.04472 0.38206
# Poissons Ratio (z) = 0.35557 0.42226
#
# Static dielectric constant tensor:
#      x y z
#    x 1.830220 0.000000 0.000000 
#    y 0.000000 1.698380 0.000000 
#    z 0.000000 0.000000 1.760530 
# 
# From -- ./inp_files/51993.got.cif
#   From: 2010.05.17/outbox.ucp.g08.bks.cvg/sg22_26_cif.got.tgz:51993.got - 2010.06.11 15:16:44.
