data_PCOD9329104
_publ_section_title
;
Structure prediction by ZEFSAII (Michael W. Deem and Ramdas Pophale) SiO2 
 PCOD9329104
Probable space group: F 2 2 2
;
_chemical_formula_sum "Si O2"
_cell_formula_units_Z 48
_cell_length_a 25.770826
_cell_length_b 13.627068
_cell_length_c 5.389861
_cell_angle_alpha 90.000000
_cell_angle_beta 90.000000
_cell_angle_gamma 90.000000
_cell_volume 1892.815689
_symmetry_space_group_name_H-M "F 2 2 2"
_symmetry_group_IT_number 22
_symmetry_cell_setting 'orthorhombic'
loop_
_space_group_symop_operation_xyz
x,y,z
-x,-y,z
x,-y,-z
-x,y,-z
x,1/2+y,1/2+z
-x,1/2-y,1/2+z
x,1/2-y,1/2-z
-x,1/2+y,1/2-z
1/2+x,y,1/2+z
1/2-x,-y,1/2+z
1/2+x,-y,1/2-z
1/2-x,y,1/2-z
1/2+x,1/2+y,z
1/2-x,1/2-y,z
1/2+x,1/2-y,-z
1/2-x,1/2+y,-z
loop_
_atom_site_type_symbol
_atom_site_label
_atom_site_fract_x
_atom_site_fract_y
_atom_site_fract_z
Si Si1 0.137356 0.750000 0.250000
Si Si2 0.282386 0.000000 0.500000
Si Si3 0.352604 0.605146 0.635460
Si Si4 0.558484 0.882794 0.465275
O O1 0.167954 0.807104 0.465008
O O2 0.097650 0.667492 0.346848
O O3 0.318842 0.915454 0.616967
O O4 0.250000 0.971459 0.250000
O O5 0.352805 0.500000 0.500000
O O6 0.411704 0.632978 0.706306
O O7 0.500000 0.846899 0.500000
O O8 0.558079 0.000000 0.500000
#
# Coordination Sequence:
#
# PCOD9329104 Si02
#       4
#     8   8  16  16
#     4  12  26  44  80 113 168 214 271 330 414 480
#     4  12  26  50  91 124 155 214 284 350 438 498
#     4  12  24  50  78 123 159 218 273 347 411 500
#     4  11  25  45  71 116 167 216 272 330 392 487
#
# _framework density 25.359045999999999
#
# number of rings (size 3 to 8) (size 9 to 14) (size 15 to 20)
#    0.000    0.333    6.667    1.000    4.667    0.000 
#    0.000    0.000    0.000   28.000    0.000    0.000 
#    0.000    0.000    0.000    0.000    0.000    0.000 
#
# Total GULP energy -67083.258520 kJ/mol
# GULP energy per Si atom -5590.271543 kJ/mol
# Density = 2.530133 g / cm^3
# Si number density = 25.359046 Si / 1000 Ang^3
#
#
#
# Elastic Constant Matrix: (Units=GPa)
#
#
# Indices 1 2 3 4 5 6 
#
# 1 130.8906 35.9100 68.5840 0.0000 0.0000 0.0000
# 2 35.9100 128.3605 66.0246 0.0000 0.0000 0.0000
# 3 68.5840 66.0246 189.0718 0.0000 0.0000 0.0000
# 4 0.0000 0.0000 0.0000 70.8259 0.0000 0.0000
# 5 0.0000 0.0000 0.0000 0.0000 24.5873 0.0000
# 6 0.0000 0.0000 0.0000 0.0000 0.0000 -0.2227
#
#
#
# Elastic Compliance Matrix: (Units=1/GPa)
#
#
# Indices 1 2 3 4 5 6 
#
# 1 0.009555 -0.001085 -0.003087 0.000000 0.000000 0.000000
# 2 -0.001085 0.009620 -0.002966 0.000000 0.000000 0.000000
# 3 -0.003087 -0.002966 0.007444 0.000000 0.000000 0.000000
# 4 0.000000 0.000000 0.000000 0.014119 0.000000 0.000000
# 5 0.000000 0.000000 0.000000 0.000000 0.040671 -0.000002
# 6 0.000000 0.000000 0.000000 0.000000 -0.000002 -4.489442
#
#
# Mechanical properties :
#
#
# Convention : Reuss Voigt Hill
#
# Bulk Modulus (GPa) = 81.01471 87.70669 84.36070
# Shear Modulus (GPa) = -1.13905 37.55839 18.20967
#
# Velocity S-wave (km/s) = -0.67093 3.85264 2.68260
# Velocity P-wave (km/s) = 5.60502 7.37912 6.55239
#
# Compressibility (1/GPa) = 0.01234344
#
# Stress axis : x y z
#
# Youngs Moduli (GPa) = 104.65401 103.95512 134.32943
#
# Poissons Ratio (x) = 0.11282 0.41469
# Poissons Ratio (y) = 0.11358 0.39835
# Poissons Ratio (z) = 0.32308 0.30828
#
# Static dielectric constant tensor:
#      x y z
#    x 2.014190 0.000000 0.000000 
#    y 0.000000 2.027730 0.000000 
#    z 0.000000 0.000000 2.180320 
# 
# From -- ./inp_files/5126.got.cif
#   From: 2010.05.17/outbox.cif.g08.bks.cpg/sg22_3_cif.got.tgz:5126.got - 2010.06.03 23:40:54.
