data_PCOD9329797
_publ_section_title
;
Structure prediction by ZEFSAII (Michael W. Deem and Ramdas Pophale) SiO2 
 PCOD9329797
Probable space group: I 2 2 2
;
_chemical_formula_sum "Si O2"
_cell_formula_units_Z 48
_cell_length_a 5.168942
_cell_length_b 33.646948
_cell_length_c 19.468905
_cell_angle_alpha 90.000000
_cell_angle_beta 90.000000
_cell_angle_gamma 90.000000
_cell_volume 3386.014877
_symmetry_space_group_name_H-M "I 2 2 2"
_symmetry_group_IT_number 23
_symmetry_cell_setting 'orthorhombic'
loop_
_space_group_symop_operation_xyz
x,y,z
-x,-y,z
x,-y,-z
-x,y,-z
1/2+x,1/2+y,1/2+z
1/2-x,1/2-y,1/2+z
1/2+x,1/2-y,1/2-z
1/2-x,1/2+y,1/2-z
loop_
_atom_site_type_symbol
_atom_site_label
_atom_site_fract_x
_atom_site_fract_y
_atom_site_fract_z
Si Si1 0.252369 0.727910 0.546650
Si Si2 0.438202 0.777615 0.670945
Si Si3 0.749151 0.018199 0.922663
Si Si4 0.141672 0.389004 0.572875
Si Si5 0.331698 0.649146 0.630445
Si Si6 0.057418 0.196491 0.738126
O O1 0.500000 0.719629 0.500000
O O2 0.337640 0.763759 0.596736
O O3 0.217555 0.688701 0.593392
O O4 0.000000 0.734954 0.500000
O O5 0.719394 0.796725 0.681522
O O6 0.444490 0.736725 0.715410
O O7 0.222482 0.805625 0.704265
O O8 0.732518 0.065319 0.928712
O O9 0.500000 0.000000 0.887319
O O10 0.000000 0.000000 0.888280
O O11 0.749648 0.000000 0.000000
O O12 0.399886 0.364234 0.593109
O O13 0.000000 0.379462 0.500000
O O14 0.901892 0.382124 0.624395
O O15 0.389291 0.661432 0.708451
#
# Coordination Sequence:
#
# PCOD9329797 Si02
#       6
#     8   8   8   8   8   8
#     4  11  20  31  41  62  87 103 130 166 219 265
#     4   9  17  29  47  55  73 108 131 165 196 247
#     4  10  19  32  44  56  72 102 140 175 192 254
#     4  12  21  31  44  60  81 106 135 168 231 265
#     4  11  22  30  43  62  84 106 128 177 221 266
#     4   9  17  31  43  59  74  99 143 161 198 251
#
# _framework density 14.175955999999999
#
# number of rings (size 3 to 8) (size 9 to 14) (size 15 to 20)
#    0.000    1.667    1.667    6.000    2.333    5.333 
#    0.000    0.000    0.000    0.000    0.000    0.000 
#    0.000    0.000    0.000    0.000    0.000    0.000 
#
# Total GULP energy -133710.332429 kJ/mol
# GULP energy per Si atom -5571.263851 kJ/mol
# Density = 1.414369 g / cm^3
# Si number density = 14.175956 Si / 1000 Ang^3
#
#
#
# Elastic Constant Matrix: (Units=GPa)
#
#
# Indices 1 2 3 4 5 6 
#
# 1 76.6993 3.6925 -10.1970 0.0000 0.0000 0.0000
# 2 3.6925 42.5255 8.8126 0.0000 0.0000 0.0000
# 3 -10.1970 8.8126 15.9823 0.0000 0.0000 -0.0003
# 4 0.0000 0.0000 0.0000 -8.1954 0.0000 0.0003
# 5 0.0000 0.0000 0.0000 0.0000 14.4381 0.0000
# 6 0.0000 0.0000 -0.0003 0.0003 0.0000 -370.6390
#
#
#
# Elastic Compliance Matrix: (Units=1/GPa)
#
#
# Indices 1 2 3 4 5 6 
#
# 1 0.014730 -0.003643 0.011406 0.000000 0.000000 0.000000
# 2 -0.003643 0.027450 -0.017460 0.000000 0.000000 0.000000
# 3 0.011406 -0.017460 0.079474 0.000000 0.000000 0.000000
# 4 0.000000 0.000000 0.000000 -0.122019 0.000000 0.000000
# 5 0.000000 0.000000 0.000000 0.000000 0.069261 0.000000
# 6 0.000000 0.000000 0.000000 0.000000 0.000000 -0.002698
#
#
# Mechanical properties :
#
#
# Convention : Reuss Voigt Hill
#
# Bulk Modulus (GPa) = 9.77888 15.53594 12.65741
# Shear Modulus (GPa) = 41.77906 -64.01933 -11.12014
#
# Velocity S-wave (km/s) = 5.43468 -6.72745 -2.80382
# Velocity P-wave (km/s) = 6.80398 7.02578 1.23842
#
# Compressibility (1/GPa) = 0.10226119
#
# Stress axis : x y z
#
# Youngs Moduli (GPa) = 67.88978 36.43004 12.58270
#
# Poissons Ratio (x) = 0.13271 -0.14352
# Poissons Ratio (y) = 0.24731 0.21969
# Poissons Ratio (z) = -0.77438 0.63607
#
# Static dielectric constant tensor:
#      x y z
#    x 1.496320 0.000000 0.000000 
#    y 0.000000 1.469520 0.000000 
#    z 0.000000 0.000000 3.436390 
# 
# From -- ./inp_files/23290.got.cif
#   From: 2010.05.17/outbox.cif.g08.bks.cpg/sg23_12_cif.got.tgz:23290.got - 2010.06.04 12:02:01.
