data_PCOD9329640
_publ_section_title
;
Structure prediction by ZEFSAII (Michael W. Deem and Ramdas Pophale) SiO2 
 PCOD9329640
Probable space group: I 2 2 2
;
_chemical_formula_sum "Si O2"
_cell_formula_units_Z 36
_cell_length_a 18.805401
_cell_length_b 5.080419
_cell_length_c 18.501581
_cell_angle_alpha 90.000000
_cell_angle_beta 90.000000
_cell_angle_gamma 90.000000
_cell_volume 1767.628404
_symmetry_space_group_name_H-M "I 2 2 2"
_symmetry_group_IT_number 23
_symmetry_cell_setting 'orthorhombic'
loop_
_space_group_symop_operation_xyz
x,y,z
-x,-y,z
x,-y,-z
-x,y,-z
1/2+x,1/2+y,1/2+z
1/2-x,1/2-y,1/2+z
1/2+x,1/2-y,1/2-z
1/2-x,1/2+y,1/2-z
loop_
_atom_site_type_symbol
_atom_site_label
_atom_site_fract_x
_atom_site_fract_y
_atom_site_fract_z
Si Si1 0.382466 0.401010 0.926855
Si Si2 0.243926 0.773846 0.366751
Si Si3 0.833987 0.615336 0.768050
Si Si4 0.075215 0.123099 0.268528
Si Si5 0.272181 0.000000 0.000000
O O1 0.332058 0.629968 0.896439
O O2 0.426539 0.330881 0.855960
O O3 0.325491 0.186725 0.954328
O O4 0.419769 0.500000 0.000000
O O5 0.221987 0.592217 0.298932
O O6 0.274616 0.638828 0.438209
O O7 0.290023 0.016762 0.337389
O O8 0.897156 0.401961 0.760362
O O9 0.867769 0.904022 0.758850
O O10 0.000000 0.000000 0.247019
#
# Coordination Sequence:
#
# PCOD9329640 Si02
#       5
#     8   8   8   8   4
#     4   9  19  33  53  82 116 153 193 242 289 350
#     4  10  20  34  58  87 121 150 191 247 315 348
#     4  11  22  36  60  86 116 156 197 248 298 347
#     4  11  23  39  56  80 119 164 205 238 277 344
#     4  10  18  34  56  89 125 150 186 246 302 368
#
# _framework density 20.366273
#
# number of rings (size 3 to 8) (size 9 to 14) (size 15 to 20)
#    0.000    1.778    2.222    3.333    3.111    0.444 
#    0.000    0.000    0.000    0.000    0.000    0.778 
#    0.000    0.000    0.000    0.000    0.000    0.000 
#
# Total GULP energy -100276.793656 kJ/mol
# GULP energy per Si atom -5570.932981 kJ/mol
# Density = 2.031992 g / cm^3
# Si number density = 20.366273 Si / 1000 Ang^3
#
#
#
# Elastic Constant Matrix: (Units=GPa)
#
#
# Indices 1 2 3 4 5 6 
#
# 1 63.5396 -3.3807 13.9039 0.0000 0.0000 0.0000
# 2 -3.3807 69.5112 21.9941 0.0000 0.0000 0.0000
# 3 13.9039 21.9941 80.7406 0.0000 0.0000 0.0000
# 4 0.0000 0.0000 0.0000 40.5644 0.0000 0.0000
# 5 0.0000 0.0000 0.0000 0.0000 12.4393 0.0000
# 6 0.0000 0.0000 0.0000 0.0000 0.0000 18.9785
#
#
#
# Elastic Compliance Matrix: (Units=1/GPa)
#
#
# Indices 1 2 3 4 5 6 
#
# 1 0.016574 0.001870 -0.003364 0.000000 0.000000 0.000000
# 2 0.001870 0.015954 -0.004668 0.000000 0.000000 0.000000
# 3 -0.003364 -0.004668 0.014236 0.000000 0.000000 0.000000
# 4 0.000000 0.000000 0.000000 0.024652 0.000000 0.000000
# 5 0.000000 0.000000 0.000000 0.000000 0.080391 0.000000
# 6 0.000000 0.000000 0.000000 0.000000 0.000000 0.052691
#
#
# Mechanical properties :
#
#
# Convention : Reuss Voigt Hill
#
# Bulk Modulus (GPa) = 29.03473 30.98065 30.00769
# Shear Modulus (GPa) = 21.90091 26.48137 24.19114
#
# Velocity S-wave (km/s) = 3.28281 3.60982 3.45019
# Velocity P-wave (km/s) = 5.35317 5.71132 5.53514
#
# Compressibility (1/GPa) = 0.03444151
#
# Stress axis : x y z
#
# Youngs Moduli (GPa) = 60.33634 62.67962 70.24364
#
# Poissons Ratio (x) = -0.11723 0.23627
# Poissons Ratio (y) = -0.11285 0.32790
# Poissons Ratio (z) = 0.20294 0.29259
#
# Static dielectric constant tensor:
#      x y z
#    x 1.723210 0.000000 0.000000 
#    y 0.000000 1.865870 0.000000 
#    z 0.000000 0.000000 1.872380 
# 
# From -- ./inp_files/3211.got.cif
#   From: 2010.05.17/outbox.cif.g08.bks.cpg/sg23_2_cif.got.tgz:3211.got - 2010.06.04 12:02:01.
