data_PCOD9329869
_publ_section_title
;
Structure prediction by ZEFSAII (Michael W. Deem and Ramdas Pophale) SiO2 
 PCOD9329869
Probable space group: I 2 2 2
;
_chemical_formula_sum "Si O2"
_cell_formula_units_Z 54
_cell_length_a 34.164377
_cell_length_b 15.310931
_cell_length_c 5.119609
_cell_angle_alpha 90.000000
_cell_angle_beta 90.000000
_cell_angle_gamma 90.000000
_cell_volume 2678.008177
_symmetry_space_group_name_H-M "I 2 2 2"
_symmetry_group_IT_number 23
_symmetry_cell_setting 'orthorhombic'
loop_
_space_group_symop_operation_xyz
x,y,z
-x,-y,z
x,-y,-z
-x,y,-z
1/2+x,1/2+y,1/2+z
1/2-x,1/2-y,1/2+z
1/2+x,1/2-y,1/2-z
1/2-x,1/2+y,1/2-z
loop_
_atom_site_type_symbol
_atom_site_label
_atom_site_fract_x
_atom_site_fract_y
_atom_site_fract_z
Si Si1 0.000000 0.198308 0.000000
Si Si2 0.500000 0.000000 0.500000
Si Si3 0.710095 0.316681 0.560920
Si Si4 0.537060 0.845747 0.807177
Si Si5 0.127491 0.830968 0.167643
Si Si6 0.449408 0.440271 0.255914
Si Si7 0.877783 0.291849 0.662559
Si Si8 0.294814 0.804555 0.062288
O O1 0.979958 0.139383 0.221949
O O2 0.032405 0.262946 0.115767
O O3 0.472549 0.063644 0.666268
O O4 0.670610 0.370277 0.612577
O O5 0.707760 0.274386 0.273588
O O6 0.753656 0.355167 0.595506
O O7 0.706041 0.237824 0.773583
O O8 0.581770 0.841668 0.898432
O O9 0.500000 0.835095 0.000000
O O10 0.093060 0.900403 0.183476
O O11 0.126037 0.783667 0.446593
O O12 0.121395 0.756866 0.943326
O O13 0.458814 0.500000 0.500000
O O14 0.450718 0.500000 0.000000
O O15 0.837162 0.345434 0.625971
#
# Coordination Sequence:
#
# PCOD9329869 Si02
#       8
#     4   2   8   8   8   8   8   8
#     4  11  25  41  59  82 114 158 203 247 307 341
#     4  10  26  44  58  98 110 144 192 236 314 366
#     4   8  14  25  47  72 113 139 176 232 282 330
#     4  11  23  41  67  85 118 151 193 246 298 374
#     4  10  19  36  53  82 111 154 194 238 287 336
#     4  12  26  40  55  80 117 158 208 250 290 337
#     4  10  19  33  59  83 115 146 192 232 286 352
#     4   8  14  25  44  81 108 139 175 229 282 331
#
# _framework density 20.164238999999998
#
# number of rings (size 3 to 8) (size 9 to 14) (size 15 to 20)
#    0.000    2.074    1.481    2.222    4.148    0.593 
#    0.000    0.000    0.000    0.000    1.926    2.074 
#    0.000    0.000    0.000    0.000    0.000    0.000 
#
# Total GULP energy -150421.493297 kJ/mol
# GULP energy per Si atom -5571.166418 kJ/mol
# Density = 2.011834 g / cm^3
# Si number density = 20.164239 Si / 1000 Ang^3
#
#
#
# Elastic Constant Matrix: (Units=GPa)
#
#
# Indices 1 2 3 4 5 6 
#
# 1 214.8661 32.9137 2.6455 0.0041 -0.0001 -0.0002
# 2 32.9137 55.1517 14.4750 0.0010 -0.0005 -0.0002
# 3 2.6455 14.4750 93.5017 0.0173 0.0017 -0.0003
# 4 0.0041 0.0010 0.0173 62.4707 -0.0016 -0.0010
# 5 -0.0001 -0.0005 0.0017 -0.0016 24.9881 -0.0002
# 6 -0.0002 -0.0002 -0.0003 -0.0010 -0.0002 15.7070
#
#
#
# Elastic Compliance Matrix: (Units=1/GPa)
#
#
# Indices 1 2 3 4 5 6 
#
# 1 0.005133 -0.003153 0.000343 0.000000 0.000000 0.000000
# 2 -0.003153 0.020837 -0.003137 0.000001 0.000001 0.000000
# 3 0.000343 -0.003137 0.011171 -0.000003 -0.000001 0.000000
# 4 0.000000 0.000001 -0.000003 0.016008 0.000001 0.000001
# 5 0.000000 0.000001 -0.000001 0.000001 0.040019 0.000001
# 6 0.000000 0.000000 0.000000 0.000001 0.000001 0.063666
#
#
# Mechanical properties :
#
#
# Convention : Reuss Voigt Hill
#
# Bulk Modulus (GPa) = 39.60886 51.50977 45.55932
# Shear Modulus (GPa) = 28.22590 41.53218 34.87904
#
# Velocity S-wave (km/s) = 3.74545 4.54331 4.16354
# Velocity P-wave (km/s) = 6.19599 7.28854 6.76436
#
# Compressibility (1/GPa) = 0.02524688
#
# Stress axis : x y z
#
# Youngs Moduli (GPa) = 194.82333 47.99204 89.51868
#
# Poissons Ratio (x) = 0.15133 -0.03070
# Poissons Ratio (y) = 0.61432 0.28078
# Poissons Ratio (z) = -0.06681 0.15053
#
# Static dielectric constant tensor:
#      x y z
#    x 1.821210 0.000000 0.000000 
#    y 0.000000 1.643870 0.000000 
#    z 0.000000 0.000000 1.737180 
# 
# From -- ./inp_files/5379.got.cif
#   From: 2010.05.17/outbox.cif.g08.bks.cpg/sg23_3_cif.got.tgz:5379.got - 2010.06.04 12:02:01.
