data_PCOD9329395
_publ_section_title
;
Structure prediction by ZEFSAII (Michael W. Deem and Ramdas Pophale) SiO2 
 PCOD9329395
Probable space group: I 2 2 2
;
_chemical_formula_sum "Si O2"
_cell_formula_units_Z 32
_cell_length_a 7.257987
_cell_length_b 5.329780
_cell_length_c 33.435123
_cell_angle_alpha 90.000000
_cell_angle_beta 90.000000
_cell_angle_gamma 90.000000
_cell_volume 1293.386710
_symmetry_space_group_name_H-M "I 2 2 2"
_symmetry_group_IT_number 23
_symmetry_cell_setting 'orthorhombic'
loop_
_space_group_symop_operation_xyz
x,y,z
-x,-y,z
x,-y,-z
-x,y,-z
1/2+x,1/2+y,1/2+z
1/2-x,1/2-y,1/2+z
1/2+x,1/2-y,1/2-z
1/2-x,1/2+y,1/2-z
loop_
_atom_site_type_symbol
_atom_site_label
_atom_site_fract_x
_atom_site_fract_y
_atom_site_fract_z
Si Si1 0.788520 0.429214 0.391949
Si Si2 0.709351 0.433882 0.138099
Si Si3 0.789828 0.253652 0.482588
Si Si4 0.704681 0.896690 0.272938
O O1 0.706183 0.709797 0.388640
O O2 0.791450 0.300844 0.435421
O O3 0.000000 0.500000 0.380492
O O4 0.703983 0.212778 0.364118
O O5 0.500000 0.500000 0.124811
O O6 0.707699 0.346302 0.183774
O O7 0.699429 0.500000 0.500000
O O8 0.000000 0.251965 0.500000
O O9 0.708425 0.000000 0.500000
O O10 0.700650 0.634439 0.249034
O O11 0.500000 0.000000 0.279264
#
# Coordination Sequence:
#
# PCOD9329395 Si02
#       4
#     8   8   8   8
#     4  10  18  30  46  74 114 161 193 245 304 376
#     4  10  21  34  54  81 118 158 198 247 320 368
#     4  10  17  24  41  66 107 156 197 235 301 361
#     4  12  25  44  69  95 126 165 218 267 324 396
#
# _framework density 24.741247999999999
#
# number of rings (size 3 to 8) (size 9 to 14) (size 15 to 20)
#    0.000    1.500    2.500    5.250    7.000    2.000 
#    0.000    0.000    0.000    0.000    0.000    0.000 
#    0.000   15.000    0.000    0.000    0.000    0.000 
#
# Total GULP energy -89317.040294 kJ/mol
# GULP energy per Si atom -5582.315018 kJ/mol
# Density = 2.468494 g / cm^3
# Si number density = 24.741248 Si / 1000 Ang^3
#
#
#
# Elastic Constant Matrix: (Units=GPa)
#
#
# Indices 1 2 3 4 5 6 
#
# 1 69.3249 8.1058 -7.3854 0.0000 0.0000 0.0000
# 2 8.1058 266.0545 69.1777 0.0000 0.0000 0.0000
# 3 -7.3854 69.1777 141.3653 0.0000 0.0000 0.0000
# 4 0.0000 0.0000 0.0000 53.5792 0.0000 0.0000
# 5 0.0000 0.0000 0.0000 0.0000 -7.0978 0.0000
# 6 0.0000 0.0000 0.0000 0.0000 0.0000 1.3801
#
#
#
# Elastic Compliance Matrix: (Units=1/GPa)
#
#
# Indices 1 2 3 4 5 6 
#
# 1 0.014631 -0.000738 0.001126 0.000000 0.000000 0.000000
# 2 -0.000738 0.004344 -0.002164 0.000000 0.000000 0.000000
# 3 0.001126 -0.002164 0.008192 0.000000 0.000000 0.000000
# 4 0.000000 0.000000 0.000000 0.018664 0.000000 0.000000
# 5 0.000000 0.000000 0.000000 0.000000 -0.140890 0.000000
# 6 0.000000 0.000000 0.000000 0.000000 0.000000 0.724608
#
#
# Mechanical properties :
#
#
# Convention : Reuss Voigt Hill
#
# Bulk Modulus (GPa) = 42.34995 68.50455 55.42725
# Shear Modulus (GPa) = 7.80063 36.69541 22.24802
#
# Velocity S-wave (km/s) = 1.77756 3.85537 3.00197
# Velocity P-wave (km/s) = 4.62248 6.89688 5.87087
#
# Compressibility (1/GPa) = 0.02361278
#
# Stress axis : x y z
#
# Youngs Moduli (GPa) = 68.34748 230.20972 122.07365
#
# Poissons Ratio (x) = 0.17000 -0.13742
# Poissons Ratio (y) = 0.05047 0.26420
# Poissons Ratio (z) = -0.07694 0.49824
#
# Static dielectric constant tensor:
#      x y z
#    x 2.003240 0.000000 0.000000 
#    y 0.000000 2.086440 0.000000 
#    z 0.000000 0.000000 1.957410 
# 
# From -- ./inp_files/705.got.cif
#   From: 2010.05.17/outbox.cif.g08.bks.cpg/sg23_1_cif.got.tgz:705.got - 2010.06.04 12:02:01.
