data_PCOD9329726
_publ_section_title
;
Structure prediction by ZEFSAII (Michael W. Deem and Ramdas Pophale) SiO2 
 PCOD9329726
Probable space group: I 2 2 2
;
_chemical_formula_sum "Si O2"
_cell_formula_units_Z 56
_cell_length_a 9.030307
_cell_length_b 15.744164
_cell_length_c 20.807456
_cell_angle_alpha 90.000000
_cell_angle_beta 90.000000
_cell_angle_gamma 90.000000
_cell_volume 2958.292449
_symmetry_space_group_name_H-M "I 2 2 2"
_symmetry_group_IT_number 23
_symmetry_cell_setting 'orthorhombic'
loop_
_space_group_symop_operation_xyz
x,y,z
-x,-y,z
x,-y,-z
-x,y,-z
1/2+x,1/2+y,1/2+z
1/2-x,1/2-y,1/2+z
1/2+x,1/2-y,1/2-z
1/2-x,1/2+y,1/2-z
loop_
_atom_site_type_symbol
_atom_site_label
_atom_site_fract_x
_atom_site_fract_y
_atom_site_fract_z
Si Si1 0.640277 0.736379 0.169145
Si Si2 0.500000 0.000000 0.863123
Si Si3 0.130967 0.355509 0.083450
Si Si4 0.578150 0.414535 0.161179
Si Si5 0.286266 0.182026 0.441544
Si Si6 0.167897 0.599217 0.254427
Si Si7 0.074181 0.333424 0.430556
Si Si8 0.500000 0.000000 0.650772
O O1 0.788505 0.703392 0.135265
O O2 0.545037 0.652976 0.183283
O O3 0.668909 0.801641 0.227131
O O4 0.538637 0.786567 0.117911
O O5 0.383487 0.952700 0.816674
O O6 0.583469 0.929270 0.905024
O O7 0.121104 0.453590 0.106615
O O8 0.959692 0.327928 0.074878
O O9 0.218467 0.346109 0.016257
O O10 0.500000 0.500000 0.138387
O O11 0.682260 0.373342 0.105813
O O12 0.679472 0.430582 0.223376
O O13 0.223069 0.277458 0.433964
O O14 0.052976 0.574093 0.198483
O O15 0.000000 0.333075 0.500000
#
# Coordination Sequence:
#
# PCOD9329726 Si02
#       8
#     8   4   8   8   8   8   8   4
#     4  10  23  38  66  86 124 164 202 255 316 361
#     4   9  21  38  68  92 121 165 206 262 308 367
#     4  11  22  42  62  92 124 168 201 262 307 378
#     4  11  23  43  59  93 122 161 208 260 308 370
#     4  10  23  39  64  93 124 162 208 247 321 377
#     4  10  22  42  57  91 122 163 212 247 308 372
#     4  10  18  40  64  95 122 158 207 256 311 370
#     4  11  22  39  60  88 127 161 208 250 298 379
#
# _framework density 18.929838
#
# number of rings (size 3 to 8) (size 9 to 14) (size 15 to 20)
#    0.000    1.714    2.857    1.071    2.000    1.143 
#    7.714    2.143    0.000    0.000    0.000    0.000 
#    0.000    0.000    0.000    0.000    0.000    0.000 
#
# Total GULP energy -156197.232475 kJ/mol
# GULP energy per Si atom -5578.472588 kJ/mol
# Density = 1.888675 g / cm^3
# Si number density = 18.929838 Si / 1000 Ang^3
#
#
#
# Elastic Constant Matrix: (Units=GPa)
#
#
# Indices 1 2 3 4 5 6 
#
# 1 73.3745 32.6468 24.9997 0.0000 0.0000 0.0000
# 2 32.6468 106.2605 32.8710 0.0000 0.0000 0.0000
# 3 24.9997 32.8710 62.6101 0.0000 0.0000 0.0000
# 4 0.0000 0.0000 0.0000 17.7076 0.0000 0.0000
# 5 0.0000 0.0000 0.0000 0.0000 24.7641 0.0000
# 6 0.0000 0.0000 0.0000 0.0000 0.0000 22.7935
#
#
#
# Elastic Compliance Matrix: (Units=1/GPa)
#
#
# Indices 1 2 3 4 5 6 
#
# 1 0.016917 -0.003711 -0.004807 0.000000 0.000000 0.000000
# 2 -0.003711 0.012049 -0.004844 0.000000 0.000000 0.000000
# 3 -0.004807 -0.004844 0.020435 0.000000 0.000000 0.000000
# 4 0.000000 0.000000 0.000000 0.056473 0.000000 0.000000
# 5 0.000000 0.000000 0.000000 0.000000 0.040381 0.000000
# 6 0.000000 0.000000 0.000000 0.000000 0.000000 0.043872
#
#
# Mechanical properties :
#
#
# Convention : Reuss Voigt Hill
#
# Bulk Modulus (GPa) = 44.09645 47.03113 45.56379
# Shear Modulus (GPa) = 22.28055 23.16820 22.72437
#
# Velocity S-wave (km/s) = 3.43447 3.50222 3.46851
# Velocity P-wave (km/s) = 6.25082 6.42285 6.33742
#
# Compressibility (1/GPa) = 0.02267756
#
# Stress axis : x y z
#
# Youngs Moduli (GPa) = 59.11044 82.99117 48.93655
#
# Poissons Ratio (x) = 0.30795 0.23523
# Poissons Ratio (y) = 0.21934 0.23707
# Poissons Ratio (z) = 0.28414 0.40205
#
# Static dielectric constant tensor:
#      x y z
#    x 1.665160 0.000000 0.000000 
#    y 0.000000 1.677170 0.000000 
#    z 0.000000 0.000000 1.660280 
# 
# From -- ./inp_files/26289.got.cif
#   From: 2010.05.17/outbox.cif.g08.bks.cpg/sg23_14_cif.got.tgz:26289.got - 2010.06.04 12:02:01.
