data_PCOD9329481
_publ_section_title
;
Structure prediction by ZEFSAII (Michael W. Deem and Ramdas Pophale) SiO2 
 PCOD9329481
Probable space group: I 2 2 2
;
_chemical_formula_sum "Si O2"
_cell_formula_units_Z 58
_cell_length_a 29.895043
_cell_length_b 10.081726
_cell_length_c 9.905146
_cell_angle_alpha 90.000000
_cell_angle_beta 90.000000
_cell_angle_gamma 90.000000
_cell_volume 2985.347931
_symmetry_space_group_name_H-M "I 2 2 2"
_symmetry_group_IT_number 23
_symmetry_cell_setting 'orthorhombic'
loop_
_space_group_symop_operation_xyz
x,y,z
-x,-y,z
x,-y,-z
-x,y,-z
1/2+x,1/2+y,1/2+z
1/2-x,1/2-y,1/2+z
1/2+x,1/2-y,1/2-z
1/2-x,1/2+y,1/2-z
loop_
_atom_site_type_symbol
_atom_site_label
_atom_site_fract_x
_atom_site_fract_y
_atom_site_fract_z
Si Si1 0.549029 0.468397 0.659684
Si Si2 0.696033 0.502277 0.357611
Si Si3 0.881923 0.809575 0.202371
Si Si4 0.000000 0.500000 0.000000
Si Si5 0.340874 0.338026 0.979198
Si Si6 0.339451 0.228771 0.274143
Si Si7 0.421008 0.812808 0.573204
Si Si8 0.753447 0.585404 0.877522
O O1 0.500000 0.500000 0.714847
O O2 0.548053 0.500000 0.500000
O O3 0.584338 0.567776 0.722031
O O4 0.563814 0.317157 0.656854
O O5 0.720317 0.500000 0.500000
O O6 0.664845 0.372375 0.349605
O O7 0.663391 0.372029 0.652183
O O8 0.729037 0.506892 0.232349
O O9 0.868783 0.772423 0.356121
O O10 0.904673 0.722215 0.081808
O O11 0.035575 0.405316 0.925472
O O12 0.288162 0.332302 0.939486
O O13 0.349286 0.500000 0.000000
O O14 0.348356 0.262601 0.118891
O O15 0.377219 0.140618 0.346261
O O16 0.291165 0.166702 0.302163
O O17 0.772985 0.500000 0.000000
#
# Coordination Sequence:
#
# PCOD9329481 Si02
#       8
#     8   8   8   2   8   8   8   8
#     4   9  15  28  57  91 114 139 190 261 320 371
#     4  11  19  35  57  92 122 158 212 254 309 363
#     4  10  17  34  61  92 118 153 199 262 315 363
#     4  12  28  44  62  94 120 164 204 272 336 388
#     4  10  19  37  57  92 129 160 200 258 315 366
#     4  12  22  36  62  86 125 171 207 254 316 373
#     4  11  22  39  61  87 119 157 210 259 316 390
#     4  10  23  37  55  87 133 172 206 259 304 376
#
# _framework density 19.428222000000002
#
# number of rings (size 3 to 8) (size 9 to 14) (size 15 to 20)
#    0.000    1.517    6.897    2.069    2.897    0.000 
#    0.000    0.000    0.000    8.690    0.000    0.000 
#    0.000    0.000    0.000    0.000    0.000    0.000 
#
# Total GULP energy -161520.256832 kJ/mol
# GULP energy per Si atom -5569.664029 kJ/mol
# Density = 1.938400 g / cm^3
# Si number density = 19.428222 Si / 1000 Ang^3
#
#
#
# Elastic Constant Matrix: (Units=GPa)
#
#
# Indices 1 2 3 4 5 6 
#
# 1 90.2597 26.9733 39.4148 0.0000 0.0000 0.0000
# 2 26.9733 28.4628 21.5393 0.0000 0.0000 0.0000
# 3 39.4148 21.5393 143.7913 0.0000 0.0000 0.0000
# 4 0.0000 0.0000 0.0000 11.2319 0.0000 0.0000
# 5 0.0000 0.0000 0.0000 0.0000 0.0170 0.0000
# 6 0.0000 0.0000 0.0000 0.0000 0.0000 27.6859
#
#
#
# Elastic Compliance Matrix: (Units=1/GPa)
#
#
# Indices 1 2 3 4 5 6 
#
# 1 0.016164 -0.013495 -0.002409 0.000000 0.000000 0.000000
# 2 -0.013495 0.050892 -0.003924 0.000000 0.000000 0.000000
# 3 -0.002409 -0.003924 0.008203 0.000000 0.000000 0.000000
# 4 0.000000 0.000000 0.000000 0.089032 0.000000 0.000000
# 5 0.000000 0.000000 0.000000 0.000000 58.801831 0.000000
# 6 0.000000 0.000000 0.000000 0.000000 0.000000 0.036119
#
#
# Mechanical properties :
#
#
# Convention : Reuss Voigt Hill
#
# Bulk Modulus (GPa) = 28.08838 48.70760 38.39799
# Shear Modulus (GPa) = 0.08467 19.42605 9.75536
#
# Velocity S-wave (km/s) = 0.20899 3.16553 2.24324
# Velocity P-wave (km/s) = 3.81407 6.20369 5.14941
#
# Compressibility (1/GPa) = 0.03560191
#
# Stress axis : x y z
#
# Youngs Moduli (GPa) = 61.86557 19.64942 121.91006
#
# Poissons Ratio (x) = 0.26517 0.29371
# Poissons Ratio (y) = 0.83487 0.47841
# Poissons Ratio (z) = 0.14905 0.07711
#
# Static dielectric constant tensor:
#      x y z
#    x 1.717260 0.000000 0.000000 
#    y 0.000000 1.756900 0.000000 
#    z 0.000000 0.000000 1.714040 
# 
# From -- ./inp_files/13474.got.cif
#   From: 2010.05.17/outbox.cif.g08.bks.cpg/sg23_7_cif.got.tgz:13474.got - 2010.06.04 12:02:01.
