data_PCOD9329133
_publ_section_title
;
Structure prediction by ZEFSAII (Michael W. Deem and Ramdas Pophale) SiO2 
 PCOD9329133
Probable space group: F 2 2 2
;
_chemical_formula_sum "Si O2"
_cell_formula_units_Z 80
_cell_length_a 12.445377
_cell_length_b 10.911715
_cell_length_c 30.065683
_cell_angle_alpha 90.000000
_cell_angle_beta 90.000000
_cell_angle_gamma 90.000000
_cell_volume 4082.931985
_symmetry_space_group_name_H-M "F 2 2 2"
_symmetry_group_IT_number 22
_symmetry_cell_setting 'orthorhombic'
loop_
_space_group_symop_operation_xyz
x,y,z
-x,-y,z
x,-y,-z
-x,y,-z
x,1/2+y,1/2+z
-x,1/2-y,1/2+z
x,1/2-y,1/2-z
-x,1/2+y,1/2-z
1/2+x,y,1/2+z
1/2-x,-y,1/2+z
1/2+x,-y,1/2-z
1/2-x,y,1/2-z
1/2+x,1/2+y,z
1/2-x,1/2-y,z
1/2+x,1/2-y,-z
1/2-x,1/2+y,-z
loop_
_atom_site_type_symbol
_atom_site_label
_atom_site_fract_x
_atom_site_fract_y
_atom_site_fract_z
Si Si1 0.880343 0.767474 0.801952
Si Si2 0.915649 0.106975 0.384864
Si Si3 0.086642 0.794144 0.035199
Si Si4 0.500000 0.000000 0.655635
Si Si5 0.250000 0.750000 0.532519
Si Si6 0.809358 0.986361 0.088639
O O1 0.903560 0.750000 0.750000
O O2 0.750000 0.750000 0.807106
O O3 0.926015 0.668132 0.836512
O O4 0.937755 0.894612 0.816707
O O5 0.938391 0.210437 0.422238
O O6 0.795992 0.050221 0.390176
O O7 0.000000 0.000000 0.391106
O O8 0.145336 0.911555 0.055171
O O9 0.157686 0.712132 0.001956
O O10 0.000000 0.839918 0.000000
O O11 0.403760 0.954137 0.623492
O O12 0.219925 0.635719 0.562493
#
# Coordination Sequence:
#
# PCOD9329133 Si02
#       6
#    16  16  16   8   8  16
#     4  11  25  50  77 107 141 184 234 299 372 438
#     4  12  25  46  69 102 145 186 237 299 364 428
#     4  12  24  44  65  97 137 190 243 288 348 413
#     4  12  24  46  79 104 142 184 241 286 366 436
#     4  12  26  38  62  98 138 184 238 284 336 416
#     4  12  25  45  67 101 146 187 242 294 354 425
#
# _framework density 19.593762000000002
#
# number of rings (size 3 to 8) (size 9 to 14) (size 15 to 20)
#    0.000    0.200    6.000    3.000    4.200    2.800 
#    0.000    0.000    0.000    1.200    0.000    0.000 
#    0.000    0.000    0.000    0.000    0.000    0.000 
#
# Total GULP energy -111681.466406 kJ/mol
# GULP energy per Si atom -5584.073320 kJ/mol
# Density = 1.954917 g / cm^3
# Si number density = 19.593762 Si / 1000 Ang^3
#
#
#
# Elastic Constant Matrix: (Units=GPa)
#
#
# Indices 1 2 3 4 5 6 
#
# 1 105.9496 57.8057 55.8945 0.0000 0.0000 0.0000
# 2 57.8057 158.7130 91.0292 0.0000 0.0000 0.0000
# 3 55.8945 91.0292 158.0229 0.0000 0.0000 0.0000
# 4 0.0000 0.0000 0.0000 -68.8334 0.0000 0.0000
# 5 0.0000 0.0000 0.0000 0.0000 12.2222 0.0000
# 6 0.0000 0.0000 0.0000 0.0000 0.0000 39.6737
#
#
#
# Elastic Compliance Matrix: (Units=1/GPa)
#
#
# Indices 1 2 3 4 5 6 
#
# 1 0.012499 -0.003012 -0.002686 0.000000 0.000000 0.000000
# 2 -0.003012 0.010135 -0.004773 0.000000 0.000000 0.000000
# 3 -0.002686 -0.004773 0.010028 0.000000 0.000000 0.000000
# 4 0.000000 0.000000 0.000000 -0.014528 0.000000 0.000000
# 5 0.000000 0.000000 0.000000 0.000000 0.081819 0.000000
# 6 0.000000 0.000000 0.000000 0.000000 0.000000 0.025206
#
#
# Mechanical properties :
#
#
# Convention : Reuss Voigt Hill
#
# Bulk Modulus (GPa) = 85.32396 92.46046 88.89221
# Shear Modulus (GPa) = 33.33193 11.14291 22.23742
#
# Velocity S-wave (km/s) = 4.12897 2.38732 3.37252
# Velocity P-wave (km/s) = 8.14692 7.40880 7.78661
#
# Compressibility (1/GPa) = 0.01172004
#
# Stress axis : x y z
#
# Youngs Moduli (GPa) = 80.00887 98.66649 99.72229
#
# Poissons Ratio (x) = 0.29714 0.26786
# Poissons Ratio (y) = 0.24095 0.47599
# Poissons Ratio (z) = 0.21491 0.47095
#
# Static dielectric constant tensor:
#      x y z
#    x 1.932540 0.000000 0.000000 
#    y 0.000000 1.666650 0.000000 
#    z 0.000000 0.000000 1.667400 
# 
# From -- ./inp_files/18324.got.cif
#   From: 2010.05.17/outbox.cif.g08.bks.cpg/sg22_10_cif.got.tgz:18324.got - 2010.06.03 23:40:54.
