data_PCOD9329034
_publ_section_title
;
Structure prediction by ZEFSAII (Michael W. Deem and Ramdas Pophale) SiO2 
 PCOD9329034
Probable space group: F 2 2 2
;
_chemical_formula_sum "Si O2"
_cell_formula_units_Z 80
_cell_length_a 10.580346
_cell_length_b 14.402353
_cell_length_c 22.187945
_cell_angle_alpha 90.000000
_cell_angle_beta 90.000000
_cell_angle_gamma 90.000000
_cell_volume 3381.040727
_symmetry_space_group_name_H-M "F 2 2 2"
_symmetry_group_IT_number 22
_symmetry_cell_setting 'orthorhombic'
loop_
_space_group_symop_operation_xyz
x,y,z
-x,-y,z
x,-y,-z
-x,y,-z
x,1/2+y,1/2+z
-x,1/2-y,1/2+z
x,1/2-y,1/2-z
-x,1/2+y,1/2-z
1/2+x,y,1/2+z
1/2-x,-y,1/2+z
1/2+x,-y,1/2-z
1/2-x,y,1/2-z
1/2+x,1/2+y,z
1/2-x,1/2-y,z
1/2+x,1/2-y,-z
1/2-x,1/2+y,-z
loop_
_atom_site_type_symbol
_atom_site_label
_atom_site_fract_x
_atom_site_fract_y
_atom_site_fract_z
Si Si1 0.128514 0.464653 0.157844
Si Si2 0.250000 0.750000 0.462442
Si Si3 0.902505 0.414897 0.673513
Si Si4 0.580199 0.657987 0.629148
Si Si5 0.373494 0.100729 0.469774
Si Si6 0.027556 0.750000 0.250000
O O1 0.258385 0.441725 0.188378
O O2 0.151107 0.558702 0.119596
O O3 0.000000 0.500000 0.192545
O O4 0.066783 0.374525 0.126027
O O5 0.366619 0.730972 0.417429
O O6 0.261784 0.837020 0.505848
O O7 0.891542 0.397141 0.601599
O O8 0.000000 0.500000 0.679307
O O9 0.947341 0.327246 0.713112
O O10 0.601780 0.696785 0.696807
O O11 0.500000 0.139777 0.500000
O O12 0.359247 0.000000 0.500000
#
# Coordination Sequence:
#
# PCOD9329034 Si02
#       6
#    16   8  16  16  16   8
#     4   8  23  49  70  99 157 194 252 310 378 465
#     4  12  24  47  78 109 156 200 264 332 386 476
#     4  12  26  49  79 112 157 206 264 320 396 474
#     4   9  24  45  70 111 150 199 259 309 390 462
#     4  11  24  44  76 111 149 204 259 323 394 459
#     4  12  28  44  78 114 150 207 251 330 378 475
#
# _framework density 23.661352999999998
#
# number of rings (size 3 to 8) (size 9 to 14) (size 15 to 20)
#    1.200    0.200    2.000    2.400    5.600    6.000 
#    0.000    0.000    4.400    0.000    0.000    0.000 
#    0.000    0.000    0.000    0.000    0.000    0.000 
#
# Total GULP energy -111483.119184 kJ/mol
# GULP energy per Si atom -5574.155959 kJ/mol
# Density = 2.360750 g / cm^3
# Si number density = 23.661353 Si / 1000 Ang^3
#
#
#
# Elastic Constant Matrix: (Units=GPa)
#
#
# Indices 1 2 3 4 5 6 
#
# 1 117.0647 41.0764 53.7356 0.0000 0.0000 0.0000
# 2 41.0764 117.3966 65.7696 0.0000 0.0000 0.0000
# 3 53.7356 65.7696 191.6150 0.0000 0.0000 0.0000
# 4 0.0000 0.0000 0.0000 34.0026 0.0000 0.0000
# 5 0.0000 0.0000 0.0000 0.0000 0.9723 0.0000
# 6 0.0000 0.0000 0.0000 0.0000 0.0000 9.8964
#
#
#
# Elastic Compliance Matrix: (Units=1/GPa)
#
#
# Indices 1 2 3 4 5 6 
#
# 1 0.010353 -0.002471 -0.002055 0.000000 0.000000 0.000000
# 2 -0.002471 0.011136 -0.003129 0.000000 0.000000 0.000000
# 3 -0.002055 -0.003129 0.006869 0.000000 0.000000 0.000000
# 4 0.000000 0.000000 0.000000 0.029410 0.000000 0.000000
# 5 0.000000 0.000000 0.000000 0.000000 1.028452 0.000000
# 6 0.000000 0.000000 0.000000 0.000000 0.000000 0.101047
#
#
# Mechanical properties :
#
#
# Convention : Reuss Voigt Hill
#
# Bulk Modulus (GPa) = 76.64635 83.02661 79.83648
# Shear Modulus (GPa) = 4.14275 26.67390 15.40833
#
# Velocity S-wave (km/s) = 1.32463 3.36120 2.55463
# Velocity P-wave (km/s) = 5.89940 7.08726 6.52044
#
# Compressibility (1/GPa) = 0.01304694
#
# Stress axis : x y z
#
# Youngs Moduli (GPa) = 96.59339 89.79991 145.57695
#
# Poissons Ratio (x) = 0.22190 0.29918
# Poissons Ratio (y) = 0.23868 0.45555
# Poissons Ratio (z) = 0.19851 0.28101
#
# Static dielectric constant tensor:
#      x y z
#    x 1.916050 0.000000 0.000000 
#    y 0.000000 1.972280 0.000000 
#    z 0.000000 0.000000 1.895050 
# 
# From -- ./inp_files/47973.got.cif
#   From: 2010.05.17/outbox.cif.g08.bks.cpg/sg22_24_cif.got.tgz:47973.got - 2010.06.03 23:40:54.
