data_PCOD9329153
_publ_section_title
;
Structure prediction by ZEFSAII (Michael W. Deem and Ramdas Pophale) SiO2 
 PCOD9329153
Probable space group: F 2 2 2
;
_chemical_formula_sum "Si O2"
_cell_formula_units_Z 56
_cell_length_a 7.563293
_cell_length_b 25.867992
_cell_length_c 11.938070
_cell_angle_alpha 90.000000
_cell_angle_beta 90.000000
_cell_angle_gamma 90.000000
_cell_volume 2335.650003
_symmetry_space_group_name_H-M "F 2 2 2"
_symmetry_group_IT_number 22
_symmetry_cell_setting 'orthorhombic'
loop_
_space_group_symop_operation_xyz
x,y,z
-x,-y,z
x,-y,-z
-x,y,-z
x,1/2+y,1/2+z
-x,1/2-y,1/2+z
x,1/2-y,1/2-z
-x,1/2+y,1/2-z
1/2+x,y,1/2+z
1/2-x,-y,1/2+z
1/2+x,-y,1/2-z
1/2-x,y,1/2-z
1/2+x,1/2+y,z
1/2-x,1/2-y,z
1/2+x,1/2-y,-z
1/2-x,1/2+y,-z
loop_
_atom_site_type_symbol
_atom_site_label
_atom_site_fract_x
_atom_site_fract_y
_atom_site_fract_z
Si Si1 0.500000 0.357412 0.500000
Si Si2 0.638651 0.605981 0.098706
Si Si3 0.713166 0.002213 0.865467
Si Si4 0.961168 0.190256 0.262903
O O1 0.674071 0.388573 0.533653
O O2 0.517259 0.323126 0.391516
O O3 0.425983 0.651637 0.816924
O O4 0.500000 0.605158 0.000000
O O5 0.659436 0.551788 0.160268
O O6 0.750000 0.968471 0.750000
O O7 0.500000 0.000000 0.870064
O O8 0.760447 0.000000 0.000000
O O9 0.012277 0.250000 0.250000
O O10 0.750000 0.184284 0.250000
#
# Coordination Sequence:
#
# PCOD9329153 Si02
#       4
#     8  16  16  16
#     4  12  24  46  75 110 154 204 259 326 390 474
#     4  12  27  50  80 114 158 211 265 331 405 478
#     4  11  27  51  78 113 154 208 266 332 403 482
#     4  11  26  47  78 116 158 213 269 325 396 479
#
# _framework density 23.976195000000001
#
# number of rings (size 3 to 8) (size 9 to 14) (size 15 to 20)
#    0.000    0.571    2.857    4.286    6.000    2.286 
#    0.000    0.000    0.000    0.000    0.000    0.000 
#    0.000    0.000    0.000    0.000    0.000    0.000 
#
# Total GULP energy -77988.978902 kJ/mol
# GULP energy per Si atom -5570.641350 kJ/mol
# Density = 2.392162 g / cm^3
# Si number density = 23.976195 Si / 1000 Ang^3
#
#
#
# Elastic Constant Matrix: (Units=GPa)
#
#
# Indices 1 2 3 4 5 6 
#
# 1 136.1885 38.4791 44.0780 0.0000 0.0000 0.0000
# 2 38.4791 114.2265 27.1693 0.0000 0.0000 0.0000
# 3 44.0780 27.1693 207.5177 0.0000 0.0000 0.0000
# 4 0.0000 0.0000 0.0000 38.3188 0.0000 0.0000
# 5 0.0000 0.0000 0.0000 0.0000 58.6851 0.0000
# 6 0.0000 0.0000 0.0000 0.0000 0.0000 41.8686
#
#
#
# Elastic Compliance Matrix: (Units=1/GPa)
#
#
# Indices 1 2 3 4 5 6 
#
# 1 0.008535 -0.002523 -0.001483 0.000000 0.000000 0.000000
# 2 -0.002523 0.009781 -0.000745 0.000000 0.000000 0.000000
# 3 -0.001483 -0.000745 0.005231 0.000000 0.000000 0.000000
# 4 0.000000 0.000000 0.000000 0.026097 0.000000 0.000000
# 5 0.000000 0.000000 0.000000 0.000000 0.017040 0.000000
# 6 0.000000 0.000000 0.000000 0.000000 0.000000 0.023884
#
#
# Mechanical properties :
#
#
# Convention : Reuss Voigt Hill
#
# Bulk Modulus (GPa) = 71.18495 75.26505 73.22500
# Shear Modulus (GPa) = 47.73165 50.98826 49.35996
#
# Velocity S-wave (km/s) = 4.46667 4.61653 4.54222
# Velocity P-wave (km/s) = 7.50705 7.73797 7.62339
#
# Compressibility (1/GPa) = 0.01404791
#
# Stress axis : x y z
#
# Youngs Moduli (GPa) = 117.15920 102.23400 191.15655
#
# Poissons Ratio (x) = 0.25790 0.28343
# Poissons Ratio (y) = 0.29555 0.14238
# Poissons Ratio (z) = 0.17371 0.07615
#
# Static dielectric constant tensor:
#      x y z
#    x 1.726990 0.000000 0.000000 
#    y 0.000000 2.114690 0.000000 
#    z 0.000000 0.000000 2.209870 
# 
# From -- ./inp_files/16794.got.cif
#   From: 2010.05.17/outbox.cif.g08.bks.cpg/sg22_9_cif.got.tgz:16794.got - 2010.06.03 23:40:54.
