data_PCOD9329898
_publ_section_title
;
Structure prediction by ZEFSAII (Michael W. Deem and Ramdas Pophale) SiO2 
 PCOD9329898
Probable space group: I 2 2 2
;
_chemical_formula_sum "Si O2"
_cell_formula_units_Z 40
_cell_length_a 5.069540
_cell_length_b 12.836292
_cell_length_c 32.153267
_cell_angle_alpha 90.000000
_cell_angle_beta 90.000000
_cell_angle_gamma 90.000000
_cell_volume 2092.344775
_symmetry_space_group_name_H-M "I 2 2 2"
_symmetry_group_IT_number 23
_symmetry_cell_setting 'orthorhombic'
loop_
_space_group_symop_operation_xyz
x,y,z
-x,-y,z
x,-y,-z
-x,y,-z
1/2+x,1/2+y,1/2+z
1/2-x,1/2-y,1/2+z
1/2+x,1/2-y,1/2-z
1/2-x,1/2+y,1/2-z
loop_
_atom_site_type_symbol
_atom_site_label
_atom_site_fract_x
_atom_site_fract_y
_atom_site_fract_z
Si Si1 0.762607 0.566526 0.315841
Si Si2 0.423367 0.211706 0.348748
Si Si3 0.754686 0.116862 0.480411
Si Si4 0.564224 0.616909 0.113862
Si Si5 0.047320 0.684439 0.242362
O O1 0.500000 0.500000 0.307917
O O2 0.661782 0.669368 0.339960
O O3 0.902823 0.606299 0.273423
O O4 0.000000 0.500000 0.336899
O O5 0.723362 0.184299 0.360464
O O6 0.379350 0.152910 0.304453
O O7 0.220877 0.170546 0.383423
O O8 0.500000 0.168067 0.500000
O O9 0.804421 0.107340 0.431670
O O10 0.000000 0.174799 0.500000
O O11 0.752167 0.000000 0.500000
O O12 0.500000 0.500000 0.129170
O O13 0.819038 0.773218 0.237896
#
# Coordination Sequence:
#
# PCOD9329898 Si02
#       5
#     8   8   8   8   8
#     4  11  22  39  62  81 111 164 218 261 307 358
#     4  11  24  38  55  88 123 147 205 259 304 357
#     4  10  19  34  57  79 113 156 194 215 267 368
#     4  12  23  37  56  86 125 164 180 239 307 360
#     4  10  20  38  56  76 109 151 197 258 306 351
#
# _framework density 19.117305999999999
#
# number of rings (size 3 to 8) (size 9 to 14) (size 15 to 20)
#    0.000    1.200    2.000    7.800    2.800    2.400 
#    0.000    0.000    0.000    0.000    0.000    0.000 
#    0.000   56.000    0.000    0.000    0.000    0.000 
#
# Total GULP energy -111413.869256 kJ/mol
# GULP energy per Si atom -5570.693463 kJ/mol
# Density = 1.907379 g / cm^3
# Si number density = 19.117306 Si / 1000 Ang^3
#
#
#
# Elastic Constant Matrix: (Units=GPa)
#
#
# Indices 1 2 3 4 5 6 
#
# 1 146.7845 23.6329 2.7039 0.0000 0.0000 0.0000
# 2 23.6329 79.3181 4.9881 0.0000 0.0000 0.0000
# 3 2.7039 4.9881 59.7432 0.0000 0.0000 0.0000
# 4 0.0000 0.0000 0.0000 13.4136 0.0000 0.0000
# 5 0.0000 0.0000 0.0000 0.0000 36.3288 0.0000
# 6 0.0000 0.0000 0.0000 0.0000 0.0000 32.5214
#
#
#
# Elastic Compliance Matrix: (Units=1/GPa)
#
#
# Indices 1 2 3 4 5 6 
#
# 1 0.007157 -0.002123 -0.000147 0.000000 0.000000 0.000000
# 2 -0.002123 0.013304 -0.001015 0.000000 0.000000 0.000000
# 3 -0.000147 -0.001015 0.016830 0.000000 0.000000 0.000000
# 4 0.000000 0.000000 0.000000 0.074551 0.000000 0.000000
# 5 0.000000 0.000000 0.000000 0.000000 0.027526 0.000000
# 6 0.000000 0.000000 0.000000 0.000000 0.000000 0.030749
#
#
# Mechanical properties :
#
#
# Convention : Reuss Voigt Hill
#
# Bulk Modulus (GPa) = 32.55038 38.72174 35.63606
# Shear Modulus (GPa) = 26.74841 33.42082 30.08461
#
# Velocity S-wave (km/s) = 3.74461 4.18568 3.97127
# Velocity P-wave (km/s) = 5.97995 6.60747 6.30152
#
# Compressibility (1/GPa) = 0.03072161
#
# Stress axis : x y z
#
# Youngs Moduli (GPa) = 139.71813 75.16591 59.41889
#
# Poissons Ratio (x) = 0.15960 0.00871
# Poissons Ratio (y) = 0.29666 0.06029
# Poissons Ratio (z) = 0.02049 0.07627
#
# Static dielectric constant tensor:
#      x y z
#    x 1.696180 0.000000 0.000000 
#    y 0.000000 1.683640 0.000000 
#    z 0.000000 0.000000 1.733340 
# 
# From -- ./inp_files/18712.got.cif
#   From: 2010.05.17/outbox.cif.g08.bks.cpg/sg23_10_cif.got.tgz:18712.got - 2010.06.04 12:02:01.
