data_PCOD9329828
_publ_section_title
;
Structure prediction by ZEFSAII (Michael W. Deem and Ramdas Pophale) SiO2 
 PCOD9329828
Probable space group: I 2 2 2
;
_chemical_formula_sum "Si O2"
_cell_formula_units_Z 56
_cell_length_a 5.053304
_cell_length_b 34.745804
_cell_length_c 16.418240
_cell_angle_alpha 90.000000
_cell_angle_beta 90.000000
_cell_angle_gamma 90.000000
_cell_volume 2882.732809
_symmetry_space_group_name_H-M "I 2 2 2"
_symmetry_group_IT_number 23
_symmetry_cell_setting 'orthorhombic'
loop_
_space_group_symop_operation_xyz
x,y,z
-x,-y,z
x,-y,-z
-x,y,-z
1/2+x,1/2+y,1/2+z
1/2-x,1/2-y,1/2+z
1/2+x,1/2-y,1/2-z
1/2-x,1/2+y,1/2-z
loop_
_atom_site_type_symbol
_atom_site_label
_atom_site_fract_x
_atom_site_fract_y
_atom_site_fract_z
Si Si1 0.589805 0.619167 0.092303
Si Si2 0.826245 0.274058 0.271871
Si Si3 0.571601 0.852842 0.316367
Si Si4 0.041240 0.043475 0.685925
Si Si5 0.469688 0.071536 0.221831
Si Si6 0.743897 0.597049 0.556002
Si Si7 0.740867 0.314245 0.443383
O O1 0.360739 0.636020 0.150607
O O2 0.625657 0.574406 0.117912
O O3 0.859949 0.641192 0.112099
O O4 0.500000 0.622432 0.000000
O O5 0.554264 0.257752 0.235380
O O6 0.923163 0.310803 0.220735
O O7 0.779400 0.288628 0.363739
O O8 0.484078 0.883990 0.247782
O O9 0.261164 0.048567 0.757891
O O10 0.756309 0.055948 0.718974
O O11 0.000000 0.000000 0.657842
O O12 0.338106 0.072189 0.132937
O O13 0.500000 0.583135 0.500000
O O14 0.679371 0.641226 0.582127
O O15 0.000000 0.599592 0.500000
O O16 0.500000 0.300950 0.500000
O O17 0.000000 0.314087 0.500000
#
# Coordination Sequence:
#
# PCOD9329828 Si02
#       7
#     8   8   8   8   8   8   8
#     4  10  21  38  62  86 117 156 200 250 296 352
#     4  12  24  40  61  87 120 161 201 244 301 368
#     4  10  21  39  58  84 114 151 201 242 296 353
#     4  10  21  35  58  87 118 157 196 242 299 348
#     4  10  19  36  58  82 117 150 192 247 285 354
#     4  10  19  32  57  87 110 142 189 245 295 335
#     4  10  21  38  59  84 116 146 190 253 303 341
#
# _framework density 19.426013000000001
#
# number of rings (size 3 to 8) (size 9 to 14) (size 15 to 20)
#    0.000    1.714    1.429    3.429    0.000    0.286 
#    0.000    7.143    0.000   11.571    0.000    0.000 
#    0.000    0.000    0.000    0.000    0.000    0.000 
#
# Total GULP energy -156313.854904 kJ/mol
# GULP energy per Si atom -5582.637675 kJ/mol
# Density = 1.938180 g / cm^3
# Si number density = 19.426013 Si / 1000 Ang^3
#
#
#
# Elastic Constant Matrix: (Units=GPa)
#
#
# Indices 1 2 3 4 5 6 
#
# 1 95.6236 14.7329 1.8326 0.0000 0.0000 0.0000
# 2 14.7329 59.5238 23.7912 0.0000 0.0000 0.0000
# 3 1.8326 23.7912 58.7870 0.0000 0.0000 0.0000
# 4 0.0000 0.0000 0.0000 21.9881 0.0000 0.0000
# 5 0.0000 0.0000 0.0000 0.0000 36.9074 0.0000
# 6 0.0000 0.0000 0.0000 0.0000 0.0000 18.5307
#
#
#
# Elastic Compliance Matrix: (Units=1/GPa)
#
#
# Indices 1 2 3 4 5 6 
#
# 1 0.010912 -0.003060 0.000898 0.000000 0.000000 0.000000
# 2 -0.003060 0.020900 -0.008363 0.000000 0.000000 0.000000
# 3 0.000898 -0.008363 0.020367 0.000000 0.000000 0.000000
# 4 0.000000 0.000000 0.000000 0.045479 0.000000 0.000000
# 5 0.000000 0.000000 0.000000 0.000000 0.027095 0.000000
# 6 0.000000 0.000000 0.000000 0.000000 0.000000 0.053964
#
#
# Mechanical properties :
#
#
# Convention : Reuss Voigt Hill
#
# Bulk Modulus (GPa) = 32.12356 32.73865 32.43110
# Shear Modulus (GPa) = 23.79334 27.05710 25.42522
#
# Velocity S-wave (km/s) = 3.50354 3.73611 3.62169
# Velocity P-wave (km/s) = 5.73922 5.95827 5.84977
#
# Compressibility (1/GPa) = 0.03112980
#
# Stress axis : x y z
#
# Youngs Moduli (GPa) = 91.64317 47.84708 49.09901
#
# Poissons Ratio (x) = 0.14640 -0.04410
# Poissons Ratio (y) = 0.28041 0.41061
# Poissons Ratio (z) = -0.08231 0.40014
#
# Static dielectric constant tensor:
#      x y z
#    x 1.562820 0.000000 0.000000 
#    y 0.000000 1.694360 0.000000 
#    z 0.000000 0.000000 1.686440 
# 
# From -- ./inp_files/5366.got.cif
#   From: 2010.05.17/outbox.cif.g08.bks.cpg/sg23_3_cif.got.tgz:5366.got - 2010.06.04 12:02:01.
