data_PCOD9329733
_publ_section_title
;
Structure prediction by ZEFSAII (Michael W. Deem and Ramdas Pophale) SiO2 
 PCOD9329733
Probable space group: I 2 2 2
;
_chemical_formula_sum "Si O2"
_cell_formula_units_Z 36
_cell_length_a 13.473433
_cell_length_b 8.779984
_cell_length_c 12.880828
_cell_angle_alpha 90.000000
_cell_angle_beta 90.000000
_cell_angle_gamma 90.000000
_cell_volume 1523.757207
_symmetry_space_group_name_H-M "I 2 2 2"
_symmetry_group_IT_number 23
_symmetry_cell_setting 'orthorhombic'
loop_
_space_group_symop_operation_xyz
x,y,z
-x,-y,z
x,-y,-z
-x,y,-z
1/2+x,1/2+y,1/2+z
1/2-x,1/2-y,1/2+z
1/2+x,1/2-y,1/2-z
1/2-x,1/2+y,1/2-z
loop_
_atom_site_type_symbol
_atom_site_label
_atom_site_fract_x
_atom_site_fract_y
_atom_site_fract_z
Si Si1 0.000000 0.000000 0.000000
Si Si2 0.500000 0.736509 0.000000
Si Si3 0.000000 0.500000 0.663539
Si Si4 0.832039 0.647170 0.809190
Si Si5 0.500000 0.000000 0.500000
Si Si6 0.317542 0.618264 0.867637
Si Si7 0.632134 0.753865 0.536436
O O1 0.073774 0.104272 0.066146
O O2 0.418905 0.636661 0.934273
O O3 0.534451 0.857856 0.910155
O O4 0.907337 0.555633 0.733527
O O5 0.736795 0.544943 0.847372
O O6 0.813908 0.798570 0.742306
O O7 0.876714 0.718159 0.914077
O O8 0.429069 0.099747 0.572731
O O9 0.242938 0.726660 0.931865
#
# Coordination Sequence:
#
# PCOD9329733 Si02
#       7
#     2   4   4   8   2   8   8
#     4  10  28  38  72 108 132 176 232 314 372 436
#     4   9  22  46  71 102 152 202 238 302 366 450
#     4   9  21  42  74 102 138 198 250 294 374 444
#     4  11  24  43  73 105 140 191 247 304 360 451
#     4  10  18  42  70  88 128 180 226 274 386 424
#     4  11  25  43  74 104 146 198 246 299 370 438
#     4  11  23  45  69 101 142 183 234 305 373 434
#
# _framework density 23.625812
#
# number of rings (size 3 to 8) (size 9 to 14) (size 15 to 20)
#    0.000    1.556    2.222    0.667    9.333    1.778 
#    0.000    2.222    4.889    0.000    0.000    0.000 
#    0.000    0.000    0.000    0.000    0.000    0.000 
#
# Total GULP energy -100265.726195 kJ/mol
# GULP energy per Si atom -5570.318122 kJ/mol
# Density = 2.357204 g / cm^3
# Si number density = 23.625812 Si / 1000 Ang^3
#
#
#
# Elastic Constant Matrix: (Units=GPa)
#
#
# Indices 1 2 3 4 5 6 
#
# 1 101.4506 25.8972 22.6833 0.0000 0.0000 0.0000
# 2 25.8972 96.0223 16.7466 0.0000 0.0000 0.0000
# 3 22.6833 16.7466 116.6704 0.0000 0.0000 0.0000
# 4 0.0000 0.0000 0.0000 -81.5667 0.0000 0.0000
# 5 0.0000 0.0000 0.0000 0.0000 30.0747 0.0000
# 6 0.0000 0.0000 0.0000 0.0000 0.0000 31.9997
#
#
#
# Elastic Compliance Matrix: (Units=1/GPa)
#
#
# Indices 1 2 3 4 5 6 
#
# 1 0.010921 -0.002641 -0.001744 0.000000 0.000000 0.000000
# 2 -0.002641 0.011320 -0.001111 0.000000 0.000000 0.000000
# 3 -0.001744 -0.001111 0.009070 0.000000 0.000000 0.000000
# 4 0.000000 0.000000 0.000000 -0.012260 0.000000 0.000000
# 5 0.000000 0.000000 0.000000 0.000000 0.033251 0.000000
# 6 0.000000 0.000000 0.000000 0.000000 0.000000 0.031250
#
#
# Mechanical properties :
#
#
# Convention : Reuss Voigt Hill
#
# Bulk Modulus (GPa) = 49.21807 49.42194 49.32000
# Shear Modulus (GPa) = 49.34920 12.68926 31.01923
#
# Velocity S-wave (km/s) = 4.57528 2.32004 3.62738
# Velocity P-wave (km/s) = 6.98487 5.30479 6.20199
#
# Compressibility (1/GPa) = 0.02031774
#
# Stress axis : x y z
#
# Youngs Moduli (GPa) = 91.56475 88.33587 110.25609
#
# Poissons Ratio (x) = 0.23332 0.19231
# Poissons Ratio (y) = 0.24185 0.12254
# Poissons Ratio (z) = 0.15971 0.09818
#
# Static dielectric constant tensor:
#      x y z
#    x 2.051600 0.000000 0.000000 
#    y 0.000000 2.127360 0.000000 
#    z 0.000000 0.000000 1.957740 
# 
# From -- ./inp_files/19758.got.cif
#   From: 2010.05.17/outbox.cif.g08.bks.cpg/sg23_10_cif.got.tgz:19758.got - 2010.06.04 12:02:01.
