data_PCOD9329503
_publ_section_title
;
Structure prediction by ZEFSAII (Michael W. Deem and Ramdas Pophale) SiO2 
 PCOD9329503
Probable space group: I 2 2 2
;
_chemical_formula_sum "Si O2"
_cell_formula_units_Z 54
_cell_length_a 26.278312
_cell_length_b 20.933064
_cell_length_c 5.459221
_cell_angle_alpha 90.000000
_cell_angle_beta 90.000000
_cell_angle_gamma 90.000000
_cell_volume 3003.038788
_symmetry_space_group_name_H-M "I 2 2 2"
_symmetry_group_IT_number 23
_symmetry_cell_setting 'orthorhombic'
loop_
_space_group_symop_operation_xyz
x,y,z
-x,-y,z
x,-y,-z
-x,y,-z
1/2+x,1/2+y,1/2+z
1/2-x,1/2-y,1/2+z
1/2+x,1/2-y,1/2-z
1/2-x,1/2+y,1/2-z
loop_
_atom_site_type_symbol
_atom_site_label
_atom_site_fract_x
_atom_site_fract_y
_atom_site_fract_z
Si Si1 0.087988 0.329861 0.306608
Si Si2 0.163013 0.352147 0.931190
Si Si3 0.414748 0.061056 0.166945
Si Si4 0.974226 0.828404 0.750917
Si Si5 0.500000 0.000000 0.500000
Si Si6 0.627092 0.724765 0.130582
Si Si7 0.500000 0.795832 0.500000
Si Si8 0.237743 0.211536 0.450445
O O1 0.068162 0.379491 0.502031
O O2 0.096743 0.259524 0.410415
O O3 0.142871 0.351662 0.208750
O O4 0.049666 0.332053 0.081046
O O5 0.134689 0.411362 0.805577
O O6 0.142971 0.284813 0.807123
O O7 0.223463 0.347261 0.918275
O O8 0.461656 0.040285 0.333796
O O9 0.402176 0.000000 0.000000
O O10 0.912647 0.825595 0.744713
O O11 0.000000 0.851954 0.500000
O O12 0.986813 0.752719 0.781674
O O13 0.000000 0.855940 0.000000
O O14 0.679626 0.697551 0.023669
O O15 0.240775 0.249336 0.189841
#
# Coordination Sequence:
#
# PCOD9329503 Si02
#       8
#     8   8   8   8   2   8   4   8
#     4  11  20  35  49  68  94 129 166 221 278 318
#     4  10  20  35  51  72  91 125 166 218 277 338
#     4  11  26  41  53  65  97 130 179 236 298 339
#     4  10  18  29  42  65  97 126 160 194 244 297
#     4  12  26  50  48  74  92 136 190 248 296 350
#     4  10  18  32  47  70 100 127 162 209 269 316
#     4  10  20  29  44  73  94 122 168 206 259 315
#     4  10  20  33  54  76 101 127 164 214 277 329
#
# _framework density 17.981787000000001
#
# number of rings (size 3 to 8) (size 9 to 14) (size 15 to 20)
#    0.444    1.185    4.444    1.111    0.000    3.556 
#    8.000    0.000    0.000    0.000    0.000    0.000 
#    0.000    0.000    0.000    0.000    0.000    0.000 
#
# Total GULP energy -150465.740446 kJ/mol
# GULP energy per Si atom -5572.805202 kJ/mol
# Density = 1.794086 g / cm^3
# Si number density = 17.981787 Si / 1000 Ang^3
#
#
#
# Elastic Constant Matrix: (Units=GPa)
#
#
# Indices 1 2 3 4 5 6 
#
# 1 139.8931 29.8169 35.3454 0.0000 0.0000 0.0000
# 2 29.8169 24.5615 12.8257 0.0000 0.0000 0.0000
# 3 35.3454 12.8257 90.5255 0.0000 0.0000 0.0000
# 4 0.0000 0.0000 0.0000 15.4583 0.0000 0.0000
# 5 0.0000 0.0000 0.0000 0.0000 25.7249 0.0000
# 6 0.0000 0.0000 0.0000 0.0000 0.0000 21.7392
#
#
#
# Elastic Compliance Matrix: (Units=1/GPa)
#
#
# Indices 1 2 3 4 5 6 
#
# 1 0.010098 -0.011014 -0.002382 0.000000 0.000000 0.000000
# 2 -0.011014 0.055981 -0.003631 0.000000 0.000000 0.000000
# 3 -0.002382 -0.003631 0.012491 0.000000 0.000000 0.000000
# 4 0.000000 0.000000 0.000000 0.064690 0.000000 0.000000
# 5 0.000000 0.000000 0.000000 0.000000 0.038873 0.000000
# 6 0.000000 0.000000 0.000000 0.000000 0.000000 0.046000
#
#
# Mechanical properties :
#
#
# Convention : Reuss Voigt Hill
#
# Bulk Modulus (GPa) = 22.46424 45.66179 34.06302
# Shear Modulus (GPa) = 18.04882 24.38397 21.21640
#
# Velocity S-wave (km/s) = 3.17160 3.68644 3.43867
# Velocity P-wave (km/s) = 5.09235 6.60062 5.89492
#
# Compressibility (1/GPa) = 0.04451519
#
# Stress axis : x y z
#
# Youngs Moduli (GPa) = 99.03136 17.86312 80.05683
#
# Poissons Ratio (x) = 0.19675 0.19070
# Poissons Ratio (y) = 1.09078 0.29068
# Poissons Ratio (z) = 0.23590 0.06486
#
# Static dielectric constant tensor:
#      x y z
#    x 1.678970 0.000000 0.000000 
#    y 0.000000 1.597170 0.000000 
#    z 0.000000 0.000000 1.726020 
# 
# From -- ./inp_files/5055.got.cif
#   From: 2010.05.17/outbox.cif.g08.bks.cpg/sg23_3_cif.got.tgz:5055.got - 2010.06.04 12:02:01.
