data_PCOD9329496
_publ_section_title
;
Structure prediction by ZEFSAII (Michael W. Deem and Ramdas Pophale) SiO2 
 PCOD9329496
Probable space group: I 2 2 2
;
_chemical_formula_sum "Si O2"
_cell_formula_units_Z 64
_cell_length_a 21.399340
_cell_length_b 8.748353
_cell_length_c 18.998867
_cell_angle_alpha 90.000000
_cell_angle_beta 90.000000
_cell_angle_gamma 90.000000
_cell_volume 3556.758518
_symmetry_space_group_name_H-M "I 2 2 2"
_symmetry_group_IT_number 23
_symmetry_cell_setting 'orthorhombic'
loop_
_space_group_symop_operation_xyz
x,y,z
-x,-y,z
x,-y,-z
-x,y,-z
1/2+x,1/2+y,1/2+z
1/2-x,1/2-y,1/2+z
1/2+x,1/2-y,1/2-z
1/2-x,1/2+y,1/2-z
loop_
_atom_site_type_symbol
_atom_site_label
_atom_site_fract_x
_atom_site_fract_y
_atom_site_fract_z
Si Si1 0.159670 0.417016 0.270900
Si Si2 0.682596 0.470098 0.632455
Si Si3 0.775325 0.909805 0.278569
Si Si4 0.211157 0.909812 0.566626
Si Si5 0.177400 0.432884 0.424240
Si Si6 0.917985 0.150690 0.954799
Si Si7 0.061318 0.400823 0.150864
Si Si8 0.356574 0.156440 0.423838
O O1 0.206126 0.269433 0.278671
O O2 0.202831 0.547717 0.235181
O O3 0.142479 0.467874 0.350457
O O4 0.101873 0.370652 0.221419
O O5 0.689349 0.519614 0.712490
O O6 0.750286 0.474191 0.594582
O O7 0.639878 0.586732 0.589849
O O8 0.652889 0.302204 0.627212
O O9 0.793911 0.976510 0.354638
O O10 0.177222 0.748419 0.567446
O O11 0.285509 0.884047 0.556434
O O12 0.187260 0.000000 0.500000
O O13 0.159370 0.500000 0.500000
O O14 0.955678 0.250798 0.896571
O O15 0.894644 0.273093 0.011436
O O16 0.938495 0.000000 0.000000
O O17 0.107158 0.512180 0.106485
O O18 0.000000 0.500000 0.166262
#
# Coordination Sequence:
#
# PCOD9329496 Si02
#       8
#     8   8   8   8   8   8   8   8
#     4  10  21  35  56  81 109 149 187 235 298 343
#     4   9  17  33  53  77 111 144 180 233 286 341
#     4  10  19  32  54  79 111 146 186 232 285 363
#     4  10  18  28  45  76 110 141 173 223 280 337
#     4   9  18  31  49  79 110 139 176 223 285 352
#     4  10  20  36  59  76 105 152 195 239 278 333
#     4  12  24  39  55  79 116 154 197 247 284 335
#     4  10  20  33  49  76 105 144 195 229 275 326
#
# _framework density 17.993912999999999
#
# number of rings (size 3 to 8) (size 9 to 14) (size 15 to 20)
#    0.000    2.000    2.500    3.750    0.000    3.000 
#    0.000    4.375    0.000    0.375    0.000    0.000 
#    0.000    0.000    0.000    0.000    0.250    0.000 
#
# Total GULP energy -178264.474775 kJ/mol
# GULP energy per Si atom -5570.764837 kJ/mol
# Density = 1.795296 g / cm^3
# Si number density = 17.993913 Si / 1000 Ang^3
#
#
#
# Elastic Constant Matrix: (Units=GPa)
#
#
# Indices 1 2 3 4 5 6 
#
# 1 37.3641 6.7573 18.6104 0.0000 0.0000 0.0000
# 2 6.7573 42.1986 37.7588 0.0000 0.0000 0.0000
# 3 18.6104 37.7588 163.0661 0.0000 0.0000 0.0000
# 4 0.0000 0.0000 0.0000 37.8978 0.0000 0.0000
# 5 0.0000 0.0000 0.0000 0.0000 200.0227 0.0000
# 6 0.0000 0.0000 0.0000 0.0000 0.0000 8.8441
#
#
#
# Elastic Compliance Matrix: (Units=1/GPa)
#
#
# Indices 1 2 3 4 5 6 
#
# 1 0.028522 -0.002087 -0.002772 0.000000 0.000000 0.000000
# 2 -0.002087 0.030043 -0.006719 0.000000 0.000000 0.000000
# 3 -0.002772 -0.006719 0.008005 0.000000 0.000000 0.000000
# 4 0.000000 0.000000 0.000000 0.026387 0.000000 0.000000
# 5 0.000000 0.000000 0.000000 0.000000 0.004999 0.000000
# 6 0.000000 0.000000 0.000000 0.000000 0.000000 0.113070
#
#
# Mechanical properties :
#
#
# Convention : Reuss Voigt Hill
#
# Bulk Modulus (GPa) = 23.03357 40.98687 32.01022
# Shear Modulus (GPa) = 20.10840 61.31974 40.71407
#
# Velocity S-wave (km/s) = 3.34655 5.84397 4.76190
# Velocity P-wave (km/s) = 5.26887 8.26823 6.93270
#
# Compressibility (1/GPa) = 0.04341490
#
# Stress axis : x y z
#
# Youngs Moduli (GPa) = 35.06097 33.28527 124.92913
#
# Poissons Ratio (x) = 0.06946 0.34629
# Poissons Ratio (y) = 0.07317 0.83934
# Poissons Ratio (z) = 0.09719 0.22363
#
# Static dielectric constant tensor:
#      x y z
#    x 1.598350 0.000000 0.000000 
#    y 0.000000 1.596910 0.000000 
#    z 0.000000 0.000000 1.681020 
# 
# From -- ./inp_files/25391.got.cif
#   From: 2010.05.17/outbox.cif.g08.bks.cpg/sg23_13_cif.got.tgz:25391.got - 2010.06.04 12:02:01.
