data_PCOD9329675
_publ_section_title
;
Structure prediction by ZEFSAII (Michael W. Deem and Ramdas Pophale) SiO2 
 PCOD9329675
Probable space group: I 2 2 2
;
_chemical_formula_sum "Si O2"
_cell_formula_units_Z 56
_cell_length_a 11.638307
_cell_length_b 14.060552
_cell_length_c 15.353617
_cell_angle_alpha 90.000000
_cell_angle_beta 90.000000
_cell_angle_gamma 90.000000
_cell_volume 2512.481558
_symmetry_space_group_name_H-M "I 2 2 2"
_symmetry_group_IT_number 23
_symmetry_cell_setting 'orthorhombic'
loop_
_space_group_symop_operation_xyz
x,y,z
-x,-y,z
x,-y,-z
-x,y,-z
1/2+x,1/2+y,1/2+z
1/2-x,1/2-y,1/2+z
1/2+x,1/2-y,1/2-z
1/2-x,1/2+y,1/2-z
loop_
_atom_site_type_symbol
_atom_site_label
_atom_site_fract_x
_atom_site_fract_y
_atom_site_fract_z
Si Si1 0.807990 0.159840 0.311647
Si Si2 0.136274 0.023454 0.400408
Si Si3 0.717413 0.418948 0.572546
Si Si4 0.006652 0.112391 0.816812
Si Si5 0.884149 0.450655 0.318135
Si Si6 0.382288 0.205108 0.038228
Si Si7 0.293624 0.324949 0.769911
O O1 0.930146 0.162964 0.263107
O O2 0.819266 0.220333 0.399505
O O3 0.724099 0.212973 0.244149
O O4 0.794329 0.051075 0.339637
O O5 0.160071 0.127029 0.358422
O O6 0.168490 0.000000 0.500000
O O7 0.000000 0.000000 0.394660
O O8 0.695710 0.500000 0.500000
O O9 0.594865 0.378858 0.603996
O O10 0.788992 0.474043 0.647678
O O11 0.796392 0.336916 0.532920
O O12 0.877583 0.147654 0.811015
O O13 0.000000 0.000000 0.801117
O O14 0.916298 0.385951 0.402184
O O15 0.825913 0.377707 0.251167
O O16 0.000000 0.500000 0.286281
O O17 0.500000 0.246487 0.000000
#
# Coordination Sequence:
#
# PCOD9329675 Si02
#       7
#     8   8   8   8   8   8   8
#     4  11  24  40  64 100 132 179 229 281 338 413
#     4  11  23  45  75 103 137 179 230 297 351 405
#     4  10  21  36  63  95 132 175 220 290 353 413
#     4  12  22  44  68  94 134 180 230 285 351 422
#     4  10  18  35  60  94 132 177 218 277 350 416
#     4  10  21  34  56  97 137 169 221 283 344 405
#     4  11  23  44  67 103 134 179 240 281 351 421
#
# _framework density 22.288720999999999
#
# number of rings (size 3 to 8) (size 9 to 14) (size 15 to 20)
#    0.000    1.286    5.714    0.000    2.000    2.571 
#    5.143    0.000    0.000    0.429    0.000    0.000 
#    0.000    0.000    0.000    0.000    0.000    0.000 
#
# Total GULP energy -156427.364786 kJ/mol
# GULP energy per Si atom -5586.691600 kJ/mol
# Density = 2.223799 g / cm^3
# Si number density = 22.288721 Si / 1000 Ang^3
#
#
#
# Elastic Constant Matrix: (Units=GPa)
#
#
# Indices 1 2 3 4 5 6 
#
# 1 76.2892 12.5428 23.2824 0.0000 0.0000 0.0000
# 2 12.5428 90.1132 26.9987 0.0000 0.0000 0.0000
# 3 23.2824 26.9987 103.2279 0.0000 0.0000 0.0000
# 4 0.0000 0.0000 0.0000 33.5664 0.0000 0.0000
# 5 0.0000 0.0000 0.0000 0.0000 36.5980 0.0000
# 6 0.0000 0.0000 0.0000 0.0000 0.0000 35.6128
#
#
#
# Elastic Compliance Matrix: (Units=1/GPa)
#
#
# Indices 1 2 3 4 5 6 
#
# 1 0.014177 -0.001102 -0.002909 0.000000 0.000000 0.000000
# 2 -0.001102 0.012126 -0.002923 0.000000 0.000000 0.000000
# 3 -0.002909 -0.002923 0.011108 0.000000 0.000000 0.000000
# 4 0.000000 0.000000 0.000000 0.029792 0.000000 0.000000
# 5 0.000000 0.000000 0.000000 0.000000 0.027324 0.000000
# 6 0.000000 0.000000 0.000000 0.000000 0.000000 0.028080
#
#
# Mechanical properties :
#
#
# Convention : Reuss Voigt Hill
#
# Bulk Modulus (GPa) = 42.47531 43.91978 43.19755
# Shear Modulus (GPa) = 34.64460 34.94254 34.79357
#
# Velocity S-wave (km/s) = 3.94681 3.96374 3.95529
# Velocity P-wave (km/s) = 6.31411 6.37935 6.34681
#
# Compressibility (1/GPa) = 0.02354309
#
# Stress axis : x y z
#
# Youngs Moduli (GPa) = 70.53659 82.46556 90.02507
#
# Poissons Ratio (x) = 0.09084 0.26192
# Poissons Ratio (y) = 0.07770 0.26315
# Poissons Ratio (z) = 0.20522 0.24105
#
# Static dielectric constant tensor:
#      x y z
#    x 1.827350 0.000000 0.000000 
#    y 0.000000 1.855080 0.000000 
#    z 0.000000 0.000000 1.871060 
# 
# From -- ./inp_files/20902.got.cif
#   From: 2010.05.17/outbox.cif.g08.bks.cpg/sg23_11_cif.got.tgz:20902.got - 2010.06.04 12:02:01.
