data_PCOD9329993
_publ_section_title
;
Structure prediction by ZEFSAII (Michael W. Deem and Ramdas Pophale) SiO2 
 PCOD9329993
Probable space group: I 2 2 2
;
_chemical_formula_sum "Si O2"
_cell_formula_units_Z 44
_cell_length_a 14.249547
_cell_length_b 17.759979
_cell_length_c 7.953928
_cell_angle_alpha 90.000000
_cell_angle_beta 90.000000
_cell_angle_gamma 90.000000
_cell_volume 2012.913727
_symmetry_space_group_name_H-M "I 2 2 2"
_symmetry_group_IT_number 23
_symmetry_cell_setting 'orthorhombic'
loop_
_space_group_symop_operation_xyz
x,y,z
-x,-y,z
x,-y,-z
-x,y,-z
1/2+x,1/2+y,1/2+z
1/2-x,1/2-y,1/2+z
1/2+x,1/2-y,1/2-z
1/2-x,1/2+y,1/2-z
loop_
_atom_site_type_symbol
_atom_site_label
_atom_site_fract_x
_atom_site_fract_y
_atom_site_fract_z
Si Si1 0.497382 0.743500 0.312586
Si Si2 0.800940 0.707244 0.311944
Si Si3 0.500000 0.000000 0.241333
Si Si4 0.410231 0.146783 0.106045
Si Si5 0.000000 0.868638 0.500000
Si Si6 0.151495 0.500000 0.000000
Si Si7 0.209814 0.133475 0.496341
O O1 0.500000 0.713015 0.500000
O O2 0.397945 0.785310 0.291389
O O3 0.579992 0.803476 0.273072
O O4 0.504644 0.680632 0.170286
O O5 0.823136 0.660588 0.483746
O O6 0.783803 0.792497 0.377640
O O7 0.731053 0.665643 0.184664
O O8 0.559313 0.937686 0.143897
O O9 0.580869 0.033670 0.360395
O O10 0.500000 0.177258 0.000000
O O11 0.895112 0.901786 0.490469
O O12 0.216968 0.568927 0.055049
#
# Coordination Sequence:
#
# PCOD9329993 Si02
#       7
#     8   8   4   8   4   4   8
#     4  10  19  35  63  92 132 176 225 296 356 423
#     4  10  23  38  68  98 139 186 246 304 358 450
#     4  11  25  38  64 100 150 190 220 301 391 454
#     4  10  19  38  58  94 137 181 225 282 358 443
#     4  10  22  45  62  95 134 178 252 300 360 419
#     4  11  26  41  64 106 142 187 246 297 392 458
#     4  11  24  44  65 104 136 194 252 312 372 451
#
# _framework density 21.858861999999998
#
# number of rings (size 3 to 8) (size 9 to 14) (size 15 to 20)
#    0.000    1.636    4.545    2.455   10.182    0.364 
#    0.000    0.000    0.000    0.000    0.000    1.273 
#    0.000    0.000    0.000    0.000    0.000    0.000 
#
# Total GULP energy -122679.324612 kJ/mol
# GULP energy per Si atom -5576.332937 kJ/mol
# Density = 2.180911 g / cm^3
# Si number density = 21.858862 Si / 1000 Ang^3
#
#
#
# Elastic Constant Matrix: (Units=GPa)
#
#
# Indices 1 2 3 4 5 6 
#
# 1 131.7707 26.5082 16.6071 0.0000 0.0000 0.0000
# 2 26.5082 84.6997 23.5677 0.0000 0.0000 0.0000
# 3 16.6071 23.5677 106.6812 0.0000 0.0000 0.0000
# 4 0.0000 0.0000 0.0000 20.4859 0.0000 0.0000
# 5 0.0000 0.0000 0.0000 0.0000 32.7836 0.0000
# 6 0.0000 0.0000 0.0000 0.0000 0.0000 28.9663
#
#
#
# Elastic Compliance Matrix: (Units=1/GPa)
#
#
# Indices 1 2 3 4 5 6 
#
# 1 0.008155 -0.002343 -0.000752 0.000000 0.000000 0.000000
# 2 -0.002343 0.013253 -0.002563 0.000000 0.000000 0.000000
# 3 -0.000752 -0.002563 0.010057 0.000000 0.000000 0.000000
# 4 0.000000 0.000000 0.000000 0.048814 0.000000 0.000000
# 5 0.000000 0.000000 0.000000 0.000000 0.030503 0.000000
# 6 0.000000 0.000000 0.000000 0.000000 0.000000 0.034523
#
#
# Mechanical properties :
#
#
# Convention : Reuss Voigt Hill
#
# Bulk Modulus (GPa) = 49.63032 50.72417 50.17724
# Shear Modulus (GPa) = 30.61153 33.54507 32.07830
#
# Velocity S-wave (km/s) = 3.74627 3.92167 3.83498
# Velocity P-wave (km/s) = 6.43948 6.61526 6.52797
#
# Compressibility (1/GPa) = 0.02014898
#
# Stress axis : x y z
#
# Youngs Moduli (GPa) = 122.62338 75.45529 99.43332
#
# Poissons Ratio (x) = 0.17680 0.07476
# Poissons Ratio (y) = 0.28731 0.25485
# Poissons Ratio (z) = 0.09220 0.19340
#
# Static dielectric constant tensor:
#      x y z
#    x 1.887020 0.000000 0.000000 
#    y 0.000000 1.806750 0.000000 
#    z 0.000000 0.000000 1.909160 
# 
# From -- ./inp_files/9883.got.cif
#   From: 2010.05.17/outbox.cif.g08.bks.cpg/sg23_5_cif.got.tgz:9883.got - 2010.06.04 12:02:01.
