data_PCOD9329864
_publ_section_title
;
Structure prediction by ZEFSAII (Michael W. Deem and Ramdas Pophale) SiO2 
 PCOD9329864
Probable space group: I 2 2 2
;
_chemical_formula_sum "Si O2"
_cell_formula_units_Z 58
_cell_length_a 15.810490
_cell_length_b 10.153107
_cell_length_c 18.789063
_cell_angle_alpha 90.000000
_cell_angle_beta 90.000000
_cell_angle_gamma 90.000000
_cell_volume 3016.125549
_symmetry_space_group_name_H-M "I 2 2 2"
_symmetry_group_IT_number 23
_symmetry_cell_setting 'orthorhombic'
loop_
_space_group_symop_operation_xyz
x,y,z
-x,-y,z
x,-y,-z
-x,y,-z
1/2+x,1/2+y,1/2+z
1/2-x,1/2-y,1/2+z
1/2+x,1/2-y,1/2-z
1/2-x,1/2+y,1/2-z
loop_
_atom_site_type_symbol
_atom_site_label
_atom_site_fract_x
_atom_site_fract_y
_atom_site_fract_z
Si Si1 0.170100 0.780132 0.567787
Si Si2 0.683598 0.260814 0.905419
Si Si3 0.904404 0.492017 0.586282
Si Si4 0.327945 0.387605 0.449304
Si Si5 0.592605 0.558311 0.675168
Si Si6 0.602254 0.502098 0.167465
Si Si7 0.500000 0.000000 0.500000
Si Si8 0.885850 0.721193 0.070207
O O1 0.146413 0.789871 0.484401
O O2 0.126321 0.653870 0.603026
O O3 0.267375 0.733618 0.569357
O O4 0.144610 0.909382 0.608584
O O5 0.657193 0.109823 0.889260
O O6 0.639507 0.353958 0.848143
O O7 0.784046 0.289429 0.914974
O O8 0.907214 0.500000 0.500000
O O9 0.000000 0.500000 0.613216
O O10 0.284829 0.500000 0.500000
O O11 0.358437 0.464914 0.380595
O O12 0.395273 0.322318 0.502950
O O13 0.500000 0.500000 0.680516
O O14 0.627966 0.550714 0.754649
O O15 0.584450 0.701920 0.640243
O O16 0.500000 0.500000 0.160431
O O17 0.561787 0.907578 0.548073
#
# Coordination Sequence:
#
# PCOD9329864 Si02
#       8
#     8   8   8   8   8   8   2   8
#     4  10  19  33  57  83 116 153 201 249 294 350
#     4  10  21  37  59  88 124 158 201 260 301 359
#     4   9  16  29  52  80 112 153 199 245 291 339
#     4   9  18  36  63  87 107 146 197 250 306 362
#     4  10  21  40  60  82 120 158 201 246 300 369
#     4  11  24  37  56  84 124 167 203 239 297 363
#     4  12  24  36  66  96 118 152 196 272 336 372
#     4  10  22  38  63  91 120 149 201 261 321 371
#
# _framework density 19.229969000000001
#
# number of rings (size 3 to 8) (size 9 to 14) (size 15 to 20)
#    0.000    2.069    0.000    4.966    3.862    5.241 
#    0.000    0.000   10.621    0.000    0.000    0.000 
#    0.000    0.000    0.000    0.000    0.000    0.000 
#
# Total GULP energy -161608.370741 kJ/mol
# GULP energy per Si atom -5572.702439 kJ/mol
# Density = 1.918620 g / cm^3
# Si number density = 19.229969 Si / 1000 Ang^3
#
#
#
# Elastic Constant Matrix: (Units=GPa)
#
#
# Indices 1 2 3 4 5 6 
#
# 1 76.5813 21.8197 4.3322 0.0000 0.0000 0.0000
# 2 21.8197 89.7306 11.1925 0.0000 0.0000 0.0000
# 3 4.3322 11.1925 57.4457 0.0000 0.0000 0.0000
# 4 0.0000 0.0000 0.0000 -15.0453 0.0000 0.0000
# 5 0.0000 0.0000 0.0000 0.0000 10.8083 0.0000
# 6 0.0000 0.0000 0.0000 0.0000 0.0000 33.4346
#
#
#
# Elastic Compliance Matrix: (Units=1/GPa)
#
#
# Indices 1 2 3 4 5 6 
#
# 1 0.014039 -0.003364 -0.000403 0.000000 0.000000 0.000000
# 2 -0.003364 0.012228 -0.002129 0.000000 0.000000 0.000000
# 3 -0.000403 -0.002129 0.017853 0.000000 0.000000 0.000000
# 4 0.000000 0.000000 0.000000 -0.066466 0.000000 0.000000
# 5 0.000000 0.000000 0.000000 0.000000 0.092521 0.000000
# 6 0.000000 0.000000 0.000000 0.000000 0.000000 0.029909
#
#
# Mechanical properties :
#
#
# Convention : Reuss Voigt Hill
#
# Bulk Modulus (GPa) = 30.93244 33.16070 32.04657
# Shear Modulus (GPa) = 40.76570 18.26708 29.51639
#
# Velocity S-wave (km/s) = 4.60924 3.08543 3.92205
# Velocity P-wave (km/s) = 6.66687 5.47494 6.10009
#
# Compressibility (1/GPa) = 0.03232852
#
# Stress axis : x y z
#
# Youngs Moduli (GPa) = 71.22916 81.78002 56.01326
#
# Poissons Ratio (x) = 0.27507 0.02260
# Poissons Ratio (y) = 0.23958 0.11924
# Poissons Ratio (z) = 0.02873 0.17409
#
# Static dielectric constant tensor:
#      x y z
#    x 1.747900 0.000000 0.000000 
#    y 0.000000 1.679100 0.000000 
#    z 0.000000 0.000000 1.678140 
# 
# From -- ./inp_files/25081.got.cif
#   From: 2010.05.17/outbox.cif.g08.bks.cpg/sg23_13_cif.got.tgz:25081.got - 2010.06.04 12:02:01.
