data_PCOD9329531
_publ_section_title
;
Structure prediction by ZEFSAII (Michael W. Deem and Ramdas Pophale) SiO2 
 PCOD9329531
Probable space group: I 2 2 2
;
_chemical_formula_sum "Si O2"
_cell_formula_units_Z 48
_cell_length_a 14.234064
_cell_length_b 20.669346
_cell_length_c 9.089278
_cell_angle_alpha 90.000000
_cell_angle_beta 90.000000
_cell_angle_gamma 90.000000
_cell_volume 2674.145517
_symmetry_space_group_name_H-M "I 2 2 2"
_symmetry_group_IT_number 23
_symmetry_cell_setting 'orthorhombic'
loop_
_space_group_symop_operation_xyz
x,y,z
-x,-y,z
x,-y,-z
-x,y,-z
1/2+x,1/2+y,1/2+z
1/2-x,1/2-y,1/2+z
1/2+x,1/2-y,1/2-z
1/2-x,1/2+y,1/2-z
loop_
_atom_site_type_symbol
_atom_site_label
_atom_site_fract_x
_atom_site_fract_y
_atom_site_fract_z
Si Si1 0.997082 0.371362 0.828245
Si Si2 0.706728 0.921362 0.335951
Si Si3 0.256770 0.301766 0.651006
Si Si4 0.192979 0.185853 0.832116
Si Si5 0.204980 0.429196 0.183111
Si Si6 0.554567 0.245680 0.859759
O O1 0.906005 0.414678 0.797939
O O2 0.095874 0.408225 0.806676
O O3 0.996098 0.307335 0.729918
O O4 0.000000 0.352466 0.000000
O O5 0.761545 0.867443 0.243475
O O6 0.724115 0.912477 0.510802
O O7 0.726545 0.995397 0.296145
O O8 0.262194 0.240677 0.760717
O O9 0.317880 0.301905 0.504928
O O10 0.149277 0.292926 0.592625
O O11 0.236363 0.117314 0.789082
O O12 0.095692 0.199840 0.747759
O O13 0.500000 0.270601 0.000000
#
# Coordination Sequence:
#
# PCOD9329531 Si02
#       6
#     8   8   8   8   8   8
#     4   9  17  29  48  73 107 144 171 203 250 318
#     4   9  18  32  48  75 110 140 175 208 259 317
#     4   9  19  32  50  71 105 140 175 218 262 311
#     4  10  20  31  51  71 103 135 180 219 262 304
#     4  10  18  30  51  77 105 142 176 213 255 316
#     4   9  19  33  47  71 105 137 172 218 262 312
#
# _framework density 17.949659
#
# number of rings (size 3 to 8) (size 9 to 14) (size 15 to 20)
#    1.000    1.667    0.000    2.500    2.333    2.667 
#    0.000    0.000    0.000    3.000    0.000    2.333 
#    0.000    0.000    0.000    0.000    0.000    0.000 
#
# Total GULP energy -133649.110576 kJ/mol
# GULP energy per Si atom -5568.712941 kJ/mol
# Density = 1.790880 g / cm^3
# Si number density = 17.949659 Si / 1000 Ang^3
#
#
#
# Elastic Constant Matrix: (Units=GPa)
#
#
# Indices 1 2 3 4 5 6 
#
# 1 7.2023 3.5578 7.7315 0.0000 0.0000 0.0000
# 2 3.5578 67.1655 37.8571 0.0000 0.0000 0.0000
# 3 7.7315 37.8571 67.1687 0.0000 0.0000 0.0000
# 4 0.0000 0.0000 0.0000 30.2161 0.0000 0.0000
# 5 0.0000 0.0000 0.0000 0.0000 26.8688 0.0000
# 6 0.0000 0.0000 0.0000 0.0000 0.0000 11.0202
#
#
#
# Elastic Compliance Matrix: (Units=1/GPa)
#
#
# Indices 1 2 3 4 5 6 
#
# 1 0.158769 0.002771 -0.019837 0.000000 0.000000 0.000000
# 2 0.002771 0.021869 -0.012644 0.000000 0.000000 0.000000
# 3 -0.019837 -0.012644 0.024298 0.000000 0.000000 0.000000
# 4 0.000000 0.000000 0.000000 0.033095 0.000000 0.000000
# 5 0.000000 0.000000 0.000000 0.000000 0.037218 0.000000
# 6 0.000000 0.000000 0.000000 0.000000 0.000000 0.090742
#
#
# Mechanical properties :
#
#
# Convention : Reuss Voigt Hill
#
# Bulk Modulus (GPa) = 6.87216 26.64768 16.75992
# Shear Modulus (GPa) = 10.55039 19.78039 15.16539
#
# Velocity S-wave (km/s) = 2.42704 3.32323 2.90984
# Velocity P-wave (km/s) = 3.41920 5.44088 4.54390
#
# Compressibility (1/GPa) = 0.14551458
#
# Stress axis : x y z
#
# Youngs Moduli (GPa) = 6.29846 45.72747 41.15618
#
# Poissons Ratio (x) = -0.12670 0.81640
# Poissons Ratio (y) = -0.01745 0.52039
# Poissons Ratio (z) = 0.12494 0.57819
#
# Static dielectric constant tensor:
#      x y z
#    x 1.639110 0.000000 0.000000 
#    y 0.000000 1.593770 0.000000 
#    z 0.000000 0.000000 1.628250 
# 
# From -- ./inp_files/11309.got.cif
#   From: 2010.05.17/outbox.cif.g08.bks.cpg/sg23_6_cif.got.tgz:11309.got - 2010.06.04 12:02:01.
