data_PCOD9329041
_publ_section_title
;
Structure prediction by ZEFSAII (Michael W. Deem and Ramdas Pophale) SiO2 
 PCOD9329041
Probable space group: F 2 2 2
;
_chemical_formula_sum "Si O2"
_cell_formula_units_Z 72
_cell_length_a 12.329772
_cell_length_b 15.601742
_cell_length_c 17.216017
_cell_angle_alpha 90.000000
_cell_angle_beta 90.000000
_cell_angle_gamma 90.000000
_cell_volume 3311.774978
_symmetry_space_group_name_H-M "F 2 2 2"
_symmetry_group_IT_number 22
_symmetry_cell_setting 'orthorhombic'
loop_
_space_group_symop_operation_xyz
x,y,z
-x,-y,z
x,-y,-z
-x,y,-z
x,1/2+y,1/2+z
-x,1/2-y,1/2+z
x,1/2-y,1/2-z
-x,1/2+y,1/2-z
1/2+x,y,1/2+z
1/2-x,-y,1/2+z
1/2+x,-y,1/2-z
1/2-x,y,1/2-z
1/2+x,1/2+y,z
1/2-x,1/2-y,z
1/2+x,1/2-y,-z
1/2-x,1/2+y,-z
loop_
_atom_site_type_symbol
_atom_site_label
_atom_site_fract_x
_atom_site_fract_y
_atom_site_fract_z
Si Si1 0.772315 0.430327 0.341573
Si Si2 0.750000 0.250000 0.547022
Si Si3 0.913404 0.142721 0.441181
Si Si4 0.941748 0.791195 0.827439
Si Si5 0.332643 0.622862 0.822454
O O1 0.750000 0.418964 0.250000
O O2 0.662135 0.420188 0.390740
O O3 0.855607 0.355633 0.365420
O O4 0.824936 0.523900 0.347325
O O5 0.835109 0.201005 0.493526
O O6 0.699955 0.179717 0.604359
O O7 0.968805 0.211363 0.382925
O O8 0.000000 0.102878 0.500000
O O9 0.892156 0.750000 0.750000
O O10 0.046860 0.845349 0.802020
O O11 0.250000 0.635582 0.750000
#
# Coordination Sequence:
#
# PCOD9329041 Si02
#       5
#    16   8  16  16  16
#     4  11  24  45  72 108 146 187 246 313 367 448
#     4  12  23  44  67  96 140 194 236 292 371 450
#     4  12  25  43  72 108 145 192 247 304 381 449
#     4  12  22  42  76 105 142 194 253 304 369 452
#     4  11  26  44  69 103 145 191 245 306 374 453
#
# _framework density 21.740608000000002
#
# number of rings (size 3 to 8) (size 9 to 14) (size 15 to 20)
#    0.000    0.444    6.667    2.333    0.000    0.889 
#    0.000    2.222    0.000    0.000    0.000    0.000 
#    0.000    0.000    0.000    0.000    0.000    0.000 
#
# Total GULP energy -100692.854599 kJ/mol
# GULP energy per Si atom -5594.047478 kJ/mol
# Density = 2.169113 g / cm^3
# Si number density = 21.740608 Si / 1000 Ang^3
#
#
#
# Elastic Constant Matrix: (Units=GPa)
#
#
# Indices 1 2 3 4 5 6 
#
# 1 94.5618 23.6427 17.4670 0.0000 0.0000 0.0000
# 2 23.6427 105.9592 14.1811 0.0000 0.0000 0.0000
# 3 17.4670 14.1811 85.2165 0.0000 0.0000 0.0000
# 4 0.0000 0.0000 0.0000 144.0016 0.0000 0.0000
# 5 0.0000 0.0000 0.0000 0.0000 50.2367 0.0000
# 6 0.0000 0.0000 0.0000 0.0000 0.0000 30.3733
#
#
#
# Elastic Compliance Matrix: (Units=1/GPa)
#
#
# Indices 1 2 3 4 5 6 
#
# 1 0.011517 -0.002305 -0.001977 0.000000 0.000000 0.000000
# 2 -0.002305 0.010114 -0.001211 0.000000 0.000000 0.000000
# 3 -0.001977 -0.001211 0.012341 0.000000 0.000000 0.000000
# 4 0.000000 0.000000 0.000000 0.006944 0.000000 0.000000
# 5 0.000000 0.000000 0.000000 0.000000 0.019906 0.000000
# 6 0.000000 0.000000 0.000000 0.000000 0.000000 0.032924
#
#
# Mechanical properties :
#
#
# Convention : Reuss Voigt Hill
#
# Bulk Modulus (GPa) = 43.50347 44.03544 43.76946
# Shear Modulus (GPa) = 44.48658 60.28545 52.38602
#
# Velocity S-wave (km/s) = 4.52845 5.27159 4.91409
# Velocity P-wave (km/s) = 6.88449 7.57309 7.23698
#
# Compressibility (1/GPa) = 0.02298667
#
# Stress axis : x y z
#
# Youngs Moduli (GPa) = 86.83114 98.87322 81.02745
#
# Poissons Ratio (x) = 0.22791 0.16019
# Poissons Ratio (y) = 0.20016 0.09809
# Poissons Ratio (z) = 0.17166 0.11970
#
# Static dielectric constant tensor:
#      x y z
#    x 1.814820 0.000000 0.000000 
#    y 0.000000 1.768770 0.000000 
#    z 0.000000 0.000000 1.792060 
# 
# From -- ./inp_files/21094.got.cif
#   From: 2010.05.17/outbox.cif.g08.bks.cpg/sg22_11_cif.got.tgz:21094.got - 2010.06.03 23:40:54.
