data_PCOD9329053
_publ_section_title
;
Structure prediction by ZEFSAII (Michael W. Deem and Ramdas Pophale) SiO2 
 PCOD9329053
Probable space group: F 2 2 2
;
_chemical_formula_sum "Si O2"
_cell_formula_units_Z 68
_cell_length_a 10.684355
_cell_length_b 20.659184
_cell_length_c 14.586037
_cell_angle_alpha 90.000000
_cell_angle_beta 90.000000
_cell_angle_gamma 90.000000
_cell_volume 3219.576762
_symmetry_space_group_name_H-M "F 2 2 2"
_symmetry_group_IT_number 22
_symmetry_cell_setting 'orthorhombic'
loop_
_space_group_symop_operation_xyz
x,y,z
-x,-y,z
x,-y,-z
-x,y,-z
x,1/2+y,1/2+z
-x,1/2-y,1/2+z
x,1/2-y,1/2-z
-x,1/2+y,1/2-z
1/2+x,y,1/2+z
1/2-x,-y,1/2+z
1/2+x,-y,1/2-z
1/2-x,y,1/2-z
1/2+x,1/2+y,z
1/2-x,1/2-y,z
1/2+x,1/2-y,-z
1/2-x,1/2+y,-z
loop_
_atom_site_type_symbol
_atom_site_label
_atom_site_fract_x
_atom_site_fract_y
_atom_site_fract_z
Si Si1 0.896801 0.822388 0.267031
Si Si2 0.500000 0.500000 0.500000
Si Si3 0.813425 0.407494 0.108124
Si Si4 0.631229 0.795146 0.031084
Si Si5 0.561368 0.928996 0.696013
O O1 0.948769 0.750000 0.250000
O O2 0.750000 0.821620 0.250000
O O3 0.905385 0.834762 0.376539
O O4 0.955501 0.873889 0.197206
O O5 0.405084 0.457250 0.558526
O O6 0.667411 0.426752 0.117930
O O7 0.867952 0.408114 0.210561
O O8 0.825156 0.341606 0.051035
O O9 0.750000 0.750000 0.053278
O O10 0.500000 0.762428 0.000000
O O11 0.500000 0.000000 0.702293
#
# Coordination Sequence:
#
# PCOD9329053 Si02
#       5
#    16   4  16  16  16
#     4  11  24  46  71 101 142 194 234 292 374 434
#     4  12  20  48  70 100 140 186 236 276 380 428
#     4  11  25  41  72 101 138 190 232 297 357 433
#     4  12  25  46  70 106 141 187 243 296 365 436
#     4  11  25  44  68 109 142 186 244 300 361 427
#
# _framework density 21.120788999999998
#
# number of rings (size 3 to 8) (size 9 to 14) (size 15 to 20)
#    0.000    0.706    7.059    0.000    6.588    0.000 
#    0.000    5.294    0.000    0.000    0.000    0.000 
#    0.000    0.000    0.000    0.000    0.000    0.000 
#
# Total GULP energy -94828.192139 kJ/mol
# GULP energy per Si atom -5578.128949 kJ/mol
# Density = 2.107272 g / cm^3
# Si number density = 21.120789 Si / 1000 Ang^3
#
#
#
# Elastic Constant Matrix: (Units=GPa)
#
#
# Indices 1 2 3 4 5 6 
#
# 1 136.2068 59.3992 37.8419 0.0000 0.0000 0.0000
# 2 59.3992 116.2021 14.2934 0.0000 0.0000 0.0000
# 3 37.8419 14.2934 69.2194 0.0000 0.0000 0.0000
# 4 0.0000 0.0000 0.0000 18.7950 0.0000 0.0000
# 5 0.0000 0.0000 0.0000 0.0000 23.0265 0.0000
# 6 0.0000 0.0000 0.0000 0.0000 0.0000 68.9567
#
#
#
# Elastic Compliance Matrix: (Units=1/GPa)
#
#
# Indices 1 2 3 4 5 6 
#
# 1 0.010867 -0.004950 -0.004919 0.000000 0.000000 0.000000
# 2 -0.004950 0.011085 0.000417 0.000000 0.000000 0.000000
# 3 -0.004919 0.000417 0.017050 0.000000 0.000000 0.000000
# 4 0.000000 0.000000 0.000000 0.053206 0.000000 0.000000
# 5 0.000000 0.000000 0.000000 0.000000 0.043428 0.000000
# 6 0.000000 0.000000 0.000000 0.000000 0.000000 0.014502
#
#
# Mechanical properties :
#
#
# Convention : Reuss Voigt Hill
#
# Bulk Modulus (GPa) = 49.75537 60.52194 55.13866
# Shear Modulus (GPa) = 28.45121 36.16189 32.30655
#
# Velocity S-wave (km/s) = 3.67423 4.14230 3.91526
# Velocity P-wave (km/s) = 6.45047 7.18300 6.82657
#
# Compressibility (1/GPa) = 0.02009833
#
# Stress axis : x y z
#
# Youngs Moduli (GPa) = 92.02200 90.21519 58.65183
#
# Poissons Ratio (x) = 0.44655 0.28850
# Poissons Ratio (y) = 0.45550 -0.02447
# Poissons Ratio (z) = 0.45264 -0.03763
#
# Static dielectric constant tensor:
#      x y z
#    x 1.837920 0.000000 0.000000 
#    y 0.000000 1.780870 0.000000 
#    z 0.000000 0.000000 1.775850 
# 
# From -- ./inp_files/19637.got.cif
#   From: 2010.05.17/outbox.cif.g08.bks.cpg/sg22_10_cif.got.tgz:19637.got - 2010.06.03 23:40:54.
