data_PCOD9329372
_publ_section_title
;
Structure prediction by ZEFSAII (Michael W. Deem and Ramdas Pophale) SiO2 
 PCOD9329372
Probable space group: I 2 2 2
;
_chemical_formula_sum "Si O2"
_cell_formula_units_Z 60
_cell_length_a 29.933631
_cell_length_b 17.796648
_cell_length_c 5.313914
_cell_angle_alpha 90.000000
_cell_angle_beta 90.000000
_cell_angle_gamma 90.000000
_cell_volume 2830.819202
_symmetry_space_group_name_H-M "I 2 2 2"
_symmetry_group_IT_number 23
_symmetry_cell_setting 'orthorhombic'
loop_
_space_group_symop_operation_xyz
x,y,z
-x,-y,z
x,-y,-z
-x,y,-z
1/2+x,1/2+y,1/2+z
1/2-x,1/2-y,1/2+z
1/2+x,1/2-y,1/2-z
1/2-x,1/2+y,1/2-z
loop_
_atom_site_type_symbol
_atom_site_label
_atom_site_fract_x
_atom_site_fract_y
_atom_site_fract_z
Si Si1 0.331903 0.719789 0.296299
Si Si2 0.118947 0.723183 0.296672
Si Si3 0.185179 0.913236 0.501903
Si Si4 0.029449 0.191286 0.752251
Si Si5 0.783720 0.500000 0.500000
Si Si6 0.093210 0.049132 0.747634
Si Si7 0.227793 0.645539 0.775200
Si Si8 0.849397 0.429224 0.102050
O O1 0.352651 0.739310 0.567733
O O2 0.286221 0.767638 0.248970
O O3 0.363078 0.749191 0.066552
O O4 0.329286 0.629805 0.256236
O O5 0.067846 0.746253 0.268681
O O6 0.125895 0.634208 0.260723
O O7 0.141553 0.916821 0.326621
O O8 0.226554 0.862307 0.423571
O O9 0.201076 0.000000 0.500000
O O10 0.056835 0.113709 0.778554
O O11 0.000000 0.189696 0.500000
O O12 0.000000 0.202405 0.000000
O O13 0.761843 0.419424 0.566419
O O14 0.814275 0.473215 0.273029
O O15 0.081574 0.000000 0.500000
O O16 0.095768 0.000000 0.000000
O O17 0.182107 0.615301 0.905291
O O18 0.877817 0.500000 0.000000
#
# Coordination Sequence:
#
# PCOD9329372 Si02
#       8
#     8   8   8   8   4   8   8   8
#     4  11  24  44  68  93 137 189 224 280 328 397
#     4  11  23  45  69  99 136 169 228 276 340 417
#     4  11  25  43  64  95 140 187 230 283 333 393
#     4  12  26  45  75 100 128 168 220 285 349 418
#     4  10  16  34  62  90 129 172 229 270 324 368
#     4  11  26  45  68  98 135 176 221 275 346 407
#     4  10  22  39  59  94 136 179 238 271 320 380
#     4   9  19  36  62  97 129 180 219 272 321 389
#
# _framework density 21.195277000000001
#
# number of rings (size 3 to 8) (size 9 to 14) (size 15 to 20)
#    0.000    1.333    2.667    2.800    4.667    3.733 
#    4.800    0.000    0.000    0.400    0.000    0.000 
#    0.000    0.000    0.000    0.000    0.000    0.000 
#
# Total GULP energy -167339.984088 kJ/mol
# GULP energy per Si atom -5577.999470 kJ/mol
# Density = 2.114704 g / cm^3
# Si number density = 21.195277 Si / 1000 Ang^3
#
#
#
# Elastic Constant Matrix: (Units=GPa)
#
#
# Indices 1 2 3 4 5 6 
#
# 1 64.9321 -21.9463 -1.6447 0.0000 0.0000 0.0000
# 2 -21.9463 38.9513 -6.0559 0.0000 0.0000 0.0000
# 3 -1.6447 -6.0559 68.4175 0.0000 0.0000 0.0000
# 4 0.0000 0.0000 0.0000 35.2406 0.0000 0.0000
# 5 0.0000 0.0000 0.0000 0.0000 30.8130 0.0000
# 6 0.0000 0.0000 0.0000 0.0000 0.0000 37.7824
#
#
#
# Elastic Compliance Matrix: (Units=1/GPa)
#
#
# Indices 1 2 3 4 5 6 
#
# 1 0.019162 0.011019 0.001436 0.000000 0.000000 0.000000
# 2 0.011019 0.032368 0.003130 0.000000 0.000000 0.000000
# 3 0.001436 0.003130 0.014928 0.000000 0.000000 0.000000
# 4 0.000000 0.000000 0.000000 0.028376 0.000000 0.000000
# 5 0.000000 0.000000 0.000000 0.000000 0.032454 0.000000
# 6 0.000000 0.000000 0.000000 0.000000 0.000000 0.026467
#
#
# Mechanical properties :
#
#
# Convention : Reuss Voigt Hill
#
# Bulk Modulus (GPa) = 10.24292 12.55634 11.39963
# Shear Modulus (GPa) = 32.23163 34.23040 33.23102
#
# Velocity S-wave (km/s) = 3.90384 4.02307 3.96390
# Velocity P-wave (km/s) = 5.01629 5.24567 5.13226
#
# Compressibility (1/GPa) = 0.09762838
#
# Stress axis : x y z
#
# Youngs Moduli (GPa) = 52.18791 30.89435 66.98953
#
# Poissons Ratio (x) = -0.34044 -0.09620
# Poissons Ratio (y) = -0.57508 -0.20967
# Poissons Ratio (z) = -0.07494 -0.09670
#
# Static dielectric constant tensor:
#      x y z
#    x 1.735830 0.000000 0.000000 
#    y 0.000000 1.837060 0.000000 
#    z 0.000000 0.000000 1.860550 
# 
# From -- ./inp_files/5017.got.cif
#   From: 2010.05.17/outbox.cif.g08.bks.cpg/sg23_3_cif.got.tgz:5017.got - 2010.06.04 12:02:01.
