data_PCOD9329980
_publ_section_title
;
Structure prediction by ZEFSAII (Michael W. Deem and Ramdas Pophale) SiO2 
 PCOD9329980
Probable space group: I 2 2 2
;
_chemical_formula_sum "Si O2"
_cell_formula_units_Z 40
_cell_length_a 8.484905
_cell_length_b 7.818751
_cell_length_c 28.629554
_cell_angle_alpha 90.000000
_cell_angle_beta 90.000000
_cell_angle_gamma 90.000000
_cell_volume 1899.323533
_symmetry_space_group_name_H-M "I 2 2 2"
_symmetry_group_IT_number 23
_symmetry_cell_setting 'orthorhombic'
loop_
_space_group_symop_operation_xyz
x,y,z
-x,-y,z
x,-y,-z
-x,y,-z
1/2+x,1/2+y,1/2+z
1/2-x,1/2-y,1/2+z
1/2+x,1/2-y,1/2-z
1/2-x,1/2+y,1/2-z
loop_
_atom_site_type_symbol
_atom_site_label
_atom_site_fract_x
_atom_site_fract_y
_atom_site_fract_z
Si Si1 0.320280 0.800989 0.877844
Si Si2 0.192177 0.995936 0.553451
Si Si3 0.622215 0.864605 0.294343
Si Si4 0.631279 0.377508 0.785384
Si Si5 0.296715 0.811340 0.119508
O O1 0.263976 0.659911 0.915010
O O2 0.289281 0.735083 0.825543
O O3 0.512113 0.808829 0.878380
O O4 0.254640 0.989883 0.887049
O O5 0.246248 0.000000 0.500000
O O6 0.244891 0.821904 0.578736
O O7 0.000000 0.000000 0.552845
O O8 0.558212 0.734763 0.255650
O O9 0.716253 0.762149 0.333779
O O10 0.500000 0.000000 0.315261
O O11 0.740808 0.989978 0.266455
O O12 0.500000 0.500000 0.808219
#
# Coordination Sequence:
#
# PCOD9329980 Si02
#       5
#     8   8   8   8   8
#     4  10  19  35  61  82 117 160 200 249 297 363
#     4   9  17  33  57  88 120 151 194 253 305 355
#     4  12  25  37  57  88 124 161 209 257 298 359
#     4  12  22  40  58  82 121 164 206 249 305 359
#     4  10  20  36  56  86 119 157 201 245 304 359
#
# _framework density 21.060130999999998
#
# number of rings (size 3 to 8) (size 9 to 14) (size 15 to 20)
#    0.000    1.400    4.000    3.000    2.800    0.800 
#    0.000    4.000    0.000    0.600    0.000    0.000 
#    6.000    0.000    0.000    0.000    0.000    0.000 
#
# Total GULP energy -111627.503106 kJ/mol
# GULP energy per Si atom -5581.375155 kJ/mol
# Density = 2.101220 g / cm^3
# Si number density = 21.060131 Si / 1000 Ang^3
#
#
#
# Elastic Constant Matrix: (Units=GPa)
#
#
# Indices 1 2 3 4 5 6 
#
# 1 15.4710 27.0118 1.0473 0.0000 0.0000 0.0000
# 2 27.0118 208.7119 99.8268 0.0000 0.0000 0.0000
# 3 1.0473 99.8268 155.8186 0.0000 0.0000 0.0000
# 4 0.0000 0.0000 0.0000 30.5223 0.0000 0.0000
# 5 0.0000 0.0000 0.0000 0.0000 14.0839 0.0000
# 6 0.0000 0.0000 0.0000 0.0000 0.0000 24.4982
#
#
#
# Elastic Compliance Matrix: (Units=1/GPa)
#
#
# Indices 1 2 3 4 5 6 
#
# 1 0.093713 -0.017053 0.010295 0.000000 0.000000 0.000000
# 2 -0.017053 0.010011 -0.006299 0.000000 0.000000 0.000000
# 3 0.010295 -0.006299 0.010384 0.000000 0.000000 0.000000
# 4 0.000000 0.000000 0.000000 0.032763 0.000000 0.000000
# 5 0.000000 0.000000 0.000000 0.000000 0.071003 0.000000
# 6 0.000000 0.000000 0.000000 0.000000 0.000000 0.040819
#
#
# Mechanical properties :
#
#
# Convention : Reuss Voigt Hill
#
# Bulk Modulus (GPa) = 11.36431 70.64148 41.00289
# Shear Modulus (GPa) = 15.91656 30.62860 23.27258
#
# Velocity S-wave (km/s) = 2.75210 3.81772 3.32784
# Velocity P-wave (km/s) = 3.93784 7.28347 5.85472
#
# Compressibility (1/GPa) = 0.08799482
#
# Stress axis : x y z
#
# Youngs Moduli (GPa) = 10.67089 99.88908 96.30108
#
# Poissons Ratio (x) = 1.70336 -0.99142
# Poissons Ratio (y) = 0.18197 0.60661
# Poissons Ratio (z) = -0.10986 0.62921
#
# Static dielectric constant tensor:
#      x y z
#    x 1.830320 0.000000 0.000000 
#    y 0.000000 1.774850 0.000000 
#    z 0.000000 0.000000 1.696810 
# 
# From -- ./inp_files/7085.got.cif
#   From: 2010.05.17/outbox.cif.g08.bks.cpg/sg23_4_cif.got.tgz:7085.got - 2010.06.04 12:02:01.
