data_PCOD9329937
_publ_section_title
;
Structure prediction by ZEFSAII (Michael W. Deem and Ramdas Pophale) SiO2 
 PCOD9329937
Probable space group: I 2 2 2
;
_chemical_formula_sum "Si O2"
_cell_formula_units_Z 64
_cell_length_a 15.316710
_cell_length_b 18.247591
_cell_length_c 13.077450
_cell_angle_alpha 90.000000
_cell_angle_beta 90.000000
_cell_angle_gamma 90.000000
_cell_volume 3655.056512
_symmetry_space_group_name_H-M "I 2 2 2"
_symmetry_group_IT_number 23
_symmetry_cell_setting 'orthorhombic'
loop_
_space_group_symop_operation_xyz
x,y,z
-x,-y,z
x,-y,-z
-x,y,-z
1/2+x,1/2+y,1/2+z
1/2-x,1/2-y,1/2+z
1/2+x,1/2-y,1/2-z
1/2-x,1/2+y,1/2-z
loop_
_atom_site_type_symbol
_atom_site_label
_atom_site_fract_x
_atom_site_fract_y
_atom_site_fract_z
Si Si1 0.164439 0.650861 0.822450
Si Si2 0.997516 0.748602 0.882689
Si Si3 0.333528 0.223727 0.887177
Si Si4 0.180444 0.329023 0.822131
Si Si5 0.492812 0.312741 0.834611
Si Si6 0.822866 0.751575 0.610286
Si Si7 0.219186 0.507767 0.122673
Si Si8 0.915065 0.033151 0.615166
O O1 0.075135 0.690025 0.859375
O O2 0.184214 0.666849 0.703026
O O3 0.241589 0.693048 0.882425
O O4 0.170521 0.564591 0.839397
O O5 0.004880 0.807544 0.789612
O O6 0.904403 0.709125 0.869929
O O7 0.000000 0.775761 0.000000
O O8 0.268830 0.292341 0.865551
O O9 0.433942 0.245189 0.870689
O O10 0.320698 0.207234 0.005164
O O11 0.179578 0.304977 0.703901
O O12 0.178692 0.415022 0.843892
O O13 0.589828 0.300960 0.877377
O O14 0.440601 0.381830 0.879389
O O15 0.320660 0.512738 0.158332
O O16 0.219842 0.500000 0.000000
O O17 0.913326 0.000000 0.500000
O O18 0.000000 0.000000 0.670074
#
# Coordination Sequence:
#
# PCOD9329937 Si02
#       8
#     8   8   8   8   8   8   8   8
#     4  10  22  34  52  81 107 141 186 225 266 324
#     4  10  20  36  55  77 105 146 187 226 263 310
#     4  10  19  35  54  77 108 140 181 227 272 317
#     4  10  21  35  52  80 106 140 186 222 271 328
#     4  10  20  33  54  84 109 138 180 223 273 334
#     4  10  20  34  56  77 108 142 179 228 273 321
#     4  11  20  34  53  77 113 144 173 226 277 322
#     4  10  21  30  49  82 115 139 165 215 288 332
#
# _framework density 17.509989999999998
#
# number of rings (size 3 to 8) (size 9 to 14) (size 15 to 20)
#    0.000    1.875    1.250    3.375    5.250    0.500 
#    0.000    1.875    0.000    0.375    3.250    5.250 
#    0.000    0.000    0.000    0.000    0.000    0.000 
#
# Total GULP energy -178316.427124 kJ/mol
# GULP energy per Si atom -5572.388348 kJ/mol
# Density = 1.747014 g / cm^3
# Si number density = 17.509990 Si / 1000 Ang^3
#
#
#
# Elastic Constant Matrix: (Units=GPa)
#
#
# Indices 1 2 3 4 5 6 
#
# 1 75.9280 -1.8240 1.3472 0.0000 0.0000 0.0000
# 2 -1.8240 71.1703 19.1188 0.0000 0.0000 0.0000
# 3 1.3472 19.1188 113.0655 0.0000 0.0000 0.0000
# 4 0.0000 0.0000 0.0000 11.6344 0.0000 0.0000
# 5 0.0000 0.0000 0.0000 0.0000 9.7465 0.0000
# 6 0.0000 0.0000 0.0000 0.0000 0.0000 17.0412
#
#
#
# Elastic Compliance Matrix: (Units=1/GPa)
#
#
# Indices 1 2 3 4 5 6 
#
# 1 0.013184 0.000398 -0.000224 0.000000 0.000000 0.000000
# 2 0.000398 0.014731 -0.002496 0.000000 0.000000 0.000000
# 3 -0.000224 -0.002496 0.009269 0.000000 0.000000 0.000000
# 4 0.000000 0.000000 0.000000 0.085952 0.000000 0.000000
# 5 0.000000 0.000000 0.000000 0.000000 0.102600 0.000000
# 6 0.000000 0.000000 0.000000 0.000000 0.000000 0.058681
#
#
# Mechanical properties :
#
#
# Convention : Reuss Voigt Hill
#
# Bulk Modulus (GPa) = 30.73093 33.04974 31.89033
# Shear Modulus (GPa) = 16.67170 23.78587 20.22879
#
# Velocity S-wave (km/s) = 3.08900 3.68967 3.40262
# Velocity P-wave (km/s) = 5.50556 6.08829 5.80424
#
# Compressibility (1/GPa) = 0.03254051
#
# Stress axis : x y z
#
# Youngs Moduli (GPa) = 75.84994 67.88194 107.88507
#
# Poissons Ratio (x) = -0.02703 0.02421
# Poissons Ratio (y) = -0.03020 0.26925
# Poissons Ratio (z) = 0.01702 0.16942
#
# Static dielectric constant tensor:
#      x y z
#    x 1.619140 0.000000 0.000000 
#    y 0.000000 1.613060 0.000000 
#    z 0.000000 0.000000 1.625240 
# 
# From -- ./inp_files/16955.got.cif
#   From: 2010.05.17/outbox.cif.g08.bks.cpg/sg23_9_cif.got.tgz:16955.got - 2010.06.04 12:02:01.
