data_PCOD9329354
_publ_section_title
;
Structure prediction by ZEFSAII (Michael W. Deem and Ramdas Pophale) SiO2 
 PCOD9329354
Probable space group: I 2 2 2
;
_chemical_formula_sum "Si O2"
_cell_formula_units_Z 56
_cell_length_a 6.901592
_cell_length_b 19.478259
_cell_length_c 18.035864
_cell_angle_alpha 90.000000
_cell_angle_beta 90.000000
_cell_angle_gamma 90.000000
_cell_volume 2424.579170
_symmetry_space_group_name_H-M "I 2 2 2"
_symmetry_group_IT_number 23
_symmetry_cell_setting 'orthorhombic'
loop_
_space_group_symop_operation_xyz
x,y,z
-x,-y,z
x,-y,-z
-x,y,-z
1/2+x,1/2+y,1/2+z
1/2-x,1/2-y,1/2+z
1/2+x,1/2-y,1/2-z
1/2-x,1/2+y,1/2-z
loop_
_atom_site_type_symbol
_atom_site_label
_atom_site_fract_x
_atom_site_fract_y
_atom_site_fract_z
Si Si1 0.204307 0.122356 0.241130
Si Si2 0.754719 0.145871 0.284812
Si Si3 0.179092 0.660451 0.423094
Si Si4 0.199899 0.475361 0.314743
Si Si5 0.784169 0.129830 0.072251
Si Si6 0.258837 0.758169 0.666228
Si Si7 0.896996 0.809695 0.570412
O O1 0.252088 0.152151 0.160250
O O2 0.327896 0.168017 0.301037
O O3 0.981491 0.133631 0.263651
O O4 0.223536 0.040821 0.229621
O O5 0.649411 0.082838 0.245695
O O6 0.705614 0.215535 0.240546
O O7 0.756312 0.150885 0.373584
O O8 0.302677 0.619597 0.484144
O O9 0.201251 0.738393 0.452914
O O10 0.952418 0.639781 0.422378
O O11 0.326434 0.435800 0.376238
O O12 0.000000 0.500000 0.351715
O O13 0.858671 0.200402 0.112920
O O14 0.071410 0.780764 0.620501
O O15 0.000000 0.844549 0.500000
#
# Coordination Sequence:
#
# PCOD9329354 Si02
#       7
#     8   8   8   8   8   8   8
#     4  11  21  33  55  82 117 152 192 235 296 341
#     4  10  22  36  56  87 119 147 196 248 293 342
#     4  10  16  31  56  86 109 144 190 234 290 338
#     4  11  22  37  55  80 117 156 197 235 289 349
#     4   9  18  33  53  82 111 140 194 233 271 357
#     4   9  18  32  55  81 113 145 185 243 283 336
#     4  10  17  33  61  90 112 147 199 245 282 350
#
# _framework density 23.096793999999999
#
# number of rings (size 3 to 8) (size 9 to 14) (size 15 to 20)
#    0.000    2.000    5.714    0.429    0.000    0.571 
#    0.000    2.857    0.000   10.286    0.000    4.000 
#    0.000    0.000    0.000    0.000    0.000    0.000 
#
# Total GULP energy -156088.855000 kJ/mol
# GULP energy per Si atom -5574.601964 kJ/mol
# Density = 2.304422 g / cm^3
# Si number density = 23.096794 Si / 1000 Ang^3
#
#
#
# Elastic Constant Matrix: (Units=GPa)
#
#
# Indices 1 2 3 4 5 6 
#
# 1 33.4376 -15.2426 -4.3304 0.0000 0.0000 0.0000
# 2 -15.2426 106.3412 55.7117 0.0000 0.0000 0.0000
# 3 -4.3304 55.7117 127.5859 0.0000 0.0000 0.0000
# 4 0.0000 0.0000 0.0000 25.0702 0.0000 0.0000
# 5 0.0000 0.0000 0.0000 0.0000 35.2780 0.0000
# 6 0.0000 0.0000 0.0000 0.0000 0.0000 17.0473
#
#
#
# Elastic Compliance Matrix: (Units=1/GPa)
#
#
# Indices 1 2 3 4 5 6 
#
# 1 0.032137 0.005232 -0.001194 0.000000 0.000000 0.000000
# 2 0.005232 0.013045 -0.005519 0.000000 0.000000 0.000000
# 3 -0.001194 -0.005519 0.010207 0.000000 0.000000 0.000000
# 4 0.000000 0.000000 0.000000 0.039888 0.000000 0.000000
# 5 0.000000 0.000000 0.000000 0.000000 0.028346 0.000000
# 6 0.000000 0.000000 0.000000 0.000000 0.000000 0.058660
#
#
# Mechanical properties :
#
#
# Convention : Reuss Voigt Hill
#
# Bulk Modulus (GPa) = 19.07392 37.73801 28.40597
# Shear Modulus (GPa) = 24.66455 30.89417 27.77936
#
# Velocity S-wave (km/s) = 3.27138 3.66128 3.47181
# Velocity P-wave (km/s) = 4.74821 5.85217 5.32885
#
# Compressibility (1/GPa) = 0.05242760
#
# Stress axis : x y z
#
# Youngs Moduli (GPa) = 31.11698 76.65917 97.97131
#
# Poissons Ratio (x) = -0.40107 0.11695
# Poissons Ratio (y) = -0.16280 0.54066
# Poissons Ratio (z) = 0.03715 0.42305
#
# Static dielectric constant tensor:
#      x y z
#    x 2.052480 0.000000 0.000000 
#    y 0.000000 1.925000 0.000000 
#    z 0.000000 0.000000 1.901780 
# 
# From -- ./inp_files/23951.got.cif
#   From: 2010.05.17/outbox.cif.g08.bks.cpg/sg23_12_cif.got.tgz:23951.got - 2010.06.04 12:02:01.
