data_PCOD9329704
_publ_section_title
;
Structure prediction by ZEFSAII (Michael W. Deem and Ramdas Pophale) SiO2 
 PCOD9329704
Probable space group: I 2 2 2
;
_chemical_formula_sum "Si O2"
_cell_formula_units_Z 48
_cell_length_a 14.581830
_cell_length_b 14.678899
_cell_length_c 11.974260
_cell_angle_alpha 90.000000
_cell_angle_beta 90.000000
_cell_angle_gamma 90.000000
_cell_volume 2563.032994
_symmetry_space_group_name_H-M "I 2 2 2"
_symmetry_group_IT_number 23
_symmetry_cell_setting 'orthorhombic'
loop_
_space_group_symop_operation_xyz
x,y,z
-x,-y,z
x,-y,-z
-x,y,-z
1/2+x,1/2+y,1/2+z
1/2-x,1/2-y,1/2+z
1/2+x,1/2-y,1/2-z
1/2-x,1/2+y,1/2-z
loop_
_atom_site_type_symbol
_atom_site_label
_atom_site_fract_x
_atom_site_fract_y
_atom_site_fract_z
Si Si1 0.000000 0.000000 0.652837
Si Si2 0.163637 0.000000 0.500000
Si Si3 0.000000 0.500000 0.255766
Si Si4 0.845750 0.448002 0.603288
Si Si5 0.241580 0.362269 0.176155
Si Si6 0.064457 0.194969 0.710439
Si Si7 0.957701 0.317904 0.878529
Si Si8 0.000000 0.311807 0.500000
O O1 0.913166 0.042525 0.583625
O O2 0.042255 0.087304 0.712449
O O3 0.223770 0.932514 0.421987
O O4 0.913911 0.481111 0.335112
O O5 0.978011 0.586139 0.181306
O O6 0.798984 0.500000 0.500000
O O7 0.786118 0.409628 0.705684
O O8 0.916607 0.372773 0.551965
O O9 0.325982 0.297896 0.207386
O O10 0.152152 0.310573 0.129885
O O11 0.032258 0.245986 0.598986
O O12 0.010979 0.241642 0.810283
O O13 0.000000 0.320987 0.000000
#
# Coordination Sequence:
#
# PCOD9329704 Si02
#       8
#     4   4   4   8   8   8   8   4
#     4   9  20  42  69  84 119 172 218 277 300 347
#     4   9  18  40  63  98 118 156 221 260 309 382
#     4  10  18  38  60  90 122 164 200 246 322 380
#     4  11  19  36  61  96 123 161 206 255 322 370
#     4  10  23  38  62  96 126 167 212 254 320 380
#     4  11  22  43  63  90 126 166 221 261 306 377
#     4  11  24  40  61  93 133 167 198 262 330 384
#     4  12  19  37  68  86 122 166 210 268 300 364
#
# _framework density 18.727812
#
# number of rings (size 3 to 8) (size 9 to 14) (size 15 to 20)
#    0.000    1.500    5.000    2.250    4.667    1.333 
#    3.000    5.417    0.000    0.000    0.000    0.000 
#    0.000    0.000    0.000    0.000    0.000    0.000 
#
# Total GULP energy -133664.826510 kJ/mol
# GULP energy per Si atom -5569.367771 kJ/mol
# Density = 1.868519 g / cm^3
# Si number density = 18.727812 Si / 1000 Ang^3
#
#
#
# Elastic Constant Matrix: (Units=GPa)
#
#
# Indices 1 2 3 4 5 6 
#
# 1 118.7564 37.7197 50.7534 0.0000 0.0000 0.0000
# 2 37.7197 63.9369 31.5058 0.0000 0.0000 0.0000
# 3 50.7534 31.5058 125.0213 0.0000 0.0000 0.0000
# 4 0.0000 0.0000 0.0000 -31.6708 0.0000 0.0000
# 5 0.0000 0.0000 0.0000 0.0000 22.4438 0.0000
# 6 0.0000 0.0000 0.0000 0.0000 0.0000 21.2575
#
#
#
# Elastic Compliance Matrix: (Units=1/GPa)
#
#
# Indices 1 2 3 4 5 6 
#
# 1 0.011487 -0.005114 -0.003375 0.000000 0.000000 0.000000
# 2 -0.005114 0.020135 -0.002998 0.000000 0.000000 0.000000
# 3 -0.003375 -0.002998 0.010124 0.000000 0.000000 0.000000
# 4 0.000000 0.000000 0.000000 -0.031575 0.000000 0.000000
# 5 0.000000 0.000000 0.000000 0.000000 0.044556 0.000000
# 6 0.000000 0.000000 0.000000 0.000000 0.000000 0.047042
#
#
# Mechanical properties :
#
#
# Convention : Reuss Voigt Hill
#
# Bulk Modulus (GPa) = 53.26827 60.85249 57.06038
# Shear Modulus (GPa) = 38.16805 14.92182 26.54493
#
# Velocity S-wave (km/s) = 4.51936 2.82578 3.76893
# Velocity P-wave (km/s) = 7.46579 6.57346 7.03379
#
# Compressibility (1/GPa) = 0.01877290
#
# Stress axis : x y z
#
# Youngs Moduli (GPa) = 87.05416 49.66551 98.77469
#
# Poissons Ratio (x) = 0.25399 0.33332
# Poissons Ratio (y) = 0.44519 0.29612
# Poissons Ratio (z) = 0.29377 0.14889
#
# Static dielectric constant tensor:
#      x y z
#    x 1.688540 0.000000 0.000000 
#    y 0.000000 1.657440 0.000000 
#    z 0.000000 0.000000 1.676520 
# 
# From -- ./inp_files/16750.got.cif
#   From: 2010.05.17/outbox.cif.g08.bks.cpg/sg23_9_cif.got.tgz:16750.got - 2010.06.04 12:02:01.
