data_PCOD9329060
_publ_section_title
;
Structure prediction by ZEFSAII (Michael W. Deem and Ramdas Pophale) SiO2 
 PCOD9329060
Probable space group: F 2 2 2
;
_chemical_formula_sum "Si O2"
_cell_formula_units_Z 108
_cell_length_a 14.552508
_cell_length_b 10.667313
_cell_length_c 31.140405
_cell_angle_alpha 90.000000
_cell_angle_beta 90.000000
_cell_angle_gamma 90.000000
_cell_volume 4834.116824
_symmetry_space_group_name_H-M "F 2 2 2"
_symmetry_group_IT_number 22
_symmetry_cell_setting 'orthorhombic'
loop_
_space_group_symop_operation_xyz
x,y,z
-x,-y,z
x,-y,-z
-x,y,-z
x,1/2+y,1/2+z
-x,1/2-y,1/2+z
x,1/2-y,1/2-z
-x,1/2+y,1/2-z
1/2+x,y,1/2+z
1/2-x,-y,1/2+z
1/2+x,-y,1/2-z
1/2-x,y,1/2-z
1/2+x,1/2+y,z
1/2-x,1/2-y,z
1/2+x,1/2-y,-z
1/2-x,1/2+y,-z
loop_
_atom_site_type_symbol
_atom_site_label
_atom_site_fract_x
_atom_site_fract_y
_atom_site_fract_z
Si Si1 0.259860 0.104186 0.181666
Si Si2 0.119127 0.182710 0.059326
Si Si3 0.907096 0.727624 0.701468
Si Si4 0.000000 0.000000 0.000000
Si Si5 0.604427 0.453246 0.370218
Si Si6 0.250000 0.076520 0.750000
Si Si7 0.560883 0.894417 0.354513
Si Si8 0.687339 0.550338 0.452282
O O1 0.250000 0.250000 0.191307
O O2 0.157083 0.065887 0.166664
O O3 0.330953 0.066935 0.145498
O O4 0.302038 0.023221 0.220596
O O5 0.081293 0.199312 0.107342
O O6 0.215861 0.108349 0.064181
O O7 0.127196 0.323526 0.042380
O O8 0.059918 0.092790 0.029373
O O9 0.943917 0.750000 0.750000
O O10 0.886557 0.836256 0.664742
O O11 0.814350 0.845652 0.782661
O O12 0.989642 0.652723 0.680404
O O13 0.500000 0.500000 0.369591
O O14 0.642429 0.447520 0.419601
O O15 0.500000 0.000000 0.377277
O O16 0.702887 0.500000 0.500000
#
# Coordination Sequence:
#
# PCOD9329060 Si02
#       8
#    16  16  16   4  16   8  16  16
#     4  12  25  46  74 105 147 199 257 320 389 462
#     4  11  24  46  76 114 158 196 250 324 382 474
#     4  12  27  47  75 110 157 202 263 336 391 460
#     4  12  24  44  78 116 154 204 256 306 392 472
#     4  12  27  47  78 112 155 208 263 328 399 472
#     4  12  26  48  70 108 149 203 256 332 386 461
#     4  12  25  47  76 108 146 204 262 314 392 470
#     4  11  25  49  79 115 158 201 252 321 406 474
#
# _framework density 22.341206
#
# number of rings (size 3 to 8) (size 9 to 14) (size 15 to 20)
#    0.000    0.296    5.926    3.111    0.000    5.630 
#    0.000    2.963    0.000    0.000    0.000    0.000 
#    0.000    0.000    0.000    0.000    0.000    0.000 
#
# Total GULP energy -150313.151859 kJ/mol
# GULP energy per Si atom -5567.153773 kJ/mol
# Density = 2.229036 g / cm^3
# Si number density = 22.341206 Si / 1000 Ang^3
#
#
#
# Elastic Constant Matrix: (Units=GPa)
#
#
# Indices 1 2 3 4 5 6 
#
# 1 120.1721 46.6790 33.4005 0.0000 0.0000 0.0000
# 2 46.6790 77.1464 39.9067 0.0000 0.0000 0.0000
# 3 33.4005 39.9067 125.3264 0.0000 0.0000 0.0000
# 4 0.0000 0.0000 0.0000 39.3885 0.0000 0.0000
# 5 0.0000 0.0000 0.0000 0.0000 29.9634 0.0000
# 6 0.0000 0.0000 0.0000 0.0000 0.0000 29.5748
#
#
#
# Elastic Compliance Matrix: (Units=1/GPa)
#
#
# Indices 1 2 3 4 5 6 
#
# 1 0.010976 -0.006139 -0.000970 0.000000 0.000000 0.000000
# 2 -0.006139 0.018952 -0.004399 0.000000 0.000000 0.000000
# 3 -0.000970 -0.004399 0.009638 0.000000 0.000000 0.000000
# 4 0.000000 0.000000 0.000000 0.025388 0.000000 0.000000
# 5 0.000000 0.000000 0.000000 0.000000 0.033374 0.000000
# 6 0.000000 0.000000 0.000000 0.000000 0.000000 0.033813
#
#
# Mechanical properties :
#
#
# Convention : Reuss Voigt Hill
#
# Bulk Modulus (GPa) = 60.42231 62.51304 61.46767
# Shear Modulus (GPa) = 31.11885 33.29593 32.20739
#
# Velocity S-wave (km/s) = 3.73619 3.86468 3.80098
# Velocity P-wave (km/s) = 6.76137 6.92503 6.84369
#
# Compressibility (1/GPa) = 0.01655018
#
# Stress axis : x y z
#
# Youngs Moduli (GPa) = 91.10993 52.76376 103.75167
#
# Poissons Ratio (x) = 0.32393 0.10067
# Poissons Ratio (y) = 0.55934 0.45638
# Poissons Ratio (z) = 0.08840 0.23209
#
# Static dielectric constant tensor:
#      x y z
#    x 1.830720 0.000000 0.000000 
#    y 0.000000 1.960160 0.000000 
#    z 0.000000 0.000000 1.919160 
# 
# From -- ./inp_files/56505.got.cif
#   From: 2010.05.17/outbox.cif.g08.bks.cpg/sg22_29_cif.got.tgz:56505.got - 2010.06.03 23:40:54.
