data_PCOD9329243
_publ_section_title
;
Structure prediction by ZEFSAII (Michael W. Deem and Ramdas Pophale) SiO2 
 PCOD9329243
Probable space group: F 2 2 2
;
_chemical_formula_sum "Si O2"
_cell_formula_units_Z 64
_cell_length_a 20.322871
_cell_length_b 6.078651
_cell_length_c 24.882011
_cell_angle_alpha 90.000000
_cell_angle_beta 90.000000
_cell_angle_gamma 90.000000
_cell_volume 3073.815157
_symmetry_space_group_name_H-M "F 2 2 2"
_symmetry_group_IT_number 22
_symmetry_cell_setting 'orthorhombic'
loop_
_space_group_symop_operation_xyz
x,y,z
-x,-y,z
x,-y,-z
-x,y,-z
x,1/2+y,1/2+z
-x,1/2-y,1/2+z
x,1/2-y,1/2-z
-x,1/2+y,1/2-z
1/2+x,y,1/2+z
1/2-x,-y,1/2+z
1/2+x,-y,1/2-z
1/2-x,y,1/2-z
1/2+x,1/2+y,z
1/2-x,1/2-y,z
1/2+x,1/2-y,-z
1/2-x,1/2+y,-z
loop_
_atom_site_type_symbol
_atom_site_label
_atom_site_fract_x
_atom_site_fract_y
_atom_site_fract_z
Si Si1 0.357636 0.440753 0.388384
Si Si2 0.213096 0.500000 0.000000
Si Si3 0.250000 0.250000 0.668338
Si Si4 0.961216 0.750000 0.750000
Si Si5 0.853504 0.918384 0.203180
Si Si6 0.000000 0.500000 0.152550
O O1 0.332280 0.434270 0.449237
O O2 0.305937 0.612248 0.363090
O O3 0.356648 0.213712 0.353698
O O4 0.433153 0.519121 0.380736
O O5 0.250000 0.250000 0.989769
O O6 0.208053 0.424307 0.699650
O O7 0.913448 0.565337 0.725509
O O8 0.003358 0.691317 0.802635
O O9 0.841525 0.750000 0.250000
#
# Coordination Sequence:
#
# PCOD9329243 Si02
#       6
#    16   8   8   8  16   8
#     4  12  27  46  77 106 150 201 261 326 393 473
#     4  12  28  55  84 115 152 202 274 342 412 462
#     4  12  24  45  68 106 146 190 257 318 372 458
#     4  12  24  45  68 106 163 204 248 312 398 494
#     4  12  24  44  70 110 149 204 252 318 394 470
#     4  12  24  47  70 104 152 207 248 312 402 478
#
# _framework density 20.82103
#
# number of rings (size 3 to 8) (size 9 to 14) (size 15 to 20)
#    0.000    0.000    6.250    3.750    0.000    8.000 
#    0.000    0.000    0.000    1.500    0.000    0.000 
#    0.000    0.000    0.000    0.000    0.000    0.000 
#
# Total GULP energy -89167.215067 kJ/mol
# GULP energy per Si atom -5572.950942 kJ/mol
# Density = 2.077364 g / cm^3
# Si number density = 20.821030 Si / 1000 Ang^3
#
#
#
# Elastic Constant Matrix: (Units=GPa)
#
#
# Indices 1 2 3 4 5 6 
#
# 1 131.7844 48.6695 50.2656 -0.0001 -0.0002 0.0002
# 2 48.6695 115.9927 52.7258 0.0000 -0.0008 0.0004
# 3 50.2656 52.7258 147.0593 0.0000 0.0001 0.0001
# 4 -0.0001 0.0000 0.0000 25.7661 0.0001 0.0000
# 5 -0.0002 -0.0008 0.0001 0.0001 52.4067 0.0005
# 6 0.0002 0.0004 0.0001 0.0000 0.0005 51.2299
#
#
#
# Elastic Compliance Matrix: (Units=1/GPa)
#
#
# Indices 1 2 3 4 5 6 
#
# 1 0.009530 -0.003008 -0.002179 0.000000 0.000000 0.000000
# 2 -0.003008 0.011250 -0.003005 0.000000 0.000000 0.000000
# 3 -0.002179 -0.003005 0.008622 0.000000 0.000000 0.000000
# 4 0.000000 0.000000 0.000000 0.038811 0.000000 0.000000
# 5 0.000000 0.000000 0.000000 0.000000 0.019082 0.000000
# 6 0.000000 0.000000 0.000000 0.000000 0.000000 0.019520
#
#
# Mechanical properties :
#
#
# Convention : Reuss Voigt Hill
#
# Bulk Modulus (GPa) = 76.82097 77.57313 77.19705
# Shear Modulus (GPa) = 39.20409 42.09224 40.64817
#
# Velocity S-wave (km/s) = 4.34396 4.50112 4.42324
# Velocity P-wave (km/s) = 7.88263 8.02194 7.95259
#
# Compressibility (1/GPa) = 0.01301728
#
# Stress axis : x y z
#
# Youngs Moduli (GPa) = 104.92896 88.89279 115.98045
#
# Poissons Ratio (x) = 0.26742 0.25271
# Poissons Ratio (y) = 0.31567 0.34853
# Poissons Ratio (z) = 0.22863 0.26713
#
# Static dielectric constant tensor:
#      x y z
#    x 1.760360 0.000000 0.000000 
#    y 0.000000 1.940400 0.000000 
#    z 0.000000 0.000000 1.738780 
# 
# From -- ./inp_files/3731.got.cif
#   From: 2010.05.17/outbox.cif.g08.bks.cpg/sg22_2_cif.got.tgz:3731.got - 2010.06.03 23:40:54.
