data_PCOD9329429
_publ_section_title
;
Structure prediction by ZEFSAII (Michael W. Deem and Ramdas Pophale) SiO2 
 PCOD9329429
Probable space group: I 2 2 2
;
_chemical_formula_sum "Si O2"
_cell_formula_units_Z 56
_cell_length_a 8.727728
_cell_length_b 14.213750
_cell_length_c 16.797094
_cell_angle_alpha 90.000000
_cell_angle_beta 90.000000
_cell_angle_gamma 90.000000
_cell_volume 2083.742397
_symmetry_space_group_name_H-M "I 2 2 2"
_symmetry_group_IT_number 23
_symmetry_cell_setting 'orthorhombic'
loop_
_space_group_symop_operation_xyz
x,y,z
-x,-y,z
x,-y,-z
-x,y,-z
1/2+x,1/2+y,1/2+z
1/2-x,1/2-y,1/2+z
1/2+x,1/2-y,1/2-z
1/2-x,1/2+y,1/2-z
loop_
_atom_site_type_symbol
_atom_site_label
_atom_site_fract_x
_atom_site_fract_y
_atom_site_fract_z
Si Si1 0.822166 0.339093 0.528758
Si Si2 0.895178 0.628363 0.154067
Si Si3 0.954927 0.903991 0.370183
Si Si4 0.865325 0.857121 0.123172
Si Si5 0.189880 0.873705 0.196172
Si Si6 0.276352 0.373292 0.013414
Si Si7 0.196979 0.339879 0.768159
O O1 0.699744 0.379989 0.464451
O O2 0.800697 0.373405 0.619051
O O3 0.768667 0.229174 0.527681
O O4 0.000000 0.346952 0.500000
O O5 0.877917 0.742703 0.136993
O O6 0.782948 0.591638 0.225062
O O7 0.863836 0.593020 0.065348
O O8 0.066105 0.609787 0.182588
O O9 0.842920 0.934188 0.441883
O O10 0.861254 0.841967 0.310815
O O11 0.094492 0.858619 0.417267
O O12 0.000000 0.000000 0.327704
O O13 0.728146 0.884099 0.182950
O O14 0.026032 0.898771 0.154783
O O15 0.154292 0.768911 0.229843
#
# Coordination Sequence:
#
# PCOD9329429 Si02
#       7
#     8   8   8   8   8   8   8
#     4  11  17  27  46  72 104 139 167 205 256 320
#     4   9  19  29  50  70  97 134 169 218 270 321
#     4  11  21  34  52  69  94 137 188 226 260 308
#     4   9  19  28  46  71 102 136 171 207 261 334
#     4  10  17  30  45  72 103 134 173 204 261 333
#     4  10  18  33  47  69  94 133 174 217 266 301
#     4  10  18  33  46  70  98 130 175 225 266 312
#
# _framework density 26.874721999999998
#
# number of rings (size 3 to 8) (size 9 to 14) (size 15 to 20)
#    0.000    2.000    2.857    3.000    0.000    5.143 
#    0.000    0.714    0.000    3.429    0.000    0.000 
#    0.000   10.286    0.000   13.857    0.000    1.571 
#
# Total GULP energy -156386.424512 kJ/mol
# GULP energy per Si atom -5585.229447 kJ/mol
# Density = 2.681355 g / cm^3
# Si number density = 26.874722 Si / 1000 Ang^3
#
#
#
# Elastic Constant Matrix: (Units=GPa)
#
#
# Indices 1 2 3 4 5 6 
#
# 1 126.2674 16.6656 51.1859 0.0000 0.0000 0.0000
# 2 16.6656 44.2601 -3.7642 0.0000 0.0000 0.0000
# 3 51.1859 -3.7642 163.3876 0.0000 0.0000 0.0000
# 4 0.0000 0.0000 0.0000 13.1165 0.0000 0.0000
# 5 0.0000 0.0000 0.0000 0.0000 55.8342 0.0000
# 6 0.0000 0.0000 0.0000 0.0000 0.0000 12.0019
#
#
#
# Elastic Compliance Matrix: (Units=1/GPa)
#
#
# Indices 1 2 3 4 5 6 
#
# 1 0.009707 -0.003921 -0.003131 0.000000 0.000000 0.000000
# 2 -0.003921 0.024222 0.001786 0.000000 0.000000 0.000000
# 3 -0.003131 0.001786 0.007143 0.000000 0.000000 0.000000
# 4 0.000000 0.000000 0.000000 0.076240 0.000000 0.000000
# 5 0.000000 0.000000 0.000000 0.000000 0.017910 0.000000
# 6 0.000000 0.000000 0.000000 0.000000 0.000000 0.083320
#
#
# Mechanical properties :
#
#
# Convention : Reuss Voigt Hill
#
# Bulk Modulus (GPa) = 32.74464 51.34330 42.04397
# Shear Modulus (GPa) = 20.89838 34.17904 27.53871
#
# Velocity S-wave (km/s) = 2.79161 3.57009 3.20458
# Velocity P-wave (km/s) = 4.75410 6.01167 5.41948
#
# Compressibility (1/GPa) = 0.03053935
#
# Stress axis : x y z
#
# Youngs Moduli (GPa) = 103.02311 41.28456 140.00678
#
# Poissons Ratio (x) = 0.16188 0.43839
# Poissons Ratio (y) = 0.40397 -0.25012
# Poissons Ratio (z) = 0.32259 -0.07375
#
# Static dielectric constant tensor:
#      x y z
#    x 2.162660 0.000000 0.000000 
#    y 0.000000 2.159680 0.000000 
#    z 0.000000 0.000000 2.095390 
# 
# From -- ./inp_files/11370.got.cif
#   From: 2010.05.17/outbox.cif.g08.bks.cpg/sg23_6_cif.got.tgz:11370.got - 2010.06.04 12:02:01.
