data_PCOD9329464
_publ_section_title
;
Structure prediction by ZEFSAII (Michael W. Deem and Ramdas Pophale) SiO2 
 PCOD9329464
Probable space group: I 2 2 2
;
_chemical_formula_sum "Si O2"
_cell_formula_units_Z 52
_cell_length_a 11.542351
_cell_length_b 13.916290
_cell_length_c 17.757365
_cell_angle_alpha 90.000000
_cell_angle_beta 90.000000
_cell_angle_gamma 90.000000
_cell_volume 2852.307008
_symmetry_space_group_name_H-M "I 2 2 2"
_symmetry_group_IT_number 23
_symmetry_cell_setting 'orthorhombic'
loop_
_space_group_symop_operation_xyz
x,y,z
-x,-y,z
x,-y,-z
-x,y,-z
1/2+x,1/2+y,1/2+z
1/2-x,1/2-y,1/2+z
1/2+x,1/2-y,1/2-z
1/2-x,1/2+y,1/2-z
loop_
_atom_site_type_symbol
_atom_site_label
_atom_site_fract_x
_atom_site_fract_y
_atom_site_fract_z
Si Si1 0.723760 0.888286 0.767611
Si Si2 0.499999 0.887538 0.340198
Si Si3 0.500000 0.851983 0.500000
Si Si4 0.268733 0.391346 0.000000
Si Si5 0.636948 0.284066 0.146509
Si Si6 0.636947 0.715933 0.146511
Si Si7 0.776240 0.611715 0.732390
O O1 0.612915 0.876709 0.711569
O O2 0.697589 0.818064 0.836872
O O3 0.830952 0.848890 0.719152
O O4 0.734731 0.000000 0.786650
O O5 0.499999 0.817049 0.412177
O O6 0.612914 0.876708 0.288431
O O7 0.500000 0.000000 0.367434
O O8 0.629347 0.895896 0.500000
O O9 0.312220 0.336159 0.926396
O O10 0.314242 0.500000 0.000000
O O11 0.312219 0.336160 0.073606
O O12 0.500000 0.271780 0.139181
O O13 0.669049 0.348890 0.219150
O O14 0.697590 0.818063 0.163129
#
# Coordination Sequence:
#
# PCOD9329464 Si02
#       7
#     8   8   4   8   8   8   8
#     4  10  21  38  60  84 114 152 193 238 282 338
#     4  10  17  32  58  83 107 141 186 237 280 321
#     4  12  21  34  60  86 109 144 191 236 286 336
#     4  12  24  38  58  85 117 150 187 241 294 341
#     4  11  23  37  57  87 118 152 192 233 290 346
#     4  11  23  37  57  87 118 152 192 233 290 346
#     4  10  21  38  60  84 114 152 193 238 282 338
#
# _framework density 18.230855999999999
#
# number of rings (size 3 to 8) (size 9 to 14) (size 15 to 20)
#    0.000    1.231    4.615    2.769    0.000    3.077 
#    0.000    0.769    0.000    1.846    0.000    1.077 
#    0.000    0.000    0.000    0.000    0.000    0.000 
#
# Total GULP energy -144966.275446 kJ/mol
# GULP energy per Si atom -5575.625979 kJ/mol
# Density = 1.818936 g / cm^3
# Si number density = 18.230856 Si / 1000 Ang^3
#
#
#
# Elastic Constant Matrix: (Units=GPa)
#
#
# Indices 1 2 3 4 5 6 
#
# 1 54.5866 23.3802 22.6469 0.0000 0.0000 0.0000
# 2 23.3802 152.8060 65.0518 0.0000 0.0000 0.0000
# 3 22.6469 65.0518 90.4117 0.0000 0.0000 0.0000
# 4 0.0000 0.0000 0.0000 25.0772 0.0000 0.0000
# 5 0.0000 0.0000 0.0000 0.0000 14.7580 0.0000
# 6 0.0000 0.0000 0.0000 0.0000 0.0000 10.0040
#
#
#
# Elastic Compliance Matrix: (Units=1/GPa)
#
#
# Indices 1 2 3 4 5 6 
#
# 1 0.020644 -0.001380 -0.004178 0.000000 0.000000 0.000000
# 2 -0.001380 0.009526 -0.006508 0.000000 0.000000 0.000000
# 3 -0.004178 -0.006508 0.016790 0.000000 0.000000 0.000000
# 4 0.000000 0.000000 0.000000 0.039877 0.000000 0.000000
# 5 0.000000 0.000000 0.000000 0.000000 0.067760 0.000000
# 6 0.000000 0.000000 0.000000 0.000000 0.000000 0.099960
#
#
# Mechanical properties :
#
#
# Convention : Reuss Voigt Hill
#
# Bulk Modulus (GPa) = 43.80780 57.77355 50.79067
# Shear Modulus (GPa) = 17.46424 22.41619 19.94022
#
# Velocity S-wave (km/s) = 3.09843 3.51033 3.31080
# Velocity P-wave (km/s) = 6.07306 6.94181 6.52191
#
# Compressibility (1/GPa) = 0.02282699
#
# Stress axis : x y z
#
# Youngs Moduli (GPa) = 48.44018 104.97440 59.55943
#
# Poissons Ratio (x) = 0.14486 0.24885
# Poissons Ratio (y) = 0.06685 0.38764
# Poissons Ratio (z) = 0.20239 0.68322
#
# Static dielectric constant tensor:
#      x y z
#    x 1.627740 0.000000 0.000000 
#    y 0.000000 1.630810 0.000000 
#    z 0.000000 0.000000 1.645280 
# 
# From -- ./inp_files/24380.got.cif
#   From: 2010.05.17/outbox.cif.g08.bks.cpg/sg23_13_cif.got.tgz:24380.got - 2010.06.04 12:02:01.
