data_PCOD9329254
_publ_section_title
;
Structure prediction by ZEFSAII (Michael W. Deem and Ramdas Pophale) SiO2 
 PCOD9329254
Probable space group: F 2 2 2
;
_chemical_formula_sum "Si O2"
_cell_formula_units_Z 68
_cell_length_a 16.768833
_cell_length_b 18.651026
_cell_length_c 9.489003
_cell_angle_alpha 90.000000
_cell_angle_beta 90.000000
_cell_angle_gamma 90.000000
_cell_volume 2967.742056
_symmetry_space_group_name_H-M "F 2 2 2"
_symmetry_group_IT_number 22
_symmetry_cell_setting 'orthorhombic'
loop_
_space_group_symop_operation_xyz
x,y,z
-x,-y,z
x,-y,-z
-x,y,-z
x,1/2+y,1/2+z
-x,1/2-y,1/2+z
x,1/2-y,1/2-z
-x,1/2+y,1/2-z
1/2+x,y,1/2+z
1/2-x,-y,1/2+z
1/2+x,-y,1/2-z
1/2-x,y,1/2-z
1/2+x,1/2+y,z
1/2-x,1/2-y,z
1/2+x,1/2-y,-z
1/2-x,1/2+y,-z
loop_
_atom_site_type_symbol
_atom_site_label
_atom_site_fract_x
_atom_site_fract_y
_atom_site_fract_z
Si Si1 0.460298 0.421103 0.291444
Si Si2 0.691076 0.128035 0.944132
Si Si3 0.632004 0.083625 0.517976
Si Si4 0.750000 0.750000 0.250000
Si Si5 0.889613 0.334224 0.224071
O O1 0.500000 0.500000 0.287099
O O2 0.381425 0.419922 0.387262
O O3 0.527464 0.365023 0.336459
O O4 0.429795 0.394599 0.138589
O O5 0.696362 0.200161 0.850520
O O6 0.777666 0.093045 0.928350
O O7 0.675882 0.146990 0.106650
O O8 0.623701 0.125295 0.371848
O O9 0.616814 0.000000 0.500000
O O10 0.891811 0.250000 0.250000
#
# Coordination Sequence:
#
# PCOD9329254 Si02
#       5
#    16  16  16   4  16
#     4  12  27  50  75 113 154 205 258 321 396 474
#     4  12  28  47  80 110 151 205 263 324 385 472
#     4  12  26  51  80 109 154 207 259 318 396 470
#     4  12  24  52  78 108 156 208 266 312 408 464
#     4  12  29  47  77 119 159 200 259 330 399 466
#
# _framework density 22.913042999999998
#
# number of rings (size 3 to 8) (size 9 to 14) (size 15 to 20)
#    0.000    0.000    4.706    3.529    4.941    5.647 
#    0.000    0.000    0.000    0.000    0.000    0.000 
#    0.000    0.000    0.000    0.000    0.000    0.000 
#
# Total GULP energy -95269.016266 kJ/mol
# GULP energy per Si atom -5604.059780 kJ/mol
# Density = 2.286089 g / cm^3
# Si number density = 22.913043 Si / 1000 Ang^3
#
#
#
# Elastic Constant Matrix: (Units=GPa)
#
#
# Indices 1 2 3 4 5 6 
#
# 1 113.6898 16.1752 23.0798 0.0000 0.0000 0.0000
# 2 16.1752 94.5487 47.1933 0.0000 0.0000 0.0000
# 3 23.0798 47.1933 138.9894 0.0000 0.0000 0.0000
# 4 0.0000 0.0000 0.0000 16.3418 0.0000 0.0000
# 5 0.0000 0.0000 0.0000 0.0000 47.6343 0.0000
# 6 0.0000 0.0000 0.0000 0.0000 0.0000 47.1531
#
#
#
# Elastic Compliance Matrix: (Units=1/GPa)
#
#
# Indices 1 2 3 4 5 6 
#
# 1 0.009177 -0.000974 -0.001193 0.000000 0.000000 0.000000
# 2 -0.000974 0.012838 -0.004197 0.000000 0.000000 0.000000
# 3 -0.001193 -0.004197 0.008818 0.000000 0.000000 0.000000
# 4 0.000000 0.000000 0.000000 0.061193 0.000000 0.000000
# 5 0.000000 0.000000 0.000000 0.000000 0.020993 0.000000
# 6 0.000000 0.000000 0.000000 0.000000 0.000000 0.021208
#
#
# Mechanical properties :
#
#
# Convention : Reuss Voigt Hill
#
# Bulk Modulus (GPa) = 55.23794 57.79162 56.51478
# Shear Modulus (GPa) = 32.68165 39.61113 36.14639
#
# Velocity S-wave (km/s) = 3.78078 4.16235 3.97614
# Velocity P-wave (km/s) = 6.57412 6.95536 6.76743
#
# Compressibility (1/GPa) = 0.01810350
#
# Stress axis : x y z
#
# Youngs Moduli (GPa) = 108.97182 77.89145 113.40306
#
# Poissons Ratio (x) = 0.07590 0.13528
# Poissons Ratio (y) = 0.10619 0.47600
# Poissons Ratio (z) = 0.13000 0.32694
#
# Static dielectric constant tensor:
#      x y z
#    x 1.838630 0.000000 0.000000 
#    y 0.000000 2.026300 0.000000 
#    z 0.000000 0.000000 1.957070 
# 
# From -- ./inp_files/11275.got.cif
#   From: 2010.05.17/outbox.cif.g08.bks.cpg/sg22_6_cif.got.tgz:11275.got - 2010.06.03 23:40:54.
