data_PCOD9329676
_publ_section_title
;
Structure prediction by ZEFSAII (Michael W. Deem and Ramdas Pophale) SiO2 
 PCOD9329676
Probable space group: I 2 2 2
;
_chemical_formula_sum "Si O2"
_cell_formula_units_Z 48
_cell_length_a 23.027346
_cell_length_b 8.875206
_cell_length_c 11.476738
_cell_angle_alpha 90.000000
_cell_angle_beta 90.000000
_cell_angle_gamma 90.000000
_cell_volume 2345.528941
_symmetry_space_group_name_H-M "I 2 2 2"
_symmetry_group_IT_number 23
_symmetry_cell_setting 'orthorhombic'
loop_
_space_group_symop_operation_xyz
x,y,z
-x,-y,z
x,-y,-z
-x,y,-z
1/2+x,1/2+y,1/2+z
1/2-x,1/2-y,1/2+z
1/2+x,1/2-y,1/2-z
1/2-x,1/2+y,1/2-z
loop_
_atom_site_type_symbol
_atom_site_label
_atom_site_fract_x
_atom_site_fract_y
_atom_site_fract_z
Si Si1 0.430326 0.166352 0.480717
Si Si2 0.260109 0.008754 0.639079
Si Si3 0.647887 0.334924 0.942983
Si Si4 0.813166 0.280573 0.673326
Si Si5 0.573932 0.346530 0.293664
Si Si6 0.943970 0.802967 0.744259
O O1 0.500000 0.161815 0.500000
O O2 0.412973 0.289644 0.575710
O O3 0.417610 0.207581 0.348994
O O4 0.407261 0.000000 0.500000
O O5 0.202649 0.115832 0.635619
O O6 0.299804 0.081560 0.739717
O O7 0.277659 0.000000 0.500000
O O8 0.238657 0.842580 0.674916
O O9 0.591935 0.280559 0.872776
O O10 0.632770 0.500000 0.000000
O O11 0.671237 0.212550 0.035807
O O12 0.871302 0.203710 0.721179
O O13 0.513401 0.276483 0.245114
O O14 0.565083 0.524148 0.283461
#
# Coordination Sequence:
#
# PCOD9329676 Si02
#       6
#     8   8   8   8   8   8
#     4   9  19  35  53  81 127 168 200 247 296 360
#     4   9  20  41  62  83 123 162 205 260 306 367
#     4   9  18  38  60  87 123 155 194 257 308 374
#     4  10  20  40  61  89 123 154 209 250 312 374
#     4  10  19  33  59  95 120 158 206 258 302 377
#     4  10  18  35  61  89 125 160 203 251 322 365
#
# _framework density 20.464465000000001
#
# number of rings (size 3 to 8) (size 9 to 14) (size 15 to 20)
#    0.000    2.833    3.333    0.500    0.000    3.333 
#    9.000    3.333    0.000    0.000    0.000    4.667 
#    0.000    0.000    0.000    0.000    0.000    0.000 
#
# Total GULP energy -133652.385308 kJ/mol
# GULP energy per Si atom -5568.849388 kJ/mol
# Density = 2.041789 g / cm^3
# Si number density = 20.464465 Si / 1000 Ang^3
#
#
#
# Elastic Constant Matrix: (Units=GPa)
#
#
# Indices 1 2 3 4 5 6 
#
# 1 51.8770 24.2078 42.1981 0.0000 0.0000 0.0000
# 2 24.2078 31.6610 35.2921 0.0000 0.0000 0.0000
# 3 42.1981 35.2921 101.0251 0.0000 0.0000 0.0000
# 4 0.0000 0.0000 0.0000 26.3722 0.0000 0.0000
# 5 0.0000 0.0000 0.0000 0.0000 48.7181 0.0000
# 6 0.0000 0.0000 0.0000 0.0000 0.0000 5.3267
#
#
#
# Elastic Compliance Matrix: (Units=1/GPa)
#
#
# Indices 1 2 3 4 5 6 
#
# 1 0.033766 -0.016534 -0.008328 0.000000 0.000000 0.000000
# 2 -0.016534 0.059824 -0.013993 0.000000 0.000000 0.000000
# 3 -0.008328 -0.013993 0.018265 0.000000 0.000000 0.000000
# 4 0.000000 0.000000 0.000000 0.037919 0.000000 0.000000
# 5 0.000000 0.000000 0.000000 0.000000 0.020526 0.000000
# 6 0.000000 0.000000 0.000000 0.000000 0.000000 0.187734
#
#
# Mechanical properties :
#
#
# Convention : Reuss Voigt Hill
#
# Bulk Modulus (GPa) = 29.28623 43.10657 36.19640
# Shear Modulus (GPa) = 11.18254 21.60773 16.39513
#
# Velocity S-wave (km/s) = 2.34013 3.25293 2.83353
# Velocity P-wave (km/s) = 4.65226 5.93453 5.33208
#
# Compressibility (1/GPa) = 0.03414573
#
# Stress axis : x y z
#
# Youngs Moduli (GPa) = 29.61547 16.71568 54.74865
#
# Poissons Ratio (x) = 0.27638 0.45595
# Poissons Ratio (y) = 0.48967 0.76608
# Poissons Ratio (z) = 0.24664 0.23390
#
# Static dielectric constant tensor:
#      x y z
#    x 1.756140 0.000000 0.000000 
#    y 0.000000 1.710150 0.000000 
#    z 0.000000 0.000000 1.787620 
# 
# From -- ./inp_files/18281.got.cif
#   From: 2010.05.17/outbox.cif.g08.bks.cpg/sg23_10_cif.got.tgz:18281.got - 2010.06.04 12:02:01.
