data_PCOD9329519
_publ_section_title
;
Structure prediction by ZEFSAII (Michael W. Deem and Ramdas Pophale) SiO2 
 PCOD9329519
Probable space group: I 2 2 2
;
_chemical_formula_sum "Si O2"
_cell_formula_units_Z 64
_cell_length_a 17.071660
_cell_length_b 30.987685
_cell_length_c 5.611448
_cell_angle_alpha 90.000000
_cell_angle_beta 90.000000
_cell_angle_gamma 90.000000
_cell_volume 2968.518967
_symmetry_space_group_name_H-M "I 2 2 2"
_symmetry_group_IT_number 23
_symmetry_cell_setting 'orthorhombic'
loop_
_space_group_symop_operation_xyz
x,y,z
-x,-y,z
x,-y,-z
-x,y,-z
1/2+x,1/2+y,1/2+z
1/2-x,1/2-y,1/2+z
1/2+x,1/2-y,1/2-z
1/2-x,1/2+y,1/2-z
loop_
_atom_site_type_symbol
_atom_site_label
_atom_site_fract_x
_atom_site_fract_y
_atom_site_fract_z
Si Si1 0.914382 0.180758 0.411465
Si Si2 0.194712 0.521099 0.746843
Si Si3 0.158765 0.732517 0.520185
Si Si4 0.593548 0.807555 0.482851
Si Si5 0.698004 0.676963 0.458293
Si Si6 0.875575 0.012378 0.754711
Si Si7 0.337229 0.606705 0.156214
Si Si8 0.693764 0.114455 0.367206
O O1 0.855762 0.216490 0.519805
O O2 0.889318 0.185636 0.137581
O O3 0.895737 0.131350 0.478144
O O4 0.000000 0.192099 0.500000
O O5 0.166219 0.500000 0.500000
O O6 0.289808 0.511996 0.744522
O O7 0.170183 0.571635 0.726538
O O8 0.167763 0.500000 0.000000
O O9 0.123768 0.715136 0.770800
O O10 0.249650 0.719020 0.504289
O O11 0.120336 0.712461 0.275070
O O12 0.500000 0.807130 0.500000
O O13 0.628966 0.856062 0.507264
O O14 0.686832 0.645044 0.672453
O O15 0.751298 0.648278 0.276840
O O16 0.870357 0.063934 0.766299
O O17 0.910423 0.000000 0.500000
O O18 0.914931 0.000000 0.000000
O O19 0.254896 0.592877 0.047136
#
# Coordination Sequence:
#
# PCOD9329519 Si02
#       8
#     8   8   8   8   8   8   8   8
#     4  11  27  43  63  96 138 181 219 274 351 411
#     4  10  18  29  53  86 123 156 207 265 324 374
#     4  11  25  44  68  96 130 176 236 278 329 397
#     4  11  23  41  66  94 134 178 227 282 340 401
#     4  10  23  38  67  91 128 167 222 277 324 386
#     4  10  19  32  59  91 119 155 208 269 325 380
#     4  11  21  39  62  94 127 166 217 274 335 396
#     4  10  20  36  57  96 126 165 218 278 329 395
#
# _framework density 21.559570999999998
#
# number of rings (size 3 to 8) (size 9 to 14) (size 15 to 20)
#    0.000    1.500    3.750    2.625    5.250    0.500 
#    0.000    0.000    0.000    0.750    0.000    1.750 
#    0.000    0.000    0.000    0.000    0.000    0.000 
#
# Total GULP energy -178322.685014 kJ/mol
# GULP energy per Si atom -5572.583907 kJ/mol
# Density = 2.151050 g / cm^3
# Si number density = 21.559571 Si / 1000 Ang^3
#
#
#
# Elastic Constant Matrix: (Units=GPa)
#
#
# Indices 1 2 3 4 5 6 
#
# 1 55.5720 24.2394 32.3502 -0.1359 0.4133 -0.0693
# 2 24.2394 142.2024 34.0257 0.2186 0.2294 -0.0150
# 3 32.3502 34.0257 130.8207 0.7881 0.3990 0.1270
# 4 -0.1359 0.2186 0.7881 233.0191 1.2193 -0.7621
# 5 0.4133 0.2294 0.3990 1.2193 93.6959 -0.4426
# 6 -0.0693 -0.0150 0.1270 -0.7621 -0.4426 3.9231
#
#
#
# Elastic Compliance Matrix: (Units=1/GPa)
#
#
# Indices 1 2 3 4 5 6 
#
# 1 0.021886 -0.002597 -0.004737 0.000033 -0.000068 0.000529
# 2 -0.002597 0.007807 -0.001388 -0.000004 -0.000002 0.000028
# 3 -0.004737 -0.001388 0.009177 -0.000034 -0.000016 -0.000394
# 4 0.000033 -0.000004 -0.000034 0.004295 -0.000052 0.000830
# 5 -0.000068 -0.000002 -0.000016 -0.000052 0.010680 0.001194
# 6 0.000529 0.000028 -0.000394 0.000830 0.001194 0.255218
#
#
# Mechanical properties :
#
#
# Convention : Reuss Voigt Hill
#
# Bulk Modulus (GPa) = 46.67352 56.64733 51.66043
# Shear Modulus (GPa) = 14.98577 81.99294 48.48935
#
# Velocity S-wave (km/s) = 2.63931 6.17361 4.74760
# Velocity P-wave (km/s) = 5.56629 8.78349 7.35300
#
# Compressibility (1/GPa) = 0.02142542
#
# Stress axis : x y z
#
# Youngs Moduli (GPa) = 45.69048 128.08789 108.96514
#
# Poissons Ratio (x) = 0.33265 0.51619
# Poissons Ratio (y) = 0.11866 0.15128
# Poissons Ratio (z) = 0.21645 0.17783
#
# Static dielectric constant tensor:
#      x y z
#    x 1.753730 -0.002090 0.000170 
#    y -0.002090 0.904510 0.001300 
#    z 0.000170 0.001300 1.932530 
# 
# From -- ./inp_files/3564.got.cif
#   From: 2010.05.17/outbox.cif.g08.bks.cpg/sg23_2_cif.got.tgz:3564.got - 2010.06.04 12:02:01.
