data_PCOD9329358
_publ_section_title
;
Structure prediction by ZEFSAII (Michael W. Deem and Ramdas Pophale) SiO2 
 PCOD9329358
Probable space group: I 2 2 2
;
_chemical_formula_sum "Si O2"
_cell_formula_units_Z 42
_cell_length_a 5.018253
_cell_length_b 13.240210
_cell_length_c 25.083854
_cell_angle_alpha 90.000000
_cell_angle_beta 90.000000
_cell_angle_gamma 90.000000
_cell_volume 1666.639577
_symmetry_space_group_name_H-M "I 2 2 2"
_symmetry_group_IT_number 23
_symmetry_cell_setting 'orthorhombic'
loop_
_space_group_symop_operation_xyz
x,y,z
-x,-y,z
x,-y,-z
-x,y,-z
1/2+x,1/2+y,1/2+z
1/2-x,1/2-y,1/2+z
1/2+x,1/2-y,1/2-z
1/2-x,1/2+y,1/2-z
loop_
_atom_site_type_symbol
_atom_site_label
_atom_site_fract_x
_atom_site_fract_y
_atom_site_fract_z
Si Si1 0.003540 0.635811 0.704840
Si Si2 0.000000 0.500000 0.000000
Si Si3 0.739360 0.161670 0.312655
Si Si4 0.347828 0.399150 0.075749
Si Si5 0.989309 0.857803 0.144630
Si Si6 0.734474 0.817708 0.035176
O O1 0.117131 0.607603 0.761971
O O2 0.210681 0.614518 0.657520
O O3 0.959637 0.757989 0.707644
O O4 0.713925 0.597076 0.688487
O O5 0.073860 0.416715 0.045415
O O6 0.842063 0.095884 0.361015
O O7 0.532132 0.237414 0.342416
O O8 0.500000 0.500000 0.055399
O O9 0.413296 0.285028 0.057733
O O10 0.855580 0.872963 0.087410
O O11 0.500000 0.867682 0.000000
O O12 0.000000 0.800125 0.000000
#
# Coordination Sequence:
#
# PCOD9329358 Si02
#       6
#     8   2   8   8   8   8
#     4  10  16  32  49  73  88 111 156 225 273 315
#     4  12  22  40  48  66 104 148 202 220 258 280
#     4   9  19  31  51  69  93 117 167 226 279 310
#     4  11  24  36  48  68  98 145 184 231 252 295
#     4   9  18  28  48  69  91 114 153 208 263 310
#     4  11  21  34  50  67  95 134 176 214 249 295
#
# _framework density 25.200410000000002
#
# number of rings (size 3 to 8) (size 9 to 14) (size 15 to 20)
#    1.143    0.762    2.857    2.571    0.000    1.524 
#    0.000    0.000    0.000    0.000    0.000    0.000 
#    0.000    0.000    0.000    0.000    0.000   14.286 
#
# Total GULP energy -116911.640421 kJ/mol
# GULP energy per Si atom -5567.220972 kJ/mol
# Density = 2.514305 g / cm^3
# Si number density = 25.200410 Si / 1000 Ang^3
#
#
#
# Elastic Constant Matrix: (Units=GPa)
#
#
# Indices 1 2 3 4 5 6 
#
# 1 88.8710 -4.7105 17.5761 0.0000 0.0000 0.0000
# 2 -4.7105 70.0664 11.1889 0.0000 0.0000 0.0000
# 3 17.5761 11.1889 172.8404 0.0000 0.0000 0.0000
# 4 0.0000 0.0000 0.0000 8.5333 0.0000 0.0000
# 5 0.0000 0.0000 0.0000 0.0000 35.3859 0.0000
# 6 0.0000 0.0000 0.0000 0.0000 0.0000 -368.8320
#
#
#
# Elastic Compliance Matrix: (Units=1/GPa)
#
#
# Indices 1 2 3 4 5 6 
#
# 1 0.011549 0.000974 -0.001237 0.000000 0.000000 0.000000
# 2 0.000974 0.014503 -0.001038 0.000000 0.000000 0.000000
# 3 -0.001237 -0.001038 0.005979 0.000000 0.000000 0.000000
# 4 0.000000 0.000000 0.000000 0.117187 0.000000 0.000000
# 5 0.000000 0.000000 0.000000 0.000000 0.028260 0.000000
# 6 0.000000 0.000000 0.000000 0.000000 0.000000 -0.002711
#
#
# Mechanical properties :
#
#
# Convention : Reuss Voigt Hill
#
# Bulk Modulus (GPa) = 33.98119 42.20964 38.09541
# Shear Modulus (GPa) = 26.71242 -44.46766 -8.87762
#
# Velocity S-wave (km/s) = 3.25930 -4.20523 -1.87895
# Velocity P-wave (km/s) = 5.26096 2.60626 3.23149
#
# Compressibility (1/GPa) = 0.02942804
#
# Stress axis : x y z
#
# Youngs Moduli (GPa) = 86.59044 68.94930 167.26023
#
# Poissons Ratio (x) = -0.06716 0.20697
# Poissons Ratio (y) = -0.08434 0.17360
# Poissons Ratio (z) = 0.10715 0.07156
#
# Static dielectric constant tensor:
#      x y z
#    x 2.379310 0.000000 0.000000 
#    y 0.000000 2.084320 0.000000 
#    z 0.000000 0.000000 1.952640 
# 
# From -- ./inp_files/27640.got.cif
#   From: 2010.05.17/outbox.cif.g08.bks.cpg/sg23_14_cif.got.tgz:27640.got - 2010.06.04 12:02:01.
