data_PCOD9329564
_publ_section_title
;
Structure prediction by ZEFSAII (Michael W. Deem and Ramdas Pophale) SiO2 
 PCOD9329564
Probable space group: I 2 2 2
;
_chemical_formula_sum "Si O2"
_cell_formula_units_Z 26
_cell_length_a 20.137573
_cell_length_b 7.205357
_cell_length_c 7.507808
_cell_angle_alpha 90.000000
_cell_angle_beta 90.000000
_cell_angle_gamma 90.000000
_cell_volume 1089.370948
_symmetry_space_group_name_H-M "I 2 2 2"
_symmetry_group_IT_number 23
_symmetry_cell_setting 'orthorhombic'
loop_
_space_group_symop_operation_xyz
x,y,z
-x,-y,z
x,-y,-z
-x,y,-z
1/2+x,1/2+y,1/2+z
1/2-x,1/2-y,1/2+z
1/2+x,1/2-y,1/2-z
1/2-x,1/2+y,1/2-z
loop_
_atom_site_type_symbol
_atom_site_label
_atom_site_fract_x
_atom_site_fract_y
_atom_site_fract_z
Si Si1 0.099498 0.689531 0.233213
Si Si2 0.000000 0.500000 0.500000
Si Si3 0.849385 0.714097 0.112700
Si Si4 0.296360 0.773170 0.013337
O O1 0.040061 0.638388 0.367572
O O2 0.123076 0.483016 0.177952
O O3 0.155868 0.782990 0.352819
O O4 0.098745 0.784713 0.037890
O O5 0.778513 0.708027 0.012693
O O6 0.828246 0.798201 0.302851
O O7 0.294339 0.000000 0.000000
#
# Coordination Sequence:
#
# PCOD9329564 Si02
#       4
#     8   2   8   8
#     4  10  21  32  50  79 106 143 171 217 268 316
#     4  12  20  38  48  76 120 136 188 208 256 338
#     4  10  18  32  51  73 109 135 174 220 272 311
#     4  10  18  32  50  79 108 132 174 223 270 322
#
# _framework density 23.866983000000001
#
# number of rings (size 3 to 8) (size 9 to 14) (size 15 to 20)
#    0.000    1.846    7.692    0.000    0.000    2.462 
#    0.000    0.000    0.000    0.000    0.000    6.462 
#    0.000    0.000    0.000    0.000    0.000    0.000 
#
# Total GULP energy -72368.373914 kJ/mol
# GULP energy per Si atom -5566.797993 kJ/mol
# Density = 2.381266 g / cm^3
# Si number density = 23.866983 Si / 1000 Ang^3
#
#
#
# Elastic Constant Matrix: (Units=GPa)
#
#
# Indices 1 2 3 4 5 6 
#
# 1 73.1978 18.4151 62.9422 0.0000 0.0000 0.0000
# 2 18.4151 93.5756 17.7400 0.0000 0.0000 0.0000
# 3 62.9422 17.7400 244.5829 0.0000 0.0000 0.0000
# 4 0.0000 0.0000 0.0000 2.6556 0.0000 0.0000
# 5 0.0000 0.0000 0.0000 0.0000 60.9123 0.0000
# 6 0.0000 0.0000 0.0000 0.0000 0.0000 19.4519
#
#
#
# Elastic Compliance Matrix: (Units=1/GPa)
#
#
# Indices 1 2 3 4 5 6 
#
# 1 0.018208 -0.002732 -0.004487 0.000000 0.000000 0.000000
# 2 -0.002732 0.011246 -0.000112 0.000000 0.000000 0.000000
# 3 -0.004487 -0.000112 0.005252 0.000000 0.000000 0.000000
# 4 0.000000 0.000000 0.000000 0.376557 0.000000 0.000000
# 5 0.000000 0.000000 0.000000 0.000000 0.016417 0.000000
# 6 0.000000 0.000000 0.000000 0.000000 0.000000 0.051409
#
#
# Mechanical properties :
#
#
# Convention : Reuss Voigt Hill
#
# Bulk Modulus (GPa) = 49.89983 67.72785 58.81384
# Shear Modulus (GPa) = 9.99136 37.42125 23.70630
#
# Velocity S-wave (km/s) = 2.04826 3.96398 3.15503
# Velocity P-wave (km/s) = 5.15235 7.02778 6.16183
#
# Compressibility (1/GPa) = 0.02004015
#
# Stress axis : x y z
#
# Youngs Moduli (GPa) = 54.92153 88.92366 190.41863
#
# Poissons Ratio (x) = 0.24298 0.85450
# Poissons Ratio (y) = 0.15007 0.02142
# Poissons Ratio (z) = 0.24646 0.01000
#
# Static dielectric constant tensor:
#      x y z
#    x 1.916000 0.000000 0.000000 
#    y 0.000000 1.955950 0.000000 
#    z 0.000000 0.000000 2.063510 
# 
# From -- ./inp_files/6406.got.cif
#   From: 2010.05.17/outbox.cif.g08.bks.cpg/sg23_4_cif.got.tgz:6406.got - 2010.06.04 12:02:01.
