data_PCOD9329047
_publ_section_title
;
Structure prediction by ZEFSAII (Michael W. Deem and Ramdas Pophale) SiO2 
 PCOD9329047
Probable space group: F 2 2 2
;
_chemical_formula_sum "Si O2"
_cell_formula_units_Z 44
_cell_length_a 5.084382
_cell_length_b 25.493198
_cell_length_c 14.582103
_cell_angle_alpha 90.000000
_cell_angle_beta 90.000000
_cell_angle_gamma 90.000000
_cell_volume 1890.090734
_symmetry_space_group_name_H-M "F 2 2 2"
_symmetry_group_IT_number 22
_symmetry_cell_setting 'orthorhombic'
loop_
_space_group_symop_operation_xyz
x,y,z
-x,-y,z
x,-y,-z
-x,y,-z
x,1/2+y,1/2+z
-x,1/2-y,1/2+z
x,1/2-y,1/2-z
-x,1/2+y,1/2-z
1/2+x,y,1/2+z
1/2-x,-y,1/2+z
1/2+x,-y,1/2-z
1/2-x,y,1/2-z
1/2+x,1/2+y,z
1/2-x,1/2-y,z
1/2+x,1/2-y,-z
1/2-x,1/2+y,-z
loop_
_atom_site_type_symbol
_atom_site_label
_atom_site_fract_x
_atom_site_fract_y
_atom_site_fract_z
Si Si1 0.000000 0.500000 0.198269
Si Si2 0.748905 0.585027 0.933914
Si Si3 0.250000 0.750000 0.750000
Si Si4 0.398067 0.195537 0.896270
O O1 0.250000 0.472601 0.250000
O O2 0.170544 0.541095 0.138904
O O3 0.732822 0.642081 0.885305
O O4 0.500000 0.574977 0.000000
O O5 0.000000 0.585724 0.000000
O O6 0.394798 0.791423 0.817375
O O7 0.250000 0.250000 0.894207
O O8 0.500000 0.192017 0.000000
#
# Coordination Sequence:
#
# PCOD9329047 Si02
#       4
#     8  16   4  16
#     4  12  27  46  75 116 158 192 260 334 389 468
#     4  11  26  48  80 107 150 210 257 315 391 473
#     4  12  26  40  76 112 156 212 254 328 400 466
#     4  11  24  45  74 109 158 203 263 321 391 481
#
# _framework density 23.279304
#
# number of rings (size 3 to 8) (size 9 to 14) (size 15 to 20)
#    0.000    0.727    1.818    4.364    7.636    4.364 
#    0.000    0.000    0.000    0.000    0.000    0.000 
#    0.000    0.000    0.000    0.000    0.000    0.000 
#
# Total GULP energy -61344.987526 kJ/mol
# GULP energy per Si atom -5576.817048 kJ/mol
# Density = 2.322632 g / cm^3
# Si number density = 23.279304 Si / 1000 Ang^3
#
#
#
# Elastic Constant Matrix: (Units=GPa)
#
#
# Indices 1 2 3 4 5 6 
#
# 1 155.3757 47.1506 60.6343 0.0000 0.0000 0.0000
# 2 47.1506 154.3120 50.5442 0.0000 0.0000 0.0000
# 3 60.6343 50.5442 125.1189 0.0000 0.0000 0.0000
# 4 0.0000 0.0000 0.0000 9.4775 0.0000 0.0000
# 5 0.0000 0.0000 0.0000 0.0000 10.1833 0.0000
# 6 0.0000 0.0000 0.0000 0.0000 0.0000 33.5087
#
#
#
# Elastic Compliance Matrix: (Units=1/GPa)
#
#
# Indices 1 2 3 4 5 6 
#
# 1 0.008186 -0.001385 -0.003408 0.000000 0.000000 0.000000
# 2 -0.001385 0.007703 -0.002440 0.000000 0.000000 0.000000
# 3 -0.003408 -0.002440 0.010630 0.000000 0.000000 0.000000
# 4 0.000000 0.000000 0.000000 0.105514 0.000000 0.000000
# 5 0.000000 0.000000 0.000000 0.000000 0.098200 0.000000
# 6 0.000000 0.000000 0.000000 0.000000 0.000000 0.029843
#
#
# Mechanical properties :
#
#
# Convention : Reuss Voigt Hill
#
# Bulk Modulus (GPa) = 82.97158 83.49609 83.23384
# Shear Modulus (GPa) = 17.94951 29.06572 23.50762
#
# Velocity S-wave (km/s) = 2.77979 3.53734 3.18119
# Velocity P-wave (km/s) = 6.78396 7.25456 7.02320
#
# Compressibility (1/GPa) = 0.01205232
#
# Stress axis : x y z
#
# Youngs Moduli (GPa) = 122.15784 129.81957 94.07669
#
# Poissons Ratio (x) = 0.17982 0.32057
# Poissons Ratio (y) = 0.16921 0.22959
# Poissons Ratio (z) = 0.41626 0.31682
#
# Static dielectric constant tensor:
#      x y z
#    x 1.920120 0.000000 0.000000 
#    y 0.000000 2.000960 0.000000 
#    z 0.000000 0.000000 1.803630 
# 
# From -- ./inp_files/25923.got.cif
#   From: 2010.05.17/outbox.cif.g08.bks.cpg/sg22_13_cif.got.tgz:25923.got - 2010.06.03 23:40:54.
