data_PCOD9329750
_publ_section_title
;
Structure prediction by ZEFSAII (Michael W. Deem and Ramdas Pophale) SiO2 
 PCOD9329750
Probable space group: I 2 2 2
;
_chemical_formula_sum "Si O2"
_cell_formula_units_Z 64
_cell_length_a 15.336009
_cell_length_b 24.584557
_cell_length_c 7.900912
_cell_angle_alpha 90.000000
_cell_angle_beta 90.000000
_cell_angle_gamma 90.000000
_cell_volume 2978.872851
_symmetry_space_group_name_H-M "I 2 2 2"
_symmetry_group_IT_number 23
_symmetry_cell_setting 'orthorhombic'
loop_
_space_group_symop_operation_xyz
x,y,z
-x,-y,z
x,-y,-z
-x,y,-z
1/2+x,1/2+y,1/2+z
1/2-x,1/2-y,1/2+z
1/2+x,1/2-y,1/2-z
1/2-x,1/2+y,1/2-z
loop_
_atom_site_type_symbol
_atom_site_label
_atom_site_fract_x
_atom_site_fract_y
_atom_site_fract_z
Si Si1 0.007146 0.326056 0.791879
Si Si2 0.959018 0.445858 0.814014
Si Si3 0.190949 0.048204 0.904895
Si Si4 0.631592 0.263133 0.296427
Si Si5 0.075672 0.880430 0.872264
Si Si6 0.727784 0.080119 0.437868
Si Si7 0.193178 0.303856 0.886504
Si Si8 0.880454 0.966805 0.345425
O O1 0.109073 0.311573 0.763074
O O2 0.981971 0.387157 0.733997
O O3 0.935696 0.282560 0.726761
O O4 0.000000 0.324656 0.000000
O O5 0.857861 0.449287 0.864158
O O6 0.000000 0.500000 0.731506
O O7 0.000000 0.442683 0.000000
O O8 0.218870 0.081319 0.737636
O O9 0.121978 0.006506 0.816623
O O10 0.161532 0.093378 0.039743
O O11 0.247433 0.000000 0.000000
O O12 0.578648 0.317380 0.337545
O O13 0.716354 0.283142 0.192969
O O14 0.666711 0.239332 0.471988
O O15 0.067892 0.913144 0.699416
O O16 0.000000 0.894319 0.000000
O O17 0.704957 0.138633 0.515759
O O18 0.783888 0.051018 0.585740
O O19 0.914679 0.000000 0.500000
#
# Coordination Sequence:
#
# PCOD9329750 Si02
#       8
#     8   8   8   8   8   8   8   8
#     4   9  18  38  57  91 128 160 222 271 331 412
#     4  10  19  29  57 100 121 163 204 275 330 395
#     4   9  22  37  57  91 124 168 205 266 338 398
#     4  11  23  40  65  91 126 170 225 281 336 402
#     4  11  22  40  63  91 123 172 220 269 342 409
#     4  11  19  38  63  93 131 162 229 269 325 416
#     4  11  22  39  65  92 125 176 220 282 337 398
#     4   9  20  37  61  90 122 164 216 276 324 399
#
# _framework density 21.484635999999998
#
# number of rings (size 3 to 8) (size 9 to 14) (size 15 to 20)
#    0.000    1.875    5.000    1.125    7.000    2.250 
#    0.000    5.000    0.000    0.375    0.000    0.000 
#    0.000    0.000    0.000    0.000    0.000    0.000 
#
# Total GULP energy -178152.320453 kJ/mol
# GULP energy per Si atom -5567.260014 kJ/mol
# Density = 2.143574 g / cm^3
# Si number density = 21.484636 Si / 1000 Ang^3
#
#
#
# Elastic Constant Matrix: (Units=GPa)
#
#
# Indices 1 2 3 4 5 6 
#
# 1 96.9975 56.5064 12.7919 0.0000 0.0001 -0.0001
# 2 56.5064 159.5011 33.2448 -0.0001 0.0000 0.0000
# 3 12.7919 33.2448 56.1550 0.0001 0.0002 0.0001
# 4 0.0000 -0.0001 0.0001 18.1899 0.0000 0.0000
# 5 0.0001 0.0000 0.0002 0.0000 2.4379 -0.0001
# 6 -0.0001 0.0000 0.0001 0.0000 -0.0001 19.3504
#
#
#
# Elastic Compliance Matrix: (Units=1/GPa)
#
#
# Indices 1 2 3 4 5 6 
#
# 1 0.012994 -0.004548 -0.000268 0.000000 -0.000001 0.000000
# 2 -0.004548 0.008744 -0.004140 0.000000 0.000001 0.000000
# 3 -0.000268 -0.004140 0.020320 0.000000 -0.000002 0.000000
# 4 0.000000 0.000000 0.000000 0.054975 0.000001 0.000000
# 5 -0.000001 0.000001 -0.000002 0.000001 0.410189 0.000003
# 6 0.000000 0.000000 0.000000 0.000000 0.000003 0.051679
#
#
# Mechanical properties :
#
#
# Convention : Reuss Voigt Hill
#
# Bulk Modulus (GPa) = 41.41446 57.52667 49.47056
# Shear Modulus (GPa) = 8.54904 22.00301 15.27602
#
# Velocity S-wave (km/s) = 1.99694 3.20367 2.66939
# Velocity P-wave (km/s) = 4.96339 6.36542 5.70761
#
# Compressibility (1/GPa) = 0.02414615
#
# Stress axis : x y z
#
# Youngs Moduli (GPa) = 76.95809 114.36906 49.21245
#
# Poissons Ratio (x) = 0.52011 0.01318
# Poissons Ratio (y) = 0.34997 0.20376
# Poissons Ratio (z) = 0.02061 0.47354
#
# Static dielectric constant tensor:
#      x y z
#    x 2.110420 0.000000 0.000000 
#    y 0.000000 1.856720 0.000000 
#    z 0.000000 0.000000 1.815570 
# 
# From -- ./inp_files/10337.got.cif
#   From: 2010.05.17/outbox.cif.g08.bks.cpg/sg23_6_cif.got.tgz:10337.got - 2010.06.04 12:02:01.
