data_PCOD9329586
_publ_section_title
;
Structure prediction by ZEFSAII (Michael W. Deem and Ramdas Pophale) SiO2 
 PCOD9329586
Probable space group: I 2 2 2
;
_chemical_formula_sum "Si O2"
_cell_formula_units_Z 64
_cell_length_a 7.554342
_cell_length_b 15.861568
_cell_length_c 22.087954
_cell_angle_alpha 90.000000
_cell_angle_beta 90.000000
_cell_angle_gamma 90.000000
_cell_volume 2646.660580
_symmetry_space_group_name_H-M "I 2 2 2"
_symmetry_group_IT_number 23
_symmetry_cell_setting 'orthorhombic'
loop_
_space_group_symop_operation_xyz
x,y,z
-x,-y,z
x,-y,-z
-x,y,-z
1/2+x,1/2+y,1/2+z
1/2-x,1/2-y,1/2+z
1/2+x,1/2-y,1/2-z
1/2-x,1/2+y,1/2-z
loop_
_atom_site_type_symbol
_atom_site_label
_atom_site_fract_x
_atom_site_fract_y
_atom_site_fract_z
Si Si1 0.742599 0.856091 0.236856
Si Si2 0.139513 0.320791 0.253580
Si Si3 0.798952 0.538408 0.939116
Si Si4 0.785488 0.515394 0.194163
Si Si5 0.205461 0.271942 0.987118
Si Si6 0.302017 0.012692 0.070454
Si Si7 0.295774 0.305027 0.605153
Si Si8 0.693673 0.343796 0.616916
O O1 0.864945 0.780311 0.256470
O O2 0.556363 0.841535 0.268219
O O3 0.792799 0.950893 0.254866
O O4 0.702254 0.826558 0.168245
O O5 0.248890 0.386316 0.210493
O O6 0.201888 0.343716 0.320728
O O7 0.725920 0.513092 0.873105
O O8 0.796757 0.637866 0.954209
O O9 0.000000 0.500000 0.937692
O O10 0.714032 0.500000 0.000000
O O11 0.000000 0.500000 0.196269
O O12 0.284114 0.204857 0.939701
O O13 0.273499 0.264042 0.056815
O O14 0.000000 0.247994 0.000000
O O15 0.179233 0.941108 0.098686
O O16 0.500000 0.000000 0.098030
O O17 0.226668 0.105515 0.073849
O O18 0.318276 0.000000 0.000000
O O19 0.503245 0.298113 0.622918
#
# Coordination Sequence:
#
# PCOD9329586 Si02
#       8
#     8   8   8   8   8   8   8   8
#     4  11  23  41  62  91 131 167 220 268 321 390
#     4  11  23  41  64  92 127 173 214 268 327 391
#     4  10  18  32  59  88 118 150 199 255 326 375
#     4   9  21  38  61  89 123 164 208 264 320 384
#     4  10  20  34  55  93 124 159 201 266 321 385
#     4  11  22  38  58  87 128 170 209 250 313 387
#     4  11  23  37  62  92 129 166 217 265 319 385
#     4  11  22  38  62  88 131 165 213 263 321 378
#
# _framework density 24.181415000000001
#
# number of rings (size 3 to 8) (size 9 to 14) (size 15 to 20)
#    0.000    1.500    2.500    3.375    1.750    3.500 
#    0.000    1.875    0.000    0.000    0.000    0.000 
#    0.000    0.000    0.000    0.000    0.000    0.000 
#
# Total GULP energy -178246.721653 kJ/mol
# GULP energy per Si atom -5570.210052 kJ/mol
# Density = 2.412638 g / cm^3
# Si number density = 24.181415 Si / 1000 Ang^3
#
#
#
# Elastic Constant Matrix: (Units=GPa)
#
#
# Indices 1 2 3 4 5 6 
#
# 1 39.1793 3.3682 -10.3870 0.0000 0.0000 0.0000
# 2 3.3682 76.3514 23.9854 0.0000 0.0000 0.0000
# 3 -10.3870 23.9854 88.8297 0.0000 0.0000 0.0000
# 4 0.0000 0.0000 0.0000 66.1129 0.0000 0.0000
# 5 0.0000 0.0000 0.0000 0.0000 7.5079 0.0000
# 6 0.0000 0.0000 0.0000 0.0000 0.0000 16.2383
#
#
#
# Elastic Compliance Matrix: (Units=1/GPa)
#
#
# Indices 1 2 3 4 5 6 
#
# 1 0.026724 -0.002361 0.003762 0.000000 0.000000 0.000000
# 2 -0.002361 0.014520 -0.004197 0.000000 0.000000 0.000000
# 3 0.003762 -0.004197 0.012831 0.000000 0.000000 0.000000
# 4 0.000000 0.000000 0.000000 0.015126 0.000000 0.000000
# 5 0.000000 0.000000 0.000000 0.000000 0.133193 0.000000
# 6 0.000000 0.000000 0.000000 0.000000 0.000000 0.061583
#
#
# Mechanical properties :
#
#
# Convention : Reuss Voigt Hill
#
# Bulk Modulus (GPa) = 20.62526 26.47707 23.55116
# Shear Modulus (GPa) = 17.49917 30.46472 23.98195
#
# Velocity S-wave (km/s) = 2.69302 3.55327 3.15262
# Velocity P-wave (km/s) = 4.26822 5.27328 4.79714
#
# Compressibility (1/GPa) = 0.04848425
#
# Stress axis : x y z
#
# Youngs Moduli (GPa) = 37.41941 68.87127 77.93872
#
# Poissons Ratio (x) = 0.16259 -0.29323
# Poissons Ratio (y) = 0.08834 0.32708
# Poissons Ratio (z) = -0.14078 0.28903
#
# Static dielectric constant tensor:
#      x y z
#    x 2.025260 0.000000 0.000000 
#    y 0.000000 1.825990 0.000000 
#    z 0.000000 0.000000 1.949630 
# 
# From -- ./inp_files/28107.got.cif
#   From: 2010.05.17/outbox.cif.g08.bks.cpg/sg23_15_cif.got.tgz:28107.got - 2010.06.04 12:02:01.
