data_PCOD9329282
_publ_section_title
;
Structure prediction by ZEFSAII (Michael W. Deem and Ramdas Pophale) SiO2 
 PCOD9329282
Probable space group: F 2 2 2
;
_chemical_formula_sum "Si O2"
_cell_formula_units_Z 80
_cell_length_a 16.670590
_cell_length_b 6.845678
_cell_length_c 26.871101
_cell_angle_alpha 90.000000
_cell_angle_beta 90.000000
_cell_angle_gamma 90.000000
_cell_volume 3066.570117
_symmetry_space_group_name_H-M "F 2 2 2"
_symmetry_group_IT_number 22
_symmetry_cell_setting 'orthorhombic'
loop_
_space_group_symop_operation_xyz
x,y,z
-x,-y,z
x,-y,-z
-x,y,-z
x,1/2+y,1/2+z
-x,1/2-y,1/2+z
x,1/2-y,1/2-z
-x,1/2+y,1/2-z
1/2+x,y,1/2+z
1/2-x,-y,1/2+z
1/2+x,-y,1/2-z
1/2-x,y,1/2-z
1/2+x,1/2+y,z
1/2-x,1/2-y,z
1/2+x,1/2-y,-z
1/2-x,1/2+y,-z
loop_
_atom_site_type_symbol
_atom_site_label
_atom_site_fract_x
_atom_site_fract_y
_atom_site_fract_z
Si Si1 0.153912 0.726093 0.989863
Si Si2 0.250000 0.750000 0.327498
Si Si3 0.877368 0.262898 0.401185
Si Si4 0.657747 0.800119 0.119563
Si Si5 0.620620 0.750000 0.750000
Si Si6 0.493160 0.233561 0.174053
O O1 0.250000 0.750000 0.990161
O O2 0.126139 0.819590 0.041449
O O3 0.132804 0.500000 0.000000
O O4 0.129746 0.781957 0.934219
O O5 0.189975 0.639137 0.365665
O O6 0.315534 0.653936 0.289110
O O7 0.964712 0.278293 0.378341
O O8 0.853802 0.033401 0.391256
O O9 0.750000 0.750000 0.128196
O O10 0.600388 0.736659 0.164735
O O11 0.554106 0.661963 0.787743
O O12 0.500000 0.000000 0.184790
#
# Coordination Sequence:
#
# PCOD9329282 Si02
#       6
#    16   8  16  16   8  16
#     4   9  16  27  47  76 101 131 164 199 243 300
#     4   9  16  30  52  74  86 116 168 205 242 282
#     4   9  16  29  52  73  94 126 165 201 239 295
#     4   9  18  31  46  71 104 130 155 197 248 298
#     4   9  18  32  49  68  92 120 159 212 244 279
#     4   9  18  33  49  69  98 127 164 210 246 288
#
# _framework density 26.087779000000001
#
# number of rings (size 3 to 8) (size 9 to 14) (size 15 to 20)
#    0.000    3.000    1.000    0.000    0.000    0.800 
#    3.600    4.500    0.000    0.000    0.000    1.400 
#    0.000    0.000    0.000    0.000    0.000    0.000 
#
# Total GULP energy -111345.526009 kJ/mol
# GULP energy per Si atom -5567.276300 kJ/mol
# Density = 2.602840 g / cm^3
# Si number density = 26.087779 Si / 1000 Ang^3
#
#
#
# Elastic Constant Matrix: (Units=GPa)
#
#
# Indices 1 2 3 4 5 6 
#
# 1 174.7337 16.0201 76.8012 0.0000 0.0000 0.0000
# 2 16.0201 116.8261 -6.8908 0.0000 0.0000 0.0000
# 3 76.8012 -6.8908 173.2419 0.0000 0.0000 0.0000
# 4 0.0000 0.0000 0.0000 6.1221 0.0000 0.0000
# 5 0.0000 0.0000 0.0000 0.0000 43.0284 0.0000
# 6 0.0000 0.0000 0.0000 0.0000 0.0000 25.4389
#
#
#
# Elastic Compliance Matrix: (Units=1/GPa)
#
#
# Indices 1 2 3 4 5 6 
#
# 1 0.007269 -0.001190 -0.003270 0.000000 0.000000 0.000000
# 2 -0.001190 0.008775 0.000876 0.000000 0.000000 0.000000
# 3 -0.003270 0.000876 0.007257 0.000000 0.000000 0.000000
# 4 0.000000 0.000000 0.000000 0.163344 0.000000 0.000000
# 5 0.000000 0.000000 0.000000 0.000000 0.023240 0.000000
# 6 0.000000 0.000000 0.000000 0.000000 0.000000 0.039310
#
#
# Mechanical properties :
#
#
# Convention : Reuss Voigt Hill
#
# Bulk Modulus (GPa) = 61.98004 70.74029 66.36016
# Shear Modulus (GPa) = 19.10299 40.17595 29.63947
#
# Velocity S-wave (km/s) = 2.70896 3.92858 3.37433
# Velocity P-wave (km/s) = 5.79607 6.91039 6.37761
#
# Compressibility (1/GPa) = 0.01613423
#
# Stress axis : x y z
#
# Youngs Moduli (GPa) = 137.56459 113.96574 137.80266
#
# Poissons Ratio (x) = 0.13558 0.45061
# Poissons Ratio (y) = 0.16366 -0.12077
# Poissons Ratio (z) = 0.44983 -0.09988
#
# Static dielectric constant tensor:
#      x y z
#    x 1.958510 0.000000 0.000000 
#    y 0.000000 2.895870 0.000000 
#    z 0.000000 0.000000 2.073710 
# 
# From -- ./inp_files/32299.got.cif
#   From: 2010.05.17/outbox.cif.g08.bks.cpg/sg22_17_cif.got.tgz:32299.got - 2010.06.03 23:40:54.
