data_PCOD9329236
_publ_section_title
;
Structure prediction by ZEFSAII (Michael W. Deem and Ramdas Pophale) SiO2 
 PCOD9329236
Probable space group: F 2 2 2
;
_chemical_formula_sum "Si O2"
_cell_formula_units_Z 64
_cell_length_a 21.510634
_cell_length_b 27.131382
_cell_length_c 4.880622
_cell_angle_alpha 90.000000
_cell_angle_beta 90.000000
_cell_angle_gamma 90.000000
_cell_volume 2848.395561
_symmetry_space_group_name_H-M "F 2 2 2"
_symmetry_group_IT_number 22
_symmetry_cell_setting 'orthorhombic'
loop_
_space_group_symop_operation_xyz
x,y,z
-x,-y,z
x,-y,-z
-x,y,-z
x,1/2+y,1/2+z
-x,1/2-y,1/2+z
x,1/2-y,1/2-z
-x,1/2+y,1/2-z
1/2+x,y,1/2+z
1/2-x,-y,1/2+z
1/2+x,-y,1/2-z
1/2-x,y,1/2-z
1/2+x,1/2+y,z
1/2-x,1/2-y,z
1/2+x,1/2-y,-z
1/2-x,1/2+y,-z
loop_
_atom_site_type_symbol
_atom_site_label
_atom_site_fract_x
_atom_site_fract_y
_atom_site_fract_z
Si Si1 0.380877 0.156989 0.880253
Si Si2 0.250000 0.950910 0.750000
Si Si3 0.140799 0.000000 0.000000
Si Si4 0.929470 0.399712 0.604057
Si Si5 0.042434 0.750000 0.250000
Si Si6 0.750000 0.376637 0.250000
O O1 0.393633 0.140484 0.571362
O O2 0.415308 0.208953 0.899037
O O3 0.306286 0.154864 0.880701
O O4 0.412906 0.116857 0.085212
O O5 0.310065 0.986136 0.738107
O O6 0.263945 0.914515 0.497404
O O7 0.096768 0.952531 0.989849
O O8 0.000000 0.397276 0.500000
O O9 0.000000 0.729368 0.500000
#
# Coordination Sequence:
#
# PCOD9329236 Si02
#       6
#    16   8   8  16   8   8
#     4  12  25  47  72 104 143 187 245 308 379 446
#     4  12  25  42  70  98 144 188 258 298 367 442
#     4  12  25  44  70 104 139 202 246 308 368 454
#     4  12  26  44  69 104 148 190 244 307 373 450
#     4  12  26  47  78 107 140 190 246 304 386 470
#     4  12  23  47  68 103 140 191 238 317 367 442
#
# _framework density 22.468788
#
# number of rings (size 3 to 8) (size 9 to 14) (size 15 to 20)
#    0.000    0.000    5.000    5.625    0.000    3.500 
#    0.000    2.500    0.000    6.000    0.000    0.000 
#    0.000    0.000    0.000    0.000    0.000    0.000 
#
# Total GULP energy -89197.034470 kJ/mol
# GULP energy per Si atom -5574.814654 kJ/mol
# Density = 2.241765 g / cm^3
# Si number density = 22.468788 Si / 1000 Ang^3
#
#
#
# Elastic Constant Matrix: (Units=GPa)
#
#
# Indices 1 2 3 4 5 6 
#
# 1 149.8544 51.7417 18.3585 0.1205 -0.1045 -0.1144
# 2 51.7417 117.7818 9.6206 0.0875 -0.0462 -0.0444
# 3 18.3585 9.6206 106.8818 0.1520 -0.1192 -0.0719
# 4 0.1205 0.0875 0.1520 23.1029 -0.0851 -0.0905
# 5 -0.1045 -0.0462 -0.1192 -0.0851 30.0599 0.0828
# 6 -0.1144 -0.0444 -0.0719 -0.0905 0.0828 40.6469
#
#
#
# Elastic Compliance Matrix: (Units=1/GPa)
#
#
# Indices 1 2 3 4 5 6 
#
# 1 0.007985 -0.003421 -0.001064 -0.000022 0.000018 0.000017
# 2 -0.003421 0.010019 -0.000314 -0.000018 0.000002 0.000001
# 3 -0.001064 -0.000314 0.009567 -0.000056 0.000034 0.000013
# 4 -0.000022 -0.000018 -0.000056 0.043286 0.000122 0.000096
# 5 0.000018 0.000002 0.000034 0.000122 0.033268 -0.000067
# 6 0.000017 0.000001 0.000013 0.000096 -0.000067 0.024603
#
#
# Mechanical properties :
#
#
# Convention : Reuss Voigt Hill
#
# Bulk Modulus (GPa) = 55.63720 59.32886 57.48303
# Shear Modulus (GPa) = 34.64651 38.41509 36.53080
#
# Velocity S-wave (km/s) = 3.93107 4.13935 4.03655
# Velocity P-wave (km/s) = 6.73945 7.02196 6.88215
#
# Compressibility (1/GPa) = 0.01797359
#
# Stress axis : x y z
#
# Youngs Moduli (GPa) = 125.24117 99.81337 104.52371
#
# Poissons Ratio (x) = 0.34144 0.11116
# Poissons Ratio (y) = 0.42842 0.03284
# Poissons Ratio (z) = 0.13319 0.03136
#
# Static dielectric constant tensor:
#      x y z
#    x 1.954190 0.000120 0.000100 
#    y 0.000120 1.875150 -0.000100 
#    z 0.000100 -0.000100 1.829500 
# 
# From -- ./inp_files/3730.got.cif
#   From: 2010.05.17/outbox.cif.g08.bks.cpg/sg22_2_cif.got.tgz:3730.got - 2010.06.03 23:40:54.
