data_PCOD9329925
_publ_section_title
;
Structure prediction by ZEFSAII (Michael W. Deem and Ramdas Pophale) SiO2 
 PCOD9329925
Probable space group: I 2 2 2
;
_chemical_formula_sum "Si O2"
_cell_formula_units_Z 56
_cell_length_a 13.549251
_cell_length_b 15.374382
_cell_length_c 12.136201
_cell_angle_alpha 90.000000
_cell_angle_beta 90.000000
_cell_angle_gamma 90.000000
_cell_volume 2528.108544
_symmetry_space_group_name_H-M "I 2 2 2"
_symmetry_group_IT_number 23
_symmetry_cell_setting 'orthorhombic'
loop_
_space_group_symop_operation_xyz
x,y,z
-x,-y,z
x,-y,-z
-x,y,-z
1/2+x,1/2+y,1/2+z
1/2-x,1/2-y,1/2+z
1/2+x,1/2-y,1/2-z
1/2-x,1/2+y,1/2-z
loop_
_atom_site_type_symbol
_atom_site_label
_atom_site_fract_x
_atom_site_fract_y
_atom_site_fract_z
Si Si1 0.542744 0.709212 0.723491
Si Si2 0.890641 0.516961 0.320248
Si Si3 0.410112 0.434723 0.170534
Si Si4 0.431504 0.876439 0.402340
Si Si5 0.779627 0.841638 0.494353
Si Si6 0.104392 0.317900 0.440192
Si Si7 0.282674 0.587410 0.254498
O O1 0.455106 0.644613 0.758633
O O2 0.519062 0.786705 0.640427
O O3 0.576558 0.760935 0.832504
O O4 0.636574 0.649676 0.688816
O O5 0.910149 0.558725 0.199131
O O6 0.849318 0.592277 0.398778
O O7 0.821938 0.432740 0.310363
O O8 0.000000 0.500000 0.363129
O O9 0.500000 0.500000 0.145473
O O10 0.359697 0.398871 0.060440
O O11 0.331564 0.492324 0.237262
O O12 0.500000 0.909834 0.500000
O O13 0.324543 0.853506 0.448668
O O14 0.819344 0.743609 0.502697
O O15 0.769799 0.874030 0.368638
O O16 0.000000 0.329793 0.500000
#
# Coordination Sequence:
#
# PCOD9329925 Si02
#       7
#     8   8   8   8   8   8   8
#     4   9  21  39  60  90 123 156 197 258 311 355
#     4  11  24  40  58  85 126 167 201 247 300 366
#     4  10  19  34  64  93 119 146 194 265 315 348
#     4  11  24  41  59  88 125 166 204 240 304 377
#     4  11  21  36  63  93 120 157 200 257 306 364
#     4  10  21  38  60  89 120 158 206 249 303 363
#     4  10  21  36  60  92 120 149 203 255 312 352
#
# _framework density 22.150948
#
# number of rings (size 3 to 8) (size 9 to 14) (size 15 to 20)
#    0.000    1.714    2.857    1.286    0.000    6.857 
#    2.571    0.000    0.000    9.000    0.000    0.000 
#    0.000    0.000    0.000    0.000    0.000    0.000 
#
# Total GULP energy -156577.048616 kJ/mol
# GULP energy per Si atom -5592.037451 kJ/mol
# Density = 2.210053 g / cm^3
# Si number density = 22.150948 Si / 1000 Ang^3
#
#
#
# Elastic Constant Matrix: (Units=GPa)
#
#
# Indices 1 2 3 4 5 6 
#
# 1 77.8727 17.5652 21.2883 0.0000 0.0000 0.0000
# 2 17.5652 88.7884 31.6461 0.0000 0.0000 0.0000
# 3 21.2883 31.6461 37.9731 0.0000 0.0000 0.0000
# 4 0.0000 0.0000 0.0000 6.9539 0.0000 0.0000
# 5 0.0000 0.0000 0.0000 0.0000 15.9862 0.0000
# 6 0.0000 0.0000 0.0000 0.0000 0.0000 31.6239
#
#
#
# Elastic Compliance Matrix: (Units=1/GPa)
#
#
# Indices 1 2 3 4 5 6 
#
# 1 0.015166 0.000043 -0.008538 0.000000 0.000000 0.000000
# 2 0.000043 0.016022 -0.013376 0.000000 0.000000 0.000000
# 3 -0.008538 -0.013376 0.042268 0.000000 0.000000 0.000000
# 4 0.000000 0.000000 0.000000 0.143805 0.000000 0.000000
# 5 0.000000 0.000000 0.000000 0.000000 0.062554 0.000000
# 6 0.000000 0.000000 0.000000 0.000000 0.000000 0.031622
#
#
# Mechanical properties :
#
#
# Convention : Reuss Voigt Hill
#
# Bulk Modulus (GPa) = 33.65487 38.40371 36.02929
# Shear Modulus (GPa) = 13.69548 19.85511 16.77530
#
# Velocity S-wave (km/s) = 2.48922 2.99717 2.75493
# Velocity P-wave (km/s) = 4.84645 5.41777 5.14005
#
# Compressibility (1/GPa) = 0.02971338
#
# Stress axis : x y z
#
# Youngs Moduli (GPa) = 65.93765 62.41471 23.65830
#
# Poissons Ratio (x) = -0.00267 0.20199
# Poissons Ratio (y) = -0.00282 0.31646
# Poissons Ratio (z) = 0.56297 0.83488
#
# Static dielectric constant tensor:
#      x y z
#    x 1.816630 0.000000 0.000000 
#    y 0.000000 1.858010 0.000000 
#    z 0.000000 0.000000 1.868950 
# 
# From -- ./inp_files/20903.got.cif
#   From: 2010.05.17/outbox.cif.g08.bks.cpg/sg23_11_cif.got.tgz:20903.got - 2010.06.04 12:02:01.
