data_PCOD9329173
_publ_section_title
;
Structure prediction by ZEFSAII (Michael W. Deem and Ramdas Pophale) SiO2 
 PCOD9329173
Probable space group: F 2 2 2
;
_chemical_formula_sum "Si O2"
_cell_formula_units_Z 72
_cell_length_a 8.788788
_cell_length_b 14.557317
_cell_length_c 24.171082
_cell_angle_alpha 90.000000
_cell_angle_beta 90.000000
_cell_angle_gamma 90.000000
_cell_volume 3092.476583
_symmetry_space_group_name_H-M "F 2 2 2"
_symmetry_group_IT_number 22
_symmetry_cell_setting 'orthorhombic'
loop_
_space_group_symop_operation_xyz
x,y,z
-x,-y,z
x,-y,-z
-x,y,-z
x,1/2+y,1/2+z
-x,1/2-y,1/2+z
x,1/2-y,1/2-z
-x,1/2+y,1/2-z
1/2+x,y,1/2+z
1/2-x,-y,1/2+z
1/2+x,-y,1/2-z
1/2-x,y,1/2-z
1/2+x,1/2+y,z
1/2-x,1/2-y,z
1/2+x,1/2-y,-z
1/2-x,1/2+y,-z
loop_
_atom_site_type_symbol
_atom_site_label
_atom_site_fract_x
_atom_site_fract_y
_atom_site_fract_z
Si Si1 0.315476 0.352274 0.805689
Si Si2 0.827051 0.998551 0.378538
Si Si3 0.401973 0.808908 0.452159
Si Si4 0.765570 0.000000 0.000000
Si Si5 0.373492 0.329132 0.153559
O O1 0.250000 0.396532 0.750000
O O2 0.250000 0.250000 0.809626
O O3 0.255943 0.408781 0.858493
O O4 0.496638 0.343694 0.801023
O O5 0.723686 0.920119 0.352951
O O6 0.825315 0.978317 0.444195
O O7 0.000000 0.000000 0.359135
O O8 0.500000 0.759659 0.500000
O O9 0.250000 0.750000 0.441792
O O10 0.355649 0.908814 0.478437
O O11 0.519398 0.814172 0.400822
O O12 0.250000 0.250000 0.161508
#
# Coordination Sequence:
#
# PCOD9329173 Si02
#       5
#    16  16  16   8  16
#     4  11  26  52  81 110 149 201 265 336 408 467
#     4  12  27  45  73 112 157 206 265 321 394 469
#     4  12  26  44  73 108 161 213 261 320 388 469
#     4  12  26  44  70 108 164 210 260 310 388 460
#     4  12  26  47  76 113 157 201 262 329 402 472
#
# _framework density 23.282309999999999
#
# number of rings (size 3 to 8) (size 9 to 14) (size 15 to 20)
#    0.000    0.222    4.444    4.000    3.111    1.778 
#    0.000    6.667    0.000    0.000    0.000    0.000 
#    0.000    0.000    0.000    0.000    0.000    0.000 
#
# Total GULP energy -100652.001277 kJ/mol
# GULP energy per Si atom -5591.777849 kJ/mol
# Density = 2.322932 g / cm^3
# Si number density = 23.282310 Si / 1000 Ang^3
#
#
#
# Elastic Constant Matrix: (Units=GPa)
#
#
# Indices 1 2 3 4 5 6 
#
# 1 232.8557 69.4423 39.3365 0.0000 0.0000 0.0000
# 2 69.4423 119.3385 20.4804 0.0000 0.0000 0.0000
# 3 39.3365 20.4804 90.0339 0.0000 0.0000 0.0000
# 4 0.0000 0.0000 0.0000 90.5881 0.0000 0.0000
# 5 0.0000 0.0000 0.0000 0.0000 6.9232 0.0000
# 6 0.0000 0.0000 0.0000 0.0000 0.0000 37.7164
#
#
#
# Elastic Compliance Matrix: (Units=1/GPa)
#
#
# Indices 1 2 3 4 5 6 
#
# 1 0.005442 -0.002871 -0.001725 0.000000 0.000000 0.000000
# 2 -0.002871 0.010234 -0.001074 0.000000 0.000000 0.000000
# 3 -0.001725 -0.001074 0.012105 0.000000 0.000000 0.000000
# 4 0.000000 0.000000 0.000000 0.011039 0.000000 0.000000
# 5 0.000000 0.000000 0.000000 0.000000 0.144442 0.000000
# 6 0.000000 0.000000 0.000000 0.000000 0.000000 0.026514
#
#
# Mechanical properties :
#
#
# Convention : Reuss Voigt Hill
#
# Bulk Modulus (GPa) = 60.81736 77.86072 69.33904
# Shear Modulus (GPa) = 22.06586 47.91016 34.98801
#
# Velocity S-wave (km/s) = 3.08190 4.54121 3.88077
# Velocity P-wave (km/s) = 6.23238 7.81098 7.06590
#
# Compressibility (1/GPa) = 0.01644267
#
# Stress axis : x y z
#
# Youngs Moduli (GPa) = 183.75823 97.71137 82.61262
#
# Poissons Ratio (x) = 0.28050 0.14248
# Poissons Ratio (y) = 0.52751 0.08871
# Poissons Ratio (z) = 0.31691 0.10492
#
# Static dielectric constant tensor:
#      x y z
#    x 1.809420 0.000000 0.000000 
#    y 0.000000 1.919730 0.000000 
#    z 0.000000 0.000000 1.997490 
# 
# From -- ./inp_files/51673.got.cif
#   From: 2010.05.17/outbox.cif.g08.bks.cpg/sg22_26_cif.got.tgz:51673.got - 2010.06.03 23:40:54.
