data_PCOD9329305
_publ_section_title
;
Structure prediction by ZEFSAII (Michael W. Deem and Ramdas Pophale) SiO2 
 PCOD9329305
Probable space group: F 2 2 2
;
_chemical_formula_sum "Si O2"
_cell_formula_units_Z 22
_cell_length_a 12.000000
_cell_length_b 12.000000
_cell_length_c 30.000000
_cell_angle_alpha 90.000000
_cell_angle_beta 90.000000
_cell_angle_gamma 90.000000
_cell_volume 4320.000000
_symmetry_space_group_name_H-M "F 2 2 2"
_symmetry_group_IT_number 22
_symmetry_cell_setting 'orthorhombic'
loop_
_space_group_symop_operation_xyz
x,y,z
-x,-y,z
x,-y,-z
-x,y,-z
x,1/2+y,1/2+z
-x,1/2-y,1/2+z
x,1/2-y,1/2-z
-x,1/2+y,1/2-z
1/2+x,y,1/2+z
1/2-x,-y,1/2+z
1/2+x,-y,1/2-z
1/2-x,y,1/2-z
1/2+x,1/2+y,z
1/2-x,1/2-y,z
1/2+x,1/2-y,-z
1/2-x,1/2+y,-z
loop_
_atom_site_type_symbol
_atom_site_label
_atom_site_fract_x
_atom_site_fract_y
_atom_site_fract_z
Si Si1 0.250000 0.750000 0.497902
Si Si2 0.959038 0.819458 0.348313
Si Si3 0.920675 0.170361 0.933099
Si Si4 0.750000 0.459463 0.750000
Si Si5 0.169393 0.577269 0.430495
Si Si6 0.184444 0.043665 0.654734
Si Si7 0.913565 0.750000 0.250000
O O1 0.141506 0.745988 0.530195
O O2 0.248105 0.641987 0.465374
O O3 0.920291 0.729265 0.384742
O O4 0.966665 0.770188 0.298327
O O5 0.080665 0.874045 0.354869
O O6 0.868218 0.919518 0.351667
O O7 0.050727 0.138653 0.938123
O O8 0.854743 0.053443 0.937611
O O9 0.772806 0.534246 0.793943
O O10 0.848316 0.368081 0.743099
O O11 0.220597 0.578478 0.380583
#
# Coordination Sequence:
#
# PCOD9329305 Si02
#       7
#     8  16  16   8  16  16   8
#     4  12  24  42  66  90 120 154 204 262 316 384
#     4  10  21  38  61  92 130 171 215 266 321 381
#     4  11  24  42  66  93 125 165 209 260 322 393
#     4   9  18  34  58  87 124 172 218 263 314 375
#     4  11  24  42  65  94 126 164 209 260 322 393
#     4  10  21  38  61  92 131 170 214 267 322 380
#     4   9  18  34  58  87 124 172 220 260 312 380
#
# _framework density 5.0925929999999999
#
# number of rings (size 3 to 8) (size 9 to 14) (size 15 to 20)
#    0.000    1.636    0.000    4.364    0.000    5.818 
#    0.000    3.636    0.000    2.182    0.000    0.000 
#    0.000    0.000    0.000    0.000    0.000    0.000 
#
# Total GULP energy -122734.071902 kJ/mol
# GULP energy per Si atom -5578.821450 kJ/mol
# Density = 0.508100 g / cm^3
# Si number density = 5.092593 Si / 1000 Ang^3
#
#
#
# Elastic Constant Matrix: (Units=GPa)
#
#
# Indices 1 2 3 4 5 6 
#
# 1 81.2173 39.3920 59.1503 0.0000 0.0000 0.0000
# 2 39.3920 91.1000 66.1995 0.0000 0.0000 0.0000
# 3 59.1503 66.1995 159.5070 0.0000 0.0000 0.0000
# 4 0.0000 0.0000 0.0000 55.3559 0.0000 0.0000
# 5 0.0000 0.0000 0.0000 0.0000 34.6894 0.0000
# 6 0.0000 0.0000 0.0000 0.0000 0.0000 20.0803
#
#
#
# Elastic Compliance Matrix: (Units=1/GPa)
#
#
# Indices 1 2 3 4 5 6 
#
# 1 0.017915 -0.004179 -0.004909 0.000000 0.000000 0.000000
# 2 -0.004179 0.016692 -0.005378 0.000000 0.000000 0.000000
# 3 -0.004909 -0.005378 0.010322 0.000000 0.000000 0.000000
# 4 0.000000 0.000000 0.000000 0.018065 0.000000 0.000000
# 5 0.000000 0.000000 0.000000 0.000000 0.028827 0.000000
# 6 0.000000 0.000000 0.000000 0.000000 0.000000 0.049800
#
#
# Mechanical properties :
#
#
# Convention : Reuss Voigt Hill
#
# Bulk Modulus (GPa) = 62.51384 73.47867 67.99626
# Shear Modulus (GPa) = 28.42773 33.16396 30.79585
#
# Velocity S-wave (km/s) = 3.73975 4.03929 3.89240
# Velocity P-wave (km/s) = 7.02872 7.60947 7.32485
#
# Compressibility (1/GPa) = 0.01599646
#
# Stress axis : x y z
#
# Youngs Moduli (GPa) = 55.81976 59.90913 96.88431
#
# Poissons Ratio (x) = 0.25038 0.47559
# Poissons Ratio (y) = 0.23329 0.52102
# Poissons Ratio (z) = 0.27401 0.32218
#
# Static dielectric constant tensor:
#      x y z
#    x 1.754970 0.000000 0.000000 
#    y 0.000000 1.722550 0.000000 
#    z 0.000000 0.000000 1.724800 
# 
# From -- ./inp_files/55995.got.cif
#   From: 2010.05.17/outbox.ucp.g08.bks.cvg/sg22_28_cif.got.tgz:55995.got - 2010.06.11 15:16:44.
