data_PCOD9329002
_publ_section_title
;
Structure prediction by ZEFSAII (Michael W. Deem and Ramdas Pophale) SiO2 
 PCOD9329002
Probable space group: F 2 2 2
;
_chemical_formula_sum "Si O2"
_cell_formula_units_Z 100
_cell_length_a 13.739196
_cell_length_b 11.349696
_cell_length_c 31.766565
_cell_angle_alpha 90.000000
_cell_angle_beta 90.000000
_cell_angle_gamma 90.000000
_cell_volume 4953.541483
_symmetry_space_group_name_H-M "F 2 2 2"
_symmetry_group_IT_number 22
_symmetry_cell_setting 'orthorhombic'
loop_
_space_group_symop_operation_xyz
x,y,z
-x,-y,z
x,-y,-z
-x,y,-z
x,1/2+y,1/2+z
-x,1/2-y,1/2+z
x,1/2-y,1/2-z
-x,1/2+y,1/2-z
1/2+x,y,1/2+z
1/2-x,-y,1/2+z
1/2+x,-y,1/2-z
1/2-x,y,1/2-z
1/2+x,1/2+y,z
1/2-x,1/2-y,z
1/2+x,1/2-y,-z
1/2-x,1/2+y,-z
loop_
_atom_site_type_symbol
_atom_site_label
_atom_site_fract_x
_atom_site_fract_y
_atom_site_fract_z
Si Si1 0.134830 0.614485 0.244687
Si Si2 0.624916 0.821382 0.447947
Si Si3 0.750000 0.750000 0.979706
Si Si4 0.598541 0.070606 0.148579
Si Si5 0.779976 0.039284 0.087110
Si Si6 0.000000 0.000000 0.000000
Si Si7 0.530538 0.678953 0.879392
Si Si8 0.000000 0.000000 0.811490
O O1 0.099150 0.750000 0.250000
O O2 0.250000 0.616711 0.250000
O O3 0.111922 0.562733 0.198772
O O4 0.087202 0.537859 0.281358
O O5 0.661488 0.742721 0.486749
O O6 0.565166 0.921392 0.471311
O O7 0.548752 0.777389 0.413372
O O8 0.708428 0.902717 0.426859
O O9 0.754668 0.866587 0.950368
O O10 0.695497 0.039674 0.122219
O O11 0.583111 0.207837 0.138697
O O12 0.500000 0.000000 0.136581
O O13 0.884368 0.091496 0.103256
O O14 0.477407 0.608507 0.842313
#
# Coordination Sequence:
#
# PCOD9329002 Si02
#       8
#    16  16   8  16  16   4  16   8
#     4  11  24  41  70 102 133 176 223 273 334 409
#     4  12  24  40  66  99 130 174 229 288 334 400
#     4  12  24  40  66  96 139 173 224 276 344 398
#     4  12  27  44  64  99 143 174 217 282 351 404
#     4  12  23  45  67  95 130 179 228 282 333 410
#     4  12  18  40  64  88 124 160 228 288 324 376
#     4  12  23  43  71  98 128 180 235 282 330 401
#     4  12  21  42  72 103 128 174 227 280 326 397
#
# _framework density 20.187577999999998
#
# number of rings (size 3 to 8) (size 9 to 14) (size 15 to 20)
#    0.000    0.160    8.800    0.960    4.480    0.000 
#    0.000    0.000    0.000    3.360    0.000    0.000 
#    0.000    0.000    0.000    0.000    0.000    0.000 
#
# Total GULP energy -139531.732828 kJ/mol
# GULP energy per Si atom -5581.269313 kJ/mol
# Density = 2.014163 g / cm^3
# Si number density = 20.187578 Si / 1000 Ang^3
#
#
#
# Elastic Constant Matrix: (Units=GPa)
#
#
# Indices 1 2 3 4 5 6 
#
# 1 84.6233 9.3906 48.8611 0.0000 0.0000 0.0000
# 2 9.3906 33.9188 13.3669 0.0000 0.0000 0.0000
# 3 48.8611 13.3669 127.1155 0.0000 0.0000 0.0000
# 4 0.0000 0.0000 0.0000 258.7059 0.0000 0.0000
# 5 0.0000 0.0000 0.0000 0.0000 47.3655 0.0000
# 6 0.0000 0.0000 0.0000 0.0000 0.0000 32.9085
#
#
#
# Elastic Compliance Matrix: (Units=1/GPa)
#
#
# Indices 1 2 3 4 5 6 
#
# 1 0.015317 -0.002003 -0.005677 0.000000 0.000000 0.000000
# 2 -0.002003 0.031019 -0.002492 0.000000 0.000000 0.000000
# 3 -0.005677 -0.002492 0.010311 0.000000 0.000000 0.000000
# 4 0.000000 0.000000 0.000000 0.003865 0.000000 0.000000
# 5 0.000000 0.000000 0.000000 0.000000 0.021112 0.000000
# 6 0.000000 0.000000 0.000000 0.000000 0.000000 0.030387
#
#
# Mechanical properties :
#
#
# Convention : Reuss Voigt Hill
#
# Bulk Modulus (GPa) = 27.54615 43.21053 35.37834
# Shear Modulus (GPa) = 34.61228 79.39859 57.00543
#
# Velocity S-wave (km/s) = 4.14518 6.27820 5.31970
# Velocity P-wave (km/s) = 6.04854 8.60264 7.43607
#
# Compressibility (1/GPa) = 0.03630272
#
# Stress axis : x y z
#
# Youngs Moduli (GPa) = 65.28564 32.23858 96.98347
#
# Poissons Ratio (x) = 0.06459 0.55058
# Poissons Ratio (y) = 0.13080 0.24165
# Poissons Ratio (z) = 0.37063 0.08033
#
# Static dielectric constant tensor:
#      x y z
#    x 1.757030 0.000000 0.000000 
#    y 0.000000 1.735030 0.000000 
#    z 0.000000 0.000000 1.750810 
# 
# From -- ./inp_files/56445.got.cif
#   From: 2010.05.17/outbox.cif.g08.bks.cpg/sg22_29_cif.got.tgz:56445.got - 2010.06.03 23:40:54.
