data_PCOD9329348
_publ_section_title
;
Structure prediction by ZEFSAII (Michael W. Deem and Ramdas Pophale) SiO2 
 PCOD9329348
Probable space group: I 2 2 2
;
_chemical_formula_sum "Si O2"
_cell_formula_units_Z 42
_cell_length_a 25.615681
_cell_length_b 13.140536
_cell_length_c 5.487828
_cell_angle_alpha 90.000000
_cell_angle_beta 90.000000
_cell_angle_gamma 90.000000
_cell_volume 1847.223640
_symmetry_space_group_name_H-M "I 2 2 2"
_symmetry_group_IT_number 23
_symmetry_cell_setting 'orthorhombic'
loop_
_space_group_symop_operation_xyz
x,y,z
-x,-y,z
x,-y,-z
-x,y,-z
1/2+x,1/2+y,1/2+z
1/2-x,1/2-y,1/2+z
1/2+x,1/2-y,1/2-z
1/2-x,1/2+y,1/2-z
loop_
_atom_site_type_symbol
_atom_site_label
_atom_site_fract_x
_atom_site_fract_y
_atom_site_fract_z
Si Si1 0.746418 0.376187 0.647793
Si Si2 0.479385 0.621143 0.750497
Si Si3 0.793942 0.646468 0.853859
Si Si4 0.100636 0.439930 0.743031
Si Si5 0.129592 0.941247 0.247555
Si Si6 0.000000 0.500000 0.500000
O O1 0.765195 0.406018 0.376743
O O2 0.734755 0.255013 0.630861
O O3 0.689406 0.414287 0.721005
O O4 0.785053 0.396723 0.874063
O O5 0.500000 0.500000 0.751297
O O6 0.500000 0.665103 0.500000
O O7 0.417522 0.637013 0.757171
O O8 0.500000 0.665529 0.000000
O O9 0.855349 0.646425 0.788058
O O10 0.120663 0.500000 0.500000
O O11 0.039649 0.431008 0.662752
O O12 0.100552 0.500000 0.000000
O O13 0.123535 0.000000 0.500000
O O14 0.115984 0.000000 0.000000
#
# Coordination Sequence:
#
# PCOD9329348 Si02
#       6
#     8   8   8   8   8   2
#     4  10  23  37  55  81 114 154 187 225 285 336
#     4  10  16  30  48  66  97 141 169 206 265 305
#     4  10  21  41  57  77 117 153 181 226 285 355
#     4  10  20  35  63  89 112 146 188 236 294 348
#     4  12  21  32  53  81 108 140 184 240 263 311
#     4   8  22  36  58  92 118 136 196 236 316 332
#
# _framework density 22.736827999999999
#
# number of rings (size 3 to 8) (size 9 to 14) (size 15 to 20)
#    0.571    1.143    3.810    2.571    0.000    4.571 
#    0.000    0.000    2.095    2.286    0.000    0.000 
#    0.000    0.000    0.000    0.000    0.000    0.000 
#
# Total GULP energy -116905.255105 kJ/mol
# GULP energy per Si atom -5566.916910 kJ/mol
# Density = 2.268508 g / cm^3
# Si number density = 22.736828 Si / 1000 Ang^3
#
#
#
# Elastic Constant Matrix: (Units=GPa)
#
#
# Indices 1 2 3 4 5 6 
#
# 1 158.0003 -3.3686 59.6877 0.0000 0.0000 0.0000
# 2 -3.3686 14.0817 28.9199 0.0000 0.0000 0.0000
# 3 59.6877 28.9199 228.5532 0.0000 0.0000 0.0000
# 4 0.0000 0.0000 0.0000 17.4674 0.0000 0.0000
# 5 0.0000 0.0000 0.0000 0.0000 74.4481 0.0000
# 6 0.0000 0.0000 0.0000 0.0000 0.0000 -153.5175
#
#
#
# Elastic Compliance Matrix: (Units=1/GPa)
#
#
# Indices 1 2 3 4 5 6 
#
# 1 0.007635 0.008001 -0.003006 0.000000 0.000000 0.000000
# 2 0.008001 0.104332 -0.015291 0.000000 0.000000 0.000000
# 3 -0.003006 -0.015291 0.007095 0.000000 0.000000 0.000000
# 4 0.000000 0.000000 0.000000 0.057249 0.000000 0.000000
# 5 0.000000 0.000000 0.000000 0.000000 0.013432 0.000000
# 6 0.000000 0.000000 0.000000 0.000000 0.000000 -0.006514
#
#
# Mechanical properties :
#
#
# Convention : Reuss Voigt Hill
#
# Bulk Modulus (GPa) = 10.15542 63.45700 36.80621
# Shear Modulus (GPa) = 21.12853 8.70602 14.91727
#
# Velocity S-wave (km/s) = 3.05169 1.95892 2.56419
# Velocity P-wave (km/s) = 4.11015 5.75208 4.99898
#
# Compressibility (1/GPa) = 0.09846954
#
# Stress axis : x y z
#
# Youngs Moduli (GPa) = 130.96868 9.58479 140.93767
#
# Poissons Ratio (x) = -0.07669 0.42372
# Poissons Ratio (y) = -1.04786 2.15509
# Poissons Ratio (z) = 0.39375 0.14656
#
# Static dielectric constant tensor:
#      x y z
#    x 1.834310 0.000000 0.000000 
#    y 0.000000 1.809340 0.000000 
#    z 0.000000 0.000000 1.934290 
# 
# From -- ./inp_files/4443.got.cif
#   From: 2010.05.17/outbox.cif.g08.bks.cpg/sg23_3_cif.got.tgz:4443.got - 2010.06.04 12:02:01.
