data_PCOD9329183
_publ_section_title
;
Structure prediction by ZEFSAII (Michael W. Deem and Ramdas Pophale) SiO2 
 PCOD9329183
Probable space group: F 2 2 2
;
_chemical_formula_sum "Si O2"
_cell_formula_units_Z 104
_cell_length_a 22.618329
_cell_length_b 9.210204
_cell_length_c 21.418504
_cell_angle_alpha 90.000000
_cell_angle_beta 90.000000
_cell_angle_gamma 90.000000
_cell_volume 4461.890421
_symmetry_space_group_name_H-M "F 2 2 2"
_symmetry_group_IT_number 22
_symmetry_cell_setting 'orthorhombic'
loop_
_space_group_symop_operation_xyz
x,y,z
-x,-y,z
x,-y,-z
-x,y,-z
x,1/2+y,1/2+z
-x,1/2-y,1/2+z
x,1/2-y,1/2-z
-x,1/2+y,1/2-z
1/2+x,y,1/2+z
1/2-x,-y,1/2+z
1/2+x,-y,1/2-z
1/2-x,y,1/2-z
1/2+x,1/2+y,z
1/2-x,1/2-y,z
1/2+x,1/2-y,-z
1/2-x,1/2+y,-z
loop_
_atom_site_type_symbol
_atom_site_label
_atom_site_fract_x
_atom_site_fract_y
_atom_site_fract_z
Si Si1 0.559762 0.593389 0.557694
Si Si2 0.706435 0.131980 0.963947
Si Si3 0.889405 0.167526 0.985789
Si Si4 0.379730 0.725455 0.322600
Si Si5 0.661576 0.250000 0.750000
Si Si6 0.213659 0.510636 0.840114
Si Si7 0.855546 0.450751 0.644620
O O1 0.500000 0.500000 0.565861
O O2 0.590994 0.500000 0.500000
O O3 0.558968 0.748737 0.521555
O O4 0.582957 0.629557 0.627473
O O5 0.750000 0.250000 0.936402
O O6 0.666346 0.233520 0.007414
O O7 0.680402 0.052872 0.904222
O O8 0.736741 0.000000 0.000000
O O9 0.878804 0.152231 0.911398
O O10 0.887673 0.000000 0.000000
O O11 0.398667 0.750000 0.250000
O O12 0.315934 0.640995 0.319125
O O13 0.379209 0.885834 0.353023
O O14 0.698246 0.360990 0.707263
O O15 0.627049 0.359696 0.794432
O O16 0.284087 0.518868 0.852656
#
# Coordination Sequence:
#
# PCOD9329183 Si02
#       7
#    16  16  16  16   8  16  16
#     4  11  27  54  84 108 146 201 272 354 437 504
#     4  12  24  37  59 100 154 211 259 316 380 463
#     4  12  23  43  71 109 149 191 263 332 403 485
#     4  12  26  45  77 115 158 213 269 334 408 505
#     4  12  23  40  62  98 164 226 268 298 366 474
#     4  12  23  39  62 103 164 220 257 303 375 474
#     4  12  24  39  66 111 161 213 264 313 380 492
#
# _framework density 23.308506000000001
#
# number of rings (size 3 to 8) (size 9 to 14) (size 15 to 20)
#    0.000    0.154    6.154    4.615    0.000    0.615 
#    0.000    1.538    8.462    0.000    0.000    0.000 
#    0.000    0.000    0.000    0.000    0.000    0.000 
#
# Total GULP energy -144756.861487 kJ/mol
# GULP energy per Si atom -5567.571596 kJ/mol
# Density = 2.325546 g / cm^3
# Si number density = 23.308506 Si / 1000 Ang^3
#
#
#
# Elastic Constant Matrix: (Units=GPa)
#
#
# Indices 1 2 3 4 5 6 
#
# 1 55.1786 29.2672 36.3670 0.0000 0.0000 0.0000
# 2 29.2672 166.1321 49.4711 0.0000 0.0000 0.0000
# 3 36.3670 49.4711 160.1350 0.0000 0.0000 0.0000
# 4 0.0000 0.0000 0.0000 50.5653 0.0000 0.0000
# 5 0.0000 0.0000 0.0000 0.0000 18.4817 0.0000
# 6 0.0000 0.0000 0.0000 0.0000 0.0000 30.8628
#
#
#
# Elastic Compliance Matrix: (Units=1/GPa)
#
#
# Indices 1 2 3 4 5 6 
#
# 1 0.022339 -0.002670 -0.004248 0.000000 0.000000 0.000000
# 2 -0.002670 0.006948 -0.001540 0.000000 0.000000 0.000000
# 3 -0.004248 -0.001540 0.007685 0.000000 0.000000 0.000000
# 4 0.000000 0.000000 0.000000 0.019776 0.000000 0.000000
# 5 0.000000 0.000000 0.000000 0.000000 0.054108 0.000000
# 6 0.000000 0.000000 0.000000 0.000000 0.000000 0.032401
#
#
# Mechanical properties :
#
#
# Convention : Reuss Voigt Hill
#
# Bulk Modulus (GPa) = 49.86208 67.96181 58.91195
# Shear Modulus (GPa) = 29.96499 37.73799 33.85149
#
# Velocity S-wave (km/s) = 3.58939 4.02813 3.81507
# Velocity P-wave (km/s) = 6.21426 7.13128 6.68850
#
# Compressibility (1/GPa) = 0.02005532
#
# Stress axis : x y z
#
# Youngs Moduli (GPa) = 44.76399 143.91863 130.11792
#
# Poissons Ratio (x) = 0.38432 0.55278
# Poissons Ratio (y) = 0.11954 0.20040
# Poissons Ratio (z) = 0.19017 0.22165
#
# Static dielectric constant tensor:
#      x y z
#    x 2.078800 0.000000 0.000000 
#    y 0.000000 1.876790 0.000000 
#    z 0.000000 0.000000 1.988730 
# 
# From -- ./inp_files/45780.got.cif
#   From: 2010.05.17/outbox.cif.g08.bks.cpg/sg22_23_cif.got.tgz:45780.got - 2010.06.03 23:40:54.
