data_PCOD9329509
_publ_section_title
;
Structure prediction by ZEFSAII (Michael W. Deem and Ramdas Pophale) SiO2 
 PCOD9329509
Probable space group: I 2 2 2
;
_chemical_formula_sum "Si O2"
_cell_formula_units_Z 40
_cell_length_a 5.627607
_cell_length_b 14.995793
_cell_length_c 19.127425
_cell_angle_alpha 90.000000
_cell_angle_beta 90.000000
_cell_angle_gamma 90.000000
_cell_volume 1614.171614
_symmetry_space_group_name_H-M "I 2 2 2"
_symmetry_group_IT_number 23
_symmetry_cell_setting 'orthorhombic'
loop_
_space_group_symop_operation_xyz
x,y,z
-x,-y,z
x,-y,-z
-x,y,-z
1/2+x,1/2+y,1/2+z
1/2-x,1/2-y,1/2+z
1/2+x,1/2-y,1/2-z
1/2-x,1/2+y,1/2-z
loop_
_atom_site_type_symbol
_atom_site_label
_atom_site_fract_x
_atom_site_fract_y
_atom_site_fract_z
Si Si1 0.750000 0.763191 0.425153
Si Si2 0.750000 0.513773 0.310981
Si Si3 0.250000 0.299208 0.234783
Si Si4 0.750000 0.048882 0.655057
Si Si5 0.250000 0.246577 0.584100
O O1 0.750000 0.852809 0.378982
O O2 0.750000 0.793392 0.506360
O O3 0.508437 0.708668 0.412082
O O4 0.991563 0.708668 0.412082
O O5 0.500000 0.500000 0.348502
O O6 0.750000 0.611234 0.277803
O O7 0.750000 0.450666 0.240502
O O8 0.000000 0.500000 0.348502
O O9 0.500000 0.250000 0.250000
O O10 0.250000 0.315980 0.151639
O O11 0.500000 0.000000 0.635360
O O12 0.000000 0.000000 0.635360
#
# Coordination Sequence:
#
# PCOD9329509 Si02
#       5
#     8   8   8   8   8
#     4  10  19  34  53  74 103 137 176 237 278 320
#     4  10  19  34  54  76 105 144 195 244 276 322
#     4  12  24  38  55  78 113 160 202 240 284 339
#     4  10  18  29  46  71 102 136 178 223 267 308
#     4  10  20  35  51  73 104 143 188 224 272 327
#
# _framework density 24.780512000000002
#
# number of rings (size 3 to 8) (size 9 to 14) (size 15 to 20)
#    0.000    1.600    0.000    8.400    0.000    0.000 
#    0.000   23.000    0.000    0.000    0.000    0.000 
#    0.000    0.000    0.000  252.000    0.000    0.000 
#
# Total GULP energy -111569.982103 kJ/mol
# GULP energy per Si atom -5578.499105 kJ/mol
# Density = 2.472411 g / cm^3
# Si number density = 24.780512 Si / 1000 Ang^3
#
#
#
# Elastic Constant Matrix: (Units=GPa)
#
#
# Indices 1 2 3 4 5 6 
#
# 1 356.3327 45.9237 6.5740 0.0000 0.0000 0.0000
# 2 45.9237 64.7476 8.3514 0.0000 0.0000 0.0000
# 3 6.5740 8.3514 90.3078 0.0000 0.0000 0.0000
# 4 0.0000 0.0000 0.0000 14.8182 0.0000 0.0000
# 5 0.0000 0.0000 0.0000 0.0000 21.0370 0.0000
# 6 0.0000 0.0000 0.0000 0.0000 0.0000 32.7671
#
#
#
# Elastic Compliance Matrix: (Units=1/GPa)
#
#
# Indices 1 2 3 4 5 6 
#
# 1 0.003089 -0.002188 -0.000023 0.000000 0.000000 0.000000
# 2 -0.002188 0.017181 -0.001430 0.000000 0.000000 0.000000
# 3 -0.000023 -0.001430 0.011207 0.000000 0.000000 0.000000
# 4 0.000000 0.000000 0.000000 0.067484 0.000000 0.000000
# 5 0.000000 0.000000 0.000000 0.000000 0.047535 0.000000
# 6 0.000000 0.000000 0.000000 0.000000 0.000000 0.030518
#
#
# Mechanical properties :
#
#
# Convention : Reuss Voigt Hill
#
# Bulk Modulus (GPa) = 41.32794 70.34291 55.83543
# Shear Modulus (GPa) = 25.99291 43.76041 34.87666
#
# Velocity S-wave (km/s) = 3.24223 4.20684 3.75563
# Velocity P-wave (km/s) = 5.54345 7.21420 6.43329
#
# Compressibility (1/GPa) = 0.02419671
#
# Stress axis : x y z
#
# Youngs Moduli (GPa) = 323.75557 58.20465 89.22926
#
# Poissons Ratio (x) = 0.12734 0.00201
# Poissons Ratio (y) = 0.70833 0.12756
# Poissons Ratio (z) = 0.00729 0.08321
#
# Static dielectric constant tensor:
#      x y z
#    x 2.126740 0.000000 0.000000 
#    y 0.000000 1.934700 0.000000 
#    z 0.000000 0.000000 1.965710 
# 
# From -- ./inp_files/23115.got.cif
#   From: 2010.05.17/outbox.cif.g08.bks.cpg/sg23_12_cif.got.tgz:23115.got - 2010.06.04 12:02:01.
