data_PCOD9329355
_publ_section_title
;
Structure prediction by ZEFSAII (Michael W. Deem and Ramdas Pophale) SiO2 
 PCOD9329355
Probable space group: I 2 2 2
;
_chemical_formula_sum "Si O2"
_cell_formula_units_Z 38
_cell_length_a 23.241787
_cell_length_b 10.926296
_cell_length_c 6.909715
_cell_angle_alpha 90.000000
_cell_angle_beta 90.000000
_cell_angle_gamma 90.000000
_cell_volume 1754.698938
_symmetry_space_group_name_H-M "I 2 2 2"
_symmetry_group_IT_number 23
_symmetry_cell_setting 'orthorhombic'
loop_
_space_group_symop_operation_xyz
x,y,z
-x,-y,z
x,-y,-z
-x,y,-z
1/2+x,1/2+y,1/2+z
1/2-x,1/2-y,1/2+z
1/2+x,1/2-y,1/2-z
1/2-x,1/2+y,1/2-z
loop_
_atom_site_type_symbol
_atom_site_label
_atom_site_fract_x
_atom_site_fract_y
_atom_site_fract_z
Si Si1 0.217086 0.000000 0.500000
Si Si2 0.823056 0.470901 0.729960
Si Si3 0.000000 0.500000 0.500000
Si Si4 0.867689 0.210100 0.638558
Si Si5 0.491944 0.359073 0.764848
Si Si6 0.915193 0.329062 0.258275
O O1 0.261492 0.036781 0.668826
O O2 0.177682 0.102749 0.398276
O O3 0.818522 0.500000 0.500000
O O4 0.847760 0.334366 0.740233
O O5 0.865449 0.577446 0.817336
O O6 0.959121 0.420045 0.366492
O O7 0.924826 0.171277 0.751841
O O8 0.883400 0.249385 0.420126
O O9 0.500000 0.500000 0.713424
O O10 0.539537 0.269198 0.668552
O O11 0.500000 0.348536 0.000000
#
# Coordination Sequence:
#
# PCOD9329355 Si02
#       6
#     4   8   2   8   8   8
#     4  12  26  38  59  87 130 166 206 258 306 380
#     4  10  23  40  59  87 118 167 213 250 311 370
#     4  12  12  28  54  82 104 144 190 250 302 358
#     4  10  19  34  54  87 120 153 204 251 303 371
#     4   9  15  27  53  88 117 146 194 256 315 365
#     4  10  16  31  56  86 115 149 199 253 304 365
#
# _framework density 21.656137999999999
#
# number of rings (size 3 to 8) (size 9 to 14) (size 15 to 20)
#    0.000    1.895    6.316    2.526    5.895    0.000 
#    0.000    0.000    0.000    5.684    0.000    1.474 
#    0.000   19.368    0.000    0.000    0.000    0.000 
#
# Total GULP energy -105873.624963 kJ/mol
# GULP energy per Si atom -5572.296051 kJ/mol
# Density = 2.160685 g / cm^3
# Si number density = 21.656138 Si / 1000 Ang^3
#
#
#
# Elastic Constant Matrix: (Units=GPa)
#
#
# Indices 1 2 3 4 5 6 
#
# 1 175.9553 107.0861 35.5139 0.0000 0.0000 0.0000
# 2 107.0861 177.9943 23.8589 0.0000 0.0000 0.0000
# 3 35.5139 23.8589 70.4031 0.0000 0.0000 0.0000
# 4 0.0000 0.0000 0.0000 -5.4072 0.0000 0.0000
# 5 0.0000 0.0000 0.0000 0.0000 28.4627 0.0000
# 6 0.0000 0.0000 0.0000 0.0000 0.0000**********
#
#
#
# Elastic Compliance Matrix: (Units=1/GPa)
#
#
# Indices 1 2 3 4 5 6 
#
# 1 0.009536 -0.005335 -0.003002 0.000000 0.000000 0.000000
# 2 -0.005335 0.008870 -0.000315 0.000000 0.000000 0.000000
# 3 -0.003002 -0.000315 0.015825 0.000000 0.000000 0.000000
# 4 0.000000 0.000000 0.000000 -0.184939 0.000000 0.000000
# 5 0.000000 0.000000 0.000000 0.000000 0.035134 0.000000
# 6 0.000000 0.000000 0.000000 0.000000 0.000000 -0.000016
#
#
# Mechanical properties :
#
#
# Convention : Reuss Voigt Hill
#
# Bulk Modulus (GPa) = 59.07716 84.14115 71.60916
# Shear Modulus (GPa) = -53.96980 -12485.87761 -6269.92370
#
# Velocity S-wave (km/s) = -4.99753 -76.01336 -53.86560
# Velocity P-wave (km/s) = 2.44164 87.55058 61.93168
#
# Compressibility (1/GPa) = 0.01692702
#
# Stress axis : x y z
#
# Youngs Moduli (GPa) = 104.86719 112.74220 63.19042
#
# Poissons Ratio (x) = 0.60143 0.18972
# Poissons Ratio (y) = 0.55942 0.01990
# Poissons Ratio (z) = 0.31486 0.03550
#
# Static dielectric constant tensor:
#      x y z
#    x 1.841980 0.000000 0.000000 
#    y 0.000000 1.784700 0.000000 
#    z 0.000000 0.000000 162.140730 
# 
# From -- ./inp_files/8241.got.cif
#   From: 2010.05.17/outbox.cif.g08.bks.cpg/sg23_5_cif.got.tgz:8241.got - 2010.06.04 12:02:01.
