data_PCOD9329131
_publ_section_title
;
Structure prediction by ZEFSAII (Michael W. Deem and Ramdas Pophale) SiO2 
 PCOD9329131
Probable space group: F 2 2 2
;
_chemical_formula_sum "Si O2"
_cell_formula_units_Z 56
_cell_length_a 13.537289
_cell_length_b 16.710243
_cell_length_c 9.350315
_cell_angle_alpha 90.000000
_cell_angle_beta 90.000000
_cell_angle_gamma 90.000000
_cell_volume 2115.147741
_symmetry_space_group_name_H-M "F 2 2 2"
_symmetry_group_IT_number 22
_symmetry_cell_setting 'orthorhombic'
loop_
_space_group_symop_operation_xyz
x,y,z
-x,-y,z
x,-y,-z
-x,y,-z
x,1/2+y,1/2+z
-x,1/2-y,1/2+z
x,1/2-y,1/2-z
-x,1/2+y,1/2-z
1/2+x,y,1/2+z
1/2-x,-y,1/2+z
1/2+x,-y,1/2-z
1/2-x,y,1/2-z
1/2+x,1/2+y,z
1/2-x,1/2-y,z
1/2+x,1/2-y,-z
1/2-x,1/2+y,-z
loop_
_atom_site_type_symbol
_atom_site_label
_atom_site_fract_x
_atom_site_fract_y
_atom_site_fract_z
Si Si1 0.750000 0.250000 0.504028
Si Si2 0.941079 0.303429 0.361220
Si Si3 0.933224 0.580247 0.882690
Si Si4 0.759801 0.569876 0.418475
O O1 0.847307 0.249287 0.404498
O O2 0.775132 0.333359 0.584594
O O3 0.004080 0.250000 0.250000
O O4 0.914908 0.380385 0.268756
O O5 0.000000 0.326211 0.500000
O O6 0.000000 0.500000 0.858493
O O7 0.832099 0.571177 0.968597
O O8 0.000000 0.627457 0.000000
O O9 0.823118 0.500000 0.500000
O O10 0.750000 0.548018 0.250000
#
# Coordination Sequence:
#
# PCOD9329131 Si02
#       4
#     8  16  16  16
#     4  12  30  52  82 126 178 222 304 354 450 526
#     4  12  28  48  84 116 169 223 287 361 444 515
#     4  11  25  49  79 115 172 220 286 360 430 516
#     4  12  29  49  82 121 172 228 290 361 440 512
#
# _framework density 26.475691999999999
#
# number of rings (size 3 to 8) (size 9 to 14) (size 15 to 20)
#    0.000    0.286    5.714    1.714    8.000    0.571 
#    0.000    0.000    0.000    0.000    0.000    0.000 
#    0.000    0.000    0.000    0.000    0.000    0.000 
#
# Total GULP energy -77975.660986 kJ/mol
# GULP energy per Si atom -5569.690070 kJ/mol
# Density = 2.641543 g / cm^3
# Si number density = 26.475692 Si / 1000 Ang^3
#
#
#
# Elastic Constant Matrix: (Units=GPa)
#
#
# Indices 1 2 3 4 5 6 
#
# 1 74.2397 10.1234 36.6814 0.0000 0.0000 0.0000
# 2 10.1234 159.5282 92.1138 0.0000 0.0000 0.0000
# 3 36.6814 92.1138 234.7262 0.0000 0.0000 0.0000
# 4 0.0000 0.0000 0.0000 62.3332 0.0000 0.0000
# 5 0.0000 0.0000 0.0000 0.0000 27.8736 0.0000
# 6 0.0000 0.0000 0.0000 0.0000 0.0000 20.7938
#
#
#
# Elastic Compliance Matrix: (Units=1/GPa)
#
#
# Indices 1 2 3 4 5 6 
#
# 1 0.014629 0.000506 -0.002485 0.000000 0.000000 0.000000
# 2 0.000506 0.008123 -0.003267 0.000000 0.000000 0.000000
# 3 -0.002485 -0.003267 0.005931 0.000000 0.000000 0.000000
# 4 0.000000 0.000000 0.000000 0.016043 0.000000 0.000000
# 5 0.000000 0.000000 0.000000 0.000000 0.035876 0.000000
# 6 0.000000 0.000000 0.000000 0.000000 0.000000 0.048091
#
#
# Mechanical properties :
#
#
# Convention : Reuss Voigt Hill
#
# Bulk Modulus (GPa) = 54.97045 82.92570 68.94808
# Shear Modulus (GPa) = 34.42440 44.17183 39.29812
#
# Velocity S-wave (km/s) = 3.60978 4.08903 3.85685
# Velocity P-wave (km/s) = 6.17913 7.32687 6.77734
#
# Compressibility (1/GPa) = 0.01819159
#
# Stress axis : x y z
#
# Youngs Moduli (GPa) = 68.35946 123.11352 168.61861
#
# Poissons Ratio (x) = -0.06235 0.41898
# Poissons Ratio (y) = -0.03462 0.55083
# Poissons Ratio (z) = 0.16986 0.40217
#
# Static dielectric constant tensor:
#      x y z
#    x 2.275310 0.000000 0.000000 
#    y 0.000000 2.459110 0.000000 
#    z 0.000000 0.000000 2.090170 
# 
# From -- ./inp_files/9564.got.cif
#   From: 2010.05.17/outbox.cif.g08.bks.cpg/sg22_5_cif.got.tgz:9564.got - 2010.06.03 23:40:54.
