data_PCOD9329145
_publ_section_title
;
Structure prediction by ZEFSAII (Michael W. Deem and Ramdas Pophale) SiO2 
 PCOD9329145
Probable space group: F 2 2 2
;
_chemical_formula_sum "Si O2"
_cell_formula_units_Z 56
_cell_length_a 16.058426
_cell_length_b 29.106232
_cell_length_c 4.869550
_cell_angle_alpha 90.000000
_cell_angle_beta 90.000000
_cell_angle_gamma 90.000000
_cell_volume 2276.028998
_symmetry_space_group_name_H-M "F 2 2 2"
_symmetry_group_IT_number 22
_symmetry_cell_setting 'orthorhombic'
loop_
_space_group_symop_operation_xyz
x,y,z
-x,-y,z
x,-y,-z
-x,y,-z
x,1/2+y,1/2+z
-x,1/2-y,1/2+z
x,1/2-y,1/2-z
-x,1/2+y,1/2-z
1/2+x,y,1/2+z
1/2-x,-y,1/2+z
1/2+x,-y,1/2-z
1/2-x,y,1/2-z
1/2+x,1/2+y,z
1/2-x,1/2-y,z
1/2+x,1/2-y,-z
1/2-x,1/2+y,-z
loop_
_atom_site_type_symbol
_atom_site_label
_atom_site_fract_x
_atom_site_fract_y
_atom_site_fract_z
Si Si1 0.750000 0.818337 0.250000
Si Si2 0.000000 0.677504 0.500000
Si Si3 0.000000 0.891260 0.500000
Si Si4 0.377481 0.750000 0.750000
Si Si5 0.250000 0.380465 0.750000
Si Si6 0.158935 0.552429 0.913767
O O1 0.683644 0.785674 0.101344
O O2 0.720694 0.851029 0.492070
O O3 0.928723 0.714461 0.427939
O O4 0.022652 0.645188 0.242730
O O5 0.930444 0.923879 0.345835
O O6 0.322469 0.414932 0.670221
O O7 0.250000 0.553703 0.750000
O O8 0.146523 0.500000 0.000000
#
# Coordination Sequence:
#
# PCOD9329145 Si02
#       6
#     8   8   8   8   8  16
#     4  11  26  45  76 105 144 199 248 309 380 455
#     4  12  27  50  73 113 154 205 257 326 389 466
#     4  12  30  50  80 113 160 205 260 324 396 474
#     4  11  26  48  72 107 148 194 254 311 376 454
#     4  12  24  46  74 111 150 195 250 316 382 462
#     4  12  27  50  80 117 155 204 258 321 394 472
#
# _framework density 24.604258000000002
#
# number of rings (size 3 to 8) (size 9 to 14) (size 15 to 20)
#    0.000    0.286    2.857    4.714    4.000    6.857 
#    0.000    1.429    0.000    0.000    0.000    0.000 
#    0.000    0.000    0.000    0.000    0.000    0.000 
#
# Total GULP energy -77947.455632 kJ/mol
# GULP energy per Si atom -5567.675402 kJ/mol
# Density = 2.454826 g / cm^3
# Si number density = 24.604258 Si / 1000 Ang^3
#
#
#
# Elastic Constant Matrix: (Units=GPa)
#
#
# Indices 1 2 3 4 5 6 
#
# 1 108.5370 102.5222 36.6191 -0.0292 -0.0081 -0.0093
# 2 102.5222 251.5646 75.9615 -0.0060 -0.0011 -0.0070
# 3 36.6191 75.9615 106.2332 -0.0794 -0.0244 -0.0655
# 4 -0.0292 -0.0060 -0.0794 -21.9609 -0.0057 -0.0872
# 5 -0.0081 -0.0011 -0.0244 -0.0057 26.3212 -0.0309
# 6 -0.0093 -0.0070 -0.0655 -0.0872 -0.0309 -28.6872
#
#
#
# Elastic Compliance Matrix: (Units=1/GPa)
#
#
# Indices 1 2 3 4 5 6 
#
# 1 0.015067 -0.005831 -0.001024 -0.000015 0.000003 -0.000001
# 2 -0.005831 0.007326 -0.003229 0.000017 -0.000004 0.000007
# 3 -0.001024 -0.003229 0.012075 -0.000041 0.000011 -0.000026
# 4 -0.000015 0.000017 -0.000041 -0.045536 -0.000010 0.000139
# 5 0.000003 -0.000004 0.000011 -0.000010 0.037992 -0.000041
# 6 -0.000001 0.000007 -0.000026 0.000139 -0.000041 -0.034859
#
#
# Mechanical properties :
#
#
# Convention : Reuss Voigt Hill
#
# Bulk Modulus (GPa) = 69.92831 99.61561 84.77196
# Shear Modulus (GPa) = 294.10891 11.88339 152.99615
#
# Velocity S-wave (km/s) = 10.94510 2.20007 7.89416
# Velocity P-wave (km/s) = 13.71896 6.85775 10.84525
#
# Compressibility (1/GPa) = 0.01430036
#
# Stress axis : x y z
#
# Youngs Moduli (GPa) = 66.37040 136.49159 82.81627
#
# Poissons Ratio (x) = 0.79590 0.08482
# Poissons Ratio (y) = 0.38701 0.26739
# Poissons Ratio (z) = 0.06797 0.44069
#
# Static dielectric constant tensor:
#      x y z
#    x 2.425410 -0.000010 0.000140 
#    y -0.000010 1.878620 0.000010 
#    z 0.000140 0.000010 2.028180 
# 
# From -- ./inp_files/1975.got.cif
#   From: 2010.05.17/outbox.cif.g08.bks.cpg/sg22_1_cif.got.tgz:1975.got - 2010.06.03 23:40:54.
