data_PCOD9329021
_publ_section_title
;
Structure prediction by ZEFSAII (Michael W. Deem and Ramdas Pophale) SiO2 
 PCOD9329021
Probable space group: F 2 2 2
;
_chemical_formula_sum "Si O2"
_cell_formula_units_Z 96
_cell_length_a 14.491080
_cell_length_b 15.654183
_cell_length_c 20.233791
_cell_angle_alpha 90.000000
_cell_angle_beta 90.000000
_cell_angle_gamma 90.000000
_cell_volume 4589.954921
_symmetry_space_group_name_H-M "F 2 2 2"
_symmetry_group_IT_number 22
_symmetry_cell_setting 'orthorhombic'
loop_
_space_group_symop_operation_xyz
x,y,z
-x,-y,z
x,-y,-z
-x,y,-z
x,1/2+y,1/2+z
-x,1/2-y,1/2+z
x,1/2-y,1/2-z
-x,1/2+y,1/2-z
1/2+x,y,1/2+z
1/2-x,-y,1/2+z
1/2+x,-y,1/2-z
1/2-x,y,1/2-z
1/2+x,1/2+y,z
1/2-x,1/2-y,z
1/2+x,1/2-y,-z
1/2-x,1/2+y,-z
loop_
_atom_site_type_symbol
_atom_site_label
_atom_site_fract_x
_atom_site_fract_y
_atom_site_fract_z
Si Si1 1.000000 0.644866 0.752548
Si Si2 0.689047 0.408298 0.814955
Si Si3 0.750000 0.250000 0.102411
Si Si4 0.130428 0.000000 0.500000
Si Si5 0.750000 0.750000 0.102410
Si Si6 0.500000 0.500000 0.369877
Si Si7 0.189047 0.908298 0.185045
Si Si8 0.611886 0.188969 0.000000
O O1 0.999999 0.750000 0.750000
O O2 0.911018 0.616268 0.711633
O O3 0.088983 0.616269 0.711633
O O4 0.000000 0.585222 0.821340
O O5 0.750000 0.415913 0.750000
O O6 0.735055 0.334074 0.855880
O O7 0.687259 0.500000 0.850135
O O8 0.764945 0.165926 0.144120
O O9 0.655565 0.238257 0.061469
O O10 0.081207 1.000000 0.425700
O O11 0.163814 0.097048 0.500000
O O12 0.655566 0.761743 0.061469
O O13 0.250000 0.915913 0.250000
O O14 0.500000 0.178691 0.000000
#
# Coordination Sequence:
#
# PCOD9329021 Si02
#       8
#    16  16   8   8   8   8  16  16
#     4  12  25  41  72 101 146 189 224 288 360 428
#     4  11  25  43  67 105 142 182 227 288 360 427
#     4  11  27  44  70 102 139 181 240 282 360 433
#     4  11  26  38  74  98 133 192 237 304 332 390
#     4  11  27  44  70 102 139 181 240 282 360 433
#     4  11  24  44  62 114 130 177 254 272 348 417
#     4  11  25  43  67 105 142 182 227 288 360 427
#     4  11  26  47  68 102 129 186 240 297 345 411
#
# _framework density 20.915239
#
# number of rings (size 3 to 8) (size 9 to 14) (size 15 to 20)
#    0.000    0.833    3.333    2.500   14.000    0.000 
#    0.000    0.000    0.000    1.000    0.000    0.000 
#    0.000    0.000    0.000    0.000    0.000    0.000 
#
# Total GULP energy -133699.033823 kJ/mol
# GULP energy per Si atom -5570.793076 kJ/mol
# Density = 2.086763 g / cm^3
# Si number density = 20.915239 Si / 1000 Ang^3
#
#
#
# Elastic Constant Matrix: (Units=GPa)
#
#
# Indices 1 2 3 4 5 6 
#
# 1 115.5757 21.3630 18.3044 0.0000 0.0000 0.0000
# 2 21.3630 192.7095 63.7456 0.0000 0.0000 0.0000
# 3 18.3044 63.7456 101.5845 0.0000 0.0000 0.0000
# 4 0.0000 0.0000 0.0000 -100.4587 0.0000 0.0000
# 5 0.0000 0.0000 0.0000 0.0000 28.8840 0.0000
# 6 0.0000 0.0000 0.0000 0.0000 0.0000 37.1779
#
#
#
# Elastic Compliance Matrix: (Units=1/GPa)
#
#
# Indices 1 2 3 4 5 6 
#
# 1 0.008957 -0.000579 -0.001250 0.000000 0.000000 0.000000
# 2 -0.000579 0.006586 -0.004028 0.000000 0.000000 0.000000
# 3 -0.001250 -0.004028 0.012597 0.000000 0.000000 0.000000
# 4 0.000000 0.000000 0.000000 -0.009954 0.000000 0.000000
# 5 0.000000 0.000000 0.000000 0.000000 0.034621 0.000000
# 6 0.000000 0.000000 0.000000 0.000000 0.000000 0.026898
#
#
# Mechanical properties :
#
#
# Convention : Reuss Voigt Hill
#
# Bulk Modulus (GPa) = 60.88579 68.52174 64.70376
# Shear Modulus (GPa) = 51.60161 13.55110 32.57636
#
# Velocity S-wave (km/s) = 4.97246 2.54816 3.95085
# Velocity P-wave (km/s) = 7.88296 6.44129 7.19831
#
# Compressibility (1/GPa) = 0.01642419
#
# Stress axis : x y z
#
# Youngs Moduli (GPa) = 111.63864 151.83945 79.38285
#
# Poissons Ratio (x) = 0.08797 0.09927
# Poissons Ratio (y) = 0.06468 0.31978
# Poissons Ratio (z) = 0.13960 0.61166
#
# Static dielectric constant tensor:
#      x y z
#    x 1.698560 0.000000 0.000000 
#    y 0.000000 1.999890 0.000000 
#    z 0.000000 0.000000 1.774240 
# 
# From -- ./inp_files/43543.got.cif
#   From: 2010.05.17/outbox.cif.g08.bks.cpg/sg22_22_cif.got.tgz:43543.got - 2010.06.03 23:40:54.
