data_PCOD9329292
_publ_section_title
;
Structure prediction by ZEFSAII (Michael W. Deem and Ramdas Pophale) SiO2 
 PCOD9329292
Probable space group: F 2 2 2
;
_chemical_formula_sum "Si O2"
_cell_formula_units_Z 12
_cell_length_a 18.000000
_cell_length_b 15.000000
_cell_length_c 9.000000
_cell_angle_alpha 90.000000
_cell_angle_beta 90.000000
_cell_angle_gamma 90.000000
_cell_volume 2430.000000
_symmetry_space_group_name_H-M "F 2 2 2"
_symmetry_group_IT_number 22
_symmetry_cell_setting 'orthorhombic'
loop_
_space_group_symop_operation_xyz
x,y,z
-x,-y,z
x,-y,-z
-x,y,-z
x,1/2+y,1/2+z
-x,1/2-y,1/2+z
x,1/2-y,1/2-z
-x,1/2+y,1/2-z
1/2+x,y,1/2+z
1/2-x,-y,1/2+z
1/2+x,-y,1/2-z
1/2-x,y,1/2-z
1/2+x,1/2+y,z
1/2-x,1/2-y,z
1/2+x,1/2-y,-z
1/2-x,1/2+y,-z
loop_
_atom_site_type_symbol
_atom_site_label
_atom_site_fract_x
_atom_site_fract_y
_atom_site_fract_z
Si Si1 0.345540 0.160411 0.649047
Si Si2 0.074236 0.732832 0.921941
Si Si3 0.816447 0.097224 0.439899
O O1 0.346395 0.250000 0.750000
O O2 0.400814 0.179361 0.514875
O O3 0.264206 0.140581 0.586399
O O4 0.358143 0.089755 0.779907
O O5 0.062499 0.750000 0.750000
O O6 0.138052 0.660589 0.950871
O O7 0.000000 0.699145 0.000000
O O8 0.805590 0.000000 0.500000
#
# Coordination Sequence:
#
# PCOD9329292 Si02
#       3
#    16  16  16
#     4   9  19  38  58  80 113 150 187 224 269 333
#     4  11  22  37  58  80 108 148 192 231 274 332
#     4  10  20  35  58  84 114 144 176 229 283 327
#
# _framework density 4.9382720000000004
#
# number of rings (size 3 to 8) (size 9 to 14) (size 15 to 20)
#    0.000    2.000    0.000   10.000    0.000    8.667 
#    0.000    0.000    0.000    7.000    0.000    0.000 
#    0.000    0.000    0.000    0.000    0.000    0.000 
#
# Total GULP energy -66827.392526 kJ/mol
# GULP energy per Si atom -5568.949377 kJ/mol
# Density = 0.492703 g / cm^3
# Si number density = 4.938272 Si / 1000 Ang^3
#
#
#
# Elastic Constant Matrix: (Units=GPa)
#
#
# Indices 1 2 3 4 5 6 
#
# 1 41.0860 11.3454 30.1597 0.0000 0.0000 0.0000
# 2 11.3454 35.9184 35.7465 0.0000 0.0000 0.0000
# 3 30.1597 35.7465 137.7265 0.0000 0.0000 0.0000
# 4 0.0000 0.0000 0.0000 17.4140 0.0000 0.0000
# 5 0.0000 0.0000 0.0000 0.0000 30.1405 0.0000
# 6 0.0000 0.0000 0.0000 0.0000 0.0000 -3.6852
#
#
#
# Elastic Compliance Matrix: (Units=1/GPa)
#
#
# Indices 1 2 3 4 5 6 
#
# 1 0.029397 -0.003881 -0.005430 0.000000 0.000000 0.000000
# 2 -0.003881 0.038049 -0.009026 0.000000 0.000000 0.000000
# 3 -0.005430 -0.009026 0.010792 0.000000 0.000000 0.000000
# 4 0.000000 0.000000 0.000000 0.057425 0.000000 0.000000
# 5 0.000000 0.000000 0.000000 0.000000 0.033178 0.000000
# 6 0.000000 0.000000 0.000000 0.000000 0.000000 -0.271353
#
#
# Mechanical properties :
#
#
# Convention : Reuss Voigt Hill
#
# Bulk Modulus (GPa) = 24.05895 41.02600 32.54247
# Shear Modulus (GPa) = -96.18611 17.93915 -39.12348
#
# Velocity S-wave (km/s) = -6.98569 3.01685 -4.45525
# Velocity P-wave (km/s) = 7.27051 5.74018 3.15520
#
# Compressibility (1/GPa) = 0.04156458
#
# Stress axis : x y z
#
# Youngs Moduli (GPa) = 34.01708 26.28164 92.65765
#
# Poissons Ratio (x) = 0.10201 0.50313
# Poissons Ratio (y) = 0.13204 0.83629
# Poissons Ratio (z) = 0.18471 0.23721
#
# Static dielectric constant tensor:
#      x y z
#    x 1.707510 0.000000 0.000000 
#    y 0.000000 1.738670 0.000000 
#    z 0.000000 0.000000 1.760040 
# 
# From -- ./inp_files/9085.got.cif
#   From: 2010.05.17/outbox.ucp.g08.bks.cvg/sg22_5_cif.got.tgz:9085.got - 2010.06.11 15:16:44.
