data_PCOD9329318
_publ_section_title
;
Structure prediction by ZEFSAII (Michael W. Deem and Ramdas Pophale) SiO2 
 PCOD9329318
Probable space group: F 2 2 2
;
_chemical_formula_sum "Si O2"
_cell_formula_units_Z 22
_cell_length_a 24.000000
_cell_length_b 12.000000
_cell_length_c 15.000000
_cell_angle_alpha 90.000000
_cell_angle_beta 90.000000
_cell_angle_gamma 90.000000
_cell_volume 4320.000000
_symmetry_space_group_name_H-M "F 2 2 2"
_symmetry_group_IT_number 22
_symmetry_cell_setting 'orthorhombic'
loop_
_space_group_symop_operation_xyz
x,y,z
-x,-y,z
x,-y,-z
-x,y,-z
x,1/2+y,1/2+z
-x,1/2-y,1/2+z
x,1/2-y,1/2-z
-x,1/2+y,1/2-z
1/2+x,y,1/2+z
1/2-x,-y,1/2+z
1/2+x,-y,1/2-z
1/2-x,y,1/2-z
1/2+x,1/2+y,z
1/2-x,1/2-y,z
1/2+x,1/2-y,-z
1/2-x,1/2+y,-z
loop_
_atom_site_type_symbol
_atom_site_label
_atom_site_fract_x
_atom_site_fract_y
_atom_site_fract_z
Si Si1 0.979461 0.156675 0.309378
Si Si2 0.379396 0.982202 0.597748
Si Si3 0.591376 0.236229 0.854102
Si Si4 0.685018 0.616744 0.745344
Si Si5 0.500000 0.000000 0.343042
Si Si6 0.385133 0.006892 0.895782
O O1 0.947887 0.250000 0.250000
O O2 0.939938 0.068887 0.356664
O O3 0.025879 0.208519 0.374307
O O4 0.012223 0.096760 0.228324
O O5 0.385245 0.848757 0.605329
O O6 0.354920 0.000000 0.500000
O O7 0.347943 0.046923 0.677671
O O8 0.444041 0.023943 0.603618
O O9 0.596851 0.250000 0.750000
O O10 0.622038 0.121473 0.871728
O O11 0.677885 0.750000 0.750000
O O12 0.750000 0.591393 0.750000
O O13 0.663087 0.576849 0.649744
O O14 0.388907 0.000000 0.000000
#
# Coordination Sequence:
#
# PCOD9329318 Si02
#       6
#    16  16  16  16   8  16
#     4  11  19  36  64  89 141 186 217 266 332 404
#     4  12  26  42  69 102 136 178 233 284 340 414
#     4  11  20  42  63  94 138 178 225 272 328 406
#     4  11  26  50  74  97 136 181 228 293 359 414
#     4  12  19  38  61  96 132 184 221 258 341 412
#     4  12  25  40  68  99 132 177 233 281 342 404
#
# _framework density 5.0925929999999999
#
# number of rings (size 3 to 8) (size 9 to 14) (size 15 to 20)
#    0.000    0.545    9.091    0.818    2.545    2.182 
#    3.273    1.818    0.000    0.000    0.000    0.000 
#    0.000    0.000    0.000    0.000    0.000    0.000 
#
# Total GULP energy -122510.768191 kJ/mol
# GULP energy per Si atom -5568.671281 kJ/mol
# Density = 0.508100 g / cm^3
# Si number density = 5.092593 Si / 1000 Ang^3
#
#
#
# Elastic Constant Matrix: (Units=GPa)
#
#
# Indices 1 2 3 4 5 6 
#
# 1 46.4245 -0.8608 -20.9146 0.0000 0.0000 0.0000
# 2 -0.8608 134.6679 21.1573 0.0000 0.0000 0.0000
# 3 -20.9146 21.1573 63.8459 0.0000 0.0000 0.0000
# 4 0.0000 0.0000 0.0000 20.8631 0.0000 0.0000
# 5 0.0000 0.0000 0.0000 0.0000 -4.7690 0.0000
# 6 0.0000 0.0000 0.0000 0.0000 0.0000 14.4548
#
#
#
# Elastic Compliance Matrix: (Units=1/GPa)
#
#
# Indices 1 2 3 4 5 6 
#
# 1 0.025455 -0.001210 0.008740 0.000000 0.000000 0.000000
# 2 -0.001210 0.007891 -0.003011 0.000000 0.000000 0.000000
# 3 0.008740 -0.003011 0.019524 0.000000 0.000000 0.000000
# 4 0.000000 0.000000 0.000000 0.047932 0.000000 0.000000
# 5 0.000000 0.000000 0.000000 0.000000 -0.209687 0.000000
# 6 0.000000 0.000000 0.000000 0.000000 0.000000 0.069181
#
#
# Mechanical properties :
#
#
# Convention : Reuss Voigt Hill
#
# Bulk Modulus (GPa) = 16.15361 27.07800 21.61581
# Shear Modulus (GPa) = -177.90662 22.48021 -77.71321
#
# Velocity S-wave (km/s) = -9.35551 3.32561 -6.18328
# Velocity P-wave (km/s) = 10.42850 5.29792 6.35160
#
# Compressibility (1/GPa) = 0.06190566
#
# Stress axis : x y z
#
# Youngs Moduli (GPa) = 39.28470 126.72579 51.22013
#
# Poissons Ratio (x) = 0.15338 -0.44765
# Poissons Ratio (y) = 0.04755 0.15425
# Poissons Ratio (z) = -0.34334 0.38163
#
# Static dielectric constant tensor:
#      x y z
#    x 1.779490 0.000000 0.000000 
#    y 0.000000 2.032660 0.000000 
#    z 0.000000 0.000000 1.704050 
# 
# From -- ./inp_files/20143.got.cif
#   From: 2010.05.17/outbox.ucp.g08.bks.cvg/sg22_11_cif.got.tgz:20143.got - 2010.06.11 15:16:44.
