data_PCOD9329814
_publ_section_title
;
Structure prediction by ZEFSAII (Michael W. Deem and Ramdas Pophale) SiO2 
 PCOD9329814
Probable space group: I 2 2 2
;
_chemical_formula_sum "Si O2"
_cell_formula_units_Z 64
_cell_length_a 16.196450
_cell_length_b 16.843322
_cell_length_c 14.397645
_cell_angle_alpha 90.000000
_cell_angle_beta 90.000000
_cell_angle_gamma 90.000000
_cell_volume 3927.706677
_symmetry_space_group_name_H-M "I 2 2 2"
_symmetry_group_IT_number 23
_symmetry_cell_setting 'orthorhombic'
loop_
_space_group_symop_operation_xyz
x,y,z
-x,-y,z
x,-y,-z
-x,y,-z
1/2+x,1/2+y,1/2+z
1/2-x,1/2-y,1/2+z
1/2+x,1/2-y,1/2-z
1/2-x,1/2+y,1/2-z
loop_
_atom_site_type_symbol
_atom_site_label
_atom_site_fract_x
_atom_site_fract_y
_atom_site_fract_z
Si Si1 0.839758 0.810260 0.110138
Si Si2 0.160242 0.189740 0.889862
Si Si3 0.168527 0.404895 0.607741
Si Si4 0.831473 0.404895 0.607741
Si Si5 0.500000 0.410991 0.612334
Si Si6 0.600110 0.000000 0.605244
Si Si7 0.402805 0.840093 0.711194
Si Si8 0.902805 0.340093 0.788806
O O1 0.757331 0.862364 0.119776
O O2 0.848124 0.732164 0.172964
O O3 0.917696 0.864302 0.137335
O O4 0.847652 0.788933 1.000000
O O5 0.242669 0.137636 0.880224
O O6 0.082304 0.135698 0.862665
O O7 0.151876 0.267836 0.827036
O O8 0.173137 0.500000 0.625337
O O9 0.143681 0.395058 0.500000
O O10 0.109583 0.361782 0.681155
O O11 0.890417 0.361782 0.681155
O O12 0.500000 0.500000 0.649429
O O13 0.500000 0.415391 0.500000
O O14 0.623835 0.919855 0.657361
O O15 0.500000 0.000000 0.604180
O O16 0.630046 0.000000 0.500000
O O17 0.623835 0.080145 0.657361
O O18 0.500000 0.824156 0.691464
#
# Coordination Sequence:
#
# PCOD9329814 Si02
#       8
#     8   8   8   8   8   8   8   8
#     4  10  19  32  52  77 105 133 165 212 262 309
#     4  10  19  32  52  77 105 133 165 212 262 309
#     4  10  21  36  52  73 104 140 176 213 254 300
#     4  10  21  36  52  73 104 140 176 213 254 300
#     4   9  16  28  48  75 104 131 160 199 256 315
#     4   9  18  30  47  71 101 134 164 203 252 305
#     4  11  20  33  51  75 105 137 174 210 255 305
#     4  11  20  33  51  75 105 137 174 210 255 305
#
# _framework density 16.294495999999999
#
# number of rings (size 3 to 8) (size 9 to 14) (size 15 to 20)
#    0.000    2.000    2.500    2.250    0.000    4.500 
#    0.000    1.250    0.000    0.000    0.000    0.000 
#    0.000    1.000    0.000    0.000    0.000    0.000 
#
# Total GULP energy -178374.058058 kJ/mol
# GULP energy per Si atom -5574.189314 kJ/mol
# Density = 1.625741 g / cm^3
# Si number density = 16.294496 Si / 1000 Ang^3
#
#
#
# Elastic Constant Matrix: (Units=GPa)
#
#
# Indices 1 2 3 4 5 6 
#
# 1 14.5456 2.3985 3.1812 0.0000 0.0000 0.0000
# 2 2.3985 102.4255 33.6582 0.0000 0.0000 0.0000
# 3 3.1812 33.6582 65.0990 0.0000 0.0000 0.0000
# 4 0.0000 0.0000 0.0000 24.6227 0.0000 0.0000
# 5 0.0000 0.0000 0.0000 0.0000 23.2541 0.0000
# 6 0.0000 0.0000 0.0000 0.0000 0.0000 18.4359
#
#
#
# Elastic Compliance Matrix: (Units=1/GPa)
#
#
# Indices 1 2 3 4 5 6 
#
# 1 0.069524 -0.000616 -0.003079 0.000000 0.000000 0.000000
# 2 -0.000616 0.011767 -0.006054 0.000000 0.000000 0.000000
# 3 -0.003079 -0.006054 0.018642 0.000000 0.000000 0.000000
# 4 0.000000 0.000000 0.000000 0.040613 0.000000 0.000000
# 5 0.000000 0.000000 0.000000 0.000000 0.043003 0.000000
# 6 0.000000 0.000000 0.000000 0.000000 0.000000 0.054242
#
#
# Mechanical properties :
#
#
# Convention : Reuss Voigt Hill
#
# Bulk Modulus (GPa) = 12.43239 28.94955 20.69097
# Shear Modulus (GPa) = 17.59943 22.78470 20.19207
#
# Velocity S-wave (km/s) = 3.29003 3.74345 3.52404
# Velocity P-wave (km/s) = 4.69880 6.04066 5.41149
#
# Compressibility (1/GPa) = 0.08043506
#
# Stress axis : x y z
#
# Youngs Moduli (GPa) = 14.38349 84.98372 53.64330
#
# Poissons Ratio (x) = 0.05238 0.16515
# Poissons Ratio (y) = 0.00887 0.32474
# Poissons Ratio (z) = 0.04428 0.51447
#
# Static dielectric constant tensor:
#      x y z
#    x 1.537470 0.000000 0.000000 
#    y 0.000000 1.540750 0.000000 
#    z 0.000000 0.000000 1.552460 
# 
# From -- ./inp_files/21785.got.cif
#   From: 2010.05.17/outbox.cif.g08.bks.cpg/sg23_11_cif.got.tgz:21785.got - 2010.06.04 12:02:01.
