data_PCOD9329264
_publ_section_title
;
Structure prediction by ZEFSAII (Michael W. Deem and Ramdas Pophale) SiO2 
 PCOD9329264
Probable space group: F 2 2 2
;
_chemical_formula_sum "Si O2"
_cell_formula_units_Z 44
_cell_length_a 13.203927
_cell_length_b 5.687972
_cell_length_c 23.245481
_cell_angle_alpha 90.000000
_cell_angle_beta 90.000000
_cell_angle_gamma 90.000000
_cell_volume 1745.818541
_symmetry_space_group_name_H-M "F 2 2 2"
_symmetry_group_IT_number 22
_symmetry_cell_setting 'orthorhombic'
loop_
_space_group_symop_operation_xyz
x,y,z
-x,-y,z
x,-y,-z
-x,y,-z
x,1/2+y,1/2+z
-x,1/2-y,1/2+z
x,1/2-y,1/2-z
-x,1/2+y,1/2-z
1/2+x,y,1/2+z
1/2-x,-y,1/2+z
1/2+x,-y,1/2-z
1/2-x,y,1/2-z
1/2+x,1/2+y,z
1/2-x,1/2-y,z
1/2+x,1/2-y,-z
1/2-x,1/2+y,-z
loop_
_atom_site_type_symbol
_atom_site_label
_atom_site_fract_x
_atom_site_fract_y
_atom_site_fract_z
Si Si1 0.750000 0.750000 0.250000
Si Si2 0.352368 0.115857 0.830478
Si Si3 0.140063 0.155931 0.447360
Si Si4 0.500000 0.000000 0.626233
O O1 0.669344 0.603998 0.288919
O O2 0.250000 0.250000 0.818355
O O3 0.444181 0.304065 0.833602
O O4 0.348985 0.021531 0.894752
O O5 0.250000 0.250000 0.464519
O O6 0.075502 0.364697 0.417790
O O7 0.101255 0.000000 0.500000
#
# Coordination Sequence:
#
# PCOD9329264 Si02
#       4
#     4  16  16   8
#     4  12  26  52  96 118 172 232 280 362 422 504
#     4  12  25  52  89 118 172 222 284 350 424 501
#     4  12  27  51  83 123 170 219 278 351 425 503
#     4  12  28  51  86 122 172 226 284 345 428 516
#
# _framework density 25.203081000000001
#
# number of rings (size 3 to 8) (size 9 to 14) (size 15 to 20)
#    0.000    0.000    5.455    2.727    0.000    4.364 
#    0.000    0.000  112.000    0.000    0.000    0.000 
#    0.000    0.000    0.000    0.000    0.000    0.000 
#
# Total GULP energy -61500.405081 kJ/mol
# GULP energy per Si atom -5590.945916 kJ/mol
# Density = 2.514572 g / cm^3
# Si number density = 25.203081 Si / 1000 Ang^3
#
#
#
# Elastic Constant Matrix: (Units=GPa)
#
#
# Indices 1 2 3 4 5 6 
#
# 1 177.8766 73.8224 47.5444 0.0000 0.0000 0.0000
# 2 73.8224 137.8378 84.5199 0.0000 0.0000 0.0000
# 3 47.5444 84.5199 183.0051 0.0000 0.0000 0.0000
# 4 0.0000 0.0000 0.0000 -14.6639 0.0000 0.0000
# 5 0.0000 0.0000 0.0000 0.0000 -6.2758 0.0000
# 6 0.0000 0.0000 0.0000 0.0000 0.0000 13.0321
#
#
#
# Elastic Compliance Matrix: (Units=1/GPa)
#
#
# Indices 1 2 3 4 5 6 
#
# 1 0.007231 -0.003796 -0.000126 0.000000 0.000000 0.000000
# 2 -0.003796 0.012114 -0.004608 0.000000 0.000000 0.000000
# 3 -0.000126 -0.004608 0.007625 0.000000 0.000000 0.000000
# 4 0.000000 0.000000 0.000000 -0.068195 0.000000 0.000000
# 5 0.000000 0.000000 0.000000 0.000000 -0.159342 0.000000
# 6 0.000000 0.000000 0.000000 0.000000 0.000000 0.076734
#
#
# Mechanical properties :
#
#
# Convention : Reuss Voigt Hill
#
# Bulk Modulus (GPa) = 100.90467 101.16590 101.03529
# Shear Modulus (GPa) = -48.32294 17.94066 -15.19114
#
# Velocity S-wave (km/s) = -4.38350 2.67093 -2.45776
# Velocity P-wave (km/s) = 3.80835 7.05261 5.66757
#
# Compressibility (1/GPa) = 0.00991034
#
# Stress axis : x y z
#
# Youngs Moduli (GPa) = 138.29968 82.55203 131.14144
#
# Poissons Ratio (x) = 0.31333 0.01646
# Poissons Ratio (y) = 0.52493 0.60437
# Poissons Ratio (z) = 0.01736 0.38044
#
# Static dielectric constant tensor:
#      x y z
#    x 2.077710 0.000000 0.000000 
#    y 0.000000 2.113050 0.000000 
#    z 0.000000 0.000000 1.886040 
# 
# From -- ./inp_files/52882.got.cif
#   From: 2010.05.17/outbox.cif.g08.bks.cpg/sg22_27_cif.got.tgz:52882.got - 2010.06.03 23:40:54.
