data_PCOD9329784
_publ_section_title
;
Structure prediction by ZEFSAII (Michael W. Deem and Ramdas Pophale) SiO2 
 PCOD9329784
Probable space group: I 2 2 2
;
_chemical_formula_sum "Si O2"
_cell_formula_units_Z 36
_cell_length_a 15.512597
_cell_length_b 24.842212
_cell_length_c 5.267546
_cell_angle_alpha 90.000000
_cell_angle_beta 90.000000
_cell_angle_gamma 90.000000
_cell_volume 2029.939576
_symmetry_space_group_name_H-M "I 2 2 2"
_symmetry_group_IT_number 23
_symmetry_cell_setting 'orthorhombic'
loop_
_space_group_symop_operation_xyz
x,y,z
-x,-y,z
x,-y,-z
-x,y,-z
1/2+x,1/2+y,1/2+z
1/2-x,1/2-y,1/2+z
1/2+x,1/2-y,1/2-z
1/2-x,1/2+y,1/2-z
loop_
_atom_site_type_symbol
_atom_site_label
_atom_site_fract_x
_atom_site_fract_y
_atom_site_fract_z
Si Si1 0.000000 0.899464 0.000000
Si Si2 0.765981 0.871757 0.525744
Si Si3 0.192256 0.937663 0.967794
Si Si4 0.802914 0.265491 0.053340
Si Si5 0.429876 0.306133 0.168239
O O1 0.912323 0.932110 0.043585
O O2 0.979007 0.858038 0.775882
O O3 0.774600 0.903329 0.790735
O O4 0.688519 0.828810 0.506781
O O5 0.849364 0.832092 0.519503
O O6 0.771309 0.911732 0.289491
O O7 0.214592 0.000000 0.000000
O O8 0.747555 0.259847 0.314212
O O9 0.888183 0.231183 0.115200
O O10 0.500000 0.275657 0.000000
#
# Coordination Sequence:
#
# PCOD9329784 Si02
#       5
#     4   8   8   8   8
#     4  10  19  32  44  72 104 132 171 208 252 294
#     4  10  20  35  47  70  99 133 176 214 250 296
#     4  11  21  33  50  68  97 137 179 216 247 287
#     4  10  20  33  51  71  97 140 176 209 260 312
#     4  10  19  31  51  71 104 135 173 205 255 310
#
# _framework density 17.734515999999999
#
# number of rings (size 3 to 8) (size 9 to 14) (size 15 to 20)
#    0.000    1.778    2.222    5.000    3.111    0.000 
#    0.000    2.222    0.000    0.000    0.000    0.000 
#    0.000    0.889    0.444    0.000    0.889    0.000 
#
# Total GULP energy -100343.718814 kJ/mol
# GULP energy per Si atom -5574.651045 kJ/mol
# Density = 1.769415 g / cm^3
# Si number density = 17.734516 Si / 1000 Ang^3
#
#
#
# Elastic Constant Matrix: (Units=GPa)
#
#
# Indices 1 2 3 4 5 6 
#
# 1 14.1553 20.7353 17.5076 0.0000 0.0001 0.0035
# 2 20.7353 103.4839 25.4220 0.0000 0.0000 0.0020
# 3 17.5076 25.4220 99.5939 0.0000 0.0007 0.0243
# 4 0.0000 0.0000 0.0000 23.5454 0.0000 -0.0028
# 5 0.0001 0.0000 0.0007 0.0000 25.0804 0.0049
# 6 0.0035 0.0020 0.0243 -0.0028 0.0049 -747.8705
#
#
#
# Elastic Compliance Matrix: (Units=1/GPa)
#
#
# Indices 1 2 3 4 5 6 
#
# 1 0.119765 -0.020085 -0.015927 0.000000 0.000000 0.000000
# 2 -0.020085 0.013678 0.000039 0.000000 0.000000 0.000000
# 3 -0.015927 0.000039 0.012831 0.000000 0.000000 0.000000
# 4 0.000000 0.000000 0.000000 0.042471 0.000000 0.000000
# 5 0.000000 0.000000 0.000000 0.000000 0.039872 0.000000
# 6 0.000000 0.000000 0.000000 0.000000 0.000000 -0.001337
#
#
# Mechanical properties :
#
#
# Convention : Reuss Voigt Hill
#
# Bulk Modulus (GPa) = 13.45368 38.28477 25.86923
# Shear Modulus (GPa) = 15.43203 -129.61108 -57.08953
#
# Velocity S-wave (km/s) = 2.95306 -8.55820 -5.67988
# Velocity P-wave (km/s) = 4.38521 8.71908 5.32881
#
# Compressibility (1/GPa) = 0.07432910
#
# Stress axis : x y z
#
# Youngs Moduli (GPa) = 8.34965 73.10919 77.93928
#
# Poissons Ratio (x) = 1.46840 1.24132
# Poissons Ratio (y) = 0.16770 -0.00306
# Poissons Ratio (z) = 0.13298 -0.00287
#
# Static dielectric constant tensor:
#      x y z
#    x 1.691690 0.000000 0.000000 
#    y 0.000000 1.612300 0.000000 
#    z 0.000000 0.000000 2.495980 
# 
# From -- ./inp_files/3204.got.cif
#   From: 2010.05.17/outbox.cif.g08.bks.cpg/sg23_2_cif.got.tgz:3204.got - 2010.06.04 12:02:01.
