data_PCOD9329255
_publ_section_title
;
Structure prediction by ZEFSAII (Michael W. Deem and Ramdas Pophale) SiO2 
 PCOD9329255
Probable space group: F 2 2 2
;
_chemical_formula_sum "Si O2"
_cell_formula_units_Z 64
_cell_length_a 18.889745
_cell_length_b 5.165989
_cell_length_c 31.642556
_cell_angle_alpha 90.000000
_cell_angle_beta 90.000000
_cell_angle_gamma 90.000000
_cell_volume 3087.813984
_symmetry_space_group_name_H-M "F 2 2 2"
_symmetry_group_IT_number 22
_symmetry_cell_setting 'orthorhombic'
loop_
_space_group_symop_operation_xyz
x,y,z
-x,-y,z
x,-y,-z
-x,y,-z
x,1/2+y,1/2+z
-x,1/2-y,1/2+z
x,1/2-y,1/2-z
-x,1/2+y,1/2-z
1/2+x,y,1/2+z
1/2-x,-y,1/2+z
1/2+x,-y,1/2-z
1/2-x,y,1/2-z
1/2+x,1/2+y,z
1/2-x,1/2-y,z
1/2+x,1/2-y,-z
1/2-x,1/2+y,-z
loop_
_atom_site_type_symbol
_atom_site_label
_atom_site_fract_x
_atom_site_fract_y
_atom_site_fract_z
Si Si1 0.000000 0.000000 0.500000
Si Si2 0.750000 0.250000 0.750000
Si Si3 0.922517 0.875262 0.877325
Si Si4 0.828728 0.639109 0.703959
Si Si5 0.891213 0.862412 0.431369
Si Si6 0.250000 0.750000 0.524373
O O1 0.948020 0.838205 0.469420
O O2 0.807588 0.350459 0.715898
O O3 0.883299 0.828670 0.833122
O O4 0.916873 0.609655 0.903957
O O5 0.886324 0.103731 0.903841
O O6 0.000000 0.000000 0.870521
O O7 0.849944 0.750000 0.750000
O O8 0.750000 0.750000 0.694264
O O9 0.813044 0.889831 0.450237
O O10 0.217429 0.500000 0.500000
#
# Coordination Sequence:
#
# PCOD9329255 Si02
#       6
#     4   4  16  16  16   8
#     4  12  24  54  72  94 148 196 232 286 376 434
#     4   8  18  42  68 102 120 196 212 272 358 434
#     4  12  26  46  65 109 136 182 241 290 351 423
#     4   9  22  42  70  98 138 182 232 279 362 420
#     4  12  28  44  73  99 142 187 235 300 354 426
#     4  12  26  45  70 108 137 180 249 294 362 427
#
# _framework density 20.726638999999999
#
# number of rings (size 3 to 8) (size 9 to 14) (size 15 to 20)
#    0.000    1.250    3.750    1.500   10.500    1.000 
#    2.250    0.000    0.000    0.000    0.000    0.000 
#    0.000    0.000    0.000    0.000    0.000    0.000 
#
# Total GULP energy -89074.654197 kJ/mol
# GULP energy per Si atom -5567.165887 kJ/mol
# Density = 2.067946 g / cm^3
# Si number density = 20.726639 Si / 1000 Ang^3
#
#
#
# Elastic Constant Matrix: (Units=GPa)
#
#
# Indices 1 2 3 4 5 6 
#
# 1 106.1855 9.8821 66.3686 0.0001 0.0016 0.0001
# 2 9.8821 87.4968 43.5986 0.0004 0.0136 0.0004
# 3 66.3686 43.5986 123.3761 0.0001 -0.0006 0.0000
# 4 0.0001 0.0004 0.0001 39.0823 -0.0047 -0.0001
# 5 0.0016 0.0136 -0.0006 -0.0047 -430.9264 -0.0065
# 6 0.0001 0.0004 0.0000 -0.0001 -0.0065 41.6522
#
#
#
# Elastic Compliance Matrix: (Units=1/GPa)
#
#
# Indices 1 2 3 4 5 6 
#
# 1 0.014721 0.002771 -0.008899 0.000000 0.000000 0.000000
# 2 0.002771 0.014393 -0.006577 0.000000 0.000000 0.000000
# 3 -0.008899 -0.006577 0.015216 0.000000 0.000000 0.000000
# 4 0.000000 0.000000 0.000000 0.025587 0.000000 0.000000
# 5 0.000000 0.000000 0.000000 0.000000 -0.002321 0.000000
# 6 0.000000 0.000000 0.000000 0.000000 0.000000 0.024008
#
#
# Mechanical properties :
#
#
# Convention : Reuss Voigt Hill
#
# Bulk Modulus (GPa) = 52.84725 61.86189 57.35457
# Shear Modulus (GPa) = 40.54434 -56.89111 -8.17338
#
# Velocity S-wave (km/s) = 4.42763 -5.24480 -1.98796
# Velocity P-wave (km/s) = 7.18966 2.60112 4.73948
#
# Compressibility (1/GPa) = 0.01892246
#
# Stress axis : x y z
#
# Youngs Moduli (GPa) = 67.92852 69.47693 65.71877
#
# Poissons Ratio (x) = -0.19254 0.58480
# Poissons Ratio (y) = -0.18825 0.43224
# Poissons Ratio (z) = 0.60446 0.45696
#
# Static dielectric constant tensor:
#      x y z
#    x 1.737170 0.000000 0.000000 
#    y 0.000000 1.846020 0.000000 
#    z 0.000000 0.000000 1.732910 
# 
# From -- ./inp_files/2916.got.cif
#   From: 2010.05.17/outbox.cif.g08.bks.cpg/sg22_2_cif.got.tgz:2916.got - 2010.06.03 23:40:54.
