data_PCOD9329831
_publ_section_title
;
Structure prediction by ZEFSAII (Michael W. Deem and Ramdas Pophale) SiO2 
 PCOD9329831
Probable space group: I 2 2 2
;
_chemical_formula_sum "Si O2"
_cell_formula_units_Z 52
_cell_length_a 10.454596
_cell_length_b 19.053069
_cell_length_c 13.463166
_cell_angle_alpha 90.000000
_cell_angle_beta 90.000000
_cell_angle_gamma 90.000000
_cell_volume 2681.756833
_symmetry_space_group_name_H-M "I 2 2 2"
_symmetry_group_IT_number 23
_symmetry_cell_setting 'orthorhombic'
loop_
_space_group_symop_operation_xyz
x,y,z
-x,-y,z
x,-y,-z
-x,y,-z
1/2+x,1/2+y,1/2+z
1/2-x,1/2-y,1/2+z
1/2+x,1/2-y,1/2-z
1/2-x,1/2+y,1/2-z
loop_
_atom_site_type_symbol
_atom_site_label
_atom_site_fract_x
_atom_site_fract_y
_atom_site_fract_z
Si Si1 0.471316 0.242125 0.105648
Si Si2 0.500000 0.500000 0.162519
Si Si3 0.311581 0.838171 0.205722
Si Si4 0.286300 0.500000 0.000000
Si Si5 0.030765 0.142724 0.780977
Si Si6 0.314657 0.722653 0.383436
Si Si7 0.000000 0.312562 0.000000
Si Si8 0.081531 0.570519 0.868180
O O1 0.582356 0.186768 0.129068
O O2 0.471441 0.300630 0.191194
O O3 0.332915 0.205609 0.101019
O O4 0.500000 0.277076 0.000000
O O5 0.380793 0.519395 0.090320
O O6 0.527163 0.566916 0.230750
O O7 0.311550 0.778439 0.291991
O O8 0.355044 0.907444 0.265216
O O9 0.168025 0.846621 0.166900
O O10 0.192085 0.442093 0.048902
O O11 0.910869 0.161376 0.850449
O O12 0.378844 0.764061 0.475523
O O13 0.993714 0.365079 0.093832
O O14 0.000000 0.500000 0.862724
#
# Coordination Sequence:
#
# PCOD9329831 Si02
#       8
#     8   4   8   4   8   8   4   8
#     4  10  22  38  60  87 115 154 201 256 292 344
#     4  11  24  34  58  83 122 162 186 249 290 372
#     4   9  20  38  54  81 121 155 194 236 289 355
#     4  11  21  34  50  92 123 153 192 224 300 363
#     4  10  21  40  56  86 119 158 194 235 306 359
#     4   9  21  36  55  85 115 153 197 238 294 349
#     4  10  19  32  58  85 114 148 192 246 288 349
#     4  11  19  34  56  88 121 155 186 233 298 366
#
# _framework density 19.390274999999999
#
# number of rings (size 3 to 8) (size 9 to 14) (size 15 to 20)
#    0.000    2.000    3.077    0.000    4.308    1.231 
#    8.308    0.000    0.000    0.923    0.000    0.000 
#    0.000    0.000    0.000    0.000    0.000    0.000 
#
# Total GULP energy -144973.299364 kJ/mol
# GULP energy per Si atom -5575.896129 kJ/mol
# Density = 1.934614 g / cm^3
# Si number density = 19.390275 Si / 1000 Ang^3
#
#
#
# Elastic Constant Matrix: (Units=GPa)
#
#
# Indices 1 2 3 4 5 6 
#
# 1 143.7697 46.2338 34.8479 0.0000 0.0000 0.0000
# 2 46.2338 76.8929 21.8874 0.0000 0.0000 0.0000
# 3 34.8479 21.8874 36.5707 0.0000 0.0000 0.0000
# 4 0.0000 0.0000 0.0000 16.5450 0.0000 0.0000
# 5 0.0000 0.0000 0.0000 0.0000 28.2098 0.0000
# 6 0.0000 0.0000 0.0000 0.0000 0.0000 18.7307
#
#
#
# Elastic Compliance Matrix: (Units=1/GPa)
#
#
# Indices 1 2 3 4 5 6 
#
# 1 0.009953 -0.003960 -0.007115 0.000000 0.000000 0.000000
# 2 -0.003960 0.017251 -0.006551 0.000000 0.000000 0.000000
# 3 -0.007115 -0.006551 0.038045 0.000000 0.000000 0.000000
# 4 0.000000 0.000000 0.000000 0.060441 0.000000 0.000000
# 5 0.000000 0.000000 0.000000 0.000000 0.035449 0.000000
# 6 0.000000 0.000000 0.000000 0.000000 0.000000 0.053388
#
#
# Mechanical properties :
#
#
# Convention : Reuss Voigt Hill
#
# Bulk Modulus (GPa) = 33.33608 51.46351 42.39980
# Shear Modulus (GPa) = 19.24721 22.98138 21.11430
#
# Velocity S-wave (km/s) = 3.15401 3.44641 3.30345
# Velocity P-wave (km/s) = 5.52206 6.51425 6.03857
#
# Compressibility (1/GPa) = 0.02999752
#
# Stress axis : x y z
#
# Youngs Moduli (GPa) = 100.46814 57.96856 26.28475
#
# Poissons Ratio (x) = 0.22953 0.18701
# Poissons Ratio (y) = 0.39781 0.17220
# Poissons Ratio (z) = 0.71480 0.37978
#
# Static dielectric constant tensor:
#      x y z
#    x 1.720390 0.000000 0.000000 
#    y 0.000000 1.655550 0.000000 
#    z 0.000000 0.000000 1.676250 
# 
# From -- ./inp_files/20174.got.cif
#   From: 2010.05.17/outbox.cif.g08.bks.cpg/sg23_11_cif.got.tgz:20174.got - 2010.06.04 12:02:01.
