data_PCOD9329669
_publ_section_title
;
Structure prediction by ZEFSAII (Michael W. Deem and Ramdas Pophale) SiO2 
 PCOD9329669
Probable space group: I 2 2 2
;
_chemical_formula_sum "Si O2"
_cell_formula_units_Z 64
_cell_length_a 11.125492
_cell_length_b 14.304611
_cell_length_c 18.762627
_cell_angle_alpha 90.000000
_cell_angle_beta 90.000000
_cell_angle_gamma 90.000000
_cell_volume 2985.993945
_symmetry_space_group_name_H-M "I 2 2 2"
_symmetry_group_IT_number 23
_symmetry_cell_setting 'orthorhombic'
loop_
_space_group_symop_operation_xyz
x,y,z
-x,-y,z
x,-y,-z
-x,y,-z
1/2+x,1/2+y,1/2+z
1/2-x,1/2-y,1/2+z
1/2+x,1/2-y,1/2-z
1/2-x,1/2+y,1/2-z
loop_
_atom_site_type_symbol
_atom_site_label
_atom_site_fract_x
_atom_site_fract_y
_atom_site_fract_z
Si Si1 0.241539 0.605815 0.171316
Si Si2 0.292598 0.510141 0.423114
Si Si3 0.472449 0.629727 0.619868
Si Si4 0.661137 0.854756 0.170289
Si Si5 0.542489 0.272927 0.172686
Si Si6 0.019751 0.649224 0.083896
Si Si7 0.125685 0.921317 0.272683
Si Si8 0.159480 0.306342 0.190506
O O1 0.172857 0.634607 0.244365
O O2 0.330846 0.688715 0.145967
O O3 0.137878 0.596804 0.112631
O O4 0.329049 0.520380 0.196391
O O5 0.235518 0.500000 0.500000
O O6 0.350635 0.409654 0.412859
O O7 0.410690 0.578746 0.414626
O O8 0.201510 0.549562 0.365389
O O9 0.473167 0.739594 0.603716
O O10 0.452986 0.590937 0.700910
O O11 0.533406 0.814992 0.145139
O O12 0.761639 0.775144 0.153790
O O13 0.450348 0.360207 0.171243
O O14 0.570509 0.243735 0.254555
O O15 0.905111 0.626662 0.134001
O O16 0.000000 0.636659 0.000000
O O17 0.248740 0.865094 0.261626
#
# Coordination Sequence:
#
# PCOD9329669 Si02
#       8
#     8   8   8   8   8   8   8   8
#     4  11  22  38  58  97 128 169 234 284 339 390
#     4  11  21  31  55  98 139 169 216 270 336 412
#     4  11  19  35  56  94 129 176 216 271 338 403
#     4  10  18  35  58  87 135 172 215 279 332 401
#     4  10  19  36  62  88 127 170 223 281 327 406
#     4  12  23  40  63  91 134 176 221 284 351 423
#     4  11  21  35  64  93 130 171 219 294 330 390
#     4  10  20  36  57  92 125 165 218 272 342 394
#
# _framework density 21.433399000000001
#
# number of rings (size 3 to 8) (size 9 to 14) (size 15 to 20)
#    0.000    1.250    5.000    4.125    1.750    0.500 
#    0.000    1.250    0.000    3.000    0.000   17.500 
#    0.000    0.000    0.000    0.000    0.000    0.000 
#
# Total GULP energy -178251.223094 kJ/mol
# GULP energy per Si atom -5570.350722 kJ/mol
# Density = 2.138462 g / cm^3
# Si number density = 21.433399 Si / 1000 Ang^3
#
#
#
# Elastic Constant Matrix: (Units=GPa)
#
#
# Indices 1 2 3 4 5 6 
#
# 1 69.0272 28.3178 43.1433 0.0000 0.0000 0.0000
# 2 28.3178 70.6093 6.5823 0.0000 0.0000 0.0000
# 3 43.1433 6.5823 73.2401 0.0000 0.0000 0.0000
# 4 0.0000 0.0000 0.0000 12.3556 0.0000 0.0000
# 5 0.0000 0.0000 0.0000 0.0000 23.8883 0.0000
# 6 0.0000 0.0000 0.0000 0.0000 0.0000 30.4395
#
#
#
# Elastic Compliance Matrix: (Units=1/GPa)
#
#
# Indices 1 2 3 4 5 6 
#
# 1 0.028505 -0.009950 -0.015897 0.000000 0.000000 0.000000
# 2 -0.009950 0.017755 0.004265 0.000000 0.000000 0.000000
# 3 -0.015897 0.004265 0.022635 0.000000 0.000000 0.000000
# 4 0.000000 0.000000 0.000000 0.080935 0.000000 0.000000
# 5 0.000000 0.000000 0.000000 0.000000 0.041862 0.000000
# 6 0.000000 0.000000 0.000000 0.000000 0.000000 0.032852
#
#
# Mechanical properties :
#
#
# Convention : Reuss Voigt Hill
#
# Bulk Modulus (GPa) = 38.86234 40.99594 39.92914
# Shear Modulus (GPa) = 18.09737 22.32557 20.21147
#
# Velocity S-wave (km/s) = 2.90893 3.23092 3.07414
# Velocity P-wave (km/s) = 5.42711 5.75214 5.59199
#
# Compressibility (1/GPa) = 0.02573186
#
# Stress axis : x y z
#
# Youngs Moduli (GPa) = 35.08184 56.32159 44.17985
#
# Poissons Ratio (x) = 0.56039 0.70233
# Poissons Ratio (y) = 0.34906 -0.18845
# Poissons Ratio (z) = 0.55770 -0.24023
#
# Static dielectric constant tensor:
#      x y z
#    x 1.852230 0.000000 0.000000 
#    y 0.000000 1.867920 0.000000 
#    z 0.000000 0.000000 1.843730 
# 
# From -- ./inp_files/24459.got.cif
#   From: 2010.05.17/outbox.cif.g08.bks.cpg/sg23_13_cif.got.tgz:24459.got - 2010.06.04 12:02:01.
