data_PCOD9329739
_publ_section_title
;
Structure prediction by ZEFSAII (Michael W. Deem and Ramdas Pophale) SiO2 
 PCOD9329739
Probable space group: I 2 2 2
;
_chemical_formula_sum "Si O2"
_cell_formula_units_Z 48
_cell_length_a 12.919398
_cell_length_b 22.935696
_cell_length_c 5.753063
_cell_angle_alpha 90.000000
_cell_angle_beta 90.000000
_cell_angle_gamma 90.000000
_cell_volume 1704.721078
_symmetry_space_group_name_H-M "I 2 2 2"
_symmetry_group_IT_number 23
_symmetry_cell_setting 'orthorhombic'
loop_
_space_group_symop_operation_xyz
x,y,z
-x,-y,z
x,-y,-z
-x,y,-z
1/2+x,1/2+y,1/2+z
1/2-x,1/2-y,1/2+z
1/2+x,1/2-y,1/2-z
1/2-x,1/2+y,1/2-z
loop_
_atom_site_type_symbol
_atom_site_label
_atom_site_fract_x
_atom_site_fract_y
_atom_site_fract_z
Si Si1 0.156733 0.440307 0.419343
Si Si2 0.131168 0.890037 0.115021
Si Si3 0.893828 0.590196 0.919163
Si Si4 0.647393 0.611066 0.887452
Si Si5 0.631428 0.748688 0.881005
Si Si6 0.620531 0.254826 0.623396
O O1 0.212535 0.500000 0.500000
O O2 0.242757 0.390410 0.396730
O O3 0.088565 0.428587 0.649485
O O4 0.116369 0.449250 0.156370
O O5 0.111128 0.916908 0.369245
O O6 0.094779 0.823422 0.127013
O O7 0.105362 0.913699 0.857696
O O8 0.774116 0.612005 0.896012
O O9 0.000000 0.621780 0.000000
O O10 0.615448 0.678852 0.888218
O O11 0.592178 0.768857 0.630276
O O12 0.754685 0.755372 0.877055
O O13 0.593395 0.773067 0.128001
#
# Coordination Sequence:
#
# PCOD9329739 Si02
#       6
#     8   8   8   8   8   8
#     4  10  19  28  36  44  54  69  90 117 146 171
#     4   8  14  23  32  42  55  68  82 102 129 159
#     4  10  19  28  36  44  54  69  90 117 146 171
#     4   8  14  23  32  42  55  68  82 102 129 159
#     4   8  12  18  29  43  56  68  80  94 116 150
#     4   8  12  18  29  43  56  68  80  94 116 150
#
# _framework density 28.157101000000001
#
# number of rings (size 3 to 8) (size 9 to 14) (size 15 to 20)
#    0.000    3.333    0.000    1.000    0.000    2.000 
#    0.000    0.000    0.000    0.000    0.000    0.000 
#    0.000    0.000    0.000    0.000    0.000    0.000 
#
# Total GULP energy -133690.409224 kJ/mol
# GULP energy per Si atom -5570.433718 kJ/mol
# Density = 2.809301 g / cm^3
# Si number density = 28.157101 Si / 1000 Ang^3
#
#
#
# Elastic Constant Matrix: (Units=GPa)
#
#
# Indices 1 2 3 4 5 6 
#
# 1 125.0226 21.2774 85.2867 -0.0017 -0.0020 -0.0005
# 2 21.2774 47.9687 25.2068 -0.0159 0.0016 0.0018
# 3 85.2867 25.2068 428.9685 -0.0972 0.0218 -0.0013
# 4 -0.0017 -0.0159 -0.0972 19.5322 0.0049 0.0013
# 5 -0.0020 0.0016 0.0218 0.0049 68.6111 -0.0030
# 6 -0.0005 0.0018 -0.0013 0.0013 -0.0030 -3.9757
#
#
#
# Elastic Compliance Matrix: (Units=1/GPa)
#
#
# Indices 1 2 3 4 5 6 
#
# 1 0.009768 -0.003418 -0.001741 -0.000011 0.000001 -0.000002
# 2 -0.003418 0.022707 -0.000655 0.000015 0.000000 0.000011
# 3 -0.001741 -0.000655 0.002716 0.000013 -0.000001 -0.000001
# 4 -0.000011 0.000015 0.000013 0.051198 -0.000004 0.000017
# 5 0.000001 0.000000 -0.000001 -0.000004 0.014575 -0.000011
# 6 -0.000002 0.000011 -0.000001 0.000017 -0.000011 -0.251528
#
#
# Mechanical properties :
#
#
# Convention : Reuss Voigt Hill
#
# Bulk Modulus (GPa) = 42.43887 96.16686 69.30286
# Shear Modulus (GPa) = -38.14388 48.17944 5.01778
#
# Velocity S-wave (km/s) = -3.68459 4.14102 1.33639
# Velocity P-wave (km/s) = 1.73111 7.55592 5.20073
#
# Compressibility (1/GPa) = 0.02356330
#
# Stress axis : x y z
#
# Youngs Moduli (GPa) = 102.37466 44.03916 368.21023
#
# Poissons Ratio (x) = 0.15052 0.64114
# Poissons Ratio (y) = 0.34990 0.24109
# Poissons Ratio (z) = 0.17826 0.02884
#
# Static dielectric constant tensor:
#      x y z
#    x 2.261690 0.000000 0.000000 
#    y 0.000000 2.084810 0.000000 
#    z 0.000000 0.000000 2.236670 
# 
# From -- ./inp_files/3357.got.cif
#   From: 2010.05.17/outbox.cif.g08.bks.cpg/sg23_2_cif.got.tgz:3357.got - 2010.06.04 12:02:01.
