data_PCOD9329346
_publ_section_title
;
Structure prediction by ZEFSAII (Michael W. Deem and Ramdas Pophale) SiO2 
 PCOD9329346
Probable space group: I 2 2 2
;
_chemical_formula_sum "Si O2"
_cell_formula_units_Z 56
_cell_length_a 19.316022
_cell_length_b 19.408806
_cell_length_c 7.759371
_cell_angle_alpha 90.000000
_cell_angle_beta 90.000000
_cell_angle_gamma 90.000000
_cell_volume 2908.995355
_symmetry_space_group_name_H-M "I 2 2 2"
_symmetry_group_IT_number 23
_symmetry_cell_setting 'orthorhombic'
loop_
_space_group_symop_operation_xyz
x,y,z
-x,-y,z
x,-y,-z
-x,y,-z
1/2+x,1/2+y,1/2+z
1/2-x,1/2-y,1/2+z
1/2+x,1/2-y,1/2-z
1/2-x,1/2+y,1/2-z
loop_
_atom_site_type_symbol
_atom_site_label
_atom_site_fract_x
_atom_site_fract_y
_atom_site_fract_z
Si Si1 0.977317 0.718908 0.695117
Si Si2 0.288681 0.850631 0.169225
Si Si3 0.165189 0.239140 0.813460
Si Si4 0.742052 0.364286 0.262940
Si Si5 0.190917 0.495266 0.694630
Si Si6 0.618228 0.273713 0.296825
Si Si7 0.036114 0.564977 0.308882
O O1 0.901008 0.749977 0.696222
O O2 0.972699 0.640850 0.769865
O O3 0.000000 0.711184 0.500000
O O4 0.036285 0.766345 0.777448
O O5 0.218133 0.819497 0.248129
O O6 0.347589 0.793928 0.206499
O O7 0.311638 0.924548 0.244317
O O8 0.268725 0.855834 0.964572
O O9 0.210209 0.308325 0.829453
O O10 0.135199 0.226696 0.001708
O O11 0.760006 0.441702 0.208105
O O12 0.663382 0.339462 0.236343
O O13 0.219208 0.500000 0.500000
O O14 0.116197 0.457838 0.680887
O O15 0.000000 0.500000 0.218306
O O16 0.000000 0.568435 0.500000
#
# Coordination Sequence:
#
# PCOD9329346 Si02
#       7
#     8   8   8   8   8   8   8
#     4  11  21  32  53  74  99 136 177 211 255 305
#     4   9  19  32  53  76  98 135 177 209 251 303
#     4  10  19  34  49  73 106 134 168 214 256 305
#     4   9  18  33  52  73  99 135 175 211 247 305
#     4  10  16  29  51  75 102 130 173 214 244 291
#     4  10  20  32  49  74 105 135 167 210 263 301
#     4  10  17  25  44  76 102 126 158 204 245 294
#
# _framework density 19.250633000000001
#
# number of rings (size 3 to 8) (size 9 to 14) (size 15 to 20)
#    0.000    2.143    2.857    2.143    4.000    1.143 
#    0.000    0.714    0.000    1.714    0.000    6.000 
#    0.000    0.000    0.000    0.000    0.000    0.000 
#
# Total GULP energy -155999.014199 kJ/mol
# GULP energy per Si atom -5571.393364 kJ/mol
# Density = 1.920682 g / cm^3
# Si number density = 19.250633 Si / 1000 Ang^3
#
#
#
# Elastic Constant Matrix: (Units=GPa)
#
#
# Indices 1 2 3 4 5 6 
#
# 1 101.2623 34.7685 4.6328 0.0000 0.0000 0.0000
# 2 34.7685 82.8176 -0.6814 0.0000 0.0000 0.0000
# 3 4.6328 -0.6814 15.3502 0.0000 0.0000 0.0000
# 4 0.0000 0.0000 0.0000 11.4040 0.0000 0.0000
# 5 0.0000 0.0000 0.0000 0.0000 24.8313 0.0000
# 6 0.0000 0.0000 0.0000 0.0000 0.0000 24.8180
#
#
#
# Elastic Compliance Matrix: (Units=1/GPa)
#
#
# Indices 1 2 3 4 5 6 
#
# 1 0.011752 -0.004965 -0.003767 0.000000 0.000000 0.000000
# 2 -0.004965 0.014177 0.002128 0.000000 0.000000 0.000000
# 3 -0.003767 0.002128 0.066377 0.000000 0.000000 0.000000
# 4 0.000000 0.000000 0.000000 0.087689 0.000000 0.000000
# 5 0.000000 0.000000 0.000000 0.000000 0.040272 0.000000
# 6 0.000000 0.000000 0.000000 0.000000 0.000000 0.040293
#
#
# Mechanical properties :
#
#
# Convention : Reuss Voigt Hill
#
# Bulk Modulus (GPa) = 12.64267 30.76332 21.70299
# Shear Modulus (GPa) = 16.65917 22.92467 19.79192
#
# Velocity S-wave (km/s) = 2.94493 3.45462 3.20991
# Velocity P-wave (km/s) = 4.25971 5.65045 5.00364
#
# Compressibility (1/GPa) = 0.07909721
#
# Stress axis : x y z
#
# Youngs Moduli (GPa) = 85.08900 70.53879 15.06541
#
# Poissons Ratio (x) = 0.35022 0.05676
# Poissons Ratio (y) = 0.42246 -0.03206
# Poissons Ratio (z) = 0.32056 -0.15009
#
# Static dielectric constant tensor:
#      x y z
#    x 1.708830 0.000000 0.000000 
#    y 0.000000 1.734530 0.000000 
#    z 0.000000 0.000000 1.753420 
# 
# From -- ./inp_files/11346.got.cif
#   From: 2010.05.17/outbox.cif.g08.bks.cpg/sg23_6_cif.got.tgz:11346.got - 2010.06.04 12:02:01.
