data_PCOD9329478
_publ_section_title
;
Structure prediction by ZEFSAII (Michael W. Deem and Ramdas Pophale) SiO2 
 PCOD9329478
Probable space group: I 2 2 2
;
_chemical_formula_sum "Si O2"
_cell_formula_units_Z 54
_cell_length_a 23.806044
_cell_length_b 12.022967
_cell_length_c 9.216032
_cell_angle_alpha 90.000000
_cell_angle_beta 90.000000
_cell_angle_gamma 90.000000
_cell_volume 2637.806057
_symmetry_space_group_name_H-M "I 2 2 2"
_symmetry_group_IT_number 23
_symmetry_cell_setting 'orthorhombic'
loop_
_space_group_symop_operation_xyz
x,y,z
-x,-y,z
x,-y,-z
-x,y,-z
1/2+x,1/2+y,1/2+z
1/2-x,1/2-y,1/2+z
1/2+x,1/2-y,1/2-z
1/2-x,1/2+y,1/2-z
loop_
_atom_site_type_symbol
_atom_site_label
_atom_site_fract_x
_atom_site_fract_y
_atom_site_fract_z
Si Si1 0.765978 0.796071 0.995219
Si Si2 0.655950 0.317601 0.978227
Si Si3 0.000000 0.500000 0.500000
Si Si4 0.902436 0.393211 0.317974
Si Si5 0.681820 0.000000 0.000000
Si Si6 0.564141 0.235993 0.544849
Si Si7 0.860142 0.829909 0.195776
Si Si8 0.364587 0.588261 0.686724
O O1 0.722911 0.693583 0.989995
O O2 0.722766 0.896933 0.988195
O O3 0.815052 0.832244 0.881864
O O4 0.797928 0.791798 0.148902
O O5 0.628508 0.324790 0.135112
O O6 0.627762 0.211595 0.896212
O O7 0.644680 0.411245 0.859433
O O8 0.959926 0.425319 0.398527
O O9 0.858566 0.490537 0.359506
O O10 0.914300 0.361456 0.151900
O O11 0.500000 0.223659 0.500000
O O12 0.598798 0.252928 0.397433
O O13 0.578831 0.348777 0.636249
O O14 0.863521 0.958836 0.145059
#
# Coordination Sequence:
#
# PCOD9329478 Si02
#       8
#     8   8   2   8   4   8   8   8
#     4  10  17  34  57  81 117 159 190 237 302 353
#     4  10  21  34  57  87 120 151 200 249 293 363
#     4  10  20  40  70  80 114 152 196 248 306 352
#     4   9  21  37  62  87 111 156 198 239 304 358
#     4   9  16  35  60  86 115 154 197 238 292 370
#     4  10  22  39  60  82 116 152 200 250 295 360
#     4  11  21  35  58  85 119 157 196 246 300 358
#     4  10  20  37  55  86 116 159 202 239 300 368
#
# _framework density 20.471557000000001
#
# number of rings (size 3 to 8) (size 9 to 14) (size 15 to 20)
#    0.000    2.074    1.481    2.667    2.074    2.370 
#    0.000    0.370    0.000    1.778    0.000    0.000 
#    0.000    0.000    0.000    0.000    0.000    0.000 
#
# Total GULP energy -150404.853462 kJ/mol
# GULP energy per Si atom -5570.550128 kJ/mol
# Density = 2.042496 g / cm^3
# Si number density = 20.471557 Si / 1000 Ang^3
#
#
#
# Elastic Constant Matrix: (Units=GPa)
#
#
# Indices 1 2 3 4 5 6 
#
# 1 108.7476 20.1942 42.2179 0.0000 0.0000 0.0000
# 2 20.1942 15.4532 8.4841 0.0000 0.0000 0.0000
# 3 42.2179 8.4841 148.4853 0.0000 0.0000 0.0000
# 4 0.0000 0.0000 0.0000 28.4524 0.0000 0.0000
# 5 0.0000 0.0000 0.0000 0.0000 19.9227 0.0000
# 6 0.0000 0.0000 0.0000 0.0000 0.0000 10.5020
#
#
#
# Elastic Compliance Matrix: (Units=1/GPa)
#
#
# Indices 1 2 3 4 5 6 
#
# 1 0.013224 -0.015710 -0.002862 0.000000 0.000000 0.000000
# 2 -0.015710 0.085470 -0.000417 0.000000 0.000000 0.000000
# 3 -0.002862 -0.000417 0.007572 0.000000 0.000000 0.000000
# 4 0.000000 0.000000 0.000000 0.035146 0.000000 0.000000
# 5 0.000000 0.000000 0.000000 0.000000 0.050194 0.000000
# 6 0.000000 0.000000 0.000000 0.000000 0.000000 0.095220
#
#
# Mechanical properties :
#
#
# Convention : Reuss Voigt Hill
#
# Bulk Modulus (GPa) = 14.64378 46.05318 30.34848
# Shear Modulus (GPa) = 14.38570 25.22807 19.80689
#
# Velocity S-wave (km/s) = 2.65376 3.51429 3.11389
# Velocity P-wave (km/s) = 4.06923 6.24596 5.27118
#
# Compressibility (1/GPa) = 0.06828836
#
# Stress axis : x y z
#
# Youngs Moduli (GPa) = 75.61980 11.70004 132.05996
#
# Poissons Ratio (x) = 0.18380 0.37799
# Poissons Ratio (y) = 1.18796 0.05506
# Poissons Ratio (z) = 0.21645 0.00488
#
# Static dielectric constant tensor:
#      x y z
#    x 1.726350 0.000000 0.000000 
#    y 0.000000 1.975720 0.000000 
#    z 0.000000 0.000000 1.787380 
# 
# From -- ./inp_files/12679.got.cif
#   From: 2010.05.17/outbox.cif.g08.bks.cpg/sg23_7_cif.got.tgz:12679.got - 2010.06.04 12:02:01.
