data_PCOD9329272
_publ_section_title
;
Structure prediction by ZEFSAII (Michael W. Deem and Ramdas Pophale) SiO2 
 PCOD9329272
Probable space group: F 2 2 2
;
_chemical_formula_sum "Si O2"
_cell_formula_units_Z 52
_cell_length_a 12.945914
_cell_length_b 18.710437
_cell_length_c 9.578108
_cell_angle_alpha 90.000000
_cell_angle_beta 90.000000
_cell_angle_gamma 90.000000
_cell_volume 2320.044838
_symmetry_space_group_name_H-M "F 2 2 2"
_symmetry_group_IT_number 22
_symmetry_cell_setting 'orthorhombic'
loop_
_space_group_symop_operation_xyz
x,y,z
-x,-y,z
x,-y,-z
-x,y,-z
x,1/2+y,1/2+z
-x,1/2-y,1/2+z
x,1/2-y,1/2-z
-x,1/2+y,1/2-z
1/2+x,y,1/2+z
1/2-x,-y,1/2+z
1/2+x,-y,1/2-z
1/2-x,y,1/2-z
1/2+x,1/2+y,z
1/2-x,1/2-y,z
1/2+x,1/2-y,-z
1/2-x,1/2+y,-z
loop_
_atom_site_type_symbol
_atom_site_label
_atom_site_fract_x
_atom_site_fract_y
_atom_site_fract_z
Si Si1 0.750000 0.097487 0.250000
Si Si2 0.250000 0.250000 0.250000
Si Si3 0.585747 0.141155 0.617253
Si Si4 0.954518 0.678438 0.844113
Si Si5 0.814427 0.000000 0.000000
O O1 0.841366 0.149221 0.306473
O O2 0.741108 0.042913 0.378266
O O3 0.323212 0.199247 0.348246
O O4 0.500000 0.163257 0.500000
O O5 0.532014 0.126267 0.764324
O O6 0.624294 0.065184 0.567094
O O7 0.966291 0.750000 0.750000
O O8 0.000000 0.684777 0.000000
#
# Coordination Sequence:
#
# PCOD9329272 Si02
#       5
#     8   4  16  16   8
#     4  12  30  50  84 116 170 210 286 342 423 513
#     4  12  30  48  88 122 156 214 298 332 418 510
#     4  12  27  52  80 114 168 216 267 352 422 493
#     4  12  29  51  82 122 157 215 282 351 425 499
#     4  12  29  52  75 120 166 224 267 354 425 500
#
# _framework density 22.413360999999998
#
# number of rings (size 3 to 8) (size 9 to 14) (size 15 to 20)
#    0.000    0.000    4.615    2.769    8.615    0.000 
#    0.000    0.000    0.000    0.000    0.000    0.000 
#    0.000    0.000    0.000    0.000    0.000    0.000 
#
# Total GULP energy -72442.409759 kJ/mol
# GULP energy per Si atom -5572.493058 kJ/mol
# Density = 2.236235 g / cm^3
# Si number density = 22.413361 Si / 1000 Ang^3
#
#
#
# Elastic Constant Matrix: (Units=GPa)
#
#
# Indices 1 2 3 4 5 6 
#
# 1 137.6995 61.2266 63.1057 0.0000 0.0000 0.0000
# 2 61.2266 111.4113 49.7426 0.0000 0.0000 0.0000
# 3 63.1057 49.7426 185.7390 0.0000 0.0000 0.0000
# 4 0.0000 0.0000 0.0000 58.8443 0.0000 0.0000
# 5 0.0000 0.0000 0.0000 0.0000 54.6437 0.0000
# 6 0.0000 0.0000 0.0000 0.0000 0.0000 9.5681
#
#
#
# Elastic Compliance Matrix: (Units=1/GPa)
#
#
# Indices 1 2 3 4 5 6 
#
# 1 0.010392 -0.004696 -0.002273 0.000000 0.000000 0.000000
# 2 -0.004696 0.012317 -0.001703 0.000000 0.000000 0.000000
# 3 -0.002273 -0.001703 0.006612 0.000000 0.000000 0.000000
# 4 0.000000 0.000000 0.000000 0.016994 0.000000 0.000000
# 5 0.000000 0.000000 0.000000 0.000000 0.018300 0.000000
# 6 0.000000 0.000000 0.000000 0.000000 0.000000 0.104514
#
#
# Mechanical properties :
#
#
# Convention : Reuss Voigt Hill
#
# Bulk Modulus (GPa) = 83.49536 86.99996 85.24766
# Shear Modulus (GPa) = 26.25140 41.99621 34.12381
#
# Velocity S-wave (km/s) = 3.42605 4.33334 3.90613
# Velocity P-wave (km/s) = 7.27900 7.99609 7.64595
#
# Compressibility (1/GPa) = 0.01197671
#
# Stress axis : x y z
#
# Youngs Moduli (GPa) = 96.22821 81.18943 151.23380
#
# Poissons Ratio (x) = 0.38127 0.34376
# Poissons Ratio (y) = 0.45190 0.25756
# Poissons Ratio (z) = 0.21873 0.13827
#
# Static dielectric constant tensor:
#      x y z
#    x 1.915180 0.000000 0.000000 
#    y 0.000000 1.953900 0.000000 
#    z 0.000000 0.000000 1.605290 
# 
# From -- ./inp_files/9488.got.cif
#   From: 2010.05.17/outbox.cif.g08.bks.cpg/sg22_5_cif.got.tgz:9488.got - 2010.06.03 23:40:54.
