data_PCOD9329844
_publ_section_title
;
Structure prediction by ZEFSAII (Michael W. Deem and Ramdas Pophale) SiO2 
 PCOD9329844
Probable space group: I 2 2 2
;
_chemical_formula_sum "Si O2"
_cell_formula_units_Z 56
_cell_length_a 7.866133
_cell_length_b 20.739258
_cell_length_c 18.906568
_cell_angle_alpha 90.000000
_cell_angle_beta 90.000000
_cell_angle_gamma 90.000000
_cell_volume 3084.375186
_symmetry_space_group_name_H-M "I 2 2 2"
_symmetry_group_IT_number 23
_symmetry_cell_setting 'orthorhombic'
loop_
_space_group_symop_operation_xyz
x,y,z
-x,-y,z
x,-y,-z
-x,y,-z
1/2+x,1/2+y,1/2+z
1/2-x,1/2-y,1/2+z
1/2+x,1/2-y,1/2-z
1/2-x,1/2+y,1/2-z
loop_
_atom_site_type_symbol
_atom_site_label
_atom_site_fract_x
_atom_site_fract_y
_atom_site_fract_z
Si Si1 0.814733 0.564120 0.463884
Si Si2 0.954514 0.568638 0.305394
Si Si3 0.302737 0.791323 0.018849
Si Si4 0.178425 0.724855 0.157927
Si Si5 0.656466 0.349622 0.758384
Si Si6 0.202987 0.856765 0.782925
Si Si7 0.697567 0.772918 0.622997
O O1 0.733259 0.500000 0.500000
O O2 0.859382 0.557884 0.380746
O O3 0.732147 0.634897 0.476224
O O4 0.000000 0.567499 0.500000
O O5 0.825014 0.610629 0.259673
O O6 0.000000 0.500000 0.272894
O O7 0.138376 0.602624 0.311888
O O8 0.280087 0.754949 0.092806
O O9 0.500000 0.797278 0.000000
O O10 0.225617 0.747735 0.957198
O O11 0.160192 0.784189 0.212435
O O12 0.258849 0.668634 0.203948
O O13 0.993857 0.702744 0.132549
O O14 0.486945 0.384651 0.728439
O O15 0.673506 0.322694 0.838740
O O16 0.201415 0.794526 0.833802
#
# Coordination Sequence:
#
# PCOD9329844 Si02
#       7
#     8   8   8   8   8   8   8
#     4  10  19  33  52  78 113 163 205 230 270 343
#     4  12  22  37  61  78 117 162 202 235 285 342
#     4  11  20  30  54  82 115 153 192 231 300 345
#     4  10  19  35  54  80 116 147 190 249 302 348
#     4  10  21  37  55  83 111 148 197 249 295 346
#     4  10  21  36  57  81 112 149 195 250 297 341
#     4  10  20  33  55  81 114 147 192 247 304 347
#
# _framework density 18.156027999999999
#
# number of rings (size 3 to 8) (size 9 to 14) (size 15 to 20)
#    0.000    1.571    4.286    3.000    2.000    0.571 
#    0.000    0.000    0.000    2.571    0.000    2.000 
#    0.000    3.429    0.000    0.000    0.000    0.000 
#
# Total GULP energy -155966.747751 kJ/mol
# GULP energy per Si atom -5570.240991 kJ/mol
# Density = 1.811470 g / cm^3
# Si number density = 18.156028 Si / 1000 Ang^3
#
#
#
# Elastic Constant Matrix: (Units=GPa)
#
#
# Indices 1 2 3 4 5 6 
#
# 1 53.4060 0.9561 -19.9112 0.0000 0.0000 0.0000
# 2 0.9561 24.1547 3.5769 0.0000 0.0000 0.0000
# 3 -19.9112 3.5769 66.7495 0.0000 0.0000 0.0000
# 4 0.0000 0.0000 0.0000 28.3163 0.0000 0.0000
# 5 0.0000 0.0000 0.0000 0.0000 17.6876 0.0000
# 6 0.0000 0.0000 0.0000 0.0000 0.0000 -1.4633
#
#
#
# Elastic Compliance Matrix: (Units=1/GPa)
#
#
# Indices 1 2 3 4 5 6 
#
# 1 0.021144 -0.001785 0.006403 0.000000 0.000000 0.000000
# 2 -0.001785 0.041882 -0.002777 0.000000 0.000000 0.000000
# 3 0.006403 -0.002777 0.017040 0.000000 0.000000 0.000000
# 4 0.000000 0.000000 0.000000 0.035315 0.000000 0.000000
# 5 0.000000 0.000000 0.000000 0.000000 0.056537 0.000000
# 6 0.000000 0.000000 0.000000 0.000000 0.000000 -0.683379
#
#
# Mechanical properties :
#
#
# Convention : Reuss Voigt Hill
#
# Bulk Modulus (GPa) = 11.94072 12.61710 12.27891
# Shear Modulus (GPa) = -10.26214 19.55401 4.64594
#
# Velocity S-wave (km/s) = -2.38001 3.28533 1.60139
# Velocity P-wave (km/s) = 0.98062 4.62120 3.19326
#
# Compressibility (1/GPa) = 0.08374703
#
# Stress axis : x y z
#
# Youngs Moduli (GPa) = 47.29570 23.87681 58.68514
#
# Poissons Ratio (x) = 0.04262 -0.37574
# Poissons Ratio (y) = 0.08443 0.16296
# Poissons Ratio (z) = -0.30282 0.06630
#
# Static dielectric constant tensor:
#      x y z
#    x 1.712510 0.000000 0.000000 
#    y 0.000000 1.654180 0.000000 
#    z 0.000000 0.000000 1.642450 
# 
# From -- ./inp_files/23946.got.cif
#   From: 2010.05.17/outbox.cif.g08.bks.cpg/sg23_12_cif.got.tgz:23946.got - 2010.06.04 12:02:01.
