data_PCOD9329107
_publ_section_title
;
Structure prediction by ZEFSAII (Michael W. Deem and Ramdas Pophale) SiO2 
 PCOD9329107
Probable space group: F 2 2 2
;
_chemical_formula_sum "Si O2"
_cell_formula_units_Z 80
_cell_length_a 11.158433
_cell_length_b 15.130238
_cell_length_c 24.910615
_cell_angle_alpha 90.000000
_cell_angle_beta 90.000000
_cell_angle_gamma 90.000000
_cell_volume 4205.652828
_symmetry_space_group_name_H-M "F 2 2 2"
_symmetry_group_IT_number 22
_symmetry_cell_setting 'orthorhombic'
loop_
_space_group_symop_operation_xyz
x,y,z
-x,-y,z
x,-y,-z
-x,y,-z
x,1/2+y,1/2+z
-x,1/2-y,1/2+z
x,1/2-y,1/2-z
-x,1/2+y,1/2-z
1/2+x,y,1/2+z
1/2-x,-y,1/2+z
1/2+x,-y,1/2-z
1/2-x,y,1/2-z
1/2+x,1/2+y,z
1/2-x,1/2-y,z
1/2+x,1/2-y,-z
1/2-x,1/2+y,-z
loop_
_atom_site_type_symbol
_atom_site_label
_atom_site_fract_x
_atom_site_fract_y
_atom_site_fract_z
Si Si1 0.612643 0.262172 0.403661
Si Si2 0.865972 0.968742 0.600475
Si Si3 0.234026 0.398038 0.186570
Si Si4 0.692924 0.000000 0.500000
Si Si5 0.500000 0.844665 0.500000
Si Si6 0.946620 0.265416 0.687351
O O1 0.750000 0.250000 0.418894
O O2 0.610857 0.365739 0.392824
O O3 0.530914 0.219019 0.449993
O O4 0.563861 0.222214 0.348239
O O5 0.776526 0.985635 0.551320
O O6 0.806478 0.018904 0.651242
O O7 0.000000 0.000000 0.588573
O O8 0.250000 0.418588 0.250000
O O9 0.133157 0.322472 0.175461
O O10 0.359293 0.348115 0.174892
O O11 0.610541 0.912839 0.491740
O O12 0.973717 0.250000 0.750000
#
# Coordination Sequence:
#
# PCOD9329107 Si02
#       6
#    16  16  16   8   8  16
#     4  12  25  43  62  97 131 162 206 261 323 377
#     4  12  24  41  66  97 130 160 210 266 314 374
#     4   9  19  40  66  94 124 170 217 251 304 376
#     4  11  25  46  66  90 123 171 214 254 316 383
#     4  11  26  46  65  86 130 170 211 256 314 387
#     4   9  19  40  68  92 126 170 212 255 307 372
#
# _framework density 19.022017000000002
#
# number of rings (size 3 to 8) (size 9 to 14) (size 15 to 20)
#    0.000    1.400    4.000    2.700    2.800    0.400 
#    7.200    0.000    0.000    0.000    0.000    0.000 
#    0.000    0.000    0.000    0.000    0.000    0.000 
#
# Total GULP energy -111440.095955 kJ/mol
# GULP energy per Si atom -5572.004798 kJ/mol
# Density = 1.897872 g / cm^3
# Si number density = 19.022017 Si / 1000 Ang^3
#
#
#
# Elastic Constant Matrix: (Units=GPa)
#
#
# Indices 1 2 3 4 5 6 
#
# 1 86.9814 34.5273 55.6976 0.0000 0.0000 0.0000
# 2 34.5273 107.8314 42.0351 0.0000 0.0000 0.0000
# 3 55.6976 42.0351 82.2115 0.0000 0.0000 0.0000
# 4 0.0000 0.0000 0.0000 32.4109 0.0000 0.0000
# 5 0.0000 0.0000 0.0000 0.0000 32.4239 0.0000
# 6 0.0000 0.0000 0.0000 0.0000 0.0000 11.5047
#
#
#
# Elastic Compliance Matrix: (Units=1/GPa)
#
#
# Indices 1 2 3 4 5 6 
#
# 1 0.020482 -0.001435 -0.013143 0.000000 0.000000 0.000000
# 2 -0.001435 0.011683 -0.005001 0.000000 0.000000 0.000000
# 3 -0.013143 -0.005001 0.023625 0.000000 0.000000 0.000000
# 4 0.000000 0.000000 0.000000 0.030854 0.000000 0.000000
# 5 0.000000 0.000000 0.000000 0.000000 0.030841 0.000000
# 6 0.000000 0.000000 0.000000 0.000000 0.000000 0.086921
#
#
# Mechanical properties :
#
#
# Convention : Reuss Voigt Hill
#
# Bulk Modulus (GPa) = 60.12529 60.17159 60.14844
# Shear Modulus (GPa) = 20.07159 24.91886 22.49523
#
# Velocity S-wave (km/s) = 3.25187 3.62332 3.44261
# Velocity P-wave (km/s) = 6.76583 7.01469 6.89138
#
# Compressibility (1/GPa) = 0.01663194
#
# Stress axis : x y z
#
# Youngs Moduli (GPa) = 48.82295 85.59569 42.32794
#
# Poissons Ratio (x) = 0.12283 0.55631
# Poissons Ratio (y) = 0.07006 0.21169
# Poissons Ratio (z) = 0.64167 0.42809
#
# Static dielectric constant tensor:
#      x y z
#    x 1.630430 0.000000 0.000000 
#    y 0.000000 1.613710 0.000000 
#    z 0.000000 0.000000 1.653600 
# 
# From -- ./inp_files/19867.got.cif
#   From: 2010.05.17/outbox.cif.g08.bks.cpg/sg22_10_cif.got.tgz:19867.got - 2010.06.03 23:40:54.
