data_PCOD9329205
_publ_section_title
;
Structure prediction by ZEFSAII (Michael W. Deem and Ramdas Pophale) SiO2 
 PCOD9329205
Probable space group: F 2 2 2
;
_chemical_formula_sum "Si O2"
_cell_formula_units_Z 56
_cell_length_a 12.297768
_cell_length_b 19.311476
_cell_length_c 9.028370
_cell_angle_alpha 90.000000
_cell_angle_beta 90.000000
_cell_angle_gamma 90.000000
_cell_volume 2144.130000
_symmetry_space_group_name_H-M "F 2 2 2"
_symmetry_group_IT_number 22
_symmetry_cell_setting 'orthorhombic'
loop_
_space_group_symop_operation_xyz
x,y,z
-x,-y,z
x,-y,-z
-x,y,-z
x,1/2+y,1/2+z
-x,1/2-y,1/2+z
x,1/2-y,1/2-z
-x,1/2+y,1/2-z
1/2+x,y,1/2+z
1/2-x,-y,1/2+z
1/2+x,-y,1/2-z
1/2-x,y,1/2-z
1/2+x,1/2+y,z
1/2-x,1/2-y,z
1/2+x,1/2-y,-z
1/2-x,1/2+y,-z
loop_
_atom_site_type_symbol
_atom_site_label
_atom_site_fract_x
_atom_site_fract_y
_atom_site_fract_z
Si Si1 0.430576 0.680042 0.319298
Si Si2 0.750000 0.408380 0.250000
Si Si3 0.250000 0.750000 0.963577
Si Si4 0.908179 0.128580 0.870620
Si Si5 0.216830 0.500000 0.500000
O O1 0.474487 0.750000 0.250000
O O2 0.346645 0.641746 0.211498
O O3 0.347799 0.708256 0.446166
O O4 0.535653 0.631248 0.294077
O O5 0.715570 0.454511 0.386601
O O6 0.182095 0.811011 0.884062
O O7 0.855748 0.053898 0.906077
O O8 0.000000 0.139384 0.000000
#
# Coordination Sequence:
#
# PCOD9329205 Si02
#       5
#    16   8   8  16   8
#     4  12  20  42  74 104 135 194 244 306 375 431
#     4  12  23  42  76  97 154 196 246 308 374 447
#     4  12  23  48  73 108 144 189 256 313 368 441
#     4  12  24  40  77 103 143 200 243 302 379 445
#     4  12  25  46  64 113 144 202 247 304 374 451
#
# _framework density 26.117818
#
# number of rings (size 3 to 8) (size 9 to 14) (size 15 to 20)
#    0.000    0.000   11.429    0.429    0.000    0.000 
#    5.143    2.857    0.000    1.714    0.000    0.000 
#    0.000    0.000    0.000    0.000    0.000    0.000 
#
# Total GULP energy -77999.319145 kJ/mol
# GULP energy per Si atom -5571.379939 kJ/mol
# Density = 2.605837 g / cm^3
# Si number density = 26.117818 Si / 1000 Ang^3
#
#
#
# Elastic Constant Matrix: (Units=GPa)
#
#
# Indices 1 2 3 4 5 6 
#
# 1 94.8222 27.6901 39.2914 0.0000 0.0000 0.0000
# 2 27.6901 117.0606 14.1937 0.0000 0.0000 0.0000
# 3 39.2914 14.1937 69.3698 0.0000 0.0000 0.0000
# 4 0.0000 0.0000 0.0000 22.6723 0.0000 0.0000
# 5 0.0000 0.0000 0.0000 0.0000 58.4585 0.0000
# 6 0.0000 0.0000 0.0000 0.0000 0.0000 10.6759
#
#
#
# Elastic Compliance Matrix: (Units=1/GPa)
#
#
# Indices 1 2 3 4 5 6 
#
# 1 0.014454 -0.002488 -0.007678 0.000000 0.000000 0.000000
# 2 -0.002488 0.009188 -0.000471 0.000000 0.000000 0.000000
# 3 -0.007678 -0.000471 0.018861 0.000000 0.000000 0.000000
# 4 0.000000 0.000000 0.000000 0.044107 0.000000 0.000000
# 5 0.000000 0.000000 0.000000 0.000000 0.017106 0.000000
# 6 0.000000 0.000000 0.000000 0.000000 0.000000 0.093669
#
#
# Mechanical properties :
#
#
# Convention : Reuss Voigt Hill
#
# Bulk Modulus (GPa) = 47.10398 49.28924 48.19661
# Shear Modulus (GPa) = 22.14990 31.69982 26.92486
#
# Velocity S-wave (km/s) = 2.91533 3.48763 3.21425
# Velocity P-wave (km/s) = 5.42278 5.92714 5.68056
#
# Compressibility (1/GPa) = 0.02122963
#
# Stress axis : x y z
#
# Youngs Moduli (GPa) = 69.18463 108.83516 53.02072
#
# Poissons Ratio (x) = 0.27079 0.40708
# Poissons Ratio (y) = 0.17214 0.02496
# Poissons Ratio (z) = 0.53118 0.05123
#
# Static dielectric constant tensor:
#      x y z
#    x 2.044600 0.000000 0.000000 
#    y 0.000000 2.010470 0.000000 
#    z 0.000000 0.000000 2.285000 
# 
# From -- ./inp_files/9599.got.cif
#   From: 2010.05.17/outbox.cif.g08.bks.cpg/sg22_5_cif.got.tgz:9599.got - 2010.06.03 23:40:54.
