data_PCOD9329356
_publ_section_title
;
Structure prediction by ZEFSAII (Michael W. Deem and Ramdas Pophale) SiO2 
 PCOD9329356
Probable space group: I 2 2 2
;
_chemical_formula_sum "Si O2"
_cell_formula_units_Z 48
_cell_length_a 17.600585
_cell_length_b 15.120488
_cell_length_c 9.138757
_cell_angle_alpha 90.000000
_cell_angle_beta 90.000000
_cell_angle_gamma 90.000000
_cell_volume 2432.092230
_symmetry_space_group_name_H-M "I 2 2 2"
_symmetry_group_IT_number 23
_symmetry_cell_setting 'orthorhombic'
loop_
_space_group_symop_operation_xyz
x,y,z
-x,-y,z
x,-y,-z
-x,y,-z
1/2+x,1/2+y,1/2+z
1/2-x,1/2-y,1/2+z
1/2+x,1/2-y,1/2-z
1/2-x,1/2+y,1/2-z
loop_
_atom_site_type_symbol
_atom_site_label
_atom_site_fract_x
_atom_site_fract_y
_atom_site_fract_z
Si Si1 0.052722 0.758709 0.142538
Si Si2 0.144880 0.000000 0.000000
Si Si3 0.500000 0.000000 0.000000
Si Si4 0.000000 0.500000 0.000000
Si Si5 0.210775 0.185079 0.988312
Si Si6 0.955569 0.918186 0.266591
Si Si7 0.161541 0.777922 0.690140
Si Si8 0.545990 0.121768 0.248953
O O1 0.137492 0.769644 0.087409
O O2 0.019031 0.847448 0.214961
O O3 0.034641 0.674145 0.242700
O O4 0.000000 0.745771 0.000000
O O5 0.089880 0.041201 0.125693
O O6 0.197943 0.918451 0.050312
O O7 0.548725 0.938796 0.892943
O O8 0.950505 0.560586 0.108029
O O9 0.283592 0.236450 0.929482
O O10 0.205817 0.192885 0.163580
O O11 0.893137 0.860053 0.353308
O O12 0.000000 0.000000 0.335617
O O13 0.107183 0.698426 0.741772
#
# Coordination Sequence:
#
# PCOD9329356 Si02
#       8
#     8   4   2   2   8   8   8   8
#     4  11  16  32  64  89 112 152 214 264 305 363
#     4  10  17  29  60  93 118 147 212 262 305 349
#     4  10  24  36  60  84 118 146 210 250 304 380
#     4  10  16  34  64  78 110 150 228 248 272 366
#     4  11  21  36  57  92 124 166 198 264 317 384
#     4  10  16  31  62  97 113 147 216 274 298 359
#     4  10  23  36  56  88 130 158 202 251 332 372
#     4  10  20  37  57  88 110 161 203 258 300 376
#
# _framework density 19.736094000000001
#
# number of rings (size 3 to 8) (size 9 to 14) (size 15 to 20)
#    0.000    1.667    7.500    0.250    0.000    2.000 
#    0.000    8.333    0.000    0.000   13.000    0.000 
#    0.000    0.000    0.000    0.000    0.000    0.000 
#
# Total GULP energy -133851.986927 kJ/mol
# GULP energy per Si atom -5577.166122 kJ/mol
# Density = 1.969117 g / cm^3
# Si number density = 19.736094 Si / 1000 Ang^3
#
#
#
# Elastic Constant Matrix: (Units=GPa)
#
#
# Indices 1 2 3 4 5 6 
#
# 1 67.3136 36.6234 12.4781 0.0000 0.0000 0.0000
# 2 36.6234 132.5114 35.2379 0.0000 0.0000 0.0000
# 3 12.4781 35.2379 57.1220 0.0000 0.0000 0.0000
# 4 0.0000 0.0000 0.0000 19.5624 0.0000 0.0000
# 5 0.0000 0.0000 0.0000 0.0000 14.8939 0.0000
# 6 0.0000 0.0000 0.0000 0.0000 0.0000 33.9476
#
#
#
# Elastic Compliance Matrix: (Units=1/GPa)
#
#
# Indices 1 2 3 4 5 6 
#
# 1 0.017533 -0.004578 -0.001006 0.000000 0.000000 0.000000
# 2 -0.004578 0.010223 -0.005306 0.000000 0.000000 0.000000
# 3 -0.001006 -0.005306 0.020999 0.000000 0.000000 0.000000
# 4 0.000000 0.000000 0.000000 0.051118 0.000000 0.000000
# 5 0.000000 0.000000 0.000000 0.000000 0.067141 0.000000
# 6 0.000000 0.000000 0.000000 0.000000 0.000000 0.029457
#
#
# Mechanical properties :
#
#
# Convention : Reuss Voigt Hill
#
# Bulk Modulus (GPa) = 37.07153 47.29177 42.18165
# Shear Modulus (GPa) = 22.00267 25.18795 23.59531
#
# Velocity S-wave (km/s) = 3.34255 3.57632 3.46141
# Velocity P-wave (km/s) = 5.80700 6.40840 6.11510
#
# Compressibility (1/GPa) = 0.02697487
#
# Stress axis : x y z
#
# Youngs Moduli (GPa) = 57.03458 97.81908 47.62020
#
# Poissons Ratio (x) = 0.44785 0.04789
# Poissons Ratio (y) = 0.26113 0.25269
# Poissons Ratio (z) = 0.05736 0.51906
#
# Static dielectric constant tensor:
#      x y z
#    x 1.696010 0.000000 0.000000 
#    y 0.000000 1.732290 0.000000 
#    z 0.000000 0.000000 1.721220 
# 
# From -- ./inp_files/11122.got.cif
#   From: 2010.05.17/outbox.cif.g08.bks.cpg/sg23_6_cif.got.tgz:11122.got - 2010.06.04 12:02:01.
