data_PCOD9329460
_publ_section_title
;
Structure prediction by ZEFSAII (Michael W. Deem and Ramdas Pophale) SiO2 
 PCOD9329460
Probable space group: I 2 2 2
;
_chemical_formula_sum "Si O2"
_cell_formula_units_Z 56
_cell_length_a 19.513111
_cell_length_b 19.302572
_cell_length_c 8.337631
_cell_angle_alpha 90.000000
_cell_angle_beta 90.000000
_cell_angle_gamma 90.000000
_cell_volume 3140.395647
_symmetry_space_group_name_H-M "I 2 2 2"
_symmetry_group_IT_number 23
_symmetry_cell_setting 'orthorhombic'
loop_
_space_group_symop_operation_xyz
x,y,z
-x,-y,z
x,-y,-z
-x,y,-z
1/2+x,1/2+y,1/2+z
1/2-x,1/2-y,1/2+z
1/2+x,1/2-y,1/2-z
1/2-x,1/2+y,1/2-z
loop_
_atom_site_type_symbol
_atom_site_label
_atom_site_fract_x
_atom_site_fract_y
_atom_site_fract_z
Si Si1 0.483168 0.303145 0.180945
Si Si2 0.256686 0.873474 0.697727
Si Si3 0.348539 0.238054 0.165643
Si Si4 0.227647 0.342111 0.177170
Si Si5 0.565974 0.537819 0.174321
Si Si6 0.282527 0.520139 0.684724
Si Si7 0.866445 0.227695 0.713795
O O1 0.421232 0.256417 0.244900
O O2 0.454843 0.381497 0.164760
O O3 0.557319 0.295919 0.261052
O O4 0.500000 0.279651 0.000000
O O5 0.318123 0.837073 0.795558
O O6 0.265616 0.859002 0.509839
O O7 0.248025 0.954390 0.723100
O O8 0.186603 0.834366 0.750003
O O9 0.290055 0.290939 0.225915
O O10 0.357712 0.254961 0.976574
O O11 0.238625 0.411616 0.277173
O O12 0.159508 0.297542 0.202895
O O13 0.500000 0.500000 0.252182
O O14 0.638967 0.531756 0.259179
O O15 0.573473 0.500000 0.000000
O O16 0.281959 0.500000 0.500000
#
# Coordination Sequence:
#
# PCOD9329460 Si02
#       7
#     8   8   8   8   8   8   8
#     4  10  17  32  55  83 108 151 184 224 264 331
#     4  10  20  35  56  79 107 146 189 233 279 337
#     4   9  18  33  54  77 110 141 188 225 274 324
#     4  10  19  36  56  78 107 146 191 233 278 335
#     4  11  20  33  56  79 117 153 190 214 268 341
#     4  12  24  35  54  81 115 147 187 237 285 327
#     4   9  19  33  55  81 108 144 189 228 274 327
#
# _framework density 17.832149999999999
#
# number of rings (size 3 to 8) (size 9 to 14) (size 15 to 20)
#    0.000    1.857    2.857    3.000    2.000    1.429 
#    0.000    0.714    0.000    0.857    0.000    6.000 
#    0.000    0.000    0.000    0.000    0.000    0.000 
#
# Total GULP energy -156165.227781 kJ/mol
# GULP energy per Si atom -5577.329564 kJ/mol
# Density = 1.779156 g / cm^3
# Si number density = 17.832150 Si / 1000 Ang^3
#
#
#
# Elastic Constant Matrix: (Units=GPa)
#
#
# Indices 1 2 3 4 5 6 
#
# 1 97.8225 45.4570 9.1542 0.0000 0.0000 0.0000
# 2 45.4570 100.5173 11.4421 0.0000 0.0000 0.0000
# 3 9.1542 11.4421 20.8811 0.0000 0.0000 0.0000
# 4 0.0000 0.0000 0.0000 21.3645 0.0000 0.0000
# 5 0.0000 0.0000 0.0000 0.0000 19.1069 0.0000
# 6 0.0000 0.0000 0.0000 0.0000 0.0000 28.4222
#
#
#
# Elastic Compliance Matrix: (Units=1/GPa)
#
#
# Indices 1 2 3 4 5 6 
#
# 1 0.013079 -0.005612 -0.002659 0.000000 0.000000 0.000000
# 2 -0.005612 0.013019 -0.004673 0.000000 0.000000 0.000000
# 3 -0.002659 -0.004673 0.051617 0.000000 0.000000 0.000000
# 4 0.000000 0.000000 0.000000 0.046807 0.000000 0.000000
# 5 0.000000 0.000000 0.000000 0.000000 0.052337 0.000000
# 6 0.000000 0.000000 0.000000 0.000000 0.000000 0.035184
#
#
# Mechanical properties :
#
#
# Convention : Reuss Voigt Hill
#
# Bulk Modulus (GPa) = 19.29531 39.03638 29.16585
# Shear Modulus (GPa) = 19.59204 23.98989 21.79096
#
# Velocity S-wave (km/s) = 3.31825 3.67183 3.49951
# Velocity P-wave (km/s) = 5.05223 6.31783 5.72014
#
# Compressibility (1/GPa) = 0.05182606
#
# Stress axis : x y z
#
# Youngs Moduli (GPa) = 76.45648 76.81356 19.37365
#
# Poissons Ratio (x) = 0.43110 0.05151
# Poissons Ratio (y) = 0.42909 0.09054
# Poissons Ratio (z) = 0.20327 0.35897
#
# Static dielectric constant tensor:
#      x y z
#    x 1.640840 0.000000 0.000000 
#    y 0.000000 1.606510 0.000000 
#    z 0.000000 0.000000 1.652230 
# 
# From -- ./inp_files/12141.got.cif
#   From: 2010.05.17/outbox.cif.g08.bks.cpg/sg23_7_cif.got.tgz:12141.got - 2010.06.04 12:02:01.
