data_PCOD9329708
_publ_section_title
;
Structure prediction by ZEFSAII (Michael W. Deem and Ramdas Pophale) SiO2 
 PCOD9329708
Probable space group: I 2 2 2
;
_chemical_formula_sum "Si O2"
_cell_formula_units_Z 42
_cell_length_a 8.618505
_cell_length_b 13.393995
_cell_length_c 16.236487
_cell_angle_alpha 90.000000
_cell_angle_beta 90.000000
_cell_angle_gamma 90.000000
_cell_volume 1874.278570
_symmetry_space_group_name_H-M "I 2 2 2"
_symmetry_group_IT_number 23
_symmetry_cell_setting 'orthorhombic'
loop_
_space_group_symop_operation_xyz
x,y,z
-x,-y,z
x,-y,-z
-x,y,-z
1/2+x,1/2+y,1/2+z
1/2-x,1/2-y,1/2+z
1/2+x,1/2-y,1/2-z
1/2-x,1/2+y,1/2-z
loop_
_atom_site_type_symbol
_atom_site_label
_atom_site_fract_x
_atom_site_fract_y
_atom_site_fract_z
Si Si1 0.729639 0.190040 0.555939
Si Si2 0.632674 0.584174 0.099508
Si Si3 0.557093 0.846070 0.669074
Si Si4 0.500000 0.500000 0.500000
Si Si5 0.503579 0.206356 0.149775
Si Si6 0.811139 0.163088 0.912811
O O1 0.829550 0.114457 0.496989
O O2 0.596362 0.143976 0.612624
O O3 0.833791 0.266671 0.608404
O O4 0.660524 0.260251 0.486705
O O5 0.500000 0.500000 0.110846
O O6 0.806299 0.579252 0.138936
O O7 0.567870 0.681261 0.148137
O O8 0.518906 0.850999 0.764930
O O9 0.618140 0.729965 0.660651
O O10 0.395643 0.564473 0.438700
O O11 0.372691 0.149426 0.097437
#
# Coordination Sequence:
#
# PCOD9329708 Si02
#       6
#     8   8   8   2   8   8
#     4  10  18  38  66  94 129 183 230 269 346 419
#     4  10  21  38  64 100 135 179 231 288 336 406
#     4  10  19  40  67  97 134 187 223 270 358 420
#     4  12  20  40  66 100 136 162 248 288 328 408
#     4  10  21  37  66  95 133 181 226 268 355 417
#     4  10  20  37  63  98 125 181 224 276 335 403
#
# _framework density 22.408622000000001
#
# number of rings (size 3 to 8) (size 9 to 14) (size 15 to 20)
#    0.000    2.286    1.905    6.286    0.000    1.524 
#    1.714    2.857    6.286   16.000    0.000    0.000 
#    0.000    0.000    0.000    0.000    0.000    0.000 
#
# Total GULP energy -116998.215645 kJ/mol
# GULP energy per Si atom -5571.343602 kJ/mol
# Density = 2.235762 g / cm^3
# Si number density = 22.408622 Si / 1000 Ang^3
#
#
#
# Elastic Constant Matrix: (Units=GPa)
#
#
# Indices 1 2 3 4 5 6 
#
# 1 148.3155 34.3814 46.6209 0.0000 0.0000 0.0000
# 2 34.3814 80.0167 8.8389 0.0000 0.0000 0.0000
# 3 46.6209 8.8389 98.4697 0.0000 0.0000 0.0000
# 4 0.0000 0.0000 0.0000 8.3234 0.0000 0.0000
# 5 0.0000 0.0000 0.0000 0.0000 33.3981 0.0000
# 6 0.0000 0.0000 0.0000 0.0000 0.0000 47.3838
#
#
#
# Elastic Compliance Matrix: (Units=1/GPa)
#
#
# Indices 1 2 3 4 5 6 
#
# 1 0.008716 -0.003322 -0.003828 0.000000 0.000000 0.000000
# 2 -0.003322 0.013889 0.000326 0.000000 0.000000 0.000000
# 3 -0.003828 0.000326 0.011939 0.000000 0.000000 0.000000
# 4 0.000000 0.000000 0.000000 0.120143 0.000000 0.000000
# 5 0.000000 0.000000 0.000000 0.000000 0.029942 0.000000
# 6 0.000000 0.000000 0.000000 0.000000 0.000000 0.021104
#
#
# Mechanical properties :
#
#
# Convention : Reuss Voigt Hill
#
# Bulk Modulus (GPa) = 47.85892 56.27601 52.06747
# Shear Modulus (GPa) = 22.09010 33.61844 27.85427
#
# Velocity S-wave (km/s) = 3.14313 3.87750 3.52947
# Velocity P-wave (km/s) = 5.88014 6.72419 6.31628
#
# Compressibility (1/GPa) = 0.02089475
#
# Stress axis : x y z
#
# Youngs Moduli (GPa) = 114.73301 72.00045 83.76134
#
# Poissons Ratio (x) = 0.23919 0.32067
# Poissons Ratio (y) = 0.38116 -0.02732
# Poissons Ratio (z) = 0.43924 -0.02349
#
# Static dielectric constant tensor:
#      x y z
#    x 1.983700 0.000000 0.000000 
#    y 0.000000 2.000720 0.000000 
#    z 0.000000 0.000000 1.890380 
# 
# From -- ./inp_files/19804.got.cif
#   From: 2010.05.17/outbox.cif.g08.bks.cpg/sg23_10_cif.got.tgz:19804.got - 2010.06.04 12:02:01.
