data_PCOD9329083
_publ_section_title
;
Structure prediction by ZEFSAII (Michael W. Deem and Ramdas Pophale) SiO2 
 PCOD9329083
Probable space group: F 2 2 2
;
_chemical_formula_sum "Si O2"
_cell_formula_units_Z 48
_cell_length_a 15.451766
_cell_length_b 11.186236
_cell_length_c 9.409375
_cell_angle_alpha 90.000000
_cell_angle_beta 90.000000
_cell_angle_gamma 90.000000
_cell_volume 1626.383192
_symmetry_space_group_name_H-M "F 2 2 2"
_symmetry_group_IT_number 22
_symmetry_cell_setting 'orthorhombic'
loop_
_space_group_symop_operation_xyz
x,y,z
-x,-y,z
x,-y,-z
-x,y,-z
x,1/2+y,1/2+z
-x,1/2-y,1/2+z
x,1/2-y,1/2-z
-x,1/2+y,1/2-z
1/2+x,y,1/2+z
1/2-x,-y,1/2+z
1/2+x,-y,1/2-z
1/2-x,y,1/2-z
1/2+x,1/2+y,z
1/2-x,1/2-y,z
1/2+x,1/2-y,-z
1/2-x,1/2+y,-z
loop_
_atom_site_type_symbol
_atom_site_label
_atom_site_fract_x
_atom_site_fract_y
_atom_site_fract_z
Si Si1 0.305105 0.376698 0.077576
Si Si2 0.600803 0.504880 0.670285
Si Si3 0.065476 0.755836 0.386431
O O1 0.250000 0.250000 0.077572
O O2 0.159426 0.419116 0.266870
O O3 0.272523 0.500000 0.000000
O O4 0.387200 0.343012 0.978051
O O5 0.500000 0.500000 0.718973
O O6 0.604515 0.500000 0.500000
O O7 0.628106 0.644526 0.685335
O O8 0.003099 0.750000 0.250000
O O9 0.000000 0.809729 0.500000
#
# Coordination Sequence:
#
# PCOD9329083 Si02
#       3
#    16  16  16
#     4  12  30  57  91 137 198 255 315 391 494 581
#     4  11  24  52  93 134 178 240 319 400 473 571
#     4  12  25  49  94 135 184 239 321 401 474 571
#
# _framework density 29.513338000000001
#
# number of rings (size 3 to 8) (size 9 to 14) (size 15 to 20)
#    0.000    0.333    6.667    2.000    0.000    2.000 
#    0.000   11.667    0.000    0.000    0.000    0.000 
#    0.000    0.000    0.000    0.000    0.000    0.000 
#
# Total GULP energy -66840.696158 kJ/mol
# GULP energy per Si atom -5570.058013 kJ/mol
# Density = 2.944616 g / cm^3
# Si number density = 29.513338 Si / 1000 Ang^3
#
#
#
# Elastic Constant Matrix: (Units=GPa)
#
#
# Indices 1 2 3 4 5 6 
#
# 1 166.7587 83.1442 48.8527 0.0000 0.0000 0.0000
# 2 83.1442 232.9072 72.3715 0.0000 0.0000 0.0000
# 3 48.8527 72.3715 277.7498 0.0000 0.0000 0.0000
# 4 0.0000 0.0000 0.0000 56.4844 0.0000 0.0000
# 5 0.0000 0.0000 0.0000 0.0000 10.8988 0.0000
# 6 0.0000 0.0000 0.0000 0.0000 0.0000 56.7201
#
#
#
# Elastic Compliance Matrix: (Units=1/GPa)
#
#
# Indices 1 2 3 4 5 6 
#
# 1 0.007407 -0.002437 -0.000668 0.000000 0.000000 0.000000
# 2 -0.002437 0.005473 -0.000998 0.000000 0.000000 0.000000
# 3 -0.000668 -0.000998 0.003978 0.000000 0.000000 0.000000
# 4 0.000000 0.000000 0.000000 0.017704 0.000000 0.000000
# 5 0.000000 0.000000 0.000000 0.000000 0.091753 0.000000
# 6 0.000000 0.000000 0.000000 0.000000 0.000000 0.017630
#
#
# Mechanical properties :
#
#
# Convention : Reuss Voigt Hill
#
# Bulk Modulus (GPa) = 115.55362 120.68361 118.11861
# Shear Modulus (GPa) = 32.25078 56.35715 44.30397
#
# Velocity S-wave (km/s) = 3.30927 4.37458 3.87867
# Velocity P-wave (km/s) = 7.33755 8.15450 7.75679
#
# Compressibility (1/GPa) = 0.00865399
#
# Stress axis : x y z
#
# Youngs Moduli (GPa) = 135.00202 182.70138 251.39676
#
# Poissons Ratio (x) = 0.44520 0.16791
# Poissons Ratio (y) = 0.32897 0.25079
# Poissons Ratio (z) = 0.09017 0.18226
#
# Static dielectric constant tensor:
#      x y z
#    x 2.340770 0.000000 0.000000 
#    y 0.000000 4.246990 0.000000 
#    z 0.000000 0.000000 1.104120 
# 
# From -- ./inp_files/20634.got.cif
#   From: 2010.05.17/outbox.cif.g08.bks.cpg/sg22_11_cif.got.tgz:20634.got - 2010.06.03 23:40:54.
