data_PCOD9329233
_publ_section_title
;
Structure prediction by ZEFSAII (Michael W. Deem and Ramdas Pophale) SiO2 
 PCOD9329233
Probable space group: F 2 2 2
;
_chemical_formula_sum "Si O2"
_cell_formula_units_Z 92
_cell_length_a 22.196078
_cell_length_b 8.671092
_cell_length_c 22.991225
_cell_angle_alpha 90.000000
_cell_angle_beta 90.000000
_cell_angle_gamma 90.000000
_cell_volume 4424.988517
_symmetry_space_group_name_H-M "F 2 2 2"
_symmetry_group_IT_number 22
_symmetry_cell_setting 'orthorhombic'
loop_
_space_group_symop_operation_xyz
x,y,z
-x,-y,z
x,-y,-z
-x,y,-z
x,1/2+y,1/2+z
-x,1/2-y,1/2+z
x,1/2-y,1/2-z
-x,1/2+y,1/2-z
1/2+x,y,1/2+z
1/2-x,-y,1/2+z
1/2+x,-y,1/2-z
1/2-x,y,1/2-z
1/2+x,1/2+y,z
1/2-x,1/2-y,z
1/2+x,1/2-y,-z
1/2-x,1/2+y,-z
loop_
_atom_site_type_symbol
_atom_site_label
_atom_site_fract_x
_atom_site_fract_y
_atom_site_fract_z
Si Si1 0.194723 0.334908 0.869384
Si Si2 0.611619 0.592100 0.211979
Si Si3 0.000000 0.500000 0.363881
Si Si4 0.218549 0.593058 0.616182
Si Si5 0.500000 0.000000 0.000000
Si Si6 0.922827 0.254311 0.438507
Si Si7 0.144225 0.250000 0.750000
Si Si8 0.648959 0.000000 0.500000
O O1 0.250000 0.250000 0.901203
O O2 0.223316 0.500298 0.860713
O O3 0.132719 0.314851 0.902341
O O4 0.183087 0.256941 0.807892
O O5 0.613685 0.750000 0.250000
O O6 0.549754 0.585807 0.175350
O O7 0.667829 0.599129 0.166525
O O8 0.613133 0.422071 0.244821
O O9 0.962972 0.375138 0.401845
O O10 0.250000 0.750000 0.598094
O O11 0.187072 0.523628 0.558619
O O12 0.460850 0.112680 0.960793
O O13 0.893533 0.352167 0.490706
#
# Coordination Sequence:
#
# PCOD9329233 Si02
#       8
#    16  16   8  16   4  16   8   8
#     4  12  23  45  73 108 144 186 244 301 380 459
#     4  12  28  48  75 113 150 205 259 318 383 467
#     4  12  24  55  73 104 152 201 261 314 386 454
#     4  12  28  45  72 113 147 196 249 312 383 472
#     4  12  32  44  82 112 138 204 260 318 364 476
#     4  12  27  49  75 105 148 196 252 312 385 452
#     4  12  23  46  76 108 148 202 241 310 398 438
#     4  12  24  48  72 102 151 197 234 308 396 440
#
# _framework density 20.791015999999999
#
# number of rings (size 3 to 8) (size 9 to 14) (size 15 to 20)
#    0.000    0.000    6.957    2.348    6.087    3.130 
#    0.000    0.000    0.000    0.000    0.000    0.000 
#    0.000    0.000    0.000    0.000    0.000    0.000 
#
# Total GULP energy -128382.311662 kJ/mol
# GULP energy per Si atom -5581.839637 kJ/mol
# Density = 2.074369 g / cm^3
# Si number density = 20.791016 Si / 1000 Ang^3
#
#
#
# Elastic Constant Matrix: (Units=GPa)
#
#
# Indices 1 2 3 4 5 6 
#
# 1 164.5682 70.4172 72.1789 0.0000 0.0000 0.0000
# 2 70.4172 142.8234 63.7423 0.0000 0.0001 0.0000
# 3 72.1789 63.7423 102.4643 0.0000 0.0000 0.0000
# 4 0.0000 0.0000 0.0000 28.0138 0.0000 0.0000
# 5 0.0000 0.0001 0.0000 0.0000 -113.7360 0.0000
# 6 0.0000 0.0000 0.0000 0.0000 0.0000 38.3032
#
#
#
# Elastic Compliance Matrix: (Units=1/GPa)
#
#
# Indices 1 2 3 4 5 6 
#
# 1 0.009310 -0.002302 -0.005126 0.000000 0.000000 0.000000
# 2 -0.002302 0.010262 -0.004762 0.000000 0.000000 0.000000
# 3 -0.005126 -0.004762 0.016333 0.000000 0.000000 0.000000
# 4 0.000000 0.000000 0.000000 0.035697 0.000000 0.000000
# 5 0.000000 0.000000 0.000000 0.000000 -0.008792 0.000000
# 6 0.000000 0.000000 0.000000 0.000000 0.000000 0.026107
#
#
# Mechanical properties :
#
#
# Convention : Reuss Voigt Hill
#
# Bulk Modulus (GPa) = 86.77506 91.39251 89.08379
# Shear Modulus (GPa) = 42.68442 4.08404 23.38423
#
# Velocity S-wave (km/s) = 4.53594 1.40307 3.35733
# Velocity P-wave (km/s) = 8.32229 6.83212 7.61375
#
# Compressibility (1/GPa) = 0.01152405
#
# Stress axis : x y z
#
# Youngs Moduli (GPa) = 107.41303 97.44511 61.22671
#
# Poissons Ratio (x) = 0.22436 0.31384
# Poissons Ratio (y) = 0.24731 0.29157
# Poissons Ratio (z) = 0.55058 0.46404
#
# Static dielectric constant tensor:
#      x y z
#    x 1.758850 0.000000 0.000000 
#    y 0.000000 2.324970 0.000000 
#    z 0.000000 0.000000 1.723660 
# 
# From -- ./inp_files/49876.got.cif
#   From: 2010.05.17/outbox.cif.g08.bks.cpg/sg22_25_cif.got.tgz:49876.got - 2010.06.03 23:40:54.
