data_PCOD9329143
_publ_section_title
;
Structure prediction by ZEFSAII (Michael W. Deem and Ramdas Pophale) SiO2 
 PCOD9329143
Probable space group: F 2 2 2
;
_chemical_formula_sum "Si O2"
_cell_formula_units_Z 88
_cell_length_a 29.404612
_cell_length_b 16.708622
_cell_length_c 8.406075
_cell_angle_alpha 90.000000
_cell_angle_beta 90.000000
_cell_angle_gamma 90.000000
_cell_volume 4129.993306
_symmetry_space_group_name_H-M "F 2 2 2"
_symmetry_group_IT_number 22
_symmetry_cell_setting 'orthorhombic'
loop_
_space_group_symop_operation_xyz
x,y,z
-x,-y,z
x,-y,-z
-x,y,-z
x,1/2+y,1/2+z
-x,1/2-y,1/2+z
x,1/2-y,1/2-z
-x,1/2+y,1/2-z
1/2+x,y,1/2+z
1/2-x,-y,1/2+z
1/2+x,-y,1/2-z
1/2-x,y,1/2-z
1/2+x,1/2+y,z
1/2-x,1/2-y,z
1/2+x,1/2-y,-z
1/2-x,1/2+y,-z
loop_
_atom_site_type_symbol
_atom_site_label
_atom_site_fract_x
_atom_site_fract_y
_atom_site_fract_z
Si Si1 0.307375 0.363090 0.419102
Si Si2 0.205468 0.092366 0.049483
Si Si3 0.870956 0.500000 0.000000
Si Si4 0.949683 0.141737 0.010380
Si Si5 0.358278 0.781053 0.430725
Si Si6 0.948960 0.499459 0.251151
O O1 0.255029 0.367844 0.472137
O O2 0.307526 0.392324 0.234922
O O3 0.338075 0.424827 0.517171
O O4 0.329680 0.277853 0.454963
O O5 0.167748 0.134800 0.942668
O O6 0.208878 0.000000 0.000000
O O7 0.905633 0.487409 0.856810
O O8 0.909143 0.204616 0.005646
O O9 0.944347 0.087692 0.168265
O O10 0.948244 0.072394 0.876712
O O11 0.000000 0.178560 0.000000
O O12 0.358825 0.750000 0.250000
O O13 0.000000 0.500000 0.180209
#
# Coordination Sequence:
#
# PCOD9329143 Si02
#       6
#    16  16   8  16  16  16
#     4  11  26  44  65 100 136 175 228 280 338 399
#     4  11  26  47  71  93 135 186 225 274 339 409
#     4  12  21  38  64  98 134 164 227 280 328 396
#     4   9  20  42  66  93 131 180 220 265 333 407
#     4  12  26  42  69 104 137 176 227 283 339 394
#     4   9  19  36  64  95 131 174 220 268 330 401
#
# _framework density 21.307541000000001
#
# number of rings (size 3 to 8) (size 9 to 14) (size 15 to 20)
#    0.000    1.455    0.909    4.636    7.636    2.909 
#    0.000    7.273    0.000    0.000    0.000    0.000 
#    0.000    0.000    0.000    0.000    0.000    0.000 
#
# Total GULP energy -122961.903282 kJ/mol
# GULP energy per Si atom -5589.177422 kJ/mol
# Density = 2.125904 g / cm^3
# Si number density = 21.307541 Si / 1000 Ang^3
#
#
#
# Elastic Constant Matrix: (Units=GPa)
#
#
# Indices 1 2 3 4 5 6 
#
# 1 171.4923 45.4059 30.7813 0.0000 0.0000 0.0000
# 2 45.4059 77.3314 7.0103 0.0000 0.0000 0.0000
# 3 30.7813 7.0103 41.0640 0.0000 0.0000 0.0000
# 4 0.0000 0.0000 0.0000 12.2043 0.0000 0.0000
# 5 0.0000 0.0000 0.0000 0.0000 -2.3944 0.0000
# 6 0.0000 0.0000 0.0000 0.0000 0.0000 117.9676
#
#
#
# Elastic Compliance Matrix: (Units=1/GPa)
#
#
# Indices 1 2 3 4 5 6 
#
# 1 0.007859 -0.004145 -0.005183 0.000000 0.000000 0.000000
# 2 -0.004145 0.015320 0.000491 0.000000 0.000000 0.000000
# 3 -0.005183 0.000491 0.028154 0.000000 0.000000 0.000000
# 4 0.000000 0.000000 0.000000 0.081938 0.000000 0.000000
# 5 0.000000 0.000000 0.000000 0.000000 -0.417636 0.000000
# 6 0.000000 0.000000 0.000000 0.000000 0.000000 0.008477
#
#
# Mechanical properties :
#
#
# Convention : Reuss Voigt Hill
#
# Bulk Modulus (GPa) = 29.70917 50.69809 40.20363
# Shear Modulus (GPa) = -20.24340 39.33484 9.54572
#
# Velocity S-wave (km/s) = -3.08564 4.30123 2.11889
# Velocity P-wave (km/s) = 1.13065 6.96510 4.98954
#
# Compressibility (1/GPa) = 0.03365964
#
# Stress axis : x y z
#
# Youngs Moduli (GPa) = 127.24452 65.27274 35.51920
#
# Poissons Ratio (x) = 0.27053 0.18411
# Poissons Ratio (y) = 0.52737 -0.01745
# Poissons Ratio (z) = 0.65956 -0.03207
#
# Static dielectric constant tensor:
#      x y z
#    x 1.741050 0.000000 0.000000 
#    y 0.000000 1.986910 0.000000 
#    z 0.000000 0.000000 1.824700 
# 
# From -- ./inp_files/15557.got.cif
#   From: 2010.05.17/outbox.cif.g08.bks.cpg/sg22_8_cif.got.tgz:15557.got - 2010.06.03 23:40:54.
