data_PCOD9329010
_publ_section_title
;
Structure prediction by ZEFSAII (Michael W. Deem and Ramdas Pophale) SiO2 
 PCOD9329010
Probable space group: F 2 2 2
;
_chemical_formula_sum "Si O2"
_cell_formula_units_Z 80
_cell_length_a 16.327115
_cell_length_b 15.387110
_cell_length_c 12.291470
_cell_angle_alpha 90.000000
_cell_angle_beta 90.000000
_cell_angle_gamma 90.000000
_cell_volume 3087.950541
_symmetry_space_group_name_H-M "F 2 2 2"
_symmetry_group_IT_number 22
_symmetry_cell_setting 'orthorhombic'
loop_
_space_group_symop_operation_xyz
x,y,z
-x,-y,z
x,-y,-z
-x,y,-z
x,1/2+y,1/2+z
-x,1/2-y,1/2+z
x,1/2-y,1/2-z
-x,1/2+y,1/2-z
1/2+x,y,1/2+z
1/2-x,-y,1/2+z
1/2+x,-y,1/2-z
1/2-x,y,1/2-z
1/2+x,1/2+y,z
1/2-x,1/2-y,z
1/2+x,1/2-y,-z
1/2-x,1/2+y,-z
loop_
_atom_site_type_symbol
_atom_site_label
_atom_site_fract_x
_atom_site_fract_y
_atom_site_fract_z
Si Si1 0.180156 0.508133 0.875076
Si Si2 0.629645 0.532001 0.885192
Si Si3 0.901742 0.828611 0.672891
Si Si4 0.915864 0.628030 0.259933
Si Si5 0.596497 0.299430 0.992590
O O1 0.277700 0.502103 0.870285
O O2 0.146055 0.419584 0.816394
O O3 0.150333 0.601364 0.830550
O O4 0.152888 0.500000 0.000000
O O5 0.576799 0.468476 0.809773
O O6 0.635118 0.633115 0.919954
O O7 0.596825 0.500000 0.000000
O O8 0.872704 0.750000 0.750000
O O9 0.892474 0.793706 0.549873
O O10 0.997163 0.843820 0.708456
O O11 0.886490 0.686486 0.363491
O O12 0.500000 0.317080 0.000000
#
# Coordination Sequence:
#
# PCOD9329010 Si02
#       5
#    16  16  16  16  16
#     4  11  26  45  72 102 145 188 242 306 371 435
#     4   9  22  46  73 105 136 191 250 300 360 450
#     4  12  26  42  67 110 143 187 238 313 369 436
#     4  11  24  42  72 101 145 193 247 308 374 445
#     4  11  24  43  72 105 146 189 251 304 373 460
#
# _framework density 25.907150999999999
#
# number of rings (size 3 to 8) (size 9 to 14) (size 15 to 20)
#    0.000    1.200    2.000    2.400    5.600    4.400 
#    0.000    1.000    4.400    2.400    0.000    0.000 
#    0.000    0.000    0.000    0.000    0.000    0.000 
#
# Total GULP energy -111507.201057 kJ/mol
# GULP energy per Si atom -5575.360053 kJ/mol
# Density = 2.584819 g / cm^3
# Si number density = 25.907151 Si / 1000 Ang^3
#
#
#
# Elastic Constant Matrix: (Units=GPa)
#
#
# Indices 1 2 3 4 5 6 
#
# 1 35.5975 26.5697 -9.6828 0.0000 0.0000 0.0000
# 2 26.5697 127.9424 54.5493 0.0000 0.0000 0.0000
# 3 -9.6828 54.5493 119.4996 0.0000 0.0000 0.0000
# 4 0.0000 0.0000 0.0000 73.1677 0.0000 0.0000
# 5 0.0000 0.0000 0.0000 0.0000 23.0568 0.0000
# 6 0.0000 0.0000 0.0000 0.0000 0.0000 109.3602
#
#
#
# Elastic Compliance Matrix: (Units=1/GPa)
#
#
# Indices 1 2 3 4 5 6 
#
# 1 0.039227 -0.011797 0.008564 0.000000 0.000000 0.000000
# 2 -0.011797 0.013253 -0.007006 0.000000 0.000000 0.000000
# 3 0.008564 -0.007006 0.012260 0.000000 0.000000 0.000000
# 4 0.000000 0.000000 0.000000 0.013667 0.000000 0.000000
# 5 0.000000 0.000000 0.000000 0.000000 0.043371 0.000000
# 6 0.000000 0.000000 0.000000 0.000000 0.000000 0.009144
#
#
# Mechanical properties :
#
#
# Convention : Reuss Voigt Hill
#
# Bulk Modulus (GPa) = 22.59313 47.32353 34.95833
# Shear Modulus (GPa) = 30.09246 55.22382 42.65814
#
# Velocity S-wave (km/s) = 3.41185 4.62194 4.06221
# Velocity P-wave (km/s) = 4.92552 6.84027 5.96029
#
# Compressibility (1/GPa) = 0.04426124
#
# Stress axis : x y z
#
# Youngs Moduli (GPa) = 25.49274 75.45522 81.56560
#
# Poissons Ratio (x) = 0.89018 -0.69851
# Poissons Ratio (y) = 0.30075 0.57142
# Poissons Ratio (z) = -0.21831 0.52861
#
# Static dielectric constant tensor:
#      x y z
#    x 2.009630 0.000000 0.000000 
#    y 0.000000 2.260970 0.000000 
#    z 0.000000 0.000000 2.047950 
# 
# From -- ./inp_files/30516.got.cif
#   From: 2010.05.17/outbox.cif.g08.bks.cpg/sg22_16_cif.got.tgz:30516.got - 2010.06.03 23:40:54.
