data_PCOD9329344
_publ_section_title
;
Structure prediction by ZEFSAII (Michael W. Deem and Ramdas Pophale) SiO2 
 PCOD9329344
Probable space group: I 2 2 2
;
_chemical_formula_sum "Si O2"
_cell_formula_units_Z 48
_cell_length_a 7.366275
_cell_length_b 7.842143
_cell_length_c 34.516463
_cell_angle_alpha 90.000000
_cell_angle_beta 90.000000
_cell_angle_gamma 90.000000
_cell_volume 1993.925701
_symmetry_space_group_name_H-M "I 2 2 2"
_symmetry_group_IT_number 23
_symmetry_cell_setting 'orthorhombic'
loop_
_space_group_symop_operation_xyz
x,y,z
-x,-y,z
x,-y,-z
-x,y,-z
1/2+x,1/2+y,1/2+z
1/2-x,1/2-y,1/2+z
1/2+x,1/2-y,1/2-z
1/2-x,1/2+y,1/2-z
loop_
_atom_site_type_symbol
_atom_site_label
_atom_site_fract_x
_atom_site_fract_y
_atom_site_fract_z
Si Si1 0.250597 0.692476 0.684510
Si Si2 0.278437 0.505996 0.455569
Si Si3 0.712548 0.819396 0.597613
Si Si4 0.883016 0.673231 0.178058
Si Si5 0.692808 0.593282 0.740955
Si Si6 0.233158 0.701548 0.099216
O O1 0.464778 0.680734 0.675453
O O2 0.200165 0.524918 0.709459
O O3 0.238646 0.848742 0.715320
O O4 0.186658 0.743492 0.641386
O O5 0.500000 0.500000 0.455801
O O6 0.219448 0.500000 0.500000
O O7 0.225692 0.674034 0.431432
O O8 0.214279 0.342326 0.431783
O O9 0.755979 0.802711 0.643312
O O10 0.490157 0.805711 0.598899
O O11 0.777849 0.008495 0.587596
O O12 0.805151 0.719666 0.219815
O O13 0.000000 0.500000 0.172805
O O14 0.500000 0.500000 0.745014
#
# Coordination Sequence:
#
# PCOD9329344 Si02
#       6
#     8   8   8   8   8   8
#     4  10  18  30  43  64  88 122 164 194 244 278
#     4   9  17  26  38  60  88 116 152 193 234 280
#     4   9  15  26  42  58  83 116 153 197 225 270
#     4  10  16  29  45  63  87 119 166 201 227 279
#     4  10  21  30  46  68  94 125 163 210 242 278
#     4   9  16  27  41  59  80 118 158 188 228 281
#
# _framework density 24.073112999999999
#
# number of rings (size 3 to 8) (size 9 to 14) (size 15 to 20)
#    0.000    2.500    3.333    2.000    0.000    4.667 
#    0.000    3.333    0.000    0.000    0.000    0.000 
#    0.000    0.000    0.000    4.500    2.000    5.333 
#
# Total GULP energy -133682.971138 kJ/mol
# GULP energy per Si atom -5570.123797 kJ/mol
# Density = 2.401832 g / cm^3
# Si number density = 24.073113 Si / 1000 Ang^3
#
#
#
# Elastic Constant Matrix: (Units=GPa)
#
#
# Indices 1 2 3 4 5 6 
#
# 1 73.7720 15.7909 13.9605 0.0000 0.0000 0.0000
# 2 15.7909 198.7744 141.9007 0.0000 0.0000 0.0000
# 3 13.9605 141.9007 250.7638 0.0000 0.0000 0.0000
# 4 0.0000 0.0000 0.0000 29.0281 0.0000 0.0000
# 5 0.0000 0.0000 0.0000 0.0000 -0.0036 0.0000
# 6 0.0000 0.0000 0.0000 0.0000 0.0000 -1.7113
#
#
#
# Elastic Compliance Matrix: (Units=1/GPa)
#
#
# Indices 1 2 3 4 5 6 
#
# 1 0.013799 -0.000919 -0.000248 0.000000 0.000000 0.000000
# 2 -0.000919 0.008502 -0.004760 0.000000 0.000002 0.000000
# 3 -0.000248 -0.004760 0.006695 0.000000 -0.000001 0.000000
# 4 0.000000 0.000000 0.000000 0.034449 0.000002 0.000000
# 5 0.000000 0.000002 -0.000001 0.000002********** 0.000038
# 6 0.000000 0.000000 0.000000 0.000000 0.000038 -0.584365
#
#
# Mechanical properties :
#
#
# Convention : Reuss Voigt Hill
#
# Bulk Modulus (GPa) = 58.33683 96.29050 77.31367
# Shear Modulus (GPa) = -0.01803 28.90652 14.44424
#
# Velocity S-wave (km/s) = -0.08664 3.46899 2.45218
# Velocity P-wave (km/s) = 4.92705 7.49207 6.34062
#
# Compressibility (1/GPa) = 0.01714183
#
# Stress axis : x y z
#
# Youngs Moduli (GPa) = 72.46926 117.62336 149.36429
#
# Poissons Ratio (x) = 0.10810 0.03706
# Poissons Ratio (y) = 0.06660 0.71093
# Poissons Ratio (z) = 0.01798 0.55986
#
# Static dielectric constant tensor:
#      x y z
#    x 2.146100 0.000000 0.000000 
#    y 0.000000 1.978560 0.000000 
#    z 0.000000 0.000000 1.991220 
# 
# From -- ./inp_files/29410.got.cif
#   From: 2010.05.17/outbox.cif.g08.bks.cpg/sg23_15_cif.got.tgz:29410.got - 2010.06.04 12:02:01.
