data_PCOD9329865
_publ_section_title
;
Structure prediction by ZEFSAII (Michael W. Deem and Ramdas Pophale) SiO2 
 PCOD9329865
Probable space group: I 2 2 2
;
_chemical_formula_sum "Si O2"
_cell_formula_units_Z 48
_cell_length_a 9.479561
_cell_length_b 17.120179
_cell_length_c 12.067379
_cell_angle_alpha 90.000000
_cell_angle_beta 90.000000
_cell_angle_gamma 90.000000
_cell_volume 1958.436432
_symmetry_space_group_name_H-M "I 2 2 2"
_symmetry_group_IT_number 23
_symmetry_cell_setting 'orthorhombic'
loop_
_space_group_symop_operation_xyz
x,y,z
-x,-y,z
x,-y,-z
-x,y,-z
1/2+x,1/2+y,1/2+z
1/2-x,1/2-y,1/2+z
1/2+x,1/2-y,1/2-z
1/2-x,1/2+y,1/2-z
loop_
_atom_site_type_symbol
_atom_site_label
_atom_site_fract_x
_atom_site_fract_y
_atom_site_fract_z
Si Si1 0.451827 0.305187 0.354642
Si Si2 0.687249 0.098206 0.388793
Si Si3 0.588308 0.730158 0.104976
Si Si4 0.131670 0.366096 0.871609
Si Si5 0.339775 0.467987 0.311886
Si Si6 0.248808 0.124759 0.131146
O O1 0.482231 0.282410 0.224864
O O2 0.388714 0.225506 0.402147
O O3 0.347871 0.379740 0.357111
O O4 0.599214 0.337230 0.400512
O O5 0.768873 0.180605 0.379381
O O6 0.526669 0.103976 0.347303
O O7 0.682344 0.087368 0.520798
O O8 0.771847 0.040485 0.309550
O O9 0.629619 0.819988 0.085125
O O10 0.500000 0.700569 0.000000
O O11 0.228670 0.368988 0.764599
O O12 0.500000 0.500000 0.303274
O O13 0.258038 0.532084 0.383746
#
# Coordination Sequence:
#
# PCOD9329865 Si02
#       6
#     8   8   8   8   8   8
#     4   9  18  36  58  86 114 158 201 244 299 348
#     4  10  20  36  56  89 116 147 203 247 297 345
#     4  10  19  33  57  87 117 153 204 251 286 350
#     4  10  20  33  58  88 117 156 194 254 295 343
#     4   9  20  37  60  87 119 161 195 241 301 367
#     4  10  19  35  56  86 120 155 199 236 307 360
#
# _framework density 24.509350000000001
#
# number of rings (size 3 to 8) (size 9 to 14) (size 15 to 20)
#    0.000    2.333    1.667    1.000    0.000    1.333 
#    0.000    7.500    0.000    1.000    8.667    0.000 
#    0.000    0.000    0.000    0.000    0.000    0.000 
#
# Total GULP energy -134196.023986 kJ/mol
# GULP energy per Si atom -5591.500999 kJ/mol
# Density = 2.445357 g / cm^3
# Si number density = 24.509350 Si / 1000 Ang^3
#
#
#
# Elastic Constant Matrix: (Units=GPa)
#
#
# Indices 1 2 3 4 5 6 
#
# 1 51.6879 19.8325 26.4977 0.0000 0.0000 0.0000
# 2 19.8325 150.6933 24.2798 0.0000 0.0000 0.0000
# 3 26.4977 24.2798 91.9759 0.0000 0.0000 0.0000
# 4 0.0000 0.0000 0.0000 32.5934 0.0000 0.0000
# 5 0.0000 0.0000 0.0000 0.0000 21.9408 0.0000
# 6 0.0000 0.0000 0.0000 0.0000 0.0000 13.6266
#
#
#
# Elastic Compliance Matrix: (Units=1/GPa)
#
#
# Indices 1 2 3 4 5 6 
#
# 1 0.023304 -0.002073 -0.006166 0.000000 0.000000 0.000000
# 2 -0.002073 0.007115 -0.001281 0.000000 0.000000 0.000000
# 3 -0.006166 -0.001281 0.012987 0.000000 0.000000 0.000000
# 4 0.000000 0.000000 0.000000 0.030681 0.000000 0.000000
# 5 0.000000 0.000000 0.000000 0.000000 0.045577 0.000000
# 6 0.000000 0.000000 0.000000 0.000000 0.000000 0.073386
#
#
# Mechanical properties :
#
#
# Convention : Reuss Voigt Hill
#
# Bulk Modulus (GPa) = 41.04320 48.39744 44.72032
# Shear Modulus (GPa) = 22.70532 28.54865 25.62698
#
# Velocity S-wave (km/s) = 3.04697 3.41663 3.23708
# Velocity P-wave (km/s) = 5.40010 5.94591 5.67956
#
# Compressibility (1/GPa) = 0.02436457
#
# Stress axis : x y z
#
# Youngs Moduli (GPa) = 42.91186 140.54292 76.99998
#
# Poissons Ratio (x) = 0.29141 0.47480
# Poissons Ratio (y) = 0.08898 0.09863
# Poissons Ratio (z) = 0.26461 0.18003
#
# Static dielectric constant tensor:
#      x y z
#    x 1.892390 0.000000 0.000000 
#    y 0.000000 1.987990 0.000000 
#    z 0.000000 0.000000 1.964000 
# 
# From -- ./inp_files/9942.got.cif
#   From: 2010.05.17/outbox.cif.g08.bks.cpg/sg23_5_cif.got.tgz:9942.got - 2010.06.04 12:02:01.
