data_PCOD9329543
_publ_section_title
;
Structure prediction by ZEFSAII (Michael W. Deem and Ramdas Pophale) SiO2 
 PCOD9329543
Probable space group: I 2 2 2
;
_chemical_formula_sum "Si O2"
_cell_formula_units_Z 64
_cell_length_a 23.820712
_cell_length_b 9.000361
_cell_length_c 19.623574
_cell_angle_alpha 90.000000
_cell_angle_beta 90.000000
_cell_angle_gamma 90.000000
_cell_volume 4207.196291
_symmetry_space_group_name_H-M "I 2 2 2"
_symmetry_group_IT_number 23
_symmetry_cell_setting 'orthorhombic'
loop_
_space_group_symop_operation_xyz
x,y,z
-x,-y,z
x,-y,-z
-x,y,-z
1/2+x,1/2+y,1/2+z
1/2-x,1/2-y,1/2+z
1/2+x,1/2-y,1/2-z
1/2-x,1/2+y,1/2-z
loop_
_atom_site_type_symbol
_atom_site_label
_atom_site_fract_x
_atom_site_fract_y
_atom_site_fract_z
Si Si1 0.724116 0.822119 0.350925
Si Si2 0.879396 0.321048 0.500000
Si Si3 0.435218 0.179196 0.143679
Si Si4 0.338665 0.676959 0.230231
Si Si5 0.243773 0.820736 0.500000
Si Si6 0.564782 0.820803 0.856321
Si Si7 0.275884 0.822118 0.350925
Si Si8 0.838665 0.823040 0.730231
O O1 0.785784 0.787851 0.319624
O O2 0.725166 0.778738 0.430092
O O3 0.679232 0.741078 0.303404
O O4 0.716260 0.000000 0.345591
O O5 0.873467 0.500000 0.500000
O O6 0.912798 0.279094 0.431595
O O7 0.818184 0.248467 0.500000
O O8 0.912798 0.279094 0.568404
O O9 0.500000 0.223427 0.151881
O O10 0.393854 0.250332 0.198704
O O11 0.432134 1.000000 0.148577
O O12 0.393855 0.749667 0.198704
O O13 0.320768 0.741078 0.303403
O O14 0.344282 0.500000 0.233035
O O15 0.274834 0.778737 0.430092
O O16 0.237864 0.000000 0.500000
O O17 0.214217 0.787851 0.319624
#
# Coordination Sequence:
#
# PCOD9329543 Si02
#       8
#     8   8   8   8   8   8   8   8
#     4   9  18  31  48  68  95 125 156 194 239 286
#     4  10  19  30  46  68  96 129 165 199 230 271
#     4  10  20  33  48  67  95 131 167 199 234 278
#     4  10  19  31  48  69  94 124 160 200 238 278
#     4  10  18  31  49  71  97 127 158 193 238 284
#     4  10  20  33  48  67  95 131 167 199 234 278
#     4   9  18  31  48  68  95 125 156 194 239 286
#     4  10  19  31  48  69  94 124 160 200 238 278
#
# _framework density 15.212031
#
# number of rings (size 3 to 8) (size 9 to 14) (size 15 to 20)
#    0.000    2.250    2.500    1.125    0.000    4.000 
#    0.000    0.000    0.000    2.250    0.000    0.875 
#    0.000    7.000    0.000    0.000    0.000    0.000 
#
# Total GULP energy -178490.332639 kJ/mol
# GULP energy per Si atom -5577.822895 kJ/mol
# Density = 1.517741 g / cm^3
# Si number density = 15.212031 Si / 1000 Ang^3
#
#
#
# Elastic Constant Matrix: (Units=GPa)
#
#
# Indices 1 2 3 4 5 6 
#
# 1 110.2104 38.7093 82.2695 0.0000 0.0000 0.0000
# 2 38.7093 19.5391 43.1125 0.0000 0.0000 0.0000
# 3 82.2695 43.1125 151.8779 0.0000 0.0000 0.0000
# 4 0.0000 0.0000 0.0000 17.1993 0.0000 0.0000
# 5 0.0000 0.0000 0.0000 0.0000 19.9338 0.0000
# 6 0.0000 0.0000 0.0000 0.0000 0.0000 24.7752
#
#
#
# Elastic Compliance Matrix: (Units=1/GPa)
#
#
# Indices 1 2 3 4 5 6 
#
# 1 0.029986 -0.063068 0.001660 0.000000 0.000000 0.000000
# 2 -0.063068 0.269615 -0.042371 0.000000 0.000000 0.000000
# 3 0.001660 -0.042371 0.017713 0.000000 0.000000 0.000000
# 4 0.000000 0.000000 0.000000 0.058142 0.000000 0.000000
# 5 0.000000 0.000000 0.000000 0.000000 0.050166 0.000000
# 6 0.000000 0.000000 0.000000 0.000000 0.000000 0.040363
#
#
# Mechanical properties :
#
#
# Convention : Reuss Voigt Hill
#
# Bulk Modulus (GPa) = 9.11119 67.75669 38.43394
# Shear Modulus (GPa) = 7.04099 20.21741 13.62920
#
# Velocity S-wave (km/s) = 2.15375 3.64956 2.99649
# Velocity P-wave (km/s) = 3.49103 7.89919 6.10674
#
# Compressibility (1/GPa) = 0.10975516
#
# Stress axis : x y z
#
# Youngs Moduli (GPa) = 33.34899 3.70900 56.45685
#
# Poissons Ratio (x) = 0.23392 -0.09371
# Poissons Ratio (y) = 2.10325 2.39212
# Poissons Ratio (z) = -0.05535 0.15715
#
# Static dielectric constant tensor:
#      x y z
#    x 1.471130 0.000000 0.000000 
#    y 0.000000 1.501910 0.000000 
#    z 0.000000 0.000000 1.508510 
# 
# From -- ./inp_files/12769.got.cif
#   From: 2010.05.17/outbox.cif.g08.bks.cpg/sg23_7_cif.got.tgz:12769.got - 2010.06.04 12:02:01.
