data_PCOD9329310
_publ_section_title
;
Structure prediction by ZEFSAII (Michael W. Deem and Ramdas Pophale) SiO2 
 PCOD9329310
Probable space group: F 2 2 2
;
_chemical_formula_sum "Si O2"
_cell_formula_units_Z 30
_cell_length_a 21.000000
_cell_length_b 24.000000
_cell_length_c 12.000000
_cell_angle_alpha 90.000000
_cell_angle_beta 90.000000
_cell_angle_gamma 90.000000
_cell_volume 6048.000000
_symmetry_space_group_name_H-M "F 2 2 2"
_symmetry_group_IT_number 22
_symmetry_cell_setting 'orthorhombic'
loop_
_space_group_symop_operation_xyz
x,y,z
-x,-y,z
x,-y,-z
-x,y,-z
x,1/2+y,1/2+z
-x,1/2-y,1/2+z
x,1/2-y,1/2-z
-x,1/2+y,1/2-z
1/2+x,y,1/2+z
1/2-x,-y,1/2+z
1/2+x,-y,1/2-z
1/2-x,y,1/2-z
1/2+x,1/2+y,z
1/2-x,1/2-y,z
1/2+x,1/2-y,-z
1/2-x,1/2+y,-z
loop_
_atom_site_type_symbol
_atom_site_label
_atom_site_fract_x
_atom_site_fract_y
_atom_site_fract_z
Si Si1 0.818327 0.119581 0.492840
Si Si2 0.428570 0.563423 0.044019
Si Si3 0.921923 0.750000 0.750000
Si Si4 0.676389 0.637773 0.073380
Si Si5 0.897538 0.533747 0.885092
Si Si6 0.027152 0.621659 0.233247
Si Si7 0.383762 0.916164 0.781613
Si Si8 0.824032 0.750909 0.552708
O O1 0.744408 0.119740 0.524943
O O2 0.834980 0.073243 0.399417
O O3 0.859867 0.101688 0.597914
O O4 0.835956 0.183877 0.470669
O O5 0.435387 0.587213 0.169762
O O6 0.412014 0.500000 0.000000
O O7 0.500000 0.571068 0.000000
O O8 0.378848 0.605498 0.990934
O O9 0.957713 0.688984 0.770294
O O10 0.875597 0.736318 0.646293
O O11 0.666110 0.612767 0.196723
O O12 0.671216 0.704575 0.046784
O O13 0.950837 0.581897 0.869061
O O14 0.891067 0.484054 0.792112
O O15 0.908676 0.500000 0.000000
O O16 0.952148 0.610562 0.247013
O O17 0.750000 0.750000 0.591489
#
# Coordination Sequence:
#
# PCOD9329310 Si02
#       8
#    16  16   8  16  16  16  16  16
#     4  10  23  43  66  97 129 176 227 269 326 391
#     4  11  23  40  64  95 132 170 211 270 328 393
#     4  12  23  42  68 100 133 162 222 280 328 396
#     4  11  22  42  68  94 132 171 220 275 329 394
#     4  10  23  44  67  92 134 177 224 270 324 397
#     4  12  24  41  67 101 129 172 222 266 335 395
#     4  11  24  41  65  95 137 177 216 268 331 398
#     4  10  22  42  68  93 132 173 216 276 335 396
#
# _framework density 4.9603169999999999
#
# number of rings (size 3 to 8) (size 9 to 14) (size 15 to 20)
#    0.000    1.200    4.000    1.800    1.867    6.933 
#    0.000    6.667    0.000    0.000    0.000    0.000 
#    0.000    0.000    0.000    0.000    0.000    0.000 
#
# Total GULP energy -167011.342960 kJ/mol
# GULP energy per Si atom -5567.044765 kJ/mol
# Density = 0.494903 g / cm^3
# Si number density = 4.960317 Si / 1000 Ang^3
#
#
#
# Elastic Constant Matrix: (Units=GPa)
#
#
# Indices 1 2 3 4 5 6 
#
# 1 67.0737 54.5652 10.1608 0.0000 0.0000 0.0000
# 2 54.5652 190.1566 30.8836 0.0000 0.0000 0.0000
# 3 10.1608 30.8836 43.4953 0.0000 0.0000 0.0000
# 4 0.0000 0.0000 0.0000 33.1222 0.0000 0.0000
# 5 0.0000 0.0000 0.0000 0.0000 31.1263 0.0000
# 6 0.0000 0.0000 0.0000 0.0000 0.0000 36.5975
#
#
#
# Elastic Compliance Matrix: (Units=1/GPa)
#
#
# Indices 1 2 3 4 5 6 
#
# 1 0.019466 -0.005479 -0.000657 0.000000 0.000000 0.000000
# 2 -0.005479 0.007486 -0.004036 0.000000 0.000000 0.000000
# 3 -0.000657 -0.004036 0.026010 0.000000 0.000000 0.000000
# 4 0.000000 0.000000 0.000000 0.030191 0.000000 0.000000
# 5 0.000000 0.000000 0.000000 0.000000 0.032127 0.000000
# 6 0.000000 0.000000 0.000000 0.000000 0.000000 0.027324
#
#
# Mechanical properties :
#
#
# Convention : Reuss Voigt Hill
#
# Bulk Modulus (GPa) = 30.65729 54.66053 42.65891
# Shear Modulus (GPa) = 28.76517 33.84360 31.30439
#
# Velocity S-wave (km/s) = 3.81171 4.13451 3.97639
# Velocity P-wave (km/s) = 5.90398 7.09937 6.52909
#
# Compressibility (1/GPa) = 0.03261867
#
# Stress axis : x y z
#
# Youngs Moduli (GPa) = 51.37244 133.57456 38.44664
#
# Poissons Ratio (x) = 0.73185 0.02526
# Poissons Ratio (y) = 0.28147 0.15516
# Poissons Ratio (z) = 0.03375 0.53908
#
# Static dielectric constant tensor:
#      x y z
#    x 1.704100 0.000000 0.000000 
#    y 0.000000 1.708320 0.000000 
#    z 0.000000 0.000000 1.844570 
# 
# From -- ./inp_files/23023.got.cif
#   From: 2010.05.17/outbox.ucp.g08.bks.cvg/sg22_12_cif.got.tgz:23023.got - 2010.06.11 15:16:44.
