data_PCOD9329732
_publ_section_title
;
Structure prediction by ZEFSAII (Michael W. Deem and Ramdas Pophale) SiO2 
 PCOD9329732
Probable space group: I 2 2 2
;
_chemical_formula_sum "Si O2"
_cell_formula_units_Z 38
_cell_length_a 27.130703
_cell_length_b 11.973994
_cell_length_c 4.958621
_cell_angle_alpha 90.000000
_cell_angle_beta 90.000000
_cell_angle_gamma 90.000000
_cell_volume 1610.871874
_symmetry_space_group_name_H-M "I 2 2 2"
_symmetry_group_IT_number 23
_symmetry_cell_setting 'orthorhombic'
loop_
_space_group_symop_operation_xyz
x,y,z
-x,-y,z
x,-y,-z
-x,y,-z
1/2+x,1/2+y,1/2+z
1/2-x,1/2-y,1/2+z
1/2+x,1/2-y,1/2-z
1/2-x,1/2+y,1/2-z
loop_
_atom_site_type_symbol
_atom_site_label
_atom_site_fract_x
_atom_site_fract_y
_atom_site_fract_z
Si Si1 0.034847 0.187110 0.745489
Si Si2 0.332754 0.500000 0.000000
Si Si3 0.752191 0.830663 0.716685
Si Si4 0.909809 0.396977 0.305008
Si Si5 0.175081 0.500000 0.000000
Si Si6 0.897353 0.000000 0.000000
Si Si7 0.000000 0.500000 0.000000
O O1 0.074838 0.273723 0.614590
O O2 0.000000 0.152608 0.500000
O O3 0.067777 0.091656 0.870809
O O4 0.000000 0.223895 0.000000
O O5 0.299917 0.600405 0.879272
O O6 0.364355 0.456669 0.747495
O O7 0.743420 0.729675 0.504069
O O8 0.709858 0.926862 0.696891
O O9 0.899601 0.500000 0.500000
O O10 0.862427 0.406258 0.115576
O O11 0.962117 0.431334 0.176979
#
# Coordination Sequence:
#
# PCOD9329732 Si02
#       7
#     8   4   8   8   4   4   2
#     4  12  27  48  75 106 150 206 250 316 388 446
#     4  11  26  47  73 113 141 193 257 314 379 450
#     4  11  26  48  76 103 152 192 241 310 392 455
#     4  11  24  41  72 104 152 187 251 304 384 457
#     4  10  28  43  70 113 137 194 247 304 376 468
#     4  12  27  48  78 106 150 198 274 315 370 468
#     4  10  18  42  60 100 136 192 228 300 364 446
#
# _framework density 23.589708999999999
#
# number of rings (size 3 to 8) (size 9 to 14) (size 15 to 20)
#    0.000    0.842    1.053    4.421   11.789    2.526 
#    0.000    0.000    0.000    0.000    0.000    0.000 
#    0.000    0.000    0.000    0.000    0.000    0.000 
#
# Total GULP energy -106132.620040 kJ/mol
# GULP energy per Si atom -5585.927371 kJ/mol
# Density = 2.353602 g / cm^3
# Si number density = 23.589709 Si / 1000 Ang^3
#
#
#
# Elastic Constant Matrix: (Units=GPa)
#
#
# Indices 1 2 3 4 5 6 
#
# 1 129.9310 38.3629 37.5251 0.0000 0.0000 0.0000
# 2 38.3629 92.0669 7.5675 0.0000 0.0000 0.0000
# 3 37.5251 7.5675 96.8118 -0.0002 -0.0001 -0.0002
# 4 0.0000 0.0000 -0.0002 41.8698 -0.0001 -0.0001
# 5 0.0000 0.0000 -0.0001 -0.0001 34.7792 0.0000
# 6 0.0000 0.0000 -0.0002 -0.0001 0.0000 14.6739
#
#
#
# Elastic Compliance Matrix: (Units=1/GPa)
#
#
# Indices 1 2 3 4 5 6 
#
# 1 0.009836 -0.003810 -0.003515 0.000000 0.000000 0.000000
# 2 -0.003810 0.012407 0.000507 0.000000 0.000000 0.000000
# 3 -0.003515 0.000507 0.011652 0.000000 0.000000 0.000000
# 4 0.000000 0.000000 0.000000 0.023884 0.000000 0.000000
# 5 0.000000 0.000000 0.000000 0.000000 0.028753 0.000000
# 6 0.000000 0.000000 0.000000 0.000000 0.000000 0.068148
#
#
# Mechanical properties :
#
#
# Convention : Reuss Voigt Hill
#
# Bulk Modulus (GPa) = 49.35747 53.96899 51.66323
# Shear Modulus (GPa) = 28.56010 33.95486 31.25748
#
# Velocity S-wave (km/s) = 3.48329 3.79805 3.64407
# Velocity P-wave (km/s) = 6.09479 6.49318 6.29714
#
# Compressibility (1/GPa) = 0.02026036
#
# Stress axis : x y z
#
# Youngs Moduli (GPa) = 101.66353 80.59657 85.82148
#
# Poissons Ratio (x) = 0.30705 0.30165
# Poissons Ratio (y) = 0.38731 -0.04350
# Poissons Ratio (z) = 0.35733 -0.04085
#
# Static dielectric constant tensor:
#      x y z
#    x 1.687990 0.000000 0.000000 
#    y 0.000000 1.960510 0.000000 
#    z 0.000000 0.000000 1.944460 
# 
# From -- ./inp_files/4812.got.cif
#   From: 2010.05.17/outbox.cif.g08.bks.cpg/sg23_3_cif.got.tgz:4812.got - 2010.06.04 12:02:01.
