data_PCOD9329566
_publ_section_title
;
Structure prediction by ZEFSAII (Michael W. Deem and Ramdas Pophale) SiO2 
 PCOD9329566
Probable space group: I 2 2 2
;
_chemical_formula_sum "Si O2"
_cell_formula_units_Z 64
_cell_length_a 23.227762
_cell_length_b 20.287054
_cell_length_c 7.825610
_cell_angle_alpha 90.000000
_cell_angle_beta 90.000000
_cell_angle_gamma 90.000000
_cell_volume 3687.606341
_symmetry_space_group_name_H-M "I 2 2 2"
_symmetry_group_IT_number 23
_symmetry_cell_setting 'orthorhombic'
loop_
_space_group_symop_operation_xyz
x,y,z
-x,-y,z
x,-y,-z
-x,y,-z
1/2+x,1/2+y,1/2+z
1/2-x,1/2-y,1/2+z
1/2+x,1/2-y,1/2-z
1/2-x,1/2+y,1/2-z
loop_
_atom_site_type_symbol
_atom_site_label
_atom_site_fract_x
_atom_site_fract_y
_atom_site_fract_z
Si Si1 0.941299 0.355267 0.097658
Si Si2 0.292017 0.636223 0.580722
Si Si3 0.228696 0.068658 0.589165
Si Si4 0.284949 0.331563 0.792310
Si Si5 0.136396 0.577102 0.832864
Si Si6 0.657335 0.232232 0.725559
Si Si7 0.335504 0.198128 0.888665
Si Si8 0.441245 0.972858 0.808470
O O1 0.895769 0.297413 0.122090
O O2 0.946028 0.395000 0.276581
O O3 0.908429 0.408149 0.981038
O O4 0.000000 0.337885 0.000000
O O5 0.293976 0.577325 0.717316
O O6 0.299411 0.626857 0.378112
O O7 0.330801 0.694469 0.659154
O O8 0.227300 0.665343 0.589430
O O9 0.206889 0.127319 0.465676
O O10 0.298187 0.075001 0.603286
O O11 0.214617 0.000000 0.500000
O O12 0.217892 0.307587 0.798666
O O13 0.322838 0.264768 0.782839
O O14 0.129961 0.639473 0.703146
O O15 0.117029 0.507534 0.756272
O O16 0.644095 0.222508 0.926249
O O17 0.500000 0.000000 0.722850
O O18 0.443049 0.000000 0.000000
#
# Coordination Sequence:
#
# PCOD9329566 Si02
#       8
#     8   8   8   8   8   8   8   8
#     4  12  22  33  50  70  96 137 183 227 266 303
#     4   9  19  32  52  76  98 132 172 216 267 319
#     4  11  21  34  50  76 108 136 170 217 260 321
#     4  10  18  32  52  74 100 132 173 218 263 318
#     4  11  21  35  50  70  96 137 182 222 262 302
#     4  10  18  33  51  71  98 130 178 223 263 313
#     4   9  18  32  53  74  94 127 178 223 266 314
#     4  11  23  37  49  63  95 140 188 229 267 301
#
# _framework density 17.355432
#
# number of rings (size 3 to 8) (size 9 to 14) (size 15 to 20)
#    0.000    1.625    3.750    2.625    3.500    0.500 
#    0.000    0.000    0.000    0.000    0.000    0.000 
#    0.000    0.000    0.000   13.500    0.000    0.000 
#
# Total GULP energy -178237.371093 kJ/mol
# GULP energy per Si atom -5569.917847 kJ/mol
# Density = 1.731593 g / cm^3
# Si number density = 17.355432 Si / 1000 Ang^3
#
#
#
# Elastic Constant Matrix: (Units=GPa)
#
#
# Indices 1 2 3 4 5 6 
#
# 1 42.4436 26.7275 19.1985 0.0000 0.0000 0.0000
# 2 26.7275 41.0772 9.5714 0.0000 0.0000 0.0000
# 3 19.1985 9.5714 75.9160 0.0000 0.0000 0.0000
# 4 0.0000 0.0000 0.0000 22.6694 0.0000 0.0000
# 5 0.0000 0.0000 0.0000 0.0000 14.0546 0.0000
# 6 0.0000 0.0000 0.0000 0.0000 0.0000 6.7970
#
#
#
# Elastic Compliance Matrix: (Units=1/GPa)
#
#
# Indices 1 2 3 4 5 6 
#
# 1 0.043918 -0.026775 -0.007731 0.000000 0.000000 0.000000
# 2 -0.026775 0.041404 0.001551 0.000000 0.000000 0.000000
# 3 -0.007731 0.001551 0.014932 0.000000 0.000000 0.000000
# 4 0.000000 0.000000 0.000000 0.044112 0.000000 0.000000
# 5 0.000000 0.000000 0.000000 0.000000 0.071151 0.000000
# 6 0.000000 0.000000 0.000000 0.000000 0.000000 0.147125
#
#
# Mechanical properties :
#
#
# Convention : Reuss Voigt Hill
#
# Bulk Modulus (GPa) = 29.11607 30.04797 29.58202
# Shear Modulus (GPa) = 11.36365 15.63350 13.49857
#
# Velocity S-wave (km/s) = 2.56160 3.00456 2.79188
# Velocity P-wave (km/s) = 5.05587 5.42102 5.24162
#
# Compressibility (1/GPa) = 0.03434529
#
# Stress axis : x y z
#
# Youngs Moduli (GPa) = 22.76977 24.15207 66.97046
#
# Poissons Ratio (x) = 0.64666 0.51773
# Poissons Ratio (y) = 0.60965 -0.10386
# Poissons Ratio (z) = 0.17603 -0.03746
#
# Static dielectric constant tensor:
#      x y z
#    x 1.588770 0.000000 0.000000 
#    y 0.000000 1.610370 0.000000 
#    z 0.000000 0.000000 1.734570 
# 
# From -- ./inp_files/12777.got.cif
#   From: 2010.05.17/outbox.cif.g08.bks.cpg/sg23_7_cif.got.tgz:12777.got - 2010.06.04 12:02:01.
