data_PCOD9329613
_publ_section_title
;
Structure prediction by ZEFSAII (Michael W. Deem and Ramdas Pophale) SiO2 
 PCOD9329613
Probable space group: I 2 2 2
;
_chemical_formula_sum "Si O2"
_cell_formula_units_Z 64
_cell_length_a 8.842779
_cell_length_b 13.198546
_cell_length_c 27.144919
_cell_angle_alpha 90.000000
_cell_angle_beta 90.000000
_cell_angle_gamma 90.000000
_cell_volume 3168.133047
_symmetry_space_group_name_H-M "I 2 2 2"
_symmetry_group_IT_number 23
_symmetry_cell_setting 'orthorhombic'
loop_
_space_group_symop_operation_xyz
x,y,z
-x,-y,z
x,-y,-z
-x,y,-z
1/2+x,1/2+y,1/2+z
1/2-x,1/2-y,1/2+z
1/2+x,1/2-y,1/2-z
1/2-x,1/2+y,1/2-z
loop_
_atom_site_type_symbol
_atom_site_label
_atom_site_fract_x
_atom_site_fract_y
_atom_site_fract_z
Si Si1 0.847224 0.312064 0.896296
Si Si2 0.649856 0.122295 0.889578
Si Si3 0.607750 0.255441 0.540391
Si Si4 0.360664 0.569698 0.698922
Si Si5 0.057787 0.728859 0.785516
Si Si6 0.684201 0.894612 0.897269
Si Si7 0.812478 0.384321 0.271384
Si Si8 0.672798 0.609762 0.018286
O O1 0.778884 0.199671 0.903846
O O2 0.886236 0.315364 0.838308
O O3 0.719955 0.379730 0.923896
O O4 0.002865 0.317890 0.926500
O O5 0.480278 0.155168 0.903209
O O6 0.655494 0.114501 0.830080
O O7 0.673994 0.011965 0.912203
O O8 0.500000 0.305235 0.500000
O O9 0.688992 0.335154 0.574371
O O10 0.730788 0.192721 0.510464
O O11 0.500000 0.500000 0.678103
O O12 0.443023 0.674919 0.711149
O O13 0.235321 0.599724 0.659278
O O14 0.277530 0.491239 0.736915
O O15 0.200950 0.788176 0.762163
O O16 0.967342 0.641381 0.756673
O O17 0.722465 0.500000 0.000000
O O18 0.500000 0.621353 0.000000
#
# Coordination Sequence:
#
# PCOD9329613 Si02
#       8
#     8   8   8   8   8   8   8   8
#     4  10  20  37  60  90 120 156 204 257 313 370
#     4   9  20  34  55  84 118 158 203 245 302 378
#     4  10  21  34  58  88 113 149 199 250 308 375
#     4   9  18  34  57  80 114 158 203 250 308 380
#     4  10  19  35  58  85 120 161 202 258 303 369
#     4  10  18  33  58  82 113 157 196 247 307 374
#     4   9  20  33  55  85 116 159 206 252 308 358
#     4  10  22  42  67  88 117 158 203 258 318 387
#
# _framework density 20.201170999999999
#
# number of rings (size 3 to 8) (size 9 to 14) (size 15 to 20)
#    0.000    2.375    1.250    1.500    1.750    2.250 
#    0.000    4.375   11.000    6.750    0.000    0.000 
#    0.000    0.000    0.000    0.000    0.000    0.000 
#
# Total GULP energy -178205.593843 kJ/mol
# GULP energy per Si atom -5568.924808 kJ/mol
# Density = 2.015519 g / cm^3
# Si number density = 20.201171 Si / 1000 Ang^3
#
#
#
# Elastic Constant Matrix: (Units=GPa)
#
#
# Indices 1 2 3 4 5 6 
#
# 1 79.3078 20.1453 30.4741 0.0000 0.0000 0.0000
# 2 20.1453 48.5595 32.5017 0.0000 0.0000 0.0000
# 3 30.4741 32.5017 57.3514 0.0000 0.0000 0.0000
# 4 0.0000 0.0000 0.0000 17.3375 0.0000 0.0000
# 5 0.0000 0.0000 0.0000 0.0000 35.5259 0.0000
# 6 0.0000 0.0000 0.0000 0.0000 0.0000 15.1449
#
#
#
# Elastic Compliance Matrix: (Units=1/GPa)
#
#
# Indices 1 2 3 4 5 6 
#
# 1 0.015913 -0.001518 -0.007595 0.000000 0.000000 0.000000
# 2 -0.001518 0.033323 -0.018078 0.000000 0.000000 0.000000
# 3 -0.007595 -0.018078 0.031717 0.000000 0.000000 0.000000
# 4 0.000000 0.000000 0.000000 0.057678 0.000000 0.000000
# 5 0.000000 0.000000 0.000000 0.000000 0.028148 0.000000
# 6 0.000000 0.000000 0.000000 0.000000 0.000000 0.066029
#
#
# Mechanical properties :
#
#
# Convention : Reuss Voigt Hill
#
# Bulk Modulus (GPa) = 37.63527 39.05120 38.34323
# Shear Modulus (GPa) = 16.88914 20.40817 18.64866
#
# Velocity S-wave (km/s) = 2.89459 3.18189 3.04163
# Velocity P-wave (km/s) = 5.46280 5.73344 5.59976
#
# Compressibility (1/GPa) = 0.02657082
#
# Stress axis : x y z
#
# Youngs Moduli (GPa) = 62.84086 30.00944 31.52878
#
# Poissons Ratio (x) = 0.04556 0.23947
# Poissons Ratio (y) = 0.09540 0.56997
# Poissons Ratio (z) = 0.47730 0.54250
#
# Static dielectric constant tensor:
#      x y z
#    x 1.752500 0.000000 0.000000 
#    y 0.000000 1.723010 0.000000 
#    z 0.000000 0.000000 1.748420 
# 
# From -- ./inp_files/30358.got.cif
#   From: 2010.05.17/outbox.cif.g08.bks.cpg/sg23_16_cif.got.tgz:30358.got - 2010.06.04 12:02:01.
