data_PCOD9329497
_publ_section_title
;
Structure prediction by ZEFSAII (Michael W. Deem and Ramdas Pophale) SiO2 
 PCOD9329497
Probable space group: I 2 2 2
;
_chemical_formula_sum "Si O2"
_cell_formula_units_Z 64
_cell_length_a 5.535387
_cell_length_b 28.726387
_cell_length_c 26.052203
_cell_angle_alpha 90.000000
_cell_angle_beta 90.000000
_cell_angle_gamma 90.000000
_cell_volume 4142.604284
_symmetry_space_group_name_H-M "I 2 2 2"
_symmetry_group_IT_number 23
_symmetry_cell_setting 'orthorhombic'
loop_
_space_group_symop_operation_xyz
x,y,z
-x,-y,z
x,-y,-z
-x,y,-z
1/2+x,1/2+y,1/2+z
1/2-x,1/2-y,1/2+z
1/2+x,1/2-y,1/2-z
1/2-x,1/2+y,1/2-z
loop_
_atom_site_type_symbol
_atom_site_label
_atom_site_fract_x
_atom_site_fract_y
_atom_site_fract_z
Si Si1 0.250000 0.944739 0.470915
Si Si2 0.750000 0.293006 0.854404
Si Si3 0.250000 0.441333 0.822078
Si Si4 0.250000 0.665957 0.968799
Si Si5 0.750000 0.544113 0.140968
Si Si6 0.750000 0.639544 0.746172
Si Si7 0.250000 0.232693 0.315203
Si Si8 0.250000 0.672014 0.741998
O O1 0.500000 0.953102 0.500000
O O2 0.250000 0.889601 0.460398
O O3 0.250000 0.971933 0.417498
O O4 0.000000 0.953102 0.500000
O O5 0.750000 0.313181 0.911549
O O6 0.499714 0.265104 0.846361
O O7 0.750000 0.328487 0.804770
O O8 0.000286 0.265104 0.846361
O O9 0.501266 0.428931 0.849779
O O10 0.250000 0.497848 0.823262
O O11 0.250000 0.411584 0.770673
O O12 0.998734 0.428931 0.849779
O O13 0.500000 0.677346 0.000000
O O14 0.000000 0.677346 0.000000
O O15 0.750000 0.682096 0.787853
O O16 0.491792 0.648353 0.720544
O O17 0.008207 0.648353 0.720544
O O18 0.250000 0.273798 0.273537
#
# Coordination Sequence:
#
# PCOD9329497 Si02
#       8
#     8   8   8   8   8   8   8   8
#     4  10  21  35  49  62  77 104 135 189 250 275
#     4  10  18  29  46  63  83 123 128 165 223 257
#     4  10  21  33  46  66  76 105 135 172 215 261
#     4  10  21  33  44  64  87 108 154 192 212 274
#     4  10  21  36  48  61  82  98 137 199 212 269
#     4  10  18  28  46  62  85 111 127 153 206 270
#     4  10  19  29  46  71  93 102 131 164 209 284
#     4  10  19  31  44  73  91 104 127 168 205 284
#
# _framework density 15.449218
#
# number of rings (size 3 to 8) (size 9 to 14) (size 15 to 20)
#    0.000    2.000    0.000    6.000    7.000    0.000 
#    0.000    7.500    0.000    0.000    0.000    0.000 
#    0.000    0.000    0.000    0.000    0.000    0.000 
#
# Total GULP energy -178140.665907 kJ/mol
# GULP energy per Si atom -5566.895810 kJ/mol
# Density = 1.541406 g / cm^3
# Si number density = 15.449218 Si / 1000 Ang^3
#
#
#
# Elastic Constant Matrix: (Units=GPa)
#
#
# Indices 1 2 3 4 5 6 
#
# 1 177.9978 20.6215 18.9157 0.0000 0.0000 0.0000
# 2 20.6215 47.4459 28.1351 0.0000 0.0000 0.0000
# 3 18.9157 28.1351 40.8913 0.0000 0.0000 0.0000
# 4 0.0000 0.0000 0.0000 7.3740 0.0000 0.0000
# 5 0.0000 0.0000 0.0000 0.0000 18.4464 0.0000
# 6 0.0000 0.0000 0.0000 0.0000 0.0000 17.9012
#
#
#
# Elastic Compliance Matrix: (Units=1/GPa)
#
#
# Indices 1 2 3 4 5 6 
#
# 1 0.005981 -0.001620 -0.001652 0.000000 0.000000 0.000000
# 2 -0.001620 0.036041 -0.024049 0.000000 0.000000 0.000000
# 3 -0.001652 -0.024049 0.041766 0.000000 0.000000 0.000000
# 4 0.000000 0.000000 0.000000 0.135612 0.000000 0.000000
# 5 0.000000 0.000000 0.000000 0.000000 0.054211 0.000000
# 6 0.000000 0.000000 0.000000 0.000000 0.000000 0.055862
#
#
# Mechanical properties :
#
#
# Convention : Reuss Voigt Hill
#
# Bulk Modulus (GPa) = 34.30904 44.63106 39.47005
# Shear Modulus (GPa) = 12.69578 21.98851 17.34214
#
# Velocity S-wave (km/s) = 2.86977 3.77673 3.35405
# Velocity P-wave (km/s) = 5.76512 6.92602 6.37207
#
# Compressibility (1/GPa) = 0.02914684
#
# Stress axis : x y z
#
# Youngs Moduli (GPa) = 167.18769 27.74580 23.94280
#
# Poissons Ratio (x) = 0.04494 0.03956
# Poissons Ratio (y) = 0.27082 0.57580
# Poissons Ratio (z) = 0.27625 0.66726
#
# Static dielectric constant tensor:
#      x y z
#    x 1.655180 0.000000 0.000000 
#    y 0.000000 1.547370 0.000000 
#    z 0.000000 0.000000 1.496740 
# 
# From -- ./inp_files/29076.got.cif
#   From: 2010.05.17/outbox.cif.g08.bks.cpg/sg23_15_cif.got.tgz:29076.got - 2010.06.04 12:02:01.
