data_PCOD9329776
_publ_section_title
;
Structure prediction by ZEFSAII (Michael W. Deem and Ramdas Pophale) SiO2 
 PCOD9329776
Probable space group: I 2 2 2
;
_chemical_formula_sum "Si O2"
_cell_formula_units_Z 32
_cell_length_a 12.534690
_cell_length_b 18.215484
_cell_length_c 5.465130
_cell_angle_alpha 90.000000
_cell_angle_beta 90.000000
_cell_angle_gamma 90.000000
_cell_volume 1247.828240
_symmetry_space_group_name_H-M "I 2 2 2"
_symmetry_group_IT_number 23
_symmetry_cell_setting 'orthorhombic'
loop_
_space_group_symop_operation_xyz
x,y,z
-x,-y,z
x,-y,-z
-x,y,-z
1/2+x,1/2+y,1/2+z
1/2-x,1/2-y,1/2+z
1/2+x,1/2-y,1/2-z
1/2-x,1/2+y,1/2-z
loop_
_atom_site_type_symbol
_atom_site_label
_atom_site_fract_x
_atom_site_fract_y
_atom_site_fract_z
Si Si1 0.105575 0.048478 0.270220
Si Si2 0.847875 0.542286 0.737714
Si Si3 0.615249 0.285344 0.147831
Si Si4 0.874149 0.704759 0.851693
O O1 0.223049 0.057258 0.153464
O O2 0.072525 0.132614 0.299642
O O3 0.140253 0.000000 0.500000
O O4 0.000000 0.000000 0.211525
O O5 0.889827 0.500000 0.500000
O O6 0.900463 0.621255 0.784297
O O7 0.857554 0.500000 0.000000
O O8 0.744651 0.292505 0.142805
O O9 0.594075 0.231653 0.377269
O O10 0.591350 0.256393 0.874487
#
# Coordination Sequence:
#
# PCOD9329776 Si02
#       4
#     8   8   8   8
#     4   9  19  33  48  70 103 144 186 217 252 308
#     4  10  19  31  49  73 100 132 173 219 267 314
#     4   9  17  30  47  65  91 132 178 217 254 302
#     4   9  17  30  47  67  91 125 174 220 260 308
#
# _framework density 25.644553999999999
#
# number of rings (size 3 to 8) (size 9 to 14) (size 15 to 20)
#    0.000    2.750    0.000    1.500    0.000   12.500 
#    0.000    6.250    0.000    0.000    0.000    0.000 
#    0.000    0.000    0.000   67.500    0.000  471.500 
#
# Total GULP energy -89161.620598 kJ/mol
# GULP energy per Si atom -5572.601287 kJ/mol
# Density = 2.558619 g / cm^3
# Si number density = 25.644554 Si / 1000 Ang^3
#
#
#
# Elastic Constant Matrix: (Units=GPa)
#
#
# Indices 1 2 3 4 5 6 
#
# 1 117.5967 35.4560 32.9955 0.0000 0.0000 0.0000
# 2 35.4560 273.6641 126.6099 0.0000 0.0000 0.0000
# 3 32.9955 126.6099 198.3635 0.0000 0.0000 0.0000
# 4 0.0000 0.0000 0.0000 31.9467 0.0000 0.0000
# 5 0.0000 0.0000 0.0000 0.0000 26.4432 0.0000
# 6 0.0000 0.0000 0.0000 0.0000 0.0000 18.5419
#
#
#
# Elastic Compliance Matrix: (Units=1/GPa)
#
#
# Indices 1 2 3 4 5 6 
#
# 1 0.009006 -0.000672 -0.001069 0.000000 0.000000 0.000000
# 2 -0.000672 0.005235 -0.003230 0.000000 0.000000 0.000000
# 3 -0.001069 -0.003230 0.007281 0.000000 0.000000 0.000000
# 4 0.000000 0.000000 0.000000 0.031302 0.000000 0.000000
# 5 0.000000 0.000000 0.000000 0.000000 0.037817 0.000000
# 6 0.000000 0.000000 0.000000 0.000000 0.000000 0.053932
#
#
# Mechanical properties :
#
#
# Convention : Reuss Voigt Hill
#
# Bulk Modulus (GPa) = 86.35495 108.86080 97.60788
# Shear Modulus (GPa) = 31.57050 41.69055 36.63053
#
# Velocity S-wave (km/s) = 3.51248 4.03638 3.78351
# Velocity P-wave (km/s) = 7.08498 8.01656 7.56512
#
# Compressibility (1/GPa) = 0.01158011
#
# Stress axis : x y z
#
# Youngs Moduli (GPa) = 111.03367 191.00387 137.35168
#
# Poissons Ratio (x) = 0.12841 0.14683
# Poissons Ratio (y) = 0.07465 0.44362
# Poissons Ratio (z) = 0.11869 0.61691
#
# Static dielectric constant tensor:
#      x y z
#    x 1.955460 0.000000 0.000000 
#    y 0.000000 1.923090 0.000000 
#    z 0.000000 0.000000 2.049880 
# 
# From -- ./inp_files/2977.got.cif
#   From: 2010.05.17/outbox.cif.g08.bks.cpg/sg23_2_cif.got.tgz:2977.got - 2010.06.04 12:02:01.
