data_PCOD9329596
_publ_section_title
;
Structure prediction by ZEFSAII (Michael W. Deem and Ramdas Pophale) SiO2 
 PCOD9329596
Probable space group: I 2 2 2
;
_chemical_formula_sum "Si O2"
_cell_formula_units_Z 24
_cell_length_a 8.094338
_cell_length_b 15.465683
_cell_length_c 6.990375
_cell_angle_alpha 90.000000
_cell_angle_beta 90.000000
_cell_angle_gamma 90.000000
_cell_volume 875.086359
_symmetry_space_group_name_H-M "I 2 2 2"
_symmetry_group_IT_number 23
_symmetry_cell_setting 'orthorhombic'
loop_
_space_group_symop_operation_xyz
x,y,z
-x,-y,z
x,-y,-z
-x,y,-z
1/2+x,1/2+y,1/2+z
1/2-x,1/2-y,1/2+z
1/2+x,1/2-y,1/2-z
1/2-x,1/2+y,1/2-z
loop_
_atom_site_type_symbol
_atom_site_label
_atom_site_fract_x
_atom_site_fract_y
_atom_site_fract_z
Si Si1 0.143459 0.835797 0.223439
Si Si2 0.988717 0.642980 0.722071
Si Si3 0.327590 0.423118 0.657618
O O1 0.075724 0.741409 0.269223
O O2 0.325777 0.857084 0.303155
O O3 0.997710 0.904331 0.268768
O O4 0.170254 0.842647 0.993546
O O5 0.835958 0.582363 0.784294
O O6 0.000000 0.615811 0.500000
O O7 0.324155 0.500000 0.500000
#
# Coordination Sequence:
#
# PCOD9329596 Si02
#       3
#     8   8   8
#     4  10  18  33  52  79 113 148 182 236 286 341
#     4  10  20  32  54  82 112 146 192 230 286 348
#     4  10  21  35  56  83 112 143 190 243 287 332
#
# _framework density 27.425861000000001
#
# number of rings (size 3 to 8) (size 9 to 14) (size 15 to 20)
#    0.000    2.000    3.333    2.000    0.000    7.333 
#    0.000    0.000    0.000    4.000    0.000    0.000 
#    0.000    0.000    0.000    0.000    0.000    0.000 
#
# Total GULP energy -66913.590929 kJ/mol
# GULP energy per Si atom -5576.132577 kJ/mol
# Density = 2.736344 g / cm^3
# Si number density = 27.425861 Si / 1000 Ang^3
#
#
#
# Elastic Constant Matrix: (Units=GPa)
#
#
# Indices 1 2 3 4 5 6 
#
# 1 382.3809 86.5475 6.0863 0.0002 0.0000 0.0000
# 2 86.5475 134.9001 8.3200 0.0010 0.0000 0.0001
# 3 6.0863 8.3200 85.8043 0.0024 -0.0002 0.0000
# 4 0.0002 0.0010 0.0024 39.6600 -0.0001 0.0000
# 5 0.0000 0.0000 -0.0002 -0.0001 1.6656 0.0000
# 6 0.0000 0.0001 0.0000 0.0000 0.0000 29.6955
#
#
#
# Elastic Compliance Matrix: (Units=1/GPa)
#
#
# Indices 1 2 3 4 5 6 
#
# 1 0.003060 -0.001961 -0.000027 0.000000 0.000000 0.000000
# 2 -0.001961 0.008715 -0.000706 0.000000 0.000000 0.000000
# 3 -0.000027 -0.000706 0.011725 -0.000001 0.000001 0.000000
# 4 0.000000 0.000000 -0.000001 0.025214 0.000001 0.000000
# 5 0.000000 0.000000 0.000001 0.000001 0.600376 0.000000
# 6 0.000000 0.000000 0.000000 0.000000 0.000000 0.033675
#
#
# Mechanical properties :
#
#
# Convention : Reuss Voigt Hill
#
# Bulk Modulus (GPa) = 55.21499 89.44366 72.32933
# Shear Modulus (GPa) = 7.20264 47.67965 27.44115
#
# Velocity S-wave (km/s) = 1.62232 4.17405 3.16659
# Velocity P-wave (km/s) = 4.86676 7.47756 6.30870
#
# Compressibility (1/GPa) = 0.01811102
#
# Stress axis : x y z
#
# Youngs Moduli (GPa) = 326.84827 114.74867 85.28941
#
# Poissons Ratio (x) = 0.22505 0.00229
# Poissons Ratio (y) = 0.64103 0.06021
# Poissons Ratio (z) = 0.00878 0.08100
#
# Static dielectric constant tensor:
#      x y z
#    x 2.519810 0.000000 0.000000 
#    y 0.000000 2.173820 0.000000 
#    z 0.000000 0.000000 2.227700 
# 
# From -- ./inp_files/6206.got.cif
#   From: 2010.05.17/outbox.cif.g08.bks.cpg/sg23_4_cif.got.tgz:6206.got - 2010.06.04 12:02:01.
