data_PCOD9329342
_publ_section_title
;
Structure prediction by ZEFSAII (Michael W. Deem and Ramdas Pophale) SiO2 
 PCOD9329342
Probable space group: I 2 2 2
;
_chemical_formula_sum "Si O2"
_cell_formula_units_Z 32
_cell_length_a 21.514865
_cell_length_b 12.440191
_cell_length_c 5.184496
_cell_angle_alpha 90.000000
_cell_angle_beta 90.000000
_cell_angle_gamma 90.000000
_cell_volume 1387.625325
_symmetry_space_group_name_H-M "I 2 2 2"
_symmetry_group_IT_number 23
_symmetry_cell_setting 'orthorhombic'
loop_
_space_group_symop_operation_xyz
x,y,z
-x,-y,z
x,-y,-z
-x,y,-z
1/2+x,1/2+y,1/2+z
1/2-x,1/2-y,1/2+z
1/2+x,1/2-y,1/2-z
1/2-x,1/2+y,1/2-z
loop_
_atom_site_type_symbol
_atom_site_label
_atom_site_fract_x
_atom_site_fract_y
_atom_site_fract_z
Si Si1 0.569782 0.949902 0.258035
Si Si2 0.041634 0.801867 0.248118
Si Si3 0.253477 0.886789 0.871443
Si Si4 0.178009 0.825016 0.361581
O O1 0.560501 0.823429 0.291678
O O2 0.500000 0.000000 0.258732
O O3 0.605367 0.000000 0.500000
O O4 0.596622 0.000000 0.000000
O O5 0.106219 0.857598 0.333152
O O6 0.000000 0.806287 0.500000
O O7 0.000000 0.836231 0.000000
O O8 0.203763 0.843950 0.076809
O O9 0.219170 0.879970 0.590736
O O10 0.310268 0.803034 0.893990
O O11 0.268950 0.000000 0.000000
#
# Coordination Sequence:
#
# PCOD9329342 Si02
#       4
#     8   8   8   8
#     4  10  16  29  43  68 110 164 195 223 274 378
#     4  12  21  34  55  84 131 169 194 254 323 383
#     4  10  21  44  67  90 124 164 219 278 321 359
#     4  10  23  39  64  98 123 163 220 259 319 401
#
# _framework density 23.060979
#
# number of rings (size 3 to 8) (size 9 to 14) (size 15 to 20)
#    0.000    1.500    5.000    2.250    0.000    1.000 
#    0.000    5.000    0.000   11.250    0.000    0.000 
#    0.000    0.000    0.000    0.000    0.000    0.000 
#
# Total GULP energy -89192.484982 kJ/mol
# GULP energy per Si atom -5574.530311 kJ/mol
# Density = 2.300849 g / cm^3
# Si number density = 23.060979 Si / 1000 Ang^3
#
#
#
# Elastic Constant Matrix: (Units=GPa)
#
#
# Indices 1 2 3 4 5 6 
#
# 1 127.2300 4.7236 28.3661 0.0000 0.0000 0.0000
# 2 4.7236 44.4633 -9.8622 0.0000 0.0000 0.0000
# 3 28.3661 -9.8622 174.3065 0.0000 0.0000 0.0000
# 4 0.0000 0.0000 0.0000 22.7165 0.0000 0.0000
# 5 0.0000 0.0000 0.0000 0.0000 123.3198 0.0000
# 6 0.0000 0.0000 0.0000 0.0000 0.0000 2.4439
#
#
#
# Elastic Compliance Matrix: (Units=1/GPa)
#
#
# Indices 1 2 3 4 5 6 
#
# 1 0.008217 -0.001184 -0.001404 0.000000 0.000000 0.000000
# 2 -0.001184 0.022947 0.001491 0.000000 0.000000 0.000000
# 3 -0.001404 0.001491 0.006050 0.000000 0.000000 0.000000
# 4 0.000000 0.000000 0.000000 0.044021 0.000000 0.000000
# 5 0.000000 0.000000 0.000000 0.000000 0.008109 0.000000
# 6 0.000000 0.000000 0.000000 0.000000 0.000000 0.409175
#
#
# Mechanical properties :
#
#
# Convention : Reuss Voigt Hill
#
# Bulk Modulus (GPa) = 28.55613 43.60608 36.08111
# Shear Modulus (GPa) = 9.75826 51.21421 30.48624
#
# Velocity S-wave (km/s) = 2.05929 4.71767 3.63985
# Velocity P-wave (km/s) = 4.25018 6.97318 5.77448
#
# Compressibility (1/GPa) = 0.03501875
#
# Stress axis : x y z
#
# Youngs Moduli (GPa) = 121.70162 43.57865 165.29199
#
# Poissons Ratio (x) = 0.05161 0.23210
# Poissons Ratio (y) = 0.14414 -0.24646
# Poissons Ratio (z) = 0.17089 -0.06498
#
# Static dielectric constant tensor:
#      x y z
#    x 1.938310 0.000000 0.000000 
#    y 0.000000 1.949360 0.000000 
#    z 0.000000 0.000000 1.834620 
# 
# From -- ./inp_files/3653.got.cif
#   From: 2010.05.17/outbox.cif.g08.bks.cpg/sg23_2_cif.got.tgz:3653.got - 2010.06.04 12:02:01.
