data_PCOD9329587
_publ_section_title
;
Structure prediction by ZEFSAII (Michael W. Deem and Ramdas Pophale) SiO2 
 PCOD9329587
Probable space group: I 2 2 2
;
_chemical_formula_sum "Si O2"
_cell_formula_units_Z 56
_cell_length_a 19.870043
_cell_length_b 8.159776
_cell_length_c 15.849449
_cell_angle_alpha 90.000000
_cell_angle_beta 90.000000
_cell_angle_gamma 90.000000
_cell_volume 2569.751998
_symmetry_space_group_name_H-M "I 2 2 2"
_symmetry_group_IT_number 23
_symmetry_cell_setting 'orthorhombic'
loop_
_space_group_symop_operation_xyz
x,y,z
-x,-y,z
x,-y,-z
-x,y,-z
1/2+x,1/2+y,1/2+z
1/2-x,1/2-y,1/2+z
1/2+x,1/2-y,1/2-z
1/2-x,1/2+y,1/2-z
loop_
_atom_site_type_symbol
_atom_site_label
_atom_site_fract_x
_atom_site_fract_y
_atom_site_fract_z
Si Si1 0.705447 0.304683 0.483727
Si Si2 0.558212 0.324450 0.447368
Si Si3 0.859660 0.280214 0.435798
Si Si4 0.881009 0.645162 0.375680
Si Si5 0.168674 0.914006 0.289543
Si Si6 0.760792 0.693597 0.836468
Si Si7 0.947023 0.131816 0.756165
O O1 0.706718 0.500000 0.500000
O O2 0.634606 0.260547 0.441921
O O3 0.777634 0.276292 0.440354
O O4 0.706373 0.211136 0.572566
O O5 0.564940 0.500000 0.500000
O O6 0.500000 0.234176 0.500000
O O7 0.532208 0.328521 0.351533
O O8 0.883251 0.452497 0.395922
O O9 0.885729 0.270569 0.531454
O O10 0.874189 0.135355 0.371392
O O11 0.806245 0.692277 0.342776
O O12 0.932811 0.719819 0.308271
O O13 0.190500 0.759196 0.235506
O O14 0.233920 0.014457 0.317211
O O15 0.123729 0.035549 0.234630
O O16 0.000000 0.000000 0.722391
#
# Coordination Sequence:
#
# PCOD9329587 Si02
#       7
#     8   8   8   8   8   8   8
#     4  10  18  32  59  88 124 164 211 260 328 390
#     4  10  19  34  58  88 128 173 221 253 311 390
#     4  10  19  39  61  92 125 173 202 278 341 397
#     4   9  20  37  62  89 127 158 217 263 336 381
#     4  11  23  35  62  89 132 156 222 261 338 390
#     4  10  20  33  54  91 121 163 200 274 321 391
#     4  11  23  39  60  97 124 171 221 276 309 390
#
# _framework density 21.791986000000001
#
# number of rings (size 3 to 8) (size 9 to 14) (size 15 to 20)
#    0.000    1.857    4.286    2.571    4.000    5.143 
#    0.000    2.143    0.000    1.714    0.000    3.000 
#    0.000    0.000    0.000    0.000    0.000    0.000 
#
# Total GULP energy -156185.155285 kJ/mol
# GULP energy per Si atom -5578.041260 kJ/mol
# Density = 2.174239 g / cm^3
# Si number density = 21.791986 Si / 1000 Ang^3
#
#
#
# Elastic Constant Matrix: (Units=GPa)
#
#
# Indices 1 2 3 4 5 6 
#
# 1 49.6371 10.8862 36.4224 0.0000 0.0000 0.0000
# 2 10.8862 41.0466 43.9702 0.0000 0.0000 0.0000
# 3 36.4224 43.9702 122.5889 0.0000 0.0000 0.0000
# 4 0.0000 0.0000 0.0000 26.0213 0.0000 0.0000
# 5 0.0000 0.0000 0.0000 0.0000 33.3030 0.0000
# 6 0.0000 0.0000 0.0000 0.0000 0.0000 21.0608
#
#
#
# Elastic Compliance Matrix: (Units=1/GPa)
#
#
# Indices 1 2 3 4 5 6 
#
# 1 0.025888 0.002230 -0.008492 0.000000 0.000000 0.000000
# 2 0.002230 0.039756 -0.014923 0.000000 0.000000 0.000000
# 3 -0.008492 -0.014923 0.016033 0.000000 0.000000 0.000000
# 4 0.000000 0.000000 0.000000 0.038430 0.000000 0.000000
# 5 0.000000 0.000000 0.000000 0.000000 0.030027 0.000000
# 6 0.000000 0.000000 0.000000 0.000000 0.000000 0.047482
#
#
# Mechanical properties :
#
#
# Convention : Reuss Voigt Hill
#
# Bulk Modulus (GPa) = 25.43897 43.98113 34.71005
# Shear Modulus (GPa) = 19.75611 24.20995 21.98303
#
# Velocity S-wave (km/s) = 3.01421 3.33672 3.17955
# Velocity P-wave (km/s) = 4.87984 5.92208 5.42604
#
# Compressibility (1/GPa) = 0.03930976
#
# Stress axis : x y z
#
# Youngs Moduli (GPa) = 38.62803 25.15322 62.37260
#
# Poissons Ratio (x) = -0.05610 0.52964
# Poissons Ratio (y) = -0.08616 0.93076
# Poissons Ratio (z) = 0.32801 0.37535
#
# Static dielectric constant tensor:
#      x y z
#    x 1.829950 0.000000 0.000000 
#    y 0.000000 1.782190 0.000000 
#    z 0.000000 0.000000 1.804560 
# 
# From -- ./inp_files/22389.got.cif
#   From: 2010.05.17/outbox.cif.g08.bks.cpg/sg23_12_cif.got.tgz:22389.got - 2010.06.04 12:02:01.
