data_PCOD9329179
_publ_section_title
;
Structure prediction by ZEFSAII (Michael W. Deem and Ramdas Pophale) SiO2 
 PCOD9329179
Probable space group: F 2 2 2
;
_chemical_formula_sum "Si O2"
_cell_formula_units_Z 72
_cell_length_a 24.800557
_cell_length_b 12.483717
_cell_length_c 11.338084
_cell_angle_alpha 90.000000
_cell_angle_beta 90.000000
_cell_angle_gamma 90.000000
_cell_volume 3510.306352
_symmetry_space_group_name_H-M "F 2 2 2"
_symmetry_group_IT_number 22
_symmetry_cell_setting 'orthorhombic'
loop_
_space_group_symop_operation_xyz
x,y,z
-x,-y,z
x,-y,-z
-x,y,-z
x,1/2+y,1/2+z
-x,1/2-y,1/2+z
x,1/2-y,1/2-z
-x,1/2+y,1/2-z
1/2+x,y,1/2+z
1/2-x,-y,1/2+z
1/2+x,-y,1/2-z
1/2-x,y,1/2-z
1/2+x,1/2+y,z
1/2-x,1/2-y,z
1/2+x,1/2-y,-z
1/2-x,1/2+y,-z
loop_
_atom_site_type_symbol
_atom_site_label
_atom_site_fract_x
_atom_site_fract_y
_atom_site_fract_z
Si Si1 0.468409 0.750000 0.750000
Si Si2 0.500000 0.702503 0.000000
Si Si3 0.891910 0.099290 0.069415
Si Si4 0.142474 0.500000 0.000000
Si Si5 0.690042 0.782602 0.890438
Si Si6 0.435900 0.025571 0.213855
O O1 0.499295 0.765705 0.875193
O O2 0.435002 0.643333 0.769156
O O3 0.551330 0.627674 0.987956
O O4 0.855154 0.202946 0.060471
O O5 0.907875 0.061562 0.201315
O O6 0.866433 0.000000 0.000000
O O7 0.176022 0.597359 0.062352
O O8 0.100631 0.461948 0.099466
O O9 0.688723 0.750000 0.750000
O O10 0.750000 0.750000 0.930315
O O11 0.500000 0.000000 0.198959
#
# Coordination Sequence:
#
# PCOD9329179 Si02
#       6
#     8   8  16   8  16  16
#     4  12  26  38  60  96 154 196 242 296 360 460
#     4  12  25  40  65 102 148 193 240 294 379 454
#     4  12  23  45  71 101 142 194 241 294 367 452
#     4  12  27  46  74 110 142 185 246 310 372 450
#     4  11  27  51  75 101 141 194 249 311 376 443
#     4  12  25  41  66 105 150 190 237 295 379 452
#
# _framework density 20.511030000000002
#
# number of rings (size 3 to 8) (size 9 to 14) (size 15 to 20)
#    0.000    0.222    6.667    2.000    9.333    0.000 
#    0.000    0.000    0.000    1.333    0.000    0.000 
#    0.000    0.000    0.000    0.000    0.000    0.000 
#
# Total GULP energy -100350.432849 kJ/mol
# GULP energy per Si atom -5575.024047 kJ/mol
# Density = 2.046435 g / cm^3
# Si number density = 20.511030 Si / 1000 Ang^3
#
#
#
# Elastic Constant Matrix: (Units=GPa)
#
#
# Indices 1 2 3 4 5 6 
#
# 1 112.1293 55.6626 18.8455 0.0000 0.0000 0.0000
# 2 55.6626 137.6274 26.8118 0.0000 0.0000 0.0000
# 3 18.8455 26.8118 132.9824 0.0000 0.0000 0.0000
# 4 0.0000 0.0000 0.0000 27.2926 0.0000 0.0000
# 5 0.0000 0.0000 0.0000 0.0000 48.7284 0.0000
# 6 0.0000 0.0000 0.0000 0.0000 0.0000 30.9756
#
#
#
# Elastic Compliance Matrix: (Units=1/GPa)
#
#
# Indices 1 2 3 4 5 6 
#
# 1 0.011221 -0.004401 -0.000703 0.000000 0.000000 0.000000
# 2 -0.004401 0.009290 -0.001249 0.000000 0.000000 0.000000
# 3 -0.000703 -0.001249 0.007871 0.000000 0.000000 0.000000
# 4 0.000000 0.000000 0.000000 0.036640 0.000000 0.000000
# 5 0.000000 0.000000 0.000000 0.000000 0.020522 0.000000
# 6 0.000000 0.000000 0.000000 0.000000 0.000000 0.032284
#
#
# Mechanical properties :
#
#
# Convention : Reuss Voigt Hill
#
# Bulk Modulus (GPa) = 63.79523 65.04209 64.41866
# Shear Modulus (GPa) = 36.82982 40.16059 38.49521
#
# Velocity S-wave (km/s) = 4.24206 4.42973 4.33691
# Velocity P-wave (km/s) = 7.42724 7.61203 7.52020
#
# Compressibility (1/GPa) = 0.01567515
#
# Stress axis : x y z
#
# Youngs Moduli (GPa) = 89.11582 107.64825 127.04464
#
# Poissons Ratio (x) = 0.47381 0.08929
# Poissons Ratio (y) = 0.39224 0.15870
# Poissons Ratio (z) = 0.06263 0.13447
#
# Static dielectric constant tensor:
#      x y z
#    x 1.703070 0.000000 0.000000 
#    y 0.000000 1.759890 0.000000 
#    z 0.000000 0.000000 1.526770 
# 
# From -- ./inp_files/18135.got.cif
#   From: 2010.05.17/outbox.cif.g08.bks.cpg/sg22_10_cif.got.tgz:18135.got - 2010.06.03 23:40:54.
