data_PCOD9329044
_publ_section_title
;
Structure prediction by ZEFSAII (Michael W. Deem and Ramdas Pophale) SiO2 
 PCOD9329044
Probable space group: F 2 2 2
;
_chemical_formula_sum "Si O2"
_cell_formula_units_Z 64
_cell_length_a 11.486307
_cell_length_b 15.933693
_cell_length_c 14.862199
_cell_angle_alpha 90.000000
_cell_angle_beta 90.000000
_cell_angle_gamma 90.000000
_cell_volume 2720.069101
_symmetry_space_group_name_H-M "F 2 2 2"
_symmetry_group_IT_number 22
_symmetry_cell_setting 'orthorhombic'
loop_
_space_group_symop_operation_xyz
x,y,z
-x,-y,z
x,-y,-z
-x,y,-z
x,1/2+y,1/2+z
-x,1/2-y,1/2+z
x,1/2-y,1/2-z
-x,1/2+y,1/2-z
1/2+x,y,1/2+z
1/2-x,-y,1/2+z
1/2+x,-y,1/2-z
1/2-x,y,1/2-z
1/2+x,1/2+y,z
1/2-x,1/2-y,z
1/2+x,1/2-y,-z
1/2-x,1/2+y,-z
loop_
_atom_site_type_symbol
_atom_site_label
_atom_site_fract_x
_atom_site_fract_y
_atom_site_fract_z
Si Si1 0.802039 0.141694 0.649934
Si Si2 0.036355 0.195212 0.598858
Si Si3 0.697964 0.453409 0.348761
Si Si4 0.368380 0.634730 0.020989
O O1 0.750000 0.145635 0.750000
O O2 0.911853 0.203890 0.645919
O O3 0.709031 0.152301 0.568404
O O4 0.849526 0.046603 0.634667
O O5 0.891053 0.279802 0.420875
O O6 0.000000 0.164030 0.500000
O O7 0.110263 0.123754 0.645289
O O8 0.750000 0.454761 0.250000
O O9 0.799015 0.431631 0.419630
O O10 0.500000 0.607004 0.000000
#
# Coordination Sequence:
#
# PCOD9329044 Si02
#       4
#    16  16  16  16
#     4  11  26  48  74 109 147 193 243 299 368 432
#     4  11  24  45  73 104 143 193 245 295 361 433
#     4  11  25  45  75 108 146 191 244 304 364 429
#     4  11  26  45  70 106 148 191 242 302 361 429
#
# _framework density 23.528815000000002
#
# number of rings (size 3 to 8) (size 9 to 14) (size 15 to 20)
#    0.000    1.000    2.500    2.250    7.000    5.000 
#    4.500    5.000    0.000    0.000    0.000    0.000 
#    0.000    0.000    0.000    0.000    0.000    0.000 
#
# Total GULP energy -89530.723837 kJ/mol
# GULP energy per Si atom -5595.670240 kJ/mol
# Density = 2.347526 g / cm^3
# Si number density = 23.528815 Si / 1000 Ang^3
#
#
#
# Elastic Constant Matrix: (Units=GPa)
#
#
# Indices 1 2 3 4 5 6 
#
# 1 90.7193 2.8422 26.5773 0.0000 0.0000 0.0000
# 2 2.8422 113.1005 30.6907 0.0000 0.0000 0.0000
# 3 26.5773 30.6907 88.1680 0.0000 0.0000 0.0000
# 4 0.0000 0.0000 0.0000 38.6369 0.0000 0.0000
# 5 0.0000 0.0000 0.0000 0.0000 26.9051 0.0000
# 6 0.0000 0.0000 0.0000 0.0000 0.0000 19.1279
#
#
#
# Elastic Compliance Matrix: (Units=1/GPa)
#
#
# Indices 1 2 3 4 5 6 
#
# 1 0.012150 0.000760 -0.003927 0.000000 0.000000 0.000000
# 2 0.000760 0.009812 -0.003645 0.000000 0.000000 0.000000
# 3 -0.003927 -0.003645 0.013794 0.000000 0.000000 0.000000
# 4 0.000000 0.000000 0.000000 0.025882 0.000000 0.000000
# 5 0.000000 0.000000 0.000000 0.000000 0.037168 0.000000
# 6 0.000000 0.000000 0.000000 0.000000 0.000000 0.052280
#
#
# Mechanical properties :
#
#
# Convention : Reuss Voigt Hill
#
# Bulk Modulus (GPa) = 45.18124 45.80093 45.49108
# Shear Modulus (GPa) = 29.05536 32.39247 30.72392
#
# Velocity S-wave (km/s) = 3.51790 3.71444 3.61751
# Velocity P-wave (km/s) = 5.97872 6.15664 6.06833
#
# Compressibility (1/GPa) = 0.02213308
#
# Stress axis : x y z
#
# Youngs Moduli (GPa) = 82.30677 101.92056 72.49325
#
# Poissons Ratio (x) = -0.07749 0.28468
# Poissons Ratio (y) = -0.06258 0.26420
# Poissons Ratio (z) = 0.32322 0.37145
#
# Static dielectric constant tensor:
#      x y z
#    x 1.890220 0.000000 0.000000 
#    y 0.000000 1.929310 0.000000 
#    z 0.000000 0.000000 2.147260 
# 
# From -- ./inp_files/19379.got.cif
#   From: 2010.05.17/outbox.cif.g08.bks.cpg/sg22_10_cif.got.tgz:19379.got - 2010.06.03 23:40:54.
