data_PCOD9329901
_publ_section_title
;
Structure prediction by ZEFSAII (Michael W. Deem and Ramdas Pophale) SiO2 
 PCOD9329901
Probable space group: I 2 2 2
;
_chemical_formula_sum "Si O2"
_cell_formula_units_Z 56
_cell_length_a 21.225980
_cell_length_b 7.220512
_cell_length_c 15.522073
_cell_angle_alpha 90.000000
_cell_angle_beta 90.000000
_cell_angle_gamma 90.000000
_cell_volume 2378.950833
_symmetry_space_group_name_H-M "I 2 2 2"
_symmetry_group_IT_number 23
_symmetry_cell_setting 'orthorhombic'
loop_
_space_group_symop_operation_xyz
x,y,z
-x,-y,z
x,-y,-z
-x,y,-z
1/2+x,1/2+y,1/2+z
1/2-x,1/2-y,1/2+z
1/2+x,1/2-y,1/2-z
1/2-x,1/2+y,1/2-z
loop_
_atom_site_type_symbol
_atom_site_label
_atom_site_fract_x
_atom_site_fract_y
_atom_site_fract_z
Si Si1 0.554888 0.259706 0.285573
Si Si2 0.780631 0.852359 0.806334
Si Si3 0.742706 0.775822 0.990956
Si Si4 0.686731 0.217723 0.347554
Si Si5 0.562149 0.871293 0.902964
Si Si6 0.612247 0.248252 0.928017
Si Si7 0.919130 0.178624 0.237038
O O1 0.614010 0.165602 0.331569
O O2 0.566795 0.235377 0.184256
O O3 0.480864 0.207771 0.293295
O O4 0.566097 0.477312 0.301860
O O5 0.734244 0.864448 0.724434
O O6 0.848537 0.760250 0.785781
O O7 0.799857 0.062469 0.830617
O O8 0.749764 0.750338 0.888644
O O9 0.796404 0.693228 0.052471
O O10 0.680164 0.698064 0.037203
O O11 0.743309 0.000000 0.000000
O O12 0.500000 0.000000 0.903608
O O13 0.616170 0.027987 0.905615
O O14 0.569468 0.745971 0.986668
O O15 0.583899 0.334679 0.841816
#
# Coordination Sequence:
#
# PCOD9329901 Si02
#       7
#     8   8   8   8   8   8   8
#     4  10  22  36  52  80 116 150 187 232 281 343
#     4  10  21  38  58  82 113 153 192 239 291 337
#     4  10  19  34  57  83 111 147 191 241 283 337
#     4  10  21  36  58  84 113 150 194 240 290 342
#     4  11  21  32  52  84 110 143 185 228 279 346
#     4  11  19  32  54  80 111 142 185 231 277 341
#     4  10  21  37  54  77 115 155 186 226 288 343
#
# _framework density 23.539788000000001
#
# number of rings (size 3 to 8) (size 9 to 14) (size 15 to 20)
#    0.000    1.714    4.286    1.714    2.000    0.571 
#    0.000    2.857    0.000    4.286    0.000    0.000 
#    0.000    0.000    0.000    0.000    0.000    0.000 
#
# Total GULP energy -156245.453800 kJ/mol
# GULP energy per Si atom -5580.194779 kJ/mol
# Density = 2.348621 g / cm^3
# Si number density = 23.539788 Si / 1000 Ang^3
#
#
#
# Elastic Constant Matrix: (Units=GPa)
#
#
# Indices 1 2 3 4 5 6 
#
# 1 164.7036 8.2268 37.7972 0.0000 0.0000 0.0000
# 2 8.2268 48.5888 2.2145 0.0000 0.0000 0.0000
# 3 37.7972 2.2145 78.1778 0.0000 0.0000 0.0000
# 4 0.0000 0.0000 0.0000 19.9914 0.0000 0.0000
# 5 0.0000 0.0000 0.0000 0.0000 38.0242 0.0000
# 6 0.0000 0.0000 0.0000 0.0000 0.0000 13.4395
#
#
#
# Elastic Compliance Matrix: (Units=1/GPa)
#
#
# Indices 1 2 3 4 5 6 
#
# 1 0.006879 -0.001014 -0.003297 0.000000 0.000000 0.000000
# 2 -0.001014 0.020757 -0.000098 0.000000 0.000000 0.000000
# 3 -0.003297 -0.000098 0.014388 0.000000 0.000000 0.000000
# 4 0.000000 0.000000 0.000000 0.050022 0.000000 0.000000
# 5 0.000000 0.000000 0.000000 0.000000 0.026299 0.000000
# 6 0.000000 0.000000 0.000000 0.000000 0.000000 0.074407
#
#
# Mechanical properties :
#
#
# Convention : Reuss Voigt Hill
#
# Bulk Modulus (GPa) = 30.11495 43.10527 36.61011
# Shear Modulus (GPa) = 23.51407 30.50646 27.01027
#
# Velocity S-wave (km/s) = 3.16398 3.60384 3.39105
# Velocity P-wave (km/s) = 5.11553 5.97229 5.56044
#
# Compressibility (1/GPa) = 0.03320609
#
# Stress axis : x y z
#
# Youngs Moduli (GPa) = 145.37417 48.17637 69.50164
#
# Poissons Ratio (x) = 0.04887 0.22915
# Poissons Ratio (y) = 0.14747 0.00678
# Poissons Ratio (z) = 0.47930 0.00470
#
# Static dielectric constant tensor:
#      x y z
#    x 2.018090 0.000000 0.000000 
#    y 0.000000 2.009660 0.000000 
#    z 0.000000 0.000000 1.858920 
# 
# From -- ./inp_files/22407.got.cif
#   From: 2010.05.17/outbox.cif.g08.bks.cpg/sg23_12_cif.got.tgz:22407.got - 2010.06.04 12:02:01.
