data_PCOD9329121
_publ_section_title
;
Structure prediction by ZEFSAII (Michael W. Deem and Ramdas Pophale) SiO2 
 PCOD9329121
Probable space group: F 2 2 2
;
_chemical_formula_sum "Si O2"
_cell_formula_units_Z 64
_cell_length_a 13.856044
_cell_length_b 11.273941
_cell_length_c 15.241755
_cell_angle_alpha 90.000000
_cell_angle_beta 90.000000
_cell_angle_gamma 90.000000
_cell_volume 2380.948424
_symmetry_space_group_name_H-M "F 2 2 2"
_symmetry_group_IT_number 22
_symmetry_cell_setting 'orthorhombic'
loop_
_space_group_symop_operation_xyz
x,y,z
-x,-y,z
x,-y,-z
-x,y,-z
x,1/2+y,1/2+z
-x,1/2-y,1/2+z
x,1/2-y,1/2-z
-x,1/2+y,1/2-z
1/2+x,y,1/2+z
1/2-x,-y,1/2+z
1/2+x,-y,1/2-z
1/2-x,y,1/2-z
1/2+x,1/2+y,z
1/2-x,1/2-y,z
1/2+x,1/2-y,-z
1/2-x,1/2+y,-z
loop_
_atom_site_type_symbol
_atom_site_label
_atom_site_fract_x
_atom_site_fract_y
_atom_site_fract_z
Si Si1 0.650861 0.978830 0.277863
Si Si2 0.651729 0.672701 0.930244
Si Si3 0.434157 0.291449 0.110406
Si Si4 0.111355 0.974227 0.594070
O O1 0.750000 0.915727 0.250000
O O2 0.575462 0.879710 0.307900
O O3 0.631287 0.041333 0.185073
O O4 0.662352 0.070383 0.357477
O O5 0.750000 0.750000 0.929938
O O6 0.547565 0.732144 0.905897
O O7 0.621366 0.641006 0.030367
O O8 0.381201 0.165749 0.112781
O O9 0.161147 0.000000 0.500000
O O10 0.000000 0.000000 0.581580
#
# Coordination Sequence:
#
# PCOD9329121 Si02
#       4
#    16  16  16  16
#     4  12  29  46  77 118 164 214 276 336 412 491
#     4  11  26  50  83 120 158 215 278 339 414 498
#     4  11  26  52  83 112 167 217 267 347 417 494
#     4  11  25  47  77 110 156 208 272 340 409 473
#
# _framework density 26.880043000000001
#
# number of rings (size 3 to 8) (size 9 to 14) (size 15 to 20)
#    0.000    0.750    0.000    6.750   10.500    3.500 
#    0.000    0.000    0.000    0.000    0.000    0.000 
#    0.000    0.000    0.000    0.000    0.000    0.000 
#
# Total GULP energy -89370.901906 kJ/mol
# GULP energy per Si atom -5585.681369 kJ/mol
# Density = 2.681886 g / cm^3
# Si number density = 26.880043 Si / 1000 Ang^3
#
#
#
# Elastic Constant Matrix: (Units=GPa)
#
#
# Indices 1 2 3 4 5 6 
#
# 1 153.1825 28.3359 51.7304 0.0000 0.0000 0.0000
# 2 28.3359 106.3628 68.2180 0.0000 0.0000 0.0000
# 3 51.7304 68.2180 219.8119 0.0000 0.0000 0.0000
# 4 0.0000 0.0000 0.0000 29.5777 0.0000 0.0000
# 5 0.0000 0.0000 0.0000 0.0000 44.6139 0.0000
# 6 0.0000 0.0000 0.0000 0.0000 0.0000 28.3382
#
#
#
# Elastic Compliance Matrix: (Units=1/GPa)
#
#
# Indices 1 2 3 4 5 6 
#
# 1 0.007182 -0.001035 -0.001369 0.000000 0.000000 0.000000
# 2 -0.001035 0.011888 -0.003446 0.000000 0.000000 0.000000
# 3 -0.001369 -0.003446 0.005941 0.000000 0.000000 0.000000
# 4 0.000000 0.000000 0.000000 0.033809 0.000000 0.000000
# 5 0.000000 0.000000 0.000000 0.000000 0.022415 0.000000
# 6 0.000000 0.000000 0.000000 0.000000 0.000000 0.035288
#
#
# Mechanical properties :
#
#
# Convention : Reuss Voigt Hill
#
# Bulk Modulus (GPa) = 75.12802 86.21401 80.67101
# Shear Modulus (GPa) = 37.69070 42.57748 40.13409
#
# Velocity S-wave (km/s) = 3.74863 3.98424 3.86823
# Velocity P-wave (km/s) = 6.83713 7.30129 7.07302
#
# Compressibility (1/GPa) = 0.01331061
#
# Stress axis : x y z
#
# Youngs Moduli (GPa) = 139.23774 84.12186 168.32685
#
# Poissons Ratio (x) = 0.08710 0.23042
# Poissons Ratio (y) = 0.14416 0.57999
# Poissons Ratio (z) = 0.19060 0.28985
#
# Static dielectric constant tensor:
#      x y z
#    x 2.149960 0.000000 0.000000 
#    y 0.000000 2.104940 0.000000 
#    z 0.000000 0.000000 2.210670 
# 
# From -- ./inp_files/36825.got.cif
#   From: 2010.05.17/outbox.cif.g08.bks.cpg/sg22_19_cif.got.tgz:36825.got - 2010.06.03 23:40:54.
