data_PCOD9329884
_publ_section_title
;
Structure prediction by ZEFSAII (Michael W. Deem and Ramdas Pophale) SiO2 
 PCOD9329884
Probable space group: I 2 2 2
;
_chemical_formula_sum "Si O2"
_cell_formula_units_Z 52
_cell_length_a 8.052204
_cell_length_b 14.701169
_cell_length_c 24.105685
_cell_angle_alpha 90.000000
_cell_angle_beta 90.000000
_cell_angle_gamma 90.000000
_cell_volume 2853.554137
_symmetry_space_group_name_H-M "I 2 2 2"
_symmetry_group_IT_number 23
_symmetry_cell_setting 'orthorhombic'
loop_
_space_group_symop_operation_xyz
x,y,z
-x,-y,z
x,-y,-z
-x,y,-z
1/2+x,1/2+y,1/2+z
1/2-x,1/2-y,1/2+z
1/2+x,1/2-y,1/2-z
1/2-x,1/2+y,1/2-z
loop_
_atom_site_type_symbol
_atom_site_label
_atom_site_fract_x
_atom_site_fract_y
_atom_site_fract_z
Si Si1 0.703193 0.894479 0.000914
Si Si2 0.256270 0.034532 0.815875
Si Si3 0.527430 0.671616 0.713840
Si Si4 0.000000 0.500000 0.783269
Si Si5 0.234755 0.661546 0.378482
Si Si6 0.859649 0.698417 0.390347
Si Si7 0.801383 0.329932 0.195679
O O1 0.726129 0.827591 0.948729
O O2 0.500000 0.898620 0.000000
O O3 0.779619 0.857269 0.057819
O O4 0.758049 0.000000 0.000000
O O5 0.343584 0.104436 0.856991
O O6 0.081627 0.085224 0.804827
O O7 0.356578 0.034070 0.758592
O O8 0.270325 0.936544 0.845886
O O9 0.631246 0.708902 0.660879
O O10 0.648378 0.646045 0.763930
O O11 0.406022 0.753997 0.729639
O O12 0.916584 0.583454 0.815187
O O13 0.058358 0.712117 0.386081
O O14 0.766692 0.778239 0.358087
#
# Coordination Sequence:
#
# PCOD9329884 Si02
#       7
#     8   8   8   4   8   8   8
#     4   9  17  29  53  83 111 150 190 226 282 359
#     4  11  19  32  54  79 112 150 195 235 284 352
#     4  11  22  36  52  80 114 156 195 240 302 345
#     4  12  22  36  54  79 109 158 196 246 292 346
#     4  11  18  32  55  82 114 153 190 239 284 357
#     4  10  19  34  54  80 115 153 195 235 296 350
#     4  11  23  36  53  75 113 157 201 244 293 356
#
# _framework density 18.222888000000001
#
# number of rings (size 3 to 8) (size 9 to 14) (size 15 to 20)
#    0.000    1.385    4.615    3.231    0.000    0.000 
#    0.000    3.077    0.000    0.000    0.000    2.154 
#    0.000    3.692    0.000    0.000    0.000    0.000 
#
# Total GULP energy -144824.562961 kJ/mol
# GULP energy per Si atom -5570.175498 kJ/mol
# Density = 1.818141 g / cm^3
# Si number density = 18.222888 Si / 1000 Ang^3
#
#
#
# Elastic Constant Matrix: (Units=GPa)
#
#
# Indices 1 2 3 4 5 6 
#
# 1 68.0070 25.0912 24.1608 0.0000 0.0000 0.0000
# 2 25.0912 54.1505 19.6213 0.0000 0.0000 0.0000
# 3 24.1608 19.6213 95.9929 0.0000 0.0000 0.0000
# 4 0.0000 0.0000 0.0000 25.1636 0.0000 0.0000
# 5 0.0000 0.0000 0.0000 0.0000 -3.4703 0.0000
# 6 0.0000 0.0000 0.0000 0.0000 0.0000 25.1969
#
#
#
# Elastic Compliance Matrix: (Units=1/GPa)
#
#
# Indices 1 2 3 4 5 6 
#
# 1 0.018578 -0.007467 -0.003150 0.000000 0.000000 0.000000
# 2 -0.007467 0.022946 -0.002811 0.000000 0.000000 0.000000
# 3 -0.003150 -0.002811 0.011785 0.000000 0.000000 0.000000
# 4 0.000000 0.000000 0.000000 0.039740 0.000000 0.000000
# 5 0.000000 0.000000 0.000000 0.000000 -0.288163 0.000000
# 6 0.000000 0.000000 0.000000 0.000000 0.000000 0.039687
#
#
# Mechanical properties :
#
#
# Convention : Reuss Voigt Hill
#
# Bulk Modulus (GPa) = 37.80239 39.54411 38.67325
# Shear Modulus (GPa) = -41.75217 19.32986 -11.21115
#
# Velocity S-wave (km/s) = -4.79183 3.26044 -2.48306
# Velocity P-wave (km/s) = 3.13466 5.99344 3.61215
#
# Compressibility (1/GPa) = 0.02645335
#
# Stress axis : x y z
#
# Youngs Moduli (GPa) = 53.82589 43.58152 84.85559
#
# Poissons Ratio (x) = 0.32543 0.26727
# Poissons Ratio (y) = 0.40193 0.23850
# Poissons Ratio (z) = 0.16954 0.12249
#
# Static dielectric constant tensor:
#      x y z
#    x 1.925830 0.000000 0.000000 
#    y 0.000000 1.696590 0.000000 
#    z 0.000000 0.000000 1.647990 
# 
# From -- ./inp_files/28049.got.cif
#   From: 2010.05.17/outbox.cif.g08.bks.cpg/sg23_15_cif.got.tgz:28049.got - 2010.06.04 12:02:01.
