data_PCOD9329947
_publ_section_title
;
Structure prediction by ZEFSAII (Michael W. Deem and Ramdas Pophale) SiO2 
 PCOD9329947
Probable space group: I 2 2 2
;
_chemical_formula_sum "Si O2"
_cell_formula_units_Z 64
_cell_length_a 9.739119
_cell_length_b 10.827391
_cell_length_c 28.867089
_cell_angle_alpha 90.000000
_cell_angle_beta 90.000000
_cell_angle_gamma 90.000000
_cell_volume 3044.012868
_symmetry_space_group_name_H-M "I 2 2 2"
_symmetry_group_IT_number 23
_symmetry_cell_setting 'orthorhombic'
loop_
_space_group_symop_operation_xyz
x,y,z
-x,-y,z
x,-y,-z
-x,y,-z
1/2+x,1/2+y,1/2+z
1/2-x,1/2-y,1/2+z
1/2+x,1/2-y,1/2-z
1/2-x,1/2+y,1/2-z
loop_
_atom_site_type_symbol
_atom_site_label
_atom_site_fract_x
_atom_site_fract_y
_atom_site_fract_z
Si Si1 0.491214 0.852508 0.361077
Si Si2 0.659578 0.535696 0.679123
Si Si3 0.845371 0.467490 0.446010
Si Si4 0.726032 0.666568 0.383708
Si Si5 0.712803 0.750957 0.116265
Si Si6 0.071897 0.366046 0.241741
Si Si7 0.834410 0.988166 0.280081
Si Si8 0.560896 0.293835 0.164095
O O1 0.603697 0.764593 0.385336
O O2 0.346949 0.831243 0.386716
O O3 0.489460 0.812204 0.306337
O O4 0.500000 0.000000 0.359493
O O5 0.500000 0.500000 0.671134
O O6 0.725432 0.405128 0.665728
O O7 0.731829 0.636599 0.648049
O O8 0.686345 0.578072 0.730995
O O9 0.839226 0.500000 0.500000
O O10 0.734621 0.558197 0.421308
O O11 0.823445 0.325249 0.430660
O O12 0.000000 0.500000 0.429412
O O13 0.872293 0.730361 0.380548
O O14 0.591536 0.681243 0.144324
O O15 0.229119 0.399621 0.226096
O O16 0.048534 0.283555 0.287585
O O17 0.000000 0.500000 0.250089
O O18 0.823695 0.897699 0.323359
O O19 0.000000 0.000000 0.281040
#
# Coordination Sequence:
#
# PCOD9329947 Si02
#       8
#     8   8   8   8   8   8   8   8
#     4  11  24  41  59  86 131 183 218 254 310 372
#     4  10  19  35  56  81 120 163 215 261 321 367
#     4  10  22  43  73 106 129 148 193 269 347 407
#     4  11  22  39  63  92 123 169 205 264 330 384
#     4  11  22  38  63  93 123 165 205 265 327 390
#     4  11  23  36  51  78 119 169 218 261 293 344
#     4  11  23  35  50  79 116 164 220 265 292 351
#     4  12  23  34  57  85 122 165 221 262 311 370
#
# _framework density 21.024878000000001
#
# number of rings (size 3 to 8) (size 9 to 14) (size 15 to 20)
#    0.000    1.125    3.750    3.750    3.500    2.000 
#    0.000    1.250    0.000    1.500    0.000    1.750 
#    0.000    0.000    0.000    0.000    0.000    0.000 
#
# Total GULP energy -178210.097577 kJ/mol
# GULP energy per Si atom -5569.065549 kJ/mol
# Density = 2.097702 g / cm^3
# Si number density = 21.024878 Si / 1000 Ang^3
#
#
#
# Elastic Constant Matrix: (Units=GPa)
#
#
# Indices 1 2 3 4 5 6 
#
# 1 96.8312 22.1148 17.0252 0.0000 0.0000 0.0000
# 2 22.1148 68.1240 19.2644 0.0000 0.0000 0.0000
# 3 17.0252 19.2644 58.4026 0.0000 0.0000 0.0000
# 4 0.0000 0.0000 0.0000 20.9201 0.0000 0.0000
# 5 0.0000 0.0000 0.0000 0.0000 11.0398 0.0000
# 6 0.0000 0.0000 0.0000 0.0000 0.0000 40.3522
#
#
#
# Elastic Compliance Matrix: (Units=1/GPa)
#
#
# Indices 1 2 3 4 5 6 
#
# 1 0.011434 -0.003054 -0.002326 0.000000 0.000000 0.000000
# 2 -0.003054 0.017005 -0.004719 0.000000 0.000000 0.000000
# 3 -0.002326 -0.004719 0.019357 0.000000 0.000000 0.000000
# 4 0.000000 0.000000 0.000000 0.047801 0.000000 0.000000
# 5 0.000000 0.000000 0.000000 0.000000 0.090582 0.000000
# 6 0.000000 0.000000 0.000000 0.000000 0.000000 0.024782
#
#
# Mechanical properties :
#
#
# Convention : Reuss Voigt Hill
#
# Bulk Modulus (GPa) = 36.23385 37.79629 37.01507
# Shear Modulus (GPa) = 20.80241 25.45930 23.13086
#
# Velocity S-wave (km/s) = 3.14892 3.48359 3.32047
# Velocity P-wave (km/s) = 5.52197 5.84778 5.68721
#
# Compressibility (1/GPa) = 0.02759850
#
# Stress axis : x y z
#
# Youngs Moduli (GPa) = 87.46118 58.80638 51.66074
#
# Poissons Ratio (x) = 0.17959 0.12015
# Poissons Ratio (y) = 0.26711 0.24378
# Poissons Ratio (z) = 0.20341 0.27750
#
# Static dielectric constant tensor:
#      x y z
#    x 1.900160 0.000000 0.000000 
#    y 0.000000 1.981630 0.000000 
#    z 0.000000 0.000000 1.759920 
# 
# From -- ./inp_files/30351.got.cif
#   From: 2010.05.17/outbox.cif.g08.bks.cpg/sg23_16_cif.got.tgz:30351.got - 2010.06.04 12:02:01.
