data_PCOD9329801
_publ_section_title
;
Structure prediction by ZEFSAII (Michael W. Deem and Ramdas Pophale) SiO2 
 PCOD9329801
Probable space group: I 2 2 2
;
_chemical_formula_sum "Si O2"
_cell_formula_units_Z 64
_cell_length_a 7.236515
_cell_length_b 13.409695
_cell_length_c 27.327828
_cell_angle_alpha 90.000000
_cell_angle_beta 90.000000
_cell_angle_gamma 90.000000
_cell_volume 2651.877645
_symmetry_space_group_name_H-M "I 2 2 2"
_symmetry_group_IT_number 23
_symmetry_cell_setting 'orthorhombic'
loop_
_space_group_symop_operation_xyz
x,y,z
-x,-y,z
x,-y,-z
-x,y,-z
1/2+x,1/2+y,1/2+z
1/2-x,1/2-y,1/2+z
1/2+x,1/2-y,1/2-z
1/2-x,1/2+y,1/2-z
loop_
_atom_site_type_symbol
_atom_site_label
_atom_site_fract_x
_atom_site_fract_y
_atom_site_fract_z
Si Si1 0.292920 0.511361 0.921671
Si Si2 0.294896 0.047170 0.687401
Si Si3 0.113128 0.313891 0.262581
Si Si4 0.694954 0.879309 0.865846
Si Si5 0.253362 0.398974 0.624914
Si Si6 0.711009 0.712116 0.940196
Si Si7 0.803507 0.108270 0.764545
Si Si8 0.237728 0.225529 0.549890
O O1 0.500000 0.500000 0.942186
O O2 0.301832 0.534841 0.863990
O O3 0.219398 0.400021 0.930119
O O4 0.198978 0.610660 0.942717
O O5 0.196589 0.989646 0.731783
O O6 0.500000 0.000000 0.680762
O O7 0.313169 0.157896 0.708716
O O8 0.225190 0.358109 0.308307
O O9 0.098957 0.195991 0.265030
O O10 0.913145 0.362593 0.264625
O O11 0.470257 0.885679 0.869661
O O12 0.763663 0.786205 0.896926
O O13 0.772354 0.983214 0.886860
O O14 0.349327 0.392941 0.678223
O O15 0.306190 0.311887 0.586745
O O16 0.485439 0.715975 0.941940
O O17 0.772477 0.749990 0.993319
#
# Coordination Sequence:
#
# PCOD9329801 Si02
#       8
#     8   8   8   8   8   8   8   8
#     4  10  19  32  50  74 102 129 163 207 251 296
#     4  10  20  33  49  71 101 134 166 198 243 296
#     4  10  19  32  49  71  99 132 165 200 243 291
#     4   9  16  28  45  65  94 130 164 197 240 296
#     4   9  16  28  45  65  94 130 164 197 240 296
#     4   9  17  28  45  70  97 126 161 205 253 295
#     4  10  19  32  49  71  99 132 165 200 243 291
#     4   9  17  28  45  70  97 126 161 205 253 295
#
# _framework density 24.133842999999999
#
# number of rings (size 3 to 8) (size 9 to 14) (size 15 to 20)
#    0.000    2.500    1.250    1.875    0.000    5.000 
#    0.000    2.500    0.000    1.500    0.000    0.000 
#    0.000    0.000    0.000   10.500    0.000   10.000 
#
# Total GULP energy -178744.819032 kJ/mol
# GULP energy per Si atom -5585.775595 kJ/mol
# Density = 2.407891 g / cm^3
# Si number density = 24.133843 Si / 1000 Ang^3
#
#
#
# Elastic Constant Matrix: (Units=GPa)
#
#
# Indices 1 2 3 4 5 6 
#
# 1 88.2510 -10.6670 -6.3334 0.0000 0.0000 0.0000
# 2 -10.6670 99.7875 18.9708 0.0000 0.0000 0.0000
# 3 -6.3334 18.9708 114.1356 0.0000 0.0000 0.0000
# 4 0.0000 0.0000 0.0000 26.6153 0.0000 0.0000
# 5 0.0000 0.0000 0.0000 0.0000 5.9100 0.0000
# 6 0.0000 0.0000 0.0000 0.0000 0.0000 0.8588
#
#
#
# Elastic Compliance Matrix: (Units=1/GPa)
#
#
# Indices 1 2 3 4 5 6 
#
# 1 0.011502 0.001144 0.000448 0.000000 0.000000 0.000000
# 2 0.001144 0.010462 -0.001675 0.000000 0.000000 0.000000
# 3 0.000448 -0.001675 0.009065 0.000000 0.000000 0.000000
# 4 0.000000 0.000000 0.000000 0.037572 0.000000 0.000000
# 5 0.000000 0.000000 0.000000 0.000000 0.169206 0.000000
# 6 0.000000 0.000000 0.000000 0.000000 0.000000 1.164480
#
#
# Mechanical properties :
#
#
# Convention : Reuss Voigt Hill
#
# Bulk Modulus (GPa) = 32.40168 34.01279 33.20724
# Shear Modulus (GPa) = 3.53922 26.69037 15.11480
#
# Velocity S-wave (km/s) = 1.21230 3.32916 2.50529
# Velocity P-wave (km/s) = 3.92614 5.37604 4.70724
#
# Compressibility (1/GPa) = 0.03086260
#
# Stress axis : x y z
#
# Youngs Moduli (GPa) = 86.94307 95.58269 110.31624
#
# Poissons Ratio (x) = -0.10938 -0.04942
# Poissons Ratio (y) = -0.09949 0.18483
# Poissons Ratio (z) = -0.03895 0.16014
#
# Static dielectric constant tensor:
#      x y z
#    x 1.997540 0.000000 0.000000 
#    y 0.000000 1.518500 0.000000 
#    z 0.000000 0.000000 1.856110 
# 
# From -- ./inp_files/18438.got.cif
#   From: 2010.05.17/outbox.cif.g08.bks.cpg/sg23_10_cif.got.tgz:18438.got - 2010.06.04 12:02:01.
