data_PCOD9329092
_publ_section_title
;
Structure prediction by ZEFSAII (Michael W. Deem and Ramdas Pophale) SiO2 
 PCOD9329092
Probable space group: F 2 2 2
;
_chemical_formula_sum "Si O2"
_cell_formula_units_Z 64
_cell_length_a 27.697016
_cell_length_b 9.086575
_cell_length_c 11.141351
_cell_angle_alpha 90.000000
_cell_angle_beta 90.000000
_cell_angle_gamma 90.000000
_cell_volume 2803.955094
_symmetry_space_group_name_H-M "F 2 2 2"
_symmetry_group_IT_number 22
_symmetry_cell_setting 'orthorhombic'
loop_
_space_group_symop_operation_xyz
x,y,z
-x,-y,z
x,-y,-z
-x,y,-z
x,1/2+y,1/2+z
-x,1/2-y,1/2+z
x,1/2-y,1/2-z
-x,1/2+y,1/2-z
1/2+x,y,1/2+z
1/2-x,-y,1/2+z
1/2+x,-y,1/2-z
1/2-x,y,1/2-z
1/2+x,1/2+y,z
1/2-x,1/2-y,z
1/2+x,1/2-y,-z
1/2-x,1/2+y,-z
loop_
_atom_site_type_symbol
_atom_site_label
_atom_site_fract_x
_atom_site_fract_y
_atom_site_fract_z
Si Si1 0.825180 0.893037 0.179924
Si Si2 0.483297 0.169363 0.869713
Si Si3 0.301729 0.810675 0.428458
Si Si4 0.875556 0.074571 0.369709
O O1 0.805457 0.750000 0.250000
O O2 0.794085 0.038540 0.145525
O O3 0.868092 0.956375 0.262997
O O4 0.835215 0.839450 0.045087
O O5 0.501641 0.250000 0.750000
O O6 0.425384 0.161744 0.863576
O O7 0.500000 0.000000 0.865871
O O8 0.500000 0.229693 0.000000
O O9 0.250000 0.750000 0.468390
O O10 0.330336 0.683200 0.362373
O O11 0.873929 0.000000 0.500000
#
# Coordination Sequence:
#
# PCOD9329092 Si02
#       4
#    16  16  16  16
#     4  11  25  43  70  99 137 189 244 302 370 444
#     4  11  25  47  74 108 150 193 253 315 391 466
#     4  11  27  45  67 105 145 193 254 309 373 446
#     4  12  24  47  73 103 149 199 240 315 385 457
#
# _framework density 22.8249
#
# number of rings (size 3 to 8) (size 9 to 14) (size 15 to 20)
#    0.000    0.750    5.000    2.250    3.500    8.000 
#    0.000    0.000    0.000    0.000    0.000    0.000 
#    0.000    0.000    0.000    0.000    0.000    0.000 
#
# Total GULP energy -89291.087944 kJ/mol
# GULP energy per Si atom -5580.692996 kJ/mol
# Density = 2.277295 g / cm^3
# Si number density = 22.824900 Si / 1000 Ang^3
#
#
#
# Elastic Constant Matrix: (Units=GPa)
#
#
# Indices 1 2 3 4 5 6 
#
# 1 74.2855 1.1259 28.0170 0.0000 0.0000 0.0000
# 2 1.1259 93.2888 59.6029 0.0000 0.0000 0.0000
# 3 28.0170 59.6029 210.0321 0.0000 0.0000 0.0000
# 4 0.0000 0.0000 0.0000 63.4602 0.0000 0.0000
# 5 0.0000 0.0000 0.0000 0.0000 18.7586 0.0000
# 6 0.0000 0.0000 0.0000 0.0000 0.0000 18.6113
#
#
#
# Elastic Compliance Matrix: (Units=1/GPa)
#
#
# Indices 1 2 3 4 5 6 
#
# 1 0.014298 0.001278 -0.002270 0.000000 0.000000 0.000000
# 2 0.001278 0.013208 -0.003918 0.000000 0.000000 0.000000
# 3 -0.002270 -0.003918 0.006176 0.000000 0.000000 0.000000
# 4 0.000000 0.000000 0.000000 0.015758 0.000000 0.000000
# 5 0.000000 0.000000 0.000000 0.000000 0.053309 0.000000
# 6 0.000000 0.000000 0.000000 0.000000 0.000000 0.053731
#
#
# Mechanical properties :
#
#
# Convention : Reuss Voigt Hill
#
# Bulk Modulus (GPa) = 41.91041 61.67758 51.79399
# Shear Modulus (GPa) = 28.69369 39.42338 34.05853
#
# Velocity S-wave (km/s) = 3.54944 4.16048 3.86705
# Velocity P-wave (km/s) = 5.93292 7.08238 6.53298
#
# Compressibility (1/GPa) = 0.02386042
#
# Stress axis : x y z
#
# Youngs Moduli (GPa) = 69.93839 75.71443 161.91846
#
# Poissons Ratio (x) = -0.09674 0.36754
# Poissons Ratio (y) = -0.08936 0.63447
# Poissons Ratio (z) = 0.15875 0.29668
#
# Static dielectric constant tensor:
#      x y z
#    x 1.875760 0.000000 0.000000 
#    y 0.000000 1.880740 0.000000 
#    z 0.000000 0.000000 1.890770 
# 
# From -- ./inp_files/8523.got.cif
#   From: 2010.05.17/outbox.cif.g08.bks.cpg/sg22_5_cif.got.tgz:8523.got - 2010.06.03 23:40:54.
