data_PCOD9329425
_publ_section_title
;
Structure prediction by ZEFSAII (Michael W. Deem and Ramdas Pophale) SiO2 
 PCOD9329425
Probable space group: I 2 2 2
;
_chemical_formula_sum "Si O2"
_cell_formula_units_Z 40
_cell_length_a 23.316945
_cell_length_b 4.965716
_cell_length_c 21.973000
_cell_angle_alpha 90.000000
_cell_angle_beta 90.000000
_cell_angle_gamma 90.000000
_cell_volume 2544.150987
_symmetry_space_group_name_H-M "I 2 2 2"
_symmetry_group_IT_number 23
_symmetry_cell_setting 'orthorhombic'
loop_
_space_group_symop_operation_xyz
x,y,z
-x,-y,z
x,-y,-z
-x,y,-z
1/2+x,1/2+y,1/2+z
1/2-x,1/2-y,1/2+z
1/2+x,1/2-y,1/2-z
1/2-x,1/2+y,1/2-z
loop_
_atom_site_type_symbol
_atom_site_label
_atom_site_fract_x
_atom_site_fract_y
_atom_site_fract_z
Si Si1 0.433750 0.001395 0.609847
Si Si2 0.566140 0.500782 0.693666
Si Si3 0.174754 0.243494 0.243207
Si Si4 0.326728 0.231105 0.459338
Si Si5 0.225293 0.750799 0.173224
O O1 0.426529 0.799010 0.667356
O O2 0.388320 0.889669 0.562035
O O3 0.500000 0.000000 0.589115
O O4 0.424014 0.301875 0.635198
O O5 0.500000 0.500000 0.713573
O O6 0.610276 0.627748 0.741807
O O7 0.188409 0.531222 0.212044
O O8 0.208528 0.218014 0.306833
O O9 0.206819 0.039180 0.198128
O O10 0.332182 0.500000 0.500000
O O11 0.290891 0.252020 0.397157
O O12 0.298794 0.000000 0.500000
#
# Coordination Sequence:
#
# PCOD9329425 Si02
#       5
#     8   8   8   8   8
#     4  10  20  33  45  63  90 123 163 199 231 268
#     4  10  17  29  50  69  92 118 150 197 243 284
#     4  10  17  32  51  69  92 116 156 199 240 302
#     4  12  22  33  48  64  93 128 167 205 233 276
#     4  10  20  31  49  69  90 122 158 197 246 281
#
# _framework density 15.722337
#
# number of rings (size 3 to 8) (size 9 to 14) (size 15 to 20)
#    0.000    1.600    4.000    2.400    0.000    0.400 
#    0.000    1.000    0.000    0.000    0.000    0.000 
#    0.000    0.800    0.000    3.600    0.000    0.000 
#
# Total GULP energy -111373.647039 kJ/mol
# GULP energy per Si atom -5568.682352 kJ/mol
# Density = 1.568655 g / cm^3
# Si number density = 15.722337 Si / 1000 Ang^3
#
#
#
# Elastic Constant Matrix: (Units=GPa)
#
#
# Indices 1 2 3 4 5 6 
#
# 1 95.9901 3.0363 55.5218 0.0000 0.0000 0.0000
# 2 3.0363 48.4642 14.8074 0.0000 0.0000 0.0000
# 3 55.5218 14.8074 88.5155 0.0000 0.0000 0.0000
# 4 0.0000 0.0000 0.0000 20.8628 0.0000 0.0000
# 5 0.0000 0.0000 0.0000 0.0000 12.1669 0.0000
# 6 0.0000 0.0000 0.0000 0.0000 0.0000 17.4866
#
#
#
# Elastic Compliance Matrix: (Units=1/GPa)
#
#
# Indices 1 2 3 4 5 6 
#
# 1 0.016580 0.002254 -0.010777 0.000000 0.000000 0.000000
# 2 0.002254 0.022052 -0.005103 0.000000 0.000000 0.000000
# 3 -0.010777 -0.005103 0.018911 0.000000 0.000000 0.000000
# 4 0.000000 0.000000 0.000000 0.047932 0.000000 0.000000
# 5 0.000000 0.000000 0.000000 0.000000 0.082190 0.000000
# 6 0.000000 0.000000 0.000000 0.000000 0.000000 0.057187
#
#
# Mechanical properties :
#
#
# Convention : Reuss Voigt Hill
#
# Bulk Modulus (GPa) = 33.01296 42.18899 37.60098
# Shear Modulus (GPa) = 17.71792 20.74354 19.23073
#
# Velocity S-wave (km/s) = 3.36061 3.63625 3.50115
# Velocity P-wave (km/s) = 6.00844 6.67247 6.34914
#
# Compressibility (1/GPa) = 0.03029113
#
# Stress axis : x y z
#
# Youngs Moduli (GPa) = 60.31384 45.34814 52.87942
#
# Poissons Ratio (x) = -0.10221 0.56988
# Poissons Ratio (y) = -0.13594 0.26983
# Poissons Ratio (z) = 0.65000 0.23140
#
# Static dielectric constant tensor:
#      x y z
#    x 1.593870 0.000000 0.000000 
#    y 0.000000 1.550680 0.000000 
#    z 0.000000 0.000000 1.551410 
# 
# From -- ./inp_files/3834.got.cif
#   From: 2010.05.17/outbox.cif.g08.bks.cpg/sg23_2_cif.got.tgz:3834.got - 2010.06.04 12:02:01.
