data_PCOD9329967
_publ_section_title
;
Structure prediction by ZEFSAII (Michael W. Deem and Ramdas Pophale) SiO2 
 PCOD9329967
Probable space group: I 2 2 2
;
_chemical_formula_sum "Si O2"
_cell_formula_units_Z 64
_cell_length_a 12.577339
_cell_length_b 24.531689
_cell_length_c 10.260386
_cell_angle_alpha 90.000000
_cell_angle_beta 90.000000
_cell_angle_gamma 90.000000
_cell_volume 3165.774062
_symmetry_space_group_name_H-M "I 2 2 2"
_symmetry_group_IT_number 23
_symmetry_cell_setting 'orthorhombic'
loop_
_space_group_symop_operation_xyz
x,y,z
-x,-y,z
x,-y,-z
-x,y,-z
1/2+x,1/2+y,1/2+z
1/2-x,1/2-y,1/2+z
1/2+x,1/2-y,1/2-z
1/2-x,1/2+y,1/2-z
loop_
_atom_site_type_symbol
_atom_site_label
_atom_site_fract_x
_atom_site_fract_y
_atom_site_fract_z
Si Si1 0.614503 0.647457 0.544477
Si Si2 0.695561 0.298196 0.094846
Si Si3 0.696717 0.760558 0.650122
Si Si4 0.904712 0.370817 0.843791
Si Si5 0.187161 0.091438 0.782789
Si Si6 0.863341 0.392522 0.137549
Si Si7 0.310129 0.521312 0.144576
Si Si8 0.963536 0.114051 0.684314
O O1 0.500000 0.669404 0.500000
O O2 0.676104 0.700564 0.592817
O O3 0.664964 0.612019 0.429234
O O4 0.585350 0.611757 0.669812
O O5 0.707874 0.247957 0.194932
O O6 0.790978 0.338521 0.138615
O O7 0.588744 0.332581 0.120280
O O8 0.711289 0.283386 0.944062
O O9 0.603936 0.805577 0.634134
O O10 0.803213 0.387905 0.759110
O O11 0.022256 0.385838 0.795918
O O12 0.886330 0.399341 0.983379
O O13 0.089863 0.116000 0.696781
O O14 0.177667 0.027563 0.747241
O O15 0.788700 0.440729 0.186292
O O16 0.413737 0.559517 0.124568
O O17 0.284945 0.500000 0.000000
#
# Coordination Sequence:
#
# PCOD9329967 Si02
#       8
#     8   8   8   8   8   8   8   8
#     4   9  20  36  58  84 115 156 201 247 291 365
#     4   9  19  36  59  85 117 156 199 246 298 366
#     4  10  19  35  59  84 115 159 200 238 307 350
#     4  10  20  35  58  86 119 153 204 254 285 366
#     4  11  21  36  59  89 118 151 206 249 299 371
#     4   9  20  38  55  83 121 154 200 247 299 358
#     4  11  21  38  58  84 115 159 189 247 323 354
#     4   9  21  39  56  84 123 152 189 256 310 363
#
# _framework density 20.216225000000001
#
# number of rings (size 3 to 8) (size 9 to 14) (size 15 to 20)
#    0.000    2.250    1.250    1.125    3.500    2.000 
#    2.250    1.875    2.750    6.000    0.000    5.250 
#    0.000    0.000    0.000    0.000    0.000    0.000 
#
# Total GULP energy -178401.267430 kJ/mol
# GULP energy per Si atom -5575.039607 kJ/mol
# Density = 2.017021 g / cm^3
# Si number density = 20.216225 Si / 1000 Ang^3
#
#
#
# Elastic Constant Matrix: (Units=GPa)
#
#
# Indices 1 2 3 4 5 6 
#
# 1 108.2183 14.9130 15.9265 0.0002 -0.0001 0.0000
# 2 14.9130 65.8779 20.6293 0.0000 0.0000 0.0000
# 3 15.9265 20.6293 45.9313 -0.0006 0.0003 -0.0001
# 4 0.0002 0.0000 -0.0006 24.6023 0.0001 0.0000
# 5 -0.0001 0.0000 0.0003 0.0001 24.4735 0.0000
# 6 0.0000 0.0000 -0.0001 0.0000 0.0000 9.1225
#
#
#
# Elastic Compliance Matrix: (Units=1/GPa)
#
#
# Indices 1 2 3 4 5 6 
#
# 1 0.009839 -0.001349 -0.002806 0.000000 0.000000 0.000000
# 2 -0.001349 0.017849 -0.007549 0.000000 0.000000 0.000000
# 3 -0.002806 -0.007549 0.026135 0.000001 0.000000 0.000000
# 4 0.000000 0.000000 0.000001 0.040647 0.000000 0.000000
# 5 0.000000 0.000000 0.000000 0.000000 0.040861 0.000000
# 6 0.000000 0.000000 0.000000 0.000000 0.000000 0.109619
#
#
# Mechanical properties :
#
#
# Convention : Reuss Voigt Hill
#
# Bulk Modulus (GPa) = 32.87729 35.88501 34.38115
# Shear Modulus (GPa) = 17.95360 22.87689 20.41524
#
# Velocity S-wave (km/s) = 2.98330 3.36759 3.18125
# Velocity P-wave (km/s) = 5.30706 5.73673 5.52607
#
# Compressibility (1/GPa) = 0.03041613
#
# Stress axis : x y z
#
# Youngs Moduli (GPa) = 101.63223 56.02620 38.26275
#
# Poissons Ratio (x) = 0.07556 0.10737
# Poissons Ratio (y) = 0.13707 0.28884
# Poissons Ratio (z) = 0.28518 0.42293
#
# Static dielectric constant tensor:
#      x y z
#    x 1.741900 0.000000 0.000000 
#    y 0.000000 1.743210 0.000000 
#    z 0.000000 0.000000 1.776590 
# 
# From -- ./inp_files/16143.got.cif
#   From: 2010.05.17/outbox.cif.g08.bks.cpg/sg23_9_cif.got.tgz:16143.got - 2010.06.04 12:02:01.
