data_PCOD9329697
_publ_section_title
;
Structure prediction by ZEFSAII (Michael W. Deem and Ramdas Pophale) SiO2 
 PCOD9329697
Probable space group: I 2 2 2
;
_chemical_formula_sum "Si O2"
_cell_formula_units_Z 56
_cell_length_a 14.246835
_cell_length_b 18.008041
_cell_length_c 11.659271
_cell_angle_alpha 90.000000
_cell_angle_beta 90.000000
_cell_angle_gamma 90.000000
_cell_volume 2991.274455
_symmetry_space_group_name_H-M "I 2 2 2"
_symmetry_group_IT_number 23
_symmetry_cell_setting 'orthorhombic'
loop_
_space_group_symop_operation_xyz
x,y,z
-x,-y,z
x,-y,-z
-x,y,-z
1/2+x,1/2+y,1/2+z
1/2-x,1/2-y,1/2+z
1/2+x,1/2-y,1/2-z
1/2-x,1/2+y,1/2-z
loop_
_atom_site_type_symbol
_atom_site_label
_atom_site_fract_x
_atom_site_fract_y
_atom_site_fract_z
Si Si1 0.693331 0.141332 0.923983
Si Si2 0.287270 0.548170 0.240533
Si Si3 0.394314 0.421227 0.958381
Si Si4 0.742718 0.313622 0.908416
Si Si5 0.870320 0.582714 0.947388
Si Si6 0.986530 0.588734 0.728171
Si Si7 0.797621 0.388937 0.691009
O O1 0.769311 0.096226 0.851542
O O2 0.721165 0.227475 0.923139
O O3 0.592623 0.121389 0.860473
O O4 0.702864 0.116051 0.054650
O O5 0.384355 0.569152 0.178534
O O6 0.214363 0.575246 0.143596
O O7 0.253187 0.465116 0.268648
O O8 0.352745 0.500000 0.000000
O O9 0.500000 0.417067 0.000000
O O10 0.339352 0.356857 0.023780
O O11 0.747385 0.329093 0.772319
O O12 0.835203 0.354009 0.964345
O O13 0.954743 0.600717 0.860365
O O14 0.883433 0.500000 0.000000
O O15 0.000000 0.500000 0.708394
O O16 0.091299 0.617975 0.715114
#
# Coordination Sequence:
#
# PCOD9329697 Si02
#       7
#     8   8   8   8   8   8   8
#     4  11  26  37  61  90 137 171 204 269 329 405
#     4  10  19  39  61  93 117 163 214 258 323 386
#     4  10  20  39  67  92 114 155 223 278 303 370
#     4  11  23  40  60  92 127 171 212 265 331 386
#     4  10  18  37  61  92 125 166 218 268 318 384
#     4  11  22  38  63  97 127 167 217 270 315 393
#     4  12  22  39  63  90 126 173 210 263 327 398
#
# _framework density 18.721118000000001
#
# number of rings (size 3 to 8) (size 9 to 14) (size 15 to 20)
#    0.000    1.286    5.714    1.714    6.000    3.714 
#    0.000    0.000    0.000    0.857    0.000    0.000 
#    0.000    0.000    0.000    0.000    0.000    0.000 
#
# Total GULP energy -155936.962407 kJ/mol
# GULP energy per Si atom -5569.177229 kJ/mol
# Density = 1.867851 g / cm^3
# Si number density = 18.721118 Si / 1000 Ang^3
#
#
#
# Elastic Constant Matrix: (Units=GPa)
#
#
# Indices 1 2 3 4 5 6 
#
# 1 85.9474 26.7535 52.4648 0.0000 0.0000 0.0000
# 2 26.7535 45.9101 15.4567 0.0000 0.0000 0.0000
# 3 52.4648 15.4567 143.3431 0.0000 0.0000 0.0000
# 4 0.0000 0.0000 0.0000 32.3701 0.0000 0.0000
# 5 0.0000 0.0000 0.0000 0.0000 21.0720 0.0000
# 6 0.0000 0.0000 0.0000 0.0000 0.0000 4.4114
#
#
#
# Elastic Compliance Matrix: (Units=1/GPa)
#
#
# Indices 1 2 3 4 5 6 
#
# 1 0.017641 -0.008412 -0.005550 0.000000 0.000000 0.000000
# 2 -0.008412 0.026613 0.000209 0.000000 0.000000 0.000000
# 3 -0.005550 0.000209 0.008985 0.000000 0.000000 0.000000
# 4 0.000000 0.000000 0.000000 0.030893 0.000000 0.000000
# 5 0.000000 0.000000 0.000000 0.000000 0.047456 0.000000
# 6 0.000000 0.000000 0.000000 0.000000 0.000000 0.226685
#
#
# Mechanical properties :
#
#
# Convention : Reuss Voigt Hill
#
# Bulk Modulus (GPa) = 38.85843 51.61673 45.23758
# Shear Modulus (GPa) = 12.67889 23.60574 18.14232
#
# Velocity S-wave (km/s) = 2.60523 3.55479 3.11639
# Velocity P-wave (km/s) = 5.46362 6.66933 6.09636
#
# Compressibility (1/GPa) = 0.02573444
#
# Stress axis : x y z
#
# Youngs Moduli (GPa) = 56.68567 37.57549 111.29666
#
# Poissons Ratio (x) = 0.31607 0.61767
# Poissons Ratio (y) = 0.47682 -0.02327
# Poissons Ratio (z) = 0.31459 -0.00786
#
# Static dielectric constant tensor:
#      x y z
#    x 1.796620 0.000000 0.000000 
#    y 0.000000 1.698970 0.000000 
#    z 0.000000 0.000000 1.878170 
# 
# From -- ./inp_files/16775.got.cif
#   From: 2010.05.17/outbox.cif.g08.bks.cpg/sg23_9_cif.got.tgz:16775.got - 2010.06.04 12:02:01.
