data_PCOD9329589
_publ_section_title
;
Structure prediction by ZEFSAII (Michael W. Deem and Ramdas Pophale) SiO2 
 PCOD9329589
Probable space group: I 2 2 2
;
_chemical_formula_sum "Si O2"
_cell_formula_units_Z 52
_cell_length_a 8.601687
_cell_length_b 11.046347
_cell_length_c 27.429793
_cell_angle_alpha 90.000000
_cell_angle_beta 90.000000
_cell_angle_gamma 90.000000
_cell_volume 2606.302659
_symmetry_space_group_name_H-M "I 2 2 2"
_symmetry_group_IT_number 23
_symmetry_cell_setting 'orthorhombic'
loop_
_space_group_symop_operation_xyz
x,y,z
-x,-y,z
x,-y,-z
-x,y,-z
1/2+x,1/2+y,1/2+z
1/2-x,1/2-y,1/2+z
1/2+x,1/2-y,1/2-z
1/2-x,1/2+y,1/2-z
loop_
_atom_site_type_symbol
_atom_site_label
_atom_site_fract_x
_atom_site_fract_y
_atom_site_fract_z
Si Si1 0.500000 0.290521 0.000000
Si Si2 0.118621 0.715768 0.808413
Si Si3 0.291800 0.092777 0.456699
Si Si4 0.000000 0.500000 0.125950
Si Si5 0.120662 0.892754 0.239226
Si Si6 0.000000 0.203788 0.000000
Si Si7 0.179270 0.968733 0.856935
Si Si8 0.707069 0.912050 0.044126
O O1 0.615101 0.368088 0.033818
O O2 0.398308 0.205946 0.035969
O O3 0.252542 0.649397 0.777783
O O4 0.184466 0.829334 0.839280
O O5 0.038705 0.616676 0.842300
O O6 0.987732 0.779284 0.774939
O O7 0.395082 0.211896 0.465606
O O8 0.327549 0.000000 0.500000
O O9 0.351260 0.030524 0.407863
O O10 0.204138 0.945667 0.190219
O O11 0.000000 0.000000 0.254503
O O12 0.116517 0.128626 0.033159
O O13 0.290062 0.977309 0.903740
O O14 0.000000 0.000000 0.870432
O O15 0.665993 0.000000 0.000000
#
# Coordination Sequence:
#
# PCOD9329589 Si02
#       8
#     4   8   8   4   8   4   8   8
#     4  10  26  38  60  84 148 172 206 264 330 368
#     4  10  23  41  69  95 129 166 223 280 335 404
#     4  11  21  42  60  90 131 175 212 260 318 389
#     4  12  23  36  74 100 126 170 239 262 328 402
#     4   9  22  45  67  93 132 168 215 277 343 400
#     4  10  18  32  66  86 122 168 212 262 310 366
#     4   9  20  40  66  90 122 168 216 265 321 387
#     4  11  21  38  61  94 127 168 217 263 315 391
#
# _framework density 19.951636000000001
#
# number of rings (size 3 to 8) (size 9 to 14) (size 15 to 20)
#    0.000    2.154    1.538    2.538    6.462    3.692 
#    2.769    3.077    0.000    0.000    0.000    0.000 
#    0.000    0.000    0.000    0.000    0.000    0.000 
#
# Total GULP energy -145137.317991 kJ/mol
# GULP energy per Si atom -5582.204538 kJ/mol
# Density = 1.990623 g / cm^3
# Si number density = 19.951636 Si / 1000 Ang^3
#
#
#
# Elastic Constant Matrix: (Units=GPa)
#
#
# Indices 1 2 3 4 5 6 
#
# 1 108.5015 56.8254 57.1777 0.0000 0.0000 0.0000
# 2 56.8254 108.3056 59.7314 0.0000 0.0000 0.0000
# 3 57.1777 59.7314 105.9935 0.0000 0.0000 0.0000
# 4 0.0000 0.0000 0.0000 -32.8569 0.0000 0.0000
# 5 0.0000 0.0000 0.0000 0.0000 -39.5294 0.0000
# 6 0.0000 0.0000 0.0000 0.0000 0.0000 29.2493
#
#
#
# Elastic Compliance Matrix: (Units=1/GPa)
#
#
# Indices 1 2 3 4 5 6 
#
# 1 0.014379 -0.004739 -0.005086 0.000000 0.000000 0.000000
# 2 -0.004739 0.014959 -0.005873 0.000000 0.000000 0.000000
# 3 -0.005086 -0.005873 0.015488 0.000000 0.000000 0.000000
# 4 0.000000 0.000000 0.000000 -0.030435 0.000000 0.000000
# 5 0.000000 0.000000 0.000000 0.000000 -0.025298 0.000000
# 6 0.000000 0.000000 0.000000 0.000000 0.000000 0.034189
#
#
# Mechanical properties :
#
#
# Convention : Reuss Voigt Hill
#
# Bulk Modulus (GPa) = 74.46731 74.47439 74.47085
# Shear Modulus (GPa) = 84.52437 1.31033 42.91735
#
# Velocity S-wave (km/s) = 6.51587 0.81128 4.64299
# Velocity P-wave (km/s) = 9.69607 6.18757 8.13326
#
# Compressibility (1/GPa) = 0.01342871
#
# Stress axis : x y z
#
# Youngs Moduli (GPa) = 69.54773 66.84973 64.56685
#
# Poissons Ratio (x) = 0.31682 0.32837
# Poissons Ratio (y) = 0.32961 0.37922
# Poissons Ratio (z) = 0.35370 0.39263
#
# Static dielectric constant tensor:
#      x y z
#    x 1.772030 0.000000 0.000000 
#    y 0.000000 1.793680 0.000000 
#    z 0.000000 0.000000 1.713810 
# 
# From -- ./inp_files/29259.got.cif
#   From: 2010.05.17/outbox.cif.g08.bks.cpg/sg23_15_cif.got.tgz:29259.got - 2010.06.04 12:02:01.
