data_PCOD9329644
_publ_section_title
;
Structure prediction by ZEFSAII (Michael W. Deem and Ramdas Pophale) SiO2 
 PCOD9329644
Probable space group: I 2 2 2
;
_chemical_formula_sum "Si O2"
_cell_formula_units_Z 44
_cell_length_a 8.211227
_cell_length_b 8.091591
_cell_length_c 29.045206
_cell_angle_alpha 90.000000
_cell_angle_beta 90.000000
_cell_angle_gamma 90.000000
_cell_volume 1929.818396
_symmetry_space_group_name_H-M "I 2 2 2"
_symmetry_group_IT_number 23
_symmetry_cell_setting 'orthorhombic'
loop_
_space_group_symop_operation_xyz
x,y,z
-x,-y,z
x,-y,-z
-x,y,-z
1/2+x,1/2+y,1/2+z
1/2-x,1/2-y,1/2+z
1/2+x,1/2-y,1/2-z
1/2-x,1/2+y,1/2-z
loop_
_atom_site_type_symbol
_atom_site_label
_atom_site_fract_x
_atom_site_fract_y
_atom_site_fract_z
Si Si1 0.757563 0.098118 0.573000
Si Si2 0.822187 0.228333 0.822840
Si Si3 0.401856 0.261673 0.575963
Si Si4 0.170539 0.926043 0.672583
Si Si5 0.500000 0.500000 0.000000
Si Si6 0.500000 0.500000 0.500000
Si Si7 0.588150 0.822975 0.257053
O O1 0.590003 0.199844 0.573572
O O2 0.845341 0.140236 0.621227
O O3 0.704997 0.904077 0.570021
O O4 0.884851 0.113012 0.531971
O O5 0.859137 0.161585 0.873780
O O6 0.800462 0.424819 0.832110
O O7 0.657804 0.190031 0.794654
O O8 0.968004 0.205615 0.786450
O O9 0.390751 0.388192 0.533961
O O10 0.250739 0.812254 0.710658
O O11 0.000000 0.000000 0.688157
O O12 0.500000 0.000000 0.257173
#
# Coordination Sequence:
#
# PCOD9329644 Si02
#       7
#     8   8   8   8   2   2   8
#     4  10  20  38  66  93 115 152 211 267 313 371
#     4  10  20  37  60  89 125 164 207 258 317 378
#     4  10  22  43  65  85 125 170 213 258 316 386
#     4  10  18  34  58  91 122 153 199 262 312 374
#     4  12  20  30  64 104 108 130 208 278 324 344
#     4  12  24  42  60  84 120 166 216 254 304 376
#     4  10  20  36  58  90 127 161 206 257 313 385
#
# _framework density 22.800073000000001
#
# number of rings (size 3 to 8) (size 9 to 14) (size 15 to 20)
#    0.000    1.818    2.727    2.182    0.000    1.455 
#    8.182    0.000    4.000    4.909    0.000    0.000 
#    0.000    0.000    0.000    0.000    0.000    0.000 
#
# Total GULP energy -122656.285825 kJ/mol
# GULP energy per Si atom -5575.285719 kJ/mol
# Density = 2.274818 g / cm^3
# Si number density = 22.800073 Si / 1000 Ang^3
#
#
#
# Elastic Constant Matrix: (Units=GPa)
#
#
# Indices 1 2 3 4 5 6 
#
# 1 91.0638 2.0725 48.6887 0.0000 0.0000 0.0000
# 2 2.0725 35.7234 34.0296 0.0000 0.0000 0.0000
# 3 48.6887 34.0296 203.5670 0.0000 0.0000 0.0000
# 4 0.0000 0.0000 0.0000 23.3951 0.0000 0.0000
# 5 0.0000 0.0000 0.0000 0.0000 45.0203 0.0000
# 6 0.0000 0.0000 0.0000 0.0000 0.0000 14.3159
#
#
#
# Elastic Compliance Matrix: (Units=1/GPa)
#
#
# Indices 1 2 3 4 5 6 
#
# 1 0.012789 0.002583 -0.003491 0.000000 0.000000 0.000000
# 2 0.002583 0.033817 -0.006271 0.000000 0.000000 0.000000
# 3 -0.003491 -0.006271 0.006796 0.000000 0.000000 0.000000
# 4 0.000000 0.000000 0.000000 0.042744 0.000000 0.000000
# 5 0.000000 0.000000 0.000000 0.000000 0.022212 0.000000
# 6 0.000000 0.000000 0.000000 0.000000 0.000000 0.069853
#
#
# Mechanical properties :
#
#
# Convention : Reuss Voigt Hill
#
# Bulk Modulus (GPa) = 25.61189 55.54844 40.58016
# Shear Modulus (GPa) = 23.19313 32.91714 28.05514
#
# Velocity S-wave (km/s) = 3.19288 3.80377 3.51163
# Velocity P-wave (km/s) = 4.98500 6.61118 5.85482
#
# Compressibility (1/GPa) = 0.03904436
#
# Stress axis : x y z
#
# Youngs Moduli (GPa) = 78.19314 29.57131 147.15525
#
# Poissons Ratio (x) = -0.07639 0.51366
# Poissons Ratio (y) = -0.20199 0.92279
# Poissons Ratio (z) = 0.27294 0.18544
#
# Static dielectric constant tensor:
#      x y z
#    x 1.871120 0.000000 0.000000 
#    y 0.000000 1.923440 0.000000 
#    z 0.000000 0.000000 1.917350 
# 
# From -- ./inp_files/30187.got.cif
#   From: 2010.05.17/outbox.cif.g08.bks.cpg/sg23_16_cif.got.tgz:30187.got - 2010.06.04 12:02:01.
