data_PCOD9329744
_publ_section_title
;
Structure prediction by ZEFSAII (Michael W. Deem and Ramdas Pophale) SiO2 
 PCOD9329744
Probable space group: I 2 2 2
;
_chemical_formula_sum "Si O2"
_cell_formula_units_Z 64
_cell_length_a 23.793377
_cell_length_b 7.568801
_cell_length_c 20.015252
_cell_angle_alpha 90.000000
_cell_angle_beta 90.000000
_cell_angle_gamma 90.000000
_cell_volume 3604.493405
_symmetry_space_group_name_H-M "I 2 2 2"
_symmetry_group_IT_number 23
_symmetry_cell_setting 'orthorhombic'
loop_
_space_group_symop_operation_xyz
x,y,z
-x,-y,z
x,-y,-z
-x,y,-z
1/2+x,1/2+y,1/2+z
1/2-x,1/2-y,1/2+z
1/2+x,1/2-y,1/2-z
1/2-x,1/2+y,1/2-z
loop_
_atom_site_type_symbol
_atom_site_label
_atom_site_fract_x
_atom_site_fract_y
_atom_site_fract_z
Si Si1 0.830003 0.288847 0.222014
Si Si2 0.750651 0.282394 0.500373
Si Si3 0.329562 0.207124 0.721063
Si Si4 0.063613 0.786281 0.861953
Si Si5 0.436482 0.712586 0.638434
Si Si6 0.279759 0.794485 0.857395
Si Si7 0.879941 0.215561 0.000192
Si Si8 0.720832 0.797836 0.856372
O O1 0.817664 0.497880 0.221913
O O2 0.892478 0.261318 0.195865
O O3 0.816245 0.218582 0.296279
O O4 0.785037 0.206346 0.170778
O O5 0.750855 0.500000 0.500000
O O6 0.779341 0.219593 0.431923
O O7 0.685096 0.229797 0.500045
O O8 0.778547 0.220711 0.569432
O O9 0.391995 0.236207 0.694927
O O10 0.284453 0.287705 0.669607
O O11 0.315490 0.278290 0.795155
O O12 0.088461 0.725444 0.933200
O O13 0.000010 0.723628 0.851657
O O14 0.062085 0.999454 0.864380
O O15 0.411188 0.774052 0.567484
O O16 0.296887 0.998732 0.863817
O O17 0.880536 0.000000 0.000000
#
# Coordination Sequence:
#
# PCOD9329744 Si02
#       8
#     8   8   8   8   8   8   8   8
#     4  10  19  29  43  65  92 117 142 180 224 262
#     4   9  14  25  48  68  84 112 149 184 211 249
#     4  10  19  29  43  65  92 117 142 180 224 262
#     4  10  19  31  47  64  85 118 157 187 211 249
#     4  10  19  31  47  64  85 118 157 187 211 249
#     4   9  17  30  47  65  86 115 149 181 216 259
#     4   9  15  26  45  66  86 113 153 189 207 237
#     4   9  17  30  47  65  86 115 149 181 216 259
#
# _framework density 17.755616
#
# number of rings (size 3 to 8) (size 9 to 14) (size 15 to 20)
#    0.000    2.500    2.500    1.125    0.000    3.000 
#    0.000    2.500    0.000    1.500    0.000    0.875 
#    0.000    7.000    0.000    0.000    0.000    0.000 
#
# Total GULP energy -178467.163945 kJ/mol
# GULP energy per Si atom -5577.098873 kJ/mol
# Density = 1.771520 g / cm^3
# Si number density = 17.755616 Si / 1000 Ang^3
#
#
#
# Elastic Constant Matrix: (Units=GPa)
#
#
# Indices 1 2 3 4 5 6 
#
# 1 89.6823 -3.9930 64.4243 0.0000 0.0000 0.0000
# 2 -3.9930 41.8233 -1.6648 0.0000 0.0000 0.0000
# 3 64.4243 -1.6648 171.0177 0.0000 0.0000 0.0000
# 4 0.0000 0.0000 0.0000 7.4192 0.0000 0.0000
# 5 0.0000 0.0000 0.0000 0.0000 21.7010 0.0000
# 6 0.0000 0.0000 0.0000 0.0000 0.0000 13.7685
#
#
#
# Elastic Compliance Matrix: (Units=1/GPa)
#
#
# Indices 1 2 3 4 5 6 
#
# 1 0.015351 0.001236 -0.005771 0.000000 0.000000 0.000000
# 2 0.001236 0.024019 -0.000232 0.000000 0.000000 0.000000
# 3 -0.005771 -0.000232 0.008019 0.000000 0.000000 0.000000
# 4 0.000000 0.000000 0.000000 0.134786 0.000000 0.000000
# 5 0.000000 0.000000 0.000000 0.000000 0.046081 0.000000
# 6 0.000000 0.000000 0.000000 0.000000 0.000000 0.072630
#
#
# Mechanical properties :
#
#
# Convention : Reuss Voigt Hill
#
# Bulk Modulus (GPa) = 26.41621 46.67290 36.54455
# Shear Modulus (GPa) = 15.47807 24.82819 20.15313
#
# Velocity S-wave (km/s) = 2.95571 3.74348 3.37267
# Velocity P-wave (km/s) = 5.15347 6.71031 5.98274
#
# Compressibility (1/GPa) = 0.03785555
#
# Stress axis : x y z
#
# Youngs Moduli (GPa) = 65.14193 41.63390 124.70299
#
# Poissons Ratio (x) = -0.05146 0.71965
# Poissons Ratio (y) = -0.08051 0.02890
# Poissons Ratio (z) = 0.37593 0.00965
#
# Static dielectric constant tensor:
#      x y z
#    x 1.571420 0.000000 0.000000 
#    y 0.000000 1.690730 0.000000 
#    z 0.000000 0.000000 1.636910 
# 
# From -- ./inp_files/25384.got.cif
#   From: 2010.05.17/outbox.cif.g08.bks.cpg/sg23_13_cif.got.tgz:25384.got - 2010.06.04 12:02:01.
