data_PCOD9329365
_publ_section_title
;
Structure prediction by ZEFSAII (Michael W. Deem and Ramdas Pophale) SiO2 
 PCOD9329365
Probable space group: I 2 2 2
;
_chemical_formula_sum "Si O2"
_cell_formula_units_Z 28
_cell_length_a 5.572149
_cell_length_b 7.350166
_cell_length_c 31.914410
_cell_angle_alpha 90.000000
_cell_angle_beta 90.000000
_cell_angle_gamma 90.000000
_cell_volume 1307.093601
_symmetry_space_group_name_H-M "I 2 2 2"
_symmetry_group_IT_number 23
_symmetry_cell_setting 'orthorhombic'
loop_
_space_group_symop_operation_xyz
x,y,z
-x,-y,z
x,-y,-z
-x,y,-z
1/2+x,1/2+y,1/2+z
1/2-x,1/2-y,1/2+z
1/2+x,1/2-y,1/2-z
1/2-x,1/2+y,1/2-z
loop_
_atom_site_type_symbol
_atom_site_label
_atom_site_fract_x
_atom_site_fract_y
_atom_site_fract_z
Si Si1 0.251696 0.789133 0.516815
Si Si2 0.500000 0.000000 0.257772
Si Si3 0.344967 0.342442 0.311048
Si Si4 0.753697 0.113034 0.611806
O O1 0.500000 0.708713 0.500000
O O2 0.264112 0.790786 0.566908
O O3 0.000000 0.712260 0.500000
O O4 0.251328 0.000000 0.500000
O O5 0.531598 0.824821 0.286863
O O6 0.288380 0.951293 0.225847
O O7 0.500000 0.500000 0.332035
O O8 0.207299 0.245182 0.348623
O O9 0.500000 0.000000 0.617360
O O10 0.000000 0.000000 0.609406
#
# Coordination Sequence:
#
# PCOD9329365 Si02
#       4
#     8   4   8   8
#     4  10  16  33  59  98 134 175 230 272 331 417
#     4  12  26  48  70  94 138 184 232 286 358 420
#     4  12  28  45  69 101 137 184 234 292 353 419
#     4  12  24  39  67 106 140 177 233 291 341 406
#
# _framework density 21.421571
#
# number of rings (size 3 to 8) (size 9 to 14) (size 15 to 20)
#    0.000    0.571   10.000    0.000    8.000    0.000 
#    0.000    0.000    0.000    0.857    0.000    0.000 
#    0.000    0.000    0.000    0.000    0.000    0.000 
#
# Total GULP energy -78084.852974 kJ/mol
# GULP energy per Si atom -5577.489498 kJ/mol
# Density = 2.137281 g / cm^3
# Si number density = 21.421571 Si / 1000 Ang^3
#
#
#
# Elastic Constant Matrix: (Units=GPa)
#
#
# Indices 1 2 3 4 5 6 
#
# 1 150.4393 30.7321 23.0380 0.0000 0.0000 0.0000
# 2 30.7321 81.0845 14.4368 0.0000 0.0000 0.0000
# 3 23.0380 14.4368 136.3523 0.0000 0.0000 0.0000
# 4 0.0000 0.0000 0.0000 62.4699 0.0000 0.0000
# 5 0.0000 0.0000 0.0000 0.0000 171.9096 0.0000
# 6 0.0000 0.0000 0.0000 0.0000 0.0000 -7.9991
#
#
#
# Elastic Compliance Matrix: (Units=1/GPa)
#
#
# Indices 1 2 3 4 5 6 
#
# 1 0.007327 -0.002606 -0.000962 0.000000 0.000000 0.000000
# 2 -0.002606 0.013496 -0.000989 0.000000 0.000000 0.000000
# 3 -0.000962 -0.000989 0.007601 0.000000 0.000000 0.000000
# 4 0.000000 0.000000 0.000000 0.016008 0.000000 0.000000
# 5 0.000000 0.000000 0.000000 0.000000 0.005817 0.000000
# 6 0.000000 0.000000 0.000000 0.000000 0.000000 -0.125014
#
#
# Mechanical properties :
#
#
# Convention : Reuss Voigt Hill
#
# Bulk Modulus (GPa) = 51.78256 56.03222 53.90739
# Shear Modulus (GPa) = -84.43784 65.25403 -9.59190
#
# Velocity S-wave (km/s) = -6.28512 5.52521 -2.11835
# Velocity P-wave (km/s) = 5.33337 8.18032 4.38594
#
# Compressibility (1/GPa) = 0.01931152
#
# Stress axis : x y z
#
# Youngs Moduli (GPa) = 136.48487 74.09357 131.55862
#
# Poissons Ratio (x) = 0.19306 0.12657
# Poissons Ratio (y) = 0.35564 0.13008
# Poissons Ratio (z) = 0.13131 0.07326
#
# Static dielectric constant tensor:
#      x y z
#    x 1.462640 0.000000 0.000000 
#    y 0.000000 1.673290 0.000000 
#    z 0.000000 0.000000 1.758330 
# 
# From -- ./inp_files/5125.got.cif
#   From: 2010.05.17/outbox.cif.g08.bks.cpg/sg23_3_cif.got.tgz:5125.got - 2010.06.04 12:02:01.
