data_PCOD9329874
_publ_section_title
;
Structure prediction by ZEFSAII (Michael W. Deem and Ramdas Pophale) SiO2 
 PCOD9329874
Probable space group: I 2 2 2
;
_chemical_formula_sum "Si O2"
_cell_formula_units_Z 40
_cell_length_a 10.845541
_cell_length_b 19.363932
_cell_length_c 7.091699
_cell_angle_alpha 90.000000
_cell_angle_beta 90.000000
_cell_angle_gamma 90.000000
_cell_volume 1489.344149
_symmetry_space_group_name_H-M "I 2 2 2"
_symmetry_group_IT_number 23
_symmetry_cell_setting 'orthorhombic'
loop_
_space_group_symop_operation_xyz
x,y,z
-x,-y,z
x,-y,-z
-x,y,-z
1/2+x,1/2+y,1/2+z
1/2-x,1/2-y,1/2+z
1/2+x,1/2-y,1/2-z
1/2-x,1/2+y,1/2-z
loop_
_atom_site_type_symbol
_atom_site_label
_atom_site_fract_x
_atom_site_fract_y
_atom_site_fract_z
Si Si1 0.748698 0.866839 0.767479
Si Si2 0.889924 0.862945 0.387555
Si Si3 0.751887 0.983757 0.272456
Si Si4 0.030806 0.392440 0.777638
Si Si5 0.066006 0.246339 0.809000
O O1 0.784472 0.850526 0.545737
O O2 0.604265 0.875092 0.801249
O O3 0.821776 0.804218 0.858013
O O4 0.794447 0.944086 0.812447
O O5 0.838551 0.918126 0.243174
O O6 0.000000 0.900516 0.500000
O O7 0.961842 0.796798 0.305770
O O8 0.616312 0.956107 0.217572
O O9 0.747643 0.000000 0.500000
O O10 0.103149 0.320817 0.730526
O O11 0.000000 0.405609 0.000000
O O12 0.000000 0.265676 0.000000
#
# Coordination Sequence:
#
# PCOD9329874 Si02
#       5
#     8   8   8   8   8
#     4  10  21  36  62  92 115 156 208 253 303 350
#     4   9  19  36  58  89 118 156 207 249 296 350
#     4  10  19  33  62  93 118 147 199 267 303 336
#     4  11  20  34  61  92 127 146 200 258 313 347
#     4  10  24  38  55  88 127 169 192 239 306 376
#
# _framework density 26.857458999999999
#
# number of rings (size 3 to 8) (size 9 to 14) (size 15 to 20)
#    0.000    2.000    4.000    0.600    2.800    9.200 
#    0.000    2.000    0.000    0.000    0.000    8.400 
#    0.000    0.000    0.000    0.000    0.000    0.000 
#
# Total GULP energy -111763.357977 kJ/mol
# GULP energy per Si atom -5588.167899 kJ/mol
# Density = 2.679633 g / cm^3
# Si number density = 26.857459 Si / 1000 Ang^3
#
#
#
# Elastic Constant Matrix: (Units=GPa)
#
#
# Indices 1 2 3 4 5 6 
#
# 1 94.7015 20.9054 9.1399 -0.0001 0.0002 0.0001
# 2 20.9054 125.8548 9.7375 0.0004 0.0002 -0.0001
# 3 9.1399 9.7375 69.3209 0.0035 -0.0003 -0.0016
# 4 -0.0001 0.0004 0.0035 25.4402 -0.0001 -0.0003
# 5 0.0002 0.0002 -0.0003 -0.0001 21.4816 0.0001
# 6 0.0001 -0.0001 -0.0016 -0.0003 0.0001 55.0615
#
#
#
# Elastic Compliance Matrix: (Units=1/GPa)
#
#
# Indices 1 2 3 4 5 6 
#
# 1 0.011061 -0.001744 -0.001214 0.000000 0.000000 0.000000
# 2 -0.001744 0.008308 -0.000937 0.000000 0.000000 0.000000
# 3 -0.001214 -0.000937 0.014717 -0.000002 0.000000 0.000000
# 4 0.000000 0.000000 -0.000002 0.039308 0.000000 0.000000
# 5 0.000000 0.000000 0.000000 0.000000 0.046551 0.000000
# 6 0.000000 0.000000 0.000000 0.000000 0.000000 0.018162
#
#
# Mechanical properties :
#
#
# Convention : Reuss Voigt Hill
#
# Bulk Modulus (GPa) = 38.02533 41.04921 39.53727
# Shear Modulus (GPa) = 32.32862 37.06963 34.69912
#
# Velocity S-wave (km/s) = 3.47322 3.71918 3.59830
# Velocity P-wave (km/s) = 5.50211 5.81037 5.65834
#
# Compressibility (1/GPa) = 0.02629826
#
# Stress axis : x y z
#
# Youngs Moduli (GPa) = 90.40368 120.36910 67.94721
#
# Poissons Ratio (x) = 0.20986 0.08246
# Poissons Ratio (y) = 0.15762 0.06367
# Poissons Ratio (z) = 0.10971 0.11280
#
# Static dielectric constant tensor:
#      x y z
#    x 2.128300 0.000000 0.000000 
#    y 0.000000 2.108590 0.000000 
#    z 0.000000 0.000000 2.252710 
# 
# From -- ./inp_files/8180.got.cif
#   From: 2010.05.17/outbox.cif.g08.bks.cpg/sg23_5_cif.got.tgz:8180.got - 2010.06.04 12:02:01.
