data_PCOD9329710
_publ_section_title
;
Structure prediction by ZEFSAII (Michael W. Deem and Ramdas Pophale) SiO2 
 PCOD9329710
Probable space group: I 2 2 2
;
_chemical_formula_sum "Si O2"
_cell_formula_units_Z 44
_cell_length_a 8.412856
_cell_length_b 27.610723
_cell_length_c 8.896143
_cell_angle_alpha 90.000000
_cell_angle_beta 90.000000
_cell_angle_gamma 90.000000
_cell_volume 2066.440903
_symmetry_space_group_name_H-M "I 2 2 2"
_symmetry_group_IT_number 23
_symmetry_cell_setting 'orthorhombic'
loop_
_space_group_symop_operation_xyz
x,y,z
-x,-y,z
x,-y,-z
-x,y,-z
1/2+x,1/2+y,1/2+z
1/2-x,1/2-y,1/2+z
1/2+x,1/2-y,1/2-z
1/2-x,1/2+y,1/2-z
loop_
_atom_site_type_symbol
_atom_site_label
_atom_site_fract_x
_atom_site_fract_y
_atom_site_fract_z
Si Si1 0.746471 0.192101 0.512174
Si Si2 0.000000 0.738684 0.500000
Si Si3 0.305463 0.345872 0.295402
Si Si4 0.755272 0.073112 0.996829
Si Si5 0.000000 0.230025 0.000000
Si Si6 0.500000 0.000000 0.000000
Si Si7 0.580015 0.845493 0.200471
Si Si8 0.000000 0.000000 0.000000
O O1 0.827979 0.161164 0.381385
O O2 0.626317 0.230890 0.435587
O O3 0.653139 0.161440 0.635390
O O4 0.879316 0.226322 0.586419
O O5 0.898186 0.704251 0.608005
O O6 0.347429 0.395461 0.379116
O O7 0.402126 0.303985 0.384419
O O8 0.111452 0.348503 0.305980
O O9 0.878023 0.036362 0.918020
O O10 0.621811 0.038414 0.073792
O O11 0.668878 0.110864 0.885095
#
# Coordination Sequence:
#
# PCOD9329710 Si02
#       8
#     8   4   8   8   4   2   8   2
#     4  12  27  40  63  98 144 192 233 278 330 392
#     4  12  25  38  62  99 138 197 240 266 317 388
#     4  12  23  40  65  98 134 179 228 284 330 394
#     4  11  22  41  68  95 121 160 213 284 345 410
#     4  12  23  38  64  95 144 191 240 274 317 384
#     4  10  18  38  68  88 112 150 212 272 338 422
#     4  12  22  42  65  94 137 181 228 278 335 396
#     4  10  26  42  72 104 116 150 224 284 354 422
#
# _framework density 21.292649000000001
#
# number of rings (size 3 to 8) (size 9 to 14) (size 15 to 20)
#    0.000    0.364    7.273    1.636    0.000    4.364 
#    0.000    0.000    0.000    6.545    0.000    0.000 
#    0.000    0.000    0.000    0.000    0.000    0.000 
#
# Total GULP energy -122545.457506 kJ/mol
# GULP energy per Si atom -5570.248068 kJ/mol
# Density = 2.124419 g / cm^3
# Si number density = 21.292649 Si / 1000 Ang^3
#
#
#
# Elastic Constant Matrix: (Units=GPa)
#
#
# Indices 1 2 3 4 5 6 
#
# 1 96.6214 54.8847 28.6887 -0.0001 0.0001 0.0000
# 2 54.8847 126.3664 50.9083 0.0000 0.0000 0.0000
# 3 28.6887 50.9083 117.4458 0.0011 0.0002 -0.0002
# 4 -0.0001 0.0000 0.0011 7.9430 -0.0001 0.0000
# 5 0.0001 0.0000 0.0002 -0.0001 32.2416 0.0000
# 6 0.0000 0.0000 -0.0002 0.0000 0.0000 66.4210
#
#
#
# Elastic Compliance Matrix: (Units=1/GPa)
#
#
# Indices 1 2 3 4 5 6 
#
# 1 0.013824 -0.005626 -0.000938 0.000000 0.000000 0.000000
# 2 -0.005626 0.011878 -0.003774 0.000001 0.000000 0.000000
# 3 -0.000938 -0.003774 0.010380 -0.000002 0.000000 0.000000
# 4 0.000000 0.000001 -0.000002 0.125897 0.000000 0.000000
# 5 0.000000 0.000000 0.000000 0.000000 0.031016 0.000000
# 6 0.000000 0.000000 0.000000 0.000000 0.000000 0.015055
#
#
# Mechanical properties :
#
#
# Convention : Reuss Voigt Hill
#
# Bulk Modulus (GPa) = 64.91656 67.71078 66.31367
# Shear Modulus (GPa) = 21.38013 35.05124 28.21568
#
# Velocity S-wave (km/s) = 3.17220 4.06170 3.64419
# Velocity P-wave (km/s) = 6.63107 7.33932 6.99417
#
# Compressibility (1/GPa) = 0.01540439
#
# Stress axis : x y z
#
# Youngs Moduli (GPa) = 72.33705 84.19178 96.34234
#
# Poissons Ratio (x) = 0.47369 0.09037
# Poissons Ratio (y) = 0.40699 0.36361
# Poissons Ratio (z) = 0.06786 0.31775
#
# Static dielectric constant tensor:
#      x y z
#    x 1.911410 0.000000 0.000000 
#    y 0.000000 1.802090 0.000000 
#    z 0.000000 0.000000 1.776770 
# 
# From -- ./inp_files/7310.got.cif
#   From: 2010.05.17/outbox.cif.g08.bks.cpg/sg23_4_cif.got.tgz:7310.got - 2010.06.04 12:02:01.
