data_PCOD9329094
_publ_section_title
;
Structure prediction by ZEFSAII (Michael W. Deem and Ramdas Pophale) SiO2 
 PCOD9329094
Probable space group: F 2 2 2
;
_chemical_formula_sum "Si O2"
_cell_formula_units_Z 44
_cell_length_a 25.516102
_cell_length_b 4.986210
_cell_length_c 14.718531
_cell_angle_alpha 90.000000
_cell_angle_beta 90.000000
_cell_angle_gamma 90.000000
_cell_volume 1872.618725
_symmetry_space_group_name_H-M "F 2 2 2"
_symmetry_group_IT_number 22
_symmetry_cell_setting 'orthorhombic'
loop_
_space_group_symop_operation_xyz
x,y,z
-x,-y,z
x,-y,-z
-x,y,-z
x,1/2+y,1/2+z
-x,1/2-y,1/2+z
x,1/2-y,1/2-z
-x,1/2+y,1/2-z
1/2+x,y,1/2+z
1/2-x,-y,1/2+z
1/2+x,-y,1/2-z
1/2-x,y,1/2-z
1/2+x,1/2+y,z
1/2-x,1/2-y,z
1/2+x,1/2-y,-z
1/2-x,1/2+y,-z
loop_
_atom_site_type_symbol
_atom_site_label
_atom_site_fract_x
_atom_site_fract_y
_atom_site_fract_z
Si Si1 0.287112 0.000000 0.000000
Si Si2 0.834680 0.870342 0.152760
Si Si3 0.556262 0.501613 0.818093
Si Si4 0.750000 0.250000 0.250000
O O1 0.250000 0.750000 0.023759
O O2 0.318911 0.863329 0.917444
O O3 0.847865 0.750000 0.250000
O O4 0.890117 0.997217 0.123419
O O5 0.787457 0.065760 0.186050
O O6 0.500000 0.500000 0.868483
O O7 0.562364 0.750000 0.750000
O O8 0.550620 0.250000 0.750000
#
# Coordination Sequence:
#
# PCOD9329094 Si02
#       4
#     8  16  16   4
#     4  12  30  46  68 110 158 200 256 308 384 460
#     4  11  25  43  72 107 156 197 251 313 378 457
#     4   9  18  36  66 105 141 184 248 310 367 441
#     4  12  22  44  74 112 154 202 258 310 382 460
#
# _framework density 23.496509
#
# number of rings (size 3 to 8) (size 9 to 14) (size 15 to 20)
#    0.000    1.455    1.818    2.727   10.182    0.000 
#    0.000    0.000    0.000    0.000    9.455   90.364 
#    0.000    0.000    0.000    0.000    0.000    0.000 
#
# Total GULP energy -61288.237300 kJ/mol
# GULP energy per Si atom -5571.657936 kJ/mol
# Density = 2.344303 g / cm^3
# Si number density = 23.496509 Si / 1000 Ang^3
#
#
#
# Elastic Constant Matrix: (Units=GPa)
#
#
# Indices 1 2 3 4 5 6 
#
# 1 243.7683 58.1875 55.8943 0.0001 -0.0001 -0.0003
# 2 58.1875 158.3137 37.7192 0.0004 -0.0002 -0.0008
# 3 55.8943 37.7192 114.2362 0.0002 -0.0001 -0.0001
# 4 0.0001 0.0004 0.0002 48.4800 -0.0001 -0.0003
# 5 -0.0001 -0.0002 -0.0001 -0.0001 3.5734 0.0000
# 6 -0.0003 -0.0008 -0.0001 -0.0003 0.0000 27.2128
#
#
#
# Elastic Compliance Matrix: (Units=1/GPa)
#
#
# Indices 1 2 3 4 5 6 
#
# 1 0.004864 -0.001325 -0.001942 0.000000 0.000000 0.000000
# 2 -0.001325 0.007217 -0.001735 0.000000 0.000000 0.000000
# 3 -0.001942 -0.001735 0.010277 0.000000 0.000000 0.000000
# 4 0.000000 0.000000 0.000000 0.020627 0.000000 0.000000
# 5 0.000000 0.000000 0.000000 0.000000 0.279847 0.000000
# 6 0.000000 0.000000 0.000000 0.000000 0.000000 0.036747
#
#
# Mechanical properties :
#
#
# Convention : Reuss Voigt Hill
#
# Bulk Modulus (GPa) = 80.94679 91.10228 86.02453
# Shear Modulus (GPa) = 13.37970 40.15439 26.76705
#
# Velocity S-wave (km/s) = 2.38887 4.13843 3.37885
# Velocity P-wave (km/s) = 6.49109 7.85445 7.20509
#
# Compressibility (1/GPa) = 0.01235379
#
# Stress axis : x y z
#
# Youngs Moduli (GPa) = 205.59699 138.56506 97.30546
#
# Poissons Ratio (x) = 0.18359 0.18900
# Poissons Ratio (y) = 0.27240 0.16879
# Poissons Ratio (z) = 0.39934 0.24036
#
# Static dielectric constant tensor:
#      x y z
#    x 2.292950 0.000000 0.000000 
#    y 0.000000 1.886480 0.000000 
#    z 0.000000 0.000000 1.922640 
# 
# From -- ./inp_files/32759.got.cif
#   From: 2010.05.17/outbox.cif.g08.bks.cpg/sg22_17_cif.got.tgz:32759.got - 2010.06.03 23:40:54.
