data_PCOD9329673
_publ_section_title
;
Structure prediction by ZEFSAII (Michael W. Deem and Ramdas Pophale) SiO2 
 PCOD9329673
Probable space group: I 2 2 2
;
_chemical_formula_sum "Si O2"
_cell_formula_units_Z 56
_cell_length_a 7.376918
_cell_length_b 21.778040
_cell_length_c 15.301103
_cell_angle_alpha 90.000000
_cell_angle_beta 90.000000
_cell_angle_gamma 90.000000
_cell_volume 2458.195876
_symmetry_space_group_name_H-M "I 2 2 2"
_symmetry_group_IT_number 23
_symmetry_cell_setting 'orthorhombic'
loop_
_space_group_symop_operation_xyz
x,y,z
-x,-y,z
x,-y,-z
-x,y,-z
1/2+x,1/2+y,1/2+z
1/2-x,1/2-y,1/2+z
1/2+x,1/2-y,1/2-z
1/2-x,1/2+y,1/2-z
loop_
_atom_site_type_symbol
_atom_site_label
_atom_site_fract_x
_atom_site_fract_y
_atom_site_fract_z
Si Si1 0.859305 0.766882 0.177640
Si Si2 0.175122 0.899264 0.884550
Si Si3 0.798446 0.533341 0.082425
Si Si4 0.793907 0.675978 0.031188
Si Si5 0.251143 0.888861 0.073655
Si Si6 0.791741 0.485481 0.724061
Si Si7 0.718348 0.245204 0.124171
O O1 0.777278 0.834259 0.159235
O O2 0.863690 0.754538 0.280452
O O3 0.066808 0.761953 0.145596
O O4 0.756926 0.717544 0.116532
O O5 0.195373 0.956588 0.820747
O O6 0.966526 0.890148 0.911940
O O7 0.282299 0.911425 0.974736
O O8 0.716234 0.528169 0.179478
O O9 0.000000 0.500000 0.086231
O O10 0.707994 0.500000 0.000000
O O11 0.793908 0.604972 0.057240
O O12 0.686034 0.700693 0.946140
O O13 0.000000 0.687630 0.000000
O O14 0.328071 0.820478 0.082458
O O15 0.306387 0.930737 0.154348
O O16 0.000000 0.500000 0.738984
#
# Coordination Sequence:
#
# PCOD9329673 Si02
#       7
#     8   8   8   8   8   8   8
#     4  10  21  36  58  88 115 155 202 245 290 350
#     4  10  21  38  61  84 116 160 205 234 296 366
#     4  10  20  35  54  86 118 152 190 239 296 347
#     4  10  18  35  60  81 114 156 199 234 281 351
#     4  10  20  41  59  85 117 160 203 238 296 362
#     4  11  24  36  59  91 121 152 193 254 309 350
#     4  10  21  36  61  86 116 156 197 251 292 348
#
# _framework density 22.780933999999998
#
# number of rings (size 3 to 8) (size 9 to 14) (size 15 to 20)
#    0.000    1.857    2.857    1.714    2.000    4.571 
#    0.000    0.714    0.000    1.714    0.000    0.000 
#    0.000    0.000    0.000    0.000    0.000    0.000 
#
# Total GULP energy -156289.159741 kJ/mol
# GULP energy per Si atom -5581.755705 kJ/mol
# Density = 2.272908 g / cm^3
# Si number density = 22.780934 Si / 1000 Ang^3
#
#
#
# Elastic Constant Matrix: (Units=GPa)
#
#
# Indices 1 2 3 4 5 6 
#
# 1 31.2533 4.7820 11.7771 0.0000 0.0000 0.0000
# 2 4.7820 153.2208 100.7458 0.0000 0.0000 0.0000
# 3 11.7771 100.7458 236.2617 -0.0001 0.0000 0.0001
# 4 0.0000 0.0000 -0.0001 11.7571 0.0000 0.0001
# 5 0.0000 0.0000 0.0000 0.0000 19.0357 0.0000
# 6 0.0000 0.0000 0.0001 0.0001 0.0000 -1.2938
#
#
#
# Elastic Compliance Matrix: (Units=1/GPa)
#
#
# Indices 1 2 3 4 5 6 
#
# 1 0.032610 0.000071 -0.001656 0.000000 0.000000 0.000000
# 2 0.000071 0.009070 -0.003871 0.000000 0.000000 0.000000
# 3 -0.001656 -0.003871 0.005966 0.000000 0.000000 0.000000
# 4 0.000000 0.000000 0.000000 0.085055 0.000000 0.000004
# 5 0.000000 0.000000 0.000000 0.000000 0.052533 -0.000001
# 6 0.000000 0.000000 0.000000 0.000004 -0.000001 -0.772894
#
#
# Mechanical properties :
#
#
# Convention : Reuss Voigt Hill
#
# Bulk Modulus (GPa) = 27.22311 72.81619 50.01965
# Shear Modulus (GPa) = -8.85730 26.12854 8.63562
#
# Velocity S-wave (km/s) = -1.97395 3.39034 1.94909
# Velocity P-wave (km/s) = 2.60396 6.88178 5.20286
#
# Compressibility (1/GPa) = 0.03673349
#
# Stress axis : x y z
#
# Youngs Moduli (GPa) = 30.66571 110.25930 167.62331
#
# Poissons Ratio (x) = -0.00782 0.27755
# Poissons Ratio (y) = -0.00218 0.64886
# Poissons Ratio (z) = 0.05078 0.42681
#
# Static dielectric constant tensor:
#      x y z
#    x 1.938510 0.000000 0.000000 
#    y 0.000000 1.808400 0.000000 
#    z 0.000000 0.000000 1.916780 
# 
# From -- ./inp_files/20207.got.cif
#   From: 2010.05.17/outbox.cif.g08.bks.cpg/sg23_11_cif.got.tgz:20207.got - 2010.06.04 12:02:01.
