data_PCOD9329665
_publ_section_title
;
Structure prediction by ZEFSAII (Michael W. Deem and Ramdas Pophale) SiO2 
 PCOD9329665
Probable space group: I 2 2 2
;
_chemical_formula_sum "Si O2"
_cell_formula_units_Z 52
_cell_length_a 9.356546
_cell_length_b 24.978815
_cell_length_c 11.134799
_cell_angle_alpha 90.000000
_cell_angle_beta 90.000000
_cell_angle_gamma 90.000000
_cell_volume 2602.374354
_symmetry_space_group_name_H-M "I 2 2 2"
_symmetry_group_IT_number 23
_symmetry_cell_setting 'orthorhombic'
loop_
_space_group_symop_operation_xyz
x,y,z
-x,-y,z
x,-y,-z
-x,y,-z
1/2+x,1/2+y,1/2+z
1/2-x,1/2-y,1/2+z
1/2+x,1/2-y,1/2-z
1/2-x,1/2+y,1/2-z
loop_
_atom_site_type_symbol
_atom_site_label
_atom_site_fract_x
_atom_site_fract_y
_atom_site_fract_z
Si Si1 0.020286 0.138595 0.857272
Si Si2 0.657792 0.274850 0.201822
Si Si3 0.736502 0.932169 0.873053
Si Si4 0.000000 0.292095 0.500000
Si Si5 0.808085 0.951809 0.152335
Si Si6 0.488031 0.800509 0.639174
Si Si7 0.449937 0.115852 0.190824
O O1 0.937425 0.176125 0.761076
O O2 0.957140 0.078665 0.840709
O O3 0.187264 0.124480 0.840112
O O4 0.000000 0.154956 0.000000
O O5 0.598555 0.247726 0.078811
O O6 0.617855 0.231010 0.300532
O O7 0.827011 0.284185 0.183628
O O8 0.568549 0.923818 0.859484
O O9 0.789024 0.986963 0.811209
O O10 0.768803 0.943295 0.012367
O O11 0.068468 0.334339 0.596307
O O12 0.694654 0.914464 0.216984
O O13 0.500000 0.793139 0.500000
O O14 0.505053 0.860333 0.685174
#
# Coordination Sequence:
#
# PCOD9329665 Si02
#       7
#     8   8   8   4   8   8   8
#     4  10  21  35  58  89 130 163 203 253 311 373
#     4  11  25  41  64  89 126 172 207 263 313 371
#     4  10  20  31  60  89 126 159 202 253 322 374
#     4  10  24  36  61  88 123 162 222 246 310 378
#     4  10  18  35  55  91 123 162 200 256 320 376
#     4  11  27  42  63  89 127 165 219 254 312 382
#     4  11  20  37  59  87 125 156 203 266 307 369
#
# _framework density 19.981753999999999
#
# number of rings (size 3 to 8) (size 9 to 14) (size 15 to 20)
#    0.000    1.538    3.077    1.385    8.615    3.077 
#    0.000    0.000    0.000    1.846    0.000    1.077 
#    0.000    0.000    0.000    0.000    0.000    0.000 
#
# Total GULP energy -144745.482199 kJ/mol
# GULP energy per Si atom -5567.133931 kJ/mol
# Density = 1.993627 g / cm^3
# Si number density = 19.981754 Si / 1000 Ang^3
#
#
#
# Elastic Constant Matrix: (Units=GPa)
#
#
# Indices 1 2 3 4 5 6 
#
# 1 51.1272 15.2325 27.3294 0.0001 0.0004 0.0000
# 2 15.2325 83.1806 18.3103 -0.0001 0.0003 0.0000
# 3 27.3294 18.3103 65.9255 0.0003 0.0013 0.0001
# 4 0.0001 -0.0001 0.0003 12.4006 0.0002 0.0000
# 5 0.0004 0.0003 0.0013 0.0002 17.0187 0.0003
# 6 0.0000 0.0000 0.0001 0.0000 0.0003 27.7959
#
#
#
# Elastic Compliance Matrix: (Units=1/GPa)
#
#
# Indices 1 2 3 4 5 6 
#
# 1 0.025608 -0.002506 -0.009920 0.000000 0.000000 0.000000
# 2 -0.002506 0.013050 -0.002586 0.000000 0.000000 0.000000
# 3 -0.009920 -0.002586 0.019999 0.000000 -0.000001 0.000000
# 4 0.000000 0.000000 0.000000 0.080641 -0.000001 0.000000
# 5 0.000000 0.000000 -0.000001 -0.000001 0.058759 -0.000001
# 6 0.000000 0.000000 0.000000 0.000000 -0.000001 0.035977
#
#
# Mechanical properties :
#
#
# Convention : Reuss Voigt Hill
#
# Bulk Modulus (GPa) = 34.92308 35.77532 35.34920
# Shear Modulus (GPa) = 18.27473 20.73378 19.50425
#
# Velocity S-wave (km/s) = 3.02747 3.22473 3.12765
# Velocity P-wave (km/s) = 5.45309 5.63986 5.54726
#
# Compressibility (1/GPa) = 0.02863436
#
# Stress axis : x y z
#
# Youngs Moduli (GPa) = 39.05003 76.62763 50.00226
#
# Poissons Ratio (x) = 0.19202 0.49602
# Poissons Ratio (y) = 0.09785 0.12929
# Poissons Ratio (z) = 0.38737 0.19814
#
# Static dielectric constant tensor:
#      x y z
#    x 1.741010 0.000000 0.000000 
#    y 0.000000 1.784000 0.000000 
#    z 0.000000 0.000000 1.774790 
# 
# From -- ./inp_files/14850.got.cif
#   From: 2010.05.17/outbox.cif.g08.bks.cpg/sg23_8_cif.got.tgz:14850.got - 2010.06.04 12:02:01.
