data_PCOD9329600
_publ_section_title
;
Structure prediction by ZEFSAII (Michael W. Deem and Ramdas Pophale) SiO2 
 PCOD9329600
Probable space group: I 2 2 2
;
_chemical_formula_sum "Si O2"
_cell_formula_units_Z 64
_cell_length_a 8.008465
_cell_length_b 14.272212
_cell_length_c 25.123394
_cell_angle_alpha 90.000000
_cell_angle_beta 90.000000
_cell_angle_gamma 90.000000
_cell_volume 2871.566507
_symmetry_space_group_name_H-M "I 2 2 2"
_symmetry_group_IT_number 23
_symmetry_cell_setting 'orthorhombic'
loop_
_space_group_symop_operation_xyz
x,y,z
-x,-y,z
x,-y,-z
-x,y,-z
1/2+x,1/2+y,1/2+z
1/2-x,1/2-y,1/2+z
1/2+x,1/2-y,1/2-z
1/2-x,1/2+y,1/2-z
loop_
_atom_site_type_symbol
_atom_site_label
_atom_site_fract_x
_atom_site_fract_y
_atom_site_fract_z
Si Si1 0.380178 0.805392 0.551342
Si Si2 0.372708 0.297098 0.815218
Si Si3 0.689853 0.872117 0.616378
Si Si4 0.809742 0.524792 0.802326
Si Si5 0.317432 0.356783 0.372919
Si Si6 0.870673 0.791023 0.194854
Si Si7 0.521061 0.391127 0.080087
Si Si8 0.195245 0.521078 0.312917
O O1 0.500000 0.804707 0.500000
O O2 0.504681 0.861722 0.591767
O O3 0.350733 0.698396 0.572188
O O4 0.192851 0.851083 0.554090
O O5 0.211548 0.363933 0.806418
O O6 0.331480 0.202124 0.845277
O O7 0.429487 0.279025 0.755541
O O8 0.465708 0.364082 0.856945
O O9 0.732107 0.972248 0.642903
O O10 0.689864 0.802289 0.666445
O O11 0.832667 0.849343 0.572372
O O12 0.729277 0.492200 0.745818
O O13 0.000000 0.500000 0.795076
O O14 0.477257 0.333190 0.337834
O O15 0.277998 0.464972 0.361901
O O16 0.727740 0.868671 0.187283
O O17 0.500000 0.500000 0.066703
O O18 0.000000 0.500000 0.315100
#
# Coordination Sequence:
#
# PCOD9329600 Si02
#       8
#     8   8   8   8   8   8   8   8
#     4  10  25  48  68  91 122 164 216 282 336 385
#     4  10  21  32  56  88 129 169 216 248 303 376
#     4  11  23  39  65  89 132 172 222 267 321 381
#     4  10  18  33  53  86 133 179 206 252 306 383
#     4  10  21  39  60  84 122 167 213 267 324 385
#     4  10  22  34  55  91 127 177 206 258 311 380
#     4  11  23  39  67  95 126 171 218 266 323 392
#     4  10  22  34  56  90 130 167 213 261 320 380
#
# _framework density 22.287486999999999
#
# number of rings (size 3 to 8) (size 9 to 14) (size 15 to 20)
#    0.000    1.750    1.250    3.375    7.000    1.500 
#    0.000    1.875    0.000    6.000    0.000    3.500 
#    0.000    0.000    0.000    0.000    0.000    0.000 
#
# Total GULP energy -178307.282852 kJ/mol
# GULP energy per Si atom -5572.102589 kJ/mol
# Density = 2.223676 g / cm^3
# Si number density = 22.287487 Si / 1000 Ang^3
#
#
#
# Elastic Constant Matrix: (Units=GPa)
#
#
# Indices 1 2 3 4 5 6 
#
# 1 100.4076 5.6205 29.8412 0.0000 0.0000 0.0000
# 2 5.6205 58.7779 28.7079 0.0000 0.0000 0.0000
# 3 29.8412 28.7079 103.2053 0.0000 0.0000 0.0000
# 4 0.0000 0.0000 0.0000 10.2132 0.0000 0.0000
# 5 0.0000 0.0000 0.0000 0.0000 22.8989 0.0000
# 6 0.0000 0.0000 0.0000 0.0000 0.0000 33.3777
#
#
#
# Elastic Compliance Matrix: (Units=1/GPa)
#
#
# Indices 1 2 3 4 5 6 
#
# 1 0.010913 0.000576 -0.003315 0.000000 0.000000 0.000000
# 2 0.000576 0.019718 -0.005651 0.000000 0.000000 0.000000
# 3 -0.003315 -0.005651 0.012220 0.000000 0.000000 0.000000
# 4 0.000000 0.000000 0.000000 0.097912 0.000000 0.000000
# 5 0.000000 0.000000 0.000000 0.000000 0.043670 0.000000
# 6 0.000000 0.000000 0.000000 0.000000 0.000000 0.029960
#
#
# Mechanical properties :
#
#
# Convention : Reuss Voigt Hill
#
# Bulk Modulus (GPa) = 38.35990 43.41443 40.88717
# Shear Modulus (GPa) = 20.84503 26.51272 23.67887
#
# Velocity S-wave (km/s) = 3.06155 3.45277 3.26303
# Velocity P-wave (km/s) = 5.45401 5.95122 5.70803
#
# Compressibility (1/GPa) = 0.02606889
#
# Stress axis : x y z
#
# Youngs Moduli (GPa) = 91.63780 50.71410 81.83245
#
# Poissons Ratio (x) = -0.02920 0.27131
# Poissons Ratio (y) = -0.05277 0.46247
# Poissons Ratio (z) = 0.30382 0.28661
#
# Static dielectric constant tensor:
#      x y z
#    x 1.960250 0.000000 0.000000 
#    y 0.000000 1.848300 0.000000 
#    z 0.000000 0.000000 1.917040 
# 
# From -- ./inp_files/28110.got.cif
#   From: 2010.05.17/outbox.cif.g08.bks.cpg/sg23_15_cif.got.tgz:28110.got - 2010.06.04 12:02:01.
