data_PCOD9329178
_publ_section_title
;
Structure prediction by ZEFSAII (Michael W. Deem and Ramdas Pophale) SiO2 
 PCOD9329178
Probable space group: F 2 2 2
;
_chemical_formula_sum "Si O2"
_cell_formula_units_Z 40
_cell_length_a 11.968136
_cell_length_b 27.536663
_cell_length_c 4.326521
_cell_angle_alpha 90.000000
_cell_angle_beta 90.000000
_cell_angle_gamma 90.000000
_cell_volume 1425.859197
_symmetry_space_group_name_H-M "F 2 2 2"
_symmetry_group_IT_number 22
_symmetry_cell_setting 'orthorhombic'
loop_
_space_group_symop_operation_xyz
x,y,z
-x,-y,z
x,-y,-z
-x,y,-z
x,1/2+y,1/2+z
-x,1/2-y,1/2+z
x,1/2-y,1/2-z
-x,1/2+y,1/2-z
1/2+x,y,1/2+z
1/2-x,-y,1/2+z
1/2+x,-y,1/2-z
1/2-x,y,1/2-z
1/2+x,1/2+y,z
1/2-x,1/2-y,z
1/2+x,1/2-y,-z
1/2-x,1/2+y,-z
loop_
_atom_site_type_symbol
_atom_site_label
_atom_site_fract_x
_atom_site_fract_y
_atom_site_fract_z
Si Si1 0.417143 0.250000 0.250000
Si Si2 0.250000 0.171997 0.250000
Si Si3 0.914152 0.115125 0.261249
Si Si4 0.250000 0.036072 0.750000
O O1 0.500000 0.272773 0.500000
O O2 0.337925 0.209575 0.401710
O O3 0.326318 0.144710 0.990987
O O4 0.841583 0.072544 0.109819
O O5 0.000000 0.092667 0.500000
O O6 0.000000 0.136548 0.000000
O O7 0.199485 0.000000 0.500000
#
# Coordination Sequence:
#
# PCOD9329178 Si02
#       4
#     8   8  16   8
#     4  11  28  49  76 110 154 209 266 333 406 482
#     4  11  27  50  77 114 160 206 271 340 401 483
#     4  12  27  47  78 113 153 209 268 333 406 482
#     4  12  27  48  73 109 154 201 263 334 401 482
#
# _framework density 28.053258
#
# number of rings (size 3 to 8) (size 9 to 14) (size 15 to 20)
#    0.000    0.400    0.000    7.200    0.000   24.000 
#    0.000    0.000    0.000    0.000    0.000    0.000 
#    0.000    0.000    0.000    0.000    0.000    0.000 
#
# Total GULP energy -55746.428999 kJ/mol
# GULP energy per Si atom -5574.642900 kJ/mol
# Density = 2.798941 g / cm^3
# Si number density = 28.053258 Si / 1000 Ang^3
#
#
#
# Elastic Constant Matrix: (Units=GPa)
#
#
# Indices 1 2 3 4 5 6 
#
# 1 197.1946 113.1664 77.5512 -0.0016 -0.0077 0.0006
# 2 113.1664 124.5836 54.8490 0.0002 -0.0006 0.0002
# 3 77.5512 54.8490 119.9145 -0.0098 -0.0221 -0.0005
# 4 -0.0016 0.0002 -0.0098 38.0089 0.0029 -0.0001
# 5 -0.0077 -0.0006 -0.0221 0.0029 92.7672 -0.0005
# 6 0.0006 0.0002 -0.0005 -0.0001 -0.0005 45.6434
#
#
#
# Elastic Compliance Matrix: (Units=1/GPa)
#
#
# Indices 1 2 3 4 5 6 
#
# 1 0.011578 -0.009041 -0.003352 0.000000 0.000000 0.000000
# 2 -0.009041 0.017111 -0.001979 -0.000001 -0.000001 0.000000
# 3 -0.003352 -0.001979 0.011413 0.000003 0.000002 0.000000
# 4 0.000000 -0.000001 0.000003 0.026310 -0.000001 0.000000
# 5 0.000000 -0.000001 0.000002 -0.000001 0.010780 0.000000
# 6 0.000000 0.000000 0.000000 0.000000 0.000000 0.021909
#
#
# Mechanical properties :
#
#
# Convention : Reuss Voigt Hill
#
# Bulk Modulus (GPa) = 88.06099 103.64732 95.85416
# Shear Modulus (GPa) = 37.98508 48.35900 43.17204
#
# Velocity S-wave (km/s) = 3.68371 4.15641 3.92718
# Velocity P-wave (km/s) = 7.03930 7.74991 7.40314
#
# Compressibility (1/GPa) = 0.01135577
#
# Stress axis : x y z
#
# Youngs Moduli (GPa) = 86.37039 58.44291 87.62178
#
# Poissons Ratio (x) = 0.52839 0.29374
# Poissons Ratio (y) = 0.78088 0.17344
# Poissons Ratio (z) = 0.28954 0.11568
#
# Static dielectric constant tensor:
#      x y z
#    x 2.199620 0.000000 0.000000 
#    y 0.000000 2.104880 0.000000 
#    z 0.000000 0.000000 2.260730 
# 
# From -- ./inp_files/895.got.cif
#   From: 2010.05.17/outbox.cif.g08.bks.cpg/sg22_1_cif.got.tgz:895.got - 2010.06.03 23:40:54.
