data_PCOD9329533
_publ_section_title
;
Structure prediction by ZEFSAII (Michael W. Deem and Ramdas Pophale) SiO2 
 PCOD9329533
Probable space group: I 2 2 2
;
_chemical_formula_sum "Si O2"
_cell_formula_units_Z 34
_cell_length_a 17.486033
_cell_length_b 13.852801
_cell_length_c 5.514023
_cell_angle_alpha 90.000000
_cell_angle_beta 90.000000
_cell_angle_gamma 90.000000
_cell_volume 1335.664744
_symmetry_space_group_name_H-M "I 2 2 2"
_symmetry_group_IT_number 23
_symmetry_cell_setting 'orthorhombic'
loop_
_space_group_symop_operation_xyz
x,y,z
-x,-y,z
x,-y,-z
-x,y,-z
1/2+x,1/2+y,1/2+z
1/2-x,1/2-y,1/2+z
1/2+x,1/2-y,1/2-z
1/2-x,1/2+y,1/2-z
loop_
_atom_site_type_symbol
_atom_site_label
_atom_site_fract_x
_atom_site_fract_y
_atom_site_fract_z
Si Si1 0.856289 0.401258 0.586751
Si Si2 0.796267 0.821574 0.379393
Si Si3 0.500000 0.500000 0.500000
Si Si4 0.878203 0.141841 0.120365
Si Si5 0.112839 0.355612 0.901408
O O1 0.812525 0.500000 0.500000
O O2 0.815058 0.294778 0.614645
O O3 0.912681 0.392433 0.358955
O O4 0.895286 0.411368 0.848456
O O5 0.833741 0.867491 0.137776
O O6 0.706083 0.842870 0.375197
O O7 0.828412 0.859759 0.634783
O O8 0.444308 0.565674 0.653968
O O9 0.915498 0.246805 0.087157
#
# Coordination Sequence:
#
# PCOD9329533 Si02
#       5
#     8   8   2   8   8
#     4  10  18  30  52  84 113 146 184 247 300 376
#     4  10  20  40  56  82 117 158 200 252 326 342
#     4  12  28  46  60  98 122 170 232 224 304 366
#     4  10  22  39  60  77 121 161 198 259 279 377
#     4  10  19  38  54  84 120 153 201 248 329 345
#
# _framework density 25.455490000000001
#
# number of rings (size 3 to 8) (size 9 to 14) (size 15 to 20)
#    0.000    1.882    0.000    7.765    0.000    2.824 
#   23.294    0.000    0.000    0.000    0.000   79.059 
#    0.000    0.000    0.000    0.000    0.000    0.000 
#
# Total GULP energy -94865.688187 kJ/mol
# GULP energy per Si atom -5580.334599 kJ/mol
# Density = 2.539755 g / cm^3
# Si number density = 25.455490 Si / 1000 Ang^3
#
#
#
# Elastic Constant Matrix: (Units=GPa)
#
#
# Indices 1 2 3 4 5 6 
#
# 1 83.9062 42.9203 50.3175 0.0000 0.0000 0.0000
# 2 42.9203 109.2336 45.3801 0.0000 0.0000 0.0000
# 3 50.3175 45.3801 274.4546 0.0000 0.0000 0.0000
# 4 0.0000 0.0000 0.0000 23.4400 0.0000 0.0000
# 5 0.0000 0.0000 0.0000 0.0000 -26.3118 0.0000
# 6 0.0000 0.0000 0.0000 0.0000 0.0000 -8.7215
#
#
#
# Elastic Compliance Matrix: (Units=1/GPa)
#
#
# Indices 1 2 3 4 5 6 
#
# 1 0.015895 -0.005406 -0.002020 0.000000 0.000000 0.000000
# 2 -0.005406 0.011669 -0.000938 0.000000 0.000000 0.000000
# 3 -0.002020 -0.000938 0.004169 0.000000 0.000000 0.000000
# 4 0.000000 0.000000 0.000000 0.042662 0.000000 0.000000
# 5 0.000000 0.000000 0.000000 0.000000 -0.038006 0.000000
# 6 0.000000 0.000000 0.000000 0.000000 0.000000 -0.114659
#
#
# Mechanical properties :
#
#
# Convention : Reuss Voigt Hill
#
# Bulk Modulus (GPa) = 66.65127 82.75890 74.70509
# Shear Modulus (GPa) = -88.43370 19.61310 -34.41030
#
# Velocity S-wave (km/s) = -5.90050 2.77877 -3.68065
# Velocity P-wave (km/s) = 4.49232 6.54807 3.36870
#
# Compressibility (1/GPa) = 0.01500346
#
# Stress axis : x y z
#
# Youngs Moduli (GPa) = 62.91286 85.69943 239.85966
#
# Poissons Ratio (x) = 0.46331 0.48457
# Poissons Ratio (y) = 0.34012 0.22504
# Poissons Ratio (z) = 0.12710 0.08041
#
# Static dielectric constant tensor:
#      x y z
#    x 1.988320 0.000000 0.000000 
#    y 0.000000 2.129060 0.000000 
#    z 0.000000 0.000000 2.155380 
# 
# From -- ./inp_files/3728.got.cif
#   From: 2010.05.17/outbox.cif.g08.bks.cpg/sg23_2_cif.got.tgz:3728.got - 2010.06.04 12:02:01.
