data_PCOD9329659
_publ_section_title
;
Structure prediction by ZEFSAII (Michael W. Deem and Ramdas Pophale) SiO2 
 PCOD9329659
Probable space group: I 2 2 2
;
_chemical_formula_sum "Si O2"
_cell_formula_units_Z 64
_cell_length_a 7.900418
_cell_length_b 23.891380
_cell_length_c 19.106378
_cell_angle_alpha 90.000000
_cell_angle_beta 90.000000
_cell_angle_gamma 90.000000
_cell_volume 3606.364932
_symmetry_space_group_name_H-M "I 2 2 2"
_symmetry_group_IT_number 23
_symmetry_cell_setting 'orthorhombic'
loop_
_space_group_symop_operation_xyz
x,y,z
-x,-y,z
x,-y,-z
-x,y,-z
1/2+x,1/2+y,1/2+z
1/2-x,1/2-y,1/2+z
1/2+x,1/2-y,1/2-z
1/2-x,1/2+y,1/2-z
loop_
_atom_site_type_symbol
_atom_site_label
_atom_site_fract_x
_atom_site_fract_y
_atom_site_fract_z
Si Si1 0.123784 0.705616 0.787867
Si Si2 0.828588 0.918261 0.157334
Si Si3 0.409838 0.259411 0.393668
Si Si4 0.316995 0.971414 0.139277
Si Si5 0.181891 0.865388 0.201489
Si Si6 0.205607 0.583939 0.500537
Si Si7 0.634125 0.804070 0.166401
Si Si8 0.754293 0.790653 0.020464
O O1 0.259118 0.655784 0.778006
O O2 0.226234 0.762231 0.801865
O O3 0.981756 0.707520 0.848718
O O4 0.026679 0.705622 0.714356
O O5 0.700015 0.867501 0.173663
O O6 0.007269 0.898339 0.187204
O O7 0.784347 0.980971 0.180855
O O8 0.801273 0.923794 0.072960
O O9 0.346605 0.307915 0.341824
O O10 0.275869 0.248262 0.455891
O O11 0.573539 0.284884 0.434210
O O12 0.319376 0.910788 0.175360
O O13 0.239511 0.955869 0.063440
O O14 0.500000 0.000000 0.129550
O O15 0.241243 0.648958 0.515810
O O16 0.000000 0.577703 0.500000
O O17 0.616931 0.790203 0.083211
#
# Coordination Sequence:
#
# PCOD9329659 Si02
#       8
#     8   8   8   8   8   8   8   8
#     4  11  20  35  56  76  99 135 191 240 290 356
#     4  11  22  37  48  74 105 143 193 238 275 325
#     4  10  18  35  52  75 100 130 188 236 285 335
#     4  12  24  35  50  73 109 150 196 238 279 321
#     4  12  22  36  53  73 101 141 188 239 293 333
#     4  11  20  32  50  69 104 147 194 233 272 315
#     4  10  19  34  55  76 104 139 192 234 291 336
#     4   9  19  32  52  74 104 139 177 243 278 323
#
# _framework density 17.746402
#
# number of rings (size 3 to 8) (size 9 to 14) (size 15 to 20)
#    0.000    1.250    7.500    1.500    1.750    0.500 
#    0.000    1.250    0.000    0.000    0.000    0.000 
#    0.000    0.000    0.000   81.000    0.000  181.875 
#
# Total GULP energy -178185.903792 kJ/mol
# GULP energy per Si atom -5568.309494 kJ/mol
# Density = 1.770601 g / cm^3
# Si number density = 17.746402 Si / 1000 Ang^3
#
#
#
# Elastic Constant Matrix: (Units=GPa)
#
#
# Indices 1 2 3 4 5 6 
#
# 1 71.0505 23.5948 33.4955 0.0000 0.0000 0.0000
# 2 23.5948 85.5883 49.0064 0.0000 0.0000 0.0000
# 3 33.4955 49.0064 66.4397 0.0000 0.0000 0.0000
# 4 0.0000 0.0000 0.0000 32.8996 0.0000 0.0000
# 5 0.0000 0.0000 0.0000 0.0000 25.8283 0.0000
# 6 0.0000 0.0000 0.0000 0.0000 0.0000 28.0397
#
#
#
# Elastic Compliance Matrix: (Units=1/GPa)
#
#
# Indices 1 2 3 4 5 6 
#
# 1 0.018471 0.000415 -0.009619 0.000000 0.000000 0.000000
# 2 0.000415 0.020236 -0.015135 0.000000 0.000000 0.000000
# 3 -0.009619 -0.015135 0.031064 0.000000 0.000000 0.000000
# 4 0.000000 0.000000 0.000000 0.030395 0.000000 0.000000
# 5 0.000000 0.000000 0.000000 0.000000 0.038717 0.000000
# 6 0.000000 0.000000 0.000000 0.000000 0.000000 0.035664
#
#
# Mechanical properties :
#
#
# Convention : Reuss Voigt Hill
#
# Bulk Modulus (GPa) = 47.40689 48.36355 47.88522
# Shear Modulus (GPa) = 21.71500 25.15231 23.43365
#
# Velocity S-wave (km/s) = 3.50183 3.76881 3.63777
# Velocity P-wave (km/s) = 6.56673 6.80076 6.68477
#
# Compressibility (1/GPa) = 0.02109398
#
# Stress axis : x y z
#
# Youngs Moduli (GPa) = 54.13882 49.41799 32.19130
#
# Poissons Ratio (x) = -0.02053 0.30963
# Poissons Ratio (y) = -0.02249 0.48722
# Poissons Ratio (z) = 0.52073 0.74796
#
# Static dielectric constant tensor:
#      x y z
#    x 1.769620 0.000000 0.000000 
#    y 0.000000 1.632100 0.000000 
#    z 0.000000 0.000000 1.664350 
# 
# From -- ./inp_files/26418.got.cif
#   From: 2010.05.17/outbox.cif.g08.bks.cpg/sg23_14_cif.got.tgz:26418.got - 2010.06.04 12:02:01.
