data_PCOD9329935
_publ_section_title
;
Structure prediction by ZEFSAII (Michael W. Deem and Ramdas Pophale) SiO2 
 PCOD9329935
Probable space group: I 2 2 2
;
_chemical_formula_sum "Si O2"
_cell_formula_units_Z 48
_cell_length_a 13.757658
_cell_length_b 9.027871
_cell_length_c 17.812701
_cell_angle_alpha 90.000000
_cell_angle_beta 90.000000
_cell_angle_gamma 90.000000
_cell_volume 2212.379532
_symmetry_space_group_name_H-M "I 2 2 2"
_symmetry_group_IT_number 23
_symmetry_cell_setting 'orthorhombic'
loop_
_space_group_symop_operation_xyz
x,y,z
-x,-y,z
x,-y,-z
-x,y,-z
1/2+x,1/2+y,1/2+z
1/2-x,1/2-y,1/2+z
1/2+x,1/2-y,1/2-z
1/2-x,1/2+y,1/2-z
loop_
_atom_site_type_symbol
_atom_site_label
_atom_site_fract_x
_atom_site_fract_y
_atom_site_fract_z
Si Si1 0.616109 0.008237 0.590140
Si Si2 0.410109 0.580744 0.171432
Si Si3 0.750381 0.999580 0.079338
Si Si4 0.546456 0.855789 0.919366
Si Si5 0.212058 0.183112 0.639288
Si Si6 0.213042 0.758512 0.191000
O O1 0.654600 0.154064 0.633465
O O2 0.500000 0.000000 0.599015
O O3 0.637232 0.000000 0.500000
O O4 0.677738 0.877866 0.630039
O O5 0.500000 0.500000 0.214357
O O6 0.464458 0.706388 0.124564
O O7 0.354995 0.458048 0.120105
O O8 0.318831 0.677275 0.202834
O O9 0.658628 0.107345 0.067932
O O10 0.792882 0.078080 0.153117
O O11 0.711486 0.835729 0.094980
O O12 0.807012 0.000000 0.000000
O O13 0.500000 0.000000 0.879970
O O14 0.500000 0.842322 0.000000
O O15 0.180062 0.221066 0.723979
#
# Coordination Sequence:
#
# PCOD9329935 Si02
#       6
#     8   8   8   8   8   8
#     4  10  22  44  71  98 127 173 238 299 347 400
#     4  10  22  37  58  92 125 173 217 260 326 405
#     4  11  20  35  61  86 125 171 211 270 331 393
#     4  10  19  35  53  85 131 167 202 249 308 392
#     4  11  23  42  63  93 131 176 227 280 339 415
#     4  10  23  42  63  93 131 176 225 281 349 414
#
# _framework density 21.696095
#
# number of rings (size 3 to 8) (size 9 to 14) (size 15 to 20)
#    0.000    1.667    1.667    4.000    0.000    1.667 
#    9.000    5.000    0.000    3.000    0.000    0.000 
#    0.000    0.000    0.000    0.000    0.000    0.000 
#
# Total GULP energy -133654.311958 kJ/mol
# GULP energy per Si atom -5568.929665 kJ/mol
# Density = 2.164671 g / cm^3
# Si number density = 21.696095 Si / 1000 Ang^3
#
#
#
# Elastic Constant Matrix: (Units=GPa)
#
#
# Indices 1 2 3 4 5 6 
#
# 1 74.0372 10.1831 4.3123 0.0000 0.0000 0.0000
# 2 10.1831 129.3172 42.2210 0.0000 0.0000 0.0000
# 3 4.3123 42.2210 94.2893 0.0000 0.0000 0.0000
# 4 0.0000 0.0000 0.0000 16.9062 0.0000 0.0000
# 5 0.0000 0.0000 0.0000 0.0000 16.8354 0.0000
# 6 0.0000 0.0000 0.0000 0.0000 0.0000 -277.9674
#
#
#
# Elastic Compliance Matrix: (Units=1/GPa)
#
#
# Indices 1 2 3 4 5 6 
#
# 1 0.013657 -0.001021 -0.000168 0.000000 0.000000 0.000000
# 2 -0.001021 0.009133 -0.004043 0.000000 0.000000 0.000000
# 3 -0.000168 -0.004043 0.012424 0.000000 0.000000 0.000000
# 4 0.000000 0.000000 0.000000 0.059150 0.000000 0.000000
# 5 0.000000 0.000000 0.000000 0.000000 0.059399 0.000000
# 6 0.000000 0.000000 0.000000 0.000000 0.000000 -0.003598
#
#
# Mechanical properties :
#
#
# Convention : Reuss Voigt Hill
#
# Bulk Modulus (GPa) = 40.40189 45.67517 43.03853
# Shear Modulus (GPa) = 29.60721 -32.78334 -1.58806
#
# Velocity S-wave (km/s) = 3.69810 -3.89141 -0.85647
# Velocity P-wave (km/s) = 6.07427 0.95248 4.34764
#
# Compressibility (1/GPa) = 0.02475132
#
# Stress axis : x y z
#
# Youngs Moduli (GPa) = 73.22321 109.48921 80.49119
#
# Poissons Ratio (x) = 0.11176 0.01349
# Poissons Ratio (y) = 0.07474 0.32543
# Poissons Ratio (z) = 0.01227 0.44267
#
# Static dielectric constant tensor:
#      x y z
#    x 1.863490 0.000000 0.000000 
#    y 0.000000 1.820300 0.000000 
#    z 0.000000 0.000000 2.032510 
# 
# From -- ./inp_files/24740.got.cif
#   From: 2010.05.17/outbox.cif.g08.bks.cpg/sg23_13_cif.got.tgz:24740.got - 2010.06.04 12:02:01.
