data_PCOD9329287
_publ_section_title
;
Structure prediction by ZEFSAII (Michael W. Deem and Ramdas Pophale) SiO2 
 PCOD9329287
Probable space group: F 2 2 2
;
_chemical_formula_sum "Si O2"
_cell_formula_units_Z 30
_cell_length_a 24.000000
_cell_length_b 21.000000
_cell_length_c 12.000000
_cell_angle_alpha 90.000000
_cell_angle_beta 90.000000
_cell_angle_gamma 90.000000
_cell_volume 6048.000000
_symmetry_space_group_name_H-M "F 2 2 2"
_symmetry_group_IT_number 22
_symmetry_cell_setting 'orthorhombic'
loop_
_space_group_symop_operation_xyz
x,y,z
-x,-y,z
x,-y,-z
-x,y,-z
x,1/2+y,1/2+z
-x,1/2-y,1/2+z
x,1/2-y,1/2-z
-x,1/2+y,1/2-z
1/2+x,y,1/2+z
1/2-x,-y,1/2+z
1/2+x,-y,1/2-z
1/2-x,y,1/2-z
1/2+x,1/2+y,z
1/2-x,1/2-y,z
1/2+x,1/2-y,-z
1/2-x,1/2+y,-z
loop_
_atom_site_type_symbol
_atom_site_label
_atom_site_fract_x
_atom_site_fract_y
_atom_site_fract_z
Si Si1 0.134177 0.868915 0.353284
Si Si2 0.750345 0.826016 0.886102
Si Si3 0.402516 0.410958 0.213776
Si Si4 0.065274 0.929470 0.531443
Si Si5 0.172153 0.073267 0.014721
Si Si6 0.000095 0.842153 0.130222
Si Si7 0.085490 0.053231 0.829299
Si Si8 0.923414 0.250000 0.250000
O O1 0.191846 0.858437 0.413817
O O2 0.088813 0.878856 0.446429
O O3 0.129820 0.927486 0.266804
O O4 0.117362 0.805966 0.286750
O O5 0.750000 0.831682 0.750000
O O6 0.750000 0.750000 0.911462
O O7 0.794820 0.869635 0.952478
O O8 0.411746 0.413458 0.346286
O O9 0.344394 0.412771 0.143740
O O10 0.437682 0.350245 0.173071
O O11 0.428385 0.479469 0.177181
O O12 0.000000 0.930978 0.500000
O O13 0.086662 0.000000 0.500000
O O14 0.114137 0.069396 0.946099
O O15 0.195433 0.000000 0.000000
O O16 0.034084 0.899816 0.188337
O O17 0.034689 0.779145 0.158847
O O18 0.000000 0.852855 0.000000
#
# Coordination Sequence:
#
# PCOD9329287 Si02
#       8
#    16  16  16  16  16  16  16   8
#     4  11  22  40  64  89 127 168 213 274 333 378
#     4  11  23  40  69 100 127 170 228 284 337 387
#     4  11  22  38  61  92 133 174 203 268 333 393
#     4  11  23  39  62  96 133 169 218 266 323 403
#     4  10  22  40  61  97 136 165 216 280 332 403
#     4  11  22  34  58  88 122 168 215 256 320 397
#     4  10  19  36  59  93 128 157 210 259 330 392
#     4  10  24  38  57  90 126 168 221 274 314 392
#
# _framework density 4.9603169999999999
#
# number of rings (size 3 to 8) (size 9 to 14) (size 15 to 20)
#    0.000    1.333    4.000    2.800    3.733    2.667 
#    0.000    0.667    0.000    0.800    0.000    0.000 
#    0.000    0.000    0.000    0.000    0.000    0.000 
#
# Total GULP energy -167068.343574 kJ/mol
# GULP energy per Si atom -5568.944786 kJ/mol
# Density = 0.494903 g / cm^3
# Si number density = 4.960317 Si / 1000 Ang^3
#
#
#
# Elastic Constant Matrix: (Units=GPa)
#
#
# Indices 1 2 3 4 5 6 
#
# 1 49.4430 17.3732 14.6907 0.0000 0.0000 0.0000
# 2 17.3732 40.7739 9.0859 0.0000 0.0000 0.0000
# 3 14.6907 9.0859 111.9094 0.0000 0.0000 0.0000
# 4 0.0000 0.0000 0.0000 10.5720 0.0000 0.0000
# 5 0.0000 0.0000 0.0000 0.0000 18.5824 0.0000
# 6 0.0000 0.0000 0.0000 0.0000 0.0000 22.2543
#
#
#
# Elastic Compliance Matrix: (Units=1/GPa)
#
#
# Indices 1 2 3 4 5 6 
#
# 1 0.024405 -0.009863 -0.002403 0.000000 0.000000 0.000000
# 2 -0.009863 0.028964 -0.001057 0.000000 0.000000 0.000000
# 3 -0.002403 -0.001057 0.009337 0.000000 0.000000 0.000000
# 4 0.000000 0.000000 0.000000 0.094589 0.000000 0.000000
# 5 0.000000 0.000000 0.000000 0.000000 0.053814 0.000000
# 6 0.000000 0.000000 0.000000 0.000000 0.000000 0.044935
#
#
# Mechanical properties :
#
#
# Convention : Reuss Voigt Hill
#
# Bulk Modulus (GPa) = 27.73171 31.60290 29.66730
# Shear Modulus (GPa) = 16.96583 21.01350 18.98966
#
# Velocity S-wave (km/s) = 2.92734 3.25788 3.09703
# Velocity P-wave (km/s) = 5.04311 5.48764 5.27006
#
# Compressibility (1/GPa) = 0.03605980
#
# Stress axis : x y z
#
# Youngs Moduli (GPa) = 40.97525 34.52617 107.10030
#
# Poissons Ratio (x) = 0.34054 0.25736
# Poissons Ratio (y) = 0.40415 0.11318
# Poissons Ratio (z) = 0.09846 0.03649
#
# Static dielectric constant tensor:
#      x y z
#    x 1.775770 0.000000 0.000000 
#    y 0.000000 1.827460 0.000000 
#    z 0.000000 0.000000 1.764600 
# 
# From -- ./inp_files/24019.got.cif
#   From: 2010.05.17/outbox.ucp.g08.bks.cvg/sg22_13_cif.got.tgz:24019.got - 2010.06.11 15:16:44.
