data_PCOD9329213
_publ_section_title
;
Structure prediction by ZEFSAII (Michael W. Deem and Ramdas Pophale) SiO2 
 PCOD9329213
Probable space group: F 2 2 2
;
_chemical_formula_sum "Si O2"
_cell_formula_units_Z 40
_cell_length_a 10.819180
_cell_length_b 11.585817
_cell_length_c 12.136023
_cell_angle_alpha 90.000000
_cell_angle_beta 90.000000
_cell_angle_gamma 90.000000
_cell_volume 1521.238827
_symmetry_space_group_name_H-M "F 2 2 2"
_symmetry_group_IT_number 22
_symmetry_cell_setting 'orthorhombic'
loop_
_space_group_symop_operation_xyz
x,y,z
-x,-y,z
x,-y,-z
-x,y,-z
x,1/2+y,1/2+z
-x,1/2-y,1/2+z
x,1/2-y,1/2-z
-x,1/2+y,1/2-z
1/2+x,y,1/2+z
1/2-x,-y,1/2+z
1/2+x,-y,1/2-z
1/2-x,y,1/2-z
1/2+x,1/2+y,z
1/2-x,1/2-y,z
1/2+x,1/2-y,-z
1/2-x,1/2+y,-z
loop_
_atom_site_type_symbol
_atom_site_label
_atom_site_fract_x
_atom_site_fract_y
_atom_site_fract_z
Si Si1 0.402178 0.098466 0.863445
Si Si2 0.818851 0.000000 0.000000
Si Si3 0.524577 0.674366 0.154040
O O1 0.444352 0.224714 0.901075
O O2 0.424572 0.108481 0.731574
O O3 0.500000 0.000000 0.892071
O O4 0.274156 0.064863 0.917018
O O5 0.897318 0.908072 0.074265
O O6 0.597584 0.750000 0.250000
#
# Coordination Sequence:
#
# PCOD9329213 Si02
#       3
#    16   8  16
#     4   9  22  49  75 116 169 202 284 361 393 530
#     4  12  21  50  87 106 166 228 257 358 449 470
#     4   8  24  51  73 121 163 209 291 341 417 530
#
# _framework density 26.294357999999999
#
# number of rings (size 3 to 8) (size 9 to 14) (size 15 to 20)
#    2.400    0.000    0.000    0.600    0.000    3.200 
#   14.400   25.000    0.000    0.000    0.000    0.000 
#    0.000    0.000    0.000    0.000    0.000    0.000 
#
# Total GULP energy -55724.886452 kJ/mol
# GULP energy per Si atom -5572.488645 kJ/mol
# Density = 2.623451 g / cm^3
# Si number density = 26.294358 Si / 1000 Ang^3
#
#
#
# Elastic Constant Matrix: (Units=GPa)
#
#
# Indices 1 2 3 4 5 6 
#
# 1 197.4848 141.1903 164.9540 0.0000 0.0000 0.0000
# 2 141.1903 236.1370 148.4583 0.0000 0.0000 0.0000
# 3 164.9540 148.4583 186.5146 0.0000 0.0000 0.0000
# 4 0.0000 0.0000 0.0000 32.5735 0.0000 0.0000
# 5 0.0000 0.0000 0.0000 0.0000 33.9768 0.0000
# 6 0.0000 0.0000 0.0000 0.0000 0.0000 28.3069
#
#
#
# Elastic Compliance Matrix: (Units=1/GPa)
#
#
# Indices 1 2 3 4 5 6 
#
# 1 0.019697 -0.001652 -0.016105 0.000000 0.000000 0.000000
# 2 -0.001652 0.008615 -0.005397 0.000000 0.000000 0.000000
# 3 -0.016105 -0.005397 0.023900 0.000000 0.000000 0.000000
# 4 0.000000 0.000000 0.000000 0.030700 0.000000 0.000000
# 5 0.000000 0.000000 0.000000 0.000000 0.029432 0.000000
# 6 0.000000 0.000000 0.000000 0.000000 0.000000 0.035327
#
#
# Mechanical properties :
#
#
# Convention : Reuss Voigt Hill
#
# Bulk Modulus (GPa) = 169.33470 169.92683 169.63077
# Shear Modulus (GPa) = 25.51710 30.00701 27.76205
#
# Velocity S-wave (km/s) = 3.11857 3.38182 3.25286
# Velocity P-wave (km/s) = 8.80379 8.94506 8.87471
#
# Compressibility (1/GPa) = 0.00590546
#
# Stress axis : x y z
#
# Youngs Moduli (GPa) = 50.76930 116.07312 41.84028
#
# Poissons Ratio (x) = 0.19174 0.67385
# Poissons Ratio (y) = 0.08386 0.22579
# Poissons Ratio (z) = 0.81765 0.62639
#
# Static dielectric constant tensor:
#      x y z
#    x 1.993850 0.000000 0.000000 
#    y 0.000000 2.850710 0.000000 
#    z 0.000000 0.000000 2.331020 
# 
# From -- ./inp_files/27385.got.cif
#   From: 2010.05.17/outbox.cif.g08.bks.cpg/sg22_14_cif.got.tgz:27385.got - 2010.06.03 23:40:54.
