data_PCOD9329960
_publ_section_title
;
Structure prediction by ZEFSAII (Michael W. Deem and Ramdas Pophale) SiO2 
 PCOD9329960
Probable space group: I 2 2 2
;
_chemical_formula_sum "Si O2"
_cell_formula_units_Z 26
_cell_length_a 13.921256
_cell_length_b 17.376075
_cell_length_c 5.078111
_cell_angle_alpha 90.000000
_cell_angle_beta 90.000000
_cell_angle_gamma 90.000000
_cell_volume 1228.378742
_symmetry_space_group_name_H-M "I 2 2 2"
_symmetry_group_IT_number 23
_symmetry_cell_setting 'orthorhombic'
loop_
_space_group_symop_operation_xyz
x,y,z
-x,-y,z
x,-y,-z
-x,y,-z
1/2+x,1/2+y,1/2+z
1/2-x,1/2-y,1/2+z
1/2+x,1/2-y,1/2-z
1/2-x,1/2+y,1/2-z
loop_
_atom_site_type_symbol
_atom_site_label
_atom_site_fract_x
_atom_site_fract_y
_atom_site_fract_z
Si Si1 0.235156 0.356777 0.156358
Si Si2 0.395217 0.262924 0.393391
Si Si3 0.140695 0.604978 0.334798
Si Si4 0.500000 0.000000 0.500000
O O1 0.337586 0.332884 0.266299
O O2 0.177013 0.406625 0.371025
O O3 0.174682 0.276948 0.112403
O O4 0.229941 0.394938 0.870466
O O5 0.500000 0.280821 0.500000
O O6 0.400687 0.191863 0.188141
O O7 0.062558 0.552370 0.195535
#
# Coordination Sequence:
#
# PCOD9329960 Si02
#       4
#     8   8   8   2
#     4  10  20  38  51  81 120 145 190 249 279 352
#     4  10  19  35  58  81 115 152 189 242 298 343
#     4  10  21  36  51  79 119 144 191 229 290 347
#     4  12  24  38  60  86 118 170 188 228 304 370
#
# _framework density 21.166111999999998
#
# number of rings (size 3 to 8) (size 9 to 14) (size 15 to 20)
#    1.846    0.000    4.615    0.000    0.000    7.385 
#    0.000    0.000    0.000    0.000    0.000    6.462 
#    0.000    0.000    0.000    0.000    0.000    0.000 
#
# Total GULP energy -72513.758698 kJ/mol
# GULP energy per Si atom -5577.981438 kJ/mol
# Density = 2.111794 g / cm^3
# Si number density = 21.166112 Si / 1000 Ang^3
#
#
#
# Elastic Constant Matrix: (Units=GPa)
#
#
# Indices 1 2 3 4 5 6 
#
# 1 86.3238 -0.6348 4.0734 0.0000 0.0000 0.0000
# 2 -0.6348 31.8998 5.3540 0.0000 0.0000 0.0000
# 3 4.0734 5.3540 94.7769 0.0000 0.0000 0.0000
# 4 0.0000 0.0000 0.0000 21.7459 0.0000 0.0000
# 5 0.0000 0.0000 0.0000 0.0000 19.7642 0.0000
# 6 0.0000 0.0000 0.0000 0.0000 0.0000 32.1395
#
#
#
# Elastic Compliance Matrix: (Units=1/GPa)
#
#
# Indices 1 2 3 4 5 6 
#
# 1 0.011611 0.000318 -0.000517 0.000000 0.000000 0.000000
# 2 0.000318 0.031657 -0.001802 0.000000 0.000000 0.000000
# 3 -0.000517 -0.001802 0.010675 0.000000 0.000000 0.000000
# 4 0.000000 0.000000 0.000000 0.045986 0.000000 0.000000
# 5 0.000000 0.000000 0.000000 0.000000 0.050596 0.000000
# 6 0.000000 0.000000 0.000000 0.000000 0.000000 0.031114
#
#
# Mechanical properties :
#
#
# Convention : Reuss Voigt Hill
#
# Bulk Modulus (GPa) = 20.02373 25.62064 22.82218
# Shear Modulus (GPa) = 24.71715 28.34379 26.53047
#
# Velocity S-wave (km/s) = 3.42097 3.66336 3.54424
# Velocity P-wave (km/s) = 5.00848 5.47945 5.24925
#
# Compressibility (1/GPa) = 0.04994076
#
# Stress axis : x y z
#
# Youngs Moduli (GPa) = 86.12504 31.58867 93.67588
#
# Poissons Ratio (x) = -0.01004 0.04843
# Poissons Ratio (y) = -0.02737 0.16880
# Poissons Ratio (z) = 0.04452 0.05692
#
# Static dielectric constant tensor:
#      x y z
#    x 1.762570 0.000000 0.000000 
#    y 0.000000 1.811440 0.000000 
#    z 0.000000 0.000000 1.817000 
# 
# From -- ./inp_files/1214.got.cif
#   From: 2010.05.17/outbox.cif.g08.bks.cpg/sg23_1_cif.got.tgz:1214.got - 2010.06.04 12:02:01.
