data_PCOD9329878
_publ_section_title
;
Structure prediction by ZEFSAII (Michael W. Deem and Ramdas Pophale) SiO2 
 PCOD9329878
Probable space group: I 2 2 2
;
_chemical_formula_sum "Si O2"
_cell_formula_units_Z 38
_cell_length_a 17.162362
_cell_length_b 5.905426
_cell_length_c 19.859853
_cell_angle_alpha 90.000000
_cell_angle_beta 90.000000
_cell_angle_gamma 90.000000
_cell_volume 2012.817129
_symmetry_space_group_name_H-M "I 2 2 2"
_symmetry_group_IT_number 23
_symmetry_cell_setting 'orthorhombic'
loop_
_space_group_symop_operation_xyz
x,y,z
-x,-y,z
x,-y,-z
-x,y,-z
1/2+x,1/2+y,1/2+z
1/2-x,1/2-y,1/2+z
1/2+x,1/2-y,1/2-z
1/2-x,1/2+y,1/2-z
loop_
_atom_site_type_symbol
_atom_site_label
_atom_site_fract_x
_atom_site_fract_y
_atom_site_fract_z
Si Si1 0.220042 0.025482 0.657604
Si Si2 0.850934 0.727015 0.783431
Si Si3 0.000000 0.000000 0.500000
Si Si4 0.000000 0.000000 0.239750
Si Si5 0.591448 0.851272 0.817922
Si Si6 0.125546 0.335524 0.561971
O O1 0.207836 0.153866 0.729559
O O2 0.196581 0.200095 0.598398
O O3 0.300744 0.886300 0.656945
O O4 0.154486 0.834126 0.660310
O O5 0.883108 0.510863 0.743318
O O6 0.921841 0.904925 0.797490
O O7 0.940715 0.841442 0.540616
O O8 0.021454 0.205472 0.288947
O O9 0.586199 0.008317 0.882044
O O10 0.148079 0.500000 0.500000
#
# Coordination Sequence:
#
# PCOD9329878 Si02
#       6
#     8   8   2   4   8   8
#     4  10  20  35  56  76 107 153 207 242 293 338
#     4  10  19  34  52  79 108 150 200 240 290 354
#     4  12  26  42  52  78 116 168 212 254 274 322
#     4  10  22  31  54  83 114 148 203 237 302 350
#     4  10  21  36  53  79 109 155 197 244 286 346
#     4  11  25  37  53  75 112 159 215 250 278 332
#
# _framework density 18.879011999999999
#
# number of rings (size 3 to 8) (size 9 to 14) (size 15 to 20)
#    0.000    1.684    2.105    2.211    0.000   20.211 
#    0.000    0.000    0.000    0.000    0.000    0.000 
#    0.000    0.000    0.000  198.947    5.895    0.421 
#
# Total GULP energy -105947.116213 kJ/mol
# GULP energy per Si atom -5576.164011 kJ/mol
# Density = 1.883604 g / cm^3
# Si number density = 18.879012 Si / 1000 Ang^3
#
#
#
# Elastic Constant Matrix: (Units=GPa)
#
#
# Indices 1 2 3 4 5 6 
#
# 1 99.8429 44.3021 42.3254 0.0000 0.0000 0.0000
# 2 44.3021 110.9239 36.3682 0.0000 0.0000 0.0000
# 3 42.3254 36.3682 56.0097 0.0000 0.0000 0.0000
# 4 0.0000 0.0000 0.0000 34.0963 0.0000 0.0000
# 5 0.0000 0.0000 0.0000 0.0000 16.7714 0.0000
# 6 0.0000 0.0000 0.0000 0.0000 0.0000 45.5925
#
#
#
# Elastic Compliance Matrix: (Units=1/GPa)
#
#
# Indices 1 2 3 4 5 6 
#
# 1 0.015475 -0.002981 -0.009759 0.000000 0.000000 0.000000
# 2 -0.002981 0.012028 -0.005557 0.000000 0.000000 0.000000
# 3 -0.009759 -0.005557 0.028837 0.000000 0.000000 0.000000
# 4 0.000000 0.000000 0.000000 0.029329 0.000000 0.000000
# 5 0.000000 0.000000 0.000000 0.000000 0.059625 0.000000
# 6 0.000000 0.000000 0.000000 0.000000 0.000000 0.021933
#
#
# Mechanical properties :
#
#
# Convention : Reuss Voigt Hill
#
# Bulk Modulus (GPa) = 50.64287 56.97420 53.80854
# Shear Modulus (GPa) = 23.76386 28.87744 26.32065
#
# Velocity S-wave (km/s) = 3.55173 3.91526 3.73792
# Velocity P-wave (km/s) = 6.61082 7.11921 6.86972
#
# Compressibility (1/GPa) = 0.01974611
#
# Stress axis : x y z
#
# Youngs Moduli (GPa) = 64.61840 83.14046 34.67788
#
# Poissons Ratio (x) = 0.24786 0.33841
# Poissons Ratio (y) = 0.19264 0.19271
# Poissons Ratio (z) = 0.63059 0.46202
#
# Static dielectric constant tensor:
#      x y z
#    x 1.722630 0.000000 0.000000 
#    y 0.000000 1.717910 0.000000 
#    z 0.000000 0.000000 1.663390 
# 
# From -- ./inp_files/2421.got.cif
#   From: 2010.05.17/outbox.cif.g08.bks.cpg/sg23_2_cif.got.tgz:2421.got - 2010.06.04 12:02:01.
