data_PCOD9329165
_publ_section_title
;
Structure prediction by ZEFSAII (Michael W. Deem and Ramdas Pophale) SiO2 
 PCOD9329165
Probable space group: F 2 2 2
;
_chemical_formula_sum "Si O2"
_cell_formula_units_Z 92
_cell_length_a 9.422520
_cell_length_b 21.375744
_cell_length_c 21.072731
_cell_angle_alpha 90.000000
_cell_angle_beta 90.000000
_cell_angle_gamma 90.000000
_cell_volume 4244.329879
_symmetry_space_group_name_H-M "F 2 2 2"
_symmetry_group_IT_number 22
_symmetry_cell_setting 'orthorhombic'
loop_
_space_group_symop_operation_xyz
x,y,z
-x,-y,z
x,-y,-z
-x,y,-z
x,1/2+y,1/2+z
-x,1/2-y,1/2+z
x,1/2-y,1/2-z
-x,1/2+y,1/2-z
1/2+x,y,1/2+z
1/2-x,-y,1/2+z
1/2+x,-y,1/2-z
1/2-x,y,1/2-z
1/2+x,1/2+y,z
1/2-x,1/2-y,z
1/2+x,1/2-y,-z
1/2-x,1/2+y,-z
loop_
_atom_site_type_symbol
_atom_site_label
_atom_site_fract_x
_atom_site_fract_y
_atom_site_fract_z
Si Si1 0.747560 0.909774 0.157175
Si Si2 0.669267 0.070995 0.988176
Si Si3 0.022252 0.693805 0.815070
Si Si4 0.275740 0.819982 0.086434
Si Si5 0.750000 0.750000 0.250000
Si Si6 0.750000 0.979683 0.750000
Si Si7 0.934941 0.629722 0.694239
O O1 0.709816 0.913129 0.083596
O O2 0.646210 0.858162 0.188233
O O3 0.909722 0.890707 0.169791
O O4 0.709314 0.974380 0.192484
O O5 0.500000 0.070143 0.000000
O O6 0.724427 0.125006 0.034972
O O7 0.722089 0.000000 0.000000
O O8 0.122146 0.753914 0.804406
O O9 0.926595 0.685999 0.876652
O O10 0.927359 0.675865 0.754814
O O11 0.250000 0.750000 0.060505
O O12 0.158577 0.839510 0.138702
O O13 0.868108 0.934247 0.778440
#
# Coordination Sequence:
#
# PCOD9329165 Si02
#       7
#    16  16  16  16   4   8  16
#     4  12  25  44  70 109 141 191 251 307 366 449
#     4  11  26  50  77 105 145 201 255 308 370 447
#     4  12  23  43  69 105 145 187 246 301 380 447
#     4  12  27  49  73 108 152 200 248 314 380 449
#     4  12  22  40  70 108 140 194 234 316 376 456
#     4  12  23  40  75 109 154 185 246 320 396 442
#     4  12  24  43  71 113 146 190 242 312 382 445
#
# _framework density 21.675977
#
# number of rings (size 3 to 8) (size 9 to 14) (size 15 to 20)
#    0.000    0.174    6.957    2.609    0.000    1.391 
#    4.696    0.870    0.000    0.000    0.000    0.000 
#    0.000    0.000    0.000    0.000    0.000    0.000 
#
# Total GULP energy -128279.378954 kJ/mol
# GULP energy per Si atom -5577.364302 kJ/mol
# Density = 2.162664 g / cm^3
# Si number density = 21.675977 Si / 1000 Ang^3
#
#
#
# Elastic Constant Matrix: (Units=GPa)
#
#
# Indices 1 2 3 4 5 6 
#
# 1 97.0081 30.6714 31.8496 0.0000 0.0000 0.0000
# 2 30.6714 142.7210 44.6902 0.0000 0.0000 0.0000
# 3 31.8496 44.6902 146.2669 0.0000 0.0000 0.0000
# 4 0.0000 0.0000 0.0000 -15.4945 0.0000 0.0000
# 5 0.0000 0.0000 0.0000 0.0000 29.8263 0.0000
# 6 0.0000 0.0000 0.0000 0.0000 0.0000 53.8061
#
#
#
# Elastic Compliance Matrix: (Units=1/GPa)
#
#
# Indices 1 2 3 4 5 6 
#
# 1 0.011537 -0.001872 -0.001940 0.000000 0.000000 0.000000
# 2 -0.001872 0.008052 -0.002052 0.000000 0.000000 0.000000
# 3 -0.001940 -0.002052 0.007886 0.000000 0.000000 0.000000
# 4 0.000000 0.000000 0.000000 -0.064539 0.000000 0.000000
# 5 0.000000 0.000000 0.000000 0.000000 0.033528 0.000000
# 6 0.000000 0.000000 0.000000 0.000000 0.000000 0.018585
#
#
# Mechanical properties :
#
#
# Convention : Reuss Voigt Hill
#
# Bulk Modulus (GPa) = 63.50802 66.71317 65.11060
# Shear Modulus (GPa) = 156.11679 32.21321 94.16500
#
# Velocity S-wave (km/s) = 8.49584 3.85921 6.59821
# Velocity P-wave (km/s) = 11.20721 7.12055 9.38892
#
# Compressibility (1/GPa) = 0.01574604
#
# Stress axis : x y z
#
# Youngs Moduli (GPa) = 86.67546 124.19824 126.79988
#
# Poissons Ratio (x) = 0.23248 0.24603
# Poissons Ratio (y) = 0.16224 0.26026
# Poissons Ratio (z) = 0.16818 0.25492
#
# Static dielectric constant tensor:
#      x y z
#    x 1.886360 0.000000 0.000000 
#    y 0.000000 2.054330 0.000000 
#    z 0.000000 0.000000 1.711280 
# 
# From -- ./inp_files/41890.got.cif
#   From: 2010.05.17/outbox.cif.g08.bks.cpg/sg22_21_cif.got.tgz:41890.got - 2010.06.03 23:40:54.
