data_PCOD9329169
_publ_section_title
;
Structure prediction by ZEFSAII (Michael W. Deem and Ramdas Pophale) SiO2 
 PCOD9329169
Probable space group: F 2 2 2
;
_chemical_formula_sum "Si O2"
_cell_formula_units_Z 60
_cell_length_a 22.189964
_cell_length_b 13.012641
_cell_length_c 7.553951
_cell_angle_alpha 90.000000
_cell_angle_beta 90.000000
_cell_angle_gamma 90.000000
_cell_volume 2181.203618
_symmetry_space_group_name_H-M "F 2 2 2"
_symmetry_group_IT_number 22
_symmetry_cell_setting 'orthorhombic'
loop_
_space_group_symop_operation_xyz
x,y,z
-x,-y,z
x,-y,-z
-x,y,-z
x,1/2+y,1/2+z
-x,1/2-y,1/2+z
x,1/2-y,1/2-z
-x,1/2+y,1/2-z
1/2+x,y,1/2+z
1/2-x,-y,1/2+z
1/2+x,-y,1/2-z
1/2-x,y,1/2-z
1/2+x,1/2+y,z
1/2-x,1/2-y,z
1/2+x,1/2-y,-z
1/2-x,1/2+y,-z
loop_
_atom_site_type_symbol
_atom_site_label
_atom_site_fract_x
_atom_site_fract_y
_atom_site_fract_z
Si Si1 0.081224 0.250000 0.250000
Si Si2 0.434682 0.833549 0.096618
Si Si3 0.250000 0.250000 0.750000
Si Si4 0.416718 0.961374 0.684190
Si Si5 0.282756 0.893782 0.570816
O O1 0.048025 0.145768 0.198336
O O2 0.109055 0.204885 0.434287
O O3 0.428390 0.750000 0.250000
O O4 0.578208 0.052308 0.173132
O O5 0.500000 0.831095 0.000000
O O6 0.284089 0.177121 0.605821
O O7 0.348541 0.924325 0.645140
O O8 0.438173 0.000000 0.500000
O O9 0.250000 0.857154 0.750000
O O10 0.253394 0.000000 0.500000
#
# Coordination Sequence:
#
# PCOD9329169 Si02
#       5
#     8  16   4  16  16
#     4  12  26  46  79 115 154 214 263 347 416 500
#     4  12  26  53  81 113 160 214 285 348 418 493
#     4  12  26  48  84 114 160 240 266 342 408 500
#     4  11  27  49  77 121 164 211 275 344 415 499
#     4  11  26  50  78 121 167 218 276 340 410 497
#
# _framework density 27.507746999999998
#
# number of rings (size 3 to 8) (size 9 to 14) (size 15 to 20)
#    0.000    0.533    5.333    1.200    3.733    8.533 
#    0.000    2.667    0.000    0.000    0.000    0.000 
#    0.000    0.000    0.000    0.000    0.000    0.000 
#
# Total GULP energy -83669.696587 kJ/mol
# GULP energy per Si atom -5577.979772 kJ/mol
# Density = 2.744514 g / cm^3
# Si number density = 27.507747 Si / 1000 Ang^3
#
#
#
# Elastic Constant Matrix: (Units=GPa)
#
#
# Indices 1 2 3 4 5 6 
#
# 1 112.8654 31.9075 62.4911 0.0000 0.0000 0.0000
# 2 31.9075 288.1420 153.7537 0.0000 0.0000 0.0000
# 3 62.4911 153.7537 304.3926 0.0000 0.0000 0.0000
# 4 0.0000 0.0000 0.0000 103.9483 0.0000 0.0000
# 5 0.0000 0.0000 0.0000 0.0000 24.0128 0.0000
# 6 0.0000 0.0000 0.0000 0.0000 0.0000 25.4417
#
#
#
# Elastic Compliance Matrix: (Units=1/GPa)
#
#
# Indices 1 2 3 4 5 6 
#
# 1 0.009996 -0.000016 -0.002044 0.000000 0.000000 0.000000
# 2 -0.000016 0.004751 -0.002397 0.000000 0.000000 0.000000
# 3 -0.002044 -0.002397 0.004915 0.000000 0.000000 0.000000
# 4 0.000000 0.000000 0.000000 0.009620 0.000000 0.000000
# 5 0.000000 0.000000 0.000000 0.000000 0.041645 0.000000
# 6 0.000000 0.000000 0.000000 0.000000 0.000000 0.039306
#
#
# Mechanical properties :
#
#
# Convention : Reuss Voigt Hill
#
# Bulk Modulus (GPa) = 93.02923 133.52274 113.27598
# Shear Modulus (GPa) = 40.73987 61.16374 50.95181
#
# Velocity S-wave (km/s) = 3.85259 4.72053 4.30847
# Velocity P-wave (km/s) = 7.32685 8.85193 8.12525
#
# Compressibility (1/GPa) = 0.01074931
#
# Stress axis : x y z
#
# Youngs Moduli (GPa) = 100.03559 210.47732 203.44264
#
# Poissons Ratio (x) = 0.00342 0.41584
# Poissons Ratio (y) = 0.00163 0.48756
# Poissons Ratio (z) = 0.20448 0.50441
#
# Static dielectric constant tensor:
#      x y z
#    x 2.444270 0.000000 0.000000 
#    y 0.000000 4.306650 0.000000 
#    z 0.000000 0.000000 2.460680 
# 
# From -- ./inp_files/14391.got.cif
#   From: 2010.05.17/outbox.cif.g08.bks.cpg/sg22_8_cif.got.tgz:14391.got - 2010.06.03 23:40:54.
