data_PCOD9329524
_publ_section_title
;
Structure prediction by ZEFSAII (Michael W. Deem and Ramdas Pophale) SiO2 
 PCOD9329524
Probable space group: I 2 2 2
;
_chemical_formula_sum "Si O2"
_cell_formula_units_Z 48
_cell_length_a 9.654854
_cell_length_b 25.050231
_cell_length_c 10.150739
_cell_angle_alpha 90.000000
_cell_angle_beta 90.000000
_cell_angle_gamma 90.000000
_cell_volume 2455.020410
_symmetry_space_group_name_H-M "I 2 2 2"
_symmetry_group_IT_number 23
_symmetry_cell_setting 'orthorhombic'
loop_
_space_group_symop_operation_xyz
x,y,z
-x,-y,z
x,-y,-z
-x,y,-z
1/2+x,1/2+y,1/2+z
1/2-x,1/2-y,1/2+z
1/2+x,1/2-y,1/2-z
1/2-x,1/2+y,1/2-z
loop_
_atom_site_type_symbol
_atom_site_label
_atom_site_fract_x
_atom_site_fract_y
_atom_site_fract_z
Si Si1 0.832503 0.560149 0.984855
Si Si2 0.914165 0.249098 0.885791
Si Si3 0.220922 0.328341 0.483134
Si Si4 0.658157 0.859020 0.269900
Si Si5 0.402814 0.283762 0.887963
Si Si6 0.826162 0.352801 0.800757
O O1 0.783166 0.601883 0.096761
O O2 0.779989 0.500000 0.000000
O O3 0.802697 0.586242 0.843270
O O4 0.000000 0.558247 0.000000
O O5 0.981190 0.230271 0.749293
O O6 0.795598 0.292237 0.848257
O O7 0.859549 0.197049 0.959668
O O8 0.000000 0.276945 0.000000
O O9 0.164287 0.358168 0.611510
O O10 0.139092 0.274146 0.444721
O O11 0.227522 0.360457 0.347444
O O12 0.766172 0.815954 0.335082
O O13 0.494754 0.850852 0.296701
O O14 0.500000 0.309805 0.000000
#
# Coordination Sequence:
#
# PCOD9329524 Si02
#       6
#     8   8   8   8   8   8
#     4   9  18  32  50  70  90 117 156 201 247 292
#     4  10  19  30  45  70 102 134 164 195 236 289
#     4  10  19  30  46  70 100 132 162 194 237 290
#     4  10  19  32  48  68  97 129 160 200 245 289
#     4  10  20  30  46  71 100 131 165 199 235 290
#     4  10  18  30  48  69  97 130 163 198 242 290
#
# _framework density 19.551770999999999
#
# number of rings (size 3 to 8) (size 9 to 14) (size 15 to 20)
#    0.000    2.167    0.000    6.000    0.000    4.000 
#    0.000    0.833    0.000    4.500    0.000    0.000 
#    0.000    1.333    0.000    0.000    0.000    0.000 
#
# Total GULP energy -133660.511489 kJ/mol
# GULP energy per Si atom -5569.187979 kJ/mol
# Density = 1.950727 g / cm^3
# Si number density = 19.551771 Si / 1000 Ang^3
#
#
#
# Elastic Constant Matrix: (Units=GPa)
#
#
# Indices 1 2 3 4 5 6 
#
# 1 35.5755 4.5381 27.9957 0.0000 0.0002 0.0000
# 2 4.5381 87.4138 52.7010 0.0000 0.0001 0.0000
# 3 27.9957 52.7010 195.7054 -0.0004 0.0013 -0.0001
# 4 0.0000 0.0000 -0.0004 16.0333 0.0001 0.0000
# 5 0.0002 0.0001 0.0013 0.0001 24.9969 0.0000
# 6 0.0000 0.0000 -0.0001 0.0000 0.0000 12.5865
#
#
#
# Elastic Compliance Matrix: (Units=1/GPa)
#
#
# Indices 1 2 3 4 5 6 
#
# 1 0.031799 0.001303 -0.004900 0.000000 0.000000 0.000000
# 2 0.001303 0.013710 -0.003878 0.000000 0.000000 0.000000
# 3 -0.004900 -0.003878 0.006855 0.000000 0.000000 0.000000
# 4 0.000000 0.000000 0.000000 0.062370 0.000000 0.000000
# 5 0.000000 0.000000 0.000000 0.000000 0.040005 0.000000
# 6 0.000000 0.000000 0.000000 0.000000 0.000000 0.079450
#
#
# Mechanical properties :
#
#
# Convention : Reuss Voigt Hill
#
# Bulk Modulus (GPa) = 26.72778 54.35158 40.53968
# Shear Modulus (GPa) = 19.11233 26.28734 22.69983
#
# Velocity S-wave (km/s) = 3.12993 3.67072 3.41106
# Velocity P-wave (km/s) = 5.17319 6.76940 6.02439
#
# Compressibility (1/GPa) = 0.03741426
#
# Stress axis : x y z
#
# Youngs Moduli (GPa) = 31.44772 72.93681 145.87764
#
# Poissons Ratio (x) = -0.09505 0.71477
# Poissons Ratio (y) = -0.04098 0.56578
# Poissons Ratio (z) = 0.15409 0.28288
#
# Static dielectric constant tensor:
#      x y z
#    x 1.843270 0.000000 0.000000 
#    y 0.000000 1.689730 0.000000 
#    z 0.000000 0.000000 1.799320 
# 
# From -- ./inp_files/8671.got.cif
#   From: 2010.05.17/outbox.cif.g08.bks.cpg/sg23_5_cif.got.tgz:8671.got - 2010.06.04 12:02:01.
