data_PCOD9329576
_publ_section_title
;
Structure prediction by ZEFSAII (Michael W. Deem and Ramdas Pophale) SiO2 
 PCOD9329576
Probable space group: I 2 2 2
;
_chemical_formula_sum "Si O2"
_cell_formula_units_Z 48
_cell_length_a 29.250755
_cell_length_b 8.275838
_cell_length_c 10.175273
_cell_angle_alpha 90.000000
_cell_angle_beta 90.000000
_cell_angle_gamma 90.000000
_cell_volume 2463.174223
_symmetry_space_group_name_H-M "I 2 2 2"
_symmetry_group_IT_number 23
_symmetry_cell_setting 'orthorhombic'
loop_
_space_group_symop_operation_xyz
x,y,z
-x,-y,z
x,-y,-z
-x,y,-z
1/2+x,1/2+y,1/2+z
1/2-x,1/2-y,1/2+z
1/2+x,1/2-y,1/2-z
1/2-x,1/2+y,1/2-z
loop_
_atom_site_type_symbol
_atom_site_label
_atom_site_fract_x
_atom_site_fract_y
_atom_site_fract_z
Si Si1 0.515588 0.326592 0.656883
Si Si2 0.699339 0.885123 0.126979
Si Si3 0.775906 0.613868 0.127795
Si Si4 0.561129 0.110210 0.367319
Si Si5 0.111596 0.318708 0.764644
Si Si6 0.641607 0.311385 0.470152
O O1 0.500000 0.500000 0.706705
O O2 0.500000 0.325735 0.500000
O O3 0.484074 0.177554 0.699908
O O4 0.567327 0.294798 0.704906
O O5 0.731545 0.727860 0.128085
O O6 0.647267 0.820170 0.146396
O O7 0.715599 0.000161 0.247036
O O8 0.703342 0.000000 0.000000
O O9 0.818250 0.738708 0.116508
O O10 0.774565 0.500000 0.000000
O O11 0.592988 0.261101 0.408168
O O12 0.553329 0.000000 0.500000
O O13 0.590640 0.996457 0.275211
O O14 0.142715 0.283525 0.892077
O O15 0.645074 0.500000 0.500000
#
# Coordination Sequence:
#
# PCOD9329576 Si02
#       6
#     8   8   8   8   8   8
#     4  11  20  31  53  96 133 162 211 278 345 394
#     4  12  27  45  66  98 136 178 227 278 344 410
#     4  12  24  47  68  97 130 175 231 282 327 399
#     4  10  18  32  54  88 130 161 209 265 329 386
#     4  11  22  38  61  92 133 172 217 273 341 403
#     4  11  20  34  63  97 130 168 215 279 329 384
#
# _framework density 19.487051000000001
#
# number of rings (size 3 to 8) (size 9 to 14) (size 15 to 20)
#    0.000    0.833    6.667    3.500    2.333    0.000 
#    0.000    0.000    0.000    2.000    0.000    1.167 
#    0.000    0.000    0.000    0.000    0.000    0.000 
#
# Total GULP energy -133802.810120 kJ/mol
# GULP energy per Si atom -5575.117088 kJ/mol
# Density = 1.944270 g / cm^3
# Si number density = 19.487051 Si / 1000 Ang^3
#
#
#
# Elastic Constant Matrix: (Units=GPa)
#
#
# Indices 1 2 3 4 5 6 
#
# 1 146.4362 69.7967 35.9514 0.0000 0.0000 0.0000
# 2 69.7967 124.6354 30.5983 0.0000 0.0000 0.0000
# 3 35.9514 30.5983 70.7958 0.0000 0.0000 0.0000
# 4 0.0000 0.0000 0.0000 13.8325 0.0000 0.0000
# 5 0.0000 0.0000 0.0000 0.0000 19.4457 0.0000
# 6 0.0000 0.0000 0.0000 0.0000 0.0000 17.2454
#
#
#
# Elastic Compliance Matrix: (Units=1/GPa)
#
#
# Indices 1 2 3 4 5 6 
#
# 1 0.009828 -0.004786 -0.002922 0.000000 0.000000 0.000000
# 2 -0.004786 0.011307 -0.002456 0.000000 0.000000 0.000000
# 3 -0.002922 -0.002456 0.016671 0.000000 0.000000 0.000000
# 4 0.000000 0.000000 0.000000 0.072294 0.000000 0.000000
# 5 0.000000 0.000000 0.000000 0.000000 0.051425 0.000000
# 6 0.000000 0.000000 0.000000 0.000000 0.000000 0.057986
#
#
# Mechanical properties :
#
#
# Convention : Reuss Voigt Hill
#
# Bulk Modulus (GPa) = 57.22162 68.28447 62.75305
# Shear Modulus (GPa) = 20.35299 23.80613 22.07956
#
# Velocity S-wave (km/s) = 3.23528 3.49899 3.36971
# Velocity P-wave (km/s) = 6.58663 7.17223 6.88566
#
# Compressibility (1/GPa) = 0.01747591
#
# Stress axis : x y z
#
# Youngs Moduli (GPa) = 101.75499 88.44312 59.98577
#
# Poissons Ratio (x) = 0.42330 0.17528
# Poissons Ratio (y) = 0.48701 0.14734
# Poissons Ratio (z) = 0.29733 0.21725
#
# Static dielectric constant tensor:
#      x y z
#    x 1.759450 0.000000 0.000000 
#    y 0.000000 1.708060 0.000000 
#    z 0.000000 0.000000 1.694100 
# 
# From -- ./inp_files/18746.got.cif
#   From: 2010.05.17/outbox.cif.g08.bks.cpg/sg23_10_cif.got.tgz:18746.got - 2010.06.04 12:02:01.
