data_PCOD9329847
_publ_section_title
;
Structure prediction by ZEFSAII (Michael W. Deem and Ramdas Pophale) SiO2 
 PCOD9329847
Probable space group: I 2 2 2
;
_chemical_formula_sum "Si O2"
_cell_formula_units_Z 64
_cell_length_a 27.846036
_cell_length_b 13.151260
_cell_length_c 7.360704
_cell_angle_alpha 90.000000
_cell_angle_beta 90.000000
_cell_angle_gamma 90.000000
_cell_volume 2695.566793
_symmetry_space_group_name_H-M "I 2 2 2"
_symmetry_group_IT_number 23
_symmetry_cell_setting 'orthorhombic'
loop_
_space_group_symop_operation_xyz
x,y,z
-x,-y,z
x,-y,-z
-x,y,-z
1/2+x,1/2+y,1/2+z
1/2-x,1/2-y,1/2+z
1/2+x,1/2-y,1/2-z
1/2-x,1/2+y,1/2-z
loop_
_atom_site_type_symbol
_atom_site_label
_atom_site_fract_x
_atom_site_fract_y
_atom_site_fract_z
Si Si1 0.779912 0.111042 0.323505
Si Si2 0.875138 0.140644 0.841504
Si Si3 0.445329 0.778822 0.813898
Si Si4 0.272767 0.710496 0.425754
Si Si5 0.107045 0.480998 0.720529
Si Si6 0.615674 0.583283 0.234712
Si Si7 0.051646 0.317803 0.255212
Si Si8 0.212896 0.547214 0.297630
O O1 0.740232 0.172122 0.435296
O O2 0.835628 0.112425 0.372399
O O3 0.759555 0.998520 0.298500
O O4 0.777200 0.158421 0.120376
O O5 0.821283 0.185190 0.815970
O O6 0.913042 0.230543 0.815354
O O7 0.889334 0.039313 0.727290
O O8 0.876042 0.106344 0.051686
O O9 0.426056 0.663327 0.811561
O O10 0.496100 0.794506 0.714296
O O11 0.410547 0.866796 0.737744
O O12 0.448220 0.808480 0.025583
O O13 0.224536 0.663766 0.336082
O O14 0.107514 0.500000 0.500000
O O15 0.072593 0.570745 0.792824
O O16 0.162145 0.483942 0.783763
O O17 0.212082 0.500000 0.500000
#
# Coordination Sequence:
#
# PCOD9329847 Si02
#       8
#     8   8   8   8   8   8   8   8
#     4  10  19  33  53  78 108 142 178 218 263 317
#     4  10  21  38  57  79 113 153 190 228 275 335
#     4  10  21  37  58  84 111 142 187 241 289 333
#     4  10  19  33  53  78 108 142 178 218 263 317
#     4   9  17  32  56  84 112 141 177 226 284 343
#     4  10  21  38  57  79 113 153 190 228 275 335
#     4  10  21  37  58  84 111 142 187 241 289 333
#     4   9  16  29  51  76 103 137 172 203 256 323
#
# _framework density 23.742687
#
# number of rings (size 3 to 8) (size 9 to 14) (size 15 to 20)
#    0.000    2.250    1.250    1.875    0.000    6.000 
#    0.000    3.750    0.000    6.000    0.000    0.000 
#    0.000    0.000    0.000    0.000    0.000    0.000 
#
# Total GULP energy -178695.851433 kJ/mol
# GULP energy per Si atom -5584.245357 kJ/mol
# Density = 2.368865 g / cm^3
# Si number density = 23.742687 Si / 1000 Ang^3
#
#
#
# Elastic Constant Matrix: (Units=GPa)
#
#
# Indices 1 2 3 4 5 6 
#
# 1 118.9853 26.7453 2.2701 0.0000 0.0000 0.0000
# 2 26.7453 101.2066 -3.9611 0.0000 0.0000 0.0000
# 3 2.2701 -3.9611 56.3552 0.0000 0.0000 0.0000
# 4 0.0000 0.0000 0.0000 32.6602 0.0000 0.0000
# 5 0.0000 0.0000 0.0000 0.0000 12.6294 0.0000
# 6 0.0000 0.0000 0.0000 0.0000 0.0000 35.1558
#
#
#
# Elastic Compliance Matrix: (Units=1/GPa)
#
#
# Indices 1 2 3 4 5 6 
#
# 1 0.008951 -0.002386 -0.000528 0.000000 0.000000 0.000000
# 2 -0.002386 0.010544 0.000837 0.000000 0.000000 0.000000
# 3 -0.000528 0.000837 0.017825 0.000000 0.000000 0.000000
# 4 0.000000 0.000000 0.000000 0.030618 0.000000 0.000000
# 5 0.000000 0.000000 0.000000 0.000000 0.079180 0.000000
# 6 0.000000 0.000000 0.000000 0.000000 0.000000 0.028445
#
#
# Mechanical properties :
#
#
# Convention : Reuss Voigt Hill
#
# Bulk Modulus (GPa) = 30.15183 36.29504 33.22344
# Shear Modulus (GPa) = 26.20927 32.85527 29.53227
#
# Velocity S-wave (km/s) = 3.32609 3.72399 3.53065
# Velocity P-wave (km/s) = 5.24189 5.81471 5.53571
#
# Compressibility (1/GPa) = 0.03316548
#
# Stress axis : x y z
#
# Youngs Moduli (GPa) = 111.72172 94.83976 56.10190
#
# Poissons Ratio (x) = 0.22629 0.02964
# Poissons Ratio (y) = 0.26657 -0.04697
# Poissons Ratio (z) = 0.05902 -0.07940
#
# Static dielectric constant tensor:
#      x y z
#    x 1.872100 0.000000 0.000000 
#    y 0.000000 1.870580 0.000000 
#    z 0.000000 0.000000 2.018030 
# 
# From -- ./inp_files/8948.got.cif
#   From: 2010.05.17/outbox.cif.g08.bks.cpg/sg23_5_cif.got.tgz:8948.got - 2010.06.04 12:02:01.
