data_PCOD9329513
_publ_section_title
;
Structure prediction by ZEFSAII (Michael W. Deem and Ramdas Pophale) SiO2 
 PCOD9329513
Probable space group: I 2 2 2
;
_chemical_formula_sum "Si O2"
_cell_formula_units_Z 40
_cell_length_a 30.794005
_cell_length_b 12.234198
_cell_length_c 5.444064
_cell_angle_alpha 90.000000
_cell_angle_beta 90.000000
_cell_angle_gamma 90.000000
_cell_volume 2050.996423
_symmetry_space_group_name_H-M "I 2 2 2"
_symmetry_group_IT_number 23
_symmetry_cell_setting 'orthorhombic'
loop_
_space_group_symop_operation_xyz
x,y,z
-x,-y,z
x,-y,-z
-x,y,-z
1/2+x,1/2+y,1/2+z
1/2-x,1/2-y,1/2+z
1/2+x,1/2-y,1/2-z
1/2-x,1/2+y,1/2-z
loop_
_atom_site_type_symbol
_atom_site_label
_atom_site_fract_x
_atom_site_fract_y
_atom_site_fract_z
Si Si1 0.802771 0.500000 0.500000
Si Si2 0.800770 0.180331 0.828032
Si Si3 0.584616 0.000000 0.500000
Si Si4 0.630676 0.163339 0.137234
Si Si5 0.235821 0.112465 0.674947
Si Si6 0.954972 0.624857 0.605026
O O1 0.832528 0.392876 0.466546
O O2 0.772211 0.525876 0.268606
O O3 0.846581 0.239173 0.780212
O O4 0.796373 0.123038 0.091430
O O5 0.764536 0.276293 0.838414
O O6 0.789438 0.110281 0.584055
O O7 0.616014 0.935104 0.683619
O O8 0.553640 0.905452 0.387637
O O9 0.587071 0.189142 0.989231
O O10 0.952744 0.500000 0.500000
O O11 0.000000 0.669548 0.500000
#
# Coordination Sequence:
#
# PCOD9329513 Si02
#       6
#     4   8   4   8   8   8
#     4  10  18  32  45  68  90 118 169 200 234 280
#     4   9  19  32  44  63  90 121 154 194 251 280
#     4  10  18  29  48  66  86 134 158 214 232 284
#     4  10  19  29  45  68  89 122 164 201 234 290
#     4   9  19  31  45  63  89 120 154 203 237 283
#     4   9  18  30  41  65  90 116 158 194 237 274
#
# _framework density 19.502715999999999
#
# number of rings (size 3 to 8) (size 9 to 14) (size 15 to 20)
#    0.000    2.600    3.000    0.000    2.800   12.000 
#    0.000    0.000    0.000    0.000    0.000    0.000 
#    0.000    0.000    0.000    5.400    0.000    0.000 
#
# Total GULP energy -111414.176531 kJ/mol
# GULP energy per Si atom -5570.708827 kJ/mol
# Density = 1.945833 g / cm^3
# Si number density = 19.502716 Si / 1000 Ang^3
#
#
#
# Elastic Constant Matrix: (Units=GPa)
#
#
# Indices 1 2 3 4 5 6 
#
# 1 133.4702 22.8728 43.4132 -0.0004 0.0000 -0.0002
# 2 22.8728 24.7948 14.3527 -0.0001 0.0000 -0.0001
# 3 43.4132 14.3527 103.9355 -0.0006 -0.0010 0.0001
# 4 -0.0004 -0.0001 -0.0006 21.3369 -0.0002 0.0002
# 5 0.0000 0.0000 -0.0010 -0.0002 14.2972 0.0000
# 6 -0.0002 -0.0001 0.0001 0.0002 0.0000 16.1451
#
#
#
# Elastic Compliance Matrix: (Units=1/GPa)
#
#
# Indices 1 2 3 4 5 6 
#
# 1 0.009723 -0.007193 -0.003068 0.000000 0.000000 0.000000
# 2 -0.007193 0.049157 -0.003784 0.000000 0.000000 0.000000
# 3 -0.003068 -0.003784 0.011425 0.000000 0.000001 0.000000
# 4 0.000000 0.000000 0.000000 0.046867 0.000001 -0.000001
# 5 0.000000 0.000000 0.000001 0.000001 0.069944 0.000000
# 6 0.000000 0.000000 0.000000 -0.000001 0.000000 0.061938
#
#
# Mechanical properties :
#
#
# Convention : Reuss Voigt Hill
#
# Bulk Modulus (GPa) = 23.68793 47.05311 35.37052
# Shear Modulus (GPa) = 17.16939 22.45996 19.81467
#
# Velocity S-wave (km/s) = 2.97030 3.39725 3.19093
# Velocity P-wave (km/s) = 4.89244 6.29025 5.63485
#
# Compressibility (1/GPa) = 0.04221559
#
# Stress axis : x y z
#
# Youngs Moduli (GPa) = 102.84991 20.34294 87.52539
#
# Poissons Ratio (x) = 0.14633 0.26851
# Poissons Ratio (y) = 0.73984 0.33116
# Poissons Ratio (z) = 0.31553 0.07697
#
# Static dielectric constant tensor:
#      x y z
#    x 1.714190 0.000000 0.000000 
#    y 0.000000 1.769480 0.000000 
#    z 0.000000 0.000000 1.879910 
# 
# From -- ./inp_files/5302.got.cif
#   From: 2010.05.17/outbox.cif.g08.bks.cpg/sg23_3_cif.got.tgz:5302.got - 2010.06.04 12:02:01.
