data_PCOD9329185
_publ_section_title
;
Structure prediction by ZEFSAII (Michael W. Deem and Ramdas Pophale) SiO2 
 PCOD9329185
Probable space group: F 2 2 2
;
_chemical_formula_sum "Si O2"
_cell_formula_units_Z 72
_cell_length_a 9.640679
_cell_length_b 12.642795
_cell_length_c 26.215014
_cell_angle_alpha 90.000000
_cell_angle_beta 90.000000
_cell_angle_gamma 90.000000
_cell_volume 3195.220344
_symmetry_space_group_name_H-M "F 2 2 2"
_symmetry_group_IT_number 22
_symmetry_cell_setting 'orthorhombic'
loop_
_space_group_symop_operation_xyz
x,y,z
-x,-y,z
x,-y,-z
-x,y,-z
x,1/2+y,1/2+z
-x,1/2-y,1/2+z
x,1/2-y,1/2-z
-x,1/2+y,1/2-z
1/2+x,y,1/2+z
1/2-x,-y,1/2+z
1/2+x,-y,1/2-z
1/2-x,y,1/2-z
1/2+x,1/2+y,z
1/2-x,1/2-y,z
1/2+x,1/2-y,-z
1/2-x,1/2+y,-z
loop_
_atom_site_type_symbol
_atom_site_label
_atom_site_fract_x
_atom_site_fract_y
_atom_site_fract_z
Si Si1 0.612051 0.799919 0.039606
Si Si2 0.591238 0.223296 0.690222
Si Si3 0.099968 0.700842 0.110905
Si Si4 0.500000 0.000000 0.638726
Si Si5 0.743136 0.494860 0.437334
O O1 0.750000 0.750000 0.014905
O O2 0.509557 0.732618 0.075281
O O3 0.676700 0.891529 0.073042
O O4 0.500000 0.840454 0.000000
O O5 0.584893 0.250000 0.750000
O O6 0.750000 0.250000 0.674026
O O7 0.482723 0.302114 0.663004
O O8 0.542363 0.103748 0.673165
O O9 0.250000 0.750000 0.117950
O O10 0.135287 0.592752 0.081847
O O11 0.373338 0.019862 0.599502
O O12 0.768181 0.500000 0.500000
#
# Coordination Sequence:
#
# PCOD9329185 Si02
#       5
#    16  16  16   8  16
#     4  12  26  43  69 103 154 208 258 320 394 472
#     4  11  27  56  82 116 159 208 275 349 415 478
#     4  12  24  47  73 109 155 197 258 327 393 477
#     4  12  25  52  82 120 152 218 265 330 414 496
#     4  12  26  44  73 112 161 203 264 313 394 489
#
# _framework density 22.533657999999999
#
# number of rings (size 3 to 8) (size 9 to 14) (size 15 to 20)
#    0.000    0.222    4.444    5.000    0.000    0.444 
#   12.000    0.000    0.000    0.000    0.000    0.000 
#    0.000    0.000    0.000    0.000    0.000    0.000 
#
# Total GULP energy -100300.104480 kJ/mol
# GULP energy per Si atom -5572.228027 kJ/mol
# Density = 2.248237 g / cm^3
# Si number density = 22.533658 Si / 1000 Ang^3
#
#
#
# Elastic Constant Matrix: (Units=GPa)
#
#
# Indices 1 2 3 4 5 6 
#
# 1 210.3676 58.9019 78.1890 0.0000 0.0000 0.0000
# 2 58.9019 122.1920 60.0215 0.0000 0.0000 0.0000
# 3 78.1890 60.0215 143.6078 0.0000 0.0000 0.0000
# 4 0.0000 0.0000 0.0000 30.5572 0.0000 0.0000
# 5 0.0000 0.0000 0.0000 0.0000 43.8684 0.0000
# 6 0.0000 0.0000 0.0000 0.0000 0.0000 39.6187
#
#
#
# Elastic Compliance Matrix: (Units=1/GPa)
#
#
# Indices 1 2 3 4 5 6 
#
# 1 0.006222 -0.001680 -0.002685 0.000000 0.000000 0.000000
# 2 -0.001680 0.010752 -0.003579 0.000000 0.000000 0.000000
# 3 -0.002685 -0.003579 0.009921 0.000000 0.000000 0.000000
# 4 0.000000 0.000000 0.000000 0.032726 0.000000 0.000000
# 5 0.000000 0.000000 0.000000 0.000000 0.022795 0.000000
# 6 0.000000 0.000000 0.000000 0.000000 0.000000 0.025241
#
#
# Mechanical properties :
#
#
# Convention : Reuss Voigt Hill
#
# Bulk Modulus (GPa) = 90.85910 96.71025 93.78468
# Shear Modulus (GPa) = 39.30359 41.41254 40.35806
#
# Velocity S-wave (km/s) = 4.18091 4.29162 4.23663
# Velocity P-wave (km/s) = 7.98221 8.22001 8.10199
#
# Compressibility (1/GPa) = 0.01100605
#
# Stress axis : x y z
#
# Youngs Moduli (GPa) = 160.71553 93.00783 100.79242
#
# Poissons Ratio (x) = 0.15628 0.27068
# Poissons Ratio (y) = 0.27004 0.36073
# Poissons Ratio (z) = 0.43160 0.33287
#
# Static dielectric constant tensor:
#      x y z
#    x 1.863280 0.000000 0.000000 
#    y 0.000000 1.936830 0.000000 
#    z 0.000000 0.000000 1.912760 
# 
# From -- ./inp_files/51683.got.cif
#   From: 2010.05.17/outbox.cif.g08.bks.cpg/sg22_26_cif.got.tgz:51683.got - 2010.06.03 23:40:54.
