data_PCOD9329908
_publ_section_title
;
Structure prediction by ZEFSAII (Michael W. Deem and Ramdas Pophale) SiO2 
 PCOD9329908
Probable space group: I 2 2 2
;
_chemical_formula_sum "Si O2"
_cell_formula_units_Z 64
_cell_length_a 5.063274
_cell_length_b 17.993274
_cell_length_c 34.331407
_cell_angle_alpha 90.000000
_cell_angle_beta 90.000000
_cell_angle_gamma 90.000000
_cell_volume 3127.758592
_symmetry_space_group_name_H-M "I 2 2 2"
_symmetry_group_IT_number 23
_symmetry_cell_setting 'orthorhombic'
loop_
_space_group_symop_operation_xyz
x,y,z
-x,-y,z
x,-y,-z
-x,y,-z
1/2+x,1/2+y,1/2+z
1/2-x,1/2-y,1/2+z
1/2+x,1/2-y,1/2-z
1/2-x,1/2+y,1/2-z
loop_
_atom_site_type_symbol
_atom_site_label
_atom_site_fract_x
_atom_site_fract_y
_atom_site_fract_z
Si Si1 0.519125 0.195514 0.614348
Si Si2 0.007938 0.680098 0.713483
Si Si3 0.740857 0.535210 0.956740
Si Si4 0.514543 0.679348 0.066025
Si Si5 0.516071 0.779665 0.699832
Si Si6 0.258247 0.454432 0.666719
Si Si7 0.475197 0.851935 0.955149
Si Si8 0.014615 0.869398 0.094963
O O1 0.818743 0.180529 0.602608
O O2 0.492738 0.176506 0.659437
O O3 0.486612 0.284553 0.609929
O O4 0.307122 0.163240 0.583020
O O5 0.804181 0.743985 0.701497
O O6 0.987607 0.674545 0.760267
O O7 0.889191 0.607573 0.692906
O O8 0.295890 0.712680 0.701419
O O9 0.500000 0.500000 0.933453
O O10 0.647459 0.620202 0.960281
O O11 0.000000 0.500000 0.938347
O O12 0.746890 0.500000 0.000000
O O13 0.516728 0.761316 0.047431
O O14 0.500000 0.500000 0.687318
O O15 0.419396 0.418851 0.630763
O O16 0.000000 0.500000 0.652705
O O17 0.196075 0.878394 0.939273
O O18 0.700077 0.878841 0.924846
O O19 0.500000 0.873848 0.000000
#
# Coordination Sequence:
#
# PCOD9329908 Si02
#       8
#     8   8   8   8   8   8   8   8
#     4  10  19  34  59  83 121 152 187 261 293 354
#     4  10  21  35  58  92 126 155 204 235 303 361
#     4  10  21  36  53  75 111 159 188 250 288 351
#     4  10  21  34  54  88 113 151 205 237 311 356
#     4  10  19  35  61  89 123 161 189 259 301 347
#     4  12  24  38  62  90 129 166 199 246 290 372
#     4  10  21  36  59  86 117 151 185 263 305 357
#     4  10  21  37  57  85 122 154 195 238 309 354
#
# _framework density 20.461939999999998
#
# number of rings (size 3 to 8) (size 9 to 14) (size 15 to 20)
#    0.000    1.750    1.250    3.375    5.250    0.000 
#    4.500    0.000    0.000    8.625    0.000    0.000 
#    0.000    0.000    0.000    0.000    0.000    0.000 
#
# Total GULP energy -178219.277511 kJ/mol
# GULP energy per Si atom -5569.352422 kJ/mol
# Density = 2.041537 g / cm^3
# Si number density = 20.461940 Si / 1000 Ang^3
#
#
#
# Elastic Constant Matrix: (Units=GPa)
#
#
# Indices 1 2 3 4 5 6 
#
# 1 97.0675 1.3606 -13.9192 0.0000 0.0000 0.0000
# 2 1.3606 45.3452 6.5773 0.0000 0.0000 0.0000
# 3 -13.9192 6.5773 77.8601 0.0000 0.0000 0.0000
# 4 0.0000 0.0000 0.0000 11.1126 0.0000 0.0000
# 5 0.0000 0.0000 0.0000 0.0000 18.4110 0.0000
# 6 0.0000 0.0000 0.0000 0.0000 0.0000 23.9731
#
#
#
# Elastic Compliance Matrix: (Units=1/GPa)
#
#
# Indices 1 2 3 4 5 6 
#
# 1 0.010589 -0.000600 0.001944 0.000000 0.000000 0.000000
# 2 -0.000600 0.022361 -0.001996 0.000000 0.000000 0.000000
# 3 0.001944 -0.001996 0.013360 0.000000 0.000000 0.000000
# 4 0.000000 0.000000 0.000000 0.089988 0.000000 0.000000
# 5 0.000000 0.000000 0.000000 0.000000 0.054315 0.000000
# 6 0.000000 0.000000 0.000000 0.000000 0.000000 0.041713
#
#
# Mechanical properties :
#
#
# Convention : Reuss Voigt Hill
#
# Bulk Modulus (GPa) = 22.21961 23.14559 22.68260
# Shear Modulus (GPa) = 20.11001 25.78293 22.94647
#
# Velocity S-wave (km/s) = 3.13837 3.55356 3.35240
# Velocity P-wave (km/s) = 4.90051 5.30784 5.10824
#
# Compressibility (1/GPa) = 0.04500530
#
# Stress axis : x y z
#
# Youngs Moduli (GPa) = 94.43556 44.72151 74.85222
#
# Poissons Ratio (x) = 0.02682 -0.14549
# Poissons Ratio (y) = 0.05663 0.14942
# Poissons Ratio (z) = -0.18356 0.08927
#
# Static dielectric constant tensor:
#      x y z
#    x 1.819380 0.000000 0.000000 
#    y 0.000000 1.883570 0.000000 
#    z 0.000000 0.000000 1.729800 
# 
# From -- ./inp_files/30034.got.cif
#   From: 2010.05.17/outbox.cif.g08.bks.cpg/sg23_16_cif.got.tgz:30034.got - 2010.06.04 12:02:01.
