data_PCOD9329241
_publ_section_title
;
Structure prediction by ZEFSAII (Michael W. Deem and Ramdas Pophale) SiO2 
 PCOD9329241
Probable space group: F 2 2 2
;
_chemical_formula_sum "Si O2"
_cell_formula_units_Z 84
_cell_length_a 22.844962
_cell_length_b 29.291812
_cell_length_c 5.449447
_cell_angle_alpha 90.000000
_cell_angle_beta 90.000000
_cell_angle_gamma 90.000000
_cell_volume 3646.608258
_symmetry_space_group_name_H-M "F 2 2 2"
_symmetry_group_IT_number 22
_symmetry_cell_setting 'orthorhombic'
loop_
_space_group_symop_operation_xyz
x,y,z
-x,-y,z
x,-y,-z
-x,y,-z
x,1/2+y,1/2+z
-x,1/2-y,1/2+z
x,1/2-y,1/2-z
-x,1/2+y,1/2-z
1/2+x,y,1/2+z
1/2-x,-y,1/2+z
1/2+x,-y,1/2-z
1/2-x,y,1/2-z
1/2+x,1/2+y,z
1/2-x,1/2-y,z
1/2+x,1/2-y,-z
1/2-x,1/2+y,-z
loop_
_atom_site_type_symbol
_atom_site_label
_atom_site_fract_x
_atom_site_fract_y
_atom_site_fract_z
Si Si1 0.438200 0.750000 0.750000
Si Si2 0.865864 0.471151 0.250115
Si Si3 0.250000 0.351785 0.250000
Si Si4 0.000000 0.328245 0.000000
Si Si5 0.750000 0.750000 0.750000
Si Si6 0.750000 0.410615 0.250000
Si Si7 0.062668 0.383565 0.643739
Si Si8 0.653063 0.807454 0.469695
O O1 0.477481 0.706592 0.701716
O O2 0.394016 0.766861 0.543565
O O3 0.858649 0.500000 0.500000
O O4 0.806752 0.442072 0.214235
O O5 0.916573 0.434684 0.309987
O O6 0.876529 0.500000 0.000000
O O7 0.243639 0.381311 0.499114
O O8 0.309746 0.322255 0.271480
O O9 0.050853 0.359895 0.904513
O O10 0.705986 0.785273 0.618754
O O11 0.114570 0.352163 0.534074
O O12 0.000000 0.382020 0.500000
#
# Coordination Sequence:
#
# PCOD9329241 Si02
#       8
#     8  16   8   8   4   8  16  16
#     4  12  24  42  72 108 155 203 268 322 378 462
#     4  12  29  52  84 119 154 198 261 334 405 483
#     4  12  26  44  80 115 153 212 252 322 392 482
#     4  12  26  46  75 106 156 214 263 326 390 478
#     4  12  26  48  72 120 162 214 270 344 392 464
#     4  12  25  49  82 115 157 196 261 319 408 478
#     4  12  28  51  78 112 156 214 262 329 405 491
#     4  12  25  46  74 115 160 208 269 327 398 472
#
# _framework density 23.035104
#
# number of rings (size 3 to 8) (size 9 to 14) (size 15 to 20)
#    0.000    0.000    3.810    5.714    5.333    0.381 
#    0.000    0.000    0.000    0.000    0.000    0.000 
#    0.000    0.000    0.000    0.000    0.000    0.000 
#
# Total GULP energy -117301.476481 kJ/mol
# GULP energy per Si atom -5585.784594 kJ/mol
# Density = 2.298268 g / cm^3
# Si number density = 23.035104 Si / 1000 Ang^3
#
#
#
# Elastic Constant Matrix: (Units=GPa)
#
#
# Indices 1 2 3 4 5 6 
#
# 1 133.5756 45.0601 30.5206 -0.3113 0.1970 0.2412
# 2 45.0601 115.4496 40.2081 -0.0693 0.0231 -0.0309
# 3 30.5206 40.2081 92.6145 -0.0852 0.0268 0.2020
# 4 -0.3113 -0.0693 -0.0852 35.8116 -0.1039 0.2707
# 5 0.1970 0.0231 0.0268 -0.1039 40.7254 -0.3702
# 6 0.2412 -0.0309 0.2020 0.2707 -0.3702 111.5176
#
#
#
# Elastic Compliance Matrix: (Units=1/GPa)
#
#
# Indices 1 2 3 4 5 6 
#
# 1 0.008835 -0.002868 -0.001666 0.000067 -0.000040 -0.000017
# 2 -0.002868 0.011136 -0.003889 -0.000013 0.000010 0.000016
# 3 -0.001666 -0.003889 0.013035 0.000009 0.000002 -0.000021
# 4 0.000067 -0.000013 0.000009 0.027925 0.000070 -0.000068
# 5 -0.000040 0.000010 0.000002 0.000070 0.024556 0.000081
# 6 -0.000017 0.000016 -0.000021 -0.000068 0.000081 0.008968
#
#
# Mechanical properties :
#
#
# Convention : Reuss Voigt Hill
#
# Bulk Modulus (GPa) = 61.88698 63.69081 62.78889
# Shear Modulus (GPa) = 42.84936 52.66766 47.75851
#
# Velocity S-wave (km/s) = 4.31766 4.78683 4.55828
# Velocity P-wave (km/s) = 7.19589 7.63290 7.41761
#
# Compressibility (1/GPa) = 0.01615849
#
# Stress axis : x y z
#
# Youngs Moduli (GPa) = 113.18856 89.80112 76.71525
#
# Poissons Ratio (x) = 0.25754 0.12783
# Poissons Ratio (y) = 0.32461 0.29838
# Poissons Ratio (z) = 0.18860 0.34928
#
# Static dielectric constant tensor:
#      x y z
#    x 1.885000 0.000280 0.000040 
#    y 0.000280 1.868880 0.000360 
#    z 0.000040 0.000360 1.876810 
# 
# From -- ./inp_files/4930.got.cif
#   From: 2010.05.17/outbox.cif.g08.bks.cpg/sg22_3_cif.got.tgz:4930.got - 2010.06.03 23:40:54.
