data_PCOD9329055
_publ_section_title
;
Structure prediction by ZEFSAII (Michael W. Deem and Ramdas Pophale) SiO2 
 PCOD9329055
Probable space group: F 2 2 2
;
_chemical_formula_sum "Si O2"
_cell_formula_units_Z 64
_cell_length_a 8.298648
_cell_length_b 20.858594
_cell_length_c 17.877184
_cell_angle_alpha 90.000000
_cell_angle_beta 90.000000
_cell_angle_gamma 90.000000
_cell_volume 3094.507109
_symmetry_space_group_name_H-M "F 2 2 2"
_symmetry_group_IT_number 22
_symmetry_cell_setting 'orthorhombic'
loop_
_space_group_symop_operation_xyz
x,y,z
-x,-y,z
x,-y,-z
-x,y,-z
x,1/2+y,1/2+z
-x,1/2-y,1/2+z
x,1/2-y,1/2-z
-x,1/2+y,1/2-z
1/2+x,y,1/2+z
1/2-x,-y,1/2+z
1/2+x,-y,1/2-z
1/2-x,y,1/2-z
1/2+x,1/2+y,z
1/2-x,1/2-y,z
1/2+x,1/2-y,-z
1/2-x,1/2+y,-z
loop_
_atom_site_type_symbol
_atom_site_label
_atom_site_fract_x
_atom_site_fract_y
_atom_site_fract_z
Si Si1 0.133225 0.943335 0.318002
Si Si2 0.187919 0.432865 0.523874
Si Si3 0.161409 0.688383 0.956874
Si Si4 0.423358 0.683215 0.713005
O O1 0.250000 0.964449 0.250000
O O2 0.246411 0.926069 0.390563
O O3 0.040306 0.878440 0.290765
O O4 0.000000 0.000000 0.332991
O O5 0.264280 0.500000 0.500000
O O6 0.241373 0.375259 0.471397
O O7 0.000000 0.436695 0.500000
O O8 0.250000 0.750000 0.988884
O O9 0.118543 0.699951 0.871809
O O10 0.000000 0.677803 0.000000
O O11 0.485050 0.750000 0.750000
O O12 0.250000 0.666878 0.750000
#
# Coordination Sequence:
#
# PCOD9329055 Si02
#       4
#    16  16  16  16
#     4  12  28  47  75 111 151 196 252 306 377 449
#     4  11  27  47  75 106 148 191 250 311 375 440
#     4  12  24  44  72 106 143 195 252 305 366 439
#     4  11  24  46  72 105 149 197 241 302 371 440
#
# _framework density 20.681808
#
# number of rings (size 3 to 8) (size 9 to 14) (size 15 to 20)
#    0.000    0.500    5.000    3.000    7.000    2.500 
#    0.000    0.000    0.000    0.000    0.000    0.000 
#    0.000    0.000    0.000    0.000    0.000    0.000 
#
# Total GULP energy -89214.580993 kJ/mol
# GULP energy per Si atom -5575.911312 kJ/mol
# Density = 2.063474 g / cm^3
# Si number density = 20.681808 Si / 1000 Ang^3
#
#
#
# Elastic Constant Matrix: (Units=GPa)
#
#
# Indices 1 2 3 4 5 6 
#
# 1 95.9474 40.3435 25.7606 0.0000 0.0000 0.0000
# 2 40.3435 163.3312 18.8020 0.0000 0.0000 0.0000
# 3 25.7606 18.8020 108.6252 0.0000 0.0000 0.0000
# 4 0.0000 0.0000 0.0000 33.0491 0.0000 0.0000
# 5 0.0000 0.0000 0.0000 0.0000 399.1599 0.0000
# 6 0.0000 0.0000 0.0000 0.0000 0.0000 45.5735
#
#
#
# Elastic Compliance Matrix: (Units=1/GPa)
#
#
# Indices 1 2 3 4 5 6 
#
# 1 0.012226 -0.002741 -0.002425 0.000000 0.000000 0.000000
# 2 -0.002741 0.006861 -0.000538 0.000000 0.000000 0.000000
# 3 -0.002425 -0.000538 0.009874 0.000000 0.000000 0.000000
# 4 0.000000 0.000000 0.000000 0.030258 0.000000 0.000000
# 5 0.000000 0.000000 0.000000 0.000000 0.002505 0.000000
# 6 0.000000 0.000000 0.000000 0.000000 0.000000 0.021943
#
#
# Mechanical properties :
#
#
# Convention : Reuss Voigt Hill
#
# Bulk Modulus (GPa) = 56.96497 59.74621 58.35559
# Shear Modulus (GPa) = 49.54150 114.42301 81.98225
#
# Velocity S-wave (km/s) = 4.89961 7.44618 6.30284
# Velocity P-wave (km/s) = 7.72085 10.14290 9.01360
#
# Compressibility (1/GPa) = 0.01755465
#
# Stress axis : x y z
#
# Youngs Moduli (GPa) = 81.79401 145.74324 101.27482
#
# Poissons Ratio (x) = 0.39943 0.24559
# Poissons Ratio (y) = 0.22417 0.05445
# Poissons Ratio (z) = 0.19835 0.07836
#
# Static dielectric constant tensor:
#      x y z
#    x 1.555350 0.000000 0.000000 
#    y 0.000000 1.201910 0.000000 
#    z 0.000000 0.000000 1.728180 
# 
# From -- ./inp_files/12213.got.cif
#   From: 2010.05.17/outbox.cif.g08.bks.cpg/sg22_7_cif.got.tgz:12213.got - 2010.06.03 23:40:54.
