data_PCOD9329330
_publ_section_title
;
Structure prediction by ZEFSAII (Michael W. Deem and Ramdas Pophale) SiO2 
 PCOD9329330
Probable space group: I 2 2 2
;
_chemical_formula_sum "Si O2"
_cell_formula_units_Z 56
_cell_length_a 8.232534
_cell_length_b 18.904451
_cell_length_c 20.756951
_cell_angle_alpha 90.000000
_cell_angle_beta 90.000000
_cell_angle_gamma 90.000000
_cell_volume 3230.436159
_symmetry_space_group_name_H-M "I 2 2 2"
_symmetry_group_IT_number 23
_symmetry_cell_setting 'orthorhombic'
loop_
_space_group_symop_operation_xyz
x,y,z
-x,-y,z
x,-y,-z
-x,y,-z
1/2+x,1/2+y,1/2+z
1/2-x,1/2-y,1/2+z
1/2+x,1/2-y,1/2-z
1/2-x,1/2+y,1/2-z
loop_
_atom_site_type_symbol
_atom_site_label
_atom_site_fract_x
_atom_site_fract_y
_atom_site_fract_z
Si Si1 0.675389 0.586815 0.791823
Si Si2 0.187208 0.927625 0.271476
Si Si3 0.661458 0.542045 0.380072
Si Si4 0.705785 0.099607 0.856124
Si Si5 0.651291 0.221605 0.674125
Si Si6 0.498982 0.322334 0.425263
Si Si7 0.566948 0.823736 0.785004
O O1 0.718418 0.504489 0.802222
O O2 0.482727 0.599085 0.800682
O O3 0.714501 0.598415 0.715776
O O4 0.781087 0.642176 0.831749
O O5 0.149275 0.940786 0.195744
O O6 0.339714 0.875732 0.265331
O O7 0.500000 0.500000 0.400465
O O8 0.797366 0.480747 0.383448
O O9 0.640389 0.616866 0.414825
O O10 0.829781 0.145024 0.899703
O O11 0.531170 0.132584 0.839238
O O12 0.543590 0.254868 0.618241
O O13 0.554154 0.221964 0.741481
O O14 0.803288 0.273084 0.683062
O O15 0.500000 0.305214 0.500000
#
# Coordination Sequence:
#
# PCOD9329330 Si02
#       7
#     8   8   8   8   8   8   8
#     4   9  17  30  52  76 111 133 167 214 284 333
#     4  10  15  31  51  79 107 139 162 212 282 343
#     4   9  15  30  50  72 100 133 179 209 257 314
#     4   9  18  31  49  76  95 139 176 220 262 316
#     4  11  21  32  47  80 105 140 176 223 278 336
#     4  11  21  36  52  69 103 149 191 218 262 323
#     4  11  20  31  56  76 116 133 174 226 291 336
#
# _framework density 17.33512
#
# number of rings (size 3 to 8) (size 9 to 14) (size 15 to 20)
#    0.000    2.000    5.714    2.571    0.000    7.714 
#    0.000    0.714    0.000    0.000   11.143    2.000 
#    0.000    2.286    0.000    0.000    0.000    0.000 
#
# Total GULP energy -155892.045916 kJ/mol
# GULP energy per Si atom -5567.573068 kJ/mol
# Density = 1.729566 g / cm^3
# Si number density = 17.335120 Si / 1000 Ang^3
#
#
#
# Elastic Constant Matrix: (Units=GPa)
#
#
# Indices 1 2 3 4 5 6 
#
# 1 42.0015 7.4575 -11.1111 0.0000 0.0000 0.0000
# 2 7.4575 51.9789 4.0708 0.0000 0.0000 0.0000
# 3 -11.1111 4.0708 27.4515 0.0000 0.0000 0.0000
# 4 0.0000 0.0000 0.0000 10.4610 0.0000 0.0000
# 5 0.0000 0.0000 0.0000 0.0000 8.4846 0.0000
# 6 0.0000 0.0000 0.0000 0.0000 0.0000 37.5267
#
#
#
# Elastic Compliance Matrix: (Units=1/GPa)
#
#
# Indices 1 2 3 4 5 6 
#
# 1 0.027863 -0.004938 0.012010 0.000000 0.000000 0.000000
# 2 -0.004938 0.020340 -0.005015 0.000000 0.000000 0.000000
# 3 0.012010 -0.005015 0.042033 0.000000 0.000000 0.000000
# 4 0.000000 0.000000 0.000000 0.095593 0.000000 0.000000
# 5 0.000000 0.000000 0.000000 0.000000 0.117861 0.000000
# 6 0.000000 0.000000 0.000000 0.000000 0.000000 0.026648
#
#
# Mechanical properties :
#
#
# Convention : Reuss Voigt Hill
#
# Bulk Modulus (GPa) = 10.59901 13.58513 12.09207
# Shear Modulus (GPa) = 13.97926 19.36209 16.67067
#
# Velocity S-wave (km/s) = 2.84282 3.34567 3.10445
# Velocity P-wave (km/s) = 4.11132 4.77268 4.45429
#
# Compressibility (1/GPa) = 0.09434846
#
# Stress axis : x y z
#
# Youngs Moduli (GPa) = 35.89052 49.16469 23.79111
#
# Poissons Ratio (x) = 0.24278 -0.28572
# Poissons Ratio (y) = 0.17723 0.11931
# Poissons Ratio (z) = -0.43104 0.24656
#
# Static dielectric constant tensor:
#      x y z
#    x 1.660380 0.000000 0.000000 
#    y 0.000000 1.656780 0.000000 
#    z 0.000000 0.000000 1.537040 
# 
# From -- ./inp_files/26323.got.cif
#   From: 2010.05.17/outbox.cif.g08.bks.cpg/sg23_14_cif.got.tgz:26323.got - 2010.06.04 12:02:01.
