data_PCOD9329635
_publ_section_title
;
Structure prediction by ZEFSAII (Michael W. Deem and Ramdas Pophale) SiO2 
 PCOD9329635
Probable space group: I 2 2 2
;
_chemical_formula_sum "Si O2"
_cell_formula_units_Z 48
_cell_length_a 5.187286
_cell_length_b 24.714127
_cell_length_c 17.784009
_cell_angle_alpha 90.000000
_cell_angle_beta 90.000000
_cell_angle_gamma 90.000000
_cell_volume 2279.896527
_symmetry_space_group_name_H-M "I 2 2 2"
_symmetry_group_IT_number 23
_symmetry_cell_setting 'orthorhombic'
loop_
_space_group_symop_operation_xyz
x,y,z
-x,-y,z
x,-y,-z
-x,y,-z
1/2+x,1/2+y,1/2+z
1/2-x,1/2-y,1/2+z
1/2+x,1/2-y,1/2-z
1/2-x,1/2+y,1/2-z
loop_
_atom_site_type_symbol
_atom_site_label
_atom_site_fract_x
_atom_site_fract_y
_atom_site_fract_z
Si Si1 0.249171 0.964703 0.275822
Si Si2 0.252982 0.225765 0.455861
Si Si3 0.467622 0.443880 0.621986
Si Si4 0.941661 0.381096 0.286884
Si Si5 0.702214 0.851994 0.937621
Si Si6 0.178874 0.781400 0.721188
O O1 0.170031 0.955834 0.189040
O O2 0.375139 0.903540 0.280625
O O3 0.500000 0.000000 0.292102
O O4 0.000000 0.000000 0.306280
O O5 0.500000 0.203904 0.500000
O O6 0.264501 0.291252 0.460567
O O7 0.227970 0.214249 0.367756
O O8 0.000000 0.207692 0.500000
O O9 0.500000 0.500000 0.578648
O O10 0.208827 0.428364 0.666897
O O11 0.560929 0.392174 0.576118
O O12 0.725463 0.341003 0.254854
O O13 0.081677 0.349098 0.353882
O O14 0.500000 0.873711 0.000000
O O15 0.401527 0.743004 0.757154
#
# Coordination Sequence:
#
# PCOD9329635 Si02
#       6
#     8   8   8   8   8   8
#     4  10  18  34  55  81 113 154 193 244 311 364
#     4  11  24  44  65  87 126 171 212 261 323 389
#     4  10  20  36  58  78 118 161 207 259 313 358
#     4  11  22  38  61  87 118 160 208 271 306 371
#     4  10  23  36  56  81 115 170 214 256 312 374
#     4  12  25  41  64  99 125 162 220 274 325 381
#
# _framework density 21.053587
#
# number of rings (size 3 to 8) (size 9 to 14) (size 15 to 20)
#    0.000    1.333    5.000    2.000    9.333    0.000 
#    0.000    2.500    0.000    0.000    0.000    0.000 
#    0.000    5.333    0.000    0.000    0.000    0.000 
#
# Total GULP energy -133621.315651 kJ/mol
# GULP energy per Si atom -5567.554819 kJ/mol
# Density = 2.100567 g / cm^3
# Si number density = 21.053587 Si / 1000 Ang^3
#
#
#
# Elastic Constant Matrix: (Units=GPa)
#
#
# Indices 1 2 3 4 5 6 
#
# 1 117.7268 2.1905 14.2553 0.0000 0.0000 0.0000
# 2 2.1905 32.4511 -14.8846 0.0000 0.0000 0.0000
# 3 14.2553 -14.8846 78.1563 0.0000 0.0000 0.0000
# 4 0.0000 0.0000 0.0000 -8.3982 0.0000 0.0000
# 5 0.0000 0.0000 0.0000 0.0000 22.5408 0.0000
# 6 0.0000 0.0000 0.0000 0.0000 0.0000 21.3102
#
#
#
# Elastic Compliance Matrix: (Units=1/GPa)
#
#
# Indices 1 2 3 4 5 6 
#
# 1 0.008748 -0.001449 -0.001872 0.000000 0.000000 0.000000
# 2 -0.001449 0.034005 0.006740 0.000000 0.000000 0.000000
# 3 -0.001872 0.006740 0.014420 0.000000 0.000000 0.000000
# 4 0.000000 0.000000 0.000000 -0.119074 0.000000 0.000000
# 5 0.000000 0.000000 0.000000 0.000000 0.044364 0.000000
# 6 0.000000 0.000000 0.000000 0.000000 0.000000 0.046926
#
#
# Mechanical properties :
#
#
# Convention : Reuss Voigt Hill
#
# Bulk Modulus (GPa) = 15.62186 25.71741 20.66964
# Shear Modulus (GPa) = 113.92909 22.20874 68.06892
#
# Velocity S-wave (km/s) = 7.36419 3.25140 5.69223
# Velocity P-wave (km/s) = 8.92998 5.13197 7.28292
#
# Compressibility (1/GPa) = 0.06401286
#
# Stress axis : x y z
#
# Youngs Moduli (GPa) = 114.31421 29.40735 69.34850
#
# Poissons Ratio (x) = 0.04261 0.12979
# Poissons Ratio (y) = 0.16563 -0.46744
# Poissons Ratio (z) = 0.21394 -0.19822
#
# Static dielectric constant tensor:
#      x y z
#    x 1.907770 0.000000 0.000000 
#    y 0.000000 1.964870 0.000000 
#    z 0.000000 0.000000 1.734070 
# 
# From -- ./inp_files/23182.got.cif
#   From: 2010.05.17/outbox.cif.g08.bks.cpg/sg23_12_cif.got.tgz:23182.got - 2010.06.04 12:02:01.
