data_PCOD9329674
_publ_section_title
;
Structure prediction by ZEFSAII (Michael W. Deem and Ramdas Pophale) SiO2 
 PCOD9329674
Probable space group: I 2 2 2
;
_chemical_formula_sum "Si O2"
_cell_formula_units_Z 64
_cell_length_a 17.491711
_cell_length_b 9.798719
_cell_length_c 20.573050
_cell_angle_alpha 90.000000
_cell_angle_beta 90.000000
_cell_angle_gamma 90.000000
_cell_volume 3526.145903
_symmetry_space_group_name_H-M "I 2 2 2"
_symmetry_group_IT_number 23
_symmetry_cell_setting 'orthorhombic'
loop_
_space_group_symop_operation_xyz
x,y,z
-x,-y,z
x,-y,-z
-x,y,-z
1/2+x,1/2+y,1/2+z
1/2-x,1/2-y,1/2+z
1/2+x,1/2-y,1/2-z
1/2-x,1/2+y,1/2-z
loop_
_atom_site_type_symbol
_atom_site_label
_atom_site_fract_x
_atom_site_fract_y
_atom_site_fract_z
Si Si1 0.608600 0.290116 0.244003
Si Si2 0.167754 0.757545 0.110501
Si Si3 0.770704 0.957569 0.315215
Si Si4 0.350318 0.995484 0.800672
Si Si5 0.810400 0.710864 0.126107
Si Si6 0.241117 0.524739 0.424954
Si Si7 0.963005 0.349892 0.207279
Si Si8 0.083409 0.658613 0.986005
O O1 0.642640 0.418130 0.204283
O O2 0.663714 0.275007 0.306191
O O3 0.524014 0.265294 0.272015
O O4 0.621767 0.150613 0.204513
O O5 0.234393 0.668190 0.144310
O O6 0.093744 0.716215 0.154111
O O7 0.143787 0.714691 0.038044
O O8 0.199270 0.911349 0.103261
O O9 0.721609 0.978666 0.248851
O O10 0.748920 0.090373 0.357601
O O11 0.328269 0.971318 0.874386
O O12 0.412833 0.895203 0.769578
O O13 0.776476 0.826791 0.081537
O O14 0.886156 0.665830 0.087430
O O15 0.222711 0.500000 0.500000
O O16 0.000000 0.500000 0.186850
O O17 0.077589 0.500000 0.000000
O O18 0.000000 0.722438 0.000000
#
# Coordination Sequence:
#
# PCOD9329674 Si02
#       8
#     8   8   8   8   8   8   8   8
#     4  10  18  35  60  84 112 152 195 247 301 339
#     4  11  21  36  55  84 114 158 203 234 284 357
#     4  10  19  33  60  83 110 151 203 247 290 337
#     4   9  19  35  57  83 115 152 196 244 291 344
#     4  11  22  36  54  85 119 158 199 243 292 348
#     4  12  23  37  57  81 118 160 195 241 293 349
#     4   9  20  35  61  90 118 152 193 249 303 351
#     4  11  22  34  55  81 121 164 203 239 283 351
#
# _framework density 18.150127000000001
#
# number of rings (size 3 to 8) (size 9 to 14) (size 15 to 20)
#    0.000    1.625    5.000    1.500    1.750    0.000 
#    0.000    3.125    0.000    3.375    0.000    0.000 
#    0.000    0.000    8.000    0.000    0.000    0.000 
#
# Total GULP energy -178231.617446 kJ/mol
# GULP energy per Si atom -5569.738045 kJ/mol
# Density = 1.810882 g / cm^3
# Si number density = 18.150127 Si / 1000 Ang^3
#
#
#
# Elastic Constant Matrix: (Units=GPa)
#
#
# Indices 1 2 3 4 5 6 
#
# 1 47.7198 28.5863 28.3998 0.0000 0.0000 0.0000
# 2 28.5863 67.7309 40.5920 0.0000 0.0000 0.0000
# 3 28.3998 40.5920 100.9190 0.0000 0.0000 0.0000
# 4 0.0000 0.0000 0.0000 21.4489 0.0000 0.0000
# 5 0.0000 0.0000 0.0000 0.0000 -13.7786 0.0000
# 6 0.0000 0.0000 0.0000 0.0000 0.0000 21.1260
#
#
#
# Elastic Compliance Matrix: (Units=1/GPa)
#
#
# Indices 1 2 3 4 5 6 
#
# 1 0.029414 -0.009821 -0.004327 0.000000 0.000000 0.000000
# 2 -0.009821 0.022733 -0.006380 0.000000 0.000000 0.000000
# 3 -0.004327 -0.006380 0.013693 0.000000 0.000000 0.000000
# 4 0.000000 0.000000 0.000000 0.046622 0.000000 0.000000
# 5 0.000000 0.000000 0.000000 0.000000 -0.072576 0.000000
# 6 0.000000 0.000000 0.000000 0.000000 0.000000 0.047335
#
#
# Mechanical properties :
#
#
# Convention : Reuss Voigt Hill
#
# Bulk Modulus (GPa) = 40.34953 45.72511 43.03732
# Shear Modulus (GPa) = 36.61961 13.67871 25.14916
#
# Velocity S-wave (km/s) = 4.49664 2.74823 3.72643
# Velocity P-wave (km/s) = 7.01705 5.94288 6.50218
#
# Compressibility (1/GPa) = 0.02478343
#
# Stress axis : x y z
#
# Youngs Moduli (GPa) = 33.99709 43.98892 73.03085
#
# Poissons Ratio (x) = 0.43202 0.31602
# Poissons Ratio (y) = 0.33389 0.46593
# Poissons Ratio (z) = 0.14711 0.28065
#
# Static dielectric constant tensor:
#      x y z
#    x 1.861360 0.000000 0.000000 
#    y 0.000000 1.686220 0.000000 
#    z 0.000000 0.000000 1.577870 
# 
# From -- ./inp_files/11422.got.cif
#   From: 2010.05.17/outbox.cif.g08.bks.cpg/sg23_6_cif.got.tgz:11422.got - 2010.06.04 12:02:01.
