data_PCOD9329070
_publ_section_title
;
Structure prediction by ZEFSAII (Michael W. Deem and Ramdas Pophale) SiO2 
 PCOD9329070
Probable space group: F 2 2 2
;
_chemical_formula_sum "Si O2"
_cell_formula_units_Z 64
_cell_length_a 12.360206
_cell_length_b 21.605513
_cell_length_c 9.162883
_cell_angle_alpha 90.000000
_cell_angle_beta 90.000000
_cell_angle_gamma 90.000000
_cell_volume 2446.934998
_symmetry_space_group_name_H-M "F 2 2 2"
_symmetry_group_IT_number 22
_symmetry_cell_setting 'orthorhombic'
loop_
_space_group_symop_operation_xyz
x,y,z
-x,-y,z
x,-y,-z
-x,y,-z
x,1/2+y,1/2+z
-x,1/2-y,1/2+z
x,1/2-y,1/2-z
-x,1/2+y,1/2-z
1/2+x,y,1/2+z
1/2-x,-y,1/2+z
1/2+x,-y,1/2-z
1/2-x,y,1/2-z
1/2+x,1/2+y,z
1/2-x,1/2-y,z
1/2+x,1/2-y,-z
1/2-x,1/2+y,-z
loop_
_atom_site_type_symbol
_atom_site_label
_atom_site_fract_x
_atom_site_fract_y
_atom_site_fract_z
Si Si1 0.673992 0.051257 0.877721
Si Si2 0.592598 0.268894 0.408800
Si Si3 0.512761 0.074066 0.327549
Si Si4 0.199437 0.852939 0.073236
O O1 0.750000 0.022433 0.750000
O O2 0.576389 0.087931 0.796634
O O3 0.754057 0.098742 0.957628
O O4 0.640510 0.000000 0.000000
O O5 0.500000 0.300603 0.500000
O O6 0.551861 0.250000 0.250000
O O7 0.696493 0.311292 0.387084
O O8 0.624439 0.203611 0.484123
O O9 0.500000 0.088566 0.500000
O O10 0.629134 0.106531 0.310678
O O11 0.500000 0.000000 0.321323
#
# Coordination Sequence:
#
# PCOD9329070 Si02
#       4
#    16  16  16  16
#     4  12  27  48  83 129 173 238 289 360 448 544
#     4  11  28  52  83 118 164 233 293 373 435 521
#     4  11  24  47  82 120 170 223 276 357 436 522
#     4  11  25  50  83 122 171 221 295 355 449 515
#
# _framework density 26.155169999999998
#
# number of rings (size 3 to 8) (size 9 to 14) (size 15 to 20)
#    0.000    0.750    2.500    3.750    3.500    6.500 
#    0.000    2.500    0.000    0.000    0.000    0.000 
#    0.000    0.000    0.000    0.000    0.000    0.000 
#
# Total GULP energy -89333.019733 kJ/mol
# GULP energy per Si atom -5583.313733 kJ/mol
# Density = 2.609564 g / cm^3
# Si number density = 26.155170 Si / 1000 Ang^3
#
#
#
# Elastic Constant Matrix: (Units=GPa)
#
#
# Indices 1 2 3 4 5 6 
#
# 1 213.3930 71.9148 86.5407 0.0000 0.0000 0.0000
# 2 71.9148 145.2205 39.2109 0.0000 0.0000 0.0000
# 3 86.5407 39.2109 127.3673 0.0000 0.0000 0.0000
# 4 0.0000 0.0000 0.0000 36.8830 0.0000 0.0000
# 5 0.0000 0.0000 0.0000 0.0000 70.6890 0.0000
# 6 0.0000 0.0000 0.0000 0.0000 0.0000 7.7106
#
#
#
# Elastic Compliance Matrix: (Units=1/GPa)
#
#
# Indices 1 2 3 4 5 6 
#
# 1 0.007184 -0.002443 -0.004129 0.000000 0.000000 0.000000
# 2 -0.002443 0.008341 -0.000908 0.000000 0.000000 0.000000
# 3 -0.004129 -0.000908 0.010937 0.000000 0.000000 0.000000
# 4 0.000000 0.000000 0.000000 0.027113 0.000000 0.000000
# 5 0.000000 0.000000 0.000000 0.000000 0.014146 0.000000
# 6 0.000000 0.000000 0.000000 0.000000 0.000000 0.129691
#
#
# Mechanical properties :
#
#
# Convention : Reuss Voigt Hill
#
# Bulk Modulus (GPa) = 86.94597 97.92374 92.43485
# Shear Modulus (GPa) = 23.12617 42.27749 32.70183
#
# Velocity S-wave (km/s) = 2.97676 4.02482 3.53980
# Velocity P-wave (km/s) = 6.71784 7.68894 7.21973
#
# Compressibility (1/GPa) = 0.01150140
#
# Stress axis : x y z
#
# Youngs Moduli (GPa) = 139.19880 119.89096 91.43683
#
# Poissons Ratio (x) = 0.29285 0.37756
# Poissons Ratio (y) = 0.34001 0.08304
# Poissons Ratio (z) = 0.57478 0.10888
#
# Static dielectric constant tensor:
#      x y z
#    x 2.324910 0.000000 0.000000 
#    y 0.000000 2.017400 0.000000 
#    z 0.000000 0.000000 2.215420 
# 
# From -- ./inp_files/17928.got.cif
#   From: 2010.05.17/outbox.cif.g08.bks.cpg/sg22_9_cif.got.tgz:17928.got - 2010.06.03 23:40:54.
