data_PCOD9329989
_publ_section_title
;
Structure prediction by ZEFSAII (Michael W. Deem and Ramdas Pophale) SiO2 
 PCOD9329989
Probable space group: I 2 2 2
;
_chemical_formula_sum "Si O2"
_cell_formula_units_Z 54
_cell_length_a 33.603683
_cell_length_b 14.450957
_cell_length_c 5.390836
_cell_angle_alpha 90.000000
_cell_angle_beta 90.000000
_cell_angle_gamma 90.000000
_cell_volume 2617.818954
_symmetry_space_group_name_H-M "I 2 2 2"
_symmetry_group_IT_number 23
_symmetry_cell_setting 'orthorhombic'
loop_
_space_group_symop_operation_xyz
x,y,z
-x,-y,z
x,-y,-z
-x,y,-z
1/2+x,1/2+y,1/2+z
1/2-x,1/2-y,1/2+z
1/2+x,1/2-y,1/2-z
1/2-x,1/2+y,1/2-z
loop_
_atom_site_type_symbol
_atom_site_label
_atom_site_fract_x
_atom_site_fract_y
_atom_site_fract_z
Si Si1 0.227527 0.526483 0.249521
Si Si2 0.540680 0.356902 0.143760
Si Si3 0.000000 0.000000 0.000000
Si Si4 0.860020 0.450230 0.751501
Si Si5 0.351952 0.647299 0.724498
Si Si6 0.393039 0.500000 0.000000
Si Si7 0.114299 0.240073 0.270213
Si Si8 0.726048 0.240030 0.763069
O O1 0.249930 0.500000 0.500000
O O2 0.187951 0.462793 0.249103
O O3 0.212998 0.632436 0.248662
O O4 0.250288 0.500000 0.000000
O O5 0.527399 0.430034 0.349665
O O6 0.574884 0.416414 0.008447
O O7 0.566237 0.268855 0.223611
O O8 0.500000 0.336026 0.000000
O O9 0.874239 0.500000 0.500000
O O10 0.871357 0.343981 0.761742
O O11 0.874715 0.500000 0.000000
O O12 0.372362 0.679170 0.467262
O O13 0.306824 0.682912 0.704144
O O14 0.363491 0.541189 0.789783
O O15 0.366571 0.704472 0.970914
O O16 0.758204 0.247018 0.542237
#
# Coordination Sequence:
#
# PCOD9329989 Si02
#       8
#     8   8   2   8   8   4   8   8
#     4  10  19  36  62  87 115 158 210 270 320 399
#     4  11  22  37  63 100 137 176 222 274 328 408
#     4  12  18  36  64  94 142 172 234 252 330 408
#     4  10  19  35  62  94 120 153 217 272 324 387
#     4  11  23  42  64  91 136 174 230 277 337 410
#     4  10  21  42  62  92 136 184 226 270 332 404
#     4  11  23  39  67 101 129 176 219 288 334 391
#     4  12  25  43  64  96 130 173 220 289 356 403
#
# _framework density 20.627859999999998
#
# number of rings (size 3 to 8) (size 9 to 14) (size 15 to 20)
#    0.000    1.185    1.481    7.111    2.074    1.778 
#    4.000    0.000    0.000    0.444    0.000    0.000 
#    0.000    0.000    0.000    0.000    0.000    0.000 
#
# Total GULP energy -150523.781613 kJ/mol
# GULP energy per Si atom -5574.954875 kJ/mol
# Density = 2.058091 g / cm^3
# Si number density = 20.627860 Si / 1000 Ang^3
#
#
#
# Elastic Constant Matrix: (Units=GPa)
#
#
# Indices 1 2 3 4 5 6 
#
# 1 50.4727 11.2896 -9.6010 0.0007 -0.0033 0.0003
# 2 11.2896 86.0494 18.5848 0.0008 -0.0046 0.0003
# 3 -9.6010 18.5848 108.5246 0.0038 -0.0143 0.0007
# 4 0.0007 0.0008 0.0038 35.1285 -0.0069 0.0001
# 5 -0.0033 -0.0046 -0.0143 -0.0069 135.1019 0.0016
# 6 0.0003 0.0003 0.0007 0.0001 0.0016 48.0055
#
#
#
# Elastic Compliance Matrix: (Units=1/GPa)
#
#
# Indices 1 2 3 4 5 6 
#
# 1 0.021006 -0.003279 0.002420 -0.000001 0.000001 0.000000
# 2 -0.003279 0.012579 -0.002444 0.000000 0.000000 0.000000
# 3 0.002420 -0.002444 0.009847 -0.000001 0.000001 0.000000
# 4 -0.000001 0.000000 -0.000001 0.028467 0.000001 0.000000
# 5 0.000001 0.000000 0.000001 0.000001 0.007402 0.000000
# 6 0.000000 0.000000 0.000000 0.000000 0.000000 0.020831
#
#
# Mechanical properties :
#
#
# Convention : Reuss Voigt Hill
#
# Bulk Modulus (GPa) = 27.15417 31.73261 29.44339
# Shear Modulus (GPa) = 42.01181 58.63208 50.32195
#
# Velocity S-wave (km/s) = 4.51783 5.33718 4.94450
# Velocity P-wave (km/s) = 6.35663 7.30735 6.84851
#
# Compressibility (1/GPa) = 0.03682676
#
# Stress axis : x y z
#
# Youngs Moduli (GPa) = 47.60459 79.49575 101.55208
#
# Poissons Ratio (x) = 0.26064 -0.24574
# Poissons Ratio (y) = 0.15608 0.24822
# Poissons Ratio (z) = -0.11520 0.19431
#
# Static dielectric constant tensor:
#      x y z
#    x 1.695570 0.000000 0.000000 
#    y 0.000000 1.718200 0.000000 
#    z 0.000000 0.000000 1.803350 
# 
# From -- ./inp_files/5385.got.cif
#   From: 2010.05.17/outbox.cif.g08.bks.cpg/sg23_3_cif.got.tgz:5385.got - 2010.06.04 12:02:01.
