data_PCOD9329473
_publ_section_title
;
Structure prediction by ZEFSAII (Michael W. Deem and Ramdas Pophale) SiO2 
 PCOD9329473
Probable space group: I 2 2 2
;
_chemical_formula_sum "Si O2"
_cell_formula_units_Z 40
_cell_length_a 13.344003
_cell_length_b 14.825920
_cell_length_c 7.470487
_cell_angle_alpha 90.000000
_cell_angle_beta 90.000000
_cell_angle_gamma 90.000000
_cell_volume 1477.939640
_symmetry_space_group_name_H-M "I 2 2 2"
_symmetry_group_IT_number 23
_symmetry_cell_setting 'orthorhombic'
loop_
_space_group_symop_operation_xyz
x,y,z
-x,-y,z
x,-y,-z
-x,y,-z
1/2+x,1/2+y,1/2+z
1/2-x,1/2-y,1/2+z
1/2+x,1/2-y,1/2-z
1/2-x,1/2+y,1/2-z
loop_
_atom_site_type_symbol
_atom_site_label
_atom_site_fract_x
_atom_site_fract_y
_atom_site_fract_z
Si Si1 0.012678 0.146650 0.786178
Si Si2 0.141610 0.608365 0.144188
Si Si3 0.780861 0.186933 0.125942
Si Si4 0.437822 0.147325 0.745365
Si Si5 0.826671 0.062332 0.823795
O O1 0.978054 0.249006 0.755540
O O2 0.928687 0.078527 0.714477
O O3 0.131614 0.141043 0.749619
O O4 0.000000 0.130600 0.000000
O O5 0.192396 0.708180 0.140186
O O6 0.230242 0.543244 0.204931
O O7 0.045883 0.599758 0.278052
O O8 0.097339 0.606495 0.945030
O O9 0.667314 0.155886 0.152762
O O10 0.804615 0.157530 0.923750
O O11 0.833520 0.000000 0.000000
#
# Coordination Sequence:
#
# PCOD9329473 Si02
#       5
#     8   8   8   8   8
#     4   9  16  32  54  85 115 148 195 241 301 347
#     4  10  18  35  57  83 118 156 203 247 296 362
#     4  10  18  33  57  84 116 155 203 244 294 355
#     4  10  17  33  58  83 113 157 201 249 287 351
#     4  11  22  36  57  87 121 154 197 253 307 360
#
# _framework density 27.064706999999999
#
# number of rings (size 3 to 8) (size 9 to 14) (size 15 to 20)
#    0.000    2.000    8.000    0.000    0.000    4.400 
#    0.000    4.000    0.000    2.400    0.000    8.400 
#    0.000    0.000    0.000    0.000    0.000    0.000 
#
# Total GULP energy -111528.750721 kJ/mol
# GULP energy per Si atom -5576.437536 kJ/mol
# Density = 2.700311 g / cm^3
# Si number density = 27.064707 Si / 1000 Ang^3
#
#
#
# Elastic Constant Matrix: (Units=GPa)
#
#
# Indices 1 2 3 4 5 6 
#
# 1 202.3711 27.7516 31.2208 0.0000 0.0000 0.0000
# 2 27.7516 80.4627 6.2540 0.0000 0.0000 0.0000
# 3 31.2208 6.2540 17.0262 0.0000 0.0000 0.0000
# 4 0.0000 0.0000 0.0000 16.0276 0.0000 0.0000
# 5 0.0000 0.0000 0.0000 0.0000 40.4352 0.0000
# 6 0.0000 0.0000 0.0000 0.0000 0.0000 33.3686
#
#
#
# Elastic Compliance Matrix: (Units=1/GPa)
#
#
# Indices 1 2 3 4 5 6 
#
# 1 0.007056 -0.001470 -0.012398 0.000000 0.000000 0.000000
# 2 -0.001470 0.013100 -0.002116 0.000000 0.000000 0.000000
# 3 -0.012398 -0.002116 0.082245 0.000000 0.000000 0.000000
# 4 0.000000 0.000000 0.000000 0.062392 0.000000 0.000000
# 5 0.000000 0.000000 0.000000 0.000000 0.024731 0.000000
# 6 0.000000 0.000000 0.000000 0.000000 0.000000 0.029968
#
#
# Mechanical properties :
#
#
# Convention : Reuss Voigt Hill
#
# Bulk Modulus (GPa) = 14.19822 47.81253 31.00538
# Shear Modulus (GPa) = 18.18592 33.60850 25.89721
#
# Velocity S-wave (km/s) = 2.59500 3.52772 3.09668
# Velocity P-wave (km/s) = 3.77308 5.85640 4.92613
#
# Compressibility (1/GPa) = 0.07043138
#
# Stress axis : x y z
#
# Youngs Moduli (GPa) = 141.72935 76.33836 12.15880
#
# Poissons Ratio (x) = 0.11221 0.15075
# Poissons Ratio (y) = 0.20832 0.02573
# Poissons Ratio (z) = 1.75718 0.16157
#
# Static dielectric constant tensor:
#      x y z
#    x 2.303720 0.000000 0.000000 
#    y 0.000000 2.243440 0.000000 
#    z 0.000000 0.000000 2.176290 
# 
# From -- ./inp_files/8186.got.cif
#   From: 2010.05.17/outbox.cif.g08.bks.cpg/sg23_5_cif.got.tgz:8186.got - 2010.06.04 12:02:01.
