data_PCOD9329494
_publ_section_title
;
Structure prediction by ZEFSAII (Michael W. Deem and Ramdas Pophale) SiO2 
 PCOD9329494
Probable space group: I 2 2 2
;
_chemical_formula_sum "Si O2"
_cell_formula_units_Z 56
_cell_length_a 10.252617
_cell_length_b 7.367553
_cell_length_c 30.677358
_cell_angle_alpha 90.000000
_cell_angle_beta 90.000000
_cell_angle_gamma 90.000000
_cell_volume 2317.266362
_symmetry_space_group_name_H-M "I 2 2 2"
_symmetry_group_IT_number 23
_symmetry_cell_setting 'orthorhombic'
loop_
_space_group_symop_operation_xyz
x,y,z
-x,-y,z
x,-y,-z
-x,y,-z
1/2+x,1/2+y,1/2+z
1/2-x,1/2-y,1/2+z
1/2+x,1/2-y,1/2-z
1/2-x,1/2+y,1/2-z
loop_
_atom_site_type_symbol
_atom_site_label
_atom_site_fract_x
_atom_site_fract_y
_atom_site_fract_z
Si Si1 0.666379 0.782114 0.715525
Si Si2 0.000000 0.281861 0.283181
Si Si3 0.216954 0.276702 0.117428
Si Si4 0.283047 0.223299 0.382572
Si Si5 0.500000 0.702217 0.117515
Si Si6 0.666378 0.217887 0.715525
Si Si7 0.000000 0.721060 0.950414
O O1 0.500000 0.734688 0.727130
O O2 0.673062 0.713296 0.665549
O O3 0.666970 0.747261 0.772099
O O4 0.659504 0.000000 0.712952
O O5 0.000001 0.187807 0.329913
O O6 0.000000 0.500000 0.290231
O O7 0.833031 0.247260 0.272099
O O8 0.218941 0.500000 0.119739
O O9 0.362302 0.211897 0.107345
O O10 0.122493 0.223998 0.078757
O O11 0.137699 0.288103 0.392655
O O12 0.326939 0.286704 0.334451
O O13 0.377509 0.276003 0.421242
O O14 0.500000 0.500000 0.098207
O O15 0.000000 0.500000 0.951580
O O16 0.000000 0.784384 0.000000
#
# Coordination Sequence:
#
# PCOD9329494 Si02
#       7
#     8   8   8   8   8   8   8
#     4  10  18  28  43  65  97 134 167 196 232 286
#     4  10  19  28  41  64  95 130 168 200 227 273
#     4   9  17  29  45  66  95 131 166 200 246 295
#     4   9  17  29  45  66  95 131 166 200 246 295
#     4  10  18  29  46  69  97 127 155 195 246 291
#     4  10  18  28  43  65  97 134 167 196 232 286
#     4   9  17  31  50  70  95 130 169 207 253 309
#
# _framework density 24.166408000000001
#
# number of rings (size 3 to 8) (size 9 to 14) (size 15 to 20)
#    0.000    2.429    2.857    0.857    0.000    3.429 
#    0.000    0.714    0.000    4.286    0.000    1.000 
#    0.000   10.286    0.000    0.000    0.000    0.000 
#
# Total GULP energy -156183.070922 kJ/mol
# GULP energy per Si atom -5577.966819 kJ/mol
# Density = 2.411140 g / cm^3
# Si number density = 24.166408 Si / 1000 Ang^3
#
#
#
# Elastic Constant Matrix: (Units=GPa)
#
#
# Indices 1 2 3 4 5 6 
#
# 1 263.7826 14.6640 136.0562 0.0000 0.0000 0.0000
# 2 14.6640 94.7637 -0.5248 0.0000 0.0000 0.0000
# 3 136.0562 -0.5248 209.1963 0.0000 0.0000 0.0000
# 4 0.0000 0.0000 0.0000 8.2000 0.0000 0.0000
# 5 0.0000 0.0000 0.0000 0.0000 27.5255 0.0000
# 6 0.0000 0.0000 0.0000 0.0000 0.0000 20.3244
#
#
#
# Elastic Compliance Matrix: (Units=1/GPa)
#
#
# Indices 1 2 3 4 5 6 
#
# 1 0.005783 -0.000916 -0.003763 0.000000 0.000000 0.000000
# 2 -0.000916 0.010698 0.000622 0.000000 0.000000 0.000000
# 3 -0.003763 0.000622 0.007229 0.000000 0.000000 0.000000
# 4 0.000000 0.000000 0.000000 0.121951 0.000000 0.000000
# 5 0.000000 0.000000 0.000000 0.000000 0.036330 0.000000
# 6 0.000000 0.000000 0.000000 0.000000 0.000000 0.049202
#
#
# Mechanical properties :
#
#
# Convention : Reuss Voigt Hill
#
# Bulk Modulus (GPa) = 64.11640 96.45925 80.28782
# Shear Modulus (GPa) = 20.44947 39.04647 29.74797
#
# Velocity S-wave (km/s) = 2.91210 4.02398 3.51232
# Velocity P-wave (km/s) = 6.15596 7.84800 7.05291
#
# Compressibility (1/GPa) = 0.01559663
#
# Stress axis : x y z
#
# Youngs Moduli (GPa) = 172.91897 93.47789 138.32367
#
# Poissons Ratio (x) = 0.08560 0.52057
# Poissons Ratio (y) = 0.15835 -0.08609
# Poissons Ratio (z) = 0.65077 -0.05818
#
# Static dielectric constant tensor:
#      x y z
#    x 2.224690 0.000000 0.000000 
#    y 0.000000 1.916940 0.000000 
#    z 0.000000 0.000000 1.821450 
# 
# From -- ./inp_files/28360.got.cif
#   From: 2010.05.17/outbox.cif.g08.bks.cpg/sg23_15_cif.got.tgz:28360.got - 2010.06.04 12:02:01.
