data_PCOD9329900
_publ_section_title
;
Structure prediction by ZEFSAII (Michael W. Deem and Ramdas Pophale) SiO2 
 PCOD9329900
Probable space group: I 2 2 2
;
_chemical_formula_sum "Si O2"
_cell_formula_units_Z 52
_cell_length_a 20.958813
_cell_length_b 14.918073
_cell_length_c 8.542325
_cell_angle_alpha 90.000000
_cell_angle_beta 90.000000
_cell_angle_gamma 90.000000
_cell_volume 2670.886920
_symmetry_space_group_name_H-M "I 2 2 2"
_symmetry_group_IT_number 23
_symmetry_cell_setting 'orthorhombic'
loop_
_space_group_symop_operation_xyz
x,y,z
-x,-y,z
x,-y,-z
-x,y,-z
1/2+x,1/2+y,1/2+z
1/2-x,1/2-y,1/2+z
1/2+x,1/2-y,1/2-z
1/2-x,1/2+y,1/2-z
loop_
_atom_site_type_symbol
_atom_site_label
_atom_site_fract_x
_atom_site_fract_y
_atom_site_fract_z
Si Si1 0.500000 0.500000 0.500000
Si Si2 0.000000 0.000000 0.500000
Si Si3 0.186671 0.848683 0.756260
Si Si4 0.671929 0.842157 0.138114
Si Si5 0.690405 0.362535 0.880442
Si Si6 0.406743 0.504397 0.253869
Si Si7 0.327964 0.143292 0.760716
Si Si8 0.925792 0.507284 0.690959
O O1 0.451601 0.454786 0.378967
O O2 0.952251 0.951866 0.379989
O O3 0.257563 0.871943 0.811542
O O4 0.189506 0.859122 0.568276
O O5 0.135569 0.917130 0.825117
O O6 0.166944 0.746588 0.794945
O O7 0.670155 0.736606 0.177201
O O8 0.615358 0.901249 0.212731
O O9 0.672651 0.851800 0.949892
O O10 0.640243 0.434837 0.824123
O O11 0.760073 0.385961 0.811469
O O12 0.384618 0.072924 0.731240
O O13 0.926303 0.500000 0.500000
O O14 0.000000 0.500000 0.740023
#
# Coordination Sequence:
#
# PCOD9329900 Si02
#       8
#     2   2   8   8   8   8   8   8
#     4  10  28  38  52  78 112 140 190 218 280 338
#     4  10  20  38  52  74 112 132 186 214 260 346
#     4  10  19  34  57  81 108 140 179 223 272 317
#     4   9  19  33  54  84 108 139 182 223 263 319
#     4  10  19  34  57  81 108 140 179 223 272 317
#     4  11  21  39  54  79 106 148 176 227 273 334
#     4   9  19  33  54  84 108 139 182 223 263 319
#     4   9  17  33  51  77 108 140 177 218 259 313
#
# _framework density 19.469187999999999
#
# number of rings (size 3 to 8) (size 9 to 14) (size 15 to 20)
#    0.000    2.308    1.538    0.923    2.154    0.000 
#    5.538    0.000    0.000    1.846    0.000    0.000 
#    0.000    0.000    0.000    0.000    0.000    0.000 
#
# Total GULP energy -144751.577648 kJ/mol
# GULP energy per Si atom -5567.368371 kJ/mol
# Density = 1.942488 g / cm^3
# Si number density = 19.469188 Si / 1000 Ang^3
#
#
#
# Elastic Constant Matrix: (Units=GPa)
#
#
# Indices 1 2 3 4 5 6 
#
# 1 156.4393 76.1207 19.5821 0.0000 0.0000 0.0000
# 2 76.1207 72.3272 8.6300 0.0000 0.0000 0.0000
# 3 19.5821 8.6300 11.7393 0.0000 0.0000 0.0000
# 4 0.0000 0.0000 0.0000 5.3803 0.0000 0.0000
# 5 0.0000 0.0000 0.0000 0.0000 16.0421 0.0000
# 6 0.0000 0.0000 0.0000 0.0000 0.0000 -3.0544
#
#
#
# Elastic Compliance Matrix: (Units=1/GPa)
#
#
# Indices 1 2 3 4 5 6 
#
# 1 0.015144 -0.014167 -0.014847 0.000000 0.000000 0.000000
# 2 -0.014167 0.028408 0.002748 0.000000 0.000000 0.000000
# 3 -0.014847 0.002748 0.107930 0.000000 0.000000 0.000000
# 4 0.000000 0.000000 0.000000 0.185864 0.000000 0.000000
# 5 0.000000 0.000000 0.000000 0.000000 0.062336 0.000000
# 6 0.000000 0.000000 0.000000 0.000000 0.000000 -0.327399
#
#
# Mechanical properties :
#
#
# Convention : Reuss Voigt Hill
#
# Bulk Modulus (GPa) = 10.10618 49.90794 30.00706
# Shear Modulus (GPa) = 31.68620 12.75181 22.21901
#
# Velocity S-wave (km/s) = 4.03861 2.56202 3.38189
# Velocity P-wave (km/s) = 5.19127 5.86872 5.54036
#
# Compressibility (1/GPa) = 0.09894938
#
# Stress axis : x y z
#
# Youngs Moduli (GPa) = 66.03258 35.20120 9.26531
#
# Poissons Ratio (x) = 0.49869 0.13756
# Poissons Ratio (y) = 0.93547 -0.02546
# Poissons Ratio (z) = 0.98038 -0.09672
#
# Static dielectric constant tensor:
#      x y z
#    x 1.680420 0.000000 0.000000 
#    y 0.000000 1.707170 0.000000 
#    z 0.000000 0.000000 1.705350 
# 
# From -- ./inp_files/12022.got.cif
#   From: 2010.05.17/outbox.cif.g08.bks.cpg/sg23_7_cif.got.tgz:12022.got - 2010.06.04 12:02:01.
