data_PCOD9329746
_publ_section_title
;
Structure prediction by ZEFSAII (Michael W. Deem and Ramdas Pophale) SiO2 
 PCOD9329746
Probable space group: I 2 2 2
;
_chemical_formula_sum "Si O2"
_cell_formula_units_Z 56
_cell_length_a 18.044055
_cell_length_b 5.371260
_cell_length_c 24.395115
_cell_angle_alpha 90.000000
_cell_angle_beta 90.000000
_cell_angle_gamma 90.000000
_cell_volume 2364.357734
_symmetry_space_group_name_H-M "I 2 2 2"
_symmetry_group_IT_number 23
_symmetry_cell_setting 'orthorhombic'
loop_
_space_group_symop_operation_xyz
x,y,z
-x,-y,z
x,-y,-z
-x,y,-z
1/2+x,1/2+y,1/2+z
1/2-x,1/2-y,1/2+z
1/2+x,1/2-y,1/2-z
1/2-x,1/2+y,1/2-z
loop_
_atom_site_type_symbol
_atom_site_label
_atom_site_fract_x
_atom_site_fract_y
_atom_site_fract_z
Si Si1 0.717987 0.941516 0.879772
Si Si2 0.604235 0.064473 0.437957
Si Si3 0.155568 0.647734 0.267304
Si Si4 0.000352 0.750562 0.325786
Si Si5 0.102913 0.064069 0.880741
Si Si6 0.122647 0.149409 0.233406
Si Si7 0.215209 0.941452 0.437694
O O1 0.694248 0.028883 0.819810
O O2 0.807148 0.931920 0.882112
O O3 0.691443 0.167859 0.918404
O O4 0.690802 0.668895 0.898211
O O5 0.578632 0.838566 0.398709
O O6 0.694486 0.063897 0.435851
O O7 0.583907 0.000000 0.500000
O O8 0.579875 0.340279 0.420829
O O9 0.154667 0.427188 0.221992
O O10 0.071619 0.708909 0.287103
O O11 0.179185 0.928299 0.251074
O O12 0.933137 0.792340 0.283238
O O13 0.000000 0.500000 0.359781
O O14 0.000000 0.000000 0.360013
O O15 0.084715 0.968141 0.819896
O O16 0.194093 0.000000 0.500000
#
# Coordination Sequence:
#
# PCOD9329746 Si02
#       7
#     8   8   8   8   8   8   8
#     4  10  19  29  44  68  95 126 160 192 236 284
#     4   9  17  30  46  64  91 126 161 195 231 277
#     4  10  19  31  46  65  94 124 157 195 233 279
#     4   8  16  30  46  62  84 114 152 192 224 262
#     4  10  19  29  44  68  95 126 160 192 236 284
#     4  10  19  31  46  65  94 124 157 195 233 279
#     4   9  17  30  46  64  91 126 161 195 231 277
#
# _framework density 23.685079000000002
#
# number of rings (size 3 to 8) (size 9 to 14) (size 15 to 20)
#    0.000    2.571    0.000    2.571    0.000    4.571 
#    0.000    0.000    0.000    0.000    0.000    0.000 
#    0.000  154.286    0.000    0.000    0.000    0.000 
#
# Total GULP energy -156260.829915 kJ/mol
# GULP energy per Si atom -5580.743926 kJ/mol
# Density = 2.363117 g / cm^3
# Si number density = 23.685079 Si / 1000 Ang^3
#
#
#
# Elastic Constant Matrix: (Units=GPa)
#
#
# Indices 1 2 3 4 5 6 
#
# 1 46.2059 16.0768 4.3278 0.0000 0.0000 0.0000
# 2 16.0768 188.3877 4.9902 0.0000 0.0000 0.0000
# 3 4.3278 4.9902 50.7393 0.0000 0.0000 0.0000
# 4 0.0000 0.0000 0.0000 40.9561 0.0000 0.0000
# 5 0.0000 0.0000 0.0000 0.0000 -24.9739 0.0000
# 6 0.0000 0.0000 0.0000 0.0000 0.0000 9.5553
#
#
#
# Elastic Compliance Matrix: (Units=1/GPa)
#
#
# Indices 1 2 3 4 5 6 
#
# 1 0.022455 -0.001870 -0.001731 0.000000 0.000000 0.000000
# 2 -0.001870 0.005478 -0.000379 0.000000 0.000000 0.000000
# 3 -0.001731 -0.000379 0.019894 0.000000 0.000000 0.000000
# 4 0.000000 0.000000 0.000000 0.024416 0.000000 0.000000
# 5 0.000000 0.000000 0.000000 0.000000 -0.040042 0.000000
# 6 0.000000 0.000000 0.000000 0.000000 0.000000 0.104654
#
#
# Mechanical properties :
#
#
# Convention : Reuss Voigt Hill
#
# Bulk Modulus (GPa) = 25.08487 37.34693 31.21590
# Shear Modulus (GPa) = 31.62450 22.43670 27.03060
#
# Velocity S-wave (km/s) = 3.65801 3.08115 3.38190
# Velocity P-wave (km/s) = 5.33436 5.33482 5.33459
#
# Compressibility (1/GPa) = 0.03986467
#
# Stress axis : x y z
#
# Youngs Moduli (GPa) = 44.53304 182.55281 50.26754
#
# Poissons Ratio (x) = 0.34145 0.08703
# Poissons Ratio (y) = 0.08330 0.01906
# Poissons Ratio (z) = 0.07710 0.06923
#
# Static dielectric constant tensor:
#      x y z
#    x 2.009100 0.000000 0.000000 
#    y 0.000000 2.069580 0.000000 
#    z 0.000000 0.000000 1.855210 
# 
# From -- ./inp_files/27358.got.cif
#   From: 2010.05.17/outbox.cif.g08.bks.cpg/sg23_14_cif.got.tgz:27358.got - 2010.06.04 12:02:01.
