data_PCOD9329130
_publ_section_title
;
Structure prediction by ZEFSAII (Michael W. Deem and Ramdas Pophale) SiO2 
 PCOD9329130
Probable space group: F 2 2 2
;
_chemical_formula_sum "Si O2"
_cell_formula_units_Z 64
_cell_length_a 11.599201
_cell_length_b 16.014658
_cell_length_c 14.546305
_cell_angle_alpha 90.000000
_cell_angle_beta 90.000000
_cell_angle_gamma 90.000000
_cell_volume 2702.081427
_symmetry_space_group_name_H-M "F 2 2 2"
_symmetry_group_IT_number 22
_symmetry_cell_setting 'orthorhombic'
loop_
_space_group_symop_operation_xyz
x,y,z
-x,-y,z
x,-y,-z
-x,y,-z
x,1/2+y,1/2+z
-x,1/2-y,1/2+z
x,1/2-y,1/2-z
-x,1/2+y,1/2-z
1/2+x,y,1/2+z
1/2-x,-y,1/2+z
1/2+x,-y,1/2-z
1/2-x,y,1/2-z
1/2+x,1/2+y,z
1/2-x,1/2-y,z
1/2+x,1/2-y,-z
1/2-x,1/2+y,-z
loop_
_atom_site_type_symbol
_atom_site_label
_atom_site_fract_x
_atom_site_fract_y
_atom_site_fract_z
Si Si1 0.050650 0.214255 0.147605
Si Si2 0.198833 0.550065 0.648320
Si Si3 0.628597 0.635787 0.481534
Si Si4 0.196074 0.640059 0.352086
O O1 0.070844 0.250000 0.250000
O O2 0.109051 0.124463 0.135430
O O3 0.106747 0.279640 0.077191
O O4 0.914470 0.198775 0.135672
O O5 0.250000 0.556760 0.750000
O O6 0.302371 0.569881 0.579485
O O7 0.154687 0.456165 0.637486
O O8 0.500000 0.604755 0.500000
O O9 0.705307 0.650926 0.571673
O O10 0.250000 0.649598 0.250000
#
# Coordination Sequence:
#
# PCOD9329130 Si02
#       4
#    16  16  16  16
#     4  12  26  48  80 114 156 198 265 319 383 453
#     4  11  25  49  79 114 157 206 257 317 384 456
#     4  12  28  47  79 115 154 199 259 319 382 452
#     4  11  28  51  77 114 163 207 252 313 390 461
#
# _framework density 23.685444
#
# number of rings (size 3 to 8) (size 9 to 14) (size 15 to 20)
#    0.000    0.500    2.500    3.750    7.000    4.500 
#    0.000    2.500    0.000    0.000    0.000    0.000 
#    0.000    0.000    0.000    0.000    0.000    0.000 
#
# Total GULP energy -89767.594882 kJ/mol
# GULP energy per Si atom -5610.474680 kJ/mol
# Density = 2.363154 g / cm^3
# Si number density = 23.685444 Si / 1000 Ang^3
#
#
#
# Elastic Constant Matrix: (Units=GPa)
#
#
# Indices 1 2 3 4 5 6 
#
# 1 103.8411 7.1291 56.8861 0.0000 0.0000 0.0000
# 2 7.1291 124.2053 28.5984 0.0000 0.0000 0.0000
# 3 56.8861 28.5984 178.1525 0.0000 0.0000 0.0000
# 4 0.0000 0.0000 0.0000 37.0965 0.0000 0.0000
# 5 0.0000 0.0000 0.0000 0.0000 34.5673 0.0000
# 6 0.0000 0.0000 0.0000 0.0000 0.0000 18.0293
#
#
#
# Elastic Compliance Matrix: (Units=1/GPa)
#
#
# Indices 1 2 3 4 5 6 
#
# 1 0.011676 0.000195 -0.003760 0.000000 0.000000 0.000000
# 2 0.000195 0.008363 -0.001405 0.000000 0.000000 0.000000
# 3 -0.003760 -0.001405 0.007039 0.000000 0.000000 0.000000
# 4 0.000000 0.000000 0.000000 0.026957 0.000000 0.000000
# 5 0.000000 0.000000 0.000000 0.000000 0.028929 0.000000
# 6 0.000000 0.000000 0.000000 0.000000 0.000000 0.055465
#
#
# Mechanical properties :
#
#
# Convention : Reuss Voigt Hill
#
# Bulk Modulus (GPa) = 58.34130 65.71404 62.02767
# Shear Modulus (GPa) = 32.45019 38.84429 35.64724
#
# Velocity S-wave (km/s) = 3.70543 4.05409 3.88368
# Velocity P-wave (km/s) = 6.55684 7.05117 6.80849
#
# Compressibility (1/GPa) = 0.01714052
#
# Stress axis : x y z
#
# Youngs Moduli (GPa) = 85.64322 119.56764 142.06060
#
# Poissons Ratio (x) = -0.02337 0.53412
# Poissons Ratio (y) = -0.01674 0.19959
# Poissons Ratio (z) = 0.32200 0.16799
#
# Static dielectric constant tensor:
#      x y z
#    x 1.902580 0.000000 0.000000 
#    y 0.000000 1.914160 0.000000 
#    z 0.000000 0.000000 1.876890 
# 
# From -- ./inp_files/27795.got.cif
#   From: 2010.05.17/outbox.cif.g08.bks.cpg/sg22_14_cif.got.tgz:27795.got - 2010.06.03 23:40:54.
