data_PCOD9329456
_publ_section_title
;
Structure prediction by ZEFSAII (Michael W. Deem and Ramdas Pophale) SiO2 
 PCOD9329456
Probable space group: I 2 2 2
;
_chemical_formula_sum "Si O2"
_cell_formula_units_Z 40
_cell_length_a 15.954419
_cell_length_b 14.666737
_cell_length_c 7.621022
_cell_angle_alpha 90.000000
_cell_angle_beta 90.000000
_cell_angle_gamma 90.000000
_cell_volume 1783.313565
_symmetry_space_group_name_H-M "I 2 2 2"
_symmetry_group_IT_number 23
_symmetry_cell_setting 'orthorhombic'
loop_
_space_group_symop_operation_xyz
x,y,z
-x,-y,z
x,-y,-z
-x,y,-z
1/2+x,1/2+y,1/2+z
1/2-x,1/2-y,1/2+z
1/2+x,1/2-y,1/2-z
1/2-x,1/2+y,1/2-z
loop_
_atom_site_type_symbol
_atom_site_label
_atom_site_fract_x
_atom_site_fract_y
_atom_site_fract_z
Si Si1 0.015122 0.751590 0.303413
Si Si2 0.673289 0.653375 0.198517
Si Si3 0.233403 0.032167 0.201137
Si Si4 0.827757 0.773123 0.301882
Si Si5 0.079665 0.453514 0.693662
O O1 0.085852 0.813995 0.214200
O O2 0.056815 0.652351 0.321770
O O3 0.000000 0.789552 0.500000
O O4 0.919983 0.743333 0.235639
O O5 0.681418 0.544874 0.197900
O O6 0.757565 0.695529 0.282078
O O7 0.671823 0.697590 0.005545
O O8 0.198630 0.133915 0.206845
O O9 0.328661 0.034554 0.272473
O O10 0.234357 0.000000 0.000000
O O11 0.084665 0.500000 0.500000
O O12 0.000000 0.500000 0.784468
#
# Coordination Sequence:
#
# PCOD9329456 Si02
#       5
#     8   8   8   8   8
#     4  10  20  37  61  93 123 169 214 258 305 391
#     4  11  23  40  64  93 130 166 218 262 319 383
#     4  11  23  40  64  92 127 174 212 264 322 378
#     4  11  23  41  64  94 130 168 214 266 319 381
#     4  10  17  31  62  91 117 150 219 260 303 364
#
# _framework density 22.430156
#
# number of rings (size 3 to 8) (size 9 to 14) (size 15 to 20)
#    0.000    1.400    4.000    3.000    5.600    0.800 
#    0.000    8.000    0.000    1.200    0.000    0.000 
#    0.000    0.000    0.000    0.000    0.000    0.000 
#
# Total GULP energy -111698.445913 kJ/mol
# GULP energy per Si atom -5584.922296 kJ/mol
# Density = 2.237910 g / cm^3
# Si number density = 22.430156 Si / 1000 Ang^3
#
#
#
# Elastic Constant Matrix: (Units=GPa)
#
#
# Indices 1 2 3 4 5 6 
#
# 1 158.1431 39.4738 0.8030 0.0000 0.0000 0.0000
# 2 39.4738 106.3690 -4.6203 0.0000 0.0000 0.0000
# 3 0.8030 -4.6203 37.0444 0.0000 0.0000 0.0000
# 4 0.0000 0.0000 0.0000 29.7801 0.0000 0.0000
# 5 0.0000 0.0000 0.0000 0.0000 9.6955 0.0000
# 6 0.0000 0.0000 0.0000 0.0000 0.0000 44.3646
#
#
#
# Elastic Compliance Matrix: (Units=1/GPa)
#
#
# Indices 1 2 3 4 5 6 
#
# 1 0.006977 -0.002610 -0.000477 0.000000 0.000000 0.000000
# 2 -0.002610 0.010429 0.001357 0.000000 0.000000 0.000000
# 3 -0.000477 0.001357 0.027174 0.000000 0.000000 0.000000
# 4 0.000000 0.000000 0.000000 0.033579 0.000000 0.000000
# 5 0.000000 0.000000 0.000000 0.000000 0.103141 0.000000
# 6 0.000000 0.000000 0.000000 0.000000 0.000000 0.022541
#
#
# Mechanical properties :
#
#
# Convention : Reuss Voigt Hill
#
# Bulk Modulus (GPa) = 24.31830 41.42995 32.87412
# Shear Modulus (GPa) = 22.62369 34.49470 28.55919
#
# Velocity S-wave (km/s) = 3.17934 3.92582 3.57213
# Velocity P-wave (km/s) = 4.93385 6.24982 5.63041
#
# Compressibility (1/GPa) = 0.04112130
#
# Stress axis : x y z
#
# Youngs Moduli (GPa) = 143.32222 95.88865 36.79959
#
# Poissons Ratio (x) = 0.25027 0.01755
# Poissons Ratio (y) = 0.37407 -0.04995
# Poissons Ratio (z) = 0.06833 -0.13015
#
# Static dielectric constant tensor:
#      x y z
#    x 1.908690 0.000000 0.000000 
#    y 0.000000 1.798570 0.000000 
#    z 0.000000 0.000000 1.918050 
# 
# From -- ./inp_files/9560.got.cif
#   From: 2010.05.17/outbox.cif.g08.bks.cpg/sg23_5_cif.got.tgz:9560.got - 2010.06.04 12:02:01.
