data_PCOD9329376
_publ_section_title
;
Structure prediction by ZEFSAII (Michael W. Deem and Ramdas Pophale) SiO2 
 PCOD9329376
Probable space group: I 2 2 2
;
_chemical_formula_sum "Si O2"
_cell_formula_units_Z 52
_cell_length_a 11.014135
_cell_length_b 24.767057
_cell_length_c 9.346570
_cell_angle_alpha 90.000000
_cell_angle_beta 90.000000
_cell_angle_gamma 90.000000
_cell_volume 2549.629421
_symmetry_space_group_name_H-M "I 2 2 2"
_symmetry_group_IT_number 23
_symmetry_cell_setting 'orthorhombic'
loop_
_space_group_symop_operation_xyz
x,y,z
-x,-y,z
x,-y,-z
-x,y,-z
1/2+x,1/2+y,1/2+z
1/2-x,1/2-y,1/2+z
1/2+x,1/2-y,1/2-z
1/2-x,1/2+y,1/2-z
loop_
_atom_site_type_symbol
_atom_site_label
_atom_site_fract_x
_atom_site_fract_y
_atom_site_fract_z
Si Si1 0.742885 0.807369 0.668336
Si Si2 0.981880 0.338849 0.244205
Si Si3 0.636291 0.514054 0.764029
Si Si4 0.726585 0.423760 0.980815
Si Si5 0.500000 0.076383 0.500000
Si Si6 0.690926 0.000000 0.000000
Si Si7 0.000000 0.590586 0.500000
Si Si8 0.129277 0.756175 0.075225
O O1 0.612226 0.809966 0.748840
O O2 0.769650 0.862545 0.579914
O O3 0.834086 0.797096 0.799339
O O4 0.724833 0.759564 0.550237
O O5 0.942686 0.368247 0.386761
O O6 0.891176 0.299502 0.163480
O O7 0.009016 0.387819 0.139587
O O8 0.500000 0.500000 0.717154
O O9 0.675457 0.462450 0.858402
O O10 0.726154 0.519488 0.630651
O O11 0.650299 0.564420 0.874408
O O12 0.863533 0.444711 0.013768
O O13 0.604585 0.049373 0.051824
O O14 0.000000 0.769016 0.000000
#
# Coordination Sequence:
#
# PCOD9329376 Si02
#       8
#     8   8   8   8   4   4   4   8
#     4  10  21  39  64  94 125 169 216 262 326 388
#     4  10  19  38  58  89 128 161 199 264 330 374
#     4  11  24  42  61  86 127 172 209 255 320 394
#     4  10  20  39  65  92 120 163 214 267 314 389
#     4  10  16  35  64  88 118 154 202 264 331 366
#     4  11  23  40  62  96 125 157 212 266 328 401
#     4  11  24  36  64 100 124 154 210 275 340 380
#     4  10  21  41  62  92 131 170 218 266 317 387
#
# _framework density 20.395119000000001
#
# number of rings (size 3 to 8) (size 9 to 14) (size 15 to 20)
#    0.000    1.692    3.846    3.923    2.154    2.462 
#    0.000    9.231    0.000    0.000    0.000    0.000 
#    0.000    0.000    0.000    0.000    0.000    0.000 
#
# Total GULP energy -144753.068160 kJ/mol
# GULP energy per Si atom -5567.425698 kJ/mol
# Density = 2.034870 g / cm^3
# Si number density = 20.395119 Si / 1000 Ang^3
#
#
#
# Elastic Constant Matrix: (Units=GPa)
#
#
# Indices 1 2 3 4 5 6 
#
# 1 74.3455 17.2052 19.5865 -0.0001 0.0001 0.0000
# 2 17.2052 46.9181 37.0376 0.0000 0.0000 0.0000
# 3 19.5865 37.0376 85.3271 -0.0011 -0.0001 0.0000
# 4 -0.0001 0.0000 -0.0011 -14.9404 -0.0002 0.0001
# 5 0.0001 0.0000 -0.0001 -0.0002 23.8755 0.0000
# 6 0.0000 0.0000 0.0000 0.0001 0.0000 19.0298
#
#
#
# Elastic Compliance Matrix: (Units=1/GPa)
#
#
# Indices 1 2 3 4 5 6 
#
# 1 0.014838 -0.004187 -0.001588 0.000000 0.000000 0.000000
# 2 -0.004187 0.033606 -0.013626 0.000001 0.000000 0.000000
# 3 -0.001588 -0.013626 0.017999 -0.000001 0.000000 0.000000
# 4 0.000000 0.000001 -0.000001 -0.066933 -0.000001 0.000000
# 5 0.000000 0.000000 0.000000 -0.000001 0.041884 0.000000
# 6 0.000000 0.000000 0.000000 0.000000 0.000000 0.052549
#
#
# Mechanical properties :
#
#
# Convention : Reuss Voigt Hill
#
# Bulk Modulus (GPa) = 36.18040 39.36105 37.77072
# Shear Modulus (GPa) = 35.22129 14.44374 24.83252
#
# Velocity S-wave (km/s) = 4.16016 2.66408 3.49316
# Velocity P-wave (km/s) = 6.39173 5.36696 5.90163
#
# Compressibility (1/GPa) = 0.02763927
#
# Stress axis : x y z
#
# Youngs Moduli (GPa) = 67.39337 29.75687 55.55933
#
# Poissons Ratio (x) = 0.12460 0.08826
# Poissons Ratio (y) = 0.28220 0.75705
# Poissons Ratio (z) = 0.10705 0.40546
#
# Static dielectric constant tensor:
#      x y z
#    x 1.779510 0.000000 0.000000 
#    y 0.000000 1.758170 0.000000 
#    z 0.000000 0.000000 1.771000 
# 
# From -- ./inp_files/8839.got.cif
#   From: 2010.05.17/outbox.cif.g08.bks.cpg/sg23_5_cif.got.tgz:8839.got - 2010.06.04 12:02:01.
