data_PCOD9329188
_publ_section_title
;
Structure prediction by ZEFSAII (Michael W. Deem and Ramdas Pophale) SiO2 
 PCOD9329188
Probable space group: F 2 2 2
;
_chemical_formula_sum "Si O2"
_cell_formula_units_Z 48
_cell_length_a 24.270684
_cell_length_b 15.663662
_cell_length_c 4.963397
_cell_angle_alpha 90.000000
_cell_angle_beta 90.000000
_cell_angle_gamma 90.000000
_cell_volume 1886.923672
_symmetry_space_group_name_H-M "F 2 2 2"
_symmetry_group_IT_number 22
_symmetry_cell_setting 'orthorhombic'
loop_
_space_group_symop_operation_xyz
x,y,z
-x,-y,z
x,-y,-z
-x,y,-z
x,1/2+y,1/2+z
-x,1/2-y,1/2+z
x,1/2-y,1/2-z
-x,1/2+y,1/2-z
1/2+x,y,1/2+z
1/2-x,-y,1/2+z
1/2+x,-y,1/2-z
1/2-x,y,1/2-z
1/2+x,1/2+y,z
1/2-x,1/2-y,z
1/2+x,1/2-y,-z
1/2-x,1/2+y,-z
loop_
_atom_site_type_symbol
_atom_site_label
_atom_site_fract_x
_atom_site_fract_y
_atom_site_fract_z
Si Si1 0.687649 0.158942 0.136293
Si Si2 0.250000 0.565240 0.750000
Si Si3 0.920818 0.060302 0.250822
Si Si4 0.000000 0.198669 0.000000
O O1 0.667832 0.250000 0.250000
O O2 0.750000 0.154553 0.250000
O O3 0.641525 0.091936 0.217103
O O4 0.700177 0.130367 0.826085
O O5 0.242490 0.500000 0.500000
O O6 0.936601 0.000000 0.500000
O O7 0.958250 0.140992 0.174366
O O8 0.925376 0.000000 0.000000
O O9 0.971619 0.250000 0.750000
#
# Coordination Sequence:
#
# PCOD9329188 Si02
#       4
#    16   8  16   8
#     4  11  28  50  76 117 167 216 275 331 409 486
#     4  12  26  49  77 110 162 216 272 330 401 482
#     4  12  29  50  84 121 161 216 274 342 408 492
#     4  12  27  56  87 120 164 212 272 344 413 494
#
# _framework density 25.438230999999998
#
# number of rings (size 3 to 8) (size 9 to 14) (size 15 to 20)
#    0.000    0.333    1.667    4.500    9.333    4.000 
#    0.000    0.000    0.000    0.000    0.000    0.000 
#    0.000    0.000    0.000    0.000    0.000    0.000 
#
# Total GULP energy -67040.403004 kJ/mol
# GULP energy per Si atom -5586.700250 kJ/mol
# Density = 2.538033 g / cm^3
# Si number density = 25.438231 Si / 1000 Ang^3
#
#
#
# Elastic Constant Matrix: (Units=GPa)
#
#
# Indices 1 2 3 4 5 6 
#
# 1 91.7357 9.6163 30.9892 0.0004 -0.0001 -0.0001
# 2 9.6163 141.2452 79.8057 0.0001 0.0000 0.0001
# 3 30.9892 79.8057 218.8863 0.0073 0.0000 -0.0002
# 4 0.0004 0.0001 0.0073 -62.4655 0.0003 0.0009
# 5 -0.0001 0.0000 0.0000 0.0003 41.0258 0.0001
# 6 -0.0001 0.0001 -0.0002 0.0009 0.0001 57.0909
#
#
#
# Elastic Compliance Matrix: (Units=1/GPa)
#
#
# Indices 1 2 3 4 5 6 
#
# 1 0.011452 0.000172 -0.001684 0.000000 0.000000 0.000000
# 2 0.000172 0.008919 -0.003276 0.000000 0.000000 0.000000
# 3 -0.001684 -0.003276 0.006002 0.000001 0.000000 0.000000
# 4 0.000000 0.000000 0.000001 -0.016009 0.000000 0.000000
# 5 0.000000 0.000000 0.000000 0.000000 0.024375 0.000000
# 6 0.000000 0.000000 0.000000 0.000000 0.000000 0.017516
#
#
# Mechanical properties :
#
#
# Convention : Reuss Voigt Hill
#
# Bulk Modulus (GPa) = 59.53905 76.96550 68.25227
# Shear Modulus (GPa) = 74.15092 29.22731 51.68912
#
# Velocity S-wave (km/s) = 5.40488 3.39330 4.51260
# Velocity P-wave (km/s) = 7.89977 6.75826 7.35121
#
# Compressibility (1/GPa) = 0.01679570
#
# Stress axis : x y z
#
# Youngs Moduli (GPa) = 87.32316 112.11579 166.62433
#
# Poissons Ratio (x) = -0.01926 0.28058
# Poissons Ratio (y) = -0.01500 0.54591
# Poissons Ratio (z) = 0.14705 0.36733
#
# Static dielectric constant tensor:
#      x y z
#    x 2.203430 0.000000 0.000010 
#    y 0.000000 2.088310 0.000000 
#    z 0.000010 0.000000 2.166670 
# 
# From -- ./inp_files/5077.got.cif
#   From: 2010.05.17/outbox.cif.g08.bks.cpg/sg22_3_cif.got.tgz:5077.got - 2010.06.03 23:40:54.
