data_PCOD9329382
_publ_section_title
;
Structure prediction by ZEFSAII (Michael W. Deem and Ramdas Pophale) SiO2 
 PCOD9329382
Probable space group: I 2 2 2
;
_chemical_formula_sum "Si O2"
_cell_formula_units_Z 44
_cell_length_a 8.964171
_cell_length_b 7.950515
_cell_length_c 30.616026
_cell_angle_alpha 90.000000
_cell_angle_beta 90.000000
_cell_angle_gamma 90.000000
_cell_volume 2181.997315
_symmetry_space_group_name_H-M "I 2 2 2"
_symmetry_group_IT_number 23
_symmetry_cell_setting 'orthorhombic'
loop_
_space_group_symop_operation_xyz
x,y,z
-x,-y,z
x,-y,-z
-x,y,-z
1/2+x,1/2+y,1/2+z
1/2-x,1/2-y,1/2+z
1/2+x,1/2-y,1/2-z
1/2-x,1/2+y,1/2-z
loop_
_atom_site_type_symbol
_atom_site_label
_atom_site_fract_x
_atom_site_fract_y
_atom_site_fract_z
Si Si1 0.745435 0.123262 0.562073
Si Si2 0.500000 0.500000 0.000000
Si Si3 0.715802 0.398042 0.857158
Si Si4 0.785039 0.762713 0.298167
Si Si5 0.068931 0.664504 0.622992
Si Si6 0.548946 0.803076 0.709601
Si Si7 0.500000 0.000000 0.500000
O O1 0.793062 0.273218 0.593866
O O2 0.729197 0.970731 0.596646
O O3 0.604547 0.115281 0.530562
O O4 0.890155 0.101629 0.531450
O O5 0.694768 0.558054 0.823906
O O6 0.563945 0.299443 0.868600
O O7 0.843640 0.293407 0.832451
O O8 0.866437 0.629399 0.329077
O O9 0.611409 0.718026 0.295149
O O10 0.861021 0.762590 0.251229
O O11 0.000000 0.500000 0.602452
O O12 0.500000 0.000000 0.715762
#
# Coordination Sequence:
#
# PCOD9329382 Si02
#       7
#     8   2   8   8   8   8   2
#     4  10  20  38  66  97 123 160 201 258 309 370
#     4  10  16  38  66  98 108 154 214 242 300 370
#     4  10  21  39  63  87 125 162 207 256 305 368
#     4  10  20  35  57  84 118 162 216 254 306 361
#     4  11  22  39  61  89 127 169 203 252 309 370
#     4  10  21  35  57  86 120 162 209 267 309 364
#     4  10  24  34  76 100 128 146 216 264 308 390
#
# _framework density 20.165011
#
# number of rings (size 3 to 8) (size 9 to 14) (size 15 to 20)
#    0.000    1.818    1.818    3.273    6.364    2.909 
#    0.000    5.000    0.000    1.091    0.000    0.000 
#    0.000    0.000    0.000    0.000    0.000    0.000 
#
# Total GULP energy -122677.233490 kJ/mol
# GULP energy per Si atom -5576.237886 kJ/mol
# Density = 2.011911 g / cm^3
# Si number density = 20.165011 Si / 1000 Ang^3
#
#
#
# Elastic Constant Matrix: (Units=GPa)
#
#
# Indices 1 2 3 4 5 6 
#
# 1 148.5064 29.6335 62.9711 0.0000 0.0000 0.0000
# 2 29.6335 24.4133 18.5135 0.0000 0.0000 0.0000
# 3 62.9711 18.5135 127.3617 0.0000 0.0000 0.0000
# 4 0.0000 0.0000 0.0000 -16.4358 0.0000 0.0000
# 5 0.0000 0.0000 0.0000 0.0000 40.9106 0.0000
# 6 0.0000 0.0000 0.0000 0.0000 0.0000 18.3400
#
#
#
# Elastic Compliance Matrix: (Units=1/GPa)
#
#
# Indices 1 2 3 4 5 6 
#
# 1 0.010198 -0.009614 -0.003644 0.000000 0.000000 0.000000
# 2 -0.009614 0.055101 -0.003256 0.000000 0.000000 0.000000
# 3 -0.003644 -0.003256 0.010127 0.000000 0.000000 0.000000
# 4 0.000000 0.000000 0.000000 -0.060843 0.000000 0.000000
# 5 0.000000 0.000000 0.000000 0.000000 0.024444 0.000000
# 6 0.000000 0.000000 0.000000 0.000000 0.000000 0.054526
#
#
# Mechanical properties :
#
#
# Convention : Reuss Voigt Hill
#
# Bulk Modulus (GPa) = 23.58732 58.05750 40.82241
# Shear Modulus (GPa) = 35.53336 21.17382 28.35359
#
# Velocity S-wave (km/s) = 4.20233 3.24393 3.75384
# Velocity P-wave (km/s) = 5.93874 6.54862 6.25112
#
# Compressibility (1/GPa) = 0.04239567
#
# Stress axis : x y z
#
# Youngs Moduli (GPa) = 98.06296 18.14861 98.74777
#
# Poissons Ratio (x) = 0.17449 0.35987
# Poissons Ratio (y) = 0.94282 0.32151
# Poissons Ratio (z) = 0.35738 0.05909
#
# Static dielectric constant tensor:
#      x y z
#    x 1.751720 0.000000 0.000000 
#    y 0.000000 1.819540 0.000000 
#    z 0.000000 0.000000 1.722970 
# 
# From -- ./inp_files/13296.got.cif
#   From: 2010.05.17/outbox.cif.g08.bks.cpg/sg23_7_cif.got.tgz:13296.got - 2010.06.04 12:02:01.
