data_PCOD9329462
_publ_section_title
;
Structure prediction by ZEFSAII (Michael W. Deem and Ramdas Pophale) SiO2 
 PCOD9329462
Probable space group: I 2 2 2
;
_chemical_formula_sum "Si O2"
_cell_formula_units_Z 40
_cell_length_a 18.611167
_cell_length_b 9.232776
_cell_length_c 8.715178
_cell_angle_alpha 90.000000
_cell_angle_beta 90.000000
_cell_angle_gamma 90.000000
_cell_volume 1497.552881
_symmetry_space_group_name_H-M "I 2 2 2"
_symmetry_group_IT_number 23
_symmetry_cell_setting 'orthorhombic'
loop_
_space_group_symop_operation_xyz
x,y,z
-x,-y,z
x,-y,-z
-x,y,-z
1/2+x,1/2+y,1/2+z
1/2-x,1/2-y,1/2+z
1/2+x,1/2-y,1/2-z
1/2-x,1/2+y,1/2-z
loop_
_atom_site_type_symbol
_atom_site_label
_atom_site_fract_x
_atom_site_fract_y
_atom_site_fract_z
Si Si1 0.283988 0.604554 0.140718
Si Si2 0.080610 0.780180 0.510353
Si Si3 0.570893 0.224804 0.668678
Si Si4 0.189026 0.187668 0.041714
Si Si5 0.912649 0.388425 0.787578
O O1 0.369046 0.619527 0.111224
O O2 0.277527 0.582832 0.325942
O O3 0.261616 0.500000 0.000000
O O4 0.245088 0.751177 0.081300
O O5 0.102037 0.763106 0.335667
O O6 0.081675 0.629899 0.605032
O O7 0.000000 0.833686 0.500000
O O8 0.614967 0.330892 0.556241
O O9 0.483810 0.207022 0.663963
O O10 0.587993 0.052752 0.655222
O O11 0.158974 0.315520 0.151361
#
# Coordination Sequence:
#
# PCOD9329462 Si02
#       5
#     8   8   8   8   8
#     4  11  24  41  59  83 116 157 200 250 309 366
#     4   9  19  35  56  85 121 162 206 242 281 343
#     4  10  17  32  57  91 126 156 193 241 295 354
#     4  11  22  37  57  83 116 155 198 249 303 364
#     4   9  18  31  57  90 124 160 192 240 299 346
#
# _framework density 26.710242999999998
#
# number of rings (size 3 to 8) (size 9 to 14) (size 15 to 20)
#    0.000    2.000    0.000    4.200    0.000    4.400 
#    0.000    6.000    0.000    0.000    0.000   16.800 
#    0.000    0.000    0.000    0.000    0.000    0.000 
#
# Total GULP energy -111409.044764 kJ/mol
# GULP energy per Si atom -5570.452238 kJ/mol
# Density = 2.664945 g / cm^3
# Si number density = 26.710243 Si / 1000 Ang^3
#
#
#
# Elastic Constant Matrix: (Units=GPa)
#
#
# Indices 1 2 3 4 5 6 
#
# 1 83.2971 12.4955 20.5127 0.0000 0.0000 0.0000
# 2 12.4955 67.7609 23.4717 0.0000 0.0000 0.0000
# 3 20.5127 23.4717 203.5515 0.0000 0.0000 0.0000
# 4 0.0000 0.0000 0.0000 25.2417 0.0000 0.0000
# 5 0.0000 0.0000 0.0000 0.0000 43.5046 0.0000
# 6 0.0000 0.0000 0.0000 0.0000 0.0000 13.0986
#
#
#
# Elastic Compliance Matrix: (Units=1/GPa)
#
#
# Indices 1 2 3 4 5 6 
#
# 1 0.012555 -0.001955 -0.001040 0.000000 0.000000 0.000000
# 2 -0.001955 0.015676 -0.001611 0.000000 0.000000 0.000000
# 3 -0.001040 -0.001611 0.005203 0.000000 0.000000 0.000000
# 4 0.000000 0.000000 0.000000 0.039617 0.000000 0.000000
# 5 0.000000 0.000000 0.000000 0.000000 0.022986 0.000000
# 6 0.000000 0.000000 0.000000 0.000000 0.000000 0.076344
#
#
# Mechanical properties :
#
#
# Convention : Reuss Voigt Hill
#
# Bulk Modulus (GPa) = 41.28254 51.95213 46.61733
# Shear Modulus (GPa) = 26.36214 36.24429 31.30322
#
# Velocity S-wave (km/s) = 3.14501 3.68767 3.42710
# Velocity P-wave (km/s) = 5.35513 6.13387 5.75768
#
# Compressibility (1/GPa) = 0.02422332
#
# Stress axis : x y z
#
# Youngs Moduli (GPa) = 79.65250 63.79104 192.18706
#
# Poissons Ratio (x) = 0.12471 0.19982
# Poissons Ratio (y) = 0.15572 0.30954
# Poissons Ratio (z) = 0.08282 0.10274
#
# Static dielectric constant tensor:
#      x y z
#    x 2.136380 0.000000 0.000000 
#    y 0.000000 2.286560 0.000000 
#    z 0.000000 0.000000 2.191840 
# 
# From -- ./inp_files/11809.got.cif
#   From: 2010.05.17/outbox.cif.g08.bks.cpg/sg23_6_cif.got.tgz:11809.got - 2010.06.04 12:02:01.
