data_PCOD9329605
_publ_section_title
;
Structure prediction by ZEFSAII (Michael W. Deem and Ramdas Pophale) SiO2 
 PCOD9329605
Probable space group: I 2 2 2
;
_chemical_formula_sum "Si O2"
_cell_formula_units_Z 54
_cell_length_a 27.344761
_cell_length_b 10.558782
_cell_length_c 10.431982
_cell_angle_alpha 90.000000
_cell_angle_beta 90.000000
_cell_angle_gamma 90.000000
_cell_volume 3011.998729
_symmetry_space_group_name_H-M "I 2 2 2"
_symmetry_group_IT_number 23
_symmetry_cell_setting 'orthorhombic'
loop_
_space_group_symop_operation_xyz
x,y,z
-x,-y,z
x,-y,-z
-x,y,-z
1/2+x,1/2+y,1/2+z
1/2-x,1/2-y,1/2+z
1/2+x,1/2-y,1/2-z
1/2-x,1/2+y,1/2-z
loop_
_atom_site_type_symbol
_atom_site_label
_atom_site_fract_x
_atom_site_fract_y
_atom_site_fract_z
Si Si1 0.202359 0.000000 0.000000
Si Si2 0.115309 0.257951 0.403904
Si Si3 0.357091 0.492020 0.756111
Si Si4 0.431720 0.680423 0.834829
Si Si5 0.000000 0.000000 0.500000
Si Si6 0.254846 0.478347 0.856738
Si Si7 0.987525 0.359874 0.652981
Si Si8 0.226384 0.320530 0.354037
O O1 0.237226 0.883202 0.041548
O O2 0.168652 0.036431 0.120849
O O3 0.117552 0.124897 0.327716
O O4 0.100842 0.243920 0.553082
O O5 0.069812 0.330860 0.339252
O O6 0.169814 0.312621 0.395089
O O7 0.394991 0.606239 0.743598
O O8 0.311345 0.524729 0.847858
O O9 0.472937 0.771280 0.777483
O O10 0.464958 0.581238 0.911641
O O11 0.228830 0.575495 0.760040
O O12 0.256710 0.326127 0.825822
O O13 0.236464 0.500000 0.000000
O O14 0.000000 0.500000 0.692066
O O15 0.000000 0.346834 0.500000
#
# Coordination Sequence:
#
# PCOD9329605 Si02
#       8
#     4   8   8   8   2   8   8   8
#     4  10  24  40  54  79 121 152 202 250 292 356
#     4  10  18  33  56  83 112 145 184 233 296 352
#     4  10  19  35  56  81 108 146 193 245 286 350
#     4  11  17  31  57  86 110 144 183 236 297 344
#     4  12  16  28  54  82 108 128 176 238 294 324
#     4  10  22  38  59  84 117 153 204 243 298 353
#     4   9  18  31  48  82 119 140 173 231 288 357
#     4  10  23  38  59  82 119 160 197 250 296 359
#
# _framework density 17.928293
#
# number of rings (size 3 to 8) (size 9 to 14) (size 15 to 20)
#    0.000    1.926    3.704    1.778    6.222    2.370 
#    5.333    0.000    0.000    4.000    0.000    1.037 
#    0.000    0.000    0.000    0.000    0.000    0.000 
#
# Total GULP energy -150323.261655 kJ/mol
# GULP energy per Si atom -5567.528209 kJ/mol
# Density = 1.788749 g / cm^3
# Si number density = 17.928293 Si / 1000 Ang^3
#
#
#
# Elastic Constant Matrix: (Units=GPa)
#
#
# Indices 1 2 3 4 5 6 
#
# 1 90.3363 43.7527 22.1874 0.0000 0.0000 0.0000
# 2 43.7527 83.7914 12.0512 0.0000 0.0000 0.0000
# 3 22.1874 12.0512 59.9928 0.0000 0.0000 0.0000
# 4 0.0000 0.0000 0.0000 13.2224 0.0000 0.0000
# 5 0.0000 0.0000 0.0000 0.0000 12.5375 0.0000
# 6 0.0000 0.0000 0.0000 0.0000 0.0000 39.3811
#
#
#
# Elastic Compliance Matrix: (Units=1/GPa)
#
#
# Indices 1 2 3 4 5 6 
#
# 1 0.015834 -0.007647 -0.004320 0.000000 0.000000 0.000000
# 2 -0.007647 0.015982 -0.000382 0.000000 0.000000 0.000000
# 3 -0.004320 -0.000382 0.018343 0.000000 0.000000 0.000000
# 4 0.000000 0.000000 0.000000 0.075630 0.000000 0.000000
# 5 0.000000 0.000000 0.000000 0.000000 0.079761 0.000000
# 6 0.000000 0.000000 0.000000 0.000000 0.000000 0.025393
#
#
# Mechanical properties :
#
#
# Convention : Reuss Voigt Hill
#
# Bulk Modulus (GPa) = 39.27525 43.34479 41.31002
# Shear Modulus (GPa) = 18.93019 23.43680 21.18350
#
# Velocity S-wave (km/s) = 3.25296 3.61952 3.44112
# Velocity P-wave (km/s) = 6.00528 6.45733 6.23540
#
# Compressibility (1/GPa) = 0.02546133
#
# Stress axis : x y z
#
# Youngs Moduli (GPa) = 63.15390 62.56943 54.51612
#
# Poissons Ratio (x) = 0.47845 0.23551
# Poissons Ratio (y) = 0.48292 0.02085
# Poissons Ratio (z) = 0.27283 0.02393
#
# Static dielectric constant tensor:
#      x y z
#    x 1.639300 0.000000 0.000000 
#    y 0.000000 1.665270 0.000000 
#    z 0.000000 0.000000 1.642390 
# 
# From -- ./inp_files/18013.got.cif
#   From: 2010.05.17/outbox.cif.g08.bks.cpg/sg23_10_cif.got.tgz:18013.got - 2010.06.04 12:02:01.
