data_PCOD9329349
_publ_section_title
;
Structure prediction by ZEFSAII (Michael W. Deem and Ramdas Pophale) SiO2 
 PCOD9329349
Probable space group: I 2 2 2
;
_chemical_formula_sum "Si O2"
_cell_formula_units_Z 48
_cell_length_a 5.345309
_cell_length_b 29.765242
_cell_length_c 13.884894
_cell_angle_alpha 90.000000
_cell_angle_beta 90.000000
_cell_angle_gamma 90.000000
_cell_volume 2209.147950
_symmetry_space_group_name_H-M "I 2 2 2"
_symmetry_group_IT_number 23
_symmetry_cell_setting 'orthorhombic'
loop_
_space_group_symop_operation_xyz
x,y,z
-x,-y,z
x,-y,-z
-x,y,-z
1/2+x,1/2+y,1/2+z
1/2-x,1/2-y,1/2+z
1/2+x,1/2-y,1/2-z
1/2-x,1/2+y,1/2-z
loop_
_atom_site_type_symbol
_atom_site_label
_atom_site_fract_x
_atom_site_fract_y
_atom_site_fract_z
Si Si1 0.425653 0.801157 0.189770
Si Si2 0.744321 0.618116 0.941177
Si Si3 0.996989 0.052901 0.882827
Si Si4 0.921339 0.202616 0.682692
Si Si5 0.243784 0.519231 0.112114
Si Si6 0.008382 0.600377 0.614441
O O1 0.692622 0.798042 0.242428
O O2 0.406635 0.752752 0.137487
O O3 0.443687 0.846910 0.130841
O O4 0.189046 0.804116 0.263928
O O5 0.649213 0.662285 0.887432
O O6 0.789467 0.572537 0.883081
O O7 0.500000 0.603672 0.000000
O O8 0.000000 0.627295 0.000000
O O9 0.752758 0.080088 0.847881
O O10 0.250584 0.075002 0.844447
O O11 0.000000 0.000000 0.864755
O O12 0.000000 0.057689 0.000000
O O13 0.500000 0.500000 0.152220
O O14 0.000000 0.500000 0.161609
O O15 0.241529 0.500000 0.000000
O O16 0.000000 0.592363 0.500000
#
# Coordination Sequence:
#
# PCOD9329349 Si02
#       6
#     8   8   8   8   8   8
#     4  10  21  42  58  76 113 154 193 225 293 361
#     4  12  21  34  58  89 113 138 196 244 278 329
#     4   9  17  30  50  84 114 138 176 220 276 338
#     4  10  23  39  59  79 109 158 189 231 290 349
#     4  10  16  30  50  79 111 148 171 221 284 344
#     4  10  19  32  58  86 107 144 186 236 282 327
#
# _framework density 21.727831999999999
#
# number of rings (size 3 to 8) (size 9 to 14) (size 15 to 20)
#    0.000    1.833    3.333    2.500    0.000    2.667 
#    0.000    2.500    0.000   10.000    0.000    0.000 
#    0.000    0.000    0.000    0.000    0.000    0.000 
#
# Total GULP energy -133896.545352 kJ/mol
# GULP energy per Si atom -5579.022723 kJ/mol
# Density = 2.167838 g / cm^3
# Si number density = 21.727832 Si / 1000 Ang^3
#
#
#
# Elastic Constant Matrix: (Units=GPa)
#
#
# Indices 1 2 3 4 5 6 
#
# 1 174.8381 56.5968 12.3025 0.0000 0.0000 0.0000
# 2 56.5968 170.2118 5.6220 0.0000 0.0000 0.0000
# 3 12.3025 5.6220 27.2681 0.0000 0.0000 0.0000
# 4 0.0000 0.0000 0.0000 -87.1036 0.0000 0.0000
# 5 0.0000 0.0000 0.0000 0.0000 2.1446 0.0000
# 6 0.0000 0.0000 0.0000 0.0000 0.0000 41.2120
#
#
#
# Elastic Compliance Matrix: (Units=1/GPa)
#
#
# Indices 1 2 3 4 5 6 
#
# 1 0.006579 -0.002104 -0.002534 0.000000 0.000000 0.000000
# 2 -0.002104 0.006588 -0.000409 0.000000 0.000000 0.000000
# 3 -0.002534 -0.000409 0.037901 0.000000 0.000000 0.000000
# 4 0.000000 0.000000 0.000000 -0.011481 0.000000 0.000000
# 5 0.000000 0.000000 0.000000 0.000000 0.466279 0.000000
# 6 0.000000 0.000000 0.000000 0.000000 0.000000 0.024265
#
#
# Mechanical properties :
#
#
# Convention : Reuss Voigt Hill
#
# Bulk Modulus (GPa) = 24.40639 57.92895 41.16767
# Shear Modulus (GPa) = 9.02718 11.10374 10.06546
#
# Velocity S-wave (km/s) = 2.04051 2.26307 2.15466
# Velocity P-wave (km/s) = 4.09985 5.79204 5.01779
#
# Compressibility (1/GPa) = 0.04097288
#
# Stress axis : x y z
#
# Youngs Moduli (GPa) = 152.00004 151.78910 26.38478
#
# Poissons Ratio (x) = 0.31934 0.06687
# Poissons Ratio (y) = 0.31978 0.01079
# Poissons Ratio (z) = 0.38524 0.06210
#
# Static dielectric constant tensor:
#      x y z
#    x 1.813850 0.000000 0.000000 
#    y 0.000000 1.916690 0.000000 
#    z 0.000000 0.000000 1.851400 
# 
# From -- ./inp_files/19241.got.cif
#   From: 2010.05.17/outbox.cif.g08.bks.cpg/sg23_10_cif.got.tgz:19241.got - 2010.06.04 12:02:01.
