data_PCOD9329939
_publ_section_title
;
Structure prediction by ZEFSAII (Michael W. Deem and Ramdas Pophale) SiO2 
 PCOD9329939
Probable space group: I 2 2 2
;
_chemical_formula_sum "Si O2"
_cell_formula_units_Z 64
_cell_length_a 5.236789
_cell_length_b 31.333819
_cell_length_c 20.105592
_cell_angle_alpha 90.000000
_cell_angle_beta 90.000000
_cell_angle_gamma 90.000000
_cell_volume 3299.098417
_symmetry_space_group_name_H-M "I 2 2 2"
_symmetry_group_IT_number 23
_symmetry_cell_setting 'orthorhombic'
loop_
_space_group_symop_operation_xyz
x,y,z
-x,-y,z
x,-y,-z
-x,y,-z
1/2+x,1/2+y,1/2+z
1/2-x,1/2-y,1/2+z
1/2+x,1/2-y,1/2-z
1/2-x,1/2+y,1/2-z
loop_
_atom_site_type_symbol
_atom_site_label
_atom_site_fract_x
_atom_site_fract_y
_atom_site_fract_z
Si Si1 0.852380 0.586799 0.663370
Si Si2 0.145220 0.868215 0.193901
Si Si3 0.121144 0.546636 0.188893
Si Si4 0.375411 0.588654 0.837729
Si Si5 0.892087 0.231561 0.213563
Si Si6 0.752900 0.451720 0.470701
Si Si7 0.026844 0.724130 0.922226
Si Si8 0.528276 0.669337 0.923324
O O1 0.624946 0.621196 0.660639
O O2 0.863332 0.564878 0.735770
O O3 0.783912 0.551490 0.608017
O O4 0.118445 0.611632 0.653785
O O5 0.138478 0.894500 0.262429
O O6 0.169298 0.818746 0.212765
O O7 0.404635 0.552657 0.159932
O O8 0.000000 0.500000 0.192064
O O9 0.910903 0.573428 0.147483
O O10 0.467562 0.628616 0.879746
O O11 0.642582 0.256428 0.242163
O O12 0.960302 0.243843 0.137395
O O13 0.752097 0.500000 0.500000
O O14 0.500000 0.431316 0.500000
O O15 0.000000 0.429390 0.500000
O O16 0.812043 0.687401 0.913352
O O17 0.310656 0.705337 0.911363
O O18 0.000000 0.738561 0.000000
O O19 0.500000 0.657263 0.000000
#
# Coordination Sequence:
#
# PCOD9329939 Si02
#       8
#     8   8   8   8   8   8   8   8
#     4  10  21  38  55  78 111 144 191 237 293 346
#     4  10  21  36  56  82 113 151 186 235 294 349
#     4  10  21  34  55  80 106 147 180 228 280 334
#     4  10  19  35  54  81 113 140 183 231 280 335
#     4  12  23  37  61  91 121 157 201 245 296 351
#     4  10  21  36  55  82 105 141 189 252 299 336
#     4  10  21  37  57  87 117 151 196 239 287 344
#     4  10  20  36  61  86 114 147 185 233 284 340
#
# _framework density 19.399239999999999
#
# number of rings (size 3 to 8) (size 9 to 14) (size 15 to 20)
#    0.000    1.750    0.000    4.875    1.750    2.000 
#    4.500    1.875    0.000    2.250    0.000    0.000 
#    0.000    0.000    0.000    0.000    0.000    0.000 
#
# Total GULP energy -178417.003595 kJ/mol
# GULP energy per Si atom -5575.531362 kJ/mol
# Density = 1.935509 g / cm^3
# Si number density = 19.399240 Si / 1000 Ang^3
#
#
#
# Elastic Constant Matrix: (Units=GPa)
#
#
# Indices 1 2 3 4 5 6 
#
# 1 115.4036 13.7650 29.5981 0.0000 0.0000 0.0000
# 2 13.7650 49.7942 11.7884 0.0000 0.0000 0.0000
# 3 29.5981 11.7884 24.9445 0.0000 0.0000 0.0000
# 4 0.0000 0.0000 0.0000 36.1930 0.0000 0.0000
# 5 0.0000 0.0000 0.0000 0.0000 15.0416 0.0000
# 6 0.0000 0.0000 0.0000 0.0000 0.0000 16.3103
#
#
#
# Elastic Compliance Matrix: (Units=1/GPa)
#
#
# Indices 1 2 3 4 5 6 
#
# 1 0.012456 0.000063 -0.014809 0.000000 0.000000 0.000000
# 2 0.000063 0.022613 -0.010761 0.000000 0.000000 0.000000
# 3 -0.014809 -0.010761 0.062747 0.000000 0.000000 0.000000
# 4 0.000000 0.000000 0.000000 0.027630 0.000000 0.000000
# 5 0.000000 0.000000 0.000000 0.000000 0.066482 0.000000
# 6 0.000000 0.000000 0.000000 0.000000 0.000000 0.061311
#
#
# Mechanical properties :
#
#
# Convention : Reuss Voigt Hill
#
# Bulk Modulus (GPa) = 21.36739 33.38283 27.37511
# Shear Modulus (GPa) = 15.63215 22.50837 19.07026
#
# Velocity S-wave (km/s) = 2.84176 3.40997 3.13875
# Velocity P-wave (km/s) = 4.66968 5.72272 5.22281
#
# Compressibility (1/GPa) = 0.04680029
#
# Stress axis : x y z
#
# Youngs Moduli (GPa) = 80.28267 44.22258 15.93712
#
# Poissons Ratio (x) = -0.00277 0.23602
# Poissons Ratio (y) = -0.00503 0.17150
# Poissons Ratio (z) = 1.18894 0.47588
#
# Static dielectric constant tensor:
#      x y z
#    x 1.728380 0.000000 0.000000 
#    y 0.000000 1.666460 0.000000 
#    z 0.000000 0.000000 1.697480 
# 
# From -- ./inp_files/23338.got.cif
#   From: 2010.05.17/outbox.cif.g08.bks.cpg/sg23_12_cif.got.tgz:23338.got - 2010.06.04 12:02:01.
