data_PCOD9329114
_publ_section_title
;
Structure prediction by ZEFSAII (Michael W. Deem and Ramdas Pophale) SiO2 
 PCOD9329114
Probable space group: F 2 2 2
;
_chemical_formula_sum "Si O2"
_cell_formula_units_Z 88
_cell_length_a 12.122583
_cell_length_b 12.286993
_cell_length_c 24.463964
_cell_angle_alpha 90.000000
_cell_angle_beta 90.000000
_cell_angle_gamma 90.000000
_cell_volume 3643.909700
_symmetry_space_group_name_H-M "F 2 2 2"
_symmetry_group_IT_number 22
_symmetry_cell_setting 'orthorhombic'
loop_
_space_group_symop_operation_xyz
x,y,z
-x,-y,z
x,-y,-z
-x,y,-z
x,1/2+y,1/2+z
-x,1/2-y,1/2+z
x,1/2-y,1/2-z
-x,1/2+y,1/2-z
1/2+x,y,1/2+z
1/2-x,-y,1/2+z
1/2+x,-y,1/2-z
1/2-x,y,1/2-z
1/2+x,1/2+y,z
1/2-x,1/2-y,z
1/2+x,1/2-y,-z
1/2-x,1/2+y,-z
loop_
_atom_site_type_symbol
_atom_site_label
_atom_site_fract_x
_atom_site_fract_y
_atom_site_fract_z
Si Si1 0.750000 0.750000 0.030610
Si Si2 0.302845 0.422127 0.546367
Si Si3 0.250000 0.016124 0.750000
Si Si4 0.424131 0.664800 0.705075
Si Si5 0.399475 0.341416 0.124539
Si Si6 0.000000 0.500000 0.880730
Si Si7 0.853978 0.405288 0.356391
O O1 0.664583 0.685715 0.069192
O O2 0.669938 0.820119 0.991561
O O3 0.249824 0.500000 0.500000
O O4 0.397099 0.487875 0.578488
O O5 0.225969 0.379584 0.594127
O O6 0.346776 0.931519 0.770090
O O7 0.202207 0.095450 0.797036
O O8 0.472316 0.750000 0.750000
O O9 0.361424 0.750474 0.667100
O O10 0.499143 0.601422 0.661087
O O11 0.371417 0.464417 0.139168
O O12 0.532448 0.343384 0.131174
#
# Coordination Sequence:
#
# PCOD9329114 Si02
#       7
#     8  16   8  16  16   8  16
#     4  12  26  48  77 111 150 208 266 322 390 492
#     4  12  26  50  76 106 157 205 258 332 397 466
#     4  12  23  46  78 113 158 200 255 328 391 480
#     4  12  26  42  78 110 149 204 256 317 390 481
#     4  11  25  46  74 112 151 201 265 319 395 473
#     4  12  29  50  68 114 158 198 265 326 396 478
#     4  11  25  46  76 115 155 197 258 336 397 462
#
# _framework density 24.149885999999999
#
# number of rings (size 3 to 8) (size 9 to 14) (size 15 to 20)
#    0.000    0.364    5.455    2.727    5.091    0.727 
#    0.000    0.000    0.000    1.091    0.000    0.000 
#    0.000    0.000    0.000    0.000    0.000    0.000 
#
# Total GULP energy -122753.569573 kJ/mol
# GULP energy per Si atom -5579.707708 kJ/mol
# Density = 2.409492 g / cm^3
# Si number density = 24.149886 Si / 1000 Ang^3
#
#
#
# Elastic Constant Matrix: (Units=GPa)
#
#
# Indices 1 2 3 4 5 6 
#
# 1 104.1127 21.8384 77.7413 0.0000 0.0000 0.0000
# 2 21.8384 85.7629 51.0104 0.0000 0.0000 0.0000
# 3 77.7413 51.0104 188.5402 0.0000 0.0000 0.0000
# 4 0.0000 0.0000 0.0000 95.9399 0.0000 0.0000
# 5 0.0000 0.0000 0.0000 0.0000 20.4731 0.0000
# 6 0.0000 0.0000 0.0000 0.0000 0.0000 -5.3323
#
#
#
# Elastic Compliance Matrix: (Units=1/GPa)
#
#
# Indices 1 2 3 4 5 6 
#
# 1 0.013880 -0.000155 -0.005681 0.000000 0.000000 0.000000
# 2 -0.000155 0.013898 -0.003696 0.000000 0.000000 0.000000
# 3 -0.005681 -0.003696 0.008646 0.000000 0.000000 0.000000
# 4 0.000000 0.000000 0.000000 0.010423 0.000000 0.000000
# 5 0.000000 0.000000 0.000000 0.000000 0.048845 0.000000
# 6 0.000000 0.000000 0.000000 0.000000 0.000000 -0.187537
#
#
# Mechanical properties :
#
#
# Convention : Reuss Voigt Hill
#
# Bulk Modulus (GPa) = 57.60663 75.51068 66.55866
# Shear Modulus (GPa) = -74.63322 37.40452 -18.61435
#
# Velocity S-wave (km/s) = -5.56518 3.93981 -2.77931
# Velocity P-wave (km/s) = 4.17006 7.21329 4.16186
#
# Compressibility (1/GPa) = 0.01735911
#
# Stress axis : x y z
#
# Youngs Moduli (GPa) = 72.04842 71.95281 115.65537
#
# Poissons Ratio (x) = 0.01117 0.65704
# Poissons Ratio (y) = 0.01119 0.42748
# Poissons Ratio (z) = 0.40931 0.26595
#
# Static dielectric constant tensor:
#      x y z
#    x 1.900790 0.000000 0.000000 
#    y 0.000000 1.973900 0.000000 
#    z 0.000000 0.000000 1.947340 
# 
# From -- ./inp_files/48075.got.cif
#   From: 2010.05.17/outbox.cif.g08.bks.cpg/sg22_25_cif.got.tgz:48075.got - 2010.06.03 23:40:54.
