data_PCOD9329008
_publ_section_title
;
Structure prediction by ZEFSAII (Michael W. Deem and Ramdas Pophale) SiO2 
 PCOD9329008
Probable space group: F 2 2 2
;
_chemical_formula_sum "Si O2"
_cell_formula_units_Z 68
_cell_length_a 20.694798
_cell_length_b 7.000967
_cell_length_c 23.048590
_cell_angle_alpha 90.000000
_cell_angle_beta 90.000000
_cell_angle_gamma 90.000000
_cell_volume 3339.362645
_symmetry_space_group_name_H-M "F 2 2 2"
_symmetry_group_IT_number 22
_symmetry_cell_setting 'orthorhombic'
loop_
_space_group_symop_operation_xyz
x,y,z
-x,-y,z
x,-y,-z
-x,y,-z
x,1/2+y,1/2+z
-x,1/2-y,1/2+z
x,1/2-y,1/2-z
-x,1/2+y,1/2-z
1/2+x,y,1/2+z
1/2-x,-y,1/2+z
1/2+x,-y,1/2-z
1/2-x,y,1/2-z
1/2+x,1/2+y,z
1/2-x,1/2-y,z
1/2+x,1/2-y,-z
1/2-x,1/2+y,-z
loop_
_atom_site_type_symbol
_atom_site_label
_atom_site_fract_x
_atom_site_fract_y
_atom_site_fract_z
Si Si1 0.943991 0.341158 0.075045
Si Si2 0.793632 0.932610 0.563580
Si Si3 0.068192 0.582175 0.209326
Si Si4 0.500000 0.500000 0.000000
Si Si5 0.750000 0.250000 0.846864
Si Si6 0.842820 0.750000 0.250000
O O1 0.870359 0.393694 0.059248
O O2 0.942727 0.336073 0.145016
O O3 0.000000 0.500000 0.061862
O O4 0.961095 0.144753 0.042128
O O5 0.750000 0.750000 0.579367
O O6 0.771134 0.000000 0.500000
O O7 0.781781 0.094606 0.611374
O O8 0.091810 0.750000 0.250000
O O9 0.116070 0.405894 0.215742
O O10 0.000000 0.500000 0.231139
O O11 0.800185 0.157092 0.801275
#
# Coordination Sequence:
#
# PCOD9329008 Si02
#       6
#    16  16  16   4   8   8
#     4  11  27  48  71 105 144 185 240 288 353 437
#     4  12  26  45  70 104 140 184 235 291 353 424
#     4  11  24  42  70 103 136 179 232 288 347 418
#     4  12  26  44  80 106 140 184 224 302 368 406
#     4  11  26  46  68  98 140 187 230 286 356 415
#     4  11  24  46  70  96 142 183 228 290 349 414
#
# _framework density 20.363167000000001
#
# number of rings (size 3 to 8) (size 9 to 14) (size 15 to 20)
#    0.000    0.706    4.706    1.765    6.588    1.882 
#    0.000    2.353    0.000    0.000    0.000    0.000 
#    0.000    0.000    0.000    0.000    0.000    0.000 
#
# Total GULP energy -94890.462522 kJ/mol
# GULP energy per Si atom -5581.791913 kJ/mol
# Density = 2.031682 g / cm^3
# Si number density = 20.363167 Si / 1000 Ang^3
#
#
#
# Elastic Constant Matrix: (Units=GPa)
#
#
# Indices 1 2 3 4 5 6 
#
# 1 119.2723 59.1805 35.9860 0.0000 0.0000 0.0000
# 2 59.1805 120.6834 62.6166 0.0000 0.0000 -0.0001
# 3 35.9860 62.6166 141.2642 0.0000 0.0000 0.0000
# 4 0.0000 0.0000 0.0000 33.7116 0.0000 0.0000
# 5 0.0000 0.0000 0.0000 0.0000 33.2468 0.0000
# 6 0.0000 -0.0001 0.0000 0.0000 0.0000 29.7304
#
#
#
# Elastic Compliance Matrix: (Units=1/GPa)
#
#
# Indices 1 2 3 4 5 6 
#
# 1 0.011112 -0.005169 -0.000539 0.000000 0.000000 0.000000
# 2 -0.005169 0.013166 -0.004519 0.000000 0.000000 0.000000
# 3 -0.000539 -0.004519 0.009219 0.000000 0.000000 0.000000
# 4 0.000000 0.000000 0.000000 0.029663 0.000000 0.000000
# 5 0.000000 0.000000 0.000000 0.000000 0.030078 0.000000
# 6 0.000000 0.000000 0.000000 0.000000 0.000000 0.033636
#
#
# Mechanical properties :
#
#
# Convention : Reuss Voigt Hill
#
# Bulk Modulus (GPa) = 76.67629 77.42067 77.04848
# Shear Modulus (GPa) = 32.96500 34.23354 33.59927
#
# Velocity S-wave (km/s) = 4.02786 4.10463 4.06643
# Velocity P-wave (km/s) = 7.70505 7.78245 7.74384
#
# Compressibility (1/GPa) = 0.01304184
#
# Stress axis : x y z
#
# Youngs Moduli (GPa) = 89.99517 75.95539 108.46663
#
# Poissons Ratio (x) = 0.39262 0.05851
# Poissons Ratio (y) = 0.46519 0.49016
# Poissons Ratio (z) = 0.04854 0.34324
#
# Static dielectric constant tensor:
#      x y z
#    x 1.742340 0.000000 0.000000 
#    y 0.000000 1.675710 0.000000 
#    z 0.000000 0.000000 1.720190 
# 
# From -- ./inp_files/53790.got.cif
#   From: 2010.05.17/outbox.cif.g08.bks.cpg/sg22_27_cif.got.tgz:53790.got - 2010.06.03 23:40:54.
