data_PCOD9329618
_publ_section_title
;
Structure prediction by ZEFSAII (Michael W. Deem and Ramdas Pophale) SiO2 
 PCOD9329618
Probable space group: I 2 2 2
;
_chemical_formula_sum "Si O2"
_cell_formula_units_Z 58
_cell_length_a 12.075002
_cell_length_b 18.648886
_cell_length_c 13.223560
_cell_angle_alpha 90.000000
_cell_angle_beta 90.000000
_cell_angle_gamma 90.000000
_cell_volume 2977.751798
_symmetry_space_group_name_H-M "I 2 2 2"
_symmetry_group_IT_number 23
_symmetry_cell_setting 'orthorhombic'
loop_
_space_group_symop_operation_xyz
x,y,z
-x,-y,z
x,-y,-z
-x,y,-z
1/2+x,1/2+y,1/2+z
1/2-x,1/2-y,1/2+z
1/2+x,1/2-y,1/2-z
1/2-x,1/2+y,1/2-z
loop_
_atom_site_type_symbol
_atom_site_label
_atom_site_fract_x
_atom_site_fract_y
_atom_site_fract_z
Si Si1 0.595734 0.278314 0.926710
Si Si2 0.631991 0.912028 0.882100
Si Si3 0.500000 0.500000 0.500000
Si Si4 0.900091 0.617572 0.614089
Si Si5 0.319067 0.638181 0.255080
Si Si6 0.249628 0.739620 0.601598
Si Si7 0.935938 0.162784 0.206168
Si Si8 0.656404 0.503621 0.325117
O O1 0.555689 0.198557 0.900375
O O2 0.604714 0.317740 0.819916
O O3 0.500000 0.310347 0.000000
O O4 0.707457 0.262827 0.990526
O O5 0.508274 0.919350 0.838863
O O6 0.682924 0.832386 0.864210
O O7 0.718075 0.971821 0.846316
O O8 0.622145 0.914679 0.003712
O O9 0.591468 0.468059 0.421246
O O10 0.785193 0.627795 0.671224
O O11 0.279684 0.691506 0.168583
O O12 0.432210 0.671570 0.297689
O O13 0.349344 0.554382 0.235500
O O14 0.373785 0.713091 0.624944
O O15 0.903364 0.079854 0.189565
#
# Coordination Sequence:
#
# PCOD9329618 Si02
#       8
#     8   8   2   8   8   8   8   8
#     4  11  18  37  61  88 115 153 200 259 296 359
#     4   9  19  37  55  85 115 157 197 249 298 362
#     4  12  20  40  52  86 126 168 204 254 310 384
#     4  10  18  33  61  84 116 151 202 245 306 355
#     4  12  21  36  58  88 118 161 198 250 305 371
#     4  10  21  35  61  87 115 155 201 249 306 351
#     4  11  22  40  59  85 123 158 198 253 307 367
#     4  11  24  37  55  82 127 163 200 248 316 364
#
# _framework density 19.477782000000001
#
# number of rings (size 3 to 8) (size 9 to 14) (size 15 to 20)
#    0.000    1.379    6.897    0.828    0.000    0.552 
#    0.000    2.069    0.000    0.000    0.000    0.000 
#    0.000    2.483    0.000    0.000    0.000    0.000 
#
# Total GULP energy -161443.078507 kJ/mol
# GULP energy per Si atom -5567.002707 kJ/mol
# Density = 1.943345 g / cm^3
# Si number density = 19.477782 Si / 1000 Ang^3
#
#
#
# Elastic Constant Matrix: (Units=GPa)
#
#
# Indices 1 2 3 4 5 6 
#
# 1 156.6517 14.3953 29.8853 -0.0002 0.0000 0.0000
# 2 14.3953 89.6396 26.0321 0.0006 0.0000 -0.0001
# 3 29.8853 26.0321 50.3880 0.0007 -0.0001 -0.0001
# 4 -0.0002 0.0006 0.0007 13.5567 0.0000 -0.0002
# 5 0.0000 0.0000 -0.0001 0.0000 25.2872 0.0000
# 6 0.0000 -0.0001 -0.0001 -0.0002 0.0000 12.8762
#
#
#
# Elastic Compliance Matrix: (Units=1/GPa)
#
#
# Indices 1 2 3 4 5 6 
#
# 1 0.007199 0.000099 -0.004321 0.000000 0.000000 0.000000
# 2 0.000099 0.013126 -0.006840 0.000000 0.000000 0.000000
# 3 -0.004321 -0.006840 0.025942 -0.000001 0.000000 0.000000
# 4 0.000000 0.000000 -0.000001 0.073764 0.000000 0.000001
# 5 0.000000 0.000000 0.000000 0.000000 0.039546 0.000000
# 6 0.000000 0.000000 0.000000 0.000001 0.000000 0.077662
#
#
# Mechanical properties :
#
#
# Convention : Reuss Voigt Hill
#
# Bulk Modulus (GPa) = 41.41891 48.58941 45.00416
# Shear Modulus (GPa) = 18.69777 25.43514 22.06645
#
# Velocity S-wave (km/s) = 3.10167 3.61758 3.36952
# Velocity P-wave (km/s) = 5.84278 6.51532 6.18819
#
# Compressibility (1/GPa) = 0.02414356
#
# Stress axis : x y z
#
# Youngs Moduli (GPa) = 138.91237 76.18268 38.54703
#
# Poissons Ratio (x) = -0.00752 0.16655
# Poissons Ratio (y) = -0.01371 0.26366
# Poissons Ratio (z) = 0.60018 0.52109
#
# Static dielectric constant tensor:
#      x y z
#    x 1.791460 0.000000 0.000000 
#    y 0.000000 1.740940 0.000000 
#    z 0.000000 0.000000 1.680810 
# 
# From -- ./inp_files/16946.got.cif
#   From: 2010.05.17/outbox.cif.g08.bks.cpg/sg23_9_cif.got.tgz:16946.got - 2010.06.04 12:02:01.
