data_PCOD9329975
_publ_section_title
;
Structure prediction by ZEFSAII (Michael W. Deem and Ramdas Pophale) SiO2 
 PCOD9329975
Probable space group: I 2 2 2
;
_chemical_formula_sum "Si O2"
_cell_formula_units_Z 48
_cell_length_a 25.525265
_cell_length_b 18.515269
_cell_length_c 5.130353
_cell_angle_alpha 90.000000
_cell_angle_beta 90.000000
_cell_angle_gamma 90.000000
_cell_volume 2424.641498
_symmetry_space_group_name_H-M "I 2 2 2"
_symmetry_group_IT_number 23
_symmetry_cell_setting 'orthorhombic'
loop_
_space_group_symop_operation_xyz
x,y,z
-x,-y,z
x,-y,-z
-x,y,-z
1/2+x,1/2+y,1/2+z
1/2-x,1/2-y,1/2+z
1/2+x,1/2-y,1/2-z
1/2-x,1/2+y,1/2-z
loop_
_atom_site_type_symbol
_atom_site_label
_atom_site_fract_x
_atom_site_fract_y
_atom_site_fract_z
Si Si1 0.348330 0.415697 0.011425
Si Si2 0.555614 0.205178 0.638187
Si Si3 0.059657 0.534068 0.244723
Si Si4 0.104719 0.227787 0.369592
Si Si5 0.778555 0.083328 0.985906
Si Si6 0.721760 0.779632 0.899885
O O1 0.324516 0.402131 0.299243
O O2 0.364408 0.500000 0.000000
O O3 0.391312 0.358418 0.914480
O O4 0.301767 0.404695 0.801466
O O5 0.500000 0.215452 0.500000
O O6 0.559615 0.119600 0.704621
O O7 0.593542 0.240725 0.418835
O O8 0.564549 0.242567 0.915619
O O9 0.084251 0.500000 0.500000
O O10 0.000000 0.500000 0.246269
O O11 0.087878 0.500000 0.000000
O O12 0.162451 0.256447 0.444216
O O13 0.731569 0.136245 0.051001
O O14 0.764017 0.000000 0.000000
O O15 0.740849 0.758961 0.611591
#
# Coordination Sequence:
#
# PCOD9329975 Si02
#       6
#     8   8   8   8   8   8
#     4  10  20  37  62  93 119 162 208 254 291 394
#     4  12  25  42  62  93 126 165 213 275 311 372
#     4  10  19  36  65  85 110 159 223 245 306 366
#     4  12  24  38  64  97 125 163 218 256 330 380
#     4  10  19  35  60  86 124 167 204 242 311 368
#     4  12  21  38  62  91 133 166 200 262 318 375
#
# _framework density 19.79674
#
# number of rings (size 3 to 8) (size 9 to 14) (size 15 to 20)
#    0.000    1.000    5.000    3.500    2.333    0.000 
#    0.000    2.500    0.000    3.000    0.000    0.000 
#    0.000    0.000    0.000    0.000    0.000    0.000 
#
# Total GULP energy -133877.572194 kJ/mol
# GULP energy per Si atom -5578.232175 kJ/mol
# Density = 1.975168 g / cm^3
# Si number density = 19.796740 Si / 1000 Ang^3
#
#
#
# Elastic Constant Matrix: (Units=GPa)
#
#
# Indices 1 2 3 4 5 6 
#
# 1 36.6787 20.6155 2.1228 0.0000 0.0000 0.0000
# 2 20.6155 132.9995 18.5017 0.0000 0.0000 0.0000
# 3 2.1228 18.5017 120.0047 0.0000 0.0000 0.0000
# 4 0.0000 0.0000 0.0000 39.0348 0.0000 0.0000
# 5 0.0000 0.0000 0.0000 0.0000 20.0253 0.0000
# 6 0.0000 0.0000 0.0000 0.0000 0.0000 23.1047
#
#
#
# Elastic Compliance Matrix: (Units=1/GPa)
#
#
# Indices 1 2 3 4 5 6 
#
# 1 0.029870 -0.004656 0.000189 0.000000 0.000000 0.000000
# 2 -0.004656 0.008409 -0.001214 0.000000 0.000000 0.000000
# 3 0.000189 -0.001214 0.008517 0.000000 0.000000 0.000000
# 4 0.000000 0.000000 0.000000 0.025618 0.000000 0.000000
# 5 0.000000 0.000000 0.000000 0.000000 0.049937 0.000000
# 6 0.000000 0.000000 0.000000 0.000000 0.000000 0.043281
#
#
# Mechanical properties :
#
#
# Convention : Reuss Voigt Hill
#
# Bulk Modulus (GPa) = 28.22128 41.35144 34.78636
# Shear Modulus (GPa) = 26.48221 32.99580 29.73901
#
# Velocity S-wave (km/s) = 3.66143 4.08699 3.88005
# Velocity P-wave (km/s) = 5.67109 6.57302 6.13864
#
# Compressibility (1/GPa) = 0.03543426
#
# Stress axis : x y z
#
# Youngs Moduli (GPa) = 33.47851 118.91338 117.41428
#
# Poissons Ratio (x) = 0.55370 -0.02225
# Poissons Ratio (y) = 0.15589 0.14256
# Poissons Ratio (z) = -0.00634 0.14438
#
# Static dielectric constant tensor:
#      x y z
#    x 1.683940 0.000000 0.000000 
#    y 0.000000 1.776160 0.000000 
#    z 0.000000 0.000000 1.702380 
# 
# From -- ./inp_files/4458.got.cif
#   From: 2010.05.17/outbox.cif.g08.bks.cpg/sg23_3_cif.got.tgz:4458.got - 2010.06.04 12:02:01.
