data_PCOD9329080
_publ_section_title
;
Structure prediction by ZEFSAII (Michael W. Deem and Ramdas Pophale) SiO2 
 PCOD9329080
Probable space group: F 2 2 2
;
_chemical_formula_sum "Si O2"
_cell_formula_units_Z 48
_cell_length_a 7.934442
_cell_length_b 17.341689
_cell_length_c 13.532516
_cell_angle_alpha 90.000000
_cell_angle_beta 90.000000
_cell_angle_gamma 90.000000
_cell_volume 1862.028537
_symmetry_space_group_name_H-M "F 2 2 2"
_symmetry_group_IT_number 22
_symmetry_cell_setting 'orthorhombic'
loop_
_space_group_symop_operation_xyz
x,y,z
-x,-y,z
x,-y,-z
-x,y,-z
x,1/2+y,1/2+z
-x,1/2-y,1/2+z
x,1/2-y,1/2-z
-x,1/2+y,1/2-z
1/2+x,y,1/2+z
1/2-x,-y,1/2+z
1/2+x,-y,1/2-z
1/2-x,y,1/2-z
1/2+x,1/2+y,z
1/2-x,1/2-y,z
1/2+x,1/2-y,-z
1/2-x,1/2+y,-z
loop_
_atom_site_type_symbol
_atom_site_label
_atom_site_fract_x
_atom_site_fract_y
_atom_site_fract_z
Si Si1 0.250000 0.878364 0.750000
Si Si2 0.989874 0.776356 0.388828
Si Si3 0.309043 0.870000 0.355405
Si Si4 0.000000 0.500000 0.641442
O O1 0.336042 0.822721 0.835832
O O2 0.110939 0.937220 0.796119
O O3 0.141155 0.836584 0.400363
O O4 0.063680 0.700985 0.332943
O O5 0.000000 0.742320 0.500000
O O6 0.250000 0.901981 0.250000
O O7 0.379978 0.941171 0.414862
#
# Coordination Sequence:
#
# PCOD9329080 Si02
#       4
#     8  16  16   8
#     4  12  24  47  76 107 142 200 248 297 382 448
#     4  11  26  48  74 106 147 190 251 307 369 447
#     4  11  24  50  70 103 147 186 244 313 364 440
#     4  12  24  42  78 102 142 202 238 300 385 447
#
# _framework density 25.778338999999999
#
# number of rings (size 3 to 8) (size 9 to 14) (size 15 to 20)
#    0.000    0.667    5.000    2.000    0.000    8.000 
#    0.000   13.333    0.000    0.000    0.000    0.000 
#    0.000    0.000    0.000    0.000    0.000    0.000 
#
# Total GULP energy -66901.734245 kJ/mol
# GULP energy per Si atom -5575.144520 kJ/mol
# Density = 2.571967 g / cm^3
# Si number density = 25.778339 Si / 1000 Ang^3
#
#
#
# Elastic Constant Matrix: (Units=GPa)
#
#
# Indices 1 2 3 4 5 6 
#
# 1 132.6528 89.5918 15.2672 0.0000 0.0000 0.0000
# 2 89.5918 214.1015 28.8554 0.0000 0.0000 0.0000
# 3 15.2672 28.8554 69.1307 0.0000 0.0000 0.0000
# 4 0.0000 0.0000 0.0000 25.5986 0.0000 0.0000
# 5 0.0000 0.0000 0.0000 0.0000 22.1027 0.0000
# 6 0.0000 0.0000 0.0000 0.0000 0.0000 59.0441
#
#
#
# Elastic Compliance Matrix: (Units=1/GPa)
#
#
# Indices 1 2 3 4 5 6 
#
# 1 0.010526 -0.004335 -0.000515 0.000000 0.000000 0.000000
# 2 -0.004335 0.006735 -0.001854 0.000000 0.000000 0.000000
# 3 -0.000515 -0.001854 0.015353 0.000000 0.000000 0.000000
# 4 0.000000 0.000000 0.000000 0.039065 0.000000 0.000000
# 5 0.000000 0.000000 0.000000 0.000000 0.045243 0.000000
# 6 0.000000 0.000000 0.000000 0.000000 0.000000 0.016936
#
#
# Mechanical properties :
#
#
# Convention : Reuss Voigt Hill
#
# Bulk Modulus (GPa) = 52.06864 75.92375 63.99620
# Shear Modulus (GPa) = 32.53796 40.16047 36.34922
#
# Velocity S-wave (km/s) = 3.55663 3.95133 3.75916
# Velocity P-wave (km/s) = 6.09168 7.09463 6.61220
#
# Compressibility (1/GPa) = 0.01920542
#
# Stress axis : x y z
#
# Youngs Moduli (GPa) = 95.00653 148.48845 65.13461
#
# Poissons Ratio (x) = 0.64371 0.03355
# Poissons Ratio (y) = 0.41186 0.12074
# Poissons Ratio (z) = 0.04893 0.27524
#
# Static dielectric constant tensor:
#      x y z
#    x 2.159240 0.000000 0.000000 
#    y 0.000000 1.930350 0.000000 
#    z 0.000000 0.000000 2.433870 
# 
# From -- ./inp_files/9235.got.cif
#   From: 2010.05.17/outbox.cif.g08.bks.cpg/sg22_5_cif.got.tgz:9235.got - 2010.06.03 23:40:54.
