data_PCOD9329352
_publ_section_title
;
Structure prediction by ZEFSAII (Michael W. Deem and Ramdas Pophale) SiO2 
 PCOD9329352
Probable space group: I 2 2 2
;
_chemical_formula_sum "Si O2"
_cell_formula_units_Z 64
_cell_length_a 31.807650
_cell_length_b 19.211043
_cell_length_c 5.596943
_cell_angle_alpha 90.000000
_cell_angle_beta 90.000000
_cell_angle_gamma 90.000000
_cell_volume 3420.057534
_symmetry_space_group_name_H-M "I 2 2 2"
_symmetry_group_IT_number 23
_symmetry_cell_setting 'orthorhombic'
loop_
_space_group_symop_operation_xyz
x,y,z
-x,-y,z
x,-y,-z
-x,y,-z
1/2+x,1/2+y,1/2+z
1/2-x,1/2-y,1/2+z
1/2+x,1/2-y,1/2-z
1/2-x,1/2+y,1/2-z
loop_
_atom_site_type_symbol
_atom_site_label
_atom_site_fract_x
_atom_site_fract_y
_atom_site_fract_z
Si Si1 0.688179 0.301503 0.662499
Si Si2 0.892643 0.285479 0.278317
Si Si3 0.113770 0.369194 0.217143
Si Si4 0.753696 0.326150 0.307391
Si Si5 0.488582 0.738587 0.752751
Si Si6 0.777585 0.931191 0.587694
Si Si7 0.697238 0.065956 0.138529
Si Si8 0.021095 0.397418 0.250322
O O1 0.643161 0.271056 0.722732
O O2 0.706440 0.308187 0.395211
O O3 0.721904 0.245365 0.763033
O O4 0.693844 0.378476 0.765370
O O5 0.885217 0.321622 0.538484
O O6 0.939538 0.255797 0.270610
O O7 0.890609 0.334466 0.043671
O O8 0.158664 0.406581 0.208056
O O9 0.070683 0.412497 0.249746
O O10 0.782907 0.369600 0.490688
O O11 0.746130 0.379124 0.092719
O O12 0.500000 0.704456 0.500000
O O13 0.514288 0.812647 0.751092
O O14 0.500000 0.701407 0.000000
O O15 0.738881 0.962872 0.735962
O O16 0.801076 0.000000 0.500000
O O17 0.679208 0.000000 0.000000
O O18 0.000000 0.420645 0.500000
O O19 0.000000 0.420397 0.000000
#
# Coordination Sequence:
#
# PCOD9329352 Si02
#       8
#     8   8   8   8   8   8   8   8
#     4  11  24  33  57  87 113 150 194 247 295 342
#     4  12  22  34  54  88 120 147 189 247 297 352
#     4  12  22  33  56  83 114 149 195 250 297 343
#     4  11  21  39  55  79 113 149 194 244 296 351
#     4  10  16  31  51  77 113 152 185 219 295 365
#     4  11  23  42  61  77 114 161 197 240 297 363
#     4  11  24  38  56  80 108 153 206 251 299 352
#     4  10  16  31  49  77 107 150 191 224 294 363
#
# _framework density 18.713135000000001
#
# number of rings (size 3 to 8) (size 9 to 14) (size 15 to 20)
#    0.000    1.000    8.750    0.750    3.500    0.000 
#    0.000    0.000    0.000    0.375    0.000    1.750 
#    0.000    0.500    0.250    0.000    0.000    0.000 
#
# Total GULP energy -178280.070470 kJ/mol
# GULP energy per Si atom -5571.252202 kJ/mol
# Density = 1.867054 g / cm^3
# Si number density = 18.713135 Si / 1000 Ang^3
#
#
#
# Elastic Constant Matrix: (Units=GPa)
#
#
# Indices 1 2 3 4 5 6 
#
# 1 66.3134 -1.5333 6.9653 0.0000 0.0000 0.0000
# 2 -1.5333 48.3660 5.4708 0.0000 0.0000 0.0000
# 3 6.9653 5.4708 93.5770 0.0000 0.0000 0.0000
# 4 0.0000 0.0000 0.0000 17.7020 0.0000 0.0000
# 5 0.0000 0.0000 0.0000 0.0000 12.1953 0.0000
# 6 0.0000 0.0000 0.0000 0.0000 0.0000 -4.6221
#
#
#
# Elastic Compliance Matrix: (Units=1/GPa)
#
#
# Indices 1 2 3 4 5 6 
#
# 1 0.015217 0.000615 -0.001169 0.000000 0.000000 0.000000
# 2 0.000615 0.020838 -0.001264 0.000000 0.000000 0.000000
# 3 -0.001169 -0.001264 0.010847 0.000000 0.000000 0.000000
# 4 0.000000 0.000000 0.000000 0.056491 0.000000 0.000000
# 5 0.000000 0.000000 0.000000 0.000000 0.081999 0.000000
# 6 0.000000 0.000000 0.000000 0.000000 0.000000 -0.216354
#
#
# Mechanical properties :
#
#
# Convention : Reuss Voigt Hill
#
# Bulk Modulus (GPa) = 23.11269 25.56244 24.33756
# Shear Modulus (GPa) = -387.47855 18.21196 -184.63329
#
# Velocity S-wave (km/s) = -14.40527 3.12303 -9.94381
# Velocity P-wave (km/s) = 16.25745 5.16665 10.89978
#
# Compressibility (1/GPa) = 0.04326628
#
# Stress axis : x y z
#
# Youngs Moduli (GPa) = 65.71654 47.98891 92.18917
#
# Poissons Ratio (x) = -0.02949 0.10773
# Poissons Ratio (y) = -0.04039 0.11653
# Poissons Ratio (z) = 0.07679 0.06066
#
# Static dielectric constant tensor:
#      x y z
#    x 1.612940 0.000000 0.000000 
#    y 0.000000 1.653950 0.000000 
#    z 0.000000 0.000000 1.810580 
# 
# From -- ./inp_files/5446.got.cif
#   From: 2010.05.17/outbox.cif.g08.bks.cpg/sg23_3_cif.got.tgz:5446.got - 2010.06.04 12:02:01.
