data_PCOD9329616
_publ_section_title
;
Structure prediction by ZEFSAII (Michael W. Deem and Ramdas Pophale) SiO2 
 PCOD9329616
Probable space group: I 2 2 2
;
_chemical_formula_sum "Si O2"
_cell_formula_units_Z 26
_cell_length_a 13.094825
_cell_length_b 5.254893
_cell_length_c 15.558255
_cell_angle_alpha 90.000000
_cell_angle_beta 90.000000
_cell_angle_gamma 90.000000
_cell_volume 1070.593153
_symmetry_space_group_name_H-M "I 2 2 2"
_symmetry_group_IT_number 23
_symmetry_cell_setting 'orthorhombic'
loop_
_space_group_symop_operation_xyz
x,y,z
-x,-y,z
x,-y,-z
-x,y,-z
1/2+x,1/2+y,1/2+z
1/2-x,1/2-y,1/2+z
1/2+x,1/2-y,1/2-z
1/2-x,1/2+y,1/2-z
loop_
_atom_site_type_symbol
_atom_site_label
_atom_site_fract_x
_atom_site_fract_y
_atom_site_fract_z
Si Si1 0.133820 0.899677 0.092713
Si Si2 0.356623 0.895774 0.318835
Si Si3 0.000000 0.500000 0.500000
Si Si4 0.840556 0.620771 0.635862
O O1 0.100668 0.118139 0.159823
O O2 0.257306 0.924401 0.097122
O O3 0.107794 0.614518 0.116454
O O4 0.104595 0.000000 0.000000
O O5 0.378148 0.995240 0.224142
O O6 0.233910 0.852832 0.334822
O O7 0.927493 0.659320 0.565170
#
# Coordination Sequence:
#
# PCOD9329616 Si02
#       4
#     8   8   2   8
#     4  10  18  33  60  84 109 155 227 257 285 374
#     4  10  19  35  61  74 125 176 215 231 316 413
#     4  12  24  40  62 112 144 146 214 300 354 332
#     4  10  20  36  59  85 131 173 205 258 329 395
#
# _framework density 24.285602000000001
#
# number of rings (size 3 to 8) (size 9 to 14) (size 15 to 20)
#    1.846    0.000    4.615    0.923    0.000    0.000 
#    0.000    3.077    0.000    0.000    0.000    6.462 
#    0.000    0.000    0.000    0.000    0.000    0.000 
#
# Total GULP energy -72531.445182 kJ/mol
# GULP energy per Si atom -5579.341937 kJ/mol
# Density = 2.423033 g / cm^3
# Si number density = 24.285602 Si / 1000 Ang^3
#
#
#
# Elastic Constant Matrix: (Units=GPa)
#
#
# Indices 1 2 3 4 5 6 
#
# 1 127.7953 34.3616 51.7090 0.0000 0.0000 0.0000
# 2 34.3616 124.5037 45.8745 0.0000 0.0000 0.0000
# 3 51.7090 45.8745 169.2719 0.0000 0.0000 0.0000
# 4 0.0000 0.0000 0.0000 24.3349 0.0000 0.0000
# 5 0.0000 0.0000 0.0000 0.0000 1.2908 0.0000
# 6 0.0000 0.0000 0.0000 0.0000 0.0000 18.2012
#
#
#
# Elastic Compliance Matrix: (Units=1/GPa)
#
#
# Indices 1 2 3 4 5 6 
#
# 1 0.009233 -0.001676 -0.002366 0.000000 0.000000 0.000000
# 2 -0.001676 0.009227 -0.001989 0.000000 0.000000 0.000000
# 3 -0.002366 -0.001989 0.007169 0.000000 0.000000 0.000000
# 4 0.000000 0.000000 0.000000 0.041093 0.000000 0.000000
# 5 0.000000 0.000000 0.000000 0.000000 0.774741 0.000000
# 6 0.000000 0.000000 0.000000 0.000000 0.000000 0.054941
#
#
# Mechanical properties :
#
#
# Convention : Reuss Voigt Hill
#
# Bulk Modulus (GPa) = 73.70576 76.16236 74.93406
# Shear Modulus (GPa) = 5.47651 28.07376 16.77513
#
# Velocity S-wave (km/s) = 1.50331 3.40366 2.63105
# Velocity P-wave (km/s) = 5.78176 6.84659 6.33658
#
# Compressibility (1/GPa) = 0.01356746
#
# Stress axis : x y z
#
# Youngs Moduli (GPa) = 108.30490 108.37439 139.48141
#
# Poissons Ratio (x) = 0.18168 0.33004
# Poissons Ratio (y) = 0.18156 0.27737
# Poissons Ratio (z) = 0.25627 0.21551
#
# Static dielectric constant tensor:
#      x y z
#    x 2.118190 0.000000 0.000000 
#    y 0.000000 1.866000 0.000000 
#    z 0.000000 0.000000 1.916970 
# 
# From -- ./inp_files/2013.got.cif
#   From: 2010.05.17/outbox.cif.g08.bks.cpg/sg23_2_cif.got.tgz:2013.got - 2010.06.04 12:02:01.
