data_PCOD9329800
_publ_section_title
;
Structure prediction by ZEFSAII (Michael W. Deem and Ramdas Pophale) SiO2 
 PCOD9329800
Probable space group: I 2 2 2
;
_chemical_formula_sum "Si O2"
_cell_formula_units_Z 64
_cell_length_a 14.998710
_cell_length_b 8.409342
_cell_length_c 31.462810
_cell_angle_alpha 90.000000
_cell_angle_beta 90.000000
_cell_angle_gamma 90.000000
_cell_volume 3968.381633
_symmetry_space_group_name_H-M "I 2 2 2"
_symmetry_group_IT_number 23
_symmetry_cell_setting 'orthorhombic'
loop_
_space_group_symop_operation_xyz
x,y,z
-x,-y,z
x,-y,-z
-x,y,-z
1/2+x,1/2+y,1/2+z
1/2-x,1/2-y,1/2+z
1/2+x,1/2-y,1/2-z
1/2-x,1/2+y,1/2-z
loop_
_atom_site_type_symbol
_atom_site_label
_atom_site_fract_x
_atom_site_fract_y
_atom_site_fract_z
Si Si1 0.602159 0.691530 0.951416
Si Si2 0.304705 0.690840 0.291745
Si Si3 0.318582 0.808182 0.131273
Si Si4 0.000000 0.693410 0.675308
Si Si5 0.500002 0.809072 0.726697
Si Si6 0.818583 0.691816 0.631272
Si Si7 0.304714 0.309156 0.291748
Si Si8 0.397840 0.308469 0.048584
O O1 0.673134 0.750709 0.917013
O O2 0.500000 0.746516 0.941416
O O3 0.600772 0.500000 0.950352
O O4 0.621224 0.740640 1.000000
O O5 0.406781 0.747014 0.291510
O O6 0.257296 0.744143 0.335653
O O7 0.301305 0.499998 0.290232
O O8 0.249993 0.749992 0.249999
O O9 0.411085 0.751970 0.152404
O O10 0.242699 0.755855 0.164345
O O11 0.317255 0.999999 0.130716
O O12 0.999997 0.741985 0.724021
O O13 0.000000 0.500000 0.674477
O O14 0.911088 0.748029 0.652401
O O15 0.406792 0.747007 0.708485
O O16 0.500000 0.000000 0.724809
O O17 0.826864 0.749289 0.582986
#
# Coordination Sequence:
#
# PCOD9329800 Si02
#       8
#     8   8   8   8   8   8   8   8
#     4   9  18  31  46  69 101 131 162 204 249 295
#     4  11  22  35  51  74 102 135 173 212 253 300
#     4  10  19  32  49  70  99 133 169 206 244 291
#     4   9  16  29  46  68  99 131 163 203 243 282
#     4  11  21  37  53  70 101 136 172 217 254 294
#     4  10  19  32  49  70  99 133 169 206 244 291
#     4  11  22  35  51  74 102 135 173 212 253 300
#     4   9  18  31  46  69 101 131 162 204 249 295
#
# _framework density 16.127481
#
# number of rings (size 3 to 8) (size 9 to 14) (size 15 to 20)
#    0.000    2.000    3.750    1.875    0.000    2.500 
#    0.000    1.250    0.000    0.000    0.000    0.875 
#    0.000    7.000    0.000    0.000    0.000    0.000 
#
# Total GULP energy -178373.158652 kJ/mol
# GULP energy per Si atom -5574.161208 kJ/mol
# Density = 1.609077 g / cm^3
# Si number density = 16.127481 Si / 1000 Ang^3
#
#
#
# Elastic Constant Matrix: (Units=GPa)
#
#
# Indices 1 2 3 4 5 6 
#
# 1 115.5048 21.9942 69.6435 0.0000 0.0000 0.0000
# 2 21.9942 26.0201 23.5535 0.0000 0.0000 0.0000
# 3 69.6435 23.5535 140.7271 0.0000 0.0000 0.0000
# 4 0.0000 0.0000 0.0000 25.0730 0.0000 0.0000
# 5 0.0000 0.0000 0.0000 0.0000 22.4380 0.0000
# 6 0.0000 0.0000 0.0000 0.0000 0.0000 22.3277
#
#
#
# Elastic Compliance Matrix: (Units=1/GPa)
#
#
# Indices 1 2 3 4 5 6 
#
# 1 0.013124 -0.006145 -0.005466 0.000000 0.000000 0.000000
# 2 -0.006145 0.048171 -0.005021 0.000000 0.000000 0.000000
# 3 -0.005466 -0.005021 0.010651 0.000000 0.000000 0.000000
# 4 0.000000 0.000000 0.000000 0.039884 0.000000 0.000000
# 5 0.000000 0.000000 0.000000 0.000000 0.044567 0.000000
# 6 0.000000 0.000000 0.000000 0.000000 0.000000 0.044788
#
#
# Mechanical properties :
#
#
# Convention : Reuss Voigt Hill
#
# Bulk Modulus (GPa) = 25.85228 56.95938 41.40583
# Shear Modulus (GPa) = 20.21479 25.10512 22.65996
#
# Velocity S-wave (km/s) = 3.54423 3.94974 3.75247
# Velocity P-wave (km/s) = 5.72831 7.49637 6.67117
#
# Compressibility (1/GPa) = 0.03868130
#
# Stress axis : x y z
#
# Youngs Moduli (GPa) = 76.19864 20.75922 93.88366
#
# Poissons Ratio (x) = 0.12757 0.51318
# Poissons Ratio (y) = 0.46825 0.47142
# Poissons Ratio (z) = 0.41651 0.10424
#
# Static dielectric constant tensor:
#      x y z
#    x 1.539360 0.000000 0.000000 
#    y 0.000000 1.560640 0.000000 
#    z 0.000000 0.000000 1.563880 
# 
# From -- ./inp_files/30600.got.cif
#   From: 2010.05.17/outbox.cif.g08.bks.cpg/sg23_16_cif.got.tgz:30600.got - 2010.06.04 12:02:01.
