data_PCOD9329297
_publ_section_title
;
Structure prediction by ZEFSAII (Michael W. Deem and Ramdas Pophale) SiO2 
 PCOD9329297
Probable space group: F 2 2 2
;
_chemical_formula_sum "Si O2"
_cell_formula_units_Z 29
_cell_length_a 18.000000
_cell_length_b 12.000000
_cell_length_c 27.000000
_cell_angle_alpha 90.000000
_cell_angle_beta 90.000000
_cell_angle_gamma 90.000000
_cell_volume 5832.000000
_symmetry_space_group_name_H-M "F 2 2 2"
_symmetry_group_IT_number 22
_symmetry_cell_setting 'orthorhombic'
loop_
_space_group_symop_operation_xyz
x,y,z
-x,-y,z
x,-y,-z
-x,y,-z
x,1/2+y,1/2+z
-x,1/2-y,1/2+z
x,1/2-y,1/2-z
-x,1/2+y,1/2-z
1/2+x,y,1/2+z
1/2-x,-y,1/2+z
1/2+x,-y,1/2-z
1/2-x,y,1/2-z
1/2+x,1/2+y,z
1/2-x,1/2-y,z
1/2+x,1/2-y,-z
1/2-x,1/2+y,-z
loop_
_atom_site_type_symbol
_atom_site_label
_atom_site_fract_x
_atom_site_fract_y
_atom_site_fract_z
Si Si1 0.703505 0.573719 0.455919
Si Si2 0.322910 0.608267 0.332525
Si Si3 0.080165 0.538093 0.882877
Si Si4 0.311307 0.038023 0.372616
Si Si5 0.250000 0.750000 0.250000
Si Si6 0.108524 0.308897 0.604061
Si Si7 0.062719 0.699373 0.616231
Si Si8 0.917967 0.755796 0.492356
O O1 0.735124 0.500000 0.500000
O O2 0.641529 0.506722 0.424037
O O3 0.767210 0.600963 0.416846
O O4 0.653127 0.669866 0.478796
O O5 0.395979 0.531549 0.334994
O O6 0.255499 0.519239 0.341160
O O7 0.301855 0.673202 0.283538
O O8 0.342208 0.709294 0.371547
O O9 0.082103 0.670307 0.876397
O O10 0.000000 0.500000 0.899938
O O11 0.376790 0.122364 0.356295
O O12 0.353324 0.927035 0.389127
O O13 0.099432 0.293572 0.545490
O O14 0.025049 0.312012 0.627154
O O15 0.070689 0.679441 0.556460
O O16 0.000000 0.812861 0.500000
#
# Coordination Sequence:
#
# PCOD9329297 Si02
#       8
#    16  16  16  16   4  16  16  16
#     4  10  22  30  50  82 124 175 220 271 301 361
#     4  11  23  41  72  92 122 164 208 273 326 412
#     4  10  20  38  64  91 123 165 217 260 323 380
#     4  11  23  38  55  95 126 175 213 272 329 378
#     4  12  24  48  72 106 120 156 214 260 350 420
#     4  11  20  40  62  88 126 179 225 261 324 384
#     4  10  22  37  62  90 134 176 215 264 313 382
#     4   9  20  33  52  82 124 175 224 260 301 364
#
# _framework density 4.9725650000000003
#
# number of rings (size 3 to 8) (size 9 to 14) (size 15 to 20)
#    0.000    1.655    2.759    2.069    5.793    4.966 
#    0.000    2.069    3.034    1.655    0.000    0.000 
#    0.000    0.000    0.000    0.000    0.000    0.000 
#
# Total GULP energy -161491.073533 kJ/mol
# GULP energy per Si atom -5568.657708 kJ/mol
# Density = 0.496125 g / cm^3
# Si number density = 4.972565 Si / 1000 Ang^3
#
#
#
# Elastic Constant Matrix: (Units=GPa)
#
#
# Indices 1 2 3 4 5 6 
#
# 1 82.3354 22.9569 12.7233 0.0000 0.0000 0.0000
# 2 22.9569 83.9434 6.2690 0.0000 0.0000 0.0000
# 3 12.7233 6.2690 32.8362 0.0000 0.0000 0.0000
# 4 0.0000 0.0000 0.0000 44.9138 0.0000 0.0000
# 5 0.0000 0.0000 0.0000 0.0000 15.3500 0.0000
# 6 0.0000 0.0000 0.0000 0.0000 0.0000 41.8617
#
#
#
# Elastic Compliance Matrix: (Units=1/GPa)
#
#
# Indices 1 2 3 4 5 6 
#
# 1 0.013829 -0.003431 -0.004703 0.000000 0.000000 0.000000
# 2 -0.003431 0.012936 -0.001140 0.000000 0.000000 0.000000
# 3 -0.004703 -0.001140 0.032494 0.000000 0.000000 0.000000
# 4 0.000000 0.000000 0.000000 0.022265 0.000000 0.000000
# 5 0.000000 0.000000 0.000000 0.000000 0.065147 0.000000
# 6 0.000000 0.000000 0.000000 0.000000 0.000000 0.023888
#
#
# Mechanical properties :
#
#
# Convention : Reuss Voigt Hill
#
# Bulk Modulus (GPa) = 24.56376 31.44593 28.00485
# Shear Modulus (GPa) = 24.66964 30.90281 27.78623
#
# Velocity S-wave (km/s) = 3.52559 3.94593 3.74167
# Velocity P-wave (km/s) = 5.38048 6.05017 5.72512
#
# Compressibility (1/GPa) = 0.04071037
#
# Stress axis : x y z
#
# Youngs Moduli (GPa) = 72.31284 77.30257 30.77456
#
# Poissons Ratio (x) = 0.26520 0.14474
# Poissons Ratio (y) = 0.24808 0.03510
# Poissons Ratio (z) = 0.34012 0.08816
#
# Static dielectric constant tensor:
#      x y z
#    x 1.700840 0.000000 0.000000 
#    y 0.000000 1.736000 0.000000 
#    z 0.000000 0.000000 1.747220 
# 
# From -- ./inp_files/40084.got.cif
#   From: 2010.05.17/outbox.ucp.g08.bks.cvg/sg22_21_cif.got.tgz:40084.got - 2010.06.11 15:16:44.
