data_PCOD9329913
_publ_section_title
;
Structure prediction by ZEFSAII (Michael W. Deem and Ramdas Pophale) SiO2 
 PCOD9329913
Probable space group: I 2 2 2
;
_chemical_formula_sum "Si O2"
_cell_formula_units_Z 32
_cell_length_a 13.914422
_cell_length_b 18.021074
_cell_length_c 5.264531
_cell_angle_alpha 90.000000
_cell_angle_beta 90.000000
_cell_angle_gamma 90.000000
_cell_volume 1320.096039
_symmetry_space_group_name_H-M "I 2 2 2"
_symmetry_group_IT_number 23
_symmetry_cell_setting 'orthorhombic'
loop_
_space_group_symop_operation_xyz
x,y,z
-x,-y,z
x,-y,-z
-x,y,-z
1/2+x,1/2+y,1/2+z
1/2-x,1/2-y,1/2+z
1/2+x,1/2-y,1/2-z
1/2-x,1/2+y,1/2-z
loop_
_atom_site_type_symbol
_atom_site_label
_atom_site_fract_x
_atom_site_fract_y
_atom_site_fract_z
Si Si1 0.303200 0.819475 0.958990
Si Si2 0.785095 0.418595 0.954372
Si Si3 0.598747 0.723270 0.397804
Si Si4 0.564559 0.425507 0.791372
O O1 0.297022 0.873995 0.715792
O O2 0.382075 0.758334 0.879668
O O3 0.318902 0.870045 0.209940
O O4 0.203549 0.772902 0.974259
O O5 0.672159 0.433971 0.895600
O O6 0.830175 0.500000 0.000000
O O7 0.500000 0.756963 0.500000
O O8 0.586010 0.634148 0.421874
O O9 0.500000 0.500000 0.747349
O O10 0.500000 0.384680 0.000000
#
# Coordination Sequence:
#
# PCOD9329913 Si02
#       4
#     8   8   8   8
#     4  11  25  43  67 104 149 198 265 301 386 465
#     4  11  22  42  67  98 145 196 241 325 373 450
#     4  11  24  42  69 104 154 210 251 313 384 463
#     4  10  19  34  60 103 148 188 242 293 391 474
#
# _framework density 24.240659999999998
#
# number of rings (size 3 to 8) (size 9 to 14) (size 15 to 20)
#    0.000    1.250    2.500    5.250    0.000    2.500 
#    0.000    1.250    0.000    0.750    0.000    7.000 
#    0.000    0.000    0.000    0.000    0.000    0.000 
#
# Total GULP energy -89097.517072 kJ/mol
# GULP energy per Si atom -5568.594817 kJ/mol
# Density = 2.418549 g / cm^3
# Si number density = 24.240660 Si / 1000 Ang^3
#
#
#
# Elastic Constant Matrix: (Units=GPa)
#
#
# Indices 1 2 3 4 5 6 
#
# 1 77.5286 29.5857 25.4221 0.0000 0.0000 0.0000
# 2 29.5857 168.1973 60.6360 0.0000 0.0000 0.0000
# 3 25.4221 60.6360 152.4091 0.0000 0.0000 0.0000
# 4 0.0000 0.0000 0.0000 -32.4336 0.0000 0.0000
# 5 0.0000 0.0000 0.0000 0.0000 45.5846 0.0000
# 6 0.0000 0.0000 0.0000 0.0000 0.0000 34.0591
#
#
#
# Elastic Compliance Matrix: (Units=1/GPa)
#
#
# Indices 1 2 3 4 5 6 
#
# 1 0.014153 -0.001913 -0.001600 0.000000 0.000000 0.000000
# 2 -0.001913 0.007199 -0.002545 0.000000 0.000000 0.000000
# 3 -0.001600 -0.002545 0.007841 0.000000 0.000000 0.000000
# 4 0.000000 0.000000 0.000000 -0.030832 0.000000 0.000000
# 5 0.000000 0.000000 0.000000 0.000000 0.021937 0.000000
# 6 0.000000 0.000000 0.000000 0.000000 0.000000 0.029361
#
#
# Mechanical properties :
#
#
# Convention : Reuss Voigt Hill
#
# Bulk Modulus (GPa) = 58.55611 69.93584 64.24597
# Shear Modulus (GPa) = 74.11035 28.27476 51.19256
#
# Velocity S-wave (km/s) = 5.53526 3.41899 4.60047
# Velocity P-wave (km/s) = 8.06602 6.67078 7.40135
#
# Compressibility (1/GPa) = 0.01707764
#
# Stress axis : x y z
#
# Youngs Moduli (GPa) = 70.65657 138.89991 127.53877
#
# Poissons Ratio (x) = 0.26568 0.20403
# Poissons Ratio (y) = 0.13515 0.32462
# Poissons Ratio (z) = 0.11303 0.35353
#
# Static dielectric constant tensor:
#      x y z
#    x 1.994500 0.000000 0.000000 
#    y 0.000000 2.015760 0.000000 
#    z 0.000000 0.000000 2.198490 
# 
# From -- ./inp_files/2116.got.cif
#   From: 2010.05.17/outbox.cif.g08.bks.cpg/sg23_2_cif.got.tgz:2116.got - 2010.06.04 12:02:01.
