data_PCOD9329032
_publ_section_title
;
Structure prediction by ZEFSAII (Michael W. Deem and Ramdas Pophale) SiO2 
 PCOD9329032
Probable space group: F 2 2 2
;
_chemical_formula_sum "Si O2"
_cell_formula_units_Z 80
_cell_length_a 27.039501
_cell_length_b 11.448784
_cell_length_c 10.304791
_cell_angle_alpha 90.000000
_cell_angle_beta 90.000000
_cell_angle_gamma 90.000000
_cell_volume 3190.048033
_symmetry_space_group_name_H-M "F 2 2 2"
_symmetry_group_IT_number 22
_symmetry_cell_setting 'orthorhombic'
loop_
_space_group_symop_operation_xyz
x,y,z
-x,-y,z
x,-y,-z
-x,y,-z
x,1/2+y,1/2+z
-x,1/2-y,1/2+z
x,1/2-y,1/2-z
-x,1/2+y,1/2-z
1/2+x,y,1/2+z
1/2-x,-y,1/2+z
1/2+x,-y,1/2-z
1/2-x,y,1/2-z
1/2+x,1/2+y,z
1/2-x,1/2-y,z
1/2+x,1/2-y,-z
1/2-x,1/2+y,-z
loop_
_atom_site_type_symbol
_atom_site_label
_atom_site_fract_x
_atom_site_fract_y
_atom_site_fract_z
Si Si1 0.394280 0.621035 0.696965
Si Si2 0.804571 0.955922 0.203060
Si Si3 0.193940 0.303125 0.555164
Si Si4 0.085291 0.201578 0.567481
Si Si5 0.050979 0.931110 0.174817
O O1 0.395796 0.750000 0.750000
O O2 0.339101 0.576890 0.676097
O O3 0.423741 0.629359 0.563562
O O4 0.410318 0.535372 0.812076
O O5 0.750000 0.938280 0.250000
O O6 0.809751 0.088650 0.155127
O O7 0.812866 0.864996 0.085110
O O8 0.250000 0.250000 0.563954
O O9 0.144953 0.223074 0.579229
O O10 0.060953 0.134322 0.687960
O O11 0.061333 0.331121 0.570255
O O12 0.000000 0.000000 0.164518
#
# Coordination Sequence:
#
# PCOD9329032 Si02
#       5
#    16  16  16  16  16
#     4  12  25  45  78 107 154 198 253 324 394 464
#     4  11  25  43  68 111 161 204 261 323 387 475
#     4  11  24  44  72 110 156 210 264 317 391 476
#     4  11  25  49  81 112 150 207 256 321 402 474
#     4  11  28  52  75 111 150 190 267 333 401 483
#
# _framework density 25.077991999999998
#
# number of rings (size 3 to 8) (size 9 to 14) (size 15 to 20)
#    0.000    0.800    4.000    1.800    5.600    2.800 
#    0.000    1.000    0.000    0.000    0.000    0.000 
#    0.000    0.000    0.000    0.000    0.000    0.000 
#
# Total GULP energy -111905.422822 kJ/mol
# GULP energy per Si atom -5595.271141 kJ/mol
# Density = 2.502091 g / cm^3
# Si number density = 25.077992 Si / 1000 Ang^3
#
#
#
# Elastic Constant Matrix: (Units=GPa)
#
#
# Indices 1 2 3 4 5 6 
#
# 1 111.6934 32.9411 7.3130 0.0000 0.0000 0.0000
# 2 32.9411 146.5531 35.1615 0.0000 0.0000 0.0000
# 3 7.3130 35.1615 103.4603 0.0000 0.0000 0.0000
# 4 0.0000 0.0000 0.0000 22.3516 0.0000 0.0000
# 5 0.0000 0.0000 0.0000 0.0000 26.4060 0.0000
# 6 0.0000 0.0000 0.0000 0.0000 0.0000 44.4053
#
#
#
# Elastic Compliance Matrix: (Units=1/GPa)
#
#
# Indices 1 2 3 4 5 6 
#
# 1 0.009589 -0.002170 0.000060 0.000000 0.000000 0.000000
# 2 -0.002170 0.007920 -0.002538 0.000000 0.000000 0.000000
# 3 0.000060 -0.002538 0.010524 0.000000 0.000000 0.000000
# 4 0.000000 0.000000 0.000000 0.044740 0.000000 0.000000
# 5 0.000000 0.000000 0.000000 0.000000 0.037870 0.000000
# 6 0.000000 0.000000 0.000000 0.000000 0.000000 0.022520
#
#
# Mechanical properties :
#
#
# Convention : Reuss Voigt Hill
#
# Bulk Modulus (GPa) = 53.37212 56.94866 55.16039
# Shear Modulus (GPa) = 33.62360 37.71866 35.67113
#
# Velocity S-wave (km/s) = 3.66561 3.88242 3.77557
# Velocity P-wave (km/s) = 6.26453 6.54641 6.40702
#
# Compressibility (1/GPa) = 0.01873637
#
# Stress axis : x y z
#
# Youngs Moduli (GPa) = 104.28550 126.26023 95.02093
#
# Poissons Ratio (x) = 0.27394 -0.00566
# Poissons Ratio (y) = 0.22626 0.24120
# Poissons Ratio (z) = -0.00621 0.32049
#
# Static dielectric constant tensor:
#      x y z
#    x 2.300410 0.000000 0.000000 
#    y 0.000000 1.993140 0.000000 
#    z 0.000000 0.000000 2.019330 
# 
# From -- ./inp_files/25126.got.cif
#   From: 2010.05.17/outbox.cif.g08.bks.cpg/sg22_13_cif.got.tgz:25126.got - 2010.06.03 23:40:54.
