data_PCOD9329815
_publ_section_title
;
Structure prediction by ZEFSAII (Michael W. Deem and Ramdas Pophale) SiO2 
 PCOD9329815
Probable space group: I 2 2 2
;
_chemical_formula_sum "Si O2"
_cell_formula_units_Z 48
_cell_length_a 8.683314
_cell_length_b 24.336743
_cell_length_c 10.870660
_cell_angle_alpha 90.000000
_cell_angle_beta 90.000000
_cell_angle_gamma 90.000000
_cell_volume 2297.226801
_symmetry_space_group_name_H-M "I 2 2 2"
_symmetry_group_IT_number 23
_symmetry_cell_setting 'orthorhombic'
loop_
_space_group_symop_operation_xyz
x,y,z
-x,-y,z
x,-y,-z
-x,y,-z
1/2+x,1/2+y,1/2+z
1/2-x,1/2-y,1/2+z
1/2+x,1/2-y,1/2-z
1/2-x,1/2+y,1/2-z
loop_
_atom_site_type_symbol
_atom_site_label
_atom_site_fract_x
_atom_site_fract_y
_atom_site_fract_z
Si Si1 0.886665 0.358313 0.619450
Si Si2 0.612607 0.728767 0.117848
Si Si3 0.839926 0.337619 0.033145
Si Si4 0.816595 0.936401 0.006539
Si Si5 0.094889 0.785108 0.116251
Si Si6 0.801030 0.350151 0.288829
O O1 0.771742 0.408817 0.607500
O O2 0.767972 0.308293 0.622574
O O3 0.000000 0.357531 0.500000
O O4 0.013947 0.359854 0.723065
O O5 0.530968 0.710391 0.245273
O O6 0.698051 0.787357 0.152584
O O7 0.500000 0.734983 0.000000
O O8 0.733582 0.681605 0.079640
O O9 0.891499 0.278707 0.088793
O O10 0.744679 0.359959 0.149601
O O11 0.000000 0.367028 0.000000
O O12 0.767615 0.896557 0.120399
O O13 0.000000 0.934917 0.000000
O O14 0.768925 0.000000 0.000000
O O15 0.000000 0.809183 0.000000
#
# Coordination Sequence:
#
# PCOD9329815 Si02
#       6
#     8   8   8   8   8   8
#     4  10  19  32  52  77 107 143 185 231 277 327
#     4  11  22  34  51  80 116 154 193 229 272 331
#     4  10  20  33  50  76 112 153 192 231 275 330
#     4  10  21  36  55  81 109 137 179 238 298 348
#     4  10  21  35  53  77 111 157 196 229 271 325
#     4  10  21  35  53  78 113 151 188 231 283 340
#
# _framework density 20.894760999999999
#
# number of rings (size 3 to 8) (size 9 to 14) (size 15 to 20)
#    0.000    1.833    0.000    6.000    0.000   15.667 
#    0.000    0.000    0.000    0.000    0.000    8.167 
#    0.000   26.667    0.000    0.000    0.000    0.000 
#
# Total GULP energy -133683.367878 kJ/mol
# GULP energy per Si atom -5570.140328 kJ/mol
# Density = 2.084720 g / cm^3
# Si number density = 20.894761 Si / 1000 Ang^3
#
#
#
# Elastic Constant Matrix: (Units=GPa)
#
#
# Indices 1 2 3 4 5 6 
#
# 1 93.2770 14.3407 27.9570 0.0000 0.0000 0.0000
# 2 14.3407 68.4384 17.2577 0.0000 0.0000 0.0000
# 3 27.9570 17.2577 133.8503 0.0000 -0.0001 0.0000
# 4 0.0000 0.0000 0.0000 7.6495 0.0000 0.0000
# 5 0.0000 0.0000 -0.0001 0.0000 28.7563 0.0000
# 6 0.0000 0.0000 0.0000 0.0000 0.0000 21.2900
#
#
#
# Elastic Compliance Matrix: (Units=1/GPa)
#
#
# Indices 1 2 3 4 5 6 
#
# 1 0.011669 -0.001892 -0.002193 0.000000 0.000000 0.000000
# 2 -0.001892 0.015409 -0.001592 0.000000 0.000000 0.000000
# 3 -0.002193 -0.001592 0.008134 0.000000 0.000000 0.000000
# 4 0.000000 0.000000 0.000000 0.130727 0.000000 0.000000
# 5 0.000000 0.000000 0.000000 0.000000 0.034775 0.000000
# 6 0.000000 0.000000 0.000000 0.000000 0.000000 0.046970
#
#
# Mechanical properties :
#
#
# Convention : Reuss Voigt Hill
#
# Bulk Modulus (GPa) = 41.91310 46.07516 43.99413
# Shear Modulus (GPa) = 18.72712 27.27319 23.00016
#
# Velocity S-wave (km/s) = 2.99701 3.61676 3.32137
# Velocity P-wave (km/s) = 5.66381 6.28810 5.98410
#
# Compressibility (1/GPa) = 0.02385889
#
# Stress axis : x y z
#
# Youngs Moduli (GPa) = 85.69686 64.89507 122.93528
#
# Poissons Ratio (x) = 0.12279 0.26964
# Poissons Ratio (y) = 0.16214 0.19566
# Poissons Ratio (z) = 0.18796 0.10329
#
# Static dielectric constant tensor:
#      x y z
#    x 1.854250 0.000000 0.000000 
#    y 0.000000 1.752130 0.000000 
#    z 0.000000 0.000000 1.968460 
# 
# From -- ./inp_files/14832.got.cif
#   From: 2010.05.17/outbox.cif.g08.bks.cpg/sg23_8_cif.got.tgz:14832.got - 2010.06.04 12:02:01.
