data_PCOD9329200
_publ_section_title
;
Structure prediction by ZEFSAII (Michael W. Deem and Ramdas Pophale) SiO2 
 PCOD9329200
Probable space group: F 2 2 2
;
_chemical_formula_sum "Si O2"
_cell_formula_units_Z 72
_cell_length_a 11.757394
_cell_length_b 11.757570
_cell_length_c 25.340088
_cell_angle_alpha 90.000000
_cell_angle_beta 90.000000
_cell_angle_gamma 90.000000
_cell_volume 3502.972790
_symmetry_space_group_name_H-M "F 2 2 2"
_symmetry_group_IT_number 22
_symmetry_cell_setting 'orthorhombic'
loop_
_space_group_symop_operation_xyz
x,y,z
-x,-y,z
x,-y,-z
-x,y,-z
x,1/2+y,1/2+z
-x,1/2-y,1/2+z
x,1/2-y,1/2-z
-x,1/2+y,1/2-z
1/2+x,y,1/2+z
1/2-x,-y,1/2+z
1/2+x,-y,1/2-z
1/2-x,y,1/2-z
1/2+x,1/2+y,z
1/2-x,1/2-y,z
1/2+x,1/2-y,-z
1/2-x,1/2+y,-z
loop_
_atom_site_type_symbol
_atom_site_label
_atom_site_fract_x
_atom_site_fract_y
_atom_site_fract_z
Si Si1 0.830151 0.411097 0.297847
Si Si2 0.750000 0.250000 0.500000
Si Si3 0.912646 0.328778 0.584044
Si Si4 0.828774 0.912650 0.915956
Si Si5 0.411093 0.330154 0.202153
O O1 0.750000 0.377632 0.250000
O O2 0.784056 0.389591 0.356833
O O3 0.853319 0.546505 0.294256
O O4 0.953501 0.353337 0.294254
O O5 0.858307 0.253581 0.538591
O O6 0.753579 0.358304 0.461409
O O7 0.853226 0.453203 0.579082
O O8 0.889596 0.284055 0.643167
O O9 0.046792 0.353247 0.579081
O O10 0.377634 0.250000 0.250000
#
# Coordination Sequence:
#
# PCOD9329200 Si02
#       5
#    16   8  16  16  16
#     4   9  19  35  55  80 110 142 178 224 277 331
#     4  12  20  30  58  82  96 138 196 232 260 310
#     4   9  20  38  56  78 110 145 183 227 276 332
#     4   9  20  38  56  78 110 145 183 227 276 332
#     4   9  19  35  55  80 110 142 178 224 277 331
#
# _framework density 20.553971000000001
#
# number of rings (size 3 to 8) (size 9 to 14) (size 15 to 20)
#    0.000    2.667    0.000    4.000    0.000    9.778 
#    0.000    0.000    0.000   10.667    0.000    0.000 
#    0.000    0.000    0.000    0.000    0.000    0.000 
#
# Total GULP energy -100549.117184 kJ/mol
# GULP energy per Si atom -5586.062066 kJ/mol
# Density = 2.050719 g / cm^3
# Si number density = 20.553971 Si / 1000 Ang^3
#
#
#
# Elastic Constant Matrix: (Units=GPa)
#
#
# Indices 1 2 3 4 5 6 
#
# 1 57.2933 14.2036 68.3458 0.0000 0.0000 0.0000
# 2 14.2036 57.3113 68.3515 0.0000 0.0000 0.0000
# 3 68.3458 68.3515 222.9441 0.0000 0.0000 0.0000
# 4 0.0000 0.0000 0.0000 27.6793 0.0000 0.0000
# 5 0.0000 0.0000 0.0000 0.0000 27.6934 0.0000
# 6 0.0000 0.0000 0.0000 0.0000 0.0000 21.2589
#
#
#
# Elastic Compliance Matrix: (Units=1/GPa)
#
#
# Indices 1 2 3 4 5 6 
#
# 1 0.028500 0.005292 -0.010359 0.000000 0.000000 0.000000
# 2 0.005292 0.028488 -0.010356 0.000000 0.000000 0.000000
# 3 -0.010359 -0.010356 0.010836 0.000000 0.000000 0.000000
# 4 0.000000 0.000000 0.000000 0.036128 0.000000 0.000000
# 5 0.000000 0.000000 0.000000 0.000000 0.036110 0.000000
# 6 0.000000 0.000000 0.000000 0.000000 0.000000 0.047039
#
#
# Mechanical properties :
#
#
# Convention : Reuss Voigt Hill
#
# Bulk Modulus (GPa) = 27.04412 71.03896 49.04154
# Shear Modulus (GPa) = 21.71315 27.76950 24.74133
#
# Velocity S-wave (km/s) = 3.25375 3.67965 3.47324
# Velocity P-wave (km/s) = 5.22514 7.25881 6.32425
#
# Compressibility (1/GPa) = 0.03697661
#
# Stress axis : x y z
#
# Youngs Moduli (GPa) = 35.08789 35.10191 92.28259
#
# Poissons Ratio (x) = -0.18575 0.95598
# Poissons Ratio (y) = -0.18567 0.95571
# Poissons Ratio (z) = 0.36348 0.36353
#
# Static dielectric constant tensor:
#      x y z
#    x 1.864490 0.000000 0.000000 
#    y 0.000000 1.864370 0.000000 
#    z 0.000000 0.000000 1.753040 
# 
# From -- ./inp_files/32219.got.cif
#   From: 2010.05.17/outbox.cif.g08.bks.cpg/sg22_17_cif.got.tgz:32219.got - 2010.06.03 23:40:54.
