data_PCOD9329575
_publ_section_title
;
Structure prediction by ZEFSAII (Michael W. Deem and Ramdas Pophale) SiO2 
 PCOD9329575
Probable space group: I 2 2 2
;
_chemical_formula_sum "Si O2"
_cell_formula_units_Z 56
_cell_length_a 13.673108
_cell_length_b 16.484466
_cell_length_c 11.516417
_cell_angle_alpha 90.000000
_cell_angle_beta 90.000000
_cell_angle_gamma 90.000000
_cell_volume 2595.729957
_symmetry_space_group_name_H-M "I 2 2 2"
_symmetry_group_IT_number 23
_symmetry_cell_setting 'orthorhombic'
loop_
_space_group_symop_operation_xyz
x,y,z
-x,-y,z
x,-y,-z
-x,y,-z
1/2+x,1/2+y,1/2+z
1/2-x,1/2-y,1/2+z
1/2+x,1/2-y,1/2-z
1/2-x,1/2+y,1/2-z
loop_
_atom_site_type_symbol
_atom_site_label
_atom_site_fract_x
_atom_site_fract_y
_atom_site_fract_z
Si Si1 0.764800 0.192694 0.334758
Si Si2 0.346971 0.960085 0.336261
Si Si3 0.407188 0.175895 0.081883
Si Si4 0.762021 0.463001 0.387370
Si Si5 0.901841 0.198271 0.118236
Si Si6 0.116513 0.835193 0.854095
Si Si7 0.557089 0.123761 0.652072
O O1 0.734193 0.103842 0.377125
O O2 0.840434 0.243545 0.414032
O O3 0.815578 0.186746 0.208985
O O4 0.670871 0.251688 0.321635
O O5 0.449898 0.914547 0.357479
O O6 0.319126 0.977986 0.200697
O O7 0.367342 0.051791 0.379050
O O8 0.338943 0.099322 0.054186
O O9 0.435104 0.153419 0.214280
O O10 0.500000 0.183037 0.000000
O O11 0.711507 0.500000 0.500000
O O12 0.684414 0.409477 0.314249
O O13 0.918264 0.293294 0.088140
O O14 0.002662 0.167116 0.176567
O O15 0.883576 0.159325 0.994169
#
# Coordination Sequence:
#
# PCOD9329575 Si02
#       7
#     8   8   8   8   8   8   8
#     4  10  20  36  57  86 119 159 196 244 301 355
#     4  10  18  32  54  83 118 146 192 243 300 347
#     4   9  18  31  51  84 121 154 198 233 293 360
#     4  10  19  31  52  85 120 150 186 247 306 344
#     4  10  20  38  60  84 117 157 199 245 293 362
#     4  10  21  38  58  87 116 153 208 238 292 371
#     4   9  18  32  56  83 112 153 190 248 298 341
#
# _framework density 21.573892000000001
#
# number of rings (size 3 to 8) (size 9 to 14) (size 15 to 20)
#    0.000    2.286    1.429    2.571    0.000    2.571 
#    0.000    5.714    0.000    0.000    3.714    0.000 
#    0.000    0.000    0.000    0.000    0.000    0.000 
#
# Total GULP energy -156230.331660 kJ/mol
# GULP energy per Si atom -5579.654702 kJ/mol
# Density = 2.152479 g / cm^3
# Si number density = 21.573892 Si / 1000 Ang^3
#
#
#
# Elastic Constant Matrix: (Units=GPa)
#
#
# Indices 1 2 3 4 5 6 
#
# 1 97.6113 37.4755 23.8718 0.0000 0.0000 0.0000
# 2 37.4755 115.5574 16.0512 0.0000 0.0000 0.0000
# 3 23.8718 16.0512 40.9872 0.0000 0.0000 0.0000
# 4 0.0000 0.0000 0.0000 12.3877 0.0000 0.0000
# 5 0.0000 0.0000 0.0000 0.0000 33.4299 0.0000
# 6 0.0000 0.0000 0.0000 0.0000 0.0000 28.1796
#
#
#
# Elastic Compliance Matrix: (Units=1/GPa)
#
#
# Indices 1 2 3 4 5 6 
#
# 1 0.013077 -0.003366 -0.006298 0.000000 0.000000 0.000000
# 2 -0.003366 0.010018 -0.001963 0.000000 0.000000 0.000000
# 3 -0.006298 -0.001963 0.028835 0.000000 0.000000 0.000000
# 4 0.000000 0.000000 0.000000 0.080725 0.000000 0.000000
# 5 0.000000 0.000000 0.000000 0.000000 0.029913 0.000000
# 6 0.000000 0.000000 0.000000 0.000000 0.000000 0.035487
#
#
# Mechanical properties :
#
#
# Convention : Reuss Voigt Hill
#
# Bulk Modulus (GPa) = 34.87256 45.43920 40.15588
# Shear Modulus (GPa) = 21.65735 26.58324 24.12030
#
# Velocity S-wave (km/s) = 3.17183 3.51407 3.34733
# Velocity P-wave (km/s) = 5.44181 6.12966 5.79595
#
# Compressibility (1/GPa) = 0.02867584
#
# Stress axis : x y z
#
# Youngs Moduli (GPa) = 76.46791 99.82044 34.68039
#
# Poissons Ratio (x) = 0.33601 0.21843
# Poissons Ratio (y) = 0.25740 0.06807
# Poissons Ratio (z) = 0.48162 0.19591
#
# Static dielectric constant tensor:
#      x y z
#    x 1.788370 0.000000 0.000000 
#    y 0.000000 1.824500 0.000000 
#    z 0.000000 0.000000 1.809160 
# 
# From -- ./inp_files/21707.got.cif
#   From: 2010.05.17/outbox.cif.g08.bks.cpg/sg23_11_cif.got.tgz:21707.got - 2010.06.04 12:02:01.
