data_PCOD9329357
_publ_section_title
;
Structure prediction by ZEFSAII (Michael W. Deem and Ramdas Pophale) SiO2 
 PCOD9329357
Probable space group: I 2 2 2
;
_chemical_formula_sum "Si O2"
_cell_formula_units_Z 64
_cell_length_a 8.050395
_cell_length_b 17.798638
_cell_length_c 24.482782
_cell_angle_alpha 90.000000
_cell_angle_beta 90.000000
_cell_angle_gamma 90.000000
_cell_volume 3508.041526
_symmetry_space_group_name_H-M "I 2 2 2"
_symmetry_group_IT_number 23
_symmetry_cell_setting 'orthorhombic'
loop_
_space_group_symop_operation_xyz
x,y,z
-x,-y,z
x,-y,-z
-x,y,-z
1/2+x,1/2+y,1/2+z
1/2-x,1/2-y,1/2+z
1/2+x,1/2-y,1/2-z
1/2-x,1/2+y,1/2-z
loop_
_atom_site_type_symbol
_atom_site_label
_atom_site_fract_x
_atom_site_fract_y
_atom_site_fract_z
Si Si1 0.331507 0.460650 0.287224
Si Si2 0.768680 0.392679 0.816193
Si Si3 0.671583 0.411863 0.016808
Si Si4 0.308524 0.699238 0.678611
Si Si5 0.193007 0.765503 0.790218
Si Si6 0.596498 0.078323 0.423611
Si Si7 0.368528 0.902269 0.742944
Si Si8 0.282881 0.150269 0.373314
O O1 0.500000 0.500000 0.306325
O O2 0.362803 0.422578 0.227552
O O3 0.282921 0.390154 0.325482
O O4 0.195033 0.524031 0.273951
O O5 0.745840 0.304142 0.826816
O O6 0.775708 0.435524 0.873587
O O7 0.945415 0.403021 0.782725
O O8 0.684938 0.393166 0.080063
O O9 0.667242 0.500000 0.000000
O O10 0.500000 0.375758 0.000000
O O11 0.821323 0.387624 0.977386
O O12 0.201529 0.727485 0.730314
O O13 0.505432 0.711935 0.693335
O O14 0.262748 0.760072 0.632509
O O15 0.318866 0.834591 0.783507
O O16 0.469104 0.134637 0.394981
O O17 0.500000 0.000000 0.434791
O O18 0.266232 0.885945 0.686759
#
# Coordination Sequence:
#
# PCOD9329357 Si02
#       8
#     8   8   8   8   8   8   8   8
#     4  11  21  29  48  74 103 137 179 216 259 298
#     4  10  20  33  49  73 105 143 181 213 257 310
#     4  11  24  37  49  76 108 127 171 230 265 298
#     4  10  20  34  48  70 103 139 175 216 258 307
#     4  10  16  32  48  70  99 139 176 215 253 301
#     4  11  19  34  54  70  97 137 178 210 255 314
#     4  10  19  33  49  71 106 139 179 216 250 305
#     4  10  20  37  52  68 101 147 176 209 260 314
#
# _framework density 18.243798999999999
#
# number of rings (size 3 to 8) (size 9 to 14) (size 15 to 20)
#    0.000    1.625    6.250    2.250    0.000    1.000 
#    2.250    0.000    0.000    0.000    0.000    0.000 
#    0.000    7.000    0.000    6.875    0.000    0.250 
#
# Total GULP energy -178152.199033 kJ/mol
# GULP energy per Si atom -5567.256220 kJ/mol
# Density = 1.820228 g / cm^3
# Si number density = 18.243799 Si / 1000 Ang^3
#
#
#
# Elastic Constant Matrix: (Units=GPa)
#
#
# Indices 1 2 3 4 5 6 
#
# 1 34.4097 14.5083 8.7788 0.0000 0.0000 0.0000
# 2 14.5083 130.7250 24.7227 0.0000 0.0000 0.0000
# 3 8.7788 24.7227 44.7803 0.0000 0.0000 0.0000
# 4 0.0000 0.0000 0.0000 18.5038 0.0000 0.0000
# 5 0.0000 0.0000 0.0000 0.0000 12.6027 0.0000
# 6 0.0000 0.0000 0.0000 0.0000 0.0000 21.8045
#
#
#
# Elastic Compliance Matrix: (Units=1/GPa)
#
#
# Indices 1 2 3 4 5 6 
#
# 1 0.031356 -0.002588 -0.004719 0.000000 0.000000 0.000000
# 2 -0.002588 0.008755 -0.004326 0.000000 0.000000 0.000000
# 3 -0.004719 -0.004326 0.025645 0.000000 0.000000 0.000000
# 4 0.000000 0.000000 0.000000 0.054043 0.000000 0.000000
# 5 0.000000 0.000000 0.000000 0.000000 0.079348 0.000000
# 6 0.000000 0.000000 0.000000 0.000000 0.000000 0.045862
#
#
# Mechanical properties :
#
#
# Convention : Reuss Voigt Hill
#
# Bulk Modulus (GPa) = 23.53427 33.99274 28.76350
# Shear Modulus (GPa) = 17.70299 21.37587 19.53943
#
# Velocity S-wave (km/s) = 3.11843 3.42669 3.27619
# Velocity P-wave (km/s) = 5.08862 5.85912 5.48741
#
# Compressibility (1/GPa) = 0.04249124
#
# Stress axis : x y z
#
# Youngs Moduli (GPa) = 31.89139 114.22030 38.99428
#
# Poissons Ratio (x) = 0.29556 0.18400
# Poissons Ratio (y) = 0.08252 0.16870
# Poissons Ratio (z) = 0.15048 0.49415
#
# Static dielectric constant tensor:
#      x y z
#    x 1.771280 0.000000 0.000000 
#    y 0.000000 1.720240 0.000000 
#    z 0.000000 0.000000 1.646080 
# 
# From -- ./inp_files/29329.got.cif
#   From: 2010.05.17/outbox.cif.g08.bks.cpg/sg23_15_cif.got.tgz:29329.got - 2010.06.04 12:02:01.
