data_PCOD9329123
_publ_section_title
;
Structure prediction by ZEFSAII (Michael W. Deem and Ramdas Pophale) SiO2 
 PCOD9329123
Probable space group: F 2 2 2
;
_chemical_formula_sum "Si O2"
_cell_formula_units_Z 64
_cell_length_a 11.793099
_cell_length_b 12.348827
_cell_length_c 19.336152
_cell_angle_alpha 90.000000
_cell_angle_beta 90.000000
_cell_angle_gamma 90.000000
_cell_volume 2815.941979
_symmetry_space_group_name_H-M "F 2 2 2"
_symmetry_group_IT_number 22
_symmetry_cell_setting 'orthorhombic'
loop_
_space_group_symop_operation_xyz
x,y,z
-x,-y,z
x,-y,-z
-x,y,-z
x,1/2+y,1/2+z
-x,1/2-y,1/2+z
x,1/2-y,1/2-z
-x,1/2+y,1/2-z
1/2+x,y,1/2+z
1/2-x,-y,1/2+z
1/2+x,-y,1/2-z
1/2-x,y,1/2-z
1/2+x,1/2+y,z
1/2-x,1/2-y,z
1/2+x,1/2-y,-z
1/2-x,1/2+y,-z
loop_
_atom_site_type_symbol
_atom_site_label
_atom_site_fract_x
_atom_site_fract_y
_atom_site_fract_z
Si Si1 0.190064 0.954911 0.571733
Si Si2 0.557216 0.882764 0.433021
Si Si3 0.307216 0.632765 0.316979
Si Si4 0.940064 0.204911 0.678267
O O1 0.309347 0.898127 0.554392
O O2 0.125000 0.875000 0.625000
O O3 0.137244 0.000000 0.500000
O O4 0.213892 0.061294 0.616590
O O5 0.500000 0.829341 0.500000
O O6 0.536108 0.811295 0.366590
O O7 0.500000 0.000000 0.425083
O O8 0.250000 0.579341 0.250000
O O9 0.250000 0.750000 0.324917
O O10 0.440653 0.648127 0.304392
O O11 0.887243 0.250000 0.750000
#
# Coordination Sequence:
#
# PCOD9329123 Si02
#       4
#    16  16  16  16
#     4  12  28  47  77 115 157 202 263 334 402 472
#     4  11  25  48  76 106 149 207 260 315 393 481
#     4  11  25  48  76 106 149 207 260 315 393 481
#     4  12  28  47  77 115 157 202 263 334 402 472
#
# _framework density 22.727740000000001
#
# number of rings (size 3 to 8) (size 9 to 14) (size 15 to 20)
#    0.000    0.500    5.000    3.000    7.000    2.000 
#    0.000    0.000    0.000    0.000    0.000    0.000 
#    0.000    0.000    0.000    0.000    0.000    0.000 
#
# Total GULP energy -89501.875607 kJ/mol
# GULP energy per Si atom -5593.867225 kJ/mol
# Density = 2.267601 g / cm^3
# Si number density = 22.727740 Si / 1000 Ang^3
#
#
#
# Elastic Constant Matrix: (Units=GPa)
#
#
# Indices 1 2 3 4 5 6 
#
# 1 140.9814 8.0036 41.5120 0.0000 0.0000 0.0000
# 2 8.0036 56.4846 63.8593 0.0000 0.0000 0.0000
# 3 41.5120 63.8593 224.2630 0.0000 0.0000 0.0000
# 4 0.0000 0.0000 0.0000 34.3425 0.0000 0.0000
# 5 0.0000 0.0000 0.0000 0.0000 28.3666 0.0000
# 6 0.0000 0.0000 0.0000 0.0000 0.0000 27.5476
#
#
#
# Elastic Compliance Matrix: (Units=1/GPa)
#
#
# Indices 1 2 3 4 5 6 
#
# 1 0.007523 0.000750 -0.001606 0.000000 0.000000 0.000000
# 2 0.000750 0.026184 -0.007595 0.000000 0.000000 0.000000
# 3 -0.001606 -0.007595 0.006919 0.000000 0.000000 0.000000
# 4 0.000000 0.000000 0.000000 0.029118 0.000000 0.000000
# 5 0.000000 0.000000 0.000000 0.000000 0.035253 0.000000
# 6 0.000000 0.000000 0.000000 0.000000 0.000000 0.036301
#
#
# Mechanical properties :
#
#
# Convention : Reuss Voigt Hill
#
# Bulk Modulus (GPa) = 42.15084 72.05321 57.10203
# Shear Modulus (GPa) = 30.10079 38.60830 34.35454
#
# Velocity S-wave (km/s) = 3.64319 4.12604 3.89211
# Velocity P-wave (km/s) = 6.02357 7.38041 6.73624
#
# Compressibility (1/GPa) = 0.02372432
#
# Stress axis : x y z
#
# Youngs Moduli (GPa) = 132.91700 38.19123 144.53024
#
# Poissons Ratio (x) = -0.02864 0.23213
# Poissons Ratio (y) = -0.09966 1.09767
# Poissons Ratio (z) = 0.21348 0.29005
#
# Static dielectric constant tensor:
#      x y z
#    x 1.884450 0.000000 0.000000 
#    y 0.000000 1.833400 0.000000 
#    z 0.000000 0.000000 1.157790 
# 
# From -- ./inp_files/17755.got.cif
#   From: 2010.05.17/outbox.cif.g08.bks.cpg/sg22_9_cif.got.tgz:17755.got - 2010.06.03 23:40:54.
