data_PCOD9329180
_publ_section_title
;
Structure prediction by ZEFSAII (Michael W. Deem and Ramdas Pophale) SiO2 
 PCOD9329180
Probable space group: F 2 2 2
;
_chemical_formula_sum "Si O2"
_cell_formula_units_Z 64
_cell_length_a 24.498715
_cell_length_b 10.283337
_cell_length_c 12.457670
_cell_angle_alpha 90.000000
_cell_angle_beta 90.000000
_cell_angle_gamma 90.000000
_cell_volume 3138.442645
_symmetry_space_group_name_H-M "F 2 2 2"
_symmetry_group_IT_number 22
_symmetry_cell_setting 'orthorhombic'
loop_
_space_group_symop_operation_xyz
x,y,z
-x,-y,z
x,-y,-z
-x,y,-z
x,1/2+y,1/2+z
-x,1/2-y,1/2+z
x,1/2-y,1/2-z
-x,1/2+y,1/2-z
1/2+x,y,1/2+z
1/2-x,-y,1/2+z
1/2+x,-y,1/2-z
1/2-x,y,1/2-z
1/2+x,1/2+y,z
1/2-x,1/2-y,z
1/2+x,1/2-y,-z
1/2-x,1/2+y,-z
loop_
_atom_site_type_symbol
_atom_site_label
_atom_site_fract_x
_atom_site_fract_y
_atom_site_fract_z
Si Si1 0.186329 0.098267 0.223172
Si Si2 0.951394 0.802064 0.915214
Si Si3 0.861338 0.000000 0.000000
Si Si4 0.899829 0.473657 0.123297
Si Si5 0.500000 0.000000 0.756247
O O1 0.172285 0.250000 0.250000
O O2 0.250000 0.082799 0.250000
O O3 0.150112 0.007369 0.300301
O O4 0.172927 0.054135 0.101375
O O5 0.902387 0.885422 0.965935
O O6 0.923356 0.671503 0.874139
O O7 0.977020 0.890209 0.822239
O O8 0.000000 0.777279 0.000000
O O9 0.951562 0.553999 0.169060
O O10 0.886738 0.500000 0.000000
#
# Coordination Sequence:
#
# PCOD9329180 Si02
#       5
#    16  16   8  16   8
#     4  11  27  51  76 106 144 194 254 318 382 444
#     4  12  22  43  69 104 146 191 235 296 373 454
#     4  12  23  48  76 102 146 195 240 306 378 446
#     4  12  26  42  68 107 144 187 245 305 367 453
#     4  12  22  40  64 102 146 189 231 292 372 448
#
# _framework density 20.39228
#
# number of rings (size 3 to 8) (size 9 to 14) (size 15 to 20)
#    0.000    0.250    5.000    4.125    1.750    2.000 
#    0.000    1.250    0.000    0.000    0.000    0.000 
#    0.000    0.000    0.000    0.000    0.000    0.000 
#
# Total GULP energy -89490.027652 kJ/mol
# GULP energy per Si atom -5593.126728 kJ/mol
# Density = 2.034587 g / cm^3
# Si number density = 20.392280 Si / 1000 Ang^3
#
#
#
# Elastic Constant Matrix: (Units=GPa)
#
#
# Indices 1 2 3 4 5 6 
#
# 1 133.9797 64.2422 79.1026 0.0000 0.0000 0.0000
# 2 64.2422 126.8510 78.2816 0.0000 0.0000 0.0000
# 3 79.1026 78.2816 191.2310 0.0000 0.0000 0.0000
# 4 0.0000 0.0000 0.0000 28.0325 0.0000 0.0000
# 5 0.0000 0.0000 0.0000 0.0000 25.3023 0.0000
# 6 0.0000 0.0000 0.0000 0.0000 0.0000 26.0507
#
#
#
# Elastic Compliance Matrix: (Units=1/GPa)
#
#
# Indices 1 2 3 4 5 6 
#
# 1 0.011043 -0.003711 -0.003049 0.000000 0.000000 0.000000
# 2 -0.003711 0.011795 -0.003293 0.000000 0.000000 0.000000
# 3 -0.003049 -0.003293 0.007839 0.000000 0.000000 0.000000
# 4 0.000000 0.000000 0.000000 0.035673 0.000000 0.000000
# 5 0.000000 0.000000 0.000000 0.000000 0.039522 0.000000
# 6 0.000000 0.000000 0.000000 0.000000 0.000000 0.038387
#
#
# Mechanical properties :
#
#
# Convention : Reuss Voigt Hill
#
# Bulk Modulus (GPa) = 94.60482 99.47939 97.04210
# Shear Modulus (GPa) = 29.78157 31.23944 30.51051
#
# Velocity S-wave (km/s) = 3.82571 3.91823 3.87224
# Velocity P-wave (km/s) = 8.12452 8.32819 8.22699
#
# Compressibility (1/GPa) = 0.01057029
#
# Stress axis : x y z
#
# Youngs Moduli (GPa) = 90.55155 84.78092 127.57487
#
# Poissons Ratio (x) = 0.31465 0.38896
# Poissons Ratio (y) = 0.33607 0.42013
# Poissons Ratio (z) = 0.27608 0.27920
#
# Static dielectric constant tensor:
#      x y z
#    x 1.701940 0.000000 0.000000 
#    y 0.000000 1.832810 0.000000 
#    z 0.000000 0.000000 1.768470 
# 
# From -- ./inp_files/23397.got.cif
#   From: 2010.05.17/outbox.cif.g08.bks.cpg/sg22_12_cif.got.tgz:23397.got - 2010.06.03 23:40:54.
