data_PCOD9329257
_publ_section_title
;
Structure prediction by ZEFSAII (Michael W. Deem and Ramdas Pophale) SiO2 
 PCOD9329257
Probable space group: F 2 2 2
;
_chemical_formula_sum "Si O2"
_cell_formula_units_Z 44
_cell_length_a 20.740934
_cell_length_b 4.842123
_cell_length_c 21.109817
_cell_angle_alpha 90.000000
_cell_angle_beta 90.000000
_cell_angle_gamma 90.000000
_cell_volume 2120.062163
_symmetry_space_group_name_H-M "F 2 2 2"
_symmetry_group_IT_number 22
_symmetry_cell_setting 'orthorhombic'
loop_
_space_group_symop_operation_xyz
x,y,z
-x,-y,z
x,-y,-z
-x,y,-z
x,1/2+y,1/2+z
-x,1/2-y,1/2+z
x,1/2-y,1/2-z
-x,1/2+y,1/2-z
1/2+x,y,1/2+z
1/2-x,-y,1/2+z
1/2+x,-y,1/2-z
1/2-x,y,1/2-z
1/2+x,1/2+y,z
1/2-x,1/2-y,z
1/2+x,1/2-y,-z
1/2-x,1/2+y,-z
loop_
_atom_site_type_symbol
_atom_site_label
_atom_site_fract_x
_atom_site_fract_y
_atom_site_fract_z
Si Si1 0.570465 0.102654 0.681265
Si Si2 0.844756 0.925182 0.654149
Si Si3 0.750000 0.750000 0.955255
Si Si4 0.750000 0.750000 0.250000
O O1 0.564545 0.250000 0.750000
O O2 0.602436 0.340881 0.639618
O O3 0.500000 0.000000 0.662546
O O4 0.618855 0.843713 0.680793
O O5 0.806269 0.845479 0.591694
O O6 0.794792 0.062200 0.704431
O O7 0.729437 0.500000 0.000000
#
# Coordination Sequence:
#
# PCOD9329257 Si02
#       4
#    16  16   8   4
#     4  12  25  41  65 103 146 183 218 264 349 425
#     4  12  26  42  71 100 141 181 220 294 332 426
#     4  12  27  49  68  99 135 188 240 280 344 392
#     4  12  26  42  66 112 144 164 234 264 394 396
#
# _framework density 20.754110000000001
#
# number of rings (size 3 to 8) (size 9 to 14) (size 15 to 20)
#    0.000    0.000    1.818    9.818    5.091    1.455 
#    0.000    0.000    0.000   16.364    0.000    0.000 
#    0.000    0.000    0.000    0.000    0.000    0.000 
#
# Total GULP energy -61629.841970 kJ/mol
# GULP energy per Si atom -5602.712906 kJ/mol
# Density = 2.070687 g / cm^3
# Si number density = 20.754110 Si / 1000 Ang^3
#
#
#
# Elastic Constant Matrix: (Units=GPa)
#
#
# Indices 1 2 3 4 5 6 
#
# 1 153.7713 86.1976 72.4267 0.0006 -0.0012 -0.0016
# 2 86.1976 186.2904 69.4332 0.0020 -0.0046 -0.0074
# 3 72.4267 69.4332 118.4892 0.0004 -0.0014 -0.0006
# 4 0.0006 0.0020 0.0004 43.4892 -0.0018 -0.0001
# 5 -0.0012 -0.0046 -0.0014 -0.0018 -7.5819 0.0022
# 6 -0.0016 -0.0074 -0.0006 -0.0001 0.0022 58.2838
#
#
#
# Elastic Compliance Matrix: (Units=1/GPa)
#
#
# Indices 1 2 3 4 5 6 
#
# 1 0.010379 -0.003119 -0.004516 0.000000 0.000001 0.000000
# 2 -0.003119 0.007805 -0.002667 0.000000 -0.000004 0.000001
# 3 -0.004516 -0.002667 0.012763 0.000000 0.000000 0.000000
# 4 0.000000 0.000000 0.000000 0.022994 -0.000005 0.000000
# 5 0.000001 -0.000004 0.000000 -0.000005 -0.131892 0.000005
# 6 0.000000 0.000001 0.000000 0.000000 0.000005 0.017157
#
#
# Mechanical properties :
#
#
# Convention : Reuss Voigt Hill
#
# Bulk Modulus (GPa) = 96.69340 101.62956 99.16148
# Shear Modulus (GPa) = -136.08878 34.20444 -50.94217
#
# Velocity S-wave (km/s) = -8.10644 4.06406 -4.95972
# Velocity P-wave (km/s) = 6.39750 8.43189 3.88387
#
# Compressibility (1/GPa) = 0.01034197
#
# Stress axis : x y z
#
# Youngs Moduli (GPa) = 96.35077 128.11825 78.35016
#
# Poissons Ratio (x) = 0.39960 0.35386
# Poissons Ratio (y) = 0.30052 0.20898
# Poissons Ratio (z) = 0.43515 0.34173
#
# Static dielectric constant tensor:
#      x y z
#    x 1.767990 0.000000 0.000000 
#    y 0.000000 1.791240 0.000000 
#    z 0.000000 0.000000 1.712930 
# 
# From -- ./inp_files/39230.got.cif
#   From: 2010.05.17/outbox.cif.g08.bks.cpg/sg22_20_cif.got.tgz:39230.got - 2010.06.03 23:40:54.
