data_PCOD9329393
_publ_section_title
;
Structure prediction by ZEFSAII (Michael W. Deem and Ramdas Pophale) SiO2 
 PCOD9329393
Probable space group: I 2 2 2
;
_chemical_formula_sum "Si O2"
_cell_formula_units_Z 52
_cell_length_a 13.447391
_cell_length_b 7.668880
_cell_length_c 22.719503
_cell_angle_alpha 90.000000
_cell_angle_beta 90.000000
_cell_angle_gamma 90.000000
_cell_volume 2342.981188
_symmetry_space_group_name_H-M "I 2 2 2"
_symmetry_group_IT_number 23
_symmetry_cell_setting 'orthorhombic'
loop_
_space_group_symop_operation_xyz
x,y,z
-x,-y,z
x,-y,-z
-x,y,-z
1/2+x,1/2+y,1/2+z
1/2-x,1/2-y,1/2+z
1/2+x,1/2-y,1/2-z
1/2-x,1/2+y,1/2-z
loop_
_atom_site_type_symbol
_atom_site_label
_atom_site_fract_x
_atom_site_fract_y
_atom_site_fract_z
Si Si1 0.258776 0.475876 0.632394
Si Si2 0.605579 0.760734 0.412552
Si Si3 0.597563 0.115780 0.197919
Si Si4 0.000000 0.500000 0.000000
Si Si5 0.951935 0.816883 0.184778
Si Si6 0.500000 0.500000 0.500000
Si Si7 0.390625 0.678204 0.076966
Si Si8 0.371712 0.718318 0.945393
O O1 0.293630 0.666507 0.608436
O O2 0.197733 0.501911 0.692802
O O3 0.358547 0.367353 0.643937
O O4 0.184850 0.367720 0.590593
O O5 0.536067 0.772949 0.354959
O O6 0.564040 0.616520 0.457444
O O7 0.581503 0.925843 0.452677
O O8 0.583145 0.208117 0.259785
O O9 0.610453 0.245591 0.142741
O O10 0.500000 0.000000 0.187121
O O11 0.000000 0.000000 0.205170
O O12 0.348571 0.479508 0.076073
O O13 0.509146 0.708892 0.063504
O O14 0.347777 0.747149 0.014327
#
# Coordination Sequence:
#
# PCOD9329393 Si02
#       8
#     8   8   8   2   8   2   8   8
#     4  11  23  45  69 107 135 180 237 294 354 419
#     4  10  22  46  73 103 135 180 230 292 359 425
#     4  12  26  41  67  99 139 186 234 284 355 429
#     4  10  24  46  80 102 144 188 224 292 380 426
#     4  10  25  48  68  91 135 186 237 296 346 410
#     4  10  16  42  76  98 130 170 224 284 372 414
#     4   9  20  41  63 101 136 188 220 276 356 426
#     4   9  19  40  70  94 142 177 229 282 348 426
#
# _framework density 22.193947000000001
#
# number of rings (size 3 to 8) (size 9 to 14) (size 15 to 20)
#    0.000    1.846    3.846    0.923    3.231    5.538 
#    2.769    0.000    0.000    0.000    0.000    0.000 
#    0.000    0.000    0.000    0.000    0.000    0.000 
#
# Total GULP energy -144801.708393 kJ/mol
# GULP energy per Si atom -5569.296477 kJ/mol
# Density = 2.214343 g / cm^3
# Si number density = 22.193947 Si / 1000 Ang^3
#
#
#
# Elastic Constant Matrix: (Units=GPa)
#
#
# Indices 1 2 3 4 5 6 
#
# 1 80.0307 26.1549 28.2457 0.0000 0.0000 0.0000
# 2 26.1549 50.6191 48.3235 0.0000 0.0000 0.0000
# 3 28.2457 48.3235 142.8318 0.0000 0.0000 0.0000
# 4 0.0000 0.0000 0.0000 23.0978 0.0000 0.0000
# 5 0.0000 0.0000 0.0000 0.0000 34.3090 0.0000
# 6 0.0000 0.0000 0.0000 0.0000 0.0000 20.1448
#
#
#
# Elastic Compliance Matrix: (Units=1/GPa)
#
#
# Indices 1 2 3 4 5 6 
#
# 1 0.015059 -0.007294 -0.000510 0.000000 0.000000 0.000000
# 2 -0.007294 0.032713 -0.009625 0.000000 0.000000 0.000000
# 3 -0.000510 -0.009625 0.010359 0.000000 0.000000 0.000000
# 4 0.000000 0.000000 0.000000 0.043294 0.000000 0.000000
# 5 0.000000 0.000000 0.000000 0.000000 0.029147 0.000000
# 6 0.000000 0.000000 0.000000 0.000000 0.000000 0.049641
#
#
# Mechanical properties :
#
#
# Convention : Reuss Voigt Hill
#
# Bulk Modulus (GPa) = 42.97049 53.21444 48.09246
# Shear Modulus (GPa) = 22.43886 26.89415 24.66651
#
# Velocity S-wave (km/s) = 3.18313 3.48484 3.33739
# Velocity P-wave (km/s) = 5.73700 6.34202 6.04708
#
# Compressibility (1/GPa) = 0.02327178
#
# Stress axis : x y z
#
# Youngs Moduli (GPa) = 66.40546 30.56917 96.53827
#
# Poissons Ratio (x) = 0.22297 0.04927
# Poissons Ratio (y) = 0.48435 0.92919
# Poissons Ratio (z) = 0.03389 0.29423
#
# Static dielectric constant tensor:
#      x y z
#    x 1.964670 0.000000 0.000000 
#    y 0.000000 1.905700 0.000000 
#    z 0.000000 0.000000 1.744450 
# 
# From -- ./inp_files/26960.got.cif
#   From: 2010.05.17/outbox.cif.g08.bks.cpg/sg23_14_cif.got.tgz:26960.got - 2010.06.04 12:02:01.
