data_PCOD9329057
_publ_section_title
;
Structure prediction by ZEFSAII (Michael W. Deem and Ramdas Pophale) SiO2 
 PCOD9329057
Probable space group: F 2 2 2
;
_chemical_formula_sum "Si O2"
_cell_formula_units_Z 56
_cell_length_a 14.431631
_cell_length_b 11.074099
_cell_length_c 13.380722
_cell_angle_alpha 90.000000
_cell_angle_beta 90.000000
_cell_angle_gamma 90.000000
_cell_volume 2138.471002
_symmetry_space_group_name_H-M "F 2 2 2"
_symmetry_group_IT_number 22
_symmetry_cell_setting 'orthorhombic'
loop_
_space_group_symop_operation_xyz
x,y,z
-x,-y,z
x,-y,-z
-x,y,-z
x,1/2+y,1/2+z
-x,1/2-y,1/2+z
x,1/2-y,1/2-z
-x,1/2+y,1/2-z
1/2+x,y,1/2+z
1/2-x,-y,1/2+z
1/2+x,-y,1/2-z
1/2-x,y,1/2-z
1/2+x,1/2+y,z
1/2-x,1/2-y,z
1/2+x,1/2-y,-z
1/2-x,1/2+y,-z
loop_
_atom_site_type_symbol
_atom_site_label
_atom_site_fract_x
_atom_site_fract_y
_atom_site_fract_z
Si Si1 0.484188 0.795718 0.104510
Si Si2 0.060224 0.595693 0.704986
Si Si3 0.750000 0.527847 0.750000
Si Si4 0.694196 0.362169 0.048361
O O1 0.570747 0.708883 0.132484
O O2 0.488087 0.873830 0.204459
O O3 0.398849 0.705376 0.086985
O O4 0.500000 0.860765 0.000000
O O5 0.157976 0.552221 0.742837
O O6 0.000000 0.500000 0.644551
O O7 0.751359 0.605869 0.850569
O O8 0.750000 0.250000 0.996244
O O9 0.684373 0.500000 0.000000
#
# Coordination Sequence:
#
# PCOD9329057 Si02
#       4
#    16  16   8  16
#     4  11  26  46  72 103 155 197 255 314 399 461
#     4  11  24  46  73 108 146 202 255 318 396 467
#     4  12  25  47  80 108 159 198 271 324 395 468
#     4  12  28  49  80 115 156 209 266 330 399 475
#
# _framework density 26.186934999999998
#
# number of rings (size 3 to 8) (size 9 to 14) (size 15 to 20)
#    0.000    0.571    2.857    3.857    8.000    2.857 
#    0.000    0.000    0.000    0.000    0.000    0.000 
#    0.000    0.000    0.000    0.000    0.000    0.000 
#
# Total GULP energy -78073.628779 kJ/mol
# GULP energy per Si atom -5576.687770 kJ/mol
# Density = 2.612733 g / cm^3
# Si number density = 26.186935 Si / 1000 Ang^3
#
#
#
# Elastic Constant Matrix: (Units=GPa)
#
#
# Indices 1 2 3 4 5 6 
#
# 1 154.5841 68.4145 20.6919 0.0000 0.0000 0.0000
# 2 68.4145 165.5670 26.9576 0.0000 0.0000 0.0000
# 3 20.6919 26.9576 112.9441 0.0000 0.0000 0.0000
# 4 0.0000 0.0000 0.0000 33.8857 0.0000 0.0000
# 5 0.0000 0.0000 0.0000 0.0000 35.0389 0.0000
# 6 0.0000 0.0000 0.0000 0.0000 0.0000 43.2217
#
#
#
# Elastic Compliance Matrix: (Units=1/GPa)
#
#
# Indices 1 2 3 4 5 6 
#
# 1 0.007970 -0.003179 -0.000701 0.000000 0.000000 0.000000
# 2 -0.003179 0.007552 -0.001220 0.000000 0.000000 0.000000
# 3 -0.000701 -0.001220 0.009274 0.000000 0.000000 0.000000
# 4 0.000000 0.000000 0.000000 0.029511 0.000000 0.000000
# 5 0.000000 0.000000 0.000000 0.000000 0.028540 0.000000
# 6 0.000000 0.000000 0.000000 0.000000 0.000000 0.023137
#
#
# Mechanical properties :
#
#
# Convention : Reuss Voigt Hill
#
# Bulk Modulus (GPa) = 68.51861 73.91369 71.21615
# Shear Modulus (GPa) = 41.30571 43.56467 42.43519
#
# Velocity S-wave (km/s) = 3.97588 4.08315 4.02988
# Velocity P-wave (km/s) = 6.87742 7.10748 6.99339
#
# Compressibility (1/GPa) = 0.01459458
#
# Stress axis : x y z
#
# Youngs Moduli (GPa) = 125.47374 132.41297 107.83240
#
# Poissons Ratio (x) = 0.42095 0.07563
# Poissons Ratio (y) = 0.39889 0.13157
# Poissons Ratio (z) = 0.08800 0.16156
#
# Static dielectric constant tensor:
#      x y z
#    x 2.102210 0.000000 0.000000 
#    y 0.000000 2.178610 0.000000 
#    z 0.000000 0.000000 2.122420 
# 
# From -- ./inp_files/19072.got.cif
#   From: 2010.05.17/outbox.cif.g08.bks.cpg/sg22_10_cif.got.tgz:19072.got - 2010.06.03 23:40:54.
