data_PCOD9329861
_publ_section_title
;
Structure prediction by ZEFSAII (Michael W. Deem and Ramdas Pophale) SiO2 
 PCOD9329861
Probable space group: I 2 2 2
;
_chemical_formula_sum "Si O2"
_cell_formula_units_Z 50
_cell_length_a 19.545798
_cell_length_b 9.483772
_cell_length_c 13.132814
_cell_angle_alpha 90.000000
_cell_angle_beta 90.000000
_cell_angle_gamma 90.000000
_cell_volume 2434.402044
_symmetry_space_group_name_H-M "I 2 2 2"
_symmetry_group_IT_number 23
_symmetry_cell_setting 'orthorhombic'
loop_
_space_group_symop_operation_xyz
x,y,z
-x,-y,z
x,-y,-z
-x,y,-z
1/2+x,1/2+y,1/2+z
1/2-x,1/2-y,1/2+z
1/2+x,1/2-y,1/2-z
1/2-x,1/2+y,1/2-z
loop_
_atom_site_type_symbol
_atom_site_label
_atom_site_fract_x
_atom_site_fract_y
_atom_site_fract_z
Si Si1 0.731834 0.840552 0.158740
Si Si2 0.575351 0.034481 0.330718
Si Si3 0.185415 0.700035 0.125211
Si Si4 0.500000 0.500000 0.500000
Si Si5 0.321350 0.648288 0.024015
Si Si6 0.374818 0.677544 0.428606
Si Si7 0.379176 0.928284 0.107550
O O1 0.713431 0.762676 0.263703
O O2 0.812038 0.870553 0.142874
O O3 0.689560 0.985008 0.139643
O O4 0.703452 0.734071 0.074213
O O5 0.606421 0.167597 0.388769
O O6 0.575361 0.059178 0.208544
O O7 0.500000 0.000000 0.366865
O O8 0.622560 0.902234 0.354872
O O9 0.250191 0.616359 0.080569
O O10 0.159245 0.812075 0.041862
O O11 0.445910 0.592561 0.434790
O O12 0.363514 0.764630 0.086469
O O13 0.356449 0.500000 0.000000
O O14 0.402494 0.000000 0.000000
#
# Coordination Sequence:
#
# PCOD9329861 Si02
#       7
#     8   8   8   2   8   8   8
#     4   9  20  37  61  90 121 162 210 272 321 375
#     4  11  22  39  62  89 118 166 216 262 306 390
#     4  10  20  37  62  89 119 156 212 271 318 366
#     4  12  28  40  54  88 140 198 198 242 336 420
#     4  10  19  33  56  91 124 152 193 262 332 372
#     4  11  23  40  59  91 130 172 215 257 328 401
#     4   9  20  38  62  94 121 157 212 265 331 371
#
# _framework density 20.538924000000002
#
# number of rings (size 3 to 8) (size 9 to 14) (size 15 to 20)
#    0.000    1.920    0.000    4.320    5.600    2.240 
#    2.880    0.000    0.000    0.000    0.000    1.120 
#    0.000    0.000    0.000    0.000    0.000    0.000 
#
# Total GULP energy -139490.384774 kJ/mol
# GULP energy per Si atom -5579.615391 kJ/mol
# Density = 2.049218 g / cm^3
# Si number density = 20.538924 Si / 1000 Ang^3
#
#
#
# Elastic Constant Matrix: (Units=GPa)
#
#
# Indices 1 2 3 4 5 6 
#
# 1 78.3527 25.5992 22.8417 0.0000 0.0000 0.0000
# 2 25.5992 60.5253 -8.6385 0.0000 0.0000 0.0000
# 3 22.8417 -8.6385 86.5947 0.0000 0.0000 0.0000
# 4 0.0000 0.0000 0.0000 16.6191 0.0000 0.0000
# 5 0.0000 0.0000 0.0000 0.0000 7.7631 0.0000
# 6 0.0000 0.0000 0.0000 0.0000 0.0000 -0.3480
#
#
#
# Elastic Compliance Matrix: (Units=1/GPa)
#
#
# Indices 1 2 3 4 5 6 
#
# 1 0.016863 -0.007879 -0.005234 0.000000 0.000000 0.000000
# 2 -0.007879 0.020442 0.004118 0.000000 0.000000 0.000000
# 3 -0.005234 0.004118 0.013339 0.000000 0.000000 0.000000
# 4 0.000000 0.000000 0.000000 0.060172 0.000000 0.000000
# 5 0.000000 0.000000 0.000000 0.000000 0.128814 0.000000
# 6 0.000000 0.000000 0.000000 0.000000 0.000000 -2.873308
#
#
# Mechanical properties :
#
#
# Convention : Reuss Voigt Hill
#
# Bulk Modulus (GPa) = 30.62477 33.89750 32.26113
# Shear Modulus (GPa) = -1.91953 17.18487 7.63267
#
# Velocity S-wave (km/s) = -0.96779 2.89571 1.92984
# Velocity P-wave (km/s) = 3.70056 5.26498 4.55051
#
# Compressibility (1/GPa) = 0.03265331
#
# Stress axis : x y z
#
# Youngs Moduli (GPa) = 59.30166 48.91832 74.96562
#
# Poissons Ratio (x) = 0.38544 0.39238
# Poissons Ratio (y) = 0.46725 -0.30868
# Poissons Ratio (z) = 0.31039 -0.20143
#
# Static dielectric constant tensor:
#      x y z
#    x 1.699860 0.000000 0.000000 
#    y 0.000000 1.772320 0.000000 
#    z 0.000000 0.000000 1.850030 
# 
# From -- ./inp_files/22053.got.cif
#   From: 2010.05.17/outbox.cif.g08.bks.cpg/sg23_12_cif.got.tgz:22053.got - 2010.06.04 12:02:01.
