data_PCOD9329438
_publ_section_title
;
Structure prediction by ZEFSAII (Michael W. Deem and Ramdas Pophale) SiO2 
 PCOD9329438
Probable space group: I 2 2 2
;
_chemical_formula_sum "Si O2"
_cell_formula_units_Z 38
_cell_length_a 7.285699
_cell_length_b 18.147158
_cell_length_c 14.350081
_cell_angle_alpha 90.000000
_cell_angle_beta 90.000000
_cell_angle_gamma 90.000000
_cell_volume 1897.292098
_symmetry_space_group_name_H-M "I 2 2 2"
_symmetry_group_IT_number 23
_symmetry_cell_setting 'orthorhombic'
loop_
_space_group_symop_operation_xyz
x,y,z
-x,-y,z
x,-y,-z
-x,y,-z
1/2+x,1/2+y,1/2+z
1/2-x,1/2-y,1/2+z
1/2+x,1/2-y,1/2-z
1/2-x,1/2+y,1/2-z
loop_
_atom_site_type_symbol
_atom_site_label
_atom_site_fract_x
_atom_site_fract_y
_atom_site_fract_z
Si Si1 0.691035 0.191268 0.729947
Si Si2 0.000000 0.500000 0.000000
Si Si3 0.911764 0.857651 0.797871
Si Si4 0.146786 0.612829 0.858025
Si Si5 0.000000 0.859976 0.000000
Si Si6 0.668134 0.760706 0.067860
O O1 0.675528 0.274803 0.689734
O O2 0.555810 0.139036 0.673282
O O3 0.896399 0.160186 0.743915
O O4 0.115688 0.299646 0.664850
O O5 0.124385 0.549227 0.932408
O O6 0.772598 0.902326 0.732401
O O7 0.952754 0.894205 0.898432
O O8 0.242212 0.683265 0.905123
O O9 0.824914 0.810112 0.022843
O O10 0.500000 0.751159 0.000000
#
# Coordination Sequence:
#
# PCOD9329438 Si02
#       6
#     8   2   8   8   4   8
#     4  10  18  33  54  86 118 159 200 261 328 361
#     4  12  30  44  58  84 126 212 208 242 294 386
#     4  10  19  32  59  90 121 157 203 273 335 368
#     4  11  23  40  55  79 130 166 228 242 301 391
#     4  10  17  30  54  93 125 143 192 266 350 380
#     4  10  20  30  58  90 119 154 198 265 331 373
#
# _framework density 20.028547
#
# number of rings (size 3 to 8) (size 9 to 14) (size 15 to 20)
#    0.000    1.684    6.316    1.895    2.947    0.000 
#    0.000    4.737    0.000    0.000    0.000   24.316 
#    0.000    0.000    0.000    0.000    0.000    0.000 
#
# Total GULP energy -106039.371738 kJ/mol
# GULP energy per Si atom -5581.019565 kJ/mol
# Density = 1.998296 g / cm^3
# Si number density = 20.028547 Si / 1000 Ang^3
#
#
#
# Elastic Constant Matrix: (Units=GPa)
#
#
# Indices 1 2 3 4 5 6 
#
# 1 94.1451 19.4181 37.1636 0.0000 0.0000 0.0000
# 2 19.4181 36.5571 40.7498 0.0000 0.0000 0.0000
# 3 37.1636 40.7498 123.6187 0.0000 0.0000 0.0001
# 4 0.0000 0.0000 0.0000 39.0544 0.0000 0.0000
# 5 0.0000 0.0000 0.0000 0.0000 45.4627 0.0000
# 6 0.0000 0.0000 0.0001 0.0000 0.0000 45.5501
#
#
#
# Elastic Compliance Matrix: (Units=1/GPa)
#
#
# Indices 1 2 3 4 5 6 
#
# 1 0.012384 -0.003838 -0.002458 0.000000 0.000000 0.000000
# 2 -0.003838 0.044434 -0.013493 0.000000 0.000000 0.000000
# 3 -0.002458 -0.013493 0.013276 0.000000 0.000000 0.000000
# 4 0.000000 0.000000 0.000000 0.025605 0.000000 0.000000
# 5 0.000000 0.000000 0.000000 0.000000 0.021996 0.000000
# 6 0.000000 0.000000 0.000000 0.000000 0.000000 0.021954
#
#
# Mechanical properties :
#
#
# Convention : Reuss Voigt Hill
#
# Bulk Modulus (GPa) = 32.77041 49.88708 41.32875
# Shear Modulus (GPa) = 26.39916 36.47940 31.43928
#
# Velocity S-wave (km/s) = 3.63447 4.27238 3.96627
# Velocity P-wave (km/s) = 5.83180 7.02138 6.45405
#
# Compressibility (1/GPa) = 0.03051534
#
# Stress axis : x y z
#
# Youngs Moduli (GPa) = 80.75102 22.50519 75.32270
#
# Poissons Ratio (x) = 0.08638 0.18512
# Poissons Ratio (y) = 0.30995 1.01636
# Poissons Ratio (z) = 0.19846 0.30367
#
# Static dielectric constant tensor:
#      x y z
#    x 1.692660 0.000000 0.000000 
#    y 0.000000 1.674340 0.000000 
#    z 0.000000 0.000000 1.753080 
# 
# From -- ./inp_files/23162.got.cif
#   From: 2010.05.17/outbox.cif.g08.bks.cpg/sg23_12_cif.got.tgz:23162.got - 2010.06.04 12:02:01.
