data_PCOD9329603
_publ_section_title
;
Structure prediction by ZEFSAII (Michael W. Deem and Ramdas Pophale) SiO2 
 PCOD9329603
Probable space group: I 2 2 2
;
_chemical_formula_sum "Si O2"
_cell_formula_units_Z 38
_cell_length_a 13.913608
_cell_length_b 10.532558
_cell_length_c 15.540584
_cell_angle_alpha 90.000000
_cell_angle_beta 90.000000
_cell_angle_gamma 90.000000
_cell_volume 2277.408608
_symmetry_space_group_name_H-M "I 2 2 2"
_symmetry_group_IT_number 23
_symmetry_cell_setting 'orthorhombic'
loop_
_space_group_symop_operation_xyz
x,y,z
-x,-y,z
x,-y,-z
-x,y,-z
1/2+x,1/2+y,1/2+z
1/2-x,1/2-y,1/2+z
1/2+x,1/2-y,1/2-z
1/2-x,1/2+y,1/2-z
loop_
_atom_site_type_symbol
_atom_site_label
_atom_site_fract_x
_atom_site_fract_y
_atom_site_fract_z
Si Si1 0.315155 0.000000 0.500000
Si Si2 0.342906 0.360283 0.886257
Si Si3 0.400899 0.746698 0.452700
Si Si4 0.500000 0.500000 0.000000
Si Si5 0.252989 0.899818 0.069623
Si Si6 0.108923 0.944234 0.805478
O O1 0.247506 0.070007 0.430973
O O2 0.378698 0.105309 0.546340
O O3 0.323664 0.208558 0.892841
O O4 0.356474 0.411080 0.789937
O O5 0.433666 0.409606 0.941307
O O6 0.500000 0.719706 0.500000
O O7 0.321106 0.676392 0.509409
O O8 0.398597 0.684968 0.359718
O O9 0.187161 0.968538 0.142885
O O10 0.297137 0.000000 0.000000
O O11 0.000000 0.000000 0.804410
#
# Coordination Sequence:
#
# PCOD9329603 Si02
#       6
#     4   8   8   2   8   8
#     4   9  21  35  53  78 112 148 179 231 279 325
#     4  10  21  37  56  81 107 149 190 227 272 323
#     4  10  18  33  56  79 111 145 180 224 284 330
#     4  10  20  40  60  72 112 152 194 218 276 334
#     4   9  20  36  56  81 111 145 183 226 275 328
#     4  11  20  33  58  83 110 144 186 231 272 331
#
# _framework density 16.68563
#
# number of rings (size 3 to 8) (size 9 to 14) (size 15 to 20)
#    0.000    2.105    3.158    0.316    2.947    0.000 
#    0.000    0.526    0.000    0.000    0.000    0.000 
#    0.000    0.000    0.000    0.000    0.000    0.000 
#
# Total GULP energy -105820.288041 kJ/mol
# GULP energy per Si atom -5569.488844 kJ/mol
# Density = 1.664765 g / cm^3
# Si number density = 16.685630 Si / 1000 Ang^3
#
#
#
# Elastic Constant Matrix: (Units=GPa)
#
#
# Indices 1 2 3 4 5 6 
#
# 1 36.5541 25.7660 28.7921 0.0000 0.0000 0.0000
# 2 25.7660 118.6201 57.0972 0.0000 0.0000 0.0000
# 3 28.7921 57.0972 133.8963 0.0000 0.0000 0.0000
# 4 0.0000 0.0000 0.0000 14.6664 0.0000 0.0000
# 5 0.0000 0.0000 0.0000 0.0000 9.2330 0.0000
# 6 0.0000 0.0000 0.0000 0.0000 0.0000 -1.3679
#
#
#
# Elastic Compliance Matrix: (Units=1/GPa)
#
#
# Indices 1 2 3 4 5 6 
#
# 1 0.035170 -0.005032 -0.005417 0.000000 0.000000 0.000000
# 2 -0.005032 0.011328 -0.003748 0.000000 0.000000 0.000000
# 3 -0.005417 -0.003748 0.010232 0.000000 0.000000 0.000000
# 4 0.000000 0.000000 0.000000 0.068183 0.000000 0.000000
# 5 0.000000 0.000000 0.000000 0.000000 0.108307 0.000000
# 6 0.000000 0.000000 0.000000 0.000000 0.000000 -0.731047
#
#
# Mechanical properties :
#
#
# Convention : Reuss Voigt Hill
#
# Bulk Modulus (GPa) = 35.29216 56.93122 46.11169
# Shear Modulus (GPa) = -10.86988 16.33397 2.73205
#
# Velocity S-wave (km/s) = -2.55512 3.13217 1.28098
# Velocity P-wave (km/s) = 3.53444 6.87566 5.46658
#
# Compressibility (1/GPa) = 0.02833490
#
# Stress axis : x y z
#
# Youngs Moduli (GPa) = 28.43297 88.28031 97.73568
#
# Poissons Ratio (x) = 0.44423 0.52943
# Poissons Ratio (y) = 0.14308 0.36634
# Poissons Ratio (z) = 0.15402 0.33090
#
# Static dielectric constant tensor:
#      x y z
#    x 1.560090 0.000000 0.000000 
#    y 0.000000 1.589600 0.000000 
#    z 0.000000 0.000000 1.538960 
# 
# From -- ./inp_files/15564.got.cif
#   From: 2010.05.17/outbox.cif.g08.bks.cpg/sg23_8_cif.got.tgz:15564.got - 2010.06.04 12:02:01.
