data_PCOD9329622
_publ_section_title
;
Structure prediction by ZEFSAII (Michael W. Deem and Ramdas Pophale) SiO2 
 PCOD9329622
Probable space group: I 2 2 2
;
_chemical_formula_sum "Si O2"
_cell_formula_units_Z 56
_cell_length_a 21.211754
_cell_length_b 14.497691
_cell_length_c 9.586906
_cell_angle_alpha 90.000000
_cell_angle_beta 90.000000
_cell_angle_gamma 90.000000
_cell_volume 2948.179283
_symmetry_space_group_name_H-M "I 2 2 2"
_symmetry_group_IT_number 23
_symmetry_cell_setting 'orthorhombic'
loop_
_space_group_symop_operation_xyz
x,y,z
-x,-y,z
x,-y,-z
-x,y,-z
1/2+x,1/2+y,1/2+z
1/2-x,1/2-y,1/2+z
1/2+x,1/2-y,1/2-z
1/2-x,1/2+y,1/2-z
loop_
_atom_site_type_symbol
_atom_site_label
_atom_site_fract_x
_atom_site_fract_y
_atom_site_fract_z
Si Si1 0.198342 0.500000 0.500000
Si Si2 0.362669 0.278261 0.482039
Si Si3 0.726428 0.375780 0.305010
Si Si4 0.504219 0.109085 0.794639
Si Si5 0.321098 0.701994 0.829187
Si Si6 0.729254 0.101727 0.503969
Si Si7 0.500000 0.200879 0.500000
Si Si8 0.105209 0.668143 0.504660
O O1 0.241752 0.535799 0.375743
O O2 0.155985 0.588760 0.540599
O O3 0.332804 0.343887 0.601453
O O4 0.351209 0.312426 0.322789
O O5 0.323850 0.181229 0.492255
O O6 0.436168 0.260111 0.504182
O O7 0.775916 0.291416 0.319515
O O8 0.725917 0.390220 0.140087
O O9 0.502232 0.137438 0.635898
O O10 0.448130 0.161738 0.876919
O O11 0.500000 0.000000 0.816794
O O12 0.570181 0.137025 0.863280
O O13 0.275345 0.620285 0.874718
O O14 0.366198 0.733927 0.957742
O O15 0.700493 0.000000 0.500000
#
# Coordination Sequence:
#
# PCOD9329622 Si02
#       8
#     4   8   8   8   8   8   4   8
#     4  10  18  33  62  85 110 152 192 246 296 346
#     4  10  22  42  55  84 122 159 199 233 298 365
#     4   9  21  35  58  86 114 152 198 236 301 350
#     4  11  21  34  51  86 121 158 195 233 284 353
#     4   9  19  38  58  80 119 154 196 245 284 353
#     4  10  22  38  61  91 118 148 193 256 302 347
#     4  12  25  36  56  81 122 166 192 242 289 348
#     4  10  18  35  57  80 118 158 199 230 282 359
#
# _framework density 18.994774
#
# number of rings (size 3 to 8) (size 9 to 14) (size 15 to 20)
#    0.000    2.000    2.857    0.643    4.000    2.286 
#    0.000    0.000    0.000    0.429    0.000    7.000 
#    0.000    0.000    0.000    0.000    0.000    0.000 
#
# Total GULP energy -156137.912138 kJ/mol
# GULP energy per Si atom -5576.354005 kJ/mol
# Density = 1.895154 g / cm^3
# Si number density = 18.994774 Si / 1000 Ang^3
#
#
#
# Elastic Constant Matrix: (Units=GPa)
#
#
# Indices 1 2 3 4 5 6 
#
# 1 93.5921 24.4857 31.0937 0.0000 0.0000 0.0000
# 2 24.4857 38.5603 17.6113 0.0000 0.0000 0.0000
# 3 31.0937 17.6113 94.2987 0.0000 0.0000 0.0000
# 4 0.0000 0.0000 0.0000 22.5868 0.0000 0.0000
# 5 0.0000 0.0000 0.0000 0.0000 11.4937 0.0000
# 6 0.0000 0.0000 0.0000 0.0000 0.0000 20.3994
#
#
#
# Elastic Compliance Matrix: (Units=1/GPa)
#
#
# Indices 1 2 3 4 5 6 
#
# 1 0.013615 -0.007210 -0.003143 0.000000 0.000000 0.000000
# 2 -0.007210 0.032170 -0.003631 0.000000 0.000000 0.000000
# 3 -0.003143 -0.003631 0.012319 0.000000 0.000000 0.000000
# 4 0.000000 0.000000 0.000000 0.044274 0.000000 0.000000
# 5 0.000000 0.000000 0.000000 0.000000 0.087004 0.000000
# 6 0.000000 0.000000 0.000000 0.000000 0.000000 0.049021
#
#
# Mechanical properties :
#
#
# Convention : Reuss Voigt Hill
#
# Bulk Modulus (GPa) = 33.18197 41.42583 37.30390
# Shear Modulus (GPa) = 18.08870 21.11335 19.60103
#
# Velocity S-wave (km/s) = 3.08928 3.33759 3.21583
# Velocity P-wave (km/s) = 5.49835 6.05880 5.78536
#
# Compressibility (1/GPa) = 0.03013684
#
# Stress axis : x y z
#
# Youngs Moduli (GPa) = 73.44778 31.08479 81.17564
#
# Poissons Ratio (x) = 0.22413 0.25512
# Poissons Ratio (y) = 0.52957 0.29472
# Poissons Ratio (z) = 0.23083 0.11286
#
# Static dielectric constant tensor:
#      x y z
#    x 1.679870 0.000000 0.000000 
#    y 0.000000 1.686760 0.000000 
#    z 0.000000 0.000000 1.693920 
# 
# From -- ./inp_files/12097.got.cif
#   From: 2010.05.17/outbox.cif.g08.bks.cpg/sg23_7_cif.got.tgz:12097.got - 2010.06.04 12:02:01.
