data_PCOD9329837
_publ_section_title
;
Structure prediction by ZEFSAII (Michael W. Deem and Ramdas Pophale) SiO2 
 PCOD9329837
Probable space group: I 2 2 2
;
_chemical_formula_sum "Si O2"
_cell_formula_units_Z 64
_cell_length_a 9.537574
_cell_length_b 10.111765
_cell_length_c 28.648676
_cell_angle_alpha 90.000000
_cell_angle_beta 90.000000
_cell_angle_gamma 90.000000
_cell_volume 2762.927216
_symmetry_space_group_name_H-M "I 2 2 2"
_symmetry_group_IT_number 23
_symmetry_cell_setting 'orthorhombic'
loop_
_space_group_symop_operation_xyz
x,y,z
-x,-y,z
x,-y,-z
-x,y,-z
1/2+x,1/2+y,1/2+z
1/2-x,1/2-y,1/2+z
1/2+x,1/2-y,1/2-z
1/2-x,1/2+y,1/2-z
loop_
_atom_site_type_symbol
_atom_site_label
_atom_site_fract_x
_atom_site_fract_y
_atom_site_fract_z
Si Si1 0.768640 0.429302 0.049319
Si Si2 0.961275 0.307403 0.551533
Si Si3 0.497279 0.850520 0.294052
Si Si4 0.472560 0.237147 0.395914
Si Si5 0.310977 0.856348 0.142580
Si Si6 0.540963 0.359247 0.824167
Si Si7 0.229100 0.158621 0.762064
Si Si8 0.764276 0.796509 0.598731
O O1 0.643955 0.320440 0.049287
O O2 0.756016 0.548819 0.086203
O O3 0.908327 0.350940 0.063339
O O4 0.774674 0.500000 0.000000
O O5 0.894796 0.392696 0.594776
O O6 0.000000 0.359763 0.500000
O O7 0.110309 0.254259 0.567577
O O8 0.483458 0.843550 0.349535
O O9 0.365776 0.794139 0.265954
O O10 0.642725 0.782026 0.282181
O O11 0.500000 0.000000 0.278425
O O12 0.343533 0.324866 0.378025
O O13 0.624639 0.288556 0.410273
O O14 0.408436 0.736284 0.164185
O O15 0.276038 0.927851 0.192349
O O16 0.500000 0.500000 0.845836
O O17 0.613178 0.395847 0.774401
O O18 0.670385 0.289172 0.850054
#
# Coordination Sequence:
#
# PCOD9329837 Si02
#       8
#     8   8   8   8   8   8   8   8
#     4  11  20  30  41  65 102 143 193 234 269 319
#     4  10  19  33  47  64  97 145 184 229 281 334
#     4  11  23  39  58  81 118 150 199 248 298 347
#     4  10  21  33  48  71 102 145 183 242 282 324
#     4   9  21  37  49  74 107 138 191 237 282 342
#     4  11  21  33  53  76 103 147 195 236 281 352
#     4  11  22  37  57  83 106 151 198 242 297 348
#     4  11  19  29  47  68  97 139 190 233 276 330
#
# _framework density 23.163838999999999
#
# number of rings (size 3 to 8) (size 9 to 14) (size 15 to 20)
#    0.000    1.500    3.750    3.750    3.500    1.000 
#    0.000    0.000    0.000    0.000    0.000    0.000 
#    0.000    0.500    0.000    2.750    0.750    0.500 
#
# Total GULP energy -178191.242804 kJ/mol
# GULP energy per Si atom -5568.476338 kJ/mol
# Density = 2.311112 g / cm^3
# Si number density = 23.163839 Si / 1000 Ang^3
#
#
#
# Elastic Constant Matrix: (Units=GPa)
#
#
# Indices 1 2 3 4 5 6 
#
# 1 184.3493 11.1040 46.7429 0.0000 0.0000 0.0000
# 2 11.1040 9.9952 5.4147 0.0000 0.0000 0.0000
# 3 46.7429 5.4147 137.2318 0.0000 0.0000 0.0000
# 4 0.0000 0.0000 0.0000 8.6989 0.0000 0.0000
# 5 0.0000 0.0000 0.0000 0.0000 38.5322 0.0000
# 6 0.0000 0.0000 0.0000 0.0000 0.0000 13.3251
#
#
#
# Elastic Compliance Matrix: (Units=1/GPa)
#
#
# Indices 1 2 3 4 5 6 
#
# 1 0.006263 -0.005929 -0.001899 0.000000 0.000000 0.000000
# 2 -0.005929 0.107846 -0.002236 0.000000 0.000000 0.000000
# 3 -0.001899 -0.002236 0.008022 0.000000 0.000000 0.000000
# 4 0.000000 0.000000 0.000000 0.114957 0.000000 0.000000
# 5 0.000000 0.000000 0.000000 0.000000 0.025952 0.000000
# 6 0.000000 0.000000 0.000000 0.000000 0.000000 0.075046
#
#
# Mechanical properties :
#
#
# Convention : Reuss Voigt Hill
#
# Bulk Modulus (GPa) = 9.80363 50.89995 30.35179
# Shear Modulus (GPa) = 12.74809 29.99890 21.37349
#
# Velocity S-wave (km/s) = 2.34849 3.60262 3.04091
# Velocity P-wave (km/s) = 3.40519 6.27110 5.04589
#
# Compressibility (1/GPa) = 0.10200300
#
# Stress axis : x y z
#
# Youngs Moduli (GPa) = 159.66243 9.27248 124.65544
#
# Poissons Ratio (x) = 0.05498 0.23677
# Poissons Ratio (y) = 0.94665 0.27870
# Poissons Ratio (z) = 0.30326 0.02073
#
# Static dielectric constant tensor:
#      x y z
#    x 1.827400 0.000000 0.000000 
#    y 0.000000 1.859000 0.000000 
#    z 0.000000 0.000000 1.982460 
# 
# From -- ./inp_files/30338.got.cif
#   From: 2010.05.17/outbox.cif.g08.bks.cpg/sg23_16_cif.got.tgz:30338.got - 2010.06.04 12:02:01.
