data_PCOD9329658
_publ_section_title
;
Structure prediction by ZEFSAII (Michael W. Deem and Ramdas Pophale) SiO2 
 PCOD9329658
Probable space group: I 2 2 2
;
_chemical_formula_sum "Si O2"
_cell_formula_units_Z 48
_cell_length_a 12.364032
_cell_length_b 17.611617
_cell_length_c 8.123255
_cell_angle_alpha 90.000000
_cell_angle_beta 90.000000
_cell_angle_gamma 90.000000
_cell_volume 1768.843619
_symmetry_space_group_name_H-M "I 2 2 2"
_symmetry_group_IT_number 23
_symmetry_cell_setting 'orthorhombic'
loop_
_space_group_symop_operation_xyz
x,y,z
-x,-y,z
x,-y,-z
-x,y,-z
1/2+x,1/2+y,1/2+z
1/2-x,1/2-y,1/2+z
1/2+x,1/2-y,1/2-z
1/2-x,1/2+y,1/2-z
loop_
_atom_site_type_symbol
_atom_site_label
_atom_site_fract_x
_atom_site_fract_y
_atom_site_fract_z
Si Si1 0.186650 0.345493 0.411331
Si Si2 0.581865 0.568563 0.745885
Si Si3 0.669953 0.317625 0.034457
Si Si4 0.607939 0.857201 0.282160
Si Si5 0.304454 0.004454 0.692673
Si Si6 0.583635 0.303981 0.667234
O O1 0.143952 0.260723 0.371222
O O2 0.129610 0.358633 0.586338
O O3 0.173661 0.414186 0.280456
O O4 0.314754 0.330378 0.444560
O O5 0.500000 0.500000 0.742731
O O6 0.601507 0.609754 0.918079
O O7 0.701050 0.532665 0.707375
O O8 0.513827 0.636975 0.662407
O O9 0.787036 0.338406 0.104675
O O10 0.648074 0.305941 0.843335
O O11 0.594100 0.946441 0.309284
O O12 0.541791 0.782961 0.334341
O O13 0.271667 0.000000 0.500000
#
# Coordination Sequence:
#
# PCOD9329658 Si02
#       6
#     8   8   8   8   8   8
#     4  10  18  35  52  74 113 146 186 229 265 329
#     4  11  21  31  55  87 115 138 183 229 281 325
#     4   9  20  32  51  79 107 152 186 217 274 330
#     4   9  20  34  51  77 106 150 188 221 272 323
#     4  11  22  35  58  85 107 145 187 230 277 327
#     4  10  19  33  54  75 111 149 184 226 270 330
#
# _framework density 27.136374
#
# number of rings (size 3 to 8) (size 9 to 14) (size 15 to 20)
#    0.000    2.000    1.667    3.000    2.333    1.333 
#    0.000    3.333    0.000    1.000    0.000    5.833 
#    0.000    0.000    0.000    0.000    0.000    0.000 
#
# Total GULP energy -133729.016970 kJ/mol
# GULP energy per Si atom -5572.042374 kJ/mol
# Density = 2.707461 g / cm^3
# Si number density = 27.136374 Si / 1000 Ang^3
#
#
#
# Elastic Constant Matrix: (Units=GPa)
#
#
# Indices 1 2 3 4 5 6 
#
# 1 70.2728 36.7561 37.3360 0.0000 0.0000 0.0000
# 2 36.7561 268.2772 50.0264 0.0000 0.0000 0.0000
# 3 37.3360 50.0264 115.7921 0.0000 0.0000 0.0000
# 4 0.0000 0.0000 0.0000 -7.0852 0.0000 0.0000
# 5 0.0000 0.0000 0.0000 0.0000 23.9228 0.0000
# 6 0.0000 0.0000 0.0000 0.0000 0.0000 -55.0655
#
#
#
# Elastic Compliance Matrix: (Units=1/GPa)
#
#
# Indices 1 2 3 4 5 6 
#
# 1 0.017696 -0.001480 -0.005067 0.000000 0.000000 0.000000
# 2 -0.001480 0.004178 -0.001328 0.000000 0.000000 0.000000
# 3 -0.005067 -0.001328 0.010844 0.000000 0.000000 0.000000
# 4 0.000000 0.000000 0.000000 -0.141140 0.000000 0.000000
# 5 0.000000 0.000000 0.000000 0.000000 0.041801 0.000000
# 6 0.000000 0.000000 0.000000 0.000000 0.000000 -0.018160
#
#
# Mechanical properties :
#
#
# Convention : Reuss Voigt Hill
#
# Bulk Modulus (GPa) = 58.93076 78.06435 68.49756
# Shear Modulus (GPa) = -78.89300 14.36934 -32.26183
#
# Velocity S-wave (km/s) = -5.39777 2.30363 -3.45175
# Velocity P-wave (km/s) = 4.13330 5.99212 3.06768
#
# Compressibility (1/GPa) = 0.01696907
#
# Stress axis : x y z
#
# Youngs Moduli (GPa) = 56.50947 239.35867 92.22083
#
# Poissons Ratio (x) = 0.35418 0.46725
# Poissons Ratio (y) = 0.08362 0.12246
# Poissons Ratio (z) = 0.28631 0.31783
#
# Static dielectric constant tensor:
#      x y z
#    x 2.198030 0.000000 0.000000 
#    y 0.000000 2.195190 0.000000 
#    z 0.000000 0.000000 2.157020 
# 
# From -- ./inp_files/9907.got.cif
#   From: 2010.05.17/outbox.cif.g08.bks.cpg/sg23_5_cif.got.tgz:9907.got - 2010.06.04 12:02:01.
