data_PCOD9329459
_publ_section_title
;
Structure prediction by ZEFSAII (Michael W. Deem and Ramdas Pophale) SiO2 
 PCOD9329459
Probable space group: I 2 2 2
;
_chemical_formula_sum "Si O2"
_cell_formula_units_Z 34
_cell_length_a 18.849777
_cell_length_b 10.082487
_cell_length_c 7.041272
_cell_angle_alpha 90.000000
_cell_angle_beta 90.000000
_cell_angle_gamma 90.000000
_cell_volume 1338.212273
_symmetry_space_group_name_H-M "I 2 2 2"
_symmetry_group_IT_number 23
_symmetry_cell_setting 'orthorhombic'
loop_
_space_group_symop_operation_xyz
x,y,z
-x,-y,z
x,-y,-z
-x,y,-z
1/2+x,1/2+y,1/2+z
1/2-x,1/2-y,1/2+z
1/2+x,1/2-y,1/2-z
1/2-x,1/2+y,1/2-z
loop_
_atom_site_type_symbol
_atom_site_label
_atom_site_fract_x
_atom_site_fract_y
_atom_site_fract_z
Si Si1 0.664068 0.290077 0.174184
Si Si2 0.768013 0.514401 0.270562
Si Si3 0.500000 0.000000 0.000000
Si Si4 0.387695 0.822324 0.781545
Si Si5 0.992569 0.848388 0.267598
O O1 0.698411 0.435098 0.202834
O O2 0.712061 0.169171 0.257168
O O3 0.585372 0.288964 0.262200
O O4 0.651393 0.256202 0.952306
O O5 0.768918 0.500000 0.500000
O O6 0.830547 0.419299 0.190830
O O7 0.447027 0.083655 0.126390
O O8 0.439167 0.721860 0.675516
O O9 0.000000 0.842880 0.500000
O O10 0.000000 0.000000 0.215890
#
# Coordination Sequence:
#
# PCOD9329459 Si02
#       5
#     8   8   2   8   8
#     4  10  19  33  51  77 112 150 177 221 287 324
#     4  10  21  35  50  81 118 149 182 222 278 350
#     4  12  12  32  54  76 112 130 174 250 280 296
#     4  10  17  32  54  79 112 139 180 243 278 320
#     4   9  17  29  50  81 107 130 180 235 278 318
#
# _framework density 25.407031
#
# number of rings (size 3 to 8) (size 9 to 14) (size 15 to 20)
#    0.000    2.118    7.059    0.000    3.294    0.000 
#    4.235    0.000    0.000    0.706    0.000    0.000 
#   14.118    0.000    0.000    0.000    0.000    0.000 
#
# Total GULP energy -94980.602466 kJ/mol
# GULP energy per Si atom -5587.094263 kJ/mol
# Density = 2.534920 g / cm^3
# Si number density = 25.407031 Si / 1000 Ang^3
#
#
#
# Elastic Constant Matrix: (Units=GPa)
#
#
# Indices 1 2 3 4 5 6 
#
# 1 137.8596 48.4078 40.4019 0.0000 0.0000 0.0000
# 2 48.4078 145.4839 27.6737 0.0000 0.0000 0.0000
# 3 40.4019 27.6737 91.1079 0.0000 0.0000 0.0000
# 4 0.0000 0.0000 0.0000 5.5300 0.0000 0.0000
# 5 0.0000 0.0000 0.0000 0.0000 11.5523 0.0000
# 6 0.0000 0.0000 0.0000 0.0000 0.0000 45.6197
#
#
#
# Elastic Compliance Matrix: (Units=1/GPa)
#
#
# Indices 1 2 3 4 5 6 
#
# 1 0.009057 -0.002387 -0.003291 0.000000 0.000000 0.000000
# 2 -0.002387 0.007924 -0.001348 0.000000 0.000000 0.000000
# 3 -0.003291 -0.001348 0.012845 0.000000 0.000000 0.000000
# 4 0.000000 0.000000 0.000000 0.180833 0.000000 0.000000
# 5 0.000000 0.000000 0.000000 0.000000 0.086563 0.000000
# 6 0.000000 0.000000 0.000000 0.000000 0.000000 0.021920
#
#
# Mechanical properties :
#
#
# Convention : Reuss Voigt Hill
#
# Bulk Modulus (GPa) = 63.40146 67.49092 65.44619
# Shear Modulus (GPa) = 14.77312 29.73826 22.25569
#
# Velocity S-wave (km/s) = 2.41396 3.42493 2.96288
# Velocity P-wave (km/s) = 5.72521 6.50090 6.12535
#
# Compressibility (1/GPa) = 0.01577251
#
# Stress axis : x y z
#
# Youngs Moduli (GPa) = 110.41735 126.19121 77.85176
#
# Poissons Ratio (x) = 0.30127 0.25621
# Poissons Ratio (y) = 0.26362 0.10497
# Poissons Ratio (z) = 0.36338 0.17015
#
# Static dielectric constant tensor:
#      x y z
#    x 2.025240 0.000000 0.000000 
#    y 0.000000 1.961190 0.000000 
#    z 0.000000 0.000000 2.117010 
# 
# From -- ./inp_files/10680.got.cif
#   From: 2010.05.17/outbox.cif.g08.bks.cpg/sg23_6_cif.got.tgz:10680.got - 2010.06.04 12:02:01.
