data_PCOD9329436
_publ_section_title
;
Structure prediction by ZEFSAII (Michael W. Deem and Ramdas Pophale) SiO2 
 PCOD9329436
Probable space group: I 2 2 2
;
_chemical_formula_sum "Si O2"
_cell_formula_units_Z 64
_cell_length_a 23.633143
_cell_length_b 16.155341
_cell_length_c 8.712854
_cell_angle_alpha 90.000000
_cell_angle_beta 90.000000
_cell_angle_gamma 90.000000
_cell_volume 3326.580588
_symmetry_space_group_name_H-M "I 2 2 2"
_symmetry_group_IT_number 23
_symmetry_cell_setting 'orthorhombic'
loop_
_space_group_symop_operation_xyz
x,y,z
-x,-y,z
x,-y,-z
-x,y,-z
1/2+x,1/2+y,1/2+z
1/2-x,1/2-y,1/2+z
1/2+x,1/2-y,1/2-z
1/2-x,1/2+y,1/2-z
loop_
_atom_site_type_symbol
_atom_site_label
_atom_site_fract_x
_atom_site_fract_y
_atom_site_fract_z
Si Si1 0.690835 0.164077 0.351260
Si Si2 0.437046 0.886780 0.397294
Si Si3 0.986151 0.206554 0.832571
Si Si4 0.371278 0.302982 0.837197
Si Si5 0.923632 0.548536 0.767565
Si Si6 0.271928 0.587814 0.087837
Si Si7 0.558080 0.783978 0.092688
Si Si8 0.798989 0.500744 0.681081
O O1 0.629702 0.131836 0.404507
O O2 0.672603 0.249697 0.268893
O O3 0.734030 0.155101 0.493890
O O4 0.712058 0.094033 0.232103
O O5 0.466138 0.801194 0.359874
O O6 0.446605 0.920055 0.568474
O O7 0.447071 0.954404 0.263206
O O8 0.929804 0.171271 0.749538
O O9 0.042728 0.219367 0.730142
O O10 0.000000 0.170281 0.000000
O O11 0.335170 0.379084 0.899305
O O12 0.392811 0.246164 0.978869
O O13 0.932608 0.623000 0.651096
O O14 0.856540 0.531602 0.762750
O O15 0.247554 0.564121 0.254847
O O16 0.267169 0.500000 0.000000
O O17 0.500000 0.783618 0.000000
O O18 0.806578 0.500000 0.500000
#
# Coordination Sequence:
#
# PCOD9329436 Si02
#       8
#     8   8   8   8   8   8   8   8
#     4   9  18  35  52  79 115 149 185 222 282 348
#     4   9  17  30  50  77 106 153 195 217 266 351
#     4  10  19  36  55  77 111 151 194 244 302 345
#     4  10  22  37  57  86 113 146 198 243 284 354
#     4  10  17  30  51  75 113 154 191 223 269 335
#     4  10  21  40  61  83 118 155 187 237 297 356
#     4  10  21  35  50  74 114 145 193 252 291 321
#     4  10  19  32  55  81 114 152 184 230 284 338
#
# _framework density 19.238975
#
# number of rings (size 3 to 8) (size 9 to 14) (size 15 to 20)
#    0.000    2.250    2.500    0.750    0.000    3.500 
#    0.000    6.875    0.000    3.375    0.000    0.875 
#    0.000    0.000    0.000    0.000    0.000    0.000 
#
# Total GULP energy -178228.811278 kJ/mol
# GULP energy per Si atom -5569.650352 kJ/mol
# Density = 1.919519 g / cm^3
# Si number density = 19.238975 Si / 1000 Ang^3
#
#
#
# Elastic Constant Matrix: (Units=GPa)
#
#
# Indices 1 2 3 4 5 6 
#
# 1 67.2806 14.1779 8.3540 0.0000 0.0000 0.0000
# 2 14.1779 15.8026 5.3521 0.0000 0.0000 0.0000
# 3 8.3540 5.3521 60.4066 0.0000 0.0000 0.0000
# 4 0.0000 0.0000 0.0000 9.2503 0.0000 0.0000
# 5 0.0000 0.0000 0.0000 0.0000 16.4069 0.0000
# 6 0.0000 0.0000 0.0000 0.0000 0.0000 30.6626
#
#
#
# Elastic Compliance Matrix: (Units=1/GPa)
#
#
# Indices 1 2 3 4 5 6 
#
# 1 0.018401 -0.016131 -0.001116 0.000000 0.000000 0.000000
# 2 -0.016131 0.079380 -0.004802 0.000000 0.000000 0.000000
# 3 -0.001116 -0.004802 0.017134 0.000000 0.000000 0.000000
# 4 0.000000 0.000000 0.000000 0.108105 0.000000 0.000000
# 5 0.000000 0.000000 0.000000 0.000000 0.060950 0.000000
# 6 0.000000 0.000000 0.000000 0.000000 0.000000 0.032613
#
#
# Mechanical properties :
#
#
# Convention : Reuss Voigt Hill
#
# Bulk Modulus (GPa) = 14.12089 22.13976 18.13032
# Shear Modulus (GPa) = 13.01110 18.97100 15.99105
#
# Velocity S-wave (km/s) = 2.60338 3.14358 2.88615
# Velocity P-wave (km/s) = 4.04876 4.97081 4.53328
#
# Compressibility (1/GPa) = 0.07081708
#
# Stress axis : x y z
#
# Youngs Moduli (GPa) = 54.34491 12.59761 58.36267
#
# Poissons Ratio (x) = 0.20322 0.06511
# Poissons Ratio (y) = 0.87666 0.28027
# Poissons Ratio (z) = 0.06062 0.06050
#
# Static dielectric constant tensor:
#      x y z
#    x 1.702650 0.000000 0.000000 
#    y 0.000000 1.673880 0.000000 
#    z 0.000000 0.000000 1.755160 
# 
# From -- ./inp_files/12206.got.cif
#   From: 2010.05.17/outbox.cif.g08.bks.cpg/sg23_7_cif.got.tgz:12206.got - 2010.06.04 12:02:01.
