data_PCOD9329671
_publ_section_title
;
Structure prediction by ZEFSAII (Michael W. Deem and Ramdas Pophale) SiO2 
 PCOD9329671
Probable space group: I 2 2 2
;
_chemical_formula_sum "Si O2"
_cell_formula_units_Z 52
_cell_length_a 14.679864
_cell_length_b 8.333938
_cell_length_c 18.883580
_cell_angle_alpha 90.000000
_cell_angle_beta 90.000000
_cell_angle_gamma 90.000000
_cell_volume 2310.237504
_symmetry_space_group_name_H-M "I 2 2 2"
_symmetry_group_IT_number 23
_symmetry_cell_setting 'orthorhombic'
loop_
_space_group_symop_operation_xyz
x,y,z
-x,-y,z
x,-y,-z
-x,y,-z
1/2+x,1/2+y,1/2+z
1/2-x,1/2-y,1/2+z
1/2+x,1/2-y,1/2-z
1/2-x,1/2+y,1/2-z
loop_
_atom_site_type_symbol
_atom_site_label
_atom_site_fract_x
_atom_site_fract_y
_atom_site_fract_z
Si Si1 0.631764 0.809218 0.172372
Si Si2 0.500000 0.500000 0.664403
Si Si3 0.634351 0.498613 0.081103
Si Si4 0.659301 0.838274 0.841629
Si Si5 0.147002 0.549822 0.923474
Si Si6 0.873595 0.248361 0.165906
Si Si7 0.651553 0.718011 0.690859
O O1 0.603012 0.656166 0.124932
O O2 0.598124 0.770997 0.251921
O O3 0.741507 0.815866 0.185792
O O4 0.618461 0.986899 0.138017
O O5 0.444093 0.635314 0.625139
O O6 0.583878 0.574092 0.708096
O O7 0.623364 0.323545 0.118825
O O8 0.743265 0.530688 0.076521
O O9 0.601292 0.500000 0.000000
O O10 0.770273 0.817242 0.845404
O O11 0.640322 0.833397 0.757555
O O12 0.116146 0.420567 0.867400
O O13 0.126086 0.717622 0.886721
O O14 0.113031 0.500000 0.000000
#
# Coordination Sequence:
#
# PCOD9329671 Si02
#       7
#     8   4   8   8   8   8   8
#     4  10  18  35  59  81 110 151 188 233 286 345
#     4  12  22  34  53  80 117 142 186 258 268 322
#     4   9  19  31  53  88 116 141 183 237 286 330
#     4  10  18  35  59  81 110 151 188 233 286 345
#     4   9  18  36  53  70 108 152 193 237 273 325
#     4  10  20  34  54  83 106 143 196 236 287 329
#     4  10  20  34  54  83 106 143 196 236 287 329
#
# _framework density 22.508507000000002
#
# number of rings (size 3 to 8) (size 9 to 14) (size 15 to 20)
#    0.000    2.154    3.077    0.923    4.308    1.231 
#    0.000    3.077    0.000    0.000    0.000    8.615 
#    0.000    9.846    0.000    0.000    0.000    0.000 
#
# Total GULP energy -144758.261942 kJ/mol
# GULP energy per Si atom -5567.625459 kJ/mol
# Density = 2.245728 g / cm^3
# Si number density = 22.508507 Si / 1000 Ang^3
#
#
#
# Elastic Constant Matrix: (Units=GPa)
#
#
# Indices 1 2 3 4 5 6 
#
# 1 76.7560 10.1842 1.2070 0.0000 0.0000 0.0000
# 2 10.1842 127.3127 48.3751 0.0000 0.0000 0.0000
# 3 1.2070 48.3751 130.7368 0.0000 0.0000 0.0000
# 4 0.0000 0.0000 0.0000 13.7950 0.0000 0.0000
# 5 0.0000 0.0000 0.0000 0.0000 -44.3913 0.0000
# 6 0.0000 0.0000 0.0000 0.0000 0.0000 13.4119
#
#
#
# Elastic Compliance Matrix: (Units=1/GPa)
#
#
# Indices 1 2 3 4 5 6 
#
# 1 0.013179 -0.001173 0.000312 0.000000 0.000000 0.000000
# 2 -0.001173 0.009244 -0.003410 0.000000 0.000000 0.000000
# 3 0.000312 -0.003410 0.008908 0.000000 0.000000 0.000000
# 4 0.000000 0.000000 0.000000 0.072490 0.000000 0.000000
# 5 0.000000 0.000000 0.000000 0.000000 -0.022527 0.000000
# 6 0.000000 0.000000 0.000000 0.000000 0.000000 0.074560
#
#
# Mechanical properties :
#
#
# Convention : Reuss Voigt Hill
#
# Bulk Modulus (GPa) = 43.87831 50.48202 47.18017
# Shear Modulus (GPa) = 29.07119 14.89908 21.98514
#
# Velocity S-wave (km/s) = 3.59773 2.57559 3.12869
# Velocity P-wave (km/s) = 6.06586 5.59657 5.83593
#
# Compressibility (1/GPa) = 0.02279030
#
# Stress axis : x y z
#
# Youngs Moduli (GPa) = 75.87826 108.17745 112.26233
#
# Poissons Ratio (x) = 0.12688 -0.03506
# Poissons Ratio (y) = 0.08900 0.38278
# Poissons Ratio (z) = -0.02370 0.36885
#
# Static dielectric constant tensor:
#      x y z
#    x 1.854660 0.000000 0.000000 
#    y 0.000000 2.152950 0.000000 
#    z 0.000000 0.000000 1.797110 
# 
# From -- ./inp_files/25049.got.cif
#   From: 2010.05.17/outbox.cif.g08.bks.cpg/sg23_13_cif.got.tgz:25049.got - 2010.06.04 12:02:01.
