data_PCOD9329538
_publ_section_title
;
Structure prediction by ZEFSAII (Michael W. Deem and Ramdas Pophale) SiO2 
 PCOD9329538
Probable space group: I 2 2 2
;
_chemical_formula_sum "Si O2"
_cell_formula_units_Z 48
_cell_length_a 17.912462
_cell_length_b 14.119492
_cell_length_c 10.701203
_cell_angle_alpha 90.000000
_cell_angle_beta 90.000000
_cell_angle_gamma 90.000000
_cell_volume 2706.493300
_symmetry_space_group_name_H-M "I 2 2 2"
_symmetry_group_IT_number 23
_symmetry_cell_setting 'orthorhombic'
loop_
_space_group_symop_operation_xyz
x,y,z
-x,-y,z
x,-y,-z
-x,y,-z
1/2+x,1/2+y,1/2+z
1/2-x,1/2-y,1/2+z
1/2+x,1/2-y,1/2-z
1/2-x,1/2+y,1/2-z
loop_
_atom_site_type_symbol
_atom_site_label
_atom_site_fract_x
_atom_site_fract_y
_atom_site_fract_z
Si Si1 0.279642 0.841989 0.279482
Si Si2 0.760158 0.396344 0.515821
Si Si3 0.775455 0.365410 0.245956
Si Si4 0.352365 0.216755 0.480795
Si Si5 0.500000 0.662298 0.500000
Si Si6 0.343365 0.518881 0.852374
Si Si7 0.000000 0.000000 0.207378
O O1 0.271586 0.731397 0.251722
O O2 0.333771 0.846795 0.397960
O O3 0.198628 0.882251 0.321992
O O4 0.301007 0.892344 0.149448
O O5 0.722128 0.500000 0.500000
O O6 0.804336 0.383891 0.386280
O O7 0.704446 0.307219 0.521114
O O8 0.837065 0.346058 0.141347
O O9 0.716636 0.444640 0.203471
O O10 0.430364 0.268590 0.485865
O O11 0.507355 0.591998 0.618445
O O12 0.424086 0.510509 0.787900
O O13 0.349705 0.500000 0.000000
#
# Coordination Sequence:
#
# PCOD9329538 Si02
#       7
#     8   8   8   8   4   8   4
#     4  10  20  34  55  82 119 155 198 241 286 349
#     4  10  18  30  56  88 109 143 191 246 294 336
#     4  10  20  34  55  82 119 155 198 241 286 349
#     4  10  21  37  54  82 116 155 198 239 292 348
#     4  11  24  38  62  81 120 164 200 245 294 365
#     4  12  22  37  58  89 127 159 188 242 308 363
#     4  11  23  36  58  92 125 151 192 244 314 368
#
# _framework density 17.735126000000001
#
# number of rings (size 3 to 8) (size 9 to 14) (size 15 to 20)
#    0.000    1.500    3.333    4.250    2.333    0.000 
#    0.000    0.000    0.000    2.000    0.000    1.167 
#    0.000    0.000    0.000    0.000    0.000    0.000 
#
# Total GULP energy -133700.698642 kJ/mol
# GULP energy per Si atom -5570.862443 kJ/mol
# Density = 1.769476 g / cm^3
# Si number density = 17.735126 Si / 1000 Ang^3
#
#
#
# Elastic Constant Matrix: (Units=GPa)
#
#
# Indices 1 2 3 4 5 6 
#
# 1 77.9352 20.2997 46.3794 0.0000 0.0000 0.0000
# 2 20.2997 50.5454 20.6006 0.0000 0.0000 0.0000
# 3 46.3794 20.6006 174.5247 0.0000 0.0000 0.0000
# 4 0.0000 0.0000 0.0000 25.2319 0.0000 0.0000
# 5 0.0000 0.0000 0.0000 0.0000 304.5587 0.0000
# 6 0.0000 0.0000 0.0000 0.0000 0.0000 31.1995
#
#
#
# Elastic Compliance Matrix: (Units=1/GPa)
#
#
# Indices 1 2 3 4 5 6 
#
# 1 0.016382 -0.005048 -0.003758 0.000000 0.000000 0.000000
# 2 -0.005048 0.022339 -0.001295 0.000000 0.000000 0.000000
# 3 -0.003758 -0.001295 0.006881 0.000000 0.000000 0.000000
# 4 0.000000 0.000000 0.000000 0.039632 0.000000 0.000000
# 5 0.000000 0.000000 0.000000 0.000000 0.003283 0.000000
# 6 0.000000 0.000000 0.000000 0.000000 0.000000 0.032052
#
#
# Mechanical properties :
#
#
# Convention : Reuss Voigt Hill
#
# Bulk Modulus (GPa) = 39.36838 53.06274 46.21556
# Shear Modulus (GPa) = 33.50318 86.57972 60.04145
#
# Velocity S-wave (km/s) = 4.35108 6.99458 5.82478
# Velocity P-wave (km/s) = 6.89120 9.75791 8.44705
#
# Compressibility (1/GPa) = 0.02540109
#
# Stress axis : x y z
#
# Youngs Moduli (GPa) = 61.04195 44.76383 145.32017
#
# Poissons Ratio (x) = 0.22596 0.54607
# Poissons Ratio (y) = 0.30813 0.18826
# Poissons Ratio (z) = 0.22938 0.05799
#
# Static dielectric constant tensor:
#      x y z
#    x 1.559390 0.000000 0.000000 
#    y 0.000000 1.549080 0.000000 
#    z 0.000000 0.000000 1.687760 
# 
# From -- ./inp_files/17483.got.cif
#   From: 2010.05.17/outbox.cif.g08.bks.cpg/sg23_9_cif.got.tgz:17483.got - 2010.06.04 12:02:01.
