data_PCOD9329184
_publ_section_title
;
Structure prediction by ZEFSAII (Michael W. Deem and Ramdas Pophale) SiO2 
 PCOD9329184
Probable space group: F 2 2 2
;
_chemical_formula_sum "Si O2"
_cell_formula_units_Z 56
_cell_length_a 8.331801
_cell_length_b 16.002384
_cell_length_c 16.002384
_cell_angle_alpha 90.000000
_cell_angle_beta 90.000000
_cell_angle_gamma 90.000000
_cell_volume 2133.576720
_symmetry_space_group_name_H-M "F 2 2 2"
_symmetry_group_IT_number 22
_symmetry_cell_setting 'orthorhombic'
loop_
_space_group_symop_operation_xyz
x,y,z
-x,-y,z
x,-y,-z
-x,y,-z
x,1/2+y,1/2+z
-x,1/2-y,1/2+z
x,1/2-y,1/2-z
-x,1/2+y,1/2-z
1/2+x,y,1/2+z
1/2-x,-y,1/2+z
1/2+x,-y,1/2-z
1/2-x,y,1/2-z
1/2+x,1/2+y,z
1/2-x,1/2-y,z
1/2+x,1/2-y,-z
1/2-x,1/2+y,-z
loop_
_atom_site_type_symbol
_atom_site_label
_atom_site_fract_x
_atom_site_fract_y
_atom_site_fract_z
Si Si1 0.745291 0.611034 0.388966
Si Si2 0.500000 0.000000 0.285989
Si Si3 0.000000 0.714011 0.500000
Si Si4 0.250000 0.250000 0.883030
Si Si5 0.500000 0.500000 0.500000
Si Si6 0.250000 0.383030 0.750000
Si Si7 0.750000 0.750000 0.250000
O O1 0.866172 0.546983 0.340943
O O2 0.615759 0.558291 0.441709
O O3 0.686960 0.680609 0.319391
O O4 0.866172 0.659057 0.453017
O O5 0.402498 0.937114 0.229062
O O6 0.097502 0.770938 0.437114
O O7 0.302030 0.325747 0.825747
#
# Coordination Sequence:
#
# PCOD9329184 Si02
#       7
#    16   8   8   8   4   8   4
#     4  12  29  58  86 128 174 233 298 371 444 542
#     4  12  26  54  86 124 170 216 296 362 437 525
#     4  12  26  54  86 124 170 216 296 362 437 525
#     4  11  27  54  85 119 168 226 282 353 443 524
#     4  12  32  62  92 124 188 242 292 372 472 498
#     4  11  27  54  85 119 168 226 282 353 443 524
#     4  12  32  48  88 130 172 220 308 354 432 536
#
# _framework density 26.247005000000001
#
# number of rings (size 3 to 8) (size 9 to 14) (size 15 to 20)
#    0.000    0.286    2.857    3.429    4.000    9.143 
#    5.143    0.000    0.000    0.000    0.000    0.000 
#    0.000    0.000    0.000    0.000    0.000    0.000 
#
# Total GULP energy -78366.749410 kJ/mol
# GULP energy per Si atom -5597.624958 kJ/mol
# Density = 2.618727 g / cm^3
# Si number density = 26.247005 Si / 1000 Ang^3
#
#
#
# Elastic Constant Matrix: (Units=GPa)
#
#
# Indices 1 2 3 4 5 6 
#
# 1 139.9736 66.9160 66.9160 0.0000 0.0000 0.0000
# 2 66.9160 126.4894 54.8577 0.0000 0.0000 0.0000
# 3 66.9160 54.8577 126.4894 0.0000 0.0000 0.0000
# 4 0.0000 0.0000 0.0000 30.0961 0.0000 0.0000
# 5 0.0000 0.0000 0.0000 0.0000 66.1538 0.0000
# 6 0.0000 0.0000 0.0000 0.0000 0.0000 66.1538
#
#
#
# Elastic Compliance Matrix: (Units=1/GPa)
#
#
# Indices 1 2 3 4 5 6 
#
# 1 0.011039 -0.004073 -0.004073 0.000000 0.000000 0.000000
# 2 -0.004073 0.011240 -0.002720 0.000000 0.000000 0.000000
# 3 -0.004073 -0.002720 0.011240 0.000000 0.000000 0.000000
# 4 0.000000 0.000000 0.000000 0.033227 0.000000 0.000000
# 5 0.000000 0.000000 0.000000 0.000000 0.015116 0.000000
# 6 0.000000 0.000000 0.000000 0.000000 0.000000 0.015116
#
#
# Mechanical properties :
#
#
# Convention : Reuss Voigt Hill
#
# Bulk Modulus (GPa) = 84.84369 85.59245 85.21807
# Shear Modulus (GPa) = 40.76961 46.09828 43.43394
#
# Velocity S-wave (km/s) = 3.94547 4.19540 4.07236
# Velocity P-wave (km/s) = 7.29047 7.49331 7.39259
#
# Compressibility (1/GPa) = 0.01178638
#
# Stress axis : x y z
#
# Youngs Moduli (GPa) = 90.59035 88.96574 88.96575
#
# Poissons Ratio (x) = 0.36238 0.36238
# Poissons Ratio (y) = 0.36899 0.24199
# Poissons Ratio (z) = 0.36899 0.24199
#
# Static dielectric constant tensor:
#      x y z
#    x 1.951660 0.000000 0.000000 
#    y 0.000000 2.042510 0.000000 
#    z 0.000000 0.000000 2.042510 
# 
# From -- ./inp_files/11017.got.cif
#   From: 2010.05.17/outbox.cif.g08.bks.cpg/sg22_6_cif.got.tgz:11017.got - 2010.06.03 23:40:54.
