data_PCOD9329977
_publ_section_title
;
Structure prediction by ZEFSAII (Michael W. Deem and Ramdas Pophale) SiO2 
 PCOD9329977
Probable space group: I 2 2 2
;
_chemical_formula_sum "Si O2"
_cell_formula_units_Z 50
_cell_length_a 21.041451
_cell_length_b 5.197906
_cell_length_c 24.459767
_cell_angle_alpha 90.000000
_cell_angle_beta 90.000000
_cell_angle_gamma 90.000000
_cell_volume 2675.201025
_symmetry_space_group_name_H-M "I 2 2 2"
_symmetry_group_IT_number 23
_symmetry_cell_setting 'orthorhombic'
loop_
_space_group_symop_operation_xyz
x,y,z
-x,-y,z
x,-y,-z
-x,y,-z
1/2+x,1/2+y,1/2+z
1/2-x,1/2-y,1/2+z
1/2+x,1/2-y,1/2-z
1/2-x,1/2+y,1/2-z
loop_
_atom_site_type_symbol
_atom_site_label
_atom_site_fract_x
_atom_site_fract_y
_atom_site_fract_z
Si Si1 0.098409 0.377267 0.592452
Si Si2 0.923090 0.997288 0.220041
Si Si3 0.423520 0.999453 0.652379
Si Si4 0.742492 0.997892 0.934856
Si Si5 0.071937 0.109232 0.342723
Si Si6 0.500000 0.000000 0.000000
Si Si7 0.818824 0.499545 0.933841
O O1 0.168339 0.471457 0.576755
O O2 0.105691 0.094436 0.617702
O O3 0.048711 0.359323 0.541779
O O4 0.074074 0.599690 0.634573
O O5 0.904849 0.769711 0.179351
O O6 0.905532 0.272008 0.194703
O O7 0.902125 0.927397 0.281401
O O8 0.000000 0.000000 0.222332
O O9 0.500000 0.000000 0.644915
O O10 0.385825 0.966892 0.596190
O O11 0.773038 0.732072 0.916126
O O12 0.784564 0.237523 0.915593
O O13 0.748499 0.000000 0.000000
O O14 0.000000 0.000000 0.342744
O O15 0.825534 0.500000 0.000000
#
# Coordination Sequence:
#
# PCOD9329977 Si02
#       7
#     8   8   8   8   8   2   8
#     4  12  23  37  57  82 120 145 187 235 286 319
#     4   9  19  34  56  82 113 144 185 224 282 336
#     4  10  19  35  60  88 111 140 177 237 281 320
#     4  10  21  38  55  77 110 158 188 216 262 349
#     4  11  21  36  55  83 111 149 185 235 284 330
#     4  12  24  38  56  94 116 150 178 254 282 322
#     4  10  21  37  59  83 112 147 187 216 274 343
#
# _framework density 18.690186000000001
#
# number of rings (size 3 to 8) (size 9 to 14) (size 15 to 20)
#    0.000    1.600    2.400    2.880    0.000    4.160 
#    0.000    0.000    0.000   24.960    0.000    0.000 
#    0.000    0.000    0.000    0.000    0.000    0.000 
#
# Total GULP energy -139414.152898 kJ/mol
# GULP energy per Si atom -5576.566116 kJ/mol
# Density = 1.864765 g / cm^3
# Si number density = 18.690186 Si / 1000 Ang^3
#
#
#
# Elastic Constant Matrix: (Units=GPa)
#
#
# Indices 1 2 3 4 5 6 
#
# 1 70.5999 16.9962 31.2885 0.0000 0.0000 0.0000
# 2 16.9962 91.4077 21.1320 0.0000 0.0000 0.0000
# 3 31.2885 21.1320 66.7371 0.0000 0.0000 0.0000
# 4 0.0000 0.0000 0.0000 9.6169 0.0000 0.0000
# 5 0.0000 0.0000 0.0000 0.0000 10.2365 0.0000
# 6 0.0000 0.0000 0.0000 0.0000 0.0000 18.6077
#
#
#
# Elastic Compliance Matrix: (Units=1/GPa)
#
#
# Indices 1 2 3 4 5 6 
#
# 1 0.018071 -0.001512 -0.007993 0.000000 0.000000 0.000000
# 2 -0.001512 0.011931 -0.003069 0.000000 0.000000 0.000000
# 3 -0.007993 -0.003069 0.019703 0.000000 0.000000 0.000000
# 4 0.000000 0.000000 0.000000 0.103984 0.000000 0.000000
# 5 0.000000 0.000000 0.000000 0.000000 0.097689 0.000000
# 6 0.000000 0.000000 0.000000 0.000000 0.000000 0.053741
#
#
# Mechanical properties :
#
#
# Convention : Reuss Voigt Hill
#
# Bulk Modulus (GPa) = 40.72288 40.84202 40.78245
# Shear Modulus (GPa) = 14.77307 18.31408 16.54357
#
# Velocity S-wave (km/s) = 2.81449 3.13369 2.97837
# Velocity P-wave (km/s) = 5.69188 5.91548 5.80476
#
# Compressibility (1/GPa) = 0.02455622
#
# Stress axis : x y z
#
# Youngs Moduli (GPa) = 55.33764 83.81786 50.75246
#
# Poissons Ratio (x) = 0.12674 0.40569
# Poissons Ratio (y) = 0.08368 0.15575
# Poissons Ratio (z) = 0.44234 0.25722
#
# Static dielectric constant tensor:
#      x y z
#    x 1.661620 0.000000 0.000000 
#    y 0.000000 1.667470 0.000000 
#    z 0.000000 0.000000 1.651120 
# 
# From -- ./inp_files/27292.got.cif
#   From: 2010.05.17/outbox.cif.g08.bks.cpg/sg23_14_cif.got.tgz:27292.got - 2010.06.04 12:02:01.
