data_PCOD9329747
_publ_section_title
;
Structure prediction by ZEFSAII (Michael W. Deem and Ramdas Pophale) SiO2 
 PCOD9329747
Probable space group: I 2 2 2
;
_chemical_formula_sum "Si O2"
_cell_formula_units_Z 48
_cell_length_a 7.401814
_cell_length_b 7.953332
_cell_length_c 31.795584
_cell_angle_alpha 90.000000
_cell_angle_beta 90.000000
_cell_angle_gamma 90.000000
_cell_volume 1871.776910
_symmetry_space_group_name_H-M "I 2 2 2"
_symmetry_group_IT_number 23
_symmetry_cell_setting 'orthorhombic'
loop_
_space_group_symop_operation_xyz
x,y,z
-x,-y,z
x,-y,-z
-x,y,-z
1/2+x,1/2+y,1/2+z
1/2-x,1/2-y,1/2+z
1/2+x,1/2-y,1/2-z
1/2-x,1/2+y,1/2-z
loop_
_atom_site_type_symbol
_atom_site_label
_atom_site_fract_x
_atom_site_fract_y
_atom_site_fract_z
Si Si1 0.618363 0.167322 0.671094
Si Si2 0.247894 0.702728 0.319502
Si Si3 0.708079 0.799487 0.500872
Si Si4 0.693322 0.590095 0.261770
Si Si5 0.728541 0.686506 0.590014
Si Si6 0.307499 0.712381 0.589183
O O1 0.461085 0.310284 0.669282
O O2 0.705381 0.227844 0.714528
O O3 0.746946 0.189313 0.631290
O O4 0.500000 0.000000 0.668557
O O5 0.198439 0.535061 0.293373
O O6 0.236129 0.854100 0.285890
O O7 0.173206 0.737524 0.366331
O O8 0.500000 0.731144 0.500000
O O9 0.799210 0.734327 0.543637
O O10 0.782088 0.752551 0.455140
O O11 0.702293 0.000000 0.500000
O O12 0.500000 0.500000 0.257985
O O13 0.522623 0.758604 0.586982
O O14 0.714536 0.485960 0.594495
#
# Coordination Sequence:
#
# PCOD9329747 Si02
#       6
#     8   8   8   8   8   8
#     4  10  19  29  48  70  95 131 170 207 251 304
#     4  10  19  32  48  67  94 130 169 210 256 304
#     4   9  17  24  37  61  90 125 164 200 238 291
#     4  10  20  35  50  73 100 133 175 215 260 308
#     4   9  16  28  41  59  88 127 164 200 242 296
#     4   9  16  26  41  59  89 127 164 195 240 299
#
# _framework density 25.644082000000001
#
# number of rings (size 3 to 8) (size 9 to 14) (size 15 to 20)
#    0.000    2.500    1.667    1.500    7.000    2.000 
#    0.000    0.000    0.000    0.000    0.000    0.000 
#    0.000    0.667    0.000    1.833    0.000    0.333 
#
# Total GULP energy -133699.857202 kJ/mol
# GULP energy per Si atom -5570.827383 kJ/mol
# Density = 2.558572 g / cm^3
# Si number density = 25.644082 Si / 1000 Ang^3
#
#
#
# Elastic Constant Matrix: (Units=GPa)
#
#
# Indices 1 2 3 4 5 6 
#
# 1 71.4238 10.0685 28.4271 0.0000 0.0000 0.0000
# 2 10.0685 114.7526 66.6021 0.0000 0.0000 0.0000
# 3 28.4271 66.6021 326.8193 0.0000 0.0000 0.0000
# 4 0.0000 0.0000 0.0000 41.1164 0.0000 0.0000
# 5 0.0000 0.0000 0.0000 0.0000 3.2069 0.0000
# 6 0.0000 0.0000 0.0000 0.0000 0.0000 -0.1696
#
#
#
# Elastic Compliance Matrix: (Units=1/GPa)
#
#
# Indices 1 2 3 4 5 6 
#
# 1 0.014541 -0.000614 -0.001140 0.000000 0.000000 0.000000
# 2 -0.000614 0.009909 -0.001966 0.000000 0.000000 0.000000
# 3 -0.001140 -0.001966 0.003560 0.000000 0.000000 0.000000
# 4 0.000000 0.000000 0.000000 0.024321 0.000000 0.000000
# 5 0.000000 0.000000 0.000000 0.000000 0.311825 0.000000
# 6 0.000000 0.000000 0.000000 0.000000 0.000000 -5.896725
#
#
# Mechanical properties :
#
#
# Convention : Reuss Voigt Hill
#
# Bulk Modulus (GPa) = 48.61441 80.35457 64.48449
# Shear Modulus (GPa) = -0.90608 36.02395 17.55893
#
# Velocity S-wave (km/s) = -0.59506 3.75209 2.61955
# Velocity P-wave (km/s) = 4.30423 7.08332 5.86088
#
# Compressibility (1/GPa) = 0.02057003
#
# Stress axis : x y z
#
# Youngs Moduli (GPa) = 68.77053 100.91472 280.93360
#
# Poissons Ratio (x) = 0.06201 0.32015
# Poissons Ratio (y) = 0.04226 0.55231
# Poissons Ratio (z) = 0.07837 0.19840
#
# Static dielectric constant tensor:
#      x y z
#    x 2.223340 0.000000 0.000000 
#    y 0.000000 2.068710 0.000000 
#    z 0.000000 0.000000 2.252890 
# 
# From -- ./inp_files/8765.got.cif
#   From: 2010.05.17/outbox.cif.g08.bks.cpg/sg23_5_cif.got.tgz:8765.got - 2010.06.04 12:02:01.
