data_PCOD9329341
_publ_section_title
;
Structure prediction by ZEFSAII (Michael W. Deem and Ramdas Pophale) SiO2 
 PCOD9329341
Probable space group: I 2 2 2
;
_chemical_formula_sum "Si O2"
_cell_formula_units_Z 34
_cell_length_a 17.072562
_cell_length_b 5.106974
_cell_length_c 20.400579
_cell_angle_alpha 90.000000
_cell_angle_beta 90.000000
_cell_angle_gamma 90.000000
_cell_volume 1778.708740
_symmetry_space_group_name_H-M "I 2 2 2"
_symmetry_group_IT_number 23
_symmetry_cell_setting 'orthorhombic'
loop_
_space_group_symop_operation_xyz
x,y,z
-x,-y,z
x,-y,-z
-x,y,-z
1/2+x,1/2+y,1/2+z
1/2-x,1/2-y,1/2+z
1/2+x,1/2-y,1/2-z
1/2-x,1/2+y,1/2-z
loop_
_atom_site_type_symbol
_atom_site_label
_atom_site_fract_x
_atom_site_fract_y
_atom_site_fract_z
Si Si1 0.629567 0.000000 0.500000
Si Si2 0.262789 0.500000 0.500000
Si Si3 0.870980 0.368637 0.398777
Si Si4 0.084899 0.893485 0.675037
Si Si5 0.500000 0.000000 0.390896
Si Si6 0.000000 0.000000 0.198156
Si Si7 0.000000 0.500000 0.500000
O O1 0.683464 0.750147 0.487514
O O2 0.573260 0.944877 0.561683
O O3 0.205935 0.553546 0.438605
O O4 0.858310 0.104226 0.357946
O O5 0.940293 0.342449 0.453180
O O6 0.897501 0.604150 0.350525
O O7 0.071712 0.921901 0.752908
O O8 0.000000 0.000000 0.651436
O O9 0.482470 0.250203 0.346014
#
# Coordination Sequence:
#
# PCOD9329341 Si02
#       7
#     4   4   8   8   4   4   2
#     4  11  24  44  62  89 112 138 198 253 306 352
#     4  11  24  38  58  85 126 164 184 235 294 354
#     4  11  20  32  53  82 121 166 190 229 274 323
#     4  10  19  33  53  85 120 150 192 241 255 331
#     4  11  22  41  72  87 102 141 192 264 310 349
#     4  10  20  35  64  97 110 142 192 254 296 326
#     4  10  16  28  44  78 104 148 212 218 244 322
#
# _framework density 19.114989000000001
#
# number of rings (size 3 to 8) (size 9 to 14) (size 15 to 20)
#    0.706    0.706    2.353    4.235    0.000    5.647 
#    0.000    0.000    0.000   28.235    0.000    0.000 
#    0.000    0.000    0.000    0.000    0.000    0.000 
#
# Total GULP energy -94823.784086 kJ/mol
# GULP energy per Si atom -5577.869652 kJ/mol
# Density = 1.907148 g / cm^3
# Si number density = 19.114989 Si / 1000 Ang^3
#
#
#
# Elastic Constant Matrix: (Units=GPa)
#
#
# Indices 1 2 3 4 5 6 
#
# 1 74.9538 3.1773 20.2318 0.0000 0.0000 0.0000
# 2 3.1773 75.0600 22.3928 0.0000 0.0000 0.0000
# 3 20.2318 22.3928 105.1127 0.0000 0.0000 0.0000
# 4 0.0000 0.0000 0.0000 25.9803 0.0000 0.0000
# 5 0.0000 0.0000 0.0000 0.0000 2.5998 0.0000
# 6 0.0000 0.0000 0.0000 0.0000 0.0000 31.2835
#
#
#
# Elastic Compliance Matrix: (Units=1/GPa)
#
#
# Indices 1 2 3 4 5 6 
#
# 1 0.014076 0.000227 -0.002758 0.000000 0.000000 0.000000
# 2 0.000227 0.014231 -0.003075 0.000000 0.000000 0.000000
# 3 -0.002758 -0.003075 0.010700 0.000000 0.000000 0.000000
# 4 0.000000 0.000000 0.000000 0.038491 0.000000 0.000000
# 5 0.000000 0.000000 0.000000 0.000000 0.384647 0.000000
# 6 0.000000 0.000000 0.000000 0.000000 0.000000 0.031966
#
#
# Mechanical properties :
#
#
# Convention : Reuss Voigt Hill
#
# Bulk Modulus (GPa) = 35.97881 38.52558 37.25219
# Shear Modulus (GPa) = 9.71653 25.92770 17.82211
#
# Velocity S-wave (km/s) = 2.25704 3.68694 3.05678
# Velocity P-wave (km/s) = 5.06512 6.19056 5.65591
#
# Compressibility (1/GPa) = 0.02779414
#
# Stress axis : x y z
#
# Youngs Moduli (GPa) = 71.04139 70.27146 93.46203
#
# Poissons Ratio (x) = -0.01594 0.25774
# Poissons Ratio (y) = -0.01612 0.28742
# Poissons Ratio (z) = 0.19591 0.21610
#
# Static dielectric constant tensor:
#      x y z
#    x 1.678680 0.000000 0.000000 
#    y 0.000000 1.669740 0.000000 
#    z 0.000000 0.000000 1.679190 
# 
# From -- ./inp_files/3093.got.cif
#   From: 2010.05.17/outbox.cif.g08.bks.cpg/sg23_2_cif.got.tgz:3093.got - 2010.06.04 12:02:01.
