data_PCOD9329074
_publ_section_title
;
Structure prediction by ZEFSAII (Michael W. Deem and Ramdas Pophale) SiO2 
 PCOD9329074
Probable space group: F 2 2 2
;
_chemical_formula_sum "Si O2"
_cell_formula_units_Z 64
_cell_length_a 9.595411
_cell_length_b 14.718044
_cell_length_c 17.762225
_cell_angle_alpha 90.000000
_cell_angle_beta 90.000000
_cell_angle_gamma 90.000000
_cell_volume 2508.482327
_symmetry_space_group_name_H-M "F 2 2 2"
_symmetry_group_IT_number 22
_symmetry_cell_setting 'orthorhombic'
loop_
_space_group_symop_operation_xyz
x,y,z
-x,-y,z
x,-y,-z
-x,y,-z
x,1/2+y,1/2+z
-x,1/2-y,1/2+z
x,1/2-y,1/2-z
-x,1/2+y,1/2-z
1/2+x,y,1/2+z
1/2-x,-y,1/2+z
1/2+x,-y,1/2-z
1/2-x,y,1/2-z
1/2+x,1/2+y,z
1/2-x,1/2-y,z
1/2+x,1/2-y,-z
1/2-x,1/2+y,-z
loop_
_atom_site_type_symbol
_atom_site_label
_atom_site_fract_x
_atom_site_fract_y
_atom_site_fract_z
Si Si1 0.348882 0.046731 0.576733
Si Si2 0.607257 0.151058 0.713877
Si Si3 0.527416 0.762724 0.581283
Si Si4 0.405230 0.080082 0.830193
O O1 0.369198 0.154033 0.563998
O O2 0.246868 0.043762 0.647876
O O3 0.500000 0.000000 0.589374
O O4 0.293770 0.000000 0.500000
O O5 0.599106 0.250000 0.750000
O O6 0.750000 0.113093 0.750000
O O7 0.593690 0.180543 0.626498
O O8 0.473417 0.098497 0.747698
O O9 0.500000 0.721853 0.500000
O O10 0.578353 0.679356 0.631925
O O11 0.500000 0.000000 0.863721
#
# Coordination Sequence:
#
# PCOD9329074 Si02
#       4
#    16  16  16  16
#     4  11  25  48  70 114 162 207 265 322 406 476
#     4   9  22  48  76 116 158 211 268 325 405 482
#     4  11  24  48  80 114 159 213 262 332 404 480
#     4  11  27  47  77 120 155 208 269 335 392 486
#
# _framework density 25.513435999999999
#
# number of rings (size 3 to 8) (size 9 to 14) (size 15 to 20)
#    0.000    1.500    2.500    0.750    7.000    2.000 
#   13.500    3.750    0.000    0.000    0.000    0.000 
#    0.000    0.000    0.000    0.000    0.000    0.000 
#
# Total GULP energy -89177.752173 kJ/mol
# GULP energy per Si atom -5573.609511 kJ/mol
# Density = 2.545537 g / cm^3
# Si number density = 25.513436 Si / 1000 Ang^3
#
#
#
# Elastic Constant Matrix: (Units=GPa)
#
#
# Indices 1 2 3 4 5 6 
#
# 1 151.1627 9.8348 71.5553 0.0000 0.0000 0.0000
# 2 9.8348 168.2817 26.3827 0.0000 0.0000 0.0000
# 3 71.5553 26.3827 148.9708 0.0000 0.0000 0.0000
# 4 0.0000 0.0000 0.0000 43.7206 0.0000 0.0000
# 5 0.0000 0.0000 0.0000 0.0000 26.1304 0.0000
# 6 0.0000 0.0000 0.0000 0.0000 0.0000 19.7089
#
#
#
# Elastic Compliance Matrix: (Units=1/GPa)
#
#
# Indices 1 2 3 4 5 6 
#
# 1 0.008566 0.000149 -0.004141 0.000000 0.000000 0.000000
# 2 0.000149 0.006115 -0.001154 0.000000 0.000000 0.000000
# 3 -0.004141 -0.001154 0.008906 0.000000 0.000000 0.000000
# 4 0.000000 0.000000 0.000000 0.022873 0.000000 0.000000
# 5 0.000000 0.000000 0.000000 0.000000 0.038270 0.000000
# 6 0.000000 0.000000 0.000000 0.000000 0.000000 0.050739
#
#
# Mechanical properties :
#
#
# Convention : Reuss Voigt Hill
#
# Bulk Modulus (GPa) = 75.22365 75.99565 75.60965
# Shear Modulus (GPa) = 33.29086 41.95480 37.62283
#
# Velocity S-wave (km/s) = 3.61617 4.05954 3.84425
# Velocity P-wave (km/s) = 6.85445 7.19892 7.02879
#
# Compressibility (1/GPa) = 0.01329369
#
# Stress axis : x y z
#
# Youngs Moduli (GPa) = 116.74327 163.54038 112.28301
#
# Poissons Ratio (x) = -0.02430 0.46493
# Poissons Ratio (y) = -0.01734 0.12961
# Poissons Ratio (z) = 0.48340 0.18877
#
# Static dielectric constant tensor:
#      x y z
#    x 2.130670 0.000000 0.000000 
#    y 0.000000 1.967550 0.000000 
#    z 0.000000 0.000000 2.110880 
# 
# From -- ./inp_files/36922.got.cif
#   From: 2010.05.17/outbox.cif.g08.bks.cpg/sg22_19_cif.got.tgz:36922.got - 2010.06.03 23:40:54.
