data_PCOD9329447
_publ_section_title
;
Structure prediction by ZEFSAII (Michael W. Deem and Ramdas Pophale) SiO2 
 PCOD9329447
Probable space group: I 2 2 2
;
_chemical_formula_sum "Si O2"
_cell_formula_units_Z 56
_cell_length_a 14.949627
_cell_length_b 16.601325
_cell_length_c 9.281096
_cell_angle_alpha 90.000000
_cell_angle_beta 90.000000
_cell_angle_gamma 90.000000
_cell_volume 2303.415970
_symmetry_space_group_name_H-M "I 2 2 2"
_symmetry_group_IT_number 23
_symmetry_cell_setting 'orthorhombic'
loop_
_space_group_symop_operation_xyz
x,y,z
-x,-y,z
x,-y,-z
-x,y,-z
1/2+x,1/2+y,1/2+z
1/2-x,1/2-y,1/2+z
1/2+x,1/2-y,1/2-z
1/2-x,1/2+y,1/2-z
loop_
_atom_site_type_symbol
_atom_site_label
_atom_site_fract_x
_atom_site_fract_y
_atom_site_fract_z
Si Si1 0.840332 0.154494 0.689291
Si Si2 0.338093 0.567743 0.903512
Si Si3 0.642761 0.147024 0.818705
Si Si4 0.135936 0.482500 0.163720
Si Si5 0.901175 0.079942 0.941824
Si Si6 0.853041 0.810962 0.823336
Si Si7 0.138497 0.327835 0.341360
O O1 0.816021 0.135994 0.524133
O O2 0.748231 0.151185 0.779397
O O3 0.896103 0.086568 0.771781
O O4 0.894100 0.237978 0.692226
O O5 0.244596 0.529082 0.847956
O O6 0.385867 0.615194 0.776551
O O7 0.384789 0.500000 0.000000
O O8 0.609830 0.226397 0.732797
O O9 0.613141 0.060844 0.757494
O O10 0.626375 0.153376 0.989320
O O11 0.104884 0.400256 0.240790
O O12 0.106580 0.500000 0.000000
O O13 0.869910 0.163501 0.013639
O O14 0.000000 0.075113 0.000000
O O15 0.850706 0.000000 0.000000
O O16 0.745051 0.816048 0.811403
#
# Coordination Sequence:
#
# PCOD9329447 Si02
#       7
#     8   8   8   8   8   8   8
#     4  11  20  34  54  76 113 146 195 244 286 349
#     4  10  17  31  48  75 104 147 181 224 284 336
#     4  11  19  32  51  85 117 147 181 232 309 363
#     4  10  20  29  48  80 120 146 176 214 289 371
#     4  11  25  41  57  79 111 165 216 243 278 337
#     4  10  21  32  54  78 110 145 192 238 289 346
#     4  10  21  31  52  84 113 151 179 230 309 354
#
# _framework density 24.311717000000002
#
# number of rings (size 3 to 8) (size 9 to 14) (size 15 to 20)
#    0.000    1.571    5.714    1.286    4.000    0.000 
#    0.000    0.714    0.000    2.571    0.000    2.000 
#    0.000    2.286    0.000    0.000    0.000    0.000 
#
# Total GULP energy -156307.069247 kJ/mol
# GULP energy per Si atom -5582.395330 kJ/mol
# Density = 2.425638 g / cm^3
# Si number density = 24.311717 Si / 1000 Ang^3
#
#
#
# Elastic Constant Matrix: (Units=GPa)
#
#
# Indices 1 2 3 4 5 6 
#
# 1 42.1838 -10.2908 -9.2040 0.0000 0.0000 0.0000
# 2 -10.2908 167.8220 52.6654 0.0000 0.0000 0.0000
# 3 -9.2040 52.6654 144.6670 0.0000 0.0000 0.0000
# 4 0.0000 0.0000 0.0000 49.4961 0.0000 0.0000
# 5 0.0000 0.0000 0.0000 0.0000 -0.1638 0.0000
# 6 0.0000 0.0000 0.0000 0.0000 0.0000 -3.3255
#
#
#
# Elastic Compliance Matrix: (Units=1/GPa)
#
#
# Indices 1 2 3 4 5 6 
#
# 1 0.024228 0.001131 0.001130 0.000000 0.000000 0.000000
# 2 0.001131 0.006780 -0.002396 0.000000 0.000000 0.000000
# 3 0.001130 -0.002396 0.007857 0.000000 0.000000 0.000000
# 4 0.000000 0.000000 0.000000 0.020204 0.000000 0.000000
# 5 0.000000 0.000000 0.000000 0.000000 -6.104084 0.000000
# 6 0.000000 0.000000 0.000000 0.000000 0.000000 -0.300710
#
#
# Mechanical properties :
#
#
# Convention : Reuss Voigt Hill
#
# Bulk Modulus (GPa) = 25.91077 46.77933 36.34505
# Shear Modulus (GPa) = -0.78957 30.63484 14.92264
#
# Velocity S-wave (km/s) = -0.57050 3.55362 2.48020
# Velocity P-wave (km/s) = 3.20108 6.01006 4.81496
#
# Compressibility (1/GPa) = 0.03859399
#
# Stress axis : x y z
#
# Youngs Moduli (GPa) = 41.27420 147.49153 127.28063
#
# Poissons Ratio (x) = -0.16684 -0.14378
# Poissons Ratio (y) = -0.04669 0.30500
# Poissons Ratio (z) = -0.04663 0.35343
#
# Static dielectric constant tensor:
#      x y z
#    x 2.010390 0.000000 0.000000 
#    y 0.000000 2.118960 0.000000 
#    z 0.000000 0.000000 1.936650 
# 
# From -- ./inp_files/10232.got.cif
#   From: 2010.05.17/outbox.cif.g08.bks.cpg/sg23_6_cif.got.tgz:10232.got - 2010.06.04 12:02:01.
