data_PCOD9329294
_publ_section_title
;
Structure prediction by ZEFSAII (Michael W. Deem and Ramdas Pophale) SiO2 
 PCOD9329294
Probable space group: F 2 2 2
;
_chemical_formula_sum "Si O2"
_cell_formula_units_Z 23
_cell_length_a 21.000000
_cell_length_b 9.000000
_cell_length_c 24.000000
_cell_angle_alpha 90.000000
_cell_angle_beta 90.000000
_cell_angle_gamma 90.000000
_cell_volume 4536.000000
_symmetry_space_group_name_H-M "F 2 2 2"
_symmetry_group_IT_number 22
_symmetry_cell_setting 'orthorhombic'
loop_
_space_group_symop_operation_xyz
x,y,z
-x,-y,z
x,-y,-z
-x,y,-z
x,1/2+y,1/2+z
-x,1/2-y,1/2+z
x,1/2-y,1/2-z
-x,1/2+y,1/2-z
1/2+x,y,1/2+z
1/2-x,-y,1/2+z
1/2+x,-y,1/2-z
1/2-x,y,1/2-z
1/2+x,1/2+y,z
1/2-x,1/2-y,z
1/2+x,1/2-y,-z
1/2-x,1/2+y,-z
loop_
_atom_site_type_symbol
_atom_site_label
_atom_site_fract_x
_atom_site_fract_y
_atom_site_fract_z
Si Si1 0.419255 0.860417 0.116775
Si Si2 0.621027 0.174846 0.998876
Si Si3 0.670400 0.402860 0.844751
Si Si4 0.320146 0.730870 0.184585
Si Si5 0.942634 0.212926 0.608370
Si Si6 0.750000 0.250000 0.750000
Si Si7 0.750000 0.250000 0.937181
O O1 0.368596 0.853398 0.164936
O O2 0.484877 0.773990 0.126694
O O3 0.431108 0.035608 0.109716
O O4 0.387929 0.784039 0.062596
O O5 0.572369 0.252423 0.956155
O O6 0.691479 0.195025 0.974431
O O7 0.606154 0.000000 0.000000
O O8 0.654092 0.573031 0.835538
O O9 0.608926 0.301867 0.856290
O O10 0.706773 0.349696 0.789736
O O11 0.719353 0.373131 0.895993
O O12 0.315376 0.750000 0.250000
O O13 0.250000 0.750000 0.159915
#
# Coordination Sequence:
#
# PCOD9329294 Si02
#       7
#    16  16  16  16  16   4   8
#     4  10  21  38  62  87 124 164 202 249 301 362
#     4   9  18  32  59  87 122 159 199 240 294 370
#     4  10  22  38  62  87 123 155 202 256 303 367
#     4  11  26  41  59  88 123 158 204 261 318 363
#     4   9  20  40  60  91 119 161 207 245 300 372
#     4  10  20  36  66  84 108 168 194 240 302 356
#     4   9  20  33  56  98 125 152 203 246 302 370
#
# _framework density 5.0705470000000004
#
# number of rings (size 3 to 8) (size 9 to 14) (size 15 to 20)
#    0.000    2.261    0.000    1.565   13.391    2.783 
#    1.565    2.609    0.000    4.174    0.000    0.000 
#    0.000    0.000    0.000    0.000    0.000    0.000 
#
# Total GULP energy -128135.951921 kJ/mol
# GULP energy per Si atom -5571.128344 kJ/mol
# Density = 0.505901 g / cm^3
# Si number density = 5.070547 Si / 1000 Ang^3
#
#
#
# Elastic Constant Matrix: (Units=GPa)
#
#
# Indices 1 2 3 4 5 6 
#
# 1 117.6778 13.9674 55.2330 0.0000 0.0000 0.0000
# 2 13.9674 38.2514 15.1003 0.0000 0.0000 0.0000
# 3 55.2330 15.1003 72.6542 0.0000 0.0000 0.0000
# 4 0.0000 0.0000 0.0000 7.4245 0.0000 0.0000
# 5 0.0000 0.0000 0.0000 0.0000 18.4842 0.0000
# 6 0.0000 0.0000 0.0000 0.0000 0.0000 19.1020
#
#
#
# Elastic Compliance Matrix: (Units=1/GPa)
#
#
# Indices 1 2 3 4 5 6 
#
# 1 0.013243 -0.000938 -0.009872 0.000000 0.000000 0.000000
# 2 -0.000938 0.028546 -0.005220 0.000000 0.000000 0.000000
# 3 -0.009872 -0.005220 0.022354 0.000000 0.000000 0.000000
# 4 0.000000 0.000000 0.000000 0.134688 0.000000 0.000000
# 5 0.000000 0.000000 0.000000 0.000000 0.054100 0.000000
# 6 0.000000 0.000000 0.000000 0.000000 0.000000 0.052351
#
#
# Mechanical properties :
#
#
# Convention : Reuss Voigt Hill
#
# Bulk Modulus (GPa) = 31.17016 44.13165 37.65091
# Shear Modulus (GPa) = 14.36631 18.62099 16.49365
#
# Velocity S-wave (km/s) = 2.66432 3.03330 2.85478
# Velocity P-wave (km/s) = 4.98662 5.83729 5.42864
#
# Compressibility (1/GPa) = 0.03208196
#
# Stress axis : x y z
#
# Youngs Moduli (GPa) = 75.51245 35.03124 44.73503
#
# Poissons Ratio (x) = 0.03287 0.44164
# Poissons Ratio (y) = 0.07085 0.23350
# Poissons Ratio (z) = 0.74549 0.18285
#
# Static dielectric constant tensor:
#      x y z
#    x 1.771360 0.000000 0.000000 
#    y 0.000000 1.764910 0.000000 
#    z 0.000000 0.000000 1.751630 
# 
# From -- ./inp_files/49848.got.cif
#   From: 2010.05.17/outbox.ucp.g08.bks.cvg/sg22_25_cif.got.tgz:49848.got - 2010.06.11 15:16:44.
