data_PCOD9329391
_publ_section_title
;
Structure prediction by ZEFSAII (Michael W. Deem and Ramdas Pophale) SiO2 
 PCOD9329391
Probable space group: I 2 2 2
;
_chemical_formula_sum "Si O2"
_cell_formula_units_Z 44
_cell_length_a 30.419874
_cell_length_b 8.965573
_cell_length_c 8.040229
_cell_angle_alpha 90.000000
_cell_angle_beta 90.000000
_cell_angle_gamma 90.000000
_cell_volume 2192.824528
_symmetry_space_group_name_H-M "I 2 2 2"
_symmetry_group_IT_number 23
_symmetry_cell_setting 'orthorhombic'
loop_
_space_group_symop_operation_xyz
x,y,z
-x,-y,z
x,-y,-z
-x,y,-z
1/2+x,1/2+y,1/2+z
1/2-x,1/2-y,1/2+z
1/2+x,1/2-y,1/2-z
1/2-x,1/2+y,1/2-z
loop_
_atom_site_type_symbol
_atom_site_label
_atom_site_fract_x
_atom_site_fract_y
_atom_site_fract_z
Si Si1 0.500000 0.000000 0.000000
Si Si2 0.148403 0.230509 0.367707
Si Si3 0.288772 0.043017 0.693501
Si Si4 0.615518 0.437856 0.677930
Si Si5 0.062675 0.246703 0.557678
Si Si6 0.500000 0.500000 0.000000
Si Si7 0.698542 0.712568 0.200626
O O1 0.468127 0.113129 0.097955
O O2 0.172628 0.345034 0.247400
O O3 0.105848 0.298181 0.459639
O O4 0.181518 0.183467 0.514316
O O5 0.131525 0.082077 0.279457
O O6 0.242702 0.122343 0.733700
O O7 0.290440 0.000000 0.500000
O O8 0.292768 0.887910 0.789566
O O9 0.601117 0.500000 0.500000
O O10 0.579343 0.344878 0.781398
O O11 0.659342 0.334772 0.674633
O O12 0.035596 0.126796 0.443741
#
# Coordination Sequence:
#
# PCOD9329391 Si02
#       7
#     2   8   8   8   8   2   8
#     4  10  24  38  76  96 132 158 224 260 324 410
#     4  11  23  41  64  92 129 168 218 260 314 387
#     4  12  24  38  59  92 129 173 218 272 316 370
#     4  11  22  40  65  96 130 168 211 271 323 371
#     4  10  21  40  69  98 124 166 211 266 316 396
#     4  10  16  42  70  94 112 166 218 254 312 390
#     4  11  23  39  61  86 129 176 223 256 313 385
#
# _framework density 20.065446000000001
#
# number of rings (size 3 to 8) (size 9 to 14) (size 15 to 20)
#    0.000    1.091    1.818    6.545    5.091    1.455 
#    0.000    0.455    0.000    1.091    0.000    0.000 
#    0.000    0.000    0.000    0.000    0.000    0.000 
#
# Total GULP energy -122740.194337 kJ/mol
# GULP energy per Si atom -5579.099743 kJ/mol
# Density = 2.001978 g / cm^3
# Si number density = 20.065446 Si / 1000 Ang^3
#
#
#
# Elastic Constant Matrix: (Units=GPa)
#
#
# Indices 1 2 3 4 5 6 
#
# 1 124.5282 67.9346 27.3114 0.0000 0.0000 0.0000
# 2 67.9346 152.2905 31.5837 0.0000 0.0000 0.0000
# 3 27.3114 31.5837 59.2563 0.0000 0.0000 0.0000
# 4 0.0000 0.0000 0.0000 21.5020 0.0000 0.0000
# 5 0.0000 0.0000 0.0000 0.0000 1.4688 0.0000
# 6 0.0000 0.0000 0.0000 0.0000 0.0000 53.2493
#
#
#
# Elastic Compliance Matrix: (Units=1/GPa)
#
#
# Indices 1 2 3 4 5 6 
#
# 1 0.011000 -0.004335 -0.002760 0.000000 0.000000 0.000000
# 2 -0.004335 0.009091 -0.002847 0.000000 0.000000 0.000000
# 3 -0.002760 -0.002847 0.019665 0.000000 0.000000 0.000000
# 4 0.000000 0.000000 0.000000 0.046507 0.000000 0.000000
# 5 0.000000 0.000000 0.000000 0.000000 0.680812 0.000000
# 6 0.000000 0.000000 0.000000 0.000000 0.000000 0.018780
#
#
# Mechanical properties :
#
#
# Convention : Reuss Voigt Hill
#
# Bulk Modulus (GPa) = 50.32017 65.52603 57.92310
# Shear Modulus (GPa) = 6.15488 29.19372 17.67430
#
# Velocity S-wave (km/s) = 1.75330 3.81849 2.97110
# Velocity P-wave (km/s) = 5.40659 7.22275 6.37963
#
# Compressibility (1/GPa) = 0.01987275
#
# Stress axis : x y z
#
# Youngs Moduli (GPa) = 90.90648 110.00385 50.85066
#
# Poissons Ratio (x) = 0.47684 0.14033
# Poissons Ratio (y) = 0.39406 0.14479
# Poissons Ratio (z) = 0.25087 0.31322
#
# Static dielectric constant tensor:
#      x y z
#    x 1.746620 0.000000 0.000000 
#    y 0.000000 1.721330 0.000000 
#    z 0.000000 0.000000 1.746350 
# 
# From -- ./inp_files/13297.got.cif
#   From: 2010.05.17/outbox.cif.g08.bks.cpg/sg23_7_cif.got.tgz:13297.got - 2010.06.04 12:02:01.
