data_PCOD9329754
_publ_section_title
;
Structure prediction by ZEFSAII (Michael W. Deem and Ramdas Pophale) SiO2 
 PCOD9329754
Probable space group: I 2 2 2
;
_chemical_formula_sum "Si O2"
_cell_formula_units_Z 58
_cell_length_a 25.736799
_cell_length_b 8.600154
_cell_length_c 13.493368
_cell_angle_alpha 90.000000
_cell_angle_beta 90.000000
_cell_angle_gamma 90.000000
_cell_volume 2986.627941
_symmetry_space_group_name_H-M "I 2 2 2"
_symmetry_group_IT_number 23
_symmetry_cell_setting 'orthorhombic'
loop_
_space_group_symop_operation_xyz
x,y,z
-x,-y,z
x,-y,-z
-x,y,-z
1/2+x,1/2+y,1/2+z
1/2-x,1/2-y,1/2+z
1/2+x,1/2-y,1/2-z
1/2-x,1/2+y,1/2-z
loop_
_atom_site_type_symbol
_atom_site_label
_atom_site_fract_x
_atom_site_fract_y
_atom_site_fract_z
Si Si1 0.432053 0.291744 0.295959
Si Si2 0.500000 0.000000 0.500000
Si Si3 0.443721 0.004848 0.838445
Si Si4 0.633445 0.422164 0.287994
Si Si5 0.837963 0.396493 0.695312
Si Si6 0.343962 0.897873 0.600124
Si Si7 0.043881 0.265739 0.149974
Si Si8 0.724759 0.596553 0.398800
O O1 0.404465 0.441984 0.250267
O O2 0.394278 0.210909 0.377005
O O3 0.488922 0.321935 0.340749
O O4 0.438699 0.162235 0.212450
O O5 0.464490 0.106389 0.567538
O O6 0.385513 0.043351 0.874195
O O7 0.449583 0.135285 0.751419
O O8 0.500000 0.000000 0.891164
O O9 0.651427 0.284908 0.216906
O O10 0.594698 0.337155 0.366052
O O11 0.683268 0.506459 0.330948
O O12 0.839153 0.491891 0.801063
O O13 0.781698 0.411576 0.647932
O O14 0.296703 0.773328 0.591527
O O15 0.346856 0.000000 0.500000
O O16 0.724891 0.500000 0.500000
#
# Coordination Sequence:
#
# PCOD9329754 Si02
#       8
#     8   2   8   8   8   8   8   8
#     4   9  17  31  50  75 110 141 179 220 260 322
#     4  12  20  28  46  68 112 156 188 208 252 326
#     4   8  15  32  51  78 103 137 169 211 268 333
#     4  10  21  35  51  76 103 140 186 234 271 318
#     4  10  20  36  57  78 108 142 177 227 281 337
#     4  10  21  34  55  78 106 146 183 219 274 333
#     4  10  19  30  47  72 107 147 183 214 261 322
#     4  11  23  39  54  76 104 139 189 240 280 326
#
# _framework density 19.419893999999999
#
# number of rings (size 3 to 8) (size 9 to 14) (size 15 to 20)
#    0.000    2.207    2.069    2.069    0.966    2.207 
#    0.000    2.069    0.000    0.414    0.000    0.000 
#    0.000    0.000    0.000    0.000    0.000    0.000 
#
# Total GULP energy -161593.060415 kJ/mol
# GULP energy per Si atom -5572.174497 kJ/mol
# Density = 1.937569 g / cm^3
# Si number density = 19.419894 Si / 1000 Ang^3
#
#
#
# Elastic Constant Matrix: (Units=GPa)
#
#
# Indices 1 2 3 4 5 6 
#
# 1 167.3014 50.3387 12.2690 0.0000 0.0000 0.0000
# 2 50.3387 101.3742 9.5514 0.0000 0.0000 0.0000
# 3 12.2690 9.5514 27.7339 0.0000 0.0000 0.0000
# 4 0.0000 0.0000 0.0000 7.1842 0.0000 0.0000
# 5 0.0000 0.0000 0.0000 0.0000 9.6845 0.0000
# 6 0.0000 0.0000 0.0000 0.0000 0.0000 32.3186
#
#
#
# Elastic Compliance Matrix: (Units=1/GPa)
#
#
# Indices 1 2 3 4 5 6 
#
# 1 0.007133 -0.003353 -0.002001 0.000000 0.000000 0.000000
# 2 -0.003353 0.011772 -0.002571 0.000000 0.000000 0.000000
# 3 -0.002001 -0.002571 0.037827 0.000000 0.000000 0.000000
# 4 0.000000 0.000000 0.000000 0.139193 0.000000 0.000000
# 5 0.000000 0.000000 0.000000 0.000000 0.103258 0.000000
# 6 0.000000 0.000000 0.000000 0.000000 0.000000 0.030942
#
#
# Mechanical properties :
#
#
# Convention : Reuss Voigt Hill
#
# Bulk Modulus (GPa) = 24.46021 48.96973 36.71497
# Shear Modulus (GPa) = 13.90425 24.78749 19.34587
#
# Velocity S-wave (km/s) = 2.67868 3.57655 3.15967
# Velocity P-wave (km/s) = 4.71062 6.50589 5.67963
#
# Compressibility (1/GPa) = 0.04088273
#
# Stress axis : x y z
#
# Youngs Moduli (GPa) = 140.19417 84.94833 26.43594
#
# Poissons Ratio (x) = 0.28487 0.05289
# Poissons Ratio (y) = 0.47014 0.06796
# Poissons Ratio (z) = 0.28047 0.21837
#
# Static dielectric constant tensor:
#      x y z
#    x 1.773050 0.000000 0.000000 
#    y 0.000000 1.702530 0.000000 
#    z 0.000000 0.000000 1.695470 
# 
# From -- ./inp_files/22591.got.cif
#   From: 2010.05.17/outbox.cif.g08.bks.cpg/sg23_12_cif.got.tgz:22591.got - 2010.06.04 12:02:01.
