data_PCOD9329192
_publ_section_title
;
Structure prediction by ZEFSAII (Michael W. Deem and Ramdas Pophale) SiO2 
 PCOD9329192
Probable space group: F 2 2 2
;
_chemical_formula_sum "Si O2"
_cell_formula_units_Z 56
_cell_length_a 30.881329
_cell_length_b 5.155054
_cell_length_c 13.343472
_cell_angle_alpha 90.000000
_cell_angle_beta 90.000000
_cell_angle_gamma 90.000000
_cell_volume 2124.212939
_symmetry_space_group_name_H-M "F 2 2 2"
_symmetry_group_IT_number 22
_symmetry_cell_setting 'orthorhombic'
loop_
_space_group_symop_operation_xyz
x,y,z
-x,-y,z
x,-y,-z
-x,y,-z
x,1/2+y,1/2+z
-x,1/2-y,1/2+z
x,1/2-y,1/2-z
-x,1/2+y,1/2-z
1/2+x,y,1/2+z
1/2-x,-y,1/2+z
1/2+x,-y,1/2-z
1/2-x,y,1/2-z
1/2+x,1/2+y,z
1/2-x,1/2-y,z
1/2+x,1/2-y,-z
1/2-x,1/2+y,-z
loop_
_atom_site_type_symbol
_atom_site_label
_atom_site_fract_x
_atom_site_fract_y
_atom_site_fract_z
Si Si1 0.467376 0.780325 0.366025
Si Si2 0.684763 0.750000 0.750000
Si Si3 0.584721 0.500000 0.500000
Si Si4 0.113703 0.884659 0.846693
Si Si5 0.750000 0.250000 0.071380
O O1 0.475113 0.750000 0.250000
O O2 0.454455 0.508617 0.414432
O O3 0.500000 0.000000 0.401541
O O4 0.419016 0.896596 0.385261
O O5 0.654752 0.524633 0.796811
O O6 0.712901 0.830855 0.847259
O O7 0.617678 0.684669 0.437304
O O8 0.092431 0.750000 0.750000
O O9 0.740272 0.500000 0.000000
#
# Coordination Sequence:
#
# PCOD9329192 Si02
#       5
#    16   8   8  16   8
#     4  12  27  51  74 108 160 217 285 357 416 491
#     4  11  28  54  86 122 180 214 280 358 426 527
#     4  12  28  49  76 114 160 224 296 346 440 498
#     4  12  25  50  79 117 161 219 274 358 418 502
#     4  11  30  57  92 138 172 229 282 349 442 536
#
# _framework density 26.362704999999998
#
# number of rings (size 3 to 8) (size 9 to 14) (size 15 to 20)
#    0.000    0.286    4.286    1.714    4.000    9.143 
#    2.571    0.000    0.000    0.000    0.000    0.000 
#    0.000    0.000    0.000    0.000    0.000    0.000 
#
# Total GULP energy -78023.885283 kJ/mol
# GULP energy per Si atom -5573.134663 kJ/mol
# Density = 2.630270 g / cm^3
# Si number density = 26.362705 Si / 1000 Ang^3
#
#
#
# Elastic Constant Matrix: (Units=GPa)
#
#
# Indices 1 2 3 4 5 6 
#
# 1 109.3961 19.0839 43.4296 0.0000 0.0000 -0.0002
# 2 19.0839 58.4543 21.4896 0.0001 0.0001 -0.0004
# 3 43.4296 21.4896 216.2968 -0.0001 0.0001 -0.0001
# 4 0.0000 0.0001 -0.0001 -10.4570 0.0000 0.0000
# 5 0.0000 0.0001 0.0001 0.0000 43.4694 0.0000
# 6 -0.0002 -0.0004 -0.0001 0.0000 0.0000 54.9044
#
#
#
# Elastic Compliance Matrix: (Units=1/GPa)
#
#
# Indices 1 2 3 4 5 6 
#
# 1 0.010330 -0.002709 -0.001805 0.000000 0.000000 0.000000
# 2 -0.002709 0.018466 -0.001291 0.000000 0.000000 0.000000
# 3 -0.001805 -0.001291 0.005114 0.000000 0.000000 0.000000
# 4 0.000000 0.000000 0.000000 -0.095630 0.000000 0.000000
# 5 0.000000 0.000000 0.000000 0.000000 0.023005 0.000000
# 6 0.000000 0.000000 0.000000 0.000000 0.000000 0.018213
#
#
# Mechanical properties :
#
#
# Convention : Reuss Voigt Hill
#
# Bulk Modulus (GPa) = 44.84107 61.35039 53.09573
# Shear Modulus (GPa) = -3430.22652 37.59296 -1696.31678
#
# Velocity S-wave (km/s) = -36.11082 3.78033 -25.39390
# Velocity P-wave (km/s) = 41.49227 6.50974 28.97613
#
# Compressibility (1/GPa) = 0.02230098
#
# Stress axis : x y z
#
# Youngs Moduli (GPa) = 96.80300 54.15262 195.54375
#
# Poissons Ratio (x) = 0.14670 0.35296
# Poissons Ratio (y) = 0.26224 0.25240
# Poissons Ratio (z) = 0.17473 0.06990
#
# Static dielectric constant tensor:
#      x y z
#    x 2.358500 0.000000 0.000000 
#    y 0.000000 1.359510 0.000000 
#    z 0.000000 0.000000 1.931780 
# 
# From -- ./inp_files/33352.got.cif
#   From: 2010.05.17/outbox.cif.g08.bks.cpg/sg22_17_cif.got.tgz:33352.got - 2010.06.03 23:40:54.
