data_PCOD9329059
_publ_section_title
;
Structure prediction by ZEFSAII (Michael W. Deem and Ramdas Pophale) SiO2 
 PCOD9329059
Probable space group: F 2 2 2
;
_chemical_formula_sum "Si O2"
_cell_formula_units_Z 64
_cell_length_a 9.547613
_cell_length_b 10.871573
_cell_length_c 22.975621
_cell_angle_alpha 90.000000
_cell_angle_beta 90.000000
_cell_angle_gamma 90.000000
_cell_volume 2384.813668
_symmetry_space_group_name_H-M "F 2 2 2"
_symmetry_group_IT_number 22
_symmetry_cell_setting 'orthorhombic'
loop_
_space_group_symop_operation_xyz
x,y,z
-x,-y,z
x,-y,-z
-x,y,-z
x,1/2+y,1/2+z
-x,1/2-y,1/2+z
x,1/2-y,1/2-z
-x,1/2+y,1/2-z
1/2+x,y,1/2+z
1/2-x,-y,1/2+z
1/2+x,-y,1/2-z
1/2-x,y,1/2-z
1/2+x,1/2+y,z
1/2-x,1/2-y,z
1/2+x,1/2-y,-z
1/2-x,1/2+y,-z
loop_
_atom_site_type_symbol
_atom_site_label
_atom_site_fract_x
_atom_site_fract_y
_atom_site_fract_z
Si Si1 0.360693 0.420574 0.150165
Si Si2 0.893394 0.858443 0.531758
Si Si3 0.341723 0.372884 0.668707
Si Si4 0.250000 0.250000 0.447084
Si Si5 0.043747 0.750000 0.750000
O O1 0.500000 0.500000 0.138347
O O2 0.249955 0.509388 0.178879
O O3 0.303060 0.363008 0.091060
O O4 0.385766 0.313061 0.195436
O O5 0.750000 0.750000 0.521463
O O6 0.880395 0.879636 0.600514
O O7 0.928899 0.806322 0.463049
O O8 0.863945 0.000000 0.500000
O O9 0.250000 0.250000 0.674275
O O10 0.456817 0.356257 0.717504
#
# Coordination Sequence:
#
# PCOD9329059 Si02
#       5
#    16  16  16   8   8
#     4  12  29  50  78 115 153 207 262 323 391 468
#     4  11  24  46  76 110 151 201 251 323 397 463
#     4  12  25  51  76 113 159 201 261 324 388 479
#     4  12  26  49  76 119 150 192 268 326 388 476
#     4  12  29  51  76 112 154 213 264 313 394 462
#
# _framework density 26.836478
#
# number of rings (size 3 to 8) (size 9 to 14) (size 15 to 20)
#    0.000    0.250    6.250    1.875    0.000    4.500 
#    4.500    1.250    0.000    0.000    0.000    0.000 
#    0.000    0.000    0.000    0.000    0.000    0.000 
#
# Total GULP energy -89200.265328 kJ/mol
# GULP energy per Si atom -5575.016583 kJ/mol
# Density = 2.677540 g / cm^3
# Si number density = 26.836478 Si / 1000 Ang^3
#
#
#
# Elastic Constant Matrix: (Units=GPa)
#
#
# Indices 1 2 3 4 5 6 
#
# 1 149.9090 66.5665 76.1073 0.0000 0.0000 0.0000
# 2 66.5665 131.8719 34.6262 0.0000 0.0000 0.0000
# 3 76.1073 34.6262 185.3372 0.0000 0.0000 0.0000
# 4 0.0000 0.0000 0.0000 -60.1704 0.0000 0.0000
# 5 0.0000 0.0000 0.0000 0.0000 -77.9438 0.0000
# 6 0.0000 0.0000 0.0000 0.0000 0.0000 47.2444
#
#
#
# Elastic Compliance Matrix: (Units=1/GPa)
#
#
# Indices 1 2 3 4 5 6 
#
# 1 0.010330 -0.004312 -0.003436 0.000000 0.000000 0.000000
# 2 -0.004312 0.009774 -0.000055 0.000000 0.000000 0.000000
# 3 -0.003436 -0.000055 0.006817 0.000000 0.000000 0.000000
# 4 0.000000 0.000000 0.000000 -0.016619 0.000000 0.000000
# 5 0.000000 0.000000 0.000000 0.000000 -0.012830 0.000000
# 6 0.000000 0.000000 0.000000 0.000000 0.000000 0.021167
#
#
# Mechanical properties :
#
#
# Convention : Reuss Voigt Hill
#
# Bulk Modulus (GPa) = 88.38808 91.30200 89.84504
# Shear Modulus (GPa) = 131.51739 1.14724 66.33232
#
# Velocity S-wave (km/s) = 7.00809 0.65454 4.97704
# Velocity P-wave (km/s) = 9.92430 5.88784 8.15961
#
# Compressibility (1/GPa) = 0.01131374
#
# Stress axis : x y z
#
# Youngs Moduli (GPa) = 96.80443 102.30855 146.69159
#
# Poissons Ratio (x) = 0.44117 0.50408
# Poissons Ratio (y) = 0.41744 0.00812
# Poissons Ratio (z) = 0.33265 0.00567
#
# Static dielectric constant tensor:
#      x y z
#    x 3.105020 0.000000 0.000000 
#    y 0.000000 2.241100 0.000000 
#    z 0.000000 0.000000 1.868920 
# 
# From -- ./inp_files/47863.got.cif
#   From: 2010.05.17/outbox.cif.g08.bks.cpg/sg22_24_cif.got.tgz:47863.got - 2010.06.03 23:40:54.
