data_PCOD9329489
_publ_section_title
;
Structure prediction by ZEFSAII (Michael W. Deem and Ramdas Pophale) SiO2 
 PCOD9329489
Probable space group: I 2 2 2
;
_chemical_formula_sum "Si O2"
_cell_formula_units_Z 36
_cell_length_a 15.752501
_cell_length_b 5.697429
_cell_length_c 15.602767
_cell_angle_alpha 90.000000
_cell_angle_beta 90.000000
_cell_angle_gamma 90.000000
_cell_volume 1400.328929
_symmetry_space_group_name_H-M "I 2 2 2"
_symmetry_group_IT_number 23
_symmetry_cell_setting 'orthorhombic'
loop_
_space_group_symop_operation_xyz
x,y,z
-x,-y,z
x,-y,-z
-x,y,-z
1/2+x,1/2+y,1/2+z
1/2-x,1/2-y,1/2+z
1/2+x,1/2-y,1/2-z
1/2-x,1/2+y,1/2-z
loop_
_atom_site_type_symbol
_atom_site_label
_atom_site_fract_x
_atom_site_fract_y
_atom_site_fract_z
Si Si1 0.500000 0.000000 0.355644
Si Si2 0.572530 0.658613 0.218824
Si Si3 0.098053 0.743993 0.468448
Si Si4 0.738774 0.463061 0.674743
Si Si5 0.688355 0.039999 0.358211
O O1 0.479106 0.213106 0.292937
O O2 0.592757 0.040214 0.396006
O O3 0.500000 0.500000 0.178452
O O4 0.599719 0.789009 0.133526
O O5 0.652067 0.543366 0.266450
O O6 0.138050 0.500000 0.500000
O O7 0.000000 0.741517 0.500000
O O8 0.131435 0.000000 0.500000
O O9 0.728752 0.706332 0.622906
O O10 0.808459 0.461936 0.752190
O O11 0.733242 0.212831 0.625261
#
# Coordination Sequence:
#
# PCOD9329489 Si02
#       5
#     4   8   8   8   8
#     4  10  18  26  43  58  78 102 141 162 192 238
#     4  11  18  27  42  57  76 105 142 161 191 238
#     4  10  19  28  37  53  76  97 126 165 195 217
#     4   9  18  28  39  55  78 101 130 168 196 227
#     4   9  17  28  39  56  78 100 129 168 200 221
#
# _framework density 25.708247
#
# number of rings (size 3 to 8) (size 9 to 14) (size 15 to 20)
#    0.000    2.222    4.444    1.333    0.000    0.000 
#    0.000    0.000    0.000    0.000    0.000    0.000 
#    0.000    0.000    0.000    1.000    0.000   18.667 
#
# Total GULP energy -100295.690342 kJ/mol
# GULP energy per Si atom -5571.982797 kJ/mol
# Density = 2.564973 g / cm^3
# Si number density = 25.708247 Si / 1000 Ang^3
#
#
#
# Elastic Constant Matrix: (Units=GPa)
#
#
# Indices 1 2 3 4 5 6 
#
# 1 111.5967 14.0891 14.8177 0.0000 0.0000 0.0000
# 2 14.0891 228.8546 23.7787 0.0000 0.0000 0.0000
# 3 14.8177 23.7787 57.0116 0.0000 0.0000 0.0000
# 4 0.0000 0.0000 0.0000 18.3393 0.0000 0.0000
# 5 0.0000 0.0000 0.0000 0.0000 12.5137 0.0000
# 6 0.0000 0.0000 0.0000 0.0000 0.0000 38.3461
#
#
#
# Elastic Compliance Matrix: (Units=1/GPa)
#
#
# Indices 1 2 3 4 5 6 
#
# 1 0.009306 -0.000336 -0.002278 0.000000 0.000000 0.000000
# 2 -0.000336 0.004580 -0.001823 0.000000 0.000000 0.000000
# 3 -0.002278 -0.001823 0.018893 0.000000 0.000000 0.000000
# 4 0.000000 0.000000 0.000000 0.054528 0.000000 0.000000
# 5 0.000000 0.000000 0.000000 0.000000 0.079912 0.000000
# 6 0.000000 0.000000 0.000000 0.000000 0.000000 0.026078
#
#
# Mechanical properties :
#
#
# Convention : Reuss Voigt Hill
#
# Bulk Modulus (GPa) = 41.83488 55.87044 48.85266
# Shear Modulus (GPa) = 23.79379 36.82499 30.30939
#
# Velocity S-wave (km/s) = 3.04556 3.78884 3.43735
# Velocity P-wave (km/s) = 5.35495 6.39688 5.89896
#
# Compressibility (1/GPa) = 0.02390350
#
# Stress axis : x y z
#
# Youngs Moduli (GPa) = 107.45974 218.35631 52.93051
#
# Poissons Ratio (x) = 0.07340 0.12060
# Poissons Ratio (y) = 0.03612 0.09648
# Poissons Ratio (z) = 0.24484 0.39801
#
# Static dielectric constant tensor:
#      x y z
#    x 2.372360 0.000000 0.000000 
#    y 0.000000 2.148130 0.000000 
#    z 0.000000 0.000000 1.920980 
# 
# From -- ./inp_files/2310.got.cif
#   From: 2010.05.17/outbox.cif.g08.bks.cpg/sg23_2_cif.got.tgz:2310.got - 2010.06.04 12:02:01.
