data_PCOD9329072
_publ_section_title
;
Structure prediction by ZEFSAII (Michael W. Deem and Ramdas Pophale) SiO2 
 PCOD9329072
Probable space group: F 2 2 2
;
_chemical_formula_sum "Si O2"
_cell_formula_units_Z 68
_cell_length_a 21.405377
_cell_length_b 7.796756
_cell_length_c 18.274477
_cell_angle_alpha 90.000000
_cell_angle_beta 90.000000
_cell_angle_gamma 90.000000
_cell_volume 3049.873181
_symmetry_space_group_name_H-M "F 2 2 2"
_symmetry_group_IT_number 22
_symmetry_cell_setting 'orthorhombic'
loop_
_space_group_symop_operation_xyz
x,y,z
-x,-y,z
x,-y,-z
-x,y,-z
x,1/2+y,1/2+z
-x,1/2-y,1/2+z
x,1/2-y,1/2-z
-x,1/2+y,1/2-z
1/2+x,y,1/2+z
1/2-x,-y,1/2+z
1/2+x,-y,1/2-z
1/2-x,y,1/2-z
1/2+x,1/2+y,z
1/2-x,1/2-y,z
1/2+x,1/2-y,-z
1/2-x,1/2+y,-z
loop_
_atom_site_type_symbol
_atom_site_label
_atom_site_fract_x
_atom_site_fract_y
_atom_site_fract_z
Si Si1 0.000000 0.000000 0.000000
Si Si2 0.914510 0.185619 0.533527
Si Si3 0.817320 0.053753 0.224238
Si Si4 0.308723 0.364288 0.938609
Si Si5 0.564066 0.898456 0.194847
O O1 0.042793 0.141361 0.039940
O O2 0.861096 0.248043 0.477463
O O3 0.903168 0.149031 0.618271
O O4 0.935303 0.000000 0.500000
O O5 0.814636 0.250000 0.250000
O O6 0.750000 0.976750 0.250000
O O7 0.827172 0.045899 0.136933
O O8 0.879563 0.984918 0.261430
O O9 0.250000 0.250000 0.918269
O O10 0.289830 0.500000 0.000000
O O11 0.542508 0.750000 0.250000
O O12 0.500000 0.000000 0.177083
#
# Coordination Sequence:
#
# PCOD9329072 Si02
#       5
#     4  16  16  16  16
#     4  12  26  48  76 110 160 192 268 306 388 454
#     4  12  27  49  78 112 151 206 259 318 381 466
#     4  11  24  48  74 109 150 200 250 320 386 458
#     4  12  25  46  75 113 154 202 260 317 391 462
#     4  12  28  48  74 111 152 201 254 316 389 462
#
# _framework density 22.296009000000002
#
# number of rings (size 3 to 8) (size 9 to 14) (size 15 to 20)
#    0.000    0.235    3.529    6.000    4.941    0.471 
#    0.000    0.000    0.000    0.000    0.000    0.000 
#    0.000    0.000    0.000    0.000    0.000    0.000 
#
# Total GULP energy -94825.246228 kJ/mol
# GULP energy per Si atom -5577.955660 kJ/mol
# Density = 2.224526 g / cm^3
# Si number density = 22.296009 Si / 1000 Ang^3
#
#
#
# Elastic Constant Matrix: (Units=GPa)
#
#
# Indices 1 2 3 4 5 6 
#
# 1 128.2157 15.1021 42.8093 0.0000 0.0000 0.0000
# 2 15.1021 91.8037 25.9329 0.0000 0.0000 0.0000
# 3 42.8093 25.9329 203.8284 0.0000 0.0000 0.0000
# 4 0.0000 0.0000 0.0000 28.9911 0.0000 0.0000
# 5 0.0000 0.0000 0.0000 0.0000 40.9063 0.0000
# 6 0.0000 0.0000 0.0000 0.0000 0.0000 7.1840
#
#
#
# Elastic Compliance Matrix: (Units=1/GPa)
#
#
# Indices 1 2 3 4 5 6 
#
# 1 0.008462 -0.000923 -0.001660 0.000000 0.000000 0.000000
# 2 -0.000923 0.011400 -0.001256 0.000000 0.000000 0.000000
# 3 -0.001660 -0.001256 0.005415 0.000000 0.000000 0.000000
# 4 0.000000 0.000000 0.000000 0.034493 0.000000 0.000000
# 5 0.000000 0.000000 0.000000 0.000000 0.024446 0.000000
# 6 0.000000 0.000000 0.000000 0.000000 0.000000 0.139199
#
#
# Mechanical properties :
#
#
# Convention : Reuss Voigt Hill
#
# Bulk Modulus (GPa) = 56.82649 65.72626 61.27637
# Shear Modulus (GPa) = 21.10065 38.08318 29.59191
#
# Velocity S-wave (km/s) = 3.07968 4.13737 3.64707
# Velocity P-wave (km/s) = 6.17968 7.23648 6.72886
#
# Compressibility (1/GPa) = 0.01759743
#
# Stress axis : x y z
#
# Youngs Moduli (GPa) = 118.17129 87.72230 184.68736
#
# Poissons Ratio (x) = 0.08099 0.30655
# Poissons Ratio (y) = 0.10910 0.23205
# Poissons Ratio (z) = 0.19615 0.11022
#
# Static dielectric constant tensor:
#      x y z
#    x 1.910240 0.000000 0.000000 
#    y 0.000000 1.828290 0.000000 
#    z 0.000000 0.000000 1.950300 
# 
# From -- ./inp_files/38570.got.cif
#   From: 2010.05.17/outbox.cif.g08.bks.cpg/sg22_20_cif.got.tgz:38570.got - 2010.06.03 23:40:54.
