data_PCOD9329435
_publ_section_title
;
Structure prediction by ZEFSAII (Michael W. Deem and Ramdas Pophale) SiO2 
 PCOD9329435
Probable space group: I 2 2 2
;
_chemical_formula_sum "Si O2"
_cell_formula_units_Z 56
_cell_length_a 16.881301
_cell_length_b 9.300356
_cell_length_c 17.096394
_cell_angle_alpha 90.000000
_cell_angle_beta 90.000000
_cell_angle_gamma 90.000000
_cell_volume 2684.169915
_symmetry_space_group_name_H-M "I 2 2 2"
_symmetry_group_IT_number 23
_symmetry_cell_setting 'orthorhombic'
loop_
_space_group_symop_operation_xyz
x,y,z
-x,-y,z
x,-y,-z
-x,y,-z
1/2+x,1/2+y,1/2+z
1/2-x,1/2-y,1/2+z
1/2+x,1/2-y,1/2-z
1/2-x,1/2+y,1/2-z
loop_
_atom_site_type_symbol
_atom_site_label
_atom_site_fract_x
_atom_site_fract_y
_atom_site_fract_z
Si Si1 0.949934 0.869345 0.647467
Si Si2 0.442615 0.135291 0.784767
Si Si3 0.132153 0.867964 0.940666
Si Si4 0.226869 0.531972 0.722240
Si Si5 0.222998 0.771843 0.355478
Si Si6 0.512464 0.168305 0.390833
Si Si7 0.103661 0.101968 0.826779
O O1 0.865670 0.811079 0.614910
O O2 0.924556 0.907508 0.737310
O O3 0.015566 0.748403 0.659899
O O4 0.000000 0.000000 0.611166
O O5 0.354379 0.097514 0.807976
O O6 0.441132 0.176283 0.693124
O O7 0.500000 0.000000 0.787074
O O8 0.214469 0.792652 0.917178
O O9 0.069550 0.741147 0.954984
O O10 0.086804 0.953967 0.870995
O O11 0.143682 0.000000 0.000000
O O12 0.220048 0.360397 0.708067
O O13 0.242647 0.588233 0.810405
O O14 0.301124 0.596323 0.675313
O O15 0.434094 0.260971 0.369321
O O16 0.500000 0.000000 0.405962
#
# Coordination Sequence:
#
# PCOD9329435 Si02
#       7
#     8   8   8   8   8   8   8
#     4  10  19  31  51  81 117 150 182 240 297 359
#     4  10  17  30  50  78 115 150 182 237 294 350
#     4  11  22  38  57  75 110 164 203 236 279 348
#     4  10  19  31  50  78 115 151 188 241 292 349
#     4  10  21  34  51  83 116 153 197 236 297 347
#     4  10  20  34  53  78 109 146 199 246 284 332
#     4   9  20  34  51  78 115 157 198 231 286 346
#
# _framework density 20.863060999999998
#
# number of rings (size 3 to 8) (size 9 to 14) (size 15 to 20)
#    0.000    2.000    2.857    2.143    6.000    1.143 
#    0.000    1.429    0.000    0.000    0.000    8.000 
#    0.000    4.571    0.000    0.000    0.000    0.000 
#
# Total GULP energy -156053.411398 kJ/mol
# GULP energy per Si atom -5573.336121 kJ/mol
# Density = 2.081558 g / cm^3
# Si number density = 20.863061 Si / 1000 Ang^3
#
#
#
# Elastic Constant Matrix: (Units=GPa)
#
#
# Indices 1 2 3 4 5 6 
#
# 1 167.2883 56.5101 10.0343 0.0000 0.0000 0.0000
# 2 56.5101 123.0109 20.2577 0.0000 0.0000 0.0000
# 3 10.0343 20.2577 20.4263 0.0000 0.0000 0.0000
# 4 0.0000 0.0000 0.0000 22.2740 0.0000 0.0000
# 5 0.0000 0.0000 0.0000 0.0000 7.1834 0.0000
# 6 0.0000 0.0000 0.0000 0.0000 0.0000 42.5060
#
#
#
# Elastic Compliance Matrix: (Units=1/GPa)
#
#
# Indices 1 2 3 4 5 6 
#
# 1 0.007077 -0.003202 -0.000302 0.000000 0.000000 0.000000
# 2 -0.003202 0.011165 -0.009500 0.000000 0.000000 0.000000
# 3 -0.000302 -0.009500 0.058526 0.000000 0.000000 0.000000
# 4 0.000000 0.000000 0.000000 0.044895 0.000000 0.000000
# 5 0.000000 0.000000 0.000000 0.000000 0.139209 0.000000
# 6 0.000000 0.000000 0.000000 0.000000 0.000000 0.023526
#
#
# Mechanical properties :
#
#
# Convention : Reuss Voigt Hill
#
# Bulk Modulus (GPa) = 19.69972 53.81440 36.75706
# Shear Modulus (GPa) = 15.27538 29.32092 22.29815
#
# Velocity S-wave (km/s) = 2.70881 3.75293 3.27278
# Velocity P-wave (km/s) = 4.38707 6.68053 5.65136
#
# Compressibility (1/GPa) = 0.05076215
#
# Stress axis : x y z
#
# Youngs Moduli (GPa) = 141.29710 89.56912 17.08649
#
# Poissons Ratio (x) = 0.28676 0.00515
# Poissons Ratio (y) = 0.45238 0.16232
# Poissons Ratio (z) = 0.04260 0.85087
#
# Static dielectric constant tensor:
#      x y z
#    x 1.777340 0.000000 0.000000 
#    y 0.000000 1.790870 0.000000 
#    z 0.000000 0.000000 1.823010 
# 
# From -- ./inp_files/12147.got.cif
#   From: 2010.05.17/outbox.cif.g08.bks.cpg/sg23_7_cif.got.tgz:12147.got - 2010.06.04 12:02:01.
