data_PCOD9329505
_publ_section_title
;
Structure prediction by ZEFSAII (Michael W. Deem and Ramdas Pophale) SiO2 
 PCOD9329505
Probable space group: I 2 2 2
;
_chemical_formula_sum "Si O2"
_cell_formula_units_Z 64
_cell_length_a 8.624970
_cell_length_b 27.148264
_cell_length_c 18.800392
_cell_angle_alpha 90.000000
_cell_angle_beta 90.000000
_cell_angle_gamma 90.000000
_cell_volume 4402.167484
_symmetry_space_group_name_H-M "I 2 2 2"
_symmetry_group_IT_number 23
_symmetry_cell_setting 'orthorhombic'
loop_
_space_group_symop_operation_xyz
x,y,z
-x,-y,z
x,-y,-z
-x,y,-z
1/2+x,1/2+y,1/2+z
1/2-x,1/2-y,1/2+z
1/2+x,1/2-y,1/2-z
1/2-x,1/2+y,1/2-z
loop_
_atom_site_type_symbol
_atom_site_label
_atom_site_fract_x
_atom_site_fract_y
_atom_site_fract_z
Si Si1 0.063628 0.149528 0.833096
Si Si2 0.064408 0.053396 0.921149
Si Si3 0.064366 0.743164 0.420510
Si Si4 0.935419 0.202850 0.706514
Si Si5 0.564408 0.946604 0.921149
Si Si6 0.435419 0.797150 0.706514
Si Si7 0.935634 0.756836 0.079490
Si Si8 0.936372 0.649528 0.333096
O O1 0.022225 0.097295 0.867793
O O2 0.995922 0.157818 0.754207
O O3 0.250000 0.154424 0.830914
O O4 0.997500 0.192985 0.883436
O O5 0.250000 0.050780 0.925522
O O6 0.000000 0.000000 0.899849
O O7 0.000000 0.064358 0.000000
O O8 0.002449 0.788165 0.371866
O O9 0.250000 0.742483 0.419905
O O10 0.000000 0.745964 0.500000
O O11 0.002500 0.692985 0.383436
O O12 0.250000 0.203960 0.294633
O O13 0.000000 0.250000 0.750000
O O14 0.522225 0.902705 0.867793
O O15 0.500000 0.000000 0.899849
O O16 0.500000 0.935642 0.000000
O O17 0.502449 0.788165 0.628134
O O18 0.495922 0.842182 0.754207
O O19 0.000000 0.754036 0.000000
#
# Coordination Sequence:
#
# PCOD9329505 Si02
#       8
#     8   8   8   8   8   8   8   8
#     4  10  19  31  45  63  85 114 147 179 215 256
#     4  10  20  31  45  62  85 113 145 182 218 253
#     4  11  20  30  44  63  87 115 145 179 213 254
#     4  10  18  29  44  62  84 112 142 176 213 253
#     4  10  20  31  45  62  85 113 145 182 218 253
#     4  10  18  29  44  62  84 112 142 176 213 253
#     4  11  20  30  44  63  87 115 145 179 213 254
#     4  10  19  31  45  63  85 114 147 179 215 256
#
# _framework density 14.538292
#
# number of rings (size 3 to 8) (size 9 to 14) (size 15 to 20)
#    0.000    1.750    0.000   10.500    0.000    6.000 
#    0.000    0.000    0.000    0.000    0.000    0.000 
#    0.000    1.000    0.000   10.500    0.000    5.750 
#
# Total GULP energy -178513.237711 kJ/mol
# GULP energy per Si atom -5578.538678 kJ/mol
# Density = 1.450520 g / cm^3
# Si number density = 14.538292 Si / 1000 Ang^3
#
#
#
# Elastic Constant Matrix: (Units=GPa)
#
#
# Indices 1 2 3 4 5 6 
#
# 1 110.8109 42.1597 47.9983 0.0000 0.0000 0.0000
# 2 42.1597 89.8553 57.9882 0.0000 0.0000 0.0000
# 3 47.9983 57.9882 112.3448 0.0000 0.0000 0.0000
# 4 0.0000 0.0000 0.0000 27.2175 0.0000 0.0000
# 5 0.0000 0.0000 0.0000 0.0000 25.6313 0.0000
# 6 0.0000 0.0000 0.0000 0.0000 0.0000 19.0397
#
#
#
# Elastic Compliance Matrix: (Units=1/GPa)
#
#
# Indices 1 2 3 4 5 6 
#
# 1 0.011729 -0.003403 -0.003255 0.000000 0.000000 0.000000
# 2 -0.003403 0.017675 -0.007669 0.000000 0.000000 0.000000
# 3 -0.003255 -0.007669 0.014250 0.000000 0.000000 0.000000
# 4 0.000000 0.000000 0.000000 0.036741 0.000000 0.000000
# 5 0.000000 0.000000 0.000000 0.000000 0.039015 0.000000
# 6 0.000000 0.000000 0.000000 0.000000 0.000000 0.052522
#
#
# Mechanical properties :
#
#
# Convention : Reuss Voigt Hill
#
# Bulk Modulus (GPa) = 66.66403 67.70038 67.18221
# Shear Modulus (GPa) = 24.32079 25.36870 24.84475
#
# Velocity S-wave (km/s) = 4.09452 4.18180 4.13839
# Velocity P-wave (km/s) = 8.26481 8.36568 8.31540
#
# Compressibility (1/GPa) = 0.01500059
#
# Stress axis : x y z
#
# Youngs Moduli (GPa) = 85.26052 56.57718 70.17370
#
# Poissons Ratio (x) = 0.19251 0.22839
# Poissons Ratio (y) = 0.29011 0.53819
# Poissons Ratio (z) = 0.27749 0.43391
#
# Static dielectric constant tensor:
#      x y z
#    x 1.484830 0.000000 0.000000 
#    y 0.000000 1.483350 0.000000 
#    z 0.000000 0.000000 1.499880 
# 
# From -- ./inp_files/13121.got.cif
#   From: 2010.05.17/outbox.cif.g08.bks.cpg/sg23_7_cif.got.tgz:13121.got - 2010.06.04 12:02:01.
