data_PCOD9329782
_publ_section_title
;
Structure prediction by ZEFSAII (Michael W. Deem and Ramdas Pophale) SiO2 
 PCOD9329782
Probable space group: I 2 2 2
;
_chemical_formula_sum "Si O2"
_cell_formula_units_Z 44
_cell_length_a 7.146020
_cell_length_b 18.768755
_cell_length_c 18.800522
_cell_angle_alpha 90.000000
_cell_angle_beta 90.000000
_cell_angle_gamma 90.000000
_cell_volume 2521.561705
_symmetry_space_group_name_H-M "I 2 2 2"
_symmetry_group_IT_number 23
_symmetry_cell_setting 'orthorhombic'
loop_
_space_group_symop_operation_xyz
x,y,z
-x,-y,z
x,-y,-z
-x,y,-z
1/2+x,1/2+y,1/2+z
1/2-x,1/2-y,1/2+z
1/2+x,1/2-y,1/2-z
1/2-x,1/2+y,1/2-z
loop_
_atom_site_type_symbol
_atom_site_label
_atom_site_fract_x
_atom_site_fract_y
_atom_site_fract_z
Si Si1 0.302489 0.356227 0.887464
Si Si2 0.221833 0.511337 0.884036
Si Si3 0.792925 0.343015 0.967137
Si Si4 0.500000 0.500000 0.755024
Si Si5 0.577589 0.206454 0.326626
Si Si6 0.563846 0.346158 0.751922
O O1 0.301136 0.437841 0.914615
O O2 0.457406 0.344283 0.828112
O O3 0.107645 0.338709 0.847003
O O4 0.316458 0.316751 0.962877
O O5 0.261641 0.582758 0.928107
O O6 0.321224 0.509943 0.807323
O O7 0.000000 0.500000 0.879438
O O8 0.815685 0.288153 0.902224
O O9 0.000000 0.356204 0.000000
O O10 0.505864 0.422761 0.718487
O O11 0.511142 0.280969 0.294732
O O12 0.718303 0.167802 0.271429
#
# Coordination Sequence:
#
# PCOD9329782 Si02
#       6
#     8   8   8   4   8   8
#     4  10  21  31  50  73 102 140 168 204 251 301
#     4  11  17  31  48  70 108 139 166 198 243 303
#     4  10  19  31  50  75 103 140 168 206 246 306
#     4  10  22  34  49  76 101 140 178 204 250 304
#     4  11  20  34  51  70 101 136 176 209 249 292
#     4  11  21  36  51  73 102 141 170 211 251 302
#
# _framework density 17.449504999999998
#
# number of rings (size 3 to 8) (size 9 to 14) (size 15 to 20)
#    0.000    1.455    7.273    0.545    0.000    0.727 
#    0.000    0.909    0.000    0.000    0.000    5.727 
#    0.000    0.000   18.545    0.000    0.000    0.000 
#
# Total GULP energy -122505.633658 kJ/mol
# GULP energy per Si atom -5568.437894 kJ/mol
# Density = 1.740979 g / cm^3
# Si number density = 17.449505 Si / 1000 Ang^3
#
#
#
# Elastic Constant Matrix: (Units=GPa)
#
#
# Indices 1 2 3 4 5 6 
#
# 1 76.0395 27.0089 19.9792 0.0000 0.0000 0.0000
# 2 27.0089 112.2509 47.2969 0.0000 0.0000 0.0000
# 3 19.9792 47.2969 62.7279 0.0000 0.0000 0.0000
# 4 0.0000 0.0000 0.0000 23.3475 0.0000 0.0000
# 5 0.0000 0.0000 0.0000 0.0000 25.0364 0.0000
# 6 0.0000 0.0000 0.0000 0.0000 0.0000 19.2534
#
#
#
# Elastic Compliance Matrix: (Units=1/GPa)
#
#
# Indices 1 2 3 4 5 6 
#
# 1 0.014746 -0.002300 -0.002963 0.000000 0.000000 0.000000
# 2 -0.002300 0.013415 -0.009383 0.000000 0.000000 0.000000
# 3 -0.002963 -0.009383 0.023960 0.000000 0.000000 0.000000
# 4 0.000000 0.000000 0.000000 0.042831 0.000000 0.000000
# 5 0.000000 0.000000 0.000000 0.000000 0.039942 0.000000
# 6 0.000000 0.000000 0.000000 0.000000 0.000000 0.051939
#
#
# Mechanical properties :
#
#
# Convention : Reuss Voigt Hill
#
# Bulk Modulus (GPa) = 43.79944 48.84313 46.32129
# Shear Modulus (GPa) = 22.34790 23.97635 23.16213
#
# Velocity S-wave (km/s) = 3.58260 3.71083 3.64728
# Velocity P-wave (km/s) = 6.50142 6.81265 6.65886
#
# Compressibility (1/GPa) = 0.02283134
#
# Stress axis : x y z
#
# Youngs Moduli (GPa) = 67.81319 74.54135 41.73608
#
# Poissons Ratio (x) = 0.17143 0.12365
# Poissons Ratio (y) = 0.15596 0.39160
# Poissons Ratio (z) = 0.20091 0.69940
#
# Static dielectric constant tensor:
#      x y z
#    x 1.722940 0.000000 0.000000 
#    y 0.000000 1.655440 0.000000 
#    z 0.000000 0.000000 1.617770 
# 
# From -- ./inp_files/23833.got.cif
#   From: 2010.05.17/outbox.cif.g08.bks.cpg/sg23_12_cif.got.tgz:23833.got - 2010.06.04 12:02:01.
