data_PCOD9329991
_publ_section_title
;
Structure prediction by ZEFSAII (Michael W. Deem and Ramdas Pophale) SiO2 
 PCOD9329991
Probable space group: I 2 2 2
;
_chemical_formula_sum "Si O2"
_cell_formula_units_Z 64
_cell_length_a 14.379136
_cell_length_b 16.526574
_cell_length_c 13.665924
_cell_angle_alpha 90.000000
_cell_angle_beta 90.000000
_cell_angle_gamma 90.000000
_cell_volume 3247.540868
_symmetry_space_group_name_H-M "I 2 2 2"
_symmetry_group_IT_number 23
_symmetry_cell_setting 'orthorhombic'
loop_
_space_group_symop_operation_xyz
x,y,z
-x,-y,z
x,-y,-z
-x,y,-z
1/2+x,1/2+y,1/2+z
1/2-x,1/2-y,1/2+z
1/2+x,1/2-y,1/2-z
1/2-x,1/2+y,1/2-z
loop_
_atom_site_type_symbol
_atom_site_label
_atom_site_fract_x
_atom_site_fract_y
_atom_site_fract_z
Si Si1 0.601598 0.754308 0.475753
Si Si2 0.857984 0.083382 0.958473
Si Si3 0.098437 0.907915 0.533829
Si Si4 0.002833 0.410195 0.335614
Si Si5 0.289491 0.283012 0.072948
Si Si6 0.353997 0.880995 0.005081
Si Si7 0.414461 0.249800 0.256528
Si Si8 0.047108 0.090216 0.247080
O O1 0.500000 0.787507 0.500000
O O2 0.599288 0.657346 0.482381
O O3 0.679870 0.776369 0.554882
O O4 0.624887 0.771733 0.363484
O O5 0.747655 0.086439 0.978809
O O6 0.885053 0.093102 0.845741
O O7 0.894438 0.000000 0.000000
O O8 0.178201 0.866607 0.472045
O O9 0.101131 0.901366 0.650232
O O10 0.000000 0.869627 0.500000
O O11 0.096035 0.000000 0.500000
O O12 0.101971 0.399860 0.389970
O O13 0.000000 0.500000 0.287754
O O14 0.926165 0.411372 0.423123
O O15 0.975146 0.328636 0.277101
O O16 0.340334 0.215024 0.006605
O O17 0.331086 0.266324 0.179862
O O18 0.476063 0.332873 0.259417
O O19 0.000000 0.000000 0.248620
#
# Coordination Sequence:
#
# PCOD9329991 Si02
#       8
#     8   8   8   8   8   8   8   8
#     4  11  24  44  62  89 132 169 209 266 323 385
#     4  11  23  37  61  93 133 164 208 259 335 401
#     4  11  20  37  63  96 134 165 213 268 311 371
#     4  10  19  35  63  87 125 166 213 265 319 365
#     4  10  22  38  64  91 126 166 216 257 321 387
#     4   9  19  36  59  94 126 162 203 269 323 380
#     4  11  22  40  65  93 124 168 218 260 325 394
#     4  12  22  36  66  97 130 173 203 258 337 392
#
# _framework density 19.70722
#
# number of rings (size 3 to 8) (size 9 to 14) (size 15 to 20)
#    0.000    1.375    3.750    3.000    1.750    3.000 
#    4.500    0.000    5.500    0.000    0.000    0.000 
#    0.000    0.000    0.000    0.000    0.000    0.000 
#
# Total GULP energy -178505.460906 kJ/mol
# GULP energy per Si atom -5578.295653 kJ/mol
# Density = 1.966237 g / cm^3
# Si number density = 19.707220 Si / 1000 Ang^3
#
#
#
# Elastic Constant Matrix: (Units=GPa)
#
#
# Indices 1 2 3 4 5 6 
#
# 1 120.9730 29.6571 44.1797 0.0000 0.0000 0.0000
# 2 29.6571 91.7086 16.8836 0.0000 0.0000 0.0000
# 3 44.1797 16.8836 136.4002 0.0000 0.0000 0.0000
# 4 0.0000 0.0000 0.0000 20.4026 0.0000 0.0000
# 5 0.0000 0.0000 0.0000 0.0000 22.0307 0.0000
# 6 0.0000 0.0000 0.0000 0.0000 0.0000 -1.7554
#
#
#
# Elastic Compliance Matrix: (Units=1/GPa)
#
#
# Indices 1 2 3 4 5 6 
#
# 1 0.009987 -0.002695 -0.002901 0.000000 0.000000 0.000000
# 2 -0.002695 0.011886 -0.000598 0.000000 0.000000 0.000000
# 3 -0.002901 -0.000598 0.008345 0.000000 0.000000 0.000000
# 4 0.000000 0.000000 0.000000 0.049013 0.000000 0.000000
# 5 0.000000 0.000000 0.000000 0.000000 0.045391 0.000000
# 6 0.000000 0.000000 0.000000 0.000000 0.000000 -0.569680
#
#
# Mechanical properties :
#
#
# Convention : Reuss Voigt Hill
#
# Bulk Modulus (GPa) = 56.09067 58.94697 57.51882
# Shear Modulus (GPa) = -11.71713 25.35968 6.82127
#
# Velocity S-wave (km/s) = -2.44101 3.59112 1.86248
# Velocity P-wave (km/s) = 4.53642 6.86813 5.82023
#
# Compressibility (1/GPa) = 0.01782828
#
# Stress axis : x y z
#
# Youngs Moduli (GPa) = 100.13463 84.13336 119.83177
#
# Poissons Ratio (x) = 0.22678 0.34763
# Poissons Ratio (y) = 0.26991 0.07168
# Poissons Ratio (z) = 0.29049 0.05033
#
# Static dielectric constant tensor:
#      x y z
#    x 1.835900 0.000000 0.000000 
#    y 0.000000 1.775680 0.000000 
#    z 0.000000 0.000000 1.695780 
# 
# From -- ./inp_files/16957.got.cif
#   From: 2010.05.17/outbox.cif.g08.bks.cpg/sg23_9_cif.got.tgz:16957.got - 2010.06.04 12:02:01.
