data_PCOD9329385
_publ_section_title
;
Structure prediction by ZEFSAII (Michael W. Deem and Ramdas Pophale) SiO2 
 PCOD9329385
Probable space group: I 2 2 2
;
_chemical_formula_sum "Si O2"
_cell_formula_units_Z 40
_cell_length_a 8.190421
_cell_length_b 27.017292
_cell_length_c 8.050990
_cell_angle_alpha 90.000000
_cell_angle_beta 90.000000
_cell_angle_gamma 90.000000
_cell_volume 1781.547186
_symmetry_space_group_name_H-M "I 2 2 2"
_symmetry_group_IT_number 23
_symmetry_cell_setting 'orthorhombic'
loop_
_space_group_symop_operation_xyz
x,y,z
-x,-y,z
x,-y,-z
-x,y,-z
1/2+x,1/2+y,1/2+z
1/2-x,1/2-y,1/2+z
1/2+x,1/2-y,1/2-z
1/2-x,1/2+y,1/2-z
loop_
_atom_site_type_symbol
_atom_site_label
_atom_site_fract_x
_atom_site_fract_y
_atom_site_fract_z
Si Si1 0.207686 0.646139 0.211585
Si Si2 0.237501 0.424134 0.105370
Si Si3 0.943325 0.841438 0.691931
Si Si4 0.500000 0.000000 0.500000
Si Si5 0.828649 0.758487 0.900330
Si Si6 0.500000 0.500000 0.000000
Si Si7 0.500000 0.181009 0.000000
O O1 0.390401 0.645140 0.288597
O O2 0.198458 0.700554 0.127142
O O3 0.064781 0.647850 0.346537
O O4 0.200910 0.603981 0.070939
O O5 0.297865 0.380073 0.221904
O O6 0.389024 0.461923 0.099533
O O7 0.094689 0.463023 0.122080
O O8 0.876539 0.787629 0.732565
O O9 0.000000 0.846012 0.500000
O O10 0.661349 0.785670 0.957419
O O11 0.000000 0.763430 0.000000
#
# Coordination Sequence:
#
# PCOD9329385 Si02
#       7
#     8   8   8   2   8   2   4
#     4  11  24  40  67  94 139 181 236 283 337 420
#     4  10  22  39  67 103 133 174 228 293 352 400
#     4  10  22  43  67  95 140 181 229 286 343 408
#     4  10  24  38  64 104 136 174 232 310 350 396
#     4  12  27  42  64  96 146 194 229 277 338 419
#     4  10  16  40  68  98 126 162 230 282 358 392
#     4  12  28  41  64  99 134 193 237 270 342 424
#
# _framework density 22.452396
#
# number of rings (size 3 to 8) (size 9 to 14) (size 15 to 20)
#    0.000    1.200    5.000    1.200   15.400    0.000 
#    0.000    0.000    0.000    0.600    0.000    4.900 
#    0.000    0.000    0.000    0.000    0.000    0.000 
#
# Total GULP energy -111527.560015 kJ/mol
# GULP energy per Si atom -5576.378001 kJ/mol
# Density = 2.240129 g / cm^3
# Si number density = 22.452396 Si / 1000 Ang^3
#
#
#
# Elastic Constant Matrix: (Units=GPa)
#
#
# Indices 1 2 3 4 5 6 
#
# 1 171.5996 50.4260 39.1655 0.0007 0.0004 -0.0014
# 2 50.4260 143.0801 32.8453 0.0004 0.0006 -0.0019
# 3 39.1655 32.8453 41.9429 0.0067 0.0029 -0.0069
# 4 0.0007 0.0004 0.0067 -1.7105 0.0012 -0.0032
# 5 0.0004 0.0006 0.0029 0.0012 25.5083 -0.0014
# 6 -0.0014 -0.0019 -0.0069 -0.0032 -0.0014 -45.6560
#
#
#
# Elastic Compliance Matrix: (Units=1/GPa)
#
#
# Indices 1 2 3 4 5 6 
#
# 1 0.007593 -0.001278 -0.006089 -0.000021 0.000001 0.000001
# 2 -0.001278 0.008736 -0.005648 -0.000021 0.000000 0.000001
# 3 -0.006089 -0.005648 0.033950 0.000130 -0.000004 -0.000005
# 4 -0.000021 -0.000021 0.000130 -0.584636 0.000027 0.000041
# 5 0.000001 0.000000 -0.000004 0.000027 0.039203 -0.000001
# 6 0.000001 0.000001 -0.000005 0.000041 -0.000001 -0.021903
#
#
# Mechanical properties :
#
#
# Convention : Reuss Voigt Hill
#
# Bulk Modulus (GPa) = 41.23794 66.83292 54.03543
# Shear Modulus (GPa) = -10.35318 11.24077 0.44380
#
# Velocity S-wave (km/s) = -2.14969 2.23995 0.44507
# Velocity P-wave (km/s) = 3.49930 6.04325 4.93792
#
# Compressibility (1/GPa) = 0.02424951
#
# Stress axis : x y z
#
# Youngs Moduli (GPa) = 131.70198 114.46874 29.45465
#
# Poissons Ratio (x) = 0.14631 0.17936
# Poissons Ratio (y) = 0.16834 0.16635
# Poissons Ratio (z) = 0.80196 0.64647
#
# Static dielectric constant tensor:
#      x y z
#    x 2.010380 0.000000 0.000000 
#    y 0.000000 1.876750 0.000000 
#    z 0.000000 0.000000 1.922030 
# 
# From -- ./inp_files/7160.got.cif
#   From: 2010.05.17/outbox.cif.g08.bks.cpg/sg23_4_cif.got.tgz:7160.got - 2010.06.04 12:02:01.
