data_PCOD9329005
_publ_section_title
;
Structure prediction by ZEFSAII (Michael W. Deem and Ramdas Pophale) SiO2 
 PCOD9329005
Probable space group: F 2 2 2
;
_chemical_formula_sum "Si O2"
_cell_formula_units_Z 88
_cell_length_a 16.348860
_cell_length_b 24.860644
_cell_length_c 10.727635
_cell_angle_alpha 90.000000
_cell_angle_beta 90.000000
_cell_angle_gamma 90.000000
_cell_volume 4360.174172
_symmetry_space_group_name_H-M "F 2 2 2"
_symmetry_group_IT_number 22
_symmetry_cell_setting 'orthorhombic'
loop_
_space_group_symop_operation_xyz
x,y,z
-x,-y,z
x,-y,-z
-x,y,-z
x,1/2+y,1/2+z
-x,1/2-y,1/2+z
x,1/2-y,1/2-z
-x,1/2+y,1/2-z
1/2+x,y,1/2+z
1/2-x,-y,1/2+z
1/2+x,-y,1/2-z
1/2-x,y,1/2-z
1/2+x,1/2+y,z
1/2-x,1/2-y,z
1/2+x,1/2-y,-z
1/2-x,1/2+y,-z
loop_
_atom_site_type_symbol
_atom_site_label
_atom_site_fract_x
_atom_site_fract_y
_atom_site_fract_z
Si Si1 0.490674 0.056912 0.709212
Si Si2 0.632399 0.442462 0.998292
Si Si3 0.720639 0.339749 0.886128
Si Si4 0.615790 0.250000 0.750000
Si Si5 0.201601 0.806963 0.366045
Si Si6 0.013501 0.333202 0.856422
O O1 0.405788 0.063669 0.635021
O O2 0.559086 0.050911 0.601635
O O3 0.500900 0.111313 0.784134
O O4 0.500000 0.000000 0.780406
O O5 0.672850 0.388024 0.951889
O O6 0.679021 0.500000 0.000000
O O7 0.750000 0.358795 0.750000
O O8 0.669309 0.286068 0.846637
O O9 0.787468 0.327837 0.992450
O O10 0.555425 0.291103 0.683017
O O11 0.250000 0.835306 0.250000
O O12 0.250000 0.750000 0.372529
O O13 0.105171 0.809367 0.335656
O O14 0.000000 0.344505 0.000000
#
# Coordination Sequence:
#
# PCOD9329005 Si02
#       6
#    16  16  16   8  16  16
#     4   9  19  39  65  93 124 166 223 279 324 389
#     4   9  19  39  66  91 119 169 228 266 319 403
#     4  12  23  41  66  94 135 175 220 280 345 405
#     4  12  25  42  67  96 130 186 228 270 329 416
#     4  11  24  42  59  90 139 178 214 271 345 406
#     4  12  24  39  64 100 129 166 228 280 334 397
#
# _framework density 20.182679
#
# number of rings (size 3 to 8) (size 9 to 14) (size 15 to 20)
#    0.000    1.273    1.818    6.818    0.000    1.818 
#    0.000    4.545    0.000    0.000    0.000    0.000 
#    0.000    0.000    0.000    0.000    0.000    0.000 
#
# Total GULP energy -122569.448430 kJ/mol
# GULP energy per Si atom -5571.338565 kJ/mol
# Density = 2.013674 g / cm^3
# Si number density = 20.182679 Si / 1000 Ang^3
#
#
#
# Elastic Constant Matrix: (Units=GPa)
#
#
# Indices 1 2 3 4 5 6 
#
# 1 83.6081 37.5320 14.0566 0.0000 0.0000 0.0000
# 2 37.5320 162.3009 40.4025 0.0000 0.0000 0.0000
# 3 14.0566 40.4025 103.7031 0.0000 0.0000 0.0000
# 4 0.0000 0.0000 0.0000 21.4312 0.0000 0.0000
# 5 0.0000 0.0000 0.0000 0.0000 35.6086 0.0000
# 6 0.0000 0.0000 0.0000 0.0000 0.0000 13.8131
#
#
#
# Elastic Compliance Matrix: (Units=1/GPa)
#
#
# Indices 1 2 3 4 5 6 
#
# 1 0.013388 -0.002928 -0.000674 0.000000 0.000000 0.000000
# 2 -0.002928 0.007464 -0.002511 0.000000 0.000000 0.000000
# 3 -0.000674 -0.002511 0.010712 0.000000 0.000000 0.000000
# 4 0.000000 0.000000 0.000000 0.046661 0.000000 0.000000
# 5 0.000000 0.000000 0.000000 0.000000 0.028083 0.000000
# 6 0.000000 0.000000 0.000000 0.000000 0.000000 0.072395
#
#
# Mechanical properties :
#
#
# Convention : Reuss Voigt Hill
#
# Bulk Modulus (GPa) = 51.71075 59.28825 55.49950
# Shear Modulus (GPa) = 25.33235 31.34531 28.33883
#
# Velocity S-wave (km/s) = 3.54666 3.94519 3.75122
# Velocity P-wave (km/s) = 6.51526 7.08465 6.80591
#
# Compressibility (1/GPa) = 0.01933834
#
# Stress axis : x y z
#
# Youngs Moduli (GPa) = 74.69159 133.98341 93.34894
#
# Poissons Ratio (x) = 0.39234 0.06291
# Poissons Ratio (y) = 0.21872 0.23439
# Poissons Ratio (z) = 0.05033 0.33642
#
# Static dielectric constant tensor:
#      x y z
#    x 1.749260 0.000000 0.000000 
#    y 0.000000 1.825570 0.000000 
#    z 0.000000 0.000000 1.735470 
# 
# From -- ./inp_files/19967.got.cif
#   From: 2010.05.17/outbox.cif.g08.bks.cpg/sg22_10_cif.got.tgz:19967.got - 2010.06.03 23:40:54.
