data_PCOD9329518
_publ_section_title
;
Structure prediction by ZEFSAII (Michael W. Deem and Ramdas Pophale) SiO2 
 PCOD9329518
Probable space group: I 2 2 2
;
_chemical_formula_sum "Si O2"
_cell_formula_units_Z 56
_cell_length_a 5.229816
_cell_length_b 16.203317
_cell_length_c 34.217014
_cell_angle_alpha 90.000000
_cell_angle_beta 90.000000
_cell_angle_gamma 90.000000
_cell_volume 2899.562307
_symmetry_space_group_name_H-M "I 2 2 2"
_symmetry_group_IT_number 23
_symmetry_cell_setting 'orthorhombic'
loop_
_space_group_symop_operation_xyz
x,y,z
-x,-y,z
x,-y,-z
-x,y,-z
1/2+x,1/2+y,1/2+z
1/2-x,1/2-y,1/2+z
1/2+x,1/2-y,1/2-z
1/2-x,1/2+y,1/2-z
loop_
_atom_site_type_symbol
_atom_site_label
_atom_site_fract_x
_atom_site_fract_y
_atom_site_fract_z
Si Si1 0.741204 0.736315 0.274543
Si Si2 0.420071 0.210628 0.117166
Si Si3 0.075880 0.292416 0.853785
Si Si4 0.593209 0.906492 0.427043
Si Si5 0.092232 0.821252 0.457049
Si Si6 0.754390 0.525331 0.610054
Si Si7 0.250486 0.452901 0.302690
O O1 0.518404 0.742209 0.242326
O O2 0.656401 0.798655 0.308959
O O3 0.746815 0.642929 0.291768
O O4 0.712049 0.226658 0.130032
O O5 0.411450 0.245517 0.073274
O O6 0.302314 0.119800 0.120460
O O7 0.217322 0.263232 0.142538
O O8 0.095471 0.369404 0.883088
O O9 0.376988 0.858122 0.452244
O O10 0.876957 0.887763 0.443140
O O11 0.500000 0.000000 0.427208
O O12 0.000000 0.797414 0.500000
O O13 0.500000 0.500000 0.588796
O O14 0.748848 0.470546 0.650243
O O15 0.000000 0.500000 0.586046
O O16 0.500000 0.500000 0.287555
O O17 0.000000 0.500000 0.287817
#
# Coordination Sequence:
#
# PCOD9329518 Si02
#       7
#     8   8   8   8   8   8   8
#     4  12  24  38  57  84 115 150 189 240 301 351
#     4  10  19  35  58  83 111 145 185 228 277 335
#     4  10  20  37  56  77 109 149 192 233 279 341
#     4  10  21  36  57  82 112 153 197 237 275 327
#     4  10  21  35  56  87 118 150 185 228 285 336
#     4  10  18  29  52  82 104 131 174 225 269 313
#     4  10  19  34  55  78 105 136 179 233 279 327
#
# _framework density 19.313261000000001
#
# number of rings (size 3 to 8) (size 9 to 14) (size 15 to 20)
#    0.000    1.714    0.000    6.857    0.000    1.714 
#    0.000    2.143    0.000    2.143    0.000    1.000 
#    0.000    0.000    0.000    0.000    0.000    0.000 
#
# Total GULP energy -156068.906164 kJ/mol
# GULP energy per Si atom -5573.889506 kJ/mol
# Density = 1.926930 g / cm^3
# Si number density = 19.313261 Si / 1000 Ang^3
#
#
#
# Elastic Constant Matrix: (Units=GPa)
#
#
# Indices 1 2 3 4 5 6 
#
# 1 123.8780 14.6040 6.3497 0.0000 0.0000 0.0000
# 2 14.6040 74.2403 21.3027 0.0000 0.0000 0.0000
# 3 6.3497 21.3027 72.6091 0.0000 0.0000 0.0000
# 4 0.0000 0.0000 0.0000 7.7025 0.0000 0.0000
# 5 0.0000 0.0000 0.0000 0.0000 12.1509 0.0000
# 6 0.0000 0.0000 0.0000 0.0000 0.0000 28.6393
#
#
#
# Elastic Compliance Matrix: (Units=1/GPa)
#
#
# Indices 1 2 3 4 5 6 
#
# 1 0.008269 -0.001550 -0.000268 0.000000 0.000000 0.000000
# 2 -0.001550 0.014998 -0.004265 0.000000 0.000000 0.000000
# 3 -0.000268 -0.004265 0.015047 0.000000 0.000000 0.000000
# 4 0.000000 0.000000 0.000000 0.129828 0.000000 0.000000
# 5 0.000000 0.000000 0.000000 0.000000 0.082299 0.000000
# 6 0.000000 0.000000 0.000000 0.000000 0.000000 0.034917
#
#
# Mechanical properties :
#
#
# Convention : Reuss Voigt Hill
#
# Bulk Modulus (GPa) = 38.24296 39.47110 38.85703
# Shear Modulus (GPa) = 16.32706 24.92993 20.62850
#
# Velocity S-wave (km/s) = 2.91070 3.59670 3.27173
# Velocity P-wave (km/s) = 5.58038 6.14247 5.86816
#
# Compressibility (1/GPa) = 0.02614860
#
# Stress axis : x y z
#
# Youngs Moduli (GPa) = 120.93507 66.67396 66.45794
#
# Poissons Ratio (x) = 0.10331 0.01784
# Poissons Ratio (y) = 0.18740 0.28343
# Poissons Ratio (z) = 0.03247 0.28435
#
# Static dielectric constant tensor:
#      x y z
#    x 1.784040 0.000000 0.000000 
#    y 0.000000 1.684770 0.000000 
#    z 0.000000 0.000000 1.677870 
# 
# From -- ./inp_files/2743.got.cif
#   From: 2010.05.17/outbox.cif.g08.bks.cpg/sg23_2_cif.got.tgz:2743.got - 2010.06.04 12:02:01.
