data_PCOD9329454
_publ_section_title
;
Structure prediction by ZEFSAII (Michael W. Deem and Ramdas Pophale) SiO2 
 PCOD9329454
Probable space group: I 2 2 2
;
_chemical_formula_sum "Si O2"
_cell_formula_units_Z 48
_cell_length_a 13.323378
_cell_length_b 15.075328
_cell_length_c 11.268427
_cell_angle_alpha 90.000000
_cell_angle_beta 90.000000
_cell_angle_gamma 90.000000
_cell_volume 2263.311943
_symmetry_space_group_name_H-M "I 2 2 2"
_symmetry_group_IT_number 23
_symmetry_cell_setting 'orthorhombic'
loop_
_space_group_symop_operation_xyz
x,y,z
-x,-y,z
x,-y,-z
-x,y,-z
1/2+x,1/2+y,1/2+z
1/2-x,1/2-y,1/2+z
1/2+x,1/2-y,1/2-z
1/2-x,1/2+y,1/2-z
loop_
_atom_site_type_symbol
_atom_site_label
_atom_site_fract_x
_atom_site_fract_y
_atom_site_fract_z
Si Si1 0.295659 0.359339 0.751446
Si Si2 0.875348 0.221874 0.281034
Si Si3 0.489214 0.864867 0.634914
Si Si4 0.829913 0.513686 0.175380
Si Si5 0.504639 0.400331 0.640486
Si Si6 0.848068 0.096002 0.481279
O O1 0.229418 0.274125 0.716999
O O2 0.232683 0.452105 0.731145
O O3 0.402551 0.356613 0.688210
O O4 0.315985 0.364610 0.892618
O O5 0.950623 0.295240 0.230477
O O6 0.900046 0.171752 0.403176
O O7 0.893043 0.144632 0.184738
O O8 0.500000 0.827952 0.500000
O O9 0.585847 0.911380 0.693936
O O10 0.401126 0.938025 0.617025
O O11 0.747862 0.564394 0.096670
O O12 0.500000 0.500000 0.688304
O O13 0.500000 0.400969 0.500000
O O14 0.898738 0.000000 0.500000
#
# Coordination Sequence:
#
# PCOD9329454 Si02
#       6
#     8   8   8   8   8   8
#     4  10  22  39  63  95 131 171 220 274 326 386
#     4  11  24  36  63  99 128 174 217 275 327 380
#     4  10  17  31  58  98 137 167 224 274 322 382
#     4   9  17  33  61  93 130 178 215 270 326 382
#     4  11  25  44  65  93 131 174 220 263 334 403
#     4  10  20  38  63  89 130 176 219 260 331 382
#
# _framework density 21.207858999999999
#
# number of rings (size 3 to 8) (size 9 to 14) (size 15 to 20)
#    0.000    1.833    0.000    7.500    4.667    0.667 
#    0.000    3.333    0.000    0.000    0.000    0.000 
#    0.000    0.000    0.000    0.000    0.000    0.000 
#
# Total GULP energy -133709.097278 kJ/mol
# GULP energy per Si atom -5571.212387 kJ/mol
# Density = 2.115959 g / cm^3
# Si number density = 21.207859 Si / 1000 Ang^3
#
#
#
# Elastic Constant Matrix: (Units=GPa)
#
#
# Indices 1 2 3 4 5 6 
#
# 1 105.0178 40.4990 20.5442 0.0000 0.0000 0.0000
# 2 40.4990 124.0583 43.0668 0.0000 0.0000 0.0000
# 3 20.5442 43.0668 72.1791 0.0000 0.0000 0.0000
# 4 0.0000 0.0000 0.0000 32.4000 0.0000 0.0000
# 5 0.0000 0.0000 0.0000 0.0000 13.1345 0.0000
# 6 0.0000 0.0000 0.0000 0.0000 0.0000 0.4299
#
#
#
# Elastic Compliance Matrix: (Units=1/GPa)
#
#
# Indices 1 2 3 4 5 6 
#
# 1 0.010982 -0.003153 -0.001244 0.000000 0.000000 0.000000
# 2 -0.003153 0.011072 -0.005709 0.000000 0.000000 0.000000
# 3 -0.001244 -0.005709 0.017615 0.000000 0.000000 0.000000
# 4 0.000000 0.000000 0.000000 0.030864 0.000000 0.000000
# 5 0.000000 0.000000 0.000000 0.000000 0.076136 0.000000
# 6 0.000000 0.000000 0.000000 0.000000 0.000000 2.325880
#
#
# Mechanical properties :
#
#
# Convention : Reuss Voigt Hill
#
# Bulk Modulus (GPa) = 51.39807 56.60834 54.00320
# Shear Modulus (GPa) = 2.00060 22.33589 12.16825
#
# Velocity S-wave (km/s) = 0.97231 3.24881 2.39793
# Velocity P-wave (km/s) = 5.05455 6.38930 5.76071
#
# Compressibility (1/GPa) = 0.01945598
#
# Stress axis : x y z
#
# Youngs Moduli (GPa) = 91.06198 90.31958 56.77036
#
# Poissons Ratio (x) = 0.28477 0.07065
# Poissons Ratio (y) = 0.28711 0.32409
# Poissons Ratio (z) = 0.11332 0.51561
#
# Static dielectric constant tensor:
#      x y z
#    x 1.817600 0.000000 0.000000 
#    y 0.000000 1.849690 0.000000 
#    z 0.000000 0.000000 1.759150 
# 
# From -- ./inp_files/16712.got.cif
#   From: 2010.05.17/outbox.cif.g08.bks.cpg/sg23_9_cif.got.tgz:16712.got - 2010.06.04 12:02:01.
