data_PCOD9329076
_publ_section_title
;
Structure prediction by ZEFSAII (Michael W. Deem and Ramdas Pophale) SiO2 
 PCOD9329076
Probable space group: F 2 2 2
;
_chemical_formula_sum "Si O2"
_cell_formula_units_Z 120
_cell_length_a 8.835971
_cell_length_b 27.138532
_cell_length_c 25.820580
_cell_angle_alpha 90.000000
_cell_angle_beta 90.000000
_cell_angle_gamma 90.000000
_cell_volume 6191.653256
_symmetry_space_group_name_H-M "F 2 2 2"
_symmetry_group_IT_number 22
_symmetry_cell_setting 'orthorhombic'
loop_
_space_group_symop_operation_xyz
x,y,z
-x,-y,z
x,-y,-z
-x,y,-z
x,1/2+y,1/2+z
-x,1/2-y,1/2+z
x,1/2-y,1/2-z
-x,1/2+y,1/2-z
1/2+x,y,1/2+z
1/2-x,-y,1/2+z
1/2+x,-y,1/2-z
1/2-x,y,1/2-z
1/2+x,1/2+y,z
1/2-x,1/2-y,z
1/2+x,1/2-y,-z
1/2-x,1/2+y,-z
loop_
_atom_site_type_symbol
_atom_site_label
_atom_site_fract_x
_atom_site_fract_y
_atom_site_fract_z
Si Si1 0.100319 0.415034 0.051216
Si Si2 0.663636 0.380530 0.385530
Si Si3 0.805236 0.196926 0.190834
Si Si4 0.400944 0.141402 0.448384
Si Si5 0.611738 0.288729 0.450368
Si Si6 0.243498 0.500000 0.500000
Si Si7 0.583818 0.769539 0.369542
Si Si8 0.081286 0.550062 0.411586
O O1 0.230336 0.375336 0.043877
O O2 0.002666 0.402018 0.101802
O O3 0.167382 0.470174 0.044297
O O4 0.000000 0.412485 0.000000
O O5 0.718746 0.346989 0.338133
O O6 0.683555 0.341209 0.433057
O O7 0.772487 0.427825 0.384102
O O8 0.750000 0.193958 0.250000
O O9 0.750000 0.250000 0.171267
O O10 0.982894 0.203473 0.175319
O O11 0.500000 0.148124 0.500000
O O12 0.400571 0.189927 0.414361
O O13 0.469522 0.095843 0.415904
O O14 0.500000 0.290284 0.500000
O O15 0.750000 0.250000 0.458367
O O16 0.508952 0.272801 0.400679
O O17 0.142103 0.538437 0.469266
O O18 0.750000 0.750000 0.353290
O O19 0.000000 0.500000 0.393159
#
# Coordination Sequence:
#
# PCOD9329076 Si02
#       8
#    16  16  16  16  16   8  16  16
#     4  12  24  33  57  90 136 179 228 269 314 386
#     4  12  23  41  63  92 125 168 227 277 335 398
#     4  11  24  49  77  95 123 167 223 285 346 404
#     4  12  22  38  59  90 138 191 220 260 318 386
#     4  12  23  39  57  90 140 188 221 258 317 403
#     4  12  22  36  52  90 132 186 234 268 314 386
#     4  12  24  41  66  99 134 165 222 275 333 405
#     4  12  22  37  59  86 132 180 227 270 316 386
#
# _framework density 19.380931
#
# number of rings (size 3 to 8) (size 9 to 14) (size 15 to 20)
#    0.000    0.133    8.000    2.400    0.000    3.200 
#    0.000    2.000    0.000    0.000    3.467    0.000 
#    0.000    0.000    0.000    0.000    0.000    0.000 
#
# Total GULP energy -167366.623095 kJ/mol
# GULP energy per Si atom -5578.887437 kJ/mol
# Density = 1.933682 g / cm^3
# Si number density = 19.380931 Si / 1000 Ang^3
#
#
#
# Elastic Constant Matrix: (Units=GPa)
#
#
# Indices 1 2 3 4 5 6 
#
# 1 123.8522 32.8350 45.4355 0.0000 0.0000 0.0000
# 2 32.8350 104.1711 17.5448 0.0000 0.0000 0.0000
# 3 45.4355 17.5448 72.8237 0.0000 0.0000 0.0000
# 4 0.0000 0.0000 0.0000 22.5633 0.0000 0.0000
# 5 0.0000 0.0000 0.0000 0.0000 12.9034 0.0000
# 6 0.0000 0.0000 0.0000 0.0000 0.0000 37.9953
#
#
#
# Elastic Compliance Matrix: (Units=1/GPa)
#
#
# Indices 1 2 3 4 5 6 
#
# 1 0.011024 -0.002414 -0.006296 0.000000 0.000000 0.000000
# 2 -0.002414 0.010534 -0.001032 0.000000 0.000000 0.000000
# 3 -0.006296 -0.001032 0.017909 0.000000 0.000000 0.000000
# 4 0.000000 0.000000 0.000000 0.044320 0.000000 0.000000
# 5 0.000000 0.000000 0.000000 0.000000 0.077499 0.000000
# 6 0.000000 0.000000 0.000000 0.000000 0.000000 0.026319
#
#
# Mechanical properties :
#
#
# Convention : Reuss Voigt Hill
#
# Bulk Modulus (GPa) = 50.04390 54.71972 52.38181
# Shear Modulus (GPa) = 23.39179 28.36118 25.87648
#
# Velocity S-wave (km/s) = 3.47789 3.82953 3.65794
# Velocity P-wave (km/s) = 6.48111 6.91729 6.70275
#
# Compressibility (1/GPa) = 0.01998246
#
# Stress axis : x y z
#
# Youngs Moduli (GPa) = 90.71078 94.92754 55.83884
#
# Poissons Ratio (x) = 0.22919 0.35158
# Poissons Ratio (y) = 0.21901 0.05760
# Poissons Ratio (z) = 0.57115 0.09793
#
# Static dielectric constant tensor:
#      x y z
#    x 1.845570 0.000000 0.000000 
#    y 0.000000 1.757030 0.000000 
#    z 0.000000 0.000000 1.675300 
# 
# From -- ./inp_files/52189.got.cif
#   From: 2010.05.17/outbox.cif.g08.bks.cpg/sg22_27_cif.got.tgz:52189.got - 2010.06.03 23:40:54.
