data_PCOD9329293
_publ_section_title
;
Structure prediction by ZEFSAII (Michael W. Deem and Ramdas Pophale) SiO2 
 PCOD9329293
Probable space group: F 2 2 2
;
_chemical_formula_sum "Si O2"
_cell_formula_units_Z 29
_cell_length_a 27.000000
_cell_length_b 24.000000
_cell_length_c 9.000000
_cell_angle_alpha 90.000000
_cell_angle_beta 90.000000
_cell_angle_gamma 90.000000
_cell_volume 5832.000000
_symmetry_space_group_name_H-M "F 2 2 2"
_symmetry_group_IT_number 22
_symmetry_cell_setting 'orthorhombic'
loop_
_space_group_symop_operation_xyz
x,y,z
-x,-y,z
x,-y,-z
-x,y,-z
x,1/2+y,1/2+z
-x,1/2-y,1/2+z
x,1/2-y,1/2-z
-x,1/2+y,1/2-z
1/2+x,y,1/2+z
1/2-x,-y,1/2+z
1/2+x,-y,1/2-z
1/2-x,y,1/2-z
1/2+x,1/2+y,z
1/2-x,1/2-y,z
1/2+x,1/2-y,-z
1/2-x,1/2+y,-z
loop_
_atom_site_type_symbol
_atom_site_label
_atom_site_fract_x
_atom_site_fract_y
_atom_site_fract_z
Si Si1 0.750000 0.750000 0.250000
Si Si2 0.563037 0.395794 0.397608
Si Si3 0.628869 0.929947 0.367622
Si Si4 0.388404 0.720178 0.408581
Si Si5 0.528800 0.058473 0.791627
Si Si6 0.837885 0.810366 0.077242
Si Si7 0.349458 0.046772 0.714570
Si Si8 0.804896 0.656758 0.752107
O O1 0.788103 0.786361 0.150853
O O2 0.576493 0.332486 0.436352
O O3 0.514729 0.396239 0.293374
O O4 0.553678 0.430556 0.547841
O O5 0.604702 0.428800 0.307285
O O6 0.570931 0.936818 0.330788
O O7 0.644732 0.866229 0.337762
O O8 0.639758 0.941945 0.540482
O O9 0.655242 0.979990 0.274768
O O10 0.401695 0.750000 0.250000
O O11 0.378940 0.762337 0.545052
O O12 0.336115 0.689397 0.374433
O O13 0.500000 0.000000 0.784817
O O14 0.827477 0.829007 0.907915
O O15 0.307246 0.089687 0.767019
O O16 0.750000 0.677611 0.750000
#
# Coordination Sequence:
#
# PCOD9329293 Si02
#       8
#     4  16  16  16  16  16  16  16
#     4  12  24  36  54  84 116 164 196 230 270 368
#     4  10  20  36  59  86 113 148 199 247 287 345
#     4  10  21  38  58  83 121 155 187 238 302 352
#     4   9  19  37  61  82 111 150 195 247 292 341
#     4  11  22  37  58  88 116 149 192 243 291 357
#     4  10  22  37  56  83 120 156 197 239 290 354
#     4   9  19  36  59  86 116 151 190 243 297 354
#     4   9  17  35  62  87 108 145 199 250 290 341
#
# _framework density 4.9725650000000003
#
# number of rings (size 3 to 8) (size 9 to 14) (size 15 to 20)
#    0.000    2.207    1.379    2.483    1.931    2.483 
#    1.241    2.759    0.000    0.000    0.000    0.000 
#    0.000    0.000    0.000    0.000    0.000    0.000 
#
# Total GULP energy -161542.308110 kJ/mol
# GULP energy per Si atom -5570.424418 kJ/mol
# Density = 0.496125 g / cm^3
# Si number density = 4.972565 Si / 1000 Ang^3
#
#
#
# Elastic Constant Matrix: (Units=GPa)
#
#
# Indices 1 2 3 4 5 6 
#
# 1 41.6000 30.0213 -13.8952 -0.0048 0.0160 -0.0012
# 2 30.0213 165.9235 13.3698 -0.0053 0.0144 -0.0005
# 3 -13.8952 13.3698 3.7970 -0.0108 0.0340 -0.0018
# 4 -0.0048 -0.0053 -0.0108 6.2530 0.0304 -0.0016
# 5 0.0160 0.0144 0.0340 0.0304 6.7718 0.0042
# 6 -0.0012 -0.0005 -0.0018 -0.0016 0.0042 15.9211
#
#
#
# Elastic Compliance Matrix: (Units=1/GPa)
#
#
# Indices 1 2 3 4 5 6 
#
# 1 -0.016207 0.010767 -0.097226 -0.000174 0.000504 -0.000012
# 2 0.010767 0.001262 0.034960 0.000071 -0.000204 0.000005
# 3 -0.097226 0.034960 -0.215545 -0.000424 0.001239 -0.000031
# 4 -0.000174 0.000071 -0.000424 0.159927 -0.000716 0.000016
# 5 0.000504 -0.000204 0.001239 -0.000716 0.147667 -0.000039
# 6 -0.000012 0.000005 -0.000031 0.000016 -0.000039 0.062810
#
#
# Mechanical properties :
#
#
# Convention : Reuss Voigt Hill
#
# Bulk Modulus (GPa) = -2.99860 30.03470 13.51805
# Shear Modulus (GPa) = 37.95082 17.91081 27.93082
#
# Velocity S-wave (km/s) = 4.37282 3.00406 3.75139
# Velocity P-wave (km/s) = 4.89740 5.21205 5.05717
#
# Compressibility (1/GPa) = -0.33348915
#
# Stress axis : x y z
#
# Youngs Moduli (GPa) = -61.70231 792.47364 -4.63940
#
# Poissons Ratio (x) = -8.53224 -0.45107
# Poissons Ratio (y) = 0.66432 0.16219
# Poissons Ratio (z) = -5.99905 -27.70455
#
# Static dielectric constant tensor:
#      x y z
#    x 1.731590 0.000000 0.000000 
#    y 0.000000 1.790260 0.000000 
#    z 0.000000 0.000000 1.684610 
# 
# From -- ./inp_files/14997.got.cif
#   From: 2010.05.17/outbox.ucp.g08.bks.cvg/sg22_8_cif.got.tgz:14997.got - 2010.06.11 15:16:44.
