data_PCOD9329222
_publ_section_title
;
Structure prediction by ZEFSAII (Michael W. Deem and Ramdas Pophale) SiO2 
 PCOD9329222
Probable space group: F 2 2 2
;
_chemical_formula_sum "Si O2"
_cell_formula_units_Z 64
_cell_length_a 31.731136
_cell_length_b 16.650184
_cell_length_c 5.100597
_cell_angle_alpha 90.000000
_cell_angle_beta 90.000000
_cell_angle_gamma 90.000000
_cell_volume 2694.794603
_symmetry_space_group_name_H-M "F 2 2 2"
_symmetry_group_IT_number 22
_symmetry_cell_setting 'orthorhombic'
loop_
_space_group_symop_operation_xyz
x,y,z
-x,-y,z
x,-y,-z
-x,y,-z
x,1/2+y,1/2+z
-x,1/2-y,1/2+z
x,1/2-y,1/2-z
-x,1/2+y,1/2-z
1/2+x,y,1/2+z
1/2-x,-y,1/2+z
1/2+x,-y,1/2-z
1/2-x,y,1/2-z
1/2+x,1/2+y,z
1/2-x,1/2-y,z
1/2+x,1/2-y,-z
1/2-x,1/2+y,-z
loop_
_atom_site_type_symbol
_atom_site_label
_atom_site_fract_x
_atom_site_fract_y
_atom_site_fract_z
Si Si1 0.105733 0.446762 0.250710
Si Si2 0.675169 0.164631 0.635023
Si Si3 0.250000 0.551536 0.750000
Si Si4 0.110782 0.250000 0.750000
Si Si5 0.958608 0.167853 0.620462
O O1 0.117609 0.500000 0.500000
O O2 0.144778 0.388983 0.183835
O O3 0.065298 0.391920 0.314524
O O4 0.095289 0.500000 0.000000
O O5 0.688995 0.250000 0.750000
O O6 0.715439 0.108235 0.607349
O O7 0.642588 0.191380 0.407261
O O8 0.267028 0.500000 0.500000
O O9 0.078563 0.198197 0.572687
O O10 0.974142 0.250000 0.750000
O O11 0.000000 0.128741 0.500000
#
# Coordination Sequence:
#
# PCOD9329222 Si02
#       5
#    16  16   8   8  16
#     4  12  26  46  73 108 155 202 251 316 398 460
#     4  12  26  48  81 111 150 204 262 322 377 473
#     4  12  31  54  77 118 162 200 250 324 409 470
#     4  12  22  46  81 114 150 196 280 315 386 444
#     4  12  25  45  75 112 153 212 269 328 380 463
#
# _framework density 23.749490999999999
#
# number of rings (size 3 to 8) (size 9 to 14) (size 15 to 20)
#    0.000    0.000    6.250    3.375    3.500    0.500 
#    0.000    3.750    0.000    0.000    0.000    0.000 
#    0.000    0.000    0.000    0.000    0.000    0.000 
#
# Total GULP energy -89392.412837 kJ/mol
# GULP energy per Si atom -5587.025802 kJ/mol
# Density = 2.369544 g / cm^3
# Si number density = 23.749491 Si / 1000 Ang^3
#
#
#
# Elastic Constant Matrix: (Units=GPa)
#
#
# Indices 1 2 3 4 5 6 
#
# 1 130.6783 30.7468 14.5859 0.0007 0.0002 -0.0024
# 2 30.7468 100.9431 17.4217 0.0015 0.0003 -0.0054
# 3 14.5859 17.4217 80.6987 0.0039 0.0007 -0.0107
# 4 0.0007 0.0015 0.0039 26.1445 0.0004 -0.0101
# 5 0.0002 0.0003 0.0007 0.0004 30.3285 0.0046
# 6 -0.0024 -0.0054 -0.0107 -0.0101 0.0046 624.6819
#
#
#
# Elastic Compliance Matrix: (Units=1/GPa)
#
#
# Indices 1 2 3 4 5 6 
#
# 1 0.008319 -0.002362 -0.000994 0.000000 0.000000 0.000000
# 2 -0.002362 0.010961 -0.001939 0.000000 0.000000 0.000000
# 3 -0.000994 -0.001939 0.012990 -0.000002 0.000000 0.000000
# 4 0.000000 0.000000 -0.000002 0.038249 0.000000 0.000001
# 5 0.000000 0.000000 0.000000 0.000000 0.032972 0.000000
# 6 0.000000 0.000000 0.000000 0.000001 0.000000 0.001601
#
#
# Mechanical properties :
#
#
# Convention : Reuss Voigt Hill
#
# Bulk Modulus (GPa) = 46.12702 48.64765 47.38733
# Shear Modulus (GPa) = 40.68038 152.86869 96.77453
#
# Velocity S-wave (km/s) = 4.14320 8.03162 6.39034
# Velocity P-wave (km/s) = 6.50789 10.32169 8.62815
#
# Compressibility (1/GPa) = 0.02167927
#
# Stress axis : x y z
#
# Youngs Moduli (GPa) = 120.20466 91.23357 76.98208
#
# Poissons Ratio (x) = 0.21554 0.07649
# Poissons Ratio (y) = 0.28398 0.14929
# Poissons Ratio (z) = 0.11944 0.17693
#
# Static dielectric constant tensor:
#      x y z
#    x 1.843650 0.000000 0.000000 
#    y 0.000000 1.946510 0.000000 
#    z 0.000000 0.000000 1.121190 
# 
# From -- ./inp_files/6165.got.cif
#   From: 2010.05.17/outbox.cif.g08.bks.cpg/sg22_4_cif.got.tgz:6165.got - 2010.06.03 23:40:54.
