data_PCOD9329268
_publ_section_title
;
Structure prediction by ZEFSAII (Michael W. Deem and Ramdas Pophale) SiO2 
 PCOD9329268
Probable space group: F 2 2 2
;
_chemical_formula_sum "Si O2"
_cell_formula_units_Z 52
_cell_length_a 8.943297
_cell_length_b 11.969142
_cell_length_c 21.236605
_cell_angle_alpha 90.000000
_cell_angle_beta 90.000000
_cell_angle_gamma 90.000000
_cell_volume 2273.242476
_symmetry_space_group_name_H-M "F 2 2 2"
_symmetry_group_IT_number 22
_symmetry_cell_setting 'orthorhombic'
loop_
_space_group_symop_operation_xyz
x,y,z
-x,-y,z
x,-y,-z
-x,y,-z
x,1/2+y,1/2+z
-x,1/2-y,1/2+z
x,1/2-y,1/2-z
-x,1/2+y,1/2-z
1/2+x,y,1/2+z
1/2-x,-y,1/2+z
1/2+x,-y,1/2-z
1/2-x,y,1/2-z
1/2+x,1/2+y,z
1/2-x,1/2-y,z
1/2+x,1/2-y,-z
1/2-x,1/2+y,-z
loop_
_atom_site_type_symbol
_atom_site_label
_atom_site_fract_x
_atom_site_fract_y
_atom_site_fract_z
Si Si1 0.254554 0.617205 0.586305
Si Si2 0.668125 0.547562 0.685591
Si Si3 0.250000 0.750000 0.091876
Si Si4 0.500000 0.355120 0.000000
Si Si5 0.500000 0.000000 0.000000
O O1 0.250000 0.750000 0.592426
O O2 0.250953 0.556701 0.652610
O O3 0.395258 0.573270 0.545726
O O4 0.110503 0.583748 0.547090
O O5 0.500000 0.500000 0.694851
O O6 0.750000 0.578522 0.750000
O O7 0.687538 0.650091 0.636207
O O8 0.384431 0.711286 0.045954
#
# Coordination Sequence:
#
# PCOD9329268 Si02
#       5
#    16  16   8   8   4
#     4  12  26  47  80 120 157 209 263 337 415 485
#     4  12  30  54  79 113 165 221 278 332 393 487
#     4  12  29  54  86 122 165 208 276 344 416 498
#     4  12  27  45  84 126 158 201 265 340 426 486
#     4  12  26  50  78 118 172 196 260 352 422 486
#
# _framework density 22.874814000000001
#
# number of rings (size 3 to 8) (size 9 to 14) (size 15 to 20)
#    0.000    0.000    3.077    5.077    4.308    4.923 
#    5.538    0.000    0.000    0.000    0.000    0.000 
#    0.000    0.000    0.000    0.000    0.000    0.000 
#
# Total GULP energy -72822.853498 kJ/mol
# GULP energy per Si atom -5601.757961 kJ/mol
# Density = 2.282275 g / cm^3
# Si number density = 22.874814 Si / 1000 Ang^3
#
#
#
# Elastic Constant Matrix: (Units=GPa)
#
#
# Indices 1 2 3 4 5 6 
#
# 1 180.7001 44.3977 68.2550 0.0000 0.0000 0.0000
# 2 44.3977 129.5776 39.5151 0.0000 0.0000 0.0000
# 3 68.2550 39.5151 149.9101 0.0000 0.0000 0.0000
# 4 0.0000 0.0000 0.0000 41.2725 0.0000 0.0000
# 5 0.0000 0.0000 0.0000 0.0000 31.3090 0.0000
# 6 0.0000 0.0000 0.0000 0.0000 0.0000 47.3983
#
#
#
# Elastic Compliance Matrix: (Units=1/GPa)
#
#
# Indices 1 2 3 4 5 6 
#
# 1 0.006955 -0.001541 -0.002761 0.000000 0.000000 0.000000
# 2 -0.001541 0.008734 -0.001600 0.000000 0.000000 0.000000
# 3 -0.002761 -0.001600 0.008349 0.000000 0.000000 0.000000
# 4 0.000000 0.000000 0.000000 0.024229 0.000000 0.000000
# 5 0.000000 0.000000 0.000000 0.000000 0.031940 0.000000
# 6 0.000000 0.000000 0.000000 0.000000 0.000000 0.021098
#
#
# Mechanical properties :
#
#
# Convention : Reuss Voigt Hill
#
# Bulk Modulus (GPa) = 81.73980 84.94704 83.34342
# Shear Modulus (GPa) = 42.66665 44.53063 43.59864
#
# Velocity S-wave (km/s) = 4.32351 4.41694 4.37047
# Velocity P-wave (km/s) = 7.79325 7.95165 7.87285
#
# Compressibility (1/GPa) = 0.01223394
#
# Stress axis : x y z
#
# Youngs Moduli (GPa) = 143.77160 114.50146 119.76898
#
# Poissons Ratio (x) = 0.17648 0.33063
# Poissons Ratio (y) = 0.22160 0.19167
# Poissons Ratio (z) = 0.39689 0.18324
#
# Static dielectric constant tensor:
#      x y z
#    x 1.873640 0.000000 0.000000 
#    y 0.000000 2.023900 0.000000 
#    z 0.000000 0.000000 1.812940 
# 
# From -- ./inp_files/31143.got.cif
#   From: 2010.05.17/outbox.cif.g08.bks.cpg/sg22_16_cif.got.tgz:31143.got - 2010.06.03 23:40:54.
