data_PCOD9329668
_publ_section_title
;
Structure prediction by ZEFSAII (Michael W. Deem and Ramdas Pophale) SiO2 
 PCOD9329668
Probable space group: I 2 2 2
;
_chemical_formula_sum "Si O2"
_cell_formula_units_Z 48
_cell_length_a 14.796447
_cell_length_b 7.830344
_cell_length_c 21.572189
_cell_angle_alpha 90.000000
_cell_angle_beta 90.000000
_cell_angle_gamma 90.000000
_cell_volume 2499.381214
_symmetry_space_group_name_H-M "I 2 2 2"
_symmetry_group_IT_number 23
_symmetry_cell_setting 'orthorhombic'
loop_
_space_group_symop_operation_xyz
x,y,z
-x,-y,z
x,-y,-z
-x,y,-z
1/2+x,1/2+y,1/2+z
1/2-x,1/2-y,1/2+z
1/2+x,1/2-y,1/2-z
1/2-x,1/2+y,1/2-z
loop_
_atom_site_type_symbol
_atom_site_label
_atom_site_fract_x
_atom_site_fract_y
_atom_site_fract_z
Si Si1 0.769581 0.442150 0.937344
Si Si2 0.792288 0.135988 0.301559
Si Si3 0.941800 0.324920 0.236050
Si Si4 0.588595 0.244133 0.590308
Si Si5 0.389578 0.368865 0.580056
Si Si6 0.621797 0.667131 0.726714
O O1 0.715557 0.421081 0.873079
O O2 0.850382 0.583773 0.930256
O O3 0.813030 0.254991 0.944555
O O4 0.719741 0.500000 0.000000
O O5 0.858964 0.293568 0.283207
O O6 0.691665 0.175659 0.276640
O O7 0.831132 0.980993 0.263361
O O8 0.911960 0.278680 0.165533
O O9 0.000000 0.500000 0.233841
O O10 0.023276 0.198376 0.253506
O O11 0.483899 0.266377 0.569234
O O12 0.621087 0.430438 0.565590
O O13 0.388001 0.376290 0.654670
#
# Coordination Sequence:
#
# PCOD9329668 Si02
#       6
#     8   8   8   8   8   8
#     4  11  24  38  52  78 118 162 210 245 284 352
#     4  11  21  35  57  87 117 157 196 242 311 366
#     4  11  20  35  59  91 124 149 187 250 319 381
#     4  10  18  35  57  85 116 155 186 243 310 372
#     4   9  19  33  56  84 117 147 194 242 303 376
#     4  10  19  33  56  87 119 146 182 242 305 375
#
# _framework density 19.204754000000001
#
# number of rings (size 3 to 8) (size 9 to 14) (size 15 to 20)
#    0.000    1.667    1.667    6.000    0.000    2.000 
#    0.000    1.667    0.000    2.000    0.000    1.167 
#    0.000    0.000    0.000    0.000    0.000    0.000 
#
# Total GULP energy -133698.843097 kJ/mol
# GULP energy per Si atom -5570.785129 kJ/mol
# Density = 1.916104 g / cm^3
# Si number density = 19.204754 Si / 1000 Ang^3
#
#
#
# Elastic Constant Matrix: (Units=GPa)
#
#
# Indices 1 2 3 4 5 6 
#
# 1 49.0704 8.2944 38.0452 0.0000 0.0000 0.0000
# 2 8.2944 83.6322 31.3196 0.0000 0.0000 0.0000
# 3 38.0452 31.3196 102.7060 0.0000 0.0000 0.0000
# 4 0.0000 0.0000 0.0000 25.6449 0.0000 0.0000
# 5 0.0000 0.0000 0.0000 0.0000 8.0927 0.0000
# 6 0.0000 0.0000 0.0000 0.0000 0.0000 31.6195
#
#
#
# Elastic Compliance Matrix: (Units=1/GPa)
#
#
# Indices 1 2 3 4 5 6 
#
# 1 0.028711 0.001282 -0.011026 0.000000 0.000000 0.000000
# 2 0.001282 0.013556 -0.004609 0.000000 0.000000 0.000000
# 3 -0.011026 -0.004609 0.015226 0.000000 0.000000 0.000000
# 4 0.000000 0.000000 0.000000 0.038994 0.000000 0.000000
# 5 0.000000 0.000000 0.000000 0.000000 0.123568 0.000000
# 6 0.000000 0.000000 0.000000 0.000000 0.000000 0.031626
#
#
# Mechanical properties :
#
#
# Convention : Reuss Voigt Hill
#
# Bulk Modulus (GPa) = 34.73776 43.41411 39.07594
# Shear Modulus (GPa) = 17.24237 23.58806 20.41521
#
# Velocity S-wave (km/s) = 2.99961 3.50843 3.26395
# Velocity P-wave (km/s) = 5.48856 6.25037 5.88181
#
# Compressibility (1/GPa) = 0.02878712
#
# Stress axis : x y z
#
# Youngs Moduli (GPa) = 34.82972 73.76883 65.67573
#
# Poissons Ratio (x) = -0.09455 0.72416
# Poissons Ratio (y) = -0.04464 0.30267
# Poissons Ratio (z) = 0.38404 0.33997
#
# Static dielectric constant tensor:
#      x y z
#    x 1.685460 0.000000 0.000000 
#    y 0.000000 1.776270 0.000000 
#    z 0.000000 0.000000 1.705960 
# 
# From -- ./inp_files/11916.got.cif
#   From: 2010.05.17/outbox.cif.g08.bks.cpg/sg23_6_cif.got.tgz:11916.got - 2010.06.04 12:02:01.
