data_PCOD9329433
_publ_section_title
;
Structure prediction by ZEFSAII (Michael W. Deem and Ramdas Pophale) SiO2 
 PCOD9329433
Probable space group: I 2 2 2
;
_chemical_formula_sum "Si O2"
_cell_formula_units_Z 48
_cell_length_a 8.554716
_cell_length_b 26.146668
_cell_length_c 8.707606
_cell_angle_alpha 90.000000
_cell_angle_beta 90.000000
_cell_angle_gamma 90.000000
_cell_volume 1947.693966
_symmetry_space_group_name_H-M "I 2 2 2"
_symmetry_group_IT_number 23
_symmetry_cell_setting 'orthorhombic'
loop_
_space_group_symop_operation_xyz
x,y,z
-x,-y,z
x,-y,-z
-x,y,-z
1/2+x,1/2+y,1/2+z
1/2-x,1/2-y,1/2+z
1/2+x,1/2-y,1/2-z
1/2-x,1/2+y,1/2-z
loop_
_atom_site_type_symbol
_atom_site_label
_atom_site_fract_x
_atom_site_fract_y
_atom_site_fract_z
Si Si1 0.756650 0.800408 0.444711
Si Si2 0.315725 0.005237 0.814372
Si Si3 0.074326 0.754132 0.295831
Si Si4 0.692055 0.405212 0.177770
Si Si5 0.340279 0.851015 0.964458
Si Si6 0.892575 0.899059 0.846998
O O1 0.795862 0.788179 0.619320
O O2 0.617656 0.766279 0.372663
O O3 0.740899 0.861882 0.435132
O O4 0.908590 0.780739 0.340460
O O5 0.234545 0.059788 0.794651
O O6 0.500000 0.000000 0.785810
O O7 0.232436 0.964862 0.697443
O O8 0.291110 0.000000 0.000000
O O9 0.103715 0.701377 0.389914
O O10 0.763914 0.384087 0.334514
O O11 0.508803 0.395277 0.204069
O O12 0.208766 0.850540 0.095437
O O13 0.500000 0.879880 0.000000
O O14 0.000000 0.913878 0.000000
#
# Coordination Sequence:
#
# PCOD9329433 Si02
#       6
#     8   8   8   8   8   8
#     4  10  22  40  58  89 124 165 210 258 305 377
#     4  11  19  31  48  77 118 160 193 252 327 376
#     4  10  22  39  60  84 126 166 210 258 307 362
#     4  10  21  30  51  80 116 157 199 246 308 380
#     4  10  17  30  48  77 111 159 192 242 299 360
#     4  10  19  28  47  75 115 149 196 244 306 366
#
# _framework density 24.644528999999999
#
# number of rings (size 3 to 8) (size 9 to 14) (size 15 to 20)
#    0.000    1.833    5.000    1.500    2.333    0.667 
#    0.000    0.000    0.000    0.000    0.000    9.333 
#    0.000   10.667    0.000    0.000    0.000    0.000 
#
# Total GULP energy -133669.580270 kJ/mol
# GULP energy per Si atom -5569.565845 kJ/mol
# Density = 2.458844 g / cm^3
# Si number density = 24.644529 Si / 1000 Ang^3
#
#
#
# Elastic Constant Matrix: (Units=GPa)
#
#
# Indices 1 2 3 4 5 6 
#
# 1 100.5658 20.9302 13.6110 0.0043 0.0026 -0.0004
# 2 20.9302 96.1943 12.0600 0.0031 0.0013 -0.0006
# 3 13.6110 12.0600 58.0938 -0.0060 0.0020 0.0072
# 4 0.0043 0.0031 -0.0060 11.2737 0.0007 0.0027
# 5 0.0026 0.0013 0.0020 0.0007 21.4953 0.0010
# 6 -0.0004 -0.0006 0.0072 0.0027 0.0010 30.6210
#
#
#
# Elastic Compliance Matrix: (Units=1/GPa)
#
#
# Indices 1 2 3 4 5 6 
#
# 1 0.010652 -0.002058 -0.002068 -0.000005 -0.000001 0.000001
# 2 -0.002058 0.011071 -0.001816 -0.000003 0.000000 0.000001
# 3 -0.002068 -0.001816 0.018075 0.000011 -0.000001 -0.000004
# 4 -0.000005 -0.000003 0.000011 0.088702 -0.000003 -0.000008
# 5 -0.000001 0.000000 -0.000001 -0.000003 0.046522 -0.000001
# 6 0.000001 0.000001 -0.000004 -0.000008 -0.000001 0.032657
#
#
# Mechanical properties :
#
#
# Convention : Reuss Voigt Hill
#
# Bulk Modulus (GPa) = 35.82597 38.67294 37.24945
# Shear Modulus (GPa) = 21.84655 26.56153 24.20404
#
# Velocity S-wave (km/s) = 2.98059 3.28653 3.13729
# Velocity P-wave (km/s) = 5.13944 5.48890 5.31704
#
# Compressibility (1/GPa) = 0.02791271
#
# Stress axis : x y z
#
# Youngs Moduli (GPa) = 93.87832 90.32464 55.32458
#
# Poissons Ratio (x) = 0.18592 0.11443
# Poissons Ratio (y) = 0.19324 0.10047
# Poissons Ratio (z) = 0.19418 0.16403
#
# Static dielectric constant tensor:
#      x y z
#    x 2.312470 0.000010 -0.000010 
#    y 0.000010 2.226070 0.000000 
#    z -0.000010 0.000000 1.971100 
# 
# From -- ./inp_files/14828.got.cif
#   From: 2010.05.17/outbox.cif.g08.bks.cpg/sg23_8_cif.got.tgz:14828.got - 2010.06.04 12:02:01.
