data_PCOD9329137
_publ_section_title
;
Structure prediction by ZEFSAII (Michael W. Deem and Ramdas Pophale) SiO2 
 PCOD9329137
Probable space group: F 2 2 2
;
_chemical_formula_sum "Si O2"
_cell_formula_units_Z 56
_cell_length_a 22.404939
_cell_length_b 9.408877
_cell_length_c 11.603946
_cell_angle_alpha 90.000000
_cell_angle_beta 90.000000
_cell_angle_gamma 90.000000
_cell_volume 2446.173495
_symmetry_space_group_name_H-M "F 2 2 2"
_symmetry_group_IT_number 22
_symmetry_cell_setting 'orthorhombic'
loop_
_space_group_symop_operation_xyz
x,y,z
-x,-y,z
x,-y,-z
-x,y,-z
x,1/2+y,1/2+z
-x,1/2-y,1/2+z
x,1/2-y,1/2-z
-x,1/2+y,1/2-z
1/2+x,y,1/2+z
1/2-x,-y,1/2+z
1/2+x,-y,1/2-z
1/2-x,y,1/2-z
1/2+x,1/2+y,z
1/2-x,1/2-y,z
1/2+x,1/2-y,-z
1/2-x,1/2+y,-z
loop_
_atom_site_type_symbol
_atom_site_label
_atom_site_fract_x
_atom_site_fract_y
_atom_site_fract_z
Si Si1 0.089037 0.905069 0.107274
Si Si2 0.007190 0.250000 0.250000
Si Si3 0.406305 0.137394 0.049870
Si Si4 0.818042 0.921324 0.262830
O O1 0.037545 0.867166 0.197740
O O2 0.140829 0.992767 0.172551
O O3 0.107489 0.756094 0.046361
O O4 0.068493 0.000000 0.000000
O O5 0.050517 0.203100 0.353102
O O6 0.348796 0.070122 0.113207
O O7 0.437617 0.000000 0.000000
O O8 0.818623 0.750000 0.250000
O O9 0.750000 0.969838 0.250000
#
# Coordination Sequence:
#
# PCOD9329137 Si02
#       4
#    16   8  16  16
#     4  12  26  47  75 108 144 196 244 295 370 433
#     4  12  28  48  74 108 156 184 244 300 360 442
#     4  12  27  49  73 111 148 197 242 296 371 438
#     4  11  25  51  74 105 149 189 247 312 361 432
#
# _framework density 22.892897999999999
#
# number of rings (size 3 to 8) (size 9 to 14) (size 15 to 20)
#    0.000    0.286    4.286    2.571    0.000   18.286 
#    0.000    5.000    0.000    0.000    0.000    0.000 
#    0.000    0.000    0.000    0.000    0.000    0.000 
#
# Total GULP energy -78334.961789 kJ/mol
# GULP energy per Si atom -5595.354413 kJ/mol
# Density = 2.284079 g / cm^3
# Si number density = 22.892898 Si / 1000 Ang^3
#
#
#
# Elastic Constant Matrix: (Units=GPa)
#
#
# Indices 1 2 3 4 5 6 
#
# 1 190.8845 60.5785 72.7783 0.0000 0.0000 0.0000
# 2 60.5785 145.2431 68.4252 0.0000 0.0000 0.0000
# 3 72.7783 68.4252 122.9934 0.0000 0.0000 0.0000
# 4 0.0000 0.0000 0.0000 50.6130 0.0000 0.0000
# 5 0.0000 0.0000 0.0000 0.0000 3.3648 0.0000
# 6 0.0000 0.0000 0.0000 0.0000 0.0000 14.4866
#
#
#
# Elastic Compliance Matrix: (Units=1/GPa)
#
#
# Indices 1 2 3 4 5 6 
#
# 1 0.006942 -0.001301 -0.003384 0.000000 0.000000 0.000000
# 2 -0.001301 0.009574 -0.004557 0.000000 0.000000 0.000000
# 3 -0.003384 -0.004557 0.012668 0.000000 0.000000 0.000000
# 4 0.000000 0.000000 0.000000 0.019758 0.000000 0.000000
# 5 0.000000 0.000000 0.000000 0.000000 0.297199 0.000000
# 6 0.000000 0.000000 0.000000 0.000000 0.000000 0.069029
#
#
# Mechanical properties :
#
#
# Convention : Reuss Voigt Hill
#
# Bulk Modulus (GPa) = 93.45037 95.85389 94.65213
# Shear Modulus (GPa) = 11.43591 30.84880 21.14235
#
# Velocity S-wave (km/s) = 2.23746 3.67485 3.04227
# Velocity P-wave (km/s) = 6.89814 7.74387 7.33320
#
# Compressibility (1/GPa) = 0.01070087
#
# Stress axis : x y z
#
# Youngs Moduli (GPa) = 144.05406 104.44558 78.94071
#
# Poissons Ratio (x) = 0.13591 0.26712
# Poissons Ratio (y) = 0.18745 0.35970
# Poissons Ratio (z) = 0.48744 0.47591
#
# Static dielectric constant tensor:
#      x y z
#    x 1.844000 0.000000 0.000000 
#    y 0.000000 1.560370 0.000000 
#    z 0.000000 0.000000 2.101600 
# 
# From -- ./inp_files/24300.got.cif
#   From: 2010.05.17/outbox.cif.g08.bks.cpg/sg22_13_cif.got.tgz:24300.got - 2010.06.03 23:40:54.
