data_PCOD9329326
_publ_section_title
;
Structure prediction by ZEFSAII (Michael W. Deem and Ramdas Pophale) SiO2 
 PCOD9329326
Probable space group: I 2 2 2
;
_chemical_formula_sum "Si O2"
_cell_formula_units_Z 56
_cell_length_a 26.407166
_cell_length_b 12.731252
_cell_length_c 7.144651
_cell_angle_alpha 90.000000
_cell_angle_beta 90.000000
_cell_angle_gamma 90.000000
_cell_volume 2402.005123
_symmetry_space_group_name_H-M "I 2 2 2"
_symmetry_group_IT_number 23
_symmetry_cell_setting 'orthorhombic'
loop_
_space_group_symop_operation_xyz
x,y,z
-x,-y,z
x,-y,-z
-x,y,-z
1/2+x,1/2+y,1/2+z
1/2-x,1/2-y,1/2+z
1/2+x,1/2-y,1/2-z
1/2-x,1/2+y,1/2-z
loop_
_atom_site_type_symbol
_atom_site_label
_atom_site_fract_x
_atom_site_fract_y
_atom_site_fract_z
Si Si1 0.843591 0.025100 0.224687
Si Si2 0.956704 0.065449 0.197671
Si Si3 0.816567 0.795711 0.273686
Si Si4 0.102578 0.373014 0.238701
Si Si5 0.797234 0.232928 0.165512
Si Si6 0.508452 0.193487 0.709536
Si Si7 0.885399 0.612301 0.783679
O O1 0.899948 0.065056 0.272762
O O2 0.804779 0.119545 0.260650
O O3 0.832081 0.914408 0.319515
O O4 0.842031 0.000000 0.000000
O O5 0.978632 0.182848 0.188279
O O6 0.000000 0.000000 0.300106
O O7 0.951129 0.000000 0.000000
O O8 0.858932 0.710964 0.325152
O O9 0.760324 0.769453 0.339161
O O10 0.813834 0.785264 0.048109
O O11 0.119057 0.492042 0.278744
O O12 0.045741 0.337212 0.294150
O O13 0.107379 0.373491 0.010044
O O14 0.835949 0.317283 0.254064
O O15 0.500000 0.149992 0.500000
O O16 0.559935 0.147676 0.792596
#
# Coordination Sequence:
#
# PCOD9329326 Si02
#       7
#     8   8   8   8   8   8   8
#     4   9  18  31  46  69  99 129 163 204 247 293
#     4  10  15  21  39  64  94 129 156 189 241 300
#     4  10  21  34  52  71 100 131 170 208 245 292
#     4   9  18  28  43  67  96 130 161 197 245 297
#     4  10  20  35  51  72  98 133 170 206 249 288
#     4  10  15  24  40  66  96 127 158 193 245 299
#     4   9  17  29  43  65  97 130 161 195 245 300
#
# _framework density 23.313853999999999
#
# number of rings (size 3 to 8) (size 9 to 14) (size 15 to 20)
#    0.000    2.429    2.857    1.286    6.000    1.714 
#    0.000    0.000    0.000    0.000    0.000    1.000 
#    0.000    3.429    0.000    0.000    0.000    0.000 
#
# Total GULP energy -156270.743688 kJ/mol
# GULP energy per Si atom -5581.097989 kJ/mol
# Density = 2.326079 g / cm^3
# Si number density = 23.313854 Si / 1000 Ang^3
#
#
#
# Elastic Constant Matrix: (Units=GPa)
#
#
# Indices 1 2 3 4 5 6 
#
# 1 174.1116 89.5536 -9.8107 0.0000 0.0000 0.0000
# 2 89.5536 175.5332 -12.8494 0.0000 0.0000 0.0000
# 3 -9.8107 -12.8494 72.5405 0.0000 0.0000 0.0000
# 4 0.0000 0.0000 0.0000 -14.6235 0.0000 0.0000
# 5 0.0000 0.0000 0.0000 0.0000 -1.2075 0.0000
# 6 0.0000 0.0000 0.0000 0.0000 0.0000 35.0921
#
#
#
# Elastic Compliance Matrix: (Units=1/GPa)
#
#
# Indices 1 2 3 4 5 6 
#
# 1 0.007796 -0.003951 0.000354 0.000000 0.000000 0.000000
# 2 -0.003951 0.007774 0.000843 0.000000 0.000000 0.000000
# 3 0.000354 0.000843 0.013983 0.000000 0.000000 0.000000
# 4 0.000000 0.000000 0.000000 -0.068383 0.000000 0.000000
# 5 0.000000 0.000000 0.000000 0.000000 -0.828137 0.000000
# 6 0.000000 0.000000 0.000000 0.000000 0.000000 0.028496
#
#
# Mechanical properties :
#
#
# Convention : Reuss Voigt Hill
#
# Bulk Modulus (GPa) = 41.58940 61.77471 51.68205
# Shear Modulus (GPa) = -6.06099 27.53831 10.73866
#
# Velocity S-wave (km/s) = -1.61412 3.44059 2.14852
# Velocity P-wave (km/s) = 3.79523 6.50677 5.32644
#
# Compressibility (1/GPa) = 0.02404459
#
# Stress axis : x y z
#
# Youngs Moduli (GPa) = 128.27513 128.62578 71.51734
#
# Poissons Ratio (x) = 0.50824 -0.02535
# Poissons Ratio (y) = 0.50685 -0.06027
# Poissons Ratio (z) = -0.04546 -0.10840
#
# Static dielectric constant tensor:
#      x y z
#    x 1.839200 0.000000 0.000000 
#    y 0.000000 2.042530 0.000000 
#    z 0.000000 0.000000 2.048470 
# 
# From -- ./inp_files/18378.got.cif
#   From: 2010.05.17/outbox.cif.g08.bks.cpg/sg23_10_cif.got.tgz:18378.got - 2010.06.04 12:02:01.
