data_PCOD9329102
_publ_section_title
;
Structure prediction by ZEFSAII (Michael W. Deem and Ramdas Pophale) SiO2 
 PCOD9329102
Probable space group: F 2 2 2
;
_chemical_formula_sum "Si O2"
_cell_formula_units_Z 60
_cell_length_a 11.033109
_cell_length_b 21.910977
_cell_length_c 11.055892
_cell_angle_alpha 90.000000
_cell_angle_beta 90.000000
_cell_angle_gamma 90.000000
_cell_volume 2672.719851
_symmetry_space_group_name_H-M "F 2 2 2"
_symmetry_group_IT_number 22
_symmetry_cell_setting 'orthorhombic'
loop_
_space_group_symop_operation_xyz
x,y,z
-x,-y,z
x,-y,-z
-x,y,-z
x,1/2+y,1/2+z
-x,1/2-y,1/2+z
x,1/2-y,1/2-z
-x,1/2+y,1/2-z
1/2+x,y,1/2+z
1/2-x,-y,1/2+z
1/2+x,-y,1/2-z
1/2-x,y,1/2-z
1/2+x,1/2+y,z
1/2-x,1/2-y,z
1/2+x,1/2-y,-z
1/2-x,1/2+y,-z
loop_
_atom_site_type_symbol
_atom_site_label
_atom_site_fract_x
_atom_site_fract_y
_atom_site_fract_z
Si Si1 0.728076 0.450703 0.893448
Si Si2 0.500000 0.882728 0.500000
Si Si3 0.614928 0.178455 0.284506
Si Si4 0.417086 0.843231 0.890220
Si Si5 0.750000 0.750000 0.250000
O O1 0.750000 0.468130 0.750000
O O2 0.593441 0.423285 0.920449
O O3 0.828207 0.398545 0.917806
O O4 0.745284 0.500000 0.000000
O O5 0.415298 0.838376 0.420864
O O6 0.600863 0.250000 0.250000
O O7 0.750000 0.160774 0.250000
O O8 0.517284 0.140679 0.209084
O O9 0.333650 0.791243 0.833864
O O10 0.500000 0.821682 0.000000
#
# Coordination Sequence:
#
# PCOD9329102 Si02
#       5
#    16   8  16  16   4
#     4  12  28  55  85 114 159 219 278 345 408 478
#     4  12  25  54  80 112 162 212 275 326 416 474
#     4  11  25  44  76 121 162 207 258 322 405 487
#     4  12  26  47  78 119 157 211 262 330 403 485
#     4  12  24  52  78 114 168 200 264 316 418 472
#
# _framework density 22.449041999999999
#
# number of rings (size 3 to 8) (size 9 to 14) (size 15 to 20)
#    0.000    0.267    5.333    2.000    1.867    5.867 
#    4.800    0.000    0.000    0.000    0.000    0.000 
#    0.000    0.000    0.000    0.000    0.000    0.000 
#
# Total GULP energy -83870.939824 kJ/mol
# GULP energy per Si atom -5591.395988 kJ/mol
# Density = 2.239795 g / cm^3
# Si number density = 22.449042 Si / 1000 Ang^3
#
#
#
# Elastic Constant Matrix: (Units=GPa)
#
#
# Indices 1 2 3 4 5 6 
#
# 1 200.9681 77.9154 82.6105 0.0000 0.0000 0.0000
# 2 77.9154 122.8994 82.3119 0.0000 0.0000 0.0000
# 3 82.6105 82.3119 183.0141 0.0000 0.0000 0.0000
# 4 0.0000 0.0000 0.0000 44.7087 0.0000 0.0000
# 5 0.0000 0.0000 0.0000 0.0000 59.3385 0.0000
# 6 0.0000 0.0000 0.0000 0.0000 0.0000 34.8753
#
#
#
# Elastic Compliance Matrix: (Units=1/GPa)
#
#
# Indices 1 2 3 4 5 6 
#
# 1 0.006928 -0.003288 -0.001648 0.000000 0.000000 0.000000
# 2 -0.003288 0.013205 -0.004455 0.000000 0.000000 0.000000
# 3 -0.001648 -0.004455 0.008212 0.000000 0.000000 0.000000
# 4 0.000000 0.000000 0.000000 0.022367 0.000000 0.000000
# 5 0.000000 0.000000 0.000000 0.000000 0.016852 0.000000
# 6 0.000000 0.000000 0.000000 0.000000 0.000000 0.028674
#
#
# Mechanical properties :
#
#
# Convention : Reuss Voigt Hill
#
# Bulk Modulus (GPa) = 104.58015 110.28416 107.43215
# Shear Modulus (GPa) = 42.29803 45.38741 43.84272
#
# Velocity S-wave (km/s) = 4.34542 4.50132 4.42406
# Velocity P-wave (km/s) = 8.47724 8.73206 8.60560
#
# Compressibility (1/GPa) = 0.00956204
#
# Stress axis : x y z
#
# Youngs Moduli (GPa) = 144.33238 75.72845 121.77782
#
# Poissons Ratio (x) = 0.24903 0.20074
# Poissons Ratio (y) = 0.47463 0.54248
# Poissons Ratio (z) = 0.23792 0.33735
#
# Static dielectric constant tensor:
#      x y z
#    x 1.763600 0.000000 0.000000 
#    y 0.000000 1.822870 0.000000 
#    z 0.000000 0.000000 1.832510 
# 
# From -- ./inp_files/17781.got.cif
#   From: 2010.05.17/outbox.cif.g08.bks.cpg/sg22_9_cif.got.tgz:17781.got - 2010.06.03 23:40:54.
