data_PCOD9329621
_publ_section_title
;
Structure prediction by ZEFSAII (Michael W. Deem and Ramdas Pophale) SiO2 
 PCOD9329621
Probable space group: I 2 2 2
;
_chemical_formula_sum "Si O2"
_cell_formula_units_Z 58
_cell_length_a 10.095544
_cell_length_b 16.199098
_cell_length_c 17.381055
_cell_angle_alpha 90.000000
_cell_angle_beta 90.000000
_cell_angle_gamma 90.000000
_cell_volume 2842.475254
_symmetry_space_group_name_H-M "I 2 2 2"
_symmetry_group_IT_number 23
_symmetry_cell_setting 'orthorhombic'
loop_
_space_group_symop_operation_xyz
x,y,z
-x,-y,z
x,-y,-z
-x,y,-z
1/2+x,1/2+y,1/2+z
1/2-x,1/2-y,1/2+z
1/2+x,1/2-y,1/2-z
1/2-x,1/2+y,1/2-z
loop_
_atom_site_type_symbol
_atom_site_label
_atom_site_fract_x
_atom_site_fract_y
_atom_site_fract_z
Si Si1 0.561106 0.409264 0.263610
Si Si2 0.460067 0.206842 0.080089
Si Si3 0.348177 0.367721 0.899928
Si Si4 0.530277 0.095664 0.226150
Si Si5 0.707956 0.680436 0.265274
Si Si6 0.172612 0.782922 0.875238
Si Si7 0.500000 0.500000 0.000000
Si Si8 0.085202 0.690773 0.124976
O O1 0.500000 0.500000 0.272981
O O2 0.654188 0.397030 0.189625
O O3 0.434746 0.352438 0.241896
O O4 0.626242 0.371441 0.340880
O O5 0.554184 0.288065 0.089229
O O6 0.477238 0.150360 0.155221
O O7 0.302664 0.222227 0.073333
O O8 0.500000 0.165247 0.000000
O O9 0.195473 0.354956 0.924865
O O10 0.412151 0.441268 0.947305
O O11 0.688746 0.107632 0.222257
O O12 0.469453 0.134078 0.304657
O O13 0.500000 0.000000 0.219787
O O14 0.778651 0.735834 0.201673
O O15 0.676479 0.736883 0.338107
O O16 0.044883 0.735291 0.907688
#
# Coordination Sequence:
#
# PCOD9329621 Si02
#       8
#     8   8   8   8   8   8   2   8
#     4  11  21  32  62  93 128 156 202 271 324 360
#     4  12  23  41  65  83 122 175 211 253 315 396
#     4  12  21  41  61  94 125 167 216 251 312 385
#     4  11  23  36  60  97 127 155 210 276 322 366
#     4  10  18  33  61  91 119 158 199 260 317 374
#     4  10  20  39  60  94 119 157 219 258 315 385
#     4  12  28  36  64  94 134 168 222 250 304 412
#     4  10  20  40  65  88 125 161 205 271 319 370
#
# _framework density 20.40475
#
# number of rings (size 3 to 8) (size 9 to 14) (size 15 to 20)
#    0.000    1.103    6.897    0.828    3.862    0.276 
#    0.000    0.690    0.000    0.828    0.000    0.966 
#    0.000    0.000    0.000    0.000    0.000    0.000 
#
# Total GULP energy -161832.654540 kJ/mol
# GULP energy per Si atom -5580.436363 kJ/mol
# Density = 2.035831 g / cm^3
# Si number density = 20.404750 Si / 1000 Ang^3
#
#
#
# Elastic Constant Matrix: (Units=GPa)
#
#
# Indices 1 2 3 4 5 6 
#
# 1 142.9124 6.9931 23.8453 0.0000 0.0000 0.0000
# 2 6.9931 78.6999 16.9172 0.0000 0.0000 0.0000
# 3 23.8453 16.9172 42.6888 0.0000 0.0000 0.0000
# 4 0.0000 0.0000 0.0000 2.1375 0.0000 0.0000
# 5 0.0000 0.0000 0.0000 0.0000 2.4014 0.0000
# 6 0.0000 0.0000 0.0000 0.0000 0.0000 19.3638
#
#
#
# Elastic Compliance Matrix: (Units=1/GPa)
#
#
# Indices 1 2 3 4 5 6 
#
# 1 0.007721 0.000263 -0.004418 0.000000 0.000000 0.000000
# 2 0.000263 0.013899 -0.005655 0.000000 0.000000 0.000000
# 3 -0.004418 -0.005655 0.028134 0.000000 0.000000 0.000000
# 4 0.000000 0.000000 0.000000 0.467826 0.000000 0.000000
# 5 0.000000 0.000000 0.000000 0.000000 0.416430 0.000000
# 6 0.000000 0.000000 0.000000 0.000000 0.000000 0.051643
#
#
# Mechanical properties :
#
#
# Convention : Reuss Voigt Hill
#
# Bulk Modulus (GPa) = 33.18305 39.97914 36.58109
# Shear Modulus (GPa) = 4.92457 19.21690 12.07073
#
# Velocity S-wave (km/s) = 1.55521 3.07218 2.43485
# Velocity P-wave (km/s) = 4.41844 5.67627 5.08638
#
# Compressibility (1/GPa) = 0.03013587
#
# Stress axis : x y z
#
# Youngs Moduli (GPa) = 129.50892 71.94920 35.54421
#
# Poissons Ratio (x) = -0.01896 0.15702
# Poissons Ratio (y) = -0.03412 0.20101
# Poissons Ratio (z) = 0.57211 0.40688
#
# Static dielectric constant tensor:
#      x y z
#    x 1.806540 0.000000 0.000000 
#    y 0.000000 1.742380 0.000000 
#    z 0.000000 0.000000 1.739680 
# 
# From -- ./inp_files/23900.got.cif
#   From: 2010.05.17/outbox.cif.g08.bks.cpg/sg23_12_cif.got.tgz:23900.got - 2010.06.04 12:02:01.
