data_PCOD9329150
_publ_section_title
;
Structure prediction by ZEFSAII (Michael W. Deem and Ramdas Pophale) SiO2 
 PCOD9329150
Probable space group: F 2 2 2
;
_chemical_formula_sum "Si O2"
_cell_formula_units_Z 48
_cell_length_a 8.462879
_cell_length_b 16.387722
_cell_length_c 14.580753
_cell_angle_alpha 90.000000
_cell_angle_beta 90.000000
_cell_angle_gamma 90.000000
_cell_volume 2022.165388
_symmetry_space_group_name_H-M "F 2 2 2"
_symmetry_group_IT_number 22
_symmetry_cell_setting 'orthorhombic'
loop_
_space_group_symop_operation_xyz
x,y,z
-x,-y,z
x,-y,-z
-x,y,-z
x,1/2+y,1/2+z
-x,1/2-y,1/2+z
x,1/2-y,1/2-z
-x,1/2+y,1/2-z
1/2+x,y,1/2+z
1/2-x,-y,1/2+z
1/2+x,-y,1/2-z
1/2-x,y,1/2-z
1/2+x,1/2+y,z
1/2-x,1/2-y,z
1/2+x,1/2-y,-z
1/2-x,1/2+y,-z
loop_
_atom_site_type_symbol
_atom_site_label
_atom_site_fract_x
_atom_site_fract_y
_atom_site_fract_z
Si Si1 0.740554 0.000000 0.000000
Si Si2 0.393275 0.568462 0.818111
Si Si3 0.569371 0.267174 0.142747
Si Si4 0.000000 0.857010 0.500000
O O1 0.829007 0.022681 0.907472
O O2 0.639545 0.919303 0.978058
O O3 0.500000 0.500000 0.767016
O O4 0.250000 0.593444 0.750000
O O5 0.496181 0.642898 0.858610
O O6 0.568564 0.250000 0.250000
O O7 0.750000 0.250000 0.110258
O O8 0.467300 0.202883 0.084957
#
# Coordination Sequence:
#
# PCOD9329150 Si02
#       4
#     8  16  16   8
#     4  11  27  48  76 112 154 202 248 308 378 452
#     4  12  29  48  79 112 155 202 253 311 381 452
#     4  11  27  48  76 111 153 201 255 314 375 447
#     4  11  26  46  77 110 156 198 253 308 374 449
#
# _framework density 23.736930000000001
#
# number of rings (size 3 to 8) (size 9 to 14) (size 15 to 20)
#    0.000    0.667    0.000    4.500   23.333    3.333 
#    0.000    0.000    0.000    0.000    0.000    0.000 
#    0.000    0.000    0.000    0.000    0.000    0.000 
#
# Total GULP energy -67132.384859 kJ/mol
# GULP energy per Si atom -5594.365405 kJ/mol
# Density = 2.368290 g / cm^3
# Si number density = 23.736930 Si / 1000 Ang^3
#
#
#
# Elastic Constant Matrix: (Units=GPa)
#
#
# Indices 1 2 3 4 5 6 
#
# 1 111.7485 93.4218 39.8214 0.0000 0.0000 0.0000
# 2 93.4218 227.6565 48.2744 0.0000 0.0000 0.0000
# 3 39.8214 48.2744 100.2772 0.0000 0.0000 0.0000
# 4 0.0000 0.0000 0.0000 31.9533 0.0000 0.0000
# 5 0.0000 0.0000 0.0000 0.0000 33.1710 0.0000
# 6 0.0000 0.0000 0.0000 0.0000 0.0000 467.7332
#
#
#
# Elastic Compliance Matrix: (Units=1/GPa)
#
#
# Indices 1 2 3 4 5 6 
#
# 1 0.014500 -0.005267 -0.003223 0.000000 0.000000 0.000000
# 2 -0.005267 0.006805 -0.001184 0.000000 0.000000 0.000000
# 3 -0.003223 -0.001184 0.011822 0.000000 0.000000 0.000000
# 4 0.000000 0.000000 0.000000 0.031296 0.000000 0.000000
# 5 0.000000 0.000000 0.000000 0.000000 0.030147 0.000000
# 6 0.000000 0.000000 0.000000 0.000000 0.000000 0.002138
#
#
# Mechanical properties :
#
#
# Convention : Reuss Voigt Hill
#
# Bulk Modulus (GPa) = 72.57169 89.19082 80.88125
# Shear Modulus (GPa) = 41.44229 123.78247 82.61238
#
# Velocity S-wave (km/s) = 4.18293 7.22917 5.90583
# Velocity P-wave (km/s) = 7.34635 10.36038 8.98071
#
# Compressibility (1/GPa) = 0.01377948
#
# Stress axis : x y z
#
# Youngs Moduli (GPa) = 68.96410 146.94776 84.58573
#
# Poissons Ratio (x) = 0.77398 0.27259
# Poissons Ratio (y) = 0.36324 0.10019
# Poissons Ratio (z) = 0.22225 0.17405
#
# Static dielectric constant tensor:
#      x y z
#    x 2.047480 0.000000 0.000000 
#    y 0.000000 1.955600 0.000000 
#    z 0.000000 0.000000 1.702560 
# 
# From -- ./inp_files/9232.got.cif
#   From: 2010.05.17/outbox.cif.g08.bks.cpg/sg22_5_cif.got.tgz:9232.got - 2010.06.03 23:40:54.
