data_PCOD9329929
_publ_section_title
;
Structure prediction by ZEFSAII (Michael W. Deem and Ramdas Pophale) SiO2 
 PCOD9329929
Probable space group: I 2 2 2
;
_chemical_formula_sum "Si O2"
_cell_formula_units_Z 64
_cell_length_a 9.283951
_cell_length_b 27.441823
_cell_length_c 13.846237
_cell_angle_alpha 90.000000
_cell_angle_beta 90.000000
_cell_angle_gamma 90.000000
_cell_volume 3527.585586
_symmetry_space_group_name_H-M "I 2 2 2"
_symmetry_group_IT_number 23
_symmetry_cell_setting 'orthorhombic'
loop_
_space_group_symop_operation_xyz
x,y,z
-x,-y,z
x,-y,-z
-x,y,-z
1/2+x,1/2+y,1/2+z
1/2-x,1/2-y,1/2+z
1/2+x,1/2-y,1/2-z
1/2-x,1/2+y,1/2-z
loop_
_atom_site_type_symbol
_atom_site_label
_atom_site_fract_x
_atom_site_fract_y
_atom_site_fract_z
Si Si1 0.253635 0.281537 0.744225
Si Si2 0.749681 0.673844 0.337056
Si Si3 0.075938 0.547976 0.104948
Si Si4 0.871254 0.077167 0.572137
Si Si5 0.512537 0.349809 0.797760
Si Si6 0.253065 0.168236 0.543454
Si Si7 0.993868 0.647274 0.201619
Si Si8 0.172550 0.773427 0.982103
O O1 0.245065 0.227000 0.784898
O O2 0.391198 0.309654 0.785105
O O3 0.281080 0.279523 0.628949
O O4 0.113964 0.312595 0.774435
O O5 0.607524 0.646866 0.298325
O O6 0.886874 0.646711 0.293100
O O7 0.743319 0.686190 0.449248
O O8 0.246000 0.538901 0.090938
O O9 0.000000 0.500000 0.145285
O O10 0.055714 0.594765 0.172966
O O11 0.000000 0.556609 0.000000
O O12 0.943437 0.099720 0.667314
O O13 0.782170 0.122752 0.524853
O O14 0.000000 0.063185 0.500000
O O15 0.619007 0.332528 0.883096
O O16 0.395296 0.161889 0.609172
O O17 0.271152 0.219379 0.490144
O O18 0.000000 0.774853 0.000000
#
# Coordination Sequence:
#
# PCOD9329929 Si02
#       8
#     8   8   8   8   8   8   8   8
#     4  12  21  35  55  80 112 161 202 242 293 355
#     4  11  23  35  51  79 119 154 203 246 287 362
#     4  11  23  39  62  89 115 150 200 247 298 364
#     4  10  20  35  60  83 112 153 191 233 293 355
#     4  10  19  35  49  76 110 153 197 231 283 354
#     4  10  21  33  54  78 114 162 195 233 296 351
#     4  11  22  38  57  78 119 158 191 244 304 348
#     4  12  23  33  53  81 116 160 208 246 290 347
#
# _framework density 18.142720000000001
#
# number of rings (size 3 to 8) (size 9 to 14) (size 15 to 20)
#    0.000    1.125    6.250    2.250    1.750    0.500 
#    0.000    1.250    0.000    0.000    0.000    1.750 
#    0.000    1.000    0.000    0.000    0.000    0.000 
#
# Total GULP energy -178803.898580 kJ/mol
# GULP energy per Si atom -5587.621831 kJ/mol
# Density = 1.810143 g / cm^3
# Si number density = 18.142720 Si / 1000 Ang^3
#
#
#
# Elastic Constant Matrix: (Units=GPa)
#
#
# Indices 1 2 3 4 5 6 
#
# 1 108.9618 29.9669 17.0847 0.0000 0.0000 0.0000
# 2 29.9669 41.6879 12.6948 0.0000 0.0000 0.0000
# 3 17.0847 12.6948 72.3207 0.0000 0.0000 0.0000
# 4 0.0000 0.0000 0.0000 17.4375 0.0000 0.0000
# 5 0.0000 0.0000 0.0000 0.0000 23.1036 0.0000
# 6 0.0000 0.0000 0.0000 0.0000 0.0000 22.9686
#
#
#
# Elastic Compliance Matrix: (Units=1/GPa)
#
#
# Indices 1 2 3 4 5 6 
#
# 1 0.011561 -0.007901 -0.001344 0.000000 0.000000 0.000000
# 2 -0.007901 0.030742 -0.003530 0.000000 0.000000 0.000000
# 3 -0.001344 -0.003530 0.014764 0.000000 0.000000 0.000000
# 4 0.000000 0.000000 0.000000 0.057348 0.000000 0.000000
# 5 0.000000 0.000000 0.000000 0.000000 0.043283 0.000000
# 6 0.000000 0.000000 0.000000 0.000000 0.000000 0.043538
#
#
# Mechanical properties :
#
#
# Convention : Reuss Voigt Hill
#
# Bulk Modulus (GPa) = 31.72846 38.05147 34.88996
# Shear Modulus (GPa) = 21.07096 23.58356 22.32726
#
# Velocity S-wave (km/s) = 3.41163 3.60931 3.51186
# Velocity P-wave (km/s) = 5.74849 6.19584 5.97635
#
# Compressibility (1/GPa) = 0.03151745
#
# Stress axis : x y z
#
# Youngs Moduli (GPa) = 86.49511 32.52829 67.73028
#
# Poissons Ratio (x) = 0.25702 0.09104
# Poissons Ratio (y) = 0.68343 0.23907
# Poissons Ratio (z) = 0.11627 0.11482
#
# Static dielectric constant tensor:
#      x y z
#    x 1.672780 0.000000 0.000000 
#    y 0.000000 1.623230 0.000000 
#    z 0.000000 0.000000 1.647480 
# 
# From -- ./inp_files/20414.got.cif
#   From: 2010.05.17/outbox.cif.g08.bks.cpg/sg23_11_cif.got.tgz:20414.got - 2010.06.04 12:02:01.
