data_PCOD9329817
_publ_section_title
;
Structure prediction by ZEFSAII (Michael W. Deem and Ramdas Pophale) SiO2 
 PCOD9329817
Probable space group: I 2 2 2
;
_chemical_formula_sum "Si O2"
_cell_formula_units_Z 40
_cell_length_a 22.278845
_cell_length_b 4.955844
_cell_length_c 22.500819
_cell_angle_alpha 90.000000
_cell_angle_beta 90.000000
_cell_angle_gamma 90.000000
_cell_volume 2484.326233
_symmetry_space_group_name_H-M "I 2 2 2"
_symmetry_group_IT_number 23
_symmetry_cell_setting 'orthorhombic'
loop_
_space_group_symop_operation_xyz
x,y,z
-x,-y,z
x,-y,-z
-x,y,-z
1/2+x,1/2+y,1/2+z
1/2-x,1/2-y,1/2+z
1/2+x,1/2-y,1/2-z
1/2-x,1/2+y,1/2-z
loop_
_atom_site_type_symbol
_atom_site_label
_atom_site_fract_x
_atom_site_fract_y
_atom_site_fract_z
Si Si1 0.211825 0.606580 0.319830
Si Si2 0.562937 0.370095 0.091403
Si Si3 0.860950 0.372381 0.439156
Si Si4 0.828865 0.113699 0.753643
Si Si5 0.041471 0.766372 0.730672
O O1 0.186769 0.619552 0.385919
O O2 0.197539 0.309227 0.296679
O O3 0.282551 0.644955 0.308100
O O4 0.176448 0.816944 0.276281
O O5 0.500000 0.500000 0.072058
O O6 0.612975 0.571152 0.065455
O O7 0.559804 0.353246 0.163226
O O8 0.581837 0.069460 0.073392
O O9 0.836243 0.500000 0.500000
O O10 0.895544 0.222911 0.764903
O O11 0.000000 0.500000 0.728016
O O12 0.000000 0.000000 0.755945
#
# Coordination Sequence:
#
# PCOD9329817 Si02
#       5
#     8   8   8   8   8
#     4  10  19  34  48  70  90 123 165 193 249 283
#     4  11  22  34  46  65  94 131 168 203 236 272
#     4  12  22  34  49  66  94 126 169 210 235 277
#     4  10  19  32  53  66  93 123 156 202 237 305
#     4  11  19  30  49  71  95 122 158 201 245 287
#
# _framework density 16.100943999999998
#
# number of rings (size 3 to 8) (size 9 to 14) (size 15 to 20)
#    0.000    1.200    4.000    4.800    0.000    2.400 
#    0.000    0.000    0.000    0.000    0.000    0.000 
#    0.000    0.800    0.000    3.600    0.000    0.000 
#
# Total GULP energy -111443.556245 kJ/mol
# GULP energy per Si atom -5572.177812 kJ/mol
# Density = 1.606430 g / cm^3
# Si number density = 16.100944 Si / 1000 Ang^3
#
#
#
# Elastic Constant Matrix: (Units=GPa)
#
#
# Indices 1 2 3 4 5 6 
#
# 1 112.2497 12.3429 42.9003 0.0000 0.0000 0.0000
# 2 12.3429 68.1099 3.6120 0.0000 0.0000 0.0000
# 3 42.9003 3.6120 60.3866 0.0000 0.0000 0.0000
# 4 0.0000 0.0000 0.0000 9.6878 0.0000 0.0000
# 5 0.0000 0.0000 0.0000 0.0000 12.8123 0.0000
# 6 0.0000 0.0000 0.0000 0.0000 0.0000 18.6823
#
#
#
# Elastic Compliance Matrix: (Units=1/GPa)
#
#
# Indices 1 2 3 4 5 6 
#
# 1 0.012443 -0.001792 -0.008733 0.000000 0.000000 0.000000
# 2 -0.001792 0.014987 0.000377 0.000000 0.000000 0.000000
# 3 -0.008733 0.000377 0.022742 0.000000 0.000000 0.000000
# 4 0.000000 0.000000 0.000000 0.103223 0.000000 0.000000
# 5 0.000000 0.000000 0.000000 0.000000 0.078050 0.000000
# 6 0.000000 0.000000 0.000000 0.000000 0.000000 0.053527
#
#
# Mechanical properties :
#
#
# Convention : Reuss Voigt Hill
#
# Bulk Modulus (GPa) = 33.47238 39.82847 36.65043
# Shear Modulus (GPa) = 15.86164 20.36254 18.11209
#
# Velocity S-wave (km/s) = 3.14209 3.56009 3.35760
# Velocity P-wave (km/s) = 5.83077 6.45674 6.15172
#
# Compressibility (1/GPa) = 0.02987537
#
# Stress axis : x y z
#
# Youngs Moduli (GPa) = 80.36428 66.72490 43.97238
#
# Poissons Ratio (x) = 0.11956 0.38401
# Poissons Ratio (y) = 0.14400 -0.01656
# Poissons Ratio (z) = 0.70181 -0.02513
#
# Static dielectric constant tensor:
#      x y z
#    x 1.635100 0.000000 0.000000 
#    y 0.000000 1.566340 0.000000 
#    z 0.000000 0.000000 1.551350 
# 
# From -- ./inp_files/27229.got.cif
#   From: 2010.05.17/outbox.cif.g08.bks.cpg/sg23_14_cif.got.tgz:27229.got - 2010.06.04 12:02:01.
