data_PCOD9329942
_publ_section_title
;
Structure prediction by ZEFSAII (Michael W. Deem and Ramdas Pophale) SiO2 
 PCOD9329942
Probable space group: I 2 2 2
;
_chemical_formula_sum "Si O2"
_cell_formula_units_Z 64
_cell_length_a 12.403923
_cell_length_b 17.482436
_cell_length_c 14.582155
_cell_angle_alpha 90.000000
_cell_angle_beta 90.000000
_cell_angle_gamma 90.000000
_cell_volume 3162.151832
_symmetry_space_group_name_H-M "I 2 2 2"
_symmetry_group_IT_number 23
_symmetry_cell_setting 'orthorhombic'
loop_
_space_group_symop_operation_xyz
x,y,z
-x,-y,z
x,-y,-z
-x,y,-z
1/2+x,1/2+y,1/2+z
1/2-x,1/2-y,1/2+z
1/2+x,1/2-y,1/2-z
1/2-x,1/2+y,1/2-z
loop_
_atom_site_type_symbol
_atom_site_label
_atom_site_fract_x
_atom_site_fract_y
_atom_site_fract_z
Si Si1 0.567159 0.370251 0.229685
Si Si2 0.692847 0.745328 0.014532
Si Si3 0.054790 0.375238 0.597158
Si Si4 0.221187 0.952502 0.873581
Si Si5 0.624847 0.347986 0.514402
Si Si6 0.126775 0.701075 0.692910
Si Si7 0.375000 0.582800 0.029034
Si Si8 0.669638 0.616232 0.286340
O O1 0.635030 0.404404 0.313278
O O2 0.579115 0.278746 0.233456
O O3 0.622717 0.402864 0.137820
O O4 0.440279 0.392649 0.229254
O O5 0.811359 0.778274 0.031808
O O6 0.662239 0.773526 0.911004
O O7 0.681987 0.655055 0.017637
O O8 0.608697 0.791592 0.077483
O O9 0.153599 0.427997 0.628115
O O10 0.000000 0.399582 0.500000
O O11 0.963756 0.362441 0.672934
O O12 0.208525 0.035814 0.829097
O O13 0.184941 0.923352 0.975121
O O14 0.500000 0.355112 0.500000
O O15 0.633549 0.338836 0.622870
O O16 0.227571 0.664668 0.747239
O O17 0.332325 0.500000 0.000000
O O18 0.500000 0.586487 0.000000
#
# Coordination Sequence:
#
# PCOD9329942 Si02
#       8
#     8   8   8   8   8   8   8   8
#     4  11  23  38  57  87 125 154 205 259 304 363
#     4   8  16  34  56  84 109 146 202 246 282 357
#     4   9  18  37  61  85 119 157 207 244 291 371
#     4  11  23  35  58  92 125 158 194 254 310 361
#     4  10  19  35  55  82 121 162 190 226 297 376
#     4   9  20  37  57  80 113 162 199 244 297 352
#     4  10  21  36  60  85 111 149 199 261 320 345
#     4  11  23  37  58  87 124 158 200 248 304 372
#
# _framework density 20.239383
#
# number of rings (size 3 to 8) (size 9 to 14) (size 15 to 20)
#    0.000    2.125    1.250    3.375    5.250    1.000 
#    0.000    3.125    0.000    0.375    0.000    0.000 
#    0.000    0.000    0.000    0.000    0.000    0.000 
#
# Total GULP energy -178442.886647 kJ/mol
# GULP energy per Si atom -5576.340208 kJ/mol
# Density = 2.019332 g / cm^3
# Si number density = 20.239383 Si / 1000 Ang^3
#
#
#
# Elastic Constant Matrix: (Units=GPa)
#
#
# Indices 1 2 3 4 5 6 
#
# 1 101.2305 48.9330 -7.4332 0.0000 0.0000 0.0000
# 2 48.9330 111.9112 -0.0834 0.0001 0.0000 0.0000
# 3 -7.4332 -0.0834 27.9549 0.0001 0.0000 0.0000
# 4 0.0000 0.0001 0.0001 19.9474 0.0000 0.0000
# 5 0.0000 0.0000 0.0000 0.0000 10.1664 0.0000
# 6 0.0000 0.0000 0.0000 0.0000 0.0000 9.4617
#
#
#
# Elastic Compliance Matrix: (Units=1/GPa)
#
#
# Indices 1 2 3 4 5 6 
#
# 1 0.012841 -0.005612 0.003398 0.000000 0.000000 0.000000
# 2 -0.005612 0.011388 -0.001458 0.000000 0.000000 0.000000
# 3 0.003398 -0.001458 0.036671 0.000000 0.000000 0.000000
# 4 0.000000 0.000000 0.000000 0.050132 0.000000 0.000000
# 5 0.000000 0.000000 0.000000 0.000000 0.098363 0.000000
# 6 0.000000 0.000000 0.000000 0.000000 0.000000 0.105689
#
#
# Mechanical properties :
#
#
# Convention : Reuss Voigt Hill
#
# Bulk Modulus (GPa) = 18.67250 35.99216 27.33233
# Shear Modulus (GPa) = 14.69375 21.22713 17.96044
#
# Velocity S-wave (km/s) = 2.69736 3.24204 2.98216
# Velocity P-wave (km/s) = 4.35280 5.64236 5.03900
#
# Compressibility (1/GPa) = 0.05355469
#
# Stress axis : x y z
#
# Youngs Moduli (GPa) = 77.87741 87.80842 27.26950
#
# Poissons Ratio (x) = 0.49278 -0.09265
# Poissons Ratio (y) = 0.43705 0.03977
# Poissons Ratio (z) = -0.26460 0.12805
#
# Static dielectric constant tensor:
#      x y z
#    x 1.743400 0.000000 0.000000 
#    y 0.000000 1.748990 0.000000 
#    z 0.000000 0.000000 1.795960 
# 
# From -- ./inp_files/21035.got.cif
#   From: 2010.05.17/outbox.cif.g08.bks.cpg/sg23_11_cif.got.tgz:21035.got - 2010.06.04 12:02:01.
