data_PCOD9329964
_publ_section_title
;
Structure prediction by ZEFSAII (Michael W. Deem and Ramdas Pophale) SiO2 
 PCOD9329964
Probable space group: I 2 2 2
;
_chemical_formula_sum "Si O2"
_cell_formula_units_Z 64
_cell_length_a 24.858746
_cell_length_b 5.572344
_cell_length_c 21.941010
_cell_angle_alpha 90.000000
_cell_angle_beta 90.000000
_cell_angle_gamma 90.000000
_cell_volume 3039.301268
_symmetry_space_group_name_H-M "I 2 2 2"
_symmetry_group_IT_number 23
_symmetry_cell_setting 'orthorhombic'
loop_
_space_group_symop_operation_xyz
x,y,z
-x,-y,z
x,-y,-z
-x,y,-z
1/2+x,1/2+y,1/2+z
1/2-x,1/2-y,1/2+z
1/2+x,1/2-y,1/2-z
1/2-x,1/2+y,1/2-z
loop_
_atom_site_type_symbol
_atom_site_label
_atom_site_fract_x
_atom_site_fract_y
_atom_site_fract_z
Si Si1 0.871200 0.845743 0.173749
Si Si2 0.488030 0.749676 0.305760
Si Si3 0.266226 0.125540 0.058437
Si Si4 0.160423 0.615903 0.942609
Si Si5 0.692656 0.785568 0.780818
Si Si6 0.845448 0.213134 0.342167
Si Si7 0.703242 0.729050 0.348926
Si Si8 0.528322 0.250474 0.831595
O O1 0.924742 0.768319 0.207539
O O2 0.874188 0.780042 0.102576
O O3 0.822407 0.720587 0.209852
O O4 0.852741 0.120027 0.175331
O O5 0.500000 0.500000 0.339167
O O6 0.521569 0.750749 0.242680
O O7 0.500000 0.000000 0.337990
O O8 0.213491 0.255165 0.031477
O O9 0.309014 0.281485 0.096346
O O10 0.237860 0.953052 0.108297
O O11 0.292712 0.000000 0.000000
O O12 0.186061 0.431030 0.895266
O O13 0.131256 0.500000 0.000000
O O14 0.665228 0.545677 0.810241
O O15 0.755326 0.739613 0.793889
O O16 0.672157 0.038796 0.807871
O O17 0.909456 0.239541 0.349933
O O18 0.500000 0.500000 0.851466
O O19 0.500000 0.000000 0.851505
#
# Coordination Sequence:
#
# PCOD9329964 Si02
#       8
#     8   8   8   8   8   8   8   8
#     4  11  26  36  62  95 126 171 215 270 335 400
#     4  10  21  39  60  87 120 162 210 264 326 395
#     4  10  20  38  59  92 124 173 222 263 307 386
#     4  11  22  41  63  87 125 173 223 261 319 389
#     4  11  23  38  58  93 138 168 204 259 335 410
#     4  11  22  38  63  95 128 173 218 267 332 396
#     4  10  23  36  58  87 129 166 204 259 316 393
#     4  10  19  35  58  85 122 162 208 263 323 391
#
# _framework density 21.057472000000001
#
# number of rings (size 3 to 8) (size 9 to 14) (size 15 to 20)
#    0.000    1.500    2.500    3.750    5.250    0.000 
#    0.000    0.000    0.000    0.750    0.000    0.875 
#    0.000    0.000    0.000    0.000    0.000    0.000 
#
# Total GULP energy -178443.158361 kJ/mol
# GULP energy per Si atom -5576.348699 kJ/mol
# Density = 2.100954 g / cm^3
# Si number density = 21.057472 Si / 1000 Ang^3
#
#
#
# Elastic Constant Matrix: (Units=GPa)
#
#
# Indices 1 2 3 4 5 6 
#
# 1 72.1007 25.4367 -3.8622 0.0000 0.0000 0.0000
# 2 25.4367 122.0029 -0.9418 0.0000 0.0000 0.0000
# 3 -3.8622 -0.9418 66.0765 0.0000 0.0000 0.0000
# 4 0.0000 0.0000 0.0000 27.6665 0.0000 0.0000
# 5 0.0000 0.0000 0.0000 0.0000 5.9791 0.0000
# 6 0.0000 0.0000 0.0000 0.0000 0.0000 27.2723
#
#
#
# Elastic Compliance Matrix: (Units=1/GPa)
#
#
# Indices 1 2 3 4 5 6 
#
# 1 0.015016 -0.003124 0.000833 0.000000 0.000000 0.000000
# 2 -0.003124 0.008847 -0.000057 0.000000 0.000000 0.000000
# 3 0.000833 -0.000057 0.015182 0.000000 0.000000 0.000000
# 4 0.000000 0.000000 0.000000 0.036145 0.000000 0.000000
# 5 0.000000 0.000000 0.000000 0.000000 0.167249 0.000000
# 6 0.000000 0.000000 0.000000 0.000000 0.000000 0.036667
#
#
# Mechanical properties :
#
#
# Convention : Reuss Voigt Hill
#
# Bulk Modulus (GPa) = 29.11184 33.49398 31.30291
# Shear Modulus (GPa) = 16.93466 28.15340 22.54403
#
# Velocity S-wave (km/s) = 2.83894 3.66044 3.27554
# Velocity P-wave (km/s) = 4.95994 5.81426 5.40401
#
# Compressibility (1/GPa) = 0.03435029
#
# Stress axis : x y z
#
# Youngs Moduli (GPa) = 66.59396 113.02634 65.86810
#
# Poissons Ratio (x) = 0.35314 -0.05488
# Poissons Ratio (y) = 0.20806 0.00372
# Poissons Ratio (z) = -0.05548 0.00639
#
# Static dielectric constant tensor:
#      x y z
#    x 1.772450 0.000000 0.000000 
#    y 0.000000 1.931960 0.000000 
#    z 0.000000 0.000000 1.770140 
# 
# From -- ./inp_files/4099.got.cif
#   From: 2010.05.17/outbox.cif.g08.bks.cpg/sg23_3_cif.got.tgz:4099.got - 2010.06.04 12:02:01.
