data_PCOD9329812
_publ_section_title
;
Structure prediction by ZEFSAII (Michael W. Deem and Ramdas Pophale) SiO2 
 PCOD9329812
Probable space group: I 2 2 2
;
_chemical_formula_sum "Si O2"
_cell_formula_units_Z 60
_cell_length_a 12.035277
_cell_length_b 9.152338
_cell_length_c 28.060974
_cell_angle_alpha 90.000000
_cell_angle_beta 90.000000
_cell_angle_gamma 90.000000
_cell_volume 3090.942187
_symmetry_space_group_name_H-M "I 2 2 2"
_symmetry_group_IT_number 23
_symmetry_cell_setting 'orthorhombic'
loop_
_space_group_symop_operation_xyz
x,y,z
-x,-y,z
x,-y,-z
-x,y,-z
1/2+x,1/2+y,1/2+z
1/2-x,1/2-y,1/2+z
1/2+x,1/2-y,1/2-z
1/2-x,1/2+y,1/2-z
loop_
_atom_site_type_symbol
_atom_site_label
_atom_site_fract_x
_atom_site_fract_y
_atom_site_fract_z
Si Si1 0.622852 0.261078 0.984155
Si Si2 0.228475 0.292657 0.678543
Si Si3 0.793118 0.534681 0.828297
Si Si4 0.690599 0.296726 0.089733
Si Si5 0.043386 0.644167 0.251080
Si Si6 0.610935 0.405204 0.251972
Si Si7 0.500000 0.500000 0.077859
Si Si8 0.368769 0.032758 0.092408
O O1 0.587987 0.402725 0.952639
O O2 0.668941 0.126929 0.953645
O O3 0.500000 0.208979 0.000000
O O4 0.689921 0.302479 0.031747
O O5 0.137619 0.269349 0.720151
O O6 0.312162 0.411998 0.701200
O O7 0.162312 0.361154 0.635252
O O8 0.286060 0.140054 0.664927
O O9 0.780043 0.619698 0.878152
O O10 0.898043 0.590322 0.797575
O O11 0.687548 0.570304 0.793947
O O12 0.574851 0.379876 0.103938
O O13 0.686796 0.124722 0.099589
O O14 0.000000 0.500000 0.277838
O O15 0.935355 0.741393 0.246500
O O16 0.500000 0.500000 0.253301
O O17 0.500000 0.000000 0.089564
#
# Coordination Sequence:
#
# PCOD9329812 Si02
#       8
#     8   8   8   8   8   8   4   8
#     4  10  19  35  52  77 113 156 190 231 293 354
#     4  11  25  39  57  91 116 153 206 243 289 361
#     4  11  25  38  57  90 116 152 205 240 290 364
#     4  11  23  32  53  80 116 150 193 238 277 354
#     4  11  23  42  62  80 116 160 194 243 303 338
#     4  11  24  41  62  80 120 159 193 250 297 344
#     4  10  19  32  52  74 110 154 188 224 294 346
#     4  12  23  34  56  82 119 156 194 242 287 353
#
# _framework density 19.411556999999998
#
# number of rings (size 3 to 8) (size 9 to 14) (size 15 to 20)
#    0.000    1.067    5.333    3.400    6.533    0.000 
#    0.000    0.000    0.000    0.000    0.000    0.933 
#    0.000    0.000    0.000    0.000    0.000    0.000 
#
# Total GULP energy -167299.305298 kJ/mol
# GULP energy per Si atom -5576.643510 kJ/mol
# Density = 1.936738 g / cm^3
# Si number density = 19.411557 Si / 1000 Ang^3
#
#
#
# Elastic Constant Matrix: (Units=GPa)
#
#
# Indices 1 2 3 4 5 6 
#
# 1 38.7974 -1.3251 14.4708 0.0000 0.0000 0.0000
# 2 -1.3251 96.4682 28.1223 0.0000 0.0000 0.0000
# 3 14.4708 28.1223 84.3357 0.0000 0.0000 0.0000
# 4 0.0000 0.0000 0.0000 28.3822 0.0000 0.0000
# 5 0.0000 0.0000 0.0000 0.0000 26.2469 0.0000
# 6 0.0000 0.0000 0.0000 0.0000 0.0000 21.6973
#
#
#
# Elastic Compliance Matrix: (Units=1/GPa)
#
#
# Indices 1 2 3 4 5 6 
#
# 1 0.027871 0.001968 -0.005439 0.000000 0.000000 0.000000
# 2 0.001968 0.011621 -0.004213 0.000000 0.000000 0.000000
# 3 -0.005439 -0.004213 0.014195 0.000000 0.000000 0.000000
# 4 0.000000 0.000000 0.000000 0.035233 0.000000 0.000000
# 5 0.000000 0.000000 0.000000 0.000000 0.038100 0.000000
# 6 0.000000 0.000000 0.000000 0.000000 0.000000 0.046089
#
#
# Mechanical properties :
#
#
# Convention : Reuss Voigt Hill
#
# Bulk Modulus (GPa) = 26.09539 33.57082 29.83311
# Shear Modulus (GPa) = 24.84483 27.15416 25.99950
#
# Velocity S-wave (km/s) = 3.58145 3.74420 3.66373
# Velocity P-wave (km/s) = 5.52945 6.00198 5.77055
#
# Compressibility (1/GPa) = 0.03832094
#
# Stress axis : x y z
#
# Youngs Moduli (GPa) = 35.88004 86.04892 70.44549
#
# Poissons Ratio (x) = -0.16937 0.38312
# Poissons Ratio (y) = -0.07062 0.29678
# Poissons Ratio (z) = 0.19513 0.36252
#
# Static dielectric constant tensor:
#      x y z
#    x 1.672080 0.000000 0.000000 
#    y 0.000000 1.743140 0.000000 
#    z 0.000000 0.000000 1.725740 
# 
# From -- ./inp_files/29453.got.cif
#   From: 2010.05.17/outbox.cif.g08.bks.cpg/sg23_15_cif.got.tgz:29453.got - 2010.06.04 12:02:01.
