data_PCOD9329211
_publ_section_title
;
Structure prediction by ZEFSAII (Michael W. Deem and Ramdas Pophale) SiO2 
 PCOD9329211
Probable space group: F 2 2 2
;
_chemical_formula_sum "Si O2"
_cell_formula_units_Z 72
_cell_length_a 12.304574
_cell_length_b 14.889698
_cell_length_c 16.528334
_cell_angle_alpha 90.000000
_cell_angle_beta 90.000000
_cell_angle_gamma 90.000000
_cell_volume 3028.179061
_symmetry_space_group_name_H-M "F 2 2 2"
_symmetry_group_IT_number 22
_symmetry_cell_setting 'orthorhombic'
loop_
_space_group_symop_operation_xyz
x,y,z
-x,-y,z
x,-y,-z
-x,y,-z
x,1/2+y,1/2+z
-x,1/2-y,1/2+z
x,1/2-y,1/2-z
-x,1/2+y,1/2-z
1/2+x,y,1/2+z
1/2-x,-y,1/2+z
1/2+x,-y,1/2-z
1/2-x,y,1/2-z
1/2+x,1/2+y,z
1/2-x,1/2-y,z
1/2+x,1/2-y,-z
1/2-x,1/2+y,-z
loop_
_atom_site_type_symbol
_atom_site_label
_atom_site_fract_x
_atom_site_fract_y
_atom_site_fract_z
Si Si1 0.401758 0.877666 0.063112
Si Si2 0.500000 0.000000 0.197925
Si Si3 0.057045 0.793492 0.160626
Si Si4 0.155035 0.378742 0.306921
Si Si5 0.324273 0.040566 0.578235
O O1 0.428579 0.937490 0.141100
O O2 0.403104 0.776067 0.093475
O O3 0.281482 0.909739 0.041413
O O4 0.500000 0.891626 0.000000
O O5 0.572792 0.934855 0.250779
O O6 0.081257 0.750000 0.250000
O O7 0.113076 0.888078 0.135767
O O8 0.926212 0.805973 0.154577
O O9 0.250000 0.344658 0.250000
O O10 0.201238 0.452854 0.368162
O O11 0.384561 0.000000 0.500000
#
# Coordination Sequence:
#
# PCOD9329211 Si02
#       5
#    16   8  16  16  16
#     4  12  27  47  74 110 158 201 261 325 398 470
#     4  12  21  48  73 106 140 208 256 318 377 478
#     4  12  27  50  77 115 160 202 262 334 391 475
#     4  12  25  46  78 112 152 204 267 320 393 475
#     4  12  27  47  81 113 155 210 265 324 402 473
#
# _framework density 23.776665999999999
#
# number of rings (size 3 to 8) (size 9 to 14) (size 15 to 20)
#    0.000    0.000    6.667    2.333    3.111    2.222 
#    0.000    0.000    0.000    0.000    0.000    0.000 
#    0.000    0.000    0.000    0.000    0.000    0.000 
#
# Total GULP energy -100695.671799 kJ/mol
# GULP energy per Si atom -5594.203989 kJ/mol
# Density = 2.372255 g / cm^3
# Si number density = 23.776666 Si / 1000 Ang^3
#
#
#
# Elastic Constant Matrix: (Units=GPa)
#
#
# Indices 1 2 3 4 5 6 
#
# 1 148.9960 35.1739 50.1793 0.0000 0.0000 0.0000
# 2 35.1739 119.9771 46.2467 0.0000 0.0000 0.0000
# 3 50.1793 46.2467 97.9419 0.0000 0.0000 0.0000
# 4 0.0000 0.0000 0.0000 26.4651 0.0000 0.0000
# 5 0.0000 0.0000 0.0000 0.0000 -758.5420 0.0000
# 6 0.0000 0.0000 0.0000 0.0000 0.0000 33.2019
#
#
#
# Elastic Compliance Matrix: (Units=1/GPa)
#
#
# Indices 1 2 3 4 5 6 
#
# 1 0.008200 -0.000959 -0.003748 0.000000 0.000000 0.000000
# 2 -0.000959 0.010302 -0.004373 0.000000 0.000000 0.000000
# 3 -0.003748 -0.004373 0.014195 0.000000 0.000000 0.000000
# 4 0.000000 0.000000 0.000000 0.037786 0.000000 0.000000
# 5 0.000000 0.000000 0.000000 0.000000 -0.001318 0.000000
# 6 0.000000 0.000000 0.000000 0.000000 0.000000 0.030119
#
#
# Mechanical properties :
#
#
# Convention : Reuss Voigt Hill
#
# Bulk Modulus (GPa) = 68.79257 70.01276 69.40266
# Shear Modulus (GPa) = 40.88633 -124.08732 -41.60050
#
# Velocity S-wave (km/s) = 4.15130 -7.23201 -4.18740
# Velocity P-wave (km/s) = 7.20926 6.34240 2.42356
#
# Compressibility (1/GPa) = 0.01453645
#
# Stress axis : x y z
#
# Youngs Moduli (GPa) = 121.94444 97.07115 70.44531
#
# Poissons Ratio (x) = 0.09312 0.26406
# Poissons Ratio (y) = 0.11698 0.30805
# Poissons Ratio (z) = 0.45710 0.42448
#
# Static dielectric constant tensor:
#      x y z
#    x 1.924630 0.000000 0.000000 
#    y 0.000000 4.497690 0.000000 
#    z 0.000000 0.000000 1.922560 
# 
# From -- ./inp_files/36959.got.cif
#   From: 2010.05.17/outbox.cif.g08.bks.cpg/sg22_19_cif.got.tgz:36959.got - 2010.06.03 23:40:54.
