data_PCOD9329835
_publ_section_title
;
Structure prediction by ZEFSAII (Michael W. Deem and Ramdas Pophale) SiO2 
 PCOD9329835
Probable space group: I 2 2 2
;
_chemical_formula_sum "Si O2"
_cell_formula_units_Z 56
_cell_length_a 17.318154
_cell_length_b 8.098789
_cell_length_c 18.726681
_cell_angle_alpha 90.000000
_cell_angle_beta 90.000000
_cell_angle_gamma 90.000000
_cell_volume 2626.530777
_symmetry_space_group_name_H-M "I 2 2 2"
_symmetry_group_IT_number 23
_symmetry_cell_setting 'orthorhombic'
loop_
_space_group_symop_operation_xyz
x,y,z
-x,-y,z
x,-y,-z
-x,y,-z
1/2+x,1/2+y,1/2+z
1/2-x,1/2-y,1/2+z
1/2+x,1/2-y,1/2-z
1/2-x,1/2+y,1/2-z
loop_
_atom_site_type_symbol
_atom_site_label
_atom_site_fract_x
_atom_site_fract_y
_atom_site_fract_z
Si Si1 0.696779 0.956948 0.654061
Si Si2 0.401224 0.266342 0.290830
Si Si3 0.361991 0.500000 0.000000
Si Si4 0.142942 0.671434 0.705074
Si Si5 0.279163 0.234318 0.524805
Si Si6 0.618089 0.475849 0.844865
Si Si7 0.293019 0.433007 0.386666
Si Si8 0.500000 0.000000 0.252659
O O1 0.673458 0.824138 0.713695
O O2 0.676740 0.901592 0.573535
O O3 0.788716 0.966235 0.652496
O O4 0.661756 0.125955 0.685877
O O5 0.406038 0.335531 0.210333
O O6 0.368270 0.420169 0.336092
O O7 0.479496 0.160702 0.300307
O O8 0.302827 0.656148 0.999441
O O9 0.407804 0.524605 0.926863
O O10 0.215859 0.621715 0.656288
O O11 0.074792 0.537398 0.705719
O O12 0.103920 0.842301 0.684465
O O13 0.311839 0.308256 0.451931
O O14 0.273969 0.390667 0.578134
#
# Coordination Sequence:
#
# PCOD9329835 Si02
#       8
#     8   8   4   8   8   8   8   4
#     4  10  19  32  60  96 128 159 210 283 333 382
#     4  11  22  40  63  95 129 177 225 281 337 405
#     4  10  20  32  52  93 130 163 196 288 338 370
#     4  11  21  39  59  96 125 177 214 281 330 395
#     4  10  21  34  58 104 137 163 214 293 343 400
#     4  11  19  34  62  87 120 166 220 265 324 396
#     4  11  20  36  67  97 130 174 231 275 338 404
#     4  10  28  40  60  94 144 168 224 280 350 388
#
# _framework density 21.320900000000002
#
# number of rings (size 3 to 8) (size 9 to 14) (size 15 to 20)
#    0.000    1.429    4.286    1.714    8.000    0.571 
#    0.000    0.000    0.000   14.571    0.000    8.000 
#    0.000    0.000    0.000    0.000    0.000    0.000 
#
# Total GULP energy -155984.439998 kJ/mol
# GULP energy per Si atom -5570.872857 kJ/mol
# Density = 2.127237 g / cm^3
# Si number density = 21.320900 Si / 1000 Ang^3
#
#
#
# Elastic Constant Matrix: (Units=GPa)
#
#
# Indices 1 2 3 4 5 6 
#
# 1 48.7024 17.6233 37.7166 0.0000 0.0000 0.0000
# 2 17.6233 94.8934 39.1568 0.0000 0.0000 0.0000
# 3 37.7166 39.1568 148.4396 0.0000 0.0000 0.0000
# 4 0.0000 0.0000 0.0000 38.8169 0.0000 0.0000
# 5 0.0000 0.0000 0.0000 0.0000 -3.3291 0.0000
# 6 0.0000 0.0000 0.0000 0.0000 0.0000 20.5399
#
#
#
# Elastic Compliance Matrix: (Units=1/GPa)
#
#
# Indices 1 2 3 4 5 6 
#
# 1 0.026026 -0.002362 -0.005990 0.000000 0.000000 0.000000
# 2 -0.002362 0.012040 -0.002576 0.000000 0.000000 0.000000
# 3 -0.005990 -0.002576 0.008938 0.000000 0.000000 0.000000
# 4 0.000000 0.000000 0.000000 0.025762 0.000000 0.000000
# 5 0.000000 0.000000 0.000000 0.000000 -0.300385 0.000000
# 6 0.000000 0.000000 0.000000 0.000000 0.000000 0.048686
#
#
# Mechanical properties :
#
#
# Convention : Reuss Voigt Hill
#
# Bulk Modulus (GPa) = 39.76306 53.44762 46.60534
# Shear Modulus (GPa) = -33.62578 24.37480 -4.62549
#
# Velocity S-wave (km/s) = -3.97562 3.38484 -1.47451
# Velocity P-wave (km/s) = 1.54393 6.35601 4.35976
#
# Compressibility (1/GPa) = 0.02514897
#
# Stress axis : x y z
#
# Youngs Moduli (GPa) = 38.42270 83.05883 111.87961
#
# Poissons Ratio (x) = 0.19617 0.67015
# Poissons Ratio (y) = 0.09075 0.28818
# Poissons Ratio (z) = 0.23015 0.21394
#
# Static dielectric constant tensor:
#      x y z
#    x 1.767590 0.000000 0.000000 
#    y 0.000000 1.885520 0.000000 
#    z 0.000000 0.000000 1.840820 
# 
# From -- ./inp_files/27169.got.cif
#   From: 2010.05.17/outbox.cif.g08.bks.cpg/sg23_14_cif.got.tgz:27169.got - 2010.06.04 12:02:01.
