data_PCOD9329914
_publ_section_title
;
Structure prediction by ZEFSAII (Michael W. Deem and Ramdas Pophale) SiO2 
 PCOD9329914
Probable space group: I 2 2 2
;
_chemical_formula_sum "Si O2"
_cell_formula_units_Z 48
_cell_length_a 26.704512
_cell_length_b 10.930342
_cell_length_c 7.027631
_cell_angle_alpha 90.000000
_cell_angle_beta 90.000000
_cell_angle_gamma 90.000000
_cell_volume 2051.291341
_symmetry_space_group_name_H-M "I 2 2 2"
_symmetry_group_IT_number 23
_symmetry_cell_setting 'orthorhombic'
loop_
_space_group_symop_operation_xyz
x,y,z
-x,-y,z
x,-y,-z
-x,y,-z
1/2+x,1/2+y,1/2+z
1/2-x,1/2-y,1/2+z
1/2+x,1/2-y,1/2-z
1/2-x,1/2+y,1/2-z
loop_
_atom_site_type_symbol
_atom_site_label
_atom_site_fract_x
_atom_site_fract_y
_atom_site_fract_z
Si Si1 0.810890 0.301686 0.994802
Si Si2 0.547777 0.937741 0.296223
Si Si3 0.868172 0.592774 0.369636
Si Si4 0.555379 0.713419 0.077970
Si Si5 0.215653 0.885608 0.690244
Si Si6 0.655009 0.634241 0.172648
O O1 0.842171 0.362467 0.825317
O O2 0.782873 0.193423 0.879657
O O3 0.812448 0.985820 0.722298
O O4 0.770271 0.385704 0.098465
O O5 0.543748 0.794274 0.266545
O O6 0.500000 0.000000 0.201594
O O7 0.550100 0.000000 0.500000
O O8 0.596778 0.981937 0.195944
O O9 0.832931 0.500000 0.500000
O O10 0.909235 0.697531 0.442063
O O11 0.596278 0.611464 0.134305
O O12 0.500000 0.681275 0.000000
O O13 0.341108 0.734493 0.662472
O O14 0.181347 0.822184 0.524246
#
# Coordination Sequence:
#
# PCOD9329914 Si02
#       6
#     8   8   8   8   8   8
#     4  12  23  50  75 104 147 195 241 314 400 452
#     4  10  19  34  60  99 137 183 239 307 366 434
#     4  10  22  39  64 104 144 184 243 303 371 454
#     4  11  21  41  69 100 148 203 244 305 381 444
#     4  11  25  47  72 109 135 193 249 315 381 463
#     4  11  25  47  72 104 150 188 254 311 377 467
#
# _framework density 23.399894
#
# number of rings (size 3 to 8) (size 9 to 14) (size 15 to 20)
#    0.000    1.167    5.000    1.500    0.000    0.000 
#   21.000    1.667    0.000    0.000    8.667    0.000 
#    0.000    0.000    0.000    0.000    0.000    0.000 
#
# Total GULP energy -133660.119306 kJ/mol
# GULP energy per Si atom -5569.171638 kJ/mol
# Density = 2.334664 g / cm^3
# Si number density = 23.399894 Si / 1000 Ang^3
#
#
#
# Elastic Constant Matrix: (Units=GPa)
#
#
# Indices 1 2 3 4 5 6 
#
# 1 144.7213 55.5148 20.7868 0.0000 0.0000 0.0000
# 2 55.5148 75.1299 25.7262 0.0000 0.0000 0.0000
# 3 20.7868 25.7262 89.6537 0.0000 -0.0001 0.0000
# 4 0.0000 0.0000 0.0000 47.7525 0.0000 0.0000
# 5 0.0000 0.0000 -0.0001 0.0000 -2.2532 0.0000
# 6 0.0000 0.0000 0.0000 0.0000 0.0000 30.9975
#
#
#
# Elastic Compliance Matrix: (Units=1/GPa)
#
#
# Indices 1 2 3 4 5 6 
#
# 1 0.009647 -0.007056 -0.000212 0.000000 0.000000 0.000000
# 2 -0.007056 0.019921 -0.004080 0.000000 0.000000 0.000000
# 3 -0.000212 -0.004080 0.012374 0.000000 0.000000 0.000000
# 4 0.000000 0.000000 0.000000 0.020941 0.000000 0.000000
# 5 0.000000 0.000000 0.000000 0.000000 -0.443805 0.000000
# 6 0.000000 0.000000 0.000000 0.000000 0.000000 0.032261
#
#
# Mechanical properties :
#
#
# Convention : Reuss Voigt Hill
#
# Bulk Modulus (GPa) = 51.95973 57.06229 54.51101
# Shear Modulus (GPa) = -15.64702 29.13115 6.74206
#
# Velocity S-wave (km/s) = -2.58869 3.53218 1.69926
# Velocity P-wave (km/s) = 3.64942 6.40888 5.21498
#
# Compressibility (1/GPa) = 0.01924568
#
# Stress axis : x y z
#
# Youngs Moduli (GPa) = 103.66140 50.19826 80.81397
#
# Poissons Ratio (x) = 0.35418 0.01714
# Poissons Ratio (y) = 0.73139 0.32976
# Poissons Ratio (z) = 0.02198 0.20483
#
# Static dielectric constant tensor:
#      x y z
#    x 1.741370 0.000000 0.000000 
#    y 0.000000 3.567690 0.000000 
#    z 0.000000 0.000000 1.596700 
# 
# From -- ./inp_files/12217.got.cif
#   From: 2010.05.17/outbox.cif.g08.bks.cpg/sg23_7_cif.got.tgz:12217.got - 2010.06.04 12:02:01.
