data_PCOD9329017
_publ_section_title
;
Structure prediction by ZEFSAII (Michael W. Deem and Ramdas Pophale) SiO2 
 PCOD9329017
Probable space group: F 2 2 2
;
_chemical_formula_sum "Si O2"
_cell_formula_units_Z 80
_cell_length_a 8.229196
_cell_length_b 17.892612
_cell_length_c 24.212842
_cell_angle_alpha 90.000000
_cell_angle_beta 90.000000
_cell_angle_gamma 90.000000
_cell_volume 3565.142708
_symmetry_space_group_name_H-M "F 2 2 2"
_symmetry_group_IT_number 22
_symmetry_cell_setting 'orthorhombic'
loop_
_space_group_symop_operation_xyz
x,y,z
-x,-y,z
x,-y,-z
-x,y,-z
x,1/2+y,1/2+z
-x,1/2-y,1/2+z
x,1/2-y,1/2-z
-x,1/2+y,1/2-z
1/2+x,y,1/2+z
1/2-x,-y,1/2+z
1/2+x,-y,1/2-z
1/2-x,y,1/2-z
1/2+x,1/2+y,z
1/2-x,1/2-y,z
1/2+x,1/2-y,-z
1/2-x,1/2+y,-z
loop_
_atom_site_type_symbol
_atom_site_label
_atom_site_fract_x
_atom_site_fract_y
_atom_site_fract_z
Si Si1 0.500000 0.000000 0.500000
Si Si2 0.847349 0.142751 0.354246
Si Si3 0.727721 0.097594 0.576456
Si Si4 0.015174 0.302346 0.340115
Si Si5 0.500000 0.500000 0.358375
Si Si6 0.358520 0.684844 0.471746
Si Si7 0.250000 0.250000 0.250000
O O1 0.604836 0.048666 0.541475
O O2 0.662987 0.159934 0.336469
O O3 0.856616 0.128187 0.420685
O O4 0.966072 0.214717 0.348901
O O5 0.915282 0.068367 0.326315
O O6 0.624944 0.155940 0.613931
O O7 0.817960 0.141954 0.527697
O O8 0.854487 0.044212 0.608942
O O9 0.130492 0.300182 0.287017
O O10 0.500000 0.734106 0.500000
O O11 0.250000 0.750000 0.447486
#
# Coordination Sequence:
#
# PCOD9329017 Si02
#       7
#     4  16  16  16   8  16   4
#     4  12  28  38  68 110 152 198 232 280 364 468
#     4  11  24  43  72 104 150 187 241 300 379 452
#     4  12  25  41  67 101 153 193 239 290 360 447
#     4  11  25  49  72 104 136 190 250 319 371 437
#     4  12  24  41  64 103 146 199 232 292 358 443
#     4  12  23  35  62  98 139 193 229 277 344 446
#     4  12  28  46  80 108 132 182 268 342 380 408
#
# _framework density 22.439495000000001
#
# number of rings (size 3 to 8) (size 9 to 14) (size 15 to 20)
#    0.000    0.400    4.000    6.000    2.800    2.400 
#    0.000    0.000    0.000   24.000    0.000    0.000 
#    0.000    0.000    0.000    0.000    0.000    0.000 
#
# Total GULP energy -111465.806478 kJ/mol
# GULP energy per Si atom -5573.290324 kJ/mol
# Density = 2.238842 g / cm^3
# Si number density = 22.439495 Si / 1000 Ang^3
#
#
#
# Elastic Constant Matrix: (Units=GPa)
#
#
# Indices 1 2 3 4 5 6 
#
# 1 93.0533 27.6812 38.8835 0.0000 0.0000 0.0000
# 2 27.6812 108.6960 16.1160 0.0000 0.0000 0.0000
# 3 38.8835 16.1160 77.6231 0.0000 0.0000 0.0000
# 4 0.0000 0.0000 0.0000 10.7870 0.0000 0.0000
# 5 0.0000 0.0000 0.0000 0.0000 28.5442 0.0000
# 6 0.0000 0.0000 0.0000 0.0000 0.0000 30.5781
#
#
#
# Elastic Compliance Matrix: (Units=1/GPa)
#
#
# Indices 1 2 3 4 5 6 
#
# 1 0.014301 -0.002662 -0.006611 0.000000 0.000000 0.000000
# 2 -0.002662 0.009988 -0.000740 0.000000 0.000000 0.000000
# 3 -0.006611 -0.000740 0.016348 0.000000 0.000000 0.000000
# 4 0.000000 0.000000 0.000000 0.092704 0.000000 0.000000
# 5 0.000000 0.000000 0.000000 0.000000 0.035033 0.000000
# 6 0.000000 0.000000 0.000000 0.000000 0.000000 0.032703
#
#
# Mechanical properties :
#
#
# Convention : Reuss Voigt Hill
#
# Bulk Modulus (GPa) = 48.51916 49.41485 48.96701
# Shear Modulus (GPa) = 21.93239 27.09465 24.51352
#
# Velocity S-wave (km/s) = 3.12973 3.47861 3.30877
# Velocity P-wave (km/s) = 5.89317 6.18090 6.03875
#
# Compressibility (1/GPa) = 0.02061042
#
# Stress axis : x y z
#
# Youngs Moduli (GPa) = 69.92599 100.12432 61.16921
#
# Poissons Ratio (x) = 0.26650 0.40439
# Poissons Ratio (y) = 0.18612 0.04528
# Poissons Ratio (z) = 0.46228 0.07412
#
# Static dielectric constant tensor:
#      x y z
#    x 1.782260 0.000000 0.000000 
#    y 0.000000 1.833120 0.000000 
#    z 0.000000 0.000000 1.797970 
# 
# From -- ./inp_files/51819.got.cif
#   From: 2010.05.17/outbox.cif.g08.bks.cpg/sg22_26_cif.got.tgz:51819.got - 2010.06.03 23:40:54.
