data_PCOD9329324
_publ_section_title
;
Structure prediction by ZEFSAII (Michael W. Deem and Ramdas Pophale) SiO2 
 PCOD9329324
Probable space group: I 2 2 2
;
_chemical_formula_sum "Si O2"
_cell_formula_units_Z 44
_cell_length_a 7.653026
_cell_length_b 16.519452
_cell_length_c 16.607132
_cell_angle_alpha 90.000000
_cell_angle_beta 90.000000
_cell_angle_gamma 90.000000
_cell_volume 2099.536662
_symmetry_space_group_name_H-M "I 2 2 2"
_symmetry_group_IT_number 23
_symmetry_cell_setting 'orthorhombic'
loop_
_space_group_symop_operation_xyz
x,y,z
-x,-y,z
x,-y,-z
-x,y,-z
1/2+x,1/2+y,1/2+z
1/2-x,1/2-y,1/2+z
1/2+x,1/2-y,1/2-z
1/2-x,1/2+y,1/2-z
loop_
_atom_site_type_symbol
_atom_site_label
_atom_site_fract_x
_atom_site_fract_y
_atom_site_fract_z
Si Si1 0.500000 0.767944 0.500000
Si Si2 0.500000 0.000000 0.000000
Si Si3 0.000000 0.500000 0.765307
Si Si4 0.854367 0.206008 0.569345
Si Si5 0.867973 0.074224 0.702869
Si Si6 0.000000 0.000000 0.000000
Si Si7 0.068529 0.623092 0.627786
Si Si8 0.845122 0.865358 0.116516
O O1 0.331417 0.815646 0.530148
O O2 0.568158 0.711515 0.573499
O O3 0.391611 0.941039 0.057684
O O4 0.832053 0.541360 0.806048
O O5 0.083012 0.571231 0.708920
O O6 0.905161 0.140551 0.635298
O O7 0.000000 0.213724 0.500000
O O8 0.832721 0.293780 0.612640
O O9 0.891462 0.114581 0.791243
O O10 0.000000 0.000000 0.696363
O O11 0.100851 0.940340 0.939177
O O12 0.863928 0.643692 0.617240
#
# Coordination Sequence:
#
# PCOD9329324 Si02
#       8
#     4   2   4   8   8   2   8   8
#     4  11  24  41  68 107 139 180 230 294 363 428
#     4  10  14  28  64  90 132 170 210 276 346 410
#     4   9  24  43  68 107 134 183 232 292 363 424
#     4  12  26  46  68 103 145 192 241 292 353 423
#     4  11  26  47  70 100 144 192 241 293 351 424
#     4  10  18  32  68 110 146 170 226 282 356 432
#     4  10  19  37  65 101 140 177 224 286 363 422
#     4  10  20  37  66 106 141 179 221 288 364 423
#
# _framework density 20.957004999999999
#
# number of rings (size 3 to 8) (size 9 to 14) (size 15 to 20)
#    0.000    1.455    3.636    0.545    2.545    7.636 
#    0.000    0.000    0.000    0.000    0.000    0.000 
#    0.000    0.000    0.000    0.000    0.000    0.000 
#
# Total GULP energy -122960.850198 kJ/mol
# GULP energy per Si atom -5589.129554 kJ/mol
# Density = 2.090931 g / cm^3
# Si number density = 20.957005 Si / 1000 Ang^3
#
#
#
# Elastic Constant Matrix: (Units=GPa)
#
#
# Indices 1 2 3 4 5 6 
#
# 1 48.2228 3.7908 19.8897 0.0000 0.0000 0.0000
# 2 3.7908 65.1518 59.3627 0.0000 0.0000 0.0000
# 3 19.8897 59.3627 90.9465 0.0000 0.0000 0.0000
# 4 0.0000 0.0000 0.0000 18.9846 0.0000 0.0000
# 5 0.0000 0.0000 0.0000 0.0000 19.2534 0.0000
# 6 0.0000 0.0000 0.0000 0.0000 0.0000 22.2997
#
#
#
# Elastic Compliance Matrix: (Units=1/GPa)
#
#
# Indices 1 2 3 4 5 6 
#
# 1 0.024586 0.008559 -0.010963 0.000000 0.000000 0.000000
# 2 0.008559 0.040852 -0.028536 0.000000 0.000000 0.000000
# 3 -0.010963 -0.028536 0.032019 0.000000 0.000000 0.000000
# 4 0.000000 0.000000 0.000000 0.052674 0.000000 0.000000
# 5 0.000000 0.000000 0.000000 0.000000 0.051939 0.000000
# 6 0.000000 0.000000 0.000000 0.000000 0.000000 0.044844
#
#
# Mechanical properties :
#
#
# Convention : Reuss Voigt Hill
#
# Bulk Modulus (GPa) = 28.10963 41.15637 34.63300
# Shear Modulus (GPa) = 15.59310 20.19273 17.89291
#
# Velocity S-wave (km/s) = 2.73069 3.10745 2.92514
# Velocity P-wave (km/s) = 4.83574 5.70579 5.28869
#
# Compressibility (1/GPa) = 0.03557500
#
# Stress axis : x y z
#
# Youngs Moduli (GPa) = 40.67328 24.47883 31.23102
#
# Poissons Ratio (x) = -0.20951 0.34240
# Poissons Ratio (y) = -0.34811 0.89122
# Poissons Ratio (z) = 0.44591 0.69854
#
# Static dielectric constant tensor:
#      x y z
#    x 1.821430 0.000000 0.000000 
#    y 0.000000 1.728950 0.000000 
#    z 0.000000 0.000000 1.739140 
# 
# From -- ./inp_files/23719.got.cif
#   From: 2010.05.17/outbox.cif.g08.bks.cpg/sg23_12_cif.got.tgz:23719.got - 2010.06.04 12:02:01.
