data_PCOD9329484
_publ_section_title
;
Structure prediction by ZEFSAII (Michael W. Deem and Ramdas Pophale) SiO2 
 PCOD9329484
Probable space group: I 2 2 2
;
_chemical_formula_sum "Si O2"
_cell_formula_units_Z 64
_cell_length_a 15.762062
_cell_length_b 12.831872
_cell_length_c 14.895517
_cell_angle_alpha 90.000000
_cell_angle_beta 90.000000
_cell_angle_gamma 90.000000
_cell_volume 3012.719037
_symmetry_space_group_name_H-M "I 2 2 2"
_symmetry_group_IT_number 23
_symmetry_cell_setting 'orthorhombic'
loop_
_space_group_symop_operation_xyz
x,y,z
-x,-y,z
x,-y,-z
-x,y,-z
1/2+x,1/2+y,1/2+z
1/2-x,1/2-y,1/2+z
1/2+x,1/2-y,1/2-z
1/2-x,1/2+y,1/2-z
loop_
_atom_site_type_symbol
_atom_site_label
_atom_site_fract_x
_atom_site_fract_y
_atom_site_fract_z
Si Si1 0.361435 0.095448 0.440635
Si Si2 0.964966 0.210470 0.084637
Si Si3 0.951245 0.099776 0.361705
Si Si4 0.775299 0.127138 0.833359
Si Si5 0.096592 0.967808 0.166988
Si Si6 0.775832 0.836864 0.573576
Si Si7 0.665756 0.965110 0.723627
Si Si8 0.418624 0.249893 0.757086
O O1 0.421607 0.190496 0.457514
O O2 0.269253 0.129363 0.480384
O O3 0.389545 0.000000 0.500000
O O4 0.373331 0.054766 0.339959
O O5 0.889300 0.145825 0.129097
O O6 0.032067 0.238241 0.161711
O O7 0.000000 0.148966 0.000000
O O8 0.903039 0.049863 0.274183
O O9 0.875941 0.141930 0.423366
O O10 0.017594 0.189175 0.325877
O O11 0.000000 0.000000 0.399500
O O12 0.739589 0.217145 0.896747
O O13 0.830087 0.186250 0.754951
O O14 0.846315 0.054362 0.876746
O O15 0.712847 0.038123 0.795636
O O16 0.000000 0.000000 0.151385
O O17 0.727380 0.904608 0.651765
O O18 0.607142 0.872549 0.764670
#
# Coordination Sequence:
#
# PCOD9329484 Si02
#       8
#     8   8   8   8   8   8   8   8
#     4  10  23  39  52  83 124 162 194 249 316 370
#     4  11  21  34  54  80 119 160 196 240 300 382
#     4  10  17  36  61  85 116 156 203 271 299 347
#     4  11  19  36  56  86 119 155 202 261 307 360
#     4  10  19  34  54  83 113 147 200 248 295 345
#     4  10  21  36  57  82 121 160 205 257 310 370
#     4  10  21  34  58  83 120 161 201 251 312 376
#     4  10  21  35  56  89 118 156 210 250 308 370
#
# _framework density 21.243268
#
# number of rings (size 3 to 8) (size 9 to 14) (size 15 to 20)
#    0.000    1.750    5.000    2.250    3.500    2.000 
#    0.000    0.000    0.000    9.375    0.000    0.000 
#    0.000    1.250    0.000    0.000    0.000    0.000 
#
# Total GULP energy -178212.673763 kJ/mol
# GULP energy per Si atom -5569.146055 kJ/mol
# Density = 2.119492 g / cm^3
# Si number density = 21.243268 Si / 1000 Ang^3
#
#
#
# Elastic Constant Matrix: (Units=GPa)
#
#
# Indices 1 2 3 4 5 6 
#
# 1 72.3246 34.7600 16.1157 0.0000 0.0000 0.0000
# 2 34.7600 101.7822 27.6714 0.0000 0.0000 0.0000
# 3 16.1157 27.6714 34.3572 0.0000 0.0000 0.0000
# 4 0.0000 0.0000 0.0000 4.7681 0.0000 0.0000
# 5 0.0000 0.0000 0.0000 0.0000 12.0296 0.0000
# 6 0.0000 0.0000 0.0000 0.0000 0.0000 33.2183
#
#
#
# Elastic Compliance Matrix: (Units=1/GPa)
#
#
# Indices 1 2 3 4 5 6 
#
# 1 0.017007 -0.004660 -0.004225 0.000000 0.000000 0.000000
# 2 -0.004660 0.013856 -0.008974 0.000000 0.000000 0.000000
# 3 -0.004225 -0.008974 0.038315 0.000000 0.000000 0.000000
# 4 0.000000 0.000000 0.000000 0.209728 0.000000 0.000000
# 5 0.000000 0.000000 0.000000 0.000000 0.083128 0.000000
# 6 0.000000 0.000000 0.000000 0.000000 0.000000 0.030104
#
#
# Mechanical properties :
#
#
# Convention : Reuss Voigt Hill
#
# Bulk Modulus (GPa) = 29.88455 40.61756 35.25106
# Shear Modulus (GPa) = 11.38929 18.66433 15.02681
#
# Velocity S-wave (km/s) = 2.31797 2.96733 2.66252
# Velocity P-wave (km/s) = 4.61111 5.55894 5.10706
#
# Compressibility (1/GPa) = 0.03346211
#
# Stress axis : x y z
#
# Youngs Moduli (GPa) = 58.79787 72.17097 26.09931
#
# Poissons Ratio (x) = 0.33630 0.11026
# Poissons Ratio (y) = 0.27398 0.23421
# Poissons Ratio (z) = 0.24840 0.64766
#
# Static dielectric constant tensor:
#      x y z
#    x 1.850250 0.000000 0.000000 
#    y 0.000000 1.856280 0.000000 
#    z 0.000000 0.000000 1.848260 
# 
# From -- ./inp_files/24871.got.cif
#   From: 2010.05.17/outbox.cif.g08.bks.cpg/sg23_13_cif.got.tgz:24871.got - 2010.06.04 12:02:01.
