data_PCOD9329766
_publ_section_title
;
Structure prediction by ZEFSAII (Michael W. Deem and Ramdas Pophale) SiO2 
 PCOD9329766
Probable space group: I 2 2 2
;
_chemical_formula_sum "Si O2"
_cell_formula_units_Z 56
_cell_length_a 5.307759
_cell_length_b 33.273387
_cell_length_c 14.633495
_cell_angle_alpha 90.000000
_cell_angle_beta 90.000000
_cell_angle_gamma 90.000000
_cell_volume 2584.379397
_symmetry_space_group_name_H-M "I 2 2 2"
_symmetry_group_IT_number 23
_symmetry_cell_setting 'orthorhombic'
loop_
_space_group_symop_operation_xyz
x,y,z
-x,-y,z
x,-y,-z
-x,y,-z
1/2+x,1/2+y,1/2+z
1/2-x,1/2-y,1/2+z
1/2+x,1/2-y,1/2-z
1/2-x,1/2+y,1/2-z
loop_
_atom_site_type_symbol
_atom_site_label
_atom_site_fract_x
_atom_site_fract_y
_atom_site_fract_z
Si Si1 0.032809 0.745393 0.105787
Si Si2 0.424435 0.630758 0.831852
Si Si3 0.094507 0.611014 0.407310
Si Si4 0.963074 0.787418 0.602053
Si Si5 0.255311 0.955168 0.540931
Si Si6 0.078858 0.416831 0.796531
Si Si7 0.402180 0.660650 0.628065
O O1 0.266614 0.720914 0.146489
O O2 0.076004 0.792829 0.104982
O O3 0.765937 0.735010 0.150336
O O4 0.000000 0.731585 0.000000
O O5 0.389913 0.665906 0.904313
O O6 0.705504 0.613147 0.834915
O O7 0.415237 0.654582 0.736315
O O8 0.201412 0.597905 0.823709
O O9 0.094272 0.584873 0.313666
O O10 0.364076 0.633812 0.410537
O O11 0.000000 0.588937 0.500000
O O12 0.871866 0.643830 0.398138
O O13 0.000000 0.769987 0.500000
O O14 0.500000 0.933658 0.500000
O O15 0.319136 0.955882 0.648772
O O16 0.000000 0.936444 0.500000
O O17 0.251477 0.000000 0.500000
#
# Coordination Sequence:
#
# PCOD9329766 Si02
#       7
#     8   8   8   8   8   8   8
#     4  10  19  31  46  64  89 127 180 234 284 337
#     4  10  21  35  50  73 105 139 176 228 283 333
#     4  10  19  33  53  78 109 141 178 229 286 335
#     4  10  21  33  45  64  92 131 179 229 281 337
#     4  10  21  38  61  90 120 150 183 219 262 314
#     4  10  21  36  55  82 112 142 182 222 270 337
#     4  10  20  32  50  73  98 134 182 235 288 341
#
# _framework density 21.668645999999999
#
# number of rings (size 3 to 8) (size 9 to 14) (size 15 to 20)
#    0.000    2.000    0.000    3.857    0.000    4.000 
#    0.000    0.000    0.000    0.000    0.000    2.000 
#    0.000    4.571    0.000    0.000    0.000    0.000 
#
# Total GULP energy -156002.943324 kJ/mol
# GULP energy per Si atom -5571.533690 kJ/mol
# Density = 2.161933 g / cm^3
# Si number density = 21.668646 Si / 1000 Ang^3
#
#
#
# Elastic Constant Matrix: (Units=GPa)
#
#
# Indices 1 2 3 4 5 6 
#
# 1 169.3156 9.2313 27.7684 0.0000 0.0000 0.0000
# 2 9.2313 41.1804 32.0863 0.0000 0.0000 0.0000
# 3 27.7684 32.0863 90.5745 0.0000 0.0000 0.0000
# 4 0.0000 0.0000 0.0000 27.3257 0.0000 0.0000
# 5 0.0000 0.0000 0.0000 0.0000 25.0679 0.0000
# 6 0.0000 0.0000 0.0000 0.0000 0.0000 17.2624
#
#
#
# Elastic Compliance Matrix: (Units=1/GPa)
#
#
# Indices 1 2 3 4 5 6 
#
# 1 0.006219 0.000126 -0.001951 0.000000 0.000000 0.000000
# 2 0.000126 0.033544 -0.011922 0.000000 0.000000 0.000000
# 3 -0.001951 -0.011922 0.015862 0.000000 0.000000 0.000000
# 4 0.000000 0.000000 0.000000 0.036596 0.000000 0.000000
# 5 0.000000 0.000000 0.000000 0.000000 0.039892 0.000000
# 6 0.000000 0.000000 0.000000 0.000000 0.000000 0.057929
#
#
# Mechanical properties :
#
#
# Convention : Reuss Voigt Hill
#
# Bulk Modulus (GPa) = 35.54698 48.80470 42.17584
# Shear Modulus (GPa) = 22.03484 29.39686 25.71585
#
# Velocity S-wave (km/s) = 3.19235 3.68727 3.44870
# Velocity P-wave (km/s) = 5.47983 6.37966 5.94679
#
# Compressibility (1/GPa) = 0.02813178
#
# Stress axis : x y z
#
# Youngs Moduli (GPa) = 160.79009 29.81144 63.04263
#
# Poissons Ratio (x) = -0.00377 0.12303
# Poissons Ratio (y) = -0.02032 0.75159
# Poissons Ratio (z) = 0.31378 0.35541
#
# Static dielectric constant tensor:
#      x y z
#    x 1.908710 0.000000 0.000000 
#    y 0.000000 1.782680 0.000000 
#    z 0.000000 0.000000 1.943970 
# 
# From -- ./inp_files/19338.got.cif
#   From: 2010.05.17/outbox.cif.g08.bks.cpg/sg23_10_cif.got.tgz:19338.got - 2010.06.04 12:02:01.
