data_PCOD9329807
_publ_section_title
;
Structure prediction by ZEFSAII (Michael W. Deem and Ramdas Pophale) SiO2 
 PCOD9329807
Probable space group: I 2 2 2
;
_chemical_formula_sum "Si O2"
_cell_formula_units_Z 40
_cell_length_a 28.898026
_cell_length_b 9.073977
_cell_length_c 8.009386
_cell_angle_alpha 90.000000
_cell_angle_beta 90.000000
_cell_angle_gamma 90.000000
_cell_volume 2100.221383
_symmetry_space_group_name_H-M "I 2 2 2"
_symmetry_group_IT_number 23
_symmetry_cell_setting 'orthorhombic'
loop_
_space_group_symop_operation_xyz
x,y,z
-x,-y,z
x,-y,-z
-x,y,-z
1/2+x,1/2+y,1/2+z
1/2-x,1/2-y,1/2+z
1/2+x,1/2-y,1/2-z
1/2-x,1/2+y,1/2-z
loop_
_atom_site_type_symbol
_atom_site_label
_atom_site_fract_x
_atom_site_fract_y
_atom_site_fract_z
Si Si1 0.286998 0.457805 0.696394
Si Si2 0.448914 0.825087 0.546297
Si Si3 0.109504 0.436585 0.669128
Si Si4 0.305958 0.784491 0.737919
Si Si5 0.141462 0.720857 0.881419
O O1 0.282664 0.500000 0.500000
O O2 0.294638 0.615728 0.778554
O O3 0.240401 0.378769 0.753081
O O4 0.329983 0.345870 0.713880
O O5 0.500000 0.772233 0.500000
O O6 0.428377 0.839533 0.732650
O O7 0.409913 0.737457 0.443812
O O8 0.448343 0.000000 0.500000
O O9 0.089299 0.500000 0.500000
O O10 0.154936 0.340081 0.635632
O O11 0.131005 0.571831 0.778937
O O12 0.329040 0.801671 0.552955
#
# Coordination Sequence:
#
# PCOD9329807 Si02
#       5
#     8   8   8   8   8
#     4  10  20  33  51  75 103 140 185 219 256 310
#     4   8  15  31  55  79 105 136 170 214 263 307
#     4  10  19  33  52  78 110 137 171 215 258 310
#     4  10  19  32  51  72 103 142 178 217 261 305
#     4   9  19  35  52  73 107 140 172 216 262 311
#
# _framework density 19.045611000000001
#
# number of rings (size 3 to 8) (size 9 to 14) (size 15 to 20)
#    0.000    2.600    0.000    3.600    0.000    3.200 
#    0.000   13.000    0.000   15.000    0.000    0.000 
#    0.000   51.200    0.000    0.000    0.000    0.000 
#
# Total GULP energy -111390.590437 kJ/mol
# GULP energy per Si atom -5569.529522 kJ/mol
# Density = 1.900226 g / cm^3
# Si number density = 19.045611 Si / 1000 Ang^3
#
#
#
# Elastic Constant Matrix: (Units=GPa)
#
#
# Indices 1 2 3 4 5 6 
#
# 1 179.7813 49.1150 35.1479 0.0000 0.0000 0.0000
# 2 49.1150 67.5422 13.2064 0.0000 0.0000 0.0000
# 3 35.1479 13.2064 19.5461 0.0000 0.0000 0.0000
# 4 0.0000 0.0000 0.0000 15.6018 0.0000 0.0000
# 5 0.0000 0.0000 0.0000 0.0000 8.3688 0.0000
# 6 0.0000 0.0000 0.0000 0.0000 0.0000 22.6285
#
#
#
# Elastic Compliance Matrix: (Units=1/GPa)
#
#
# Indices 1 2 3 4 5 6 
#
# 1 0.009470 -0.004098 -0.014260 0.000000 0.000000 0.000000
# 2 -0.004098 0.018833 -0.005355 0.000000 0.000000 0.000000
# 3 -0.014260 -0.005355 0.080421 0.000000 0.000000 0.000000
# 4 0.000000 0.000000 0.000000 0.064095 0.000000 0.000000
# 5 0.000000 0.000000 0.000000 0.000000 0.119492 0.000000
# 6 0.000000 0.000000 0.000000 0.000000 0.000000 0.044192
#
#
# Mechanical properties :
#
#
# Convention : Reuss Voigt Hill
#
# Bulk Modulus (GPa) = 16.31389 51.31202 33.81295
# Shear Modulus (GPa) = 12.36521 20.61318 16.48920
#
# Velocity S-wave (km/s) = 2.55079 3.29341 2.94560
# Velocity P-wave (km/s) = 4.15447 6.43912 5.41857
#
# Compressibility (1/GPa) = 0.06129747
#
# Stress axis : x y z
#
# Youngs Moduli (GPa) = 105.60082 53.09942 12.43457
#
# Poissons Ratio (x) = 0.21760 0.17731
# Poissons Ratio (y) = 0.43275 0.06659
# Poissons Ratio (z) = 1.50582 0.28437
#
# Static dielectric constant tensor:
#      x y z
#    x 1.662040 0.000000 0.000000 
#    y 0.000000 1.698470 0.000000 
#    z 0.000000 0.000000 1.751860 
# 
# From -- ./inp_files/7075.got.cif
#   From: 2010.05.17/outbox.cif.g08.bks.cpg/sg23_4_cif.got.tgz:7075.got - 2010.06.04 12:02:01.
