data_PCOD9329025
_publ_section_title
;
Structure prediction by ZEFSAII (Michael W. Deem and Ramdas Pophale) SiO2 
 PCOD9329025
Probable space group: F 2 2 2
;
_chemical_formula_sum "Si O2"
_cell_formula_units_Z 84
_cell_length_a 20.786603
_cell_length_b 11.270334
_cell_length_c 16.780617
_cell_angle_alpha 90.000000
_cell_angle_beta 90.000000
_cell_angle_gamma 90.000000
_cell_volume 3931.228010
_symmetry_space_group_name_H-M "F 2 2 2"
_symmetry_group_IT_number 22
_symmetry_cell_setting 'orthorhombic'
loop_
_space_group_symop_operation_xyz
x,y,z
-x,-y,z
x,-y,-z
-x,y,-z
x,1/2+y,1/2+z
-x,1/2-y,1/2+z
x,1/2-y,1/2-z
-x,1/2+y,1/2-z
1/2+x,y,1/2+z
1/2-x,-y,1/2+z
1/2+x,-y,1/2-z
1/2-x,y,1/2-z
1/2+x,1/2+y,z
1/2-x,1/2-y,z
1/2+x,1/2-y,-z
1/2-x,1/2+y,-z
loop_
_atom_site_type_symbol
_atom_site_label
_atom_site_fract_x
_atom_site_fract_y
_atom_site_fract_z
Si Si1 0.343802 0.147765 0.591623
Si Si2 0.863702 0.876056 0.330466
Si Si3 0.698742 0.076900 0.081206
Si Si4 0.933183 0.522534 0.312833
Si Si5 0.750000 0.750000 0.250000
Si Si6 0.563580 0.298272 0.950649
O O1 0.324125 0.286991 0.589907
O O2 0.275829 0.078787 0.595188
O O3 0.384119 0.144301 0.509894
O O4 0.390102 0.089251 0.658901
O O5 0.895408 0.889038 0.244403
O O6 0.795226 0.819560 0.310919
O O7 0.903793 0.805541 0.397466
O O8 0.846528 0.007514 0.358243
O O9 0.689951 0.000000 0.000000
O O10 0.953814 0.597939 0.389735
O O11 0.000000 0.500000 0.268258
O O12 0.500000 0.260848 0.000000
#
# Coordination Sequence:
#
# PCOD9329025 Si02
#       6
#    16  16  16  16   4  16
#     4  11  25  43  73 105 142 183 237 294 361 428
#     4  12  27  46  72 108 144 190 237 298 374 425
#     4  11  24  44  70 106 142 185 235 298 359 433
#     4  12  25  47  72 102 141 190 241 296 356 436
#     4  12  24  44  76 106 148 176 234 302 362 444
#     4  12  24  46  76 103 142 188 247 293 351 433
#
# _framework density 21.367369
#
# number of rings (size 3 to 8) (size 9 to 14) (size 15 to 20)
#    0.000    0.381    5.714    2.857    2.667    2.286 
#    3.429    2.857    0.000    0.000    0.000    0.000 
#    0.000    0.000    0.000    0.000    0.000    0.000 
#
# Total GULP energy -117138.135792 kJ/mol
# GULP energy per Si atom -5578.006466 kJ/mol
# Density = 2.131874 g / cm^3
# Si number density = 21.367369 Si / 1000 Ang^3
#
#
#
# Elastic Constant Matrix: (Units=GPa)
#
#
# Indices 1 2 3 4 5 6 
#
# 1 99.7498 48.7713 37.8833 0.0000 0.0000 0.0000
# 2 48.7713 104.8153 27.9105 0.0000 0.0000 0.0000
# 3 37.8833 27.9105 74.5141 0.0000 0.0000 0.0000
# 4 0.0000 0.0000 0.0000 17.9760 0.0000 0.0000
# 5 0.0000 0.0000 0.0000 0.0000 26.3374 0.0000
# 6 0.0000 0.0000 0.0000 0.0000 0.0000 70.0490
#
#
#
# Elastic Compliance Matrix: (Units=1/GPa)
#
#
# Indices 1 2 3 4 5 6 
#
# 1 0.014746 -0.005404 -0.005473 0.000000 0.000000 0.000000
# 2 -0.005404 0.012578 -0.001964 0.000000 0.000000 0.000000
# 3 -0.005473 -0.001964 0.016938 0.000000 0.000000 0.000000
# 4 0.000000 0.000000 0.000000 0.055630 0.000000 0.000000
# 5 0.000000 0.000000 0.000000 0.000000 0.037969 0.000000
# 6 0.000000 0.000000 0.000000 0.000000 0.000000 0.014276
#
#
# Mechanical properties :
#
#
# Convention : Reuss Voigt Hill
#
# Bulk Modulus (GPa) = 53.81871 56.46771 55.14321
# Shear Modulus (GPa) = 27.17231 33.84010 30.50620
#
# Velocity S-wave (km/s) = 3.56992 3.98393 3.78259
# Velocity P-wave (km/s) = 6.49880 6.90266 6.70377
#
# Compressibility (1/GPa) = 0.01858090
#
# Stress axis : x y z
#
# Youngs Moduli (GPa) = 67.81638 79.50343 59.03823
#
# Poissons Ratio (x) = 0.42964 0.32309
# Poissons Ratio (y) = 0.36648 0.11595
# Poissons Ratio (z) = 0.37113 0.15614
#
# Static dielectric constant tensor:
#      x y z
#    x 1.817460 0.000000 0.000000 
#    y 0.000000 1.929290 0.000000 
#    z 0.000000 0.000000 1.772270 
# 
# From -- ./inp_files/38735.got.cif
#   From: 2010.05.17/outbox.cif.g08.bks.cpg/sg22_20_cif.got.tgz:38735.got - 2010.06.03 23:40:54.
