data_PCOD9329458
_publ_section_title
;
Structure prediction by ZEFSAII (Michael W. Deem and Ramdas Pophale) SiO2 
 PCOD9329458
Probable space group: I 2 2 2
;
_chemical_formula_sum "Si O2"
_cell_formula_units_Z 48
_cell_length_a 9.351354
_cell_length_b 20.193696
_cell_length_c 14.294680
_cell_angle_alpha 90.000000
_cell_angle_beta 90.000000
_cell_angle_gamma 90.000000
_cell_volume 2699.384498
_symmetry_space_group_name_H-M "I 2 2 2"
_symmetry_group_IT_number 23
_symmetry_cell_setting 'orthorhombic'
loop_
_space_group_symop_operation_xyz
x,y,z
-x,-y,z
x,-y,-z
-x,y,-z
1/2+x,1/2+y,1/2+z
1/2-x,1/2-y,1/2+z
1/2+x,1/2-y,1/2-z
1/2-x,1/2+y,1/2-z
loop_
_atom_site_type_symbol
_atom_site_label
_atom_site_fract_x
_atom_site_fract_y
_atom_site_fract_z
Si Si1 0.081149 0.334711 0.406542
Si Si2 0.173082 0.508577 0.107034
Si Si3 0.819686 0.380413 0.784442
Si Si4 0.659808 0.266177 0.495195
Si Si5 0.872881 0.344717 0.138214
Si Si6 0.163661 0.251661 0.686762
O O1 0.114745 0.383351 0.320435
O O2 0.230324 0.307142 0.442840
O O3 0.000000 0.359973 0.500000
O O4 0.984573 0.274786 0.362621
O O5 0.228310 0.450375 0.173780
O O6 0.199109 0.583440 0.139822
O O7 0.000000 0.500000 0.106960
O O8 0.221673 0.500000 0.000000
O O9 0.696082 0.324673 0.788737
O O10 0.957132 0.356026 0.845483
O O11 0.500000 0.292325 0.500000
O O12 0.656565 0.193063 0.541516
O O13 0.717224 0.268098 0.390410
O O14 0.823593 0.296677 0.221535
#
# Coordination Sequence:
#
# PCOD9329458 Si02
#       6
#     8   8   8   8   8   8
#     4   9  20  33  48  80 113 138 179 234 274 318
#     4   9  18  29  49  79 113 138 173 224 274 330
#     4  10  17  32  52  78 110 144 180 220 279 330
#     4  11  19  31  54  80 106 137 180 221 266 327
#     4  10  19  31  50  82 113 135 178 222 271 326
#     4  10  19  31  52  77 111 138 176 227 276 315
#
# _framework density 17.781832000000001
#
# number of rings (size 3 to 8) (size 9 to 14) (size 15 to 20)
#    0.000    2.167    3.333    1.000    2.333    0.000 
#    0.000    0.000    0.000   24.500    0.000    5.833 
#    0.000    0.000    0.000    0.000    0.000    0.000 
#
# Total GULP energy -133712.967758 kJ/mol
# GULP energy per Si atom -5571.373657 kJ/mol
# Density = 1.774136 g / cm^3
# Si number density = 17.781832 Si / 1000 Ang^3
#
#
#
# Elastic Constant Matrix: (Units=GPa)
#
#
# Indices 1 2 3 4 5 6 
#
# 1 64.9240 24.8275 28.0946 0.0000 0.0000 0.0000
# 2 24.8275 108.1170 53.3949 0.0000 0.0000 0.0000
# 3 28.0946 53.3949 113.7011 0.0000 0.0000 0.0000
# 4 0.0000 0.0000 0.0000 25.4419 0.0000 0.0000
# 5 0.0000 0.0000 0.0000 0.0000 18.5110 0.0000
# 6 0.0000 0.0000 0.0000 0.0000 0.0000 18.0591
#
#
#
# Elastic Compliance Matrix: (Units=1/GPa)
#
#
# Indices 1 2 3 4 5 6 
#
# 1 0.017746 -0.002486 -0.003217 0.000000 0.000000 0.000000
# 2 -0.002486 0.012390 -0.005204 0.000000 0.000000 0.000000
# 3 -0.003217 -0.005204 0.012034 0.000000 0.000000 0.000000
# 4 0.000000 0.000000 0.000000 0.039305 0.000000 0.000000
# 5 0.000000 0.000000 0.000000 0.000000 0.054022 0.000000
# 6 0.000000 0.000000 0.000000 0.000000 0.000000 0.055374
#
#
# Mechanical properties :
#
#
# Convention : Reuss Voigt Hill
#
# Bulk Modulus (GPa) = 49.12934 55.48622 52.30778
# Shear Modulus (GPa) = 22.78207 24.43075 23.60641
#
# Velocity S-wave (km/s) = 3.58327 3.71066 3.64752
# Velocity P-wave (km/s) = 6.69393 7.04488 6.87164
#
# Compressibility (1/GPa) = 0.02035444
#
# Stress axis : x y z
#
# Youngs Moduli (GPa) = 56.35221 80.70800 83.09835
#
# Poissons Ratio (x) = 0.20065 0.26735
# Poissons Ratio (y) = 0.14010 0.43247
# Poissons Ratio (z) = 0.18130 0.42003
#
# Static dielectric constant tensor:
#      x y z
#    x 1.617220 0.000000 0.000000 
#    y 0.000000 1.607260 0.000000 
#    z 0.000000 0.000000 1.639190 
# 
# From -- ./inp_files/11047.got.cif
#   From: 2010.05.17/outbox.cif.g08.bks.cpg/sg23_6_cif.got.tgz:11047.got - 2010.06.04 12:02:01.
