data_PCOD9329105
_publ_section_title
;
Structure prediction by ZEFSAII (Michael W. Deem and Ramdas Pophale) SiO2 
 PCOD9329105
Probable space group: F 2 2 2
;
_chemical_formula_sum "Si O2"
_cell_formula_units_Z 56
_cell_length_a 5.459121
_cell_length_b 18.122588
_cell_length_c 26.649662
_cell_angle_alpha 90.000000
_cell_angle_beta 90.000000
_cell_angle_gamma 90.000000
_cell_volume 2636.541690
_symmetry_space_group_name_H-M "F 2 2 2"
_symmetry_group_IT_number 22
_symmetry_cell_setting 'orthorhombic'
loop_
_space_group_symop_operation_xyz
x,y,z
-x,-y,z
x,-y,-z
-x,y,-z
x,1/2+y,1/2+z
-x,1/2-y,1/2+z
x,1/2-y,1/2-z
-x,1/2+y,1/2-z
1/2+x,y,1/2+z
1/2-x,-y,1/2+z
1/2+x,-y,1/2-z
1/2-x,y,1/2-z
1/2+x,1/2+y,z
1/2-x,1/2-y,z
1/2+x,1/2-y,-z
1/2-x,1/2+y,-z
loop_
_atom_site_type_symbol
_atom_site_label
_atom_site_fract_x
_atom_site_fract_y
_atom_site_fract_z
Si Si1 0.092322 0.676470 0.944692
Si Si2 0.750000 0.250000 0.361573
Si Si3 0.647166 0.172728 0.693760
Si Si4 0.248494 0.046636 0.119141
O O1 0.250000 0.750000 0.950041
O O2 0.243803 0.607152 0.924823
O O3 0.895541 0.698075 0.901632
O O4 0.000000 0.658619 0.000000
O O5 0.631182 0.189826 0.322772
O O6 0.750000 0.171815 0.750000
O O7 0.750000 0.250000 0.671080
O O8 0.734205 0.098171 0.668301
O O9 0.500000 0.000000 0.118048
O O10 0.000000 0.000000 0.116312
#
# Coordination Sequence:
#
# PCOD9329105 Si02
#       4
#    16   8  16  16
#     4  12  25  45  78 114 143 205 262 322 381 461
#     4  12  20  47  76 110 152 180 263 332 384 438
#     4  11  25  45  74 109 138 197 260 323 378 444
#     4  12  27  49  73 106 160 203 246 316 392 469
#
# _framework density 21.239943
#
# number of rings (size 3 to 8) (size 9 to 14) (size 15 to 20)
#    0.000    0.286    7.143    1.714    0.000    4.000 
#    0.000    4.286    0.000    0.000    0.000    0.000 
#    0.000    0.000    0.000    0.000    0.000    0.000 
#
# Total GULP energy -78036.273518 kJ/mol
# GULP energy per Si atom -5574.019537 kJ/mol
# Density = 2.119160 g / cm^3
# Si number density = 21.239943 Si / 1000 Ang^3
#
#
#
# Elastic Constant Matrix: (Units=GPa)
#
#
# Indices 1 2 3 4 5 6 
#
# 1 80.3510 51.9057 44.3248 0.0000 0.0000 0.0000
# 2 51.9057 148.5456 43.8795 0.0000 0.0000 0.0000
# 3 44.3248 43.8795 171.7270 0.0000 0.0000 0.0000
# 4 0.0000 0.0000 0.0000 -247.6303 0.0000 0.0000
# 5 0.0000 0.0000 0.0000 0.0000 1.6449 0.0000
# 6 0.0000 0.0000 0.0000 0.0000 0.0000 52.9261
#
#
#
# Elastic Compliance Matrix: (Units=1/GPa)
#
#
# Indices 1 2 3 4 5 6 
#
# 1 0.017569 -0.005191 -0.003208 0.000000 0.000000 0.000000
# 2 -0.005191 0.008815 -0.000913 0.000000 0.000000 0.000000
# 3 -0.003208 -0.000913 0.006884 0.000000 0.000000 0.000000
# 4 0.000000 0.000000 0.000000 -0.004038 0.000000 0.000000
# 5 0.000000 0.000000 0.000000 0.000000 0.607948 0.000000
# 6 0.000000 0.000000 0.000000 0.000000 0.000000 0.018894
#
#
# Mechanical properties :
#
#
# Convention : Reuss Voigt Hill
#
# Bulk Modulus (GPa) = 68.28521 75.64928 71.96725
# Shear Modulus (GPa) = 7.35751 -21.24428 -6.94338
#
# Velocity S-wave (km/s) = 1.86320 -3.16603 -1.81001
# Velocity P-wave (km/s) = 6.07025 4.72534 5.43952
#
# Compressibility (1/GPa) = 0.01464446
#
# Stress axis : x y z
#
# Youngs Moduli (GPa) = 56.91953 113.43685 145.25474
#
# Poissons Ratio (x) = 0.58888 0.46601
# Poissons Ratio (y) = 0.29548 0.13256
# Poissons Ratio (z) = 0.18261 0.10352
#
# Static dielectric constant tensor:
#      x y z
#    x 2.363920 0.000000 0.000000 
#    y 0.000000 1.746130 0.000000 
#    z 0.000000 0.000000 1.772840 
# 
# From -- ./inp_files/1885.got.cif
#   From: 2010.05.17/outbox.cif.g08.bks.cpg/sg22_1_cif.got.tgz:1885.got - 2010.06.03 23:40:54.
