data_PCOD9329350
_publ_section_title
;
Structure prediction by ZEFSAII (Michael W. Deem and Ramdas Pophale) SiO2 
 PCOD9329350
Probable space group: I 2 2 2
;
_chemical_formula_sum "Si O2"
_cell_formula_units_Z 64
_cell_length_a 8.011327
_cell_length_b 23.557166
_cell_length_c 21.565248
_cell_angle_alpha 90.000000
_cell_angle_beta 90.000000
_cell_angle_gamma 90.000000
_cell_volume 4069.883314
_symmetry_space_group_name_H-M "I 2 2 2"
_symmetry_group_IT_number 23
_symmetry_cell_setting 'orthorhombic'
loop_
_space_group_symop_operation_xyz
x,y,z
-x,-y,z
x,-y,-z
-x,y,-z
1/2+x,1/2+y,1/2+z
1/2-x,1/2-y,1/2+z
1/2+x,1/2-y,1/2-z
1/2-x,1/2+y,1/2-z
loop_
_atom_site_type_symbol
_atom_site_label
_atom_site_fract_x
_atom_site_fract_y
_atom_site_fract_z
Si Si1 0.859445 0.216208 0.852905
Si Si2 0.311039 0.020198 0.564554
Si Si3 0.149675 0.877293 0.387329
Si Si4 0.668184 0.831601 0.727774
Si Si5 0.729271 0.265148 0.655346
Si Si6 0.051785 0.751144 0.429009
Si Si7 0.215569 0.650517 0.238335
Si Si8 0.120663 0.953437 0.668971
O O1 0.847934 0.274218 0.812783
O O2 0.717184 0.218270 0.905370
O O3 0.807872 0.169045 0.801812
O O4 0.050966 0.220259 0.875778
O O5 0.282373 0.087386 0.572460
O O6 0.500000 0.000000 0.562174
O O7 0.229664 0.000000 0.500000
O O8 0.240254 0.990180 0.625589
O O9 0.225140 0.870516 0.318032
O O10 0.097687 0.817077 0.415214
O O11 0.988896 0.916404 0.378993
O O12 0.757093 0.811494 0.790001
O O13 0.484670 0.853948 0.744451
O O14 0.735597 0.203068 0.689201
O O15 0.892224 0.266162 0.612556
O O16 0.000000 0.743496 0.500000
O O17 0.290036 0.592266 0.212196
O O18 0.000000 0.000000 0.700909
#
# Coordination Sequence:
#
# PCOD9329350 Si02
#       8
#     8   8   8   8   8   8   8   8
#     4   9  19  31  49  75  95 130 168 211 264 309
#     4  10  22  36  48  64  94 135 184 224 255 298
#     4  10  20  33  48  70  92 132 172 216 265 291
#     4   9  17  29  51  74  94 119 168 220 260 314
#     4  10  18  31  50  71  99 128 168 215 259 306
#     4  11  22  34  48  73 105 136 174 212 251 315
#     4  10  16  30  51  70  97 123 168 216 264 309
#     4  10  20  30  47  68  93 128 171 212 259 299
#
# _framework density 15.725267000000001
#
# number of rings (size 3 to 8) (size 9 to 14) (size 15 to 20)
#    0.000    2.125    2.500    1.500    5.250    2.250 
#    0.000    0.000    0.000    0.000    0.000    0.000 
#    0.000    0.000    0.000   29.250    0.000    0.000 
#
# Total GULP energy -178163.815109 kJ/mol
# GULP energy per Si atom -5567.619222 kJ/mol
# Density = 1.568948 g / cm^3
# Si number density = 15.725267 Si / 1000 Ang^3
#
#
#
# Elastic Constant Matrix: (Units=GPa)
#
#
# Indices 1 2 3 4 5 6 
#
# 1 100.2682 24.5464 37.6430 0.0000 0.0000 0.0000
# 2 24.5464 51.2174 36.4886 0.0000 0.0000 0.0000
# 3 37.6430 36.4886 68.9888 0.0000 0.0000 0.0000
# 4 0.0000 0.0000 0.0000 14.4268 0.0000 0.0000
# 5 0.0000 0.0000 0.0000 0.0000 7.2595 0.0000
# 6 0.0000 0.0000 0.0000 0.0000 0.0000 15.6809
#
#
#
# Elastic Compliance Matrix: (Units=1/GPa)
#
#
# Indices 1 2 3 4 5 6 
#
# 1 0.012649 -0.001838 -0.005930 0.000000 0.000000 0.000000
# 2 -0.001838 0.031597 -0.015709 0.000000 0.000000 0.000000
# 3 -0.005930 -0.015709 0.026040 0.000000 0.000000 0.000000
# 4 0.000000 0.000000 0.000000 0.069316 0.000000 0.000000
# 5 0.000000 0.000000 0.000000 0.000000 0.137750 0.000000
# 6 0.000000 0.000000 0.000000 0.000000 0.000000 0.063772
#
#
# Mechanical properties :
#
#
# Convention : Reuss Voigt Hill
#
# Bulk Modulus (GPa) = 42.85935 46.42559 44.64247
# Shear Modulus (GPa) = 12.63089 15.59319 14.11204
#
# Velocity S-wave (km/s) = 2.83719 3.15239 2.99893
# Velocity P-wave (km/s) = 6.16824 6.54500 6.35941
#
# Compressibility (1/GPa) = 0.02333213
#
# Stress axis : x y z
#
# Youngs Moduli (GPa) = 79.05518 31.64860 38.40315
#
# Poissons Ratio (x) = 0.05816 0.22773
# Poissons Ratio (y) = 0.14527 0.60328
# Poissons Ratio (z) = 0.46881 0.49717
#
# Static dielectric constant tensor:
#      x y z
#    x 1.581620 0.000000 0.000000 
#    y 0.000000 1.532540 0.000000 
#    z 0.000000 0.000000 1.525660 
# 
# From -- ./inp_files/26413.got.cif
#   From: 2010.05.17/outbox.cif.g08.bks.cpg/sg23_14_cif.got.tgz:26413.got - 2010.06.04 12:02:01.
