data_PCOD9329666
_publ_section_title
;
Structure prediction by ZEFSAII (Michael W. Deem and Ramdas Pophale) SiO2 
 PCOD9329666
Probable space group: I 2 2 2
;
_chemical_formula_sum "Si O2"
_cell_formula_units_Z 48
_cell_length_a 17.656584
_cell_length_b 21.269028
_cell_length_c 7.539617
_cell_angle_alpha 90.000000
_cell_angle_beta 90.000000
_cell_angle_gamma 90.000000
_cell_volume 2831.415550
_symmetry_space_group_name_H-M "I 2 2 2"
_symmetry_group_IT_number 23
_symmetry_cell_setting 'orthorhombic'
loop_
_space_group_symop_operation_xyz
x,y,z
-x,-y,z
x,-y,-z
-x,y,-z
1/2+x,1/2+y,1/2+z
1/2-x,1/2-y,1/2+z
1/2+x,1/2-y,1/2-z
1/2-x,1/2+y,1/2-z
loop_
_atom_site_type_symbol
_atom_site_label
_atom_site_fract_x
_atom_site_fract_y
_atom_site_fract_z
Si Si1 0.643468 0.355628 0.669583
Si Si2 0.079939 0.021452 0.701166
Si Si3 0.697074 0.169981 0.802485
Si Si4 0.588086 0.222362 0.528961
Si Si5 0.716627 0.446692 0.381805
Si Si6 0.293478 0.788756 0.212692
O O1 0.592894 0.403823 0.781089
O O2 0.602411 0.294386 0.592563
O O3 0.672110 0.397589 0.506078
O O4 0.720281 0.331466 0.765187
O O5 0.152200 0.985176 0.780045
O O6 0.077513 0.000000 0.500000
O O7 0.000000 0.000000 0.784912
O O8 0.622283 0.181696 0.689321
O O9 0.725885 0.098824 0.782533
O O10 0.759675 0.218121 0.721815
O O11 0.688055 0.190098 0.010439
O O12 0.500000 0.211724 0.500000
O O13 0.638428 0.208800 0.352995
O O14 0.757102 0.500000 0.500000
#
# Coordination Sequence:
#
# PCOD9329666 Si02
#       6
#     8   8   8   8   8   8
#     4   9  20  35  53  77 108 153 189 224 274 344
#     4  10  22  33  48  82 117 149 185 228 281 337
#     4  10  19  35  58  81 111 153 195 238 277 344
#     4  11  23  35  56  88 115 150 191 239 301 334
#     4   9  18  33  54  76 104 148 190 223 277 332
#     4  10  18  35  56  79 111 149 197 231 281 336
#
# _framework density 16.952650999999999
#
# number of rings (size 3 to 8) (size 9 to 14) (size 15 to 20)
#    0.000    2.167    5.000    0.000    4.667    3.000 
#    0.000    0.000    0.000    0.000    0.000   30.333 
#    0.000    0.000    0.000    0.000    0.000    0.000 
#
# Total GULP energy -133637.392675 kJ/mol
# GULP energy per Si atom -5568.224695 kJ/mol
# Density = 1.691407 g / cm^3
# Si number density = 16.952651 Si / 1000 Ang^3
#
#
#
# Elastic Constant Matrix: (Units=GPa)
#
#
# Indices 1 2 3 4 5 6 
#
# 1 131.9541 53.9496 53.2373 0.0000 0.0000 0.0000
# 2 53.9496 105.7486 30.0636 0.0000 0.0000 0.0000
# 3 53.2373 30.0636 74.9710 0.0000 0.0000 0.0000
# 4 0.0000 0.0000 0.0000 23.4274 0.0000 0.0000
# 5 0.0000 0.0000 0.0000 0.0000 6.6976 0.0000
# 6 0.0000 0.0000 0.0000 0.0000 0.0000 17.0409
#
#
#
# Elastic Compliance Matrix: (Units=1/GPa)
#
#
# Indices 1 2 3 4 5 6 
#
# 1 0.012076 -0.004202 -0.006890 0.000000 0.000000 0.000000
# 2 -0.004202 0.012135 -0.001882 0.000000 0.000000 0.000000
# 3 -0.006890 -0.001882 0.018986 0.000000 0.000000 0.000000
# 4 0.000000 0.000000 0.000000 0.042685 0.000000 0.000000
# 5 0.000000 0.000000 0.000000 0.000000 0.149307 0.000000
# 6 0.000000 0.000000 0.000000 0.000000 0.000000 0.058682
#
#
# Mechanical properties :
#
#
# Convention : Reuss Voigt Hill
#
# Bulk Modulus (GPa) = 57.97724 65.24163 61.60944
# Shear Modulus (GPa) = 15.35759 21.12806 18.24282
#
# Velocity S-wave (km/s) = 3.01310 3.53412 3.28396
# Velocity P-wave (km/s) = 6.81020 7.43112 7.12742
#
# Compressibility (1/GPa) = 0.01724815
#
# Stress axis : x y z
#
# Youngs Moduli (GPa) = 82.80606 82.40413 52.66961
#
# Poissons Ratio (x) = 0.34627 0.36292
# Poissons Ratio (y) = 0.34796 0.09914
# Poissons Ratio (z) = 0.57057 0.15511
#
# Static dielectric constant tensor:
#      x y z
#    x 1.615950 0.000000 0.000000 
#    y 0.000000 1.598880 0.000000 
#    z 0.000000 0.000000 1.626600 
# 
# From -- ./inp_files/10103.got.cif
#   From: 2010.05.17/outbox.cif.g08.bks.cpg/sg23_6_cif.got.tgz:10103.got - 2010.06.04 12:02:01.
