data_PCOD9329332
_publ_section_title
;
Structure prediction by ZEFSAII (Michael W. Deem and Ramdas Pophale) SiO2 
 PCOD9329332
Probable space group: I 2 2 2
;
_chemical_formula_sum "Si O2"
_cell_formula_units_Z 30
_cell_length_a 33.055568
_cell_length_b 7.313017
_cell_length_c 5.036066
_cell_angle_alpha 90.000000
_cell_angle_beta 90.000000
_cell_angle_gamma 90.000000
_cell_volume 1217.398102
_symmetry_space_group_name_H-M "I 2 2 2"
_symmetry_group_IT_number 23
_symmetry_cell_setting 'orthorhombic'
loop_
_space_group_symop_operation_xyz
x,y,z
-x,-y,z
x,-y,-z
-x,y,-z
1/2+x,1/2+y,1/2+z
1/2-x,1/2-y,1/2+z
1/2+x,1/2-y,1/2-z
1/2-x,1/2+y,1/2-z
loop_
_atom_site_type_symbol
_atom_site_label
_atom_site_fract_x
_atom_site_fract_y
_atom_site_fract_z
Si Si1 0.912982 0.725068 0.504572
Si Si2 0.273735 0.795595 0.610386
Si Si3 0.000000 0.739465 0.500000
Si Si4 0.863309 0.277137 0.996102
Si Si5 0.500000 0.000000 0.500000
O O1 0.916190 0.500000 0.500000
O O2 0.956072 0.808000 0.411549
O O3 0.896506 0.781166 0.789587
O O4 0.878424 0.774884 0.293577
O O5 0.241597 0.704859 0.410852
O O6 0.318558 0.715237 0.575946
O O7 0.275776 0.000000 0.500000
O O8 0.016050 0.638357 0.228086
O O9 0.863083 0.500000 0.000000
#
# Coordination Sequence:
#
# PCOD9329332 Si02
#       5
#     8   8   4   8   2
#     4  10  16  25  38  58  90 129 174 214 253 311
#     4  11  22  39  60  84 113 149 190 234 288 345
#     4  11  18  22  36  54  88 130 177 210 255 310
#     4   9  19  29  44  66  94 132 174 217 266 320
#     4  10  16  22  28  50  76 114 176 202 246 286
#
# _framework density 24.642717000000001
#
# number of rings (size 3 to 8) (size 9 to 14) (size 15 to 20)
#    0.000    1.867    2.667    4.000    3.733    4.267 
#    0.000    0.000    0.000    0.000    0.000    0.000 
#    0.000    0.000    0.000   84.000    0.000   93.333 
#
# Total GULP energy -83569.460810 kJ/mol
# GULP energy per Si atom -5571.297387 kJ/mol
# Density = 2.458663 g / cm^3
# Si number density = 24.642717 Si / 1000 Ang^3
#
#
#
# Elastic Constant Matrix: (Units=GPa)
#
#
# Indices 1 2 3 4 5 6 
#
# 1 173.6242 -5.0520 11.1078 0.0001 0.0000 -0.0001
# 2 -5.0520 68.0072 -5.0218 0.0000 -0.0002 0.0000
# 3 11.1078 -5.0218 127.5050 0.0001 -0.0002 -0.0001
# 4 0.0001 0.0000 0.0001 10.3826 -0.0002 -0.0001
# 5 0.0000 -0.0002 -0.0002 -0.0002 30.3716 0.0001
# 6 -0.0001 0.0000 -0.0001 -0.0001 0.0001 -41.5472
#
#
#
# Elastic Compliance Matrix: (Units=1/GPa)
#
#
# Indices 1 2 3 4 5 6 
#
# 1 0.005802 0.000395 -0.000490 0.000000 0.000000 0.000000
# 2 0.000395 0.014774 0.000547 0.000000 0.000000 0.000000
# 3 -0.000490 0.000547 0.007907 0.000000 0.000000 0.000000
# 4 0.000000 0.000000 0.000000 0.096315 0.000001 0.000000
# 5 0.000000 0.000000 0.000000 0.000001 0.032925 0.000000
# 6 0.000000 0.000000 0.000000 0.000000 0.000000 -0.024069
#
#
# Mechanical properties :
#
#
# Convention : Reuss Voigt Hill
#
# Bulk Modulus (GPa) = 34.02705 41.24492 37.63599
# Shear Modulus (GPa) = 35.07629 24.38157 29.72893
#
# Velocity S-wave (km/s) = 3.77688 3.14889 3.47709
# Velocity P-wave (km/s) = 5.73218 5.47669 5.60589
#
# Compressibility (1/GPa) = 0.02938838
#
# Stress axis : x y z
#
# Youngs Moduli (GPa) = 172.34256 67.68611 126.46900
#
# Poissons Ratio (x) = -0.02673 0.06196
# Poissons Ratio (y) = -0.06805 -0.06924
# Poissons Ratio (z) = 0.08444 -0.03706
#
# Static dielectric constant tensor:
#      x y z
#    x 1.952960 0.000000 0.000000 
#    y 0.000000 3.315190 0.000000 
#    z 0.000000 0.000000 1.867300 
# 
# From -- ./inp_files/5154.got.cif
#   From: 2010.05.17/outbox.cif.g08.bks.cpg/sg23_3_cif.got.tgz:5154.got - 2010.06.04 12:02:01.
