data_PCOD9329234
_publ_section_title
;
Structure prediction by ZEFSAII (Michael W. Deem and Ramdas Pophale) SiO2 
 PCOD9329234
Probable space group: F 2 2 2
;
_chemical_formula_sum "Si O2"
_cell_formula_units_Z 64
_cell_length_a 19.694870
_cell_length_b 4.942204
_cell_length_c 29.652110
_cell_angle_alpha 90.000000
_cell_angle_beta 90.000000
_cell_angle_gamma 90.000000
_cell_volume 2886.219715
_symmetry_space_group_name_H-M "F 2 2 2"
_symmetry_group_IT_number 22
_symmetry_cell_setting 'orthorhombic'
loop_
_space_group_symop_operation_xyz
x,y,z
-x,-y,z
x,-y,-z
-x,y,-z
x,1/2+y,1/2+z
-x,1/2-y,1/2+z
x,1/2-y,1/2-z
-x,1/2+y,1/2-z
1/2+x,y,1/2+z
1/2-x,-y,1/2+z
1/2+x,-y,1/2-z
1/2-x,y,1/2-z
1/2+x,1/2+y,z
1/2-x,1/2-y,z
1/2+x,1/2-y,-z
1/2-x,1/2+y,-z
loop_
_atom_site_type_symbol
_atom_site_label
_atom_site_fract_x
_atom_site_fract_y
_atom_site_fract_z
Si Si1 0.500000 0.000000 0.371456
Si Si2 0.326174 0.324277 0.846327
Si Si3 0.884371 0.750000 0.750000
Si Si4 0.250000 0.750000 0.532347
Si Si5 0.000000 0.500000 0.801389
Si Si6 0.871864 0.682319 0.102525
O O1 0.507151 0.242508 0.334267
O O2 0.443259 0.153917 0.402879
O O3 0.250000 0.250000 0.858342
O O4 0.339792 0.304465 0.793655
O O5 0.339383 0.632512 0.858705
O O6 0.372044 0.121478 0.877316
O O7 0.935353 0.520252 0.768686
O O8 0.236005 0.500000 0.500000
O O9 0.182474 0.804651 0.562149
#
# Coordination Sequence:
#
# PCOD9329234 Si02
#       6
#     8  16   8   8   8  16
#     4  12  23  46  67 102 137 202 233 302 353 430
#     4  12  24  42  66 100 146 195 244 308 350 428
#     4  12  25  40  62 100 145 200 256 300 342 409
#     4  12  26  48  82 111 136 177 232 308 388 478
#     4  12  25  38  64  92 144 194 262 288 346 404
#     4  12  24  46  73 103 143 184 241 295 378 443
#
# _framework density 22.174336
#
# number of rings (size 3 to 8) (size 9 to 14) (size 15 to 20)
#    0.000    0.000    7.500    2.625    0.000    3.000 
#    0.000    3.125    0.000    1.500    0.000    0.000 
#    0.000    0.000    0.000    0.000    0.000    0.000 
#
# Total GULP energy -89216.930190 kJ/mol
# GULP energy per Si atom -5576.058137 kJ/mol
# Density = 2.212387 g / cm^3
# Si number density = 22.174336 Si / 1000 Ang^3
#
#
#
# Elastic Constant Matrix: (Units=GPa)
#
#
# Indices 1 2 3 4 5 6 
#
# 1 86.9467 -7.6545 15.8574 -0.0013 -0.0012 -0.0034
# 2 -7.6545 120.5602 35.0172 -0.0031 -0.0209 0.0021
# 3 15.8574 35.0172 112.8919 -0.0006 0.0013 -0.0002
# 4 -0.0013 -0.0031 -0.0006 25.5882 -0.0055 0.0003
# 5 -0.0012 -0.0209 0.0013 -0.0055 -97.2589 -0.0042
# 6 -0.0034 0.0021 -0.0002 0.0003 -0.0042 26.3068
#
#
#
# Elastic Compliance Matrix: (Units=1/GPa)
#
#
# Indices 1 2 3 4 5 6 
#
# 1 0.012008 0.001376 -0.002114 0.000001 0.000000 0.000001
# 2 0.001376 0.009274 -0.003070 0.000001 -0.000002 -0.000001
# 3 -0.002114 -0.003070 0.010107 0.000000 0.000001 0.000000
# 4 0.000001 0.000001 0.000000 0.039080 -0.000002 0.000000
# 5 0.000000 -0.000002 0.000001 -0.000002 -0.010282 -0.000002
# 6 0.000001 -0.000001 0.000000 0.000000 -0.000002 0.038013
#
#
# Mechanical properties :
#
#
# Convention : Reuss Voigt Hill
#
# Bulk Modulus (GPa) = 42.06202 45.20432 43.63317
# Shear Modulus (GPa) = 43.96008 9.40579 26.68293
#
# Velocity S-wave (km/s) = 4.45733 2.06178 3.47266
# Velocity P-wave (km/s) = 6.74540 5.10863 5.98324
#
# Compressibility (1/GPa) = 0.02377442
#
# Stress axis : x y z
#
# Youngs Moduli (GPa) = 83.27817 107.83250 98.93994
#
# Poissons Ratio (x) = -0.14841 0.20912
# Poissons Ratio (y) = -0.11462 0.30373
# Poissons Ratio (z) = 0.17602 0.33103
#
# Static dielectric constant tensor:
#      x y z
#    x 2.011660 0.000000 0.000000 
#    y 0.000000 1.806830 0.000000 
#    z 0.000000 0.000000 1.771070 
# 
# From -- ./inp_files/51091.got.cif
#   From: 2010.05.17/outbox.cif.g08.bks.cpg/sg22_26_cif.got.tgz:51091.got - 2010.06.03 23:40:54.
