data_PCOD9329493
_publ_section_title
;
Structure prediction by ZEFSAII (Michael W. Deem and Ramdas Pophale) SiO2 
 PCOD9329493
Probable space group: I 2 2 2
;
_chemical_formula_sum "Si O2"
_cell_formula_units_Z 64
_cell_length_a 15.264297
_cell_length_b 7.695898
_cell_length_c 31.325458
_cell_angle_alpha 90.000000
_cell_angle_beta 90.000000
_cell_angle_gamma 90.000000
_cell_volume 3679.879011
_symmetry_space_group_name_H-M "I 2 2 2"
_symmetry_group_IT_number 23
_symmetry_cell_setting 'orthorhombic'
loop_
_space_group_symop_operation_xyz
x,y,z
-x,-y,z
x,-y,-z
-x,y,-z
1/2+x,1/2+y,1/2+z
1/2-x,1/2-y,1/2+z
1/2+x,1/2-y,1/2-z
1/2-x,1/2+y,1/2-z
loop_
_atom_site_type_symbol
_atom_site_label
_atom_site_fract_x
_atom_site_fract_y
_atom_site_fract_z
Si Si1 0.500000 0.211756 0.178325
Si Si2 0.099330 0.791332 0.451798
Si Si3 0.193818 0.789982 0.792811
Si Si4 0.500000 0.296845 0.276890
Si Si5 0.900670 0.208669 0.548202
Si Si6 0.321959 0.792243 0.134284
Si Si7 0.321959 0.207758 0.134284
Si Si8 0.693819 0.289986 0.707190
O O1 0.500001 0.281024 0.225941
O O2 0.586910 0.271844 0.154433
O O3 0.413089 0.271844 0.154433
O O4 0.500000 0.000000 0.179776
O O5 0.119164 0.730971 0.500000
O O6 0.169516 0.744921 0.415793
O O7 1.000000 0.727866 0.440864
O O8 0.094995 0.000000 0.452897
O O9 0.244549 0.727067 0.835163
O O10 0.249999 0.749996 0.750000
O O11 0.094101 0.722204 0.790924
O O12 0.189171 0.999998 0.794153
O O13 0.500000 0.500000 0.289347
O O14 0.405897 0.222206 0.290923
O O15 0.830484 0.255079 0.584207
O O16 0.244550 0.727070 0.164838
O O17 0.320982 0.000000 0.138564
#
# Coordination Sequence:
#
# PCOD9329493 Si02
#       8
#     8   8   8   8   8   8   8   8
#     4  10  18  28  43  65  94 122 151 190 228 262
#     4   9  18  31  46  66  92 119 147 182 224 271
#     4  10  20  32  46  66  92 122 157 192 227 267
#     4  10  20  32  46  65  90 123 160 194 226 263
#     4   9  18  31  46  66  92 119 147 182 224 271
#     4  10  19  30  44  65  92 122 152 184 224 268
#     4  10  19  30  44  65  92 122 152 184 224 268
#     4  10  20  32  46  66  92 122 157 192 227 267
#
# _framework density 17.391876
#
# number of rings (size 3 to 8) (size 9 to 14) (size 15 to 20)
#    0.000    2.250    3.750    0.750    0.000    2.500 
#    0.000    1.250    0.000    0.000    0.000    0.875 
#    0.000    7.000    0.000    0.000    0.000    0.000 
#
# Total GULP energy -178363.291036 kJ/mol
# GULP energy per Si atom -5573.852845 kJ/mol
# Density = 1.735229 g / cm^3
# Si number density = 17.391876 Si / 1000 Ang^3
#
#
#
# Elastic Constant Matrix: (Units=GPa)
#
#
# Indices 1 2 3 4 5 6 
#
# 1 140.4903 9.2121 78.7024 0.0000 0.0000 0.0000
# 2 9.2121 27.5019 -2.8433 0.0000 0.0000 0.0000
# 3 78.7024 -2.8433 140.1257 0.0000 0.0000 0.0000
# 4 0.0000 0.0000 0.0000 23.2383 0.0000 0.0000
# 5 0.0000 0.0000 0.0000 0.0000 24.3672 0.0000
# 6 0.0000 0.0000 0.0000 0.0000 0.0000 6.3470
#
#
#
# Elastic Compliance Matrix: (Units=1/GPa)
#
#
# Indices 1 2 3 4 5 6 
#
# 1 0.010866 -0.004280 -0.006190 0.000000 0.000000 0.000000
# 2 -0.004280 0.038123 0.003177 0.000000 0.000000 0.000000
# 3 -0.006190 0.003177 0.010677 0.000000 0.000000 0.000000
# 4 0.000000 0.000000 0.000000 0.043032 0.000000 0.000000
# 5 0.000000 0.000000 0.000000 0.000000 0.041039 0.000000
# 6 0.000000 0.000000 0.000000 0.000000 0.000000 0.157555
#
#
# Mechanical properties :
#
#
# Convention : Reuss Voigt Hill
#
# Bulk Modulus (GPa) = 22.18172 53.14004 37.66088
# Shear Modulus (GPa) = 15.11010 25.66030 20.38520
#
# Velocity S-wave (km/s) = 2.95074 3.84528 3.42732
# Velocity P-wave (km/s) = 4.93872 7.09477 6.11256
#
# Compressibility (1/GPa) = 0.04508216
#
# Stress axis : x y z
#
# Youngs Moduli (GPa) = 92.02946 26.23083 93.65509
#
# Poissons Ratio (x) = 0.11226 0.57971
# Poissons Ratio (y) = 0.39385 -0.29757
# Poissons Ratio (z) = 0.56965 -0.08334
#
# Static dielectric constant tensor:
#      x y z
#    x 1.614730 0.000000 0.000000 
#    y 0.000000 1.645990 0.000000 
#    z 0.000000 0.000000 1.603850 
# 
# From -- ./inp_files/10434.got.cif
#   From: 2010.05.17/outbox.cif.g08.bks.cpg/sg23_6_cif.got.tgz:10434.got - 2010.06.04 12:02:01.
