data_PCOD9329992
_publ_section_title
;
Structure prediction by ZEFSAII (Michael W. Deem and Ramdas Pophale) SiO2 
 PCOD9329992
Probable space group: I 2 2 2
;
_chemical_formula_sum "Si O2"
_cell_formula_units_Z 56
_cell_length_a 23.644827
_cell_length_b 8.778876
_cell_length_c 13.360082
_cell_angle_alpha 90.000000
_cell_angle_beta 90.000000
_cell_angle_gamma 90.000000
_cell_volume 2773.219078
_symmetry_space_group_name_H-M "I 2 2 2"
_symmetry_group_IT_number 23
_symmetry_cell_setting 'orthorhombic'
loop_
_space_group_symop_operation_xyz
x,y,z
-x,-y,z
x,-y,-z
-x,y,-z
1/2+x,1/2+y,1/2+z
1/2-x,1/2-y,1/2+z
1/2+x,1/2-y,1/2-z
1/2-x,1/2+y,1/2-z
loop_
_atom_site_type_symbol
_atom_site_label
_atom_site_fract_x
_atom_site_fract_y
_atom_site_fract_z
Si Si1 0.870866 0.209614 0.135732
Si Si2 0.448434 0.410223 0.104643
Si Si3 0.158595 0.975492 0.710235
Si Si4 0.436211 0.826287 0.464803
Si Si5 0.446295 0.108822 0.204959
Si Si6 0.782766 0.522657 0.880830
Si Si7 0.876633 0.348180 0.763554
O O1 0.851626 0.049545 0.180796
O O2 0.921581 0.289048 0.202362
O O3 0.816837 0.321142 0.139532
O O4 0.895319 0.213645 0.024500
O O5 0.500000 0.500000 0.160640
O O6 0.385348 0.428257 0.145230
O O7 0.460064 0.230293 0.117718
O O8 0.446360 0.500000 0.000000
O O9 0.221922 0.983399 0.670853
O O10 0.137014 0.803917 0.706068
O O11 0.500000 0.799479 0.500000
O O12 0.425097 0.818844 0.347102
O O13 0.421653 0.000000 0.500000
O O14 0.500000 0.000000 0.223829
O O15 0.396020 0.985939 0.192338
O O16 0.822795 0.396883 0.829624
O O17 0.777939 0.500000 0.000000
#
# Coordination Sequence:
#
# PCOD9329992 Si02
#       7
#     8   8   8   8   8   8   8
#     4  10  20  37  57  89 123 156 204 254 308 379
#     4  10  22  42  61  84 120 156 200 259 318 364
#     4  11  24  37  60  86 122 160 205 261 322 367
#     4  11  19  35  62  90 123 165 201 244 312 382
#     4  10  19  35  63  90 116 156 203 245 302 382
#     4  11  20  40  62  81 112 162 213 254 315 376
#     4  11  21  37  59  91 123 158 208 258 305 385
#
# _framework density 20.19314
#
# number of rings (size 3 to 8) (size 9 to 14) (size 15 to 20)
#    0.000    1.429    4.286    3.000    0.000    1.714 
#    0.000    5.714    0.000    0.000    0.000    0.000 
#    0.000    0.000    0.000    0.000    0.000    0.000 
#
# Total GULP energy -156103.468934 kJ/mol
# GULP energy per Si atom -5575.123890 kJ/mol
# Density = 2.014718 g / cm^3
# Si number density = 20.193140 Si / 1000 Ang^3
#
#
#
# Elastic Constant Matrix: (Units=GPa)
#
#
# Indices 1 2 3 4 5 6 
#
# 1 126.2107 27.7010 24.2993 0.0000 0.0000 0.0000
# 2 27.7010 92.5833 24.9907 0.0000 0.0000 0.0000
# 3 24.2993 24.9907 47.5303 0.0000 0.0000 0.0000
# 4 0.0000 0.0000 0.0000 26.6363 0.0000 0.0000
# 5 0.0000 0.0000 0.0000 0.0000 20.3732 0.0000
# 6 0.0000 0.0000 0.0000 0.0000 0.0000 1.2269
#
#
#
# Elastic Compliance Matrix: (Units=1/GPa)
#
#
# Indices 1 2 3 4 5 6 
#
# 1 0.009010 -0.001693 -0.003716 0.000000 0.000000 0.000000
# 2 -0.001693 0.012906 -0.005920 0.000000 0.000000 0.000000
# 3 -0.003716 -0.005920 0.026052 0.000000 0.000000 0.000000
# 4 0.000000 0.000000 0.000000 0.037543 0.000000 0.000000
# 5 0.000000 0.000000 0.000000 0.000000 0.049084 0.000000
# 6 0.000000 0.000000 0.000000 0.000000 0.000000 0.815076
#
#
# Mechanical properties :
#
#
# Convention : Reuss Voigt Hill
#
# Bulk Modulus (GPa) = 39.51133 46.70070 43.10601
# Shear Modulus (GPa) = 5.09806 22.26948 13.68377
#
# Velocity S-wave (km/s) = 1.59064 3.32448 2.60598
# Velocity P-wave (km/s) = 4.79403 6.15739 5.51798
#
# Compressibility (1/GPa) = 0.02530920
#
# Stress axis : x y z
#
# Youngs Moduli (GPa) = 110.98406 77.48602 38.38492
#
# Poissons Ratio (x) = 0.13116 0.14265
# Poissons Ratio (y) = 0.18787 0.22724
# Poissons Ratio (z) = 0.41246 0.45873
#
# Static dielectric constant tensor:
#      x y z
#    x 1.727050 0.000000 0.000000 
#    y 0.000000 1.747910 0.000000 
#    z 0.000000 0.000000 1.825340 
# 
# From -- ./inp_files/22412.got.cif
#   From: 2010.05.17/outbox.cif.g08.bks.cpg/sg23_12_cif.got.tgz:22412.got - 2010.06.04 12:02:01.
