data_PCOD9329424
_publ_section_title
;
Structure prediction by ZEFSAII (Michael W. Deem and Ramdas Pophale) SiO2 
 PCOD9329424
Probable space group: I 2 2 2
;
_chemical_formula_sum "Si O2"
_cell_formula_units_Z 60
_cell_length_a 22.098598
_cell_length_b 10.689969
_cell_length_c 15.276353
_cell_angle_alpha 90.000000
_cell_angle_beta 90.000000
_cell_angle_gamma 90.000000
_cell_volume 3608.783702
_symmetry_space_group_name_H-M "I 2 2 2"
_symmetry_group_IT_number 23
_symmetry_cell_setting 'orthorhombic'
loop_
_space_group_symop_operation_xyz
x,y,z
-x,-y,z
x,-y,-z
-x,y,-z
1/2+x,1/2+y,1/2+z
1/2-x,1/2-y,1/2+z
1/2+x,1/2-y,1/2-z
1/2-x,1/2+y,1/2-z
loop_
_atom_site_type_symbol
_atom_site_label
_atom_site_fract_x
_atom_site_fract_y
_atom_site_fract_z
Si Si1 0.204559 0.613733 0.727249
Si Si2 0.430512 0.519933 0.699264
Si Si3 0.291425 0.500000 0.000000
Si Si4 0.283149 0.128127 0.112235
Si Si5 0.668738 0.382870 0.826615
Si Si6 0.355228 0.718251 0.356435
Si Si7 0.745577 0.761176 0.931575
Si Si8 0.128192 0.863933 0.040171
O O1 0.196865 0.497041 0.661649
O O2 0.268123 0.588179 0.776354
O O3 0.155646 0.656343 0.799851
O O4 0.210855 0.730120 0.659824
O O5 0.500000 0.500000 0.721071
O O6 0.389742 0.588446 0.770526
O O7 0.398123 0.385591 0.686151
O O8 0.423447 0.601260 0.609370
O O9 0.330038 0.539227 0.916180
O O10 0.253847 0.376954 0.972628
O O11 0.324853 0.238165 0.149032
O O12 0.213002 0.160877 0.136126
O O13 0.282014 0.148005 0.006942
O O14 0.379956 0.726017 0.456323
O O15 0.812732 0.811091 0.912008
O O16 0.144448 0.000000 0.000000
#
# Coordination Sequence:
#
# PCOD9329424 Si02
#       8
#     8   8   4   8   8   8   8   8
#     4  11  17  29  54  74 109 141 171 230 275 332
#     4  11  20  33  53  72 102 144 185 228 268 322
#     4  10  22  32  49  76 114 143 172 218 290 346
#     4   9  18  30  48  75 106 141 168 220 287 324
#     4  10  20  33  47  75 104 136 180 221 274 344
#     4   9  18  29  45  76 103 133 177 216 272 324
#     4  10  17  29  48  75 110 143 171 221 276 338
#     4   9  17  31  45  67 103 133 174 222 262 316
#
# _framework density 16.626100999999998
#
# number of rings (size 3 to 8) (size 9 to 14) (size 15 to 20)
#    0.000    2.133    2.667    3.600    1.867    2.400 
#    0.000    0.333    0.000    0.800    0.000    0.000 
#    0.000   27.733    0.000    0.000    0.000    0.000 
#
# Total GULP energy -167006.991922 kJ/mol
# GULP energy per Si atom -5566.899731 kJ/mol
# Density = 1.658826 g / cm^3
# Si number density = 16.626101 Si / 1000 Ang^3
#
#
#
# Elastic Constant Matrix: (Units=GPa)
#
#
# Indices 1 2 3 4 5 6 
#
# 1 76.5645 18.9726 32.5423 0.0000 0.0000 0.0000
# 2 18.9726 59.6064 38.2771 0.0000 0.0000 0.0000
# 3 32.5423 38.2771 97.1789 0.0000 0.0000 0.0000
# 4 0.0000 0.0000 0.0000 29.2398 0.0000 0.0000
# 5 0.0000 0.0000 0.0000 0.0000 12.5322 0.0000
# 6 0.0000 0.0000 0.0000 0.0000 0.0000 15.5229
#
#
#
# Elastic Compliance Matrix: (Units=1/GPa)
#
#
# Indices 1 2 3 4 5 6 
#
# 1 0.015428 -0.002132 -0.004327 0.000000 0.000000 0.000000
# 2 -0.002132 0.022752 -0.008247 0.000000 0.000000 0.000000
# 3 -0.004327 -0.008247 0.014988 0.000000 0.000000 0.000000
# 4 0.000000 0.000000 0.000000 0.034200 0.000000 0.000000
# 5 0.000000 0.000000 0.000000 0.000000 0.079795 0.000000
# 6 0.000000 0.000000 0.000000 0.000000 0.000000 0.064421
#
#
# Mechanical properties :
#
#
# Convention : Reuss Voigt Hill
#
# Bulk Modulus (GPa) = 42.09674 45.88152 43.98913
# Shear Modulus (GPa) = 18.59332 21.02951 19.81142
#
# Velocity S-wave (km/s) = 3.34776 3.56033 3.45568
# Velocity P-wave (km/s) = 6.34964 6.67512 6.51442
#
# Compressibility (1/GPa) = 0.02375481
#
# Stress axis : x y z
#
# Youngs Moduli (GPa) = 64.81636 43.95283 66.72172
#
# Poissons Ratio (x) = 0.09373 0.28867
# Poissons Ratio (y) = 0.13822 0.55028
# Poissons Ratio (z) = 0.28043 0.36250
#
# Static dielectric constant tensor:
#      x y z
#    x 1.509540 0.000000 0.000000 
#    y 0.000000 1.608790 0.000000 
#    z 0.000000 0.000000 1.637140 
# 
# From -- ./inp_files/22483.got.cif
#   From: 2010.05.17/outbox.cif.g08.bks.cpg/sg23_12_cif.got.tgz:22483.got - 2010.06.04 12:02:01.
