data_PCOD9329242
_publ_section_title
;
Structure prediction by ZEFSAII (Michael W. Deem and Ramdas Pophale) SiO2 
 PCOD9329242
Probable space group: F 2 2 2
;
_chemical_formula_sum "Si O2"
_cell_formula_units_Z 56
_cell_length_a 8.228708
_cell_length_b 13.244416
_cell_length_c 23.478297
_cell_angle_alpha 90.000000
_cell_angle_beta 90.000000
_cell_angle_gamma 90.000000
_cell_volume 2558.768860
_symmetry_space_group_name_H-M "F 2 2 2"
_symmetry_group_IT_number 22
_symmetry_cell_setting 'orthorhombic'
loop_
_space_group_symop_operation_xyz
x,y,z
-x,-y,z
x,-y,-z
-x,y,-z
x,1/2+y,1/2+z
-x,1/2-y,1/2+z
x,1/2-y,1/2-z
-x,1/2+y,1/2-z
1/2+x,y,1/2+z
1/2-x,-y,1/2+z
1/2+x,-y,1/2-z
1/2-x,y,1/2-z
1/2+x,1/2+y,z
1/2-x,1/2-y,z
1/2+x,1/2-y,-z
1/2-x,1/2+y,-z
loop_
_atom_site_type_symbol
_atom_site_label
_atom_site_fract_x
_atom_site_fract_y
_atom_site_fract_z
Si Si1 0.575266 0.371511 0.607391
Si Si2 0.239831 0.373335 0.815746
Si Si3 0.000000 0.500000 0.000000
Si Si4 0.419139 0.851992 0.647976
Si Si5 0.750000 0.250000 0.750000
O O1 0.422952 0.398572 0.648684
O O2 0.573685 0.421608 0.545690
O O3 0.568331 0.249026 0.608806
O O4 0.750221 0.402610 0.631534
O O5 0.250000 0.409794 0.750000
O O6 0.250000 0.250000 0.813765
O O7 0.406310 0.402339 0.848120
O O8 0.371500 0.812985 0.710939
#
# Coordination Sequence:
#
# PCOD9329242 Si02
#       5
#    16  16   4  16   4
#     4   9  20  35  54  75 114 153 188 229 286 327
#     4   9  15  29  59  92 114 135 182 240 288 341
#     4  12  24  44  54  72 128 164 188 246 282 320
#     4   9  16  33  56  93 106 142 192 231 283 342
#     4   8  12  24  58  88 116 130 164 250 288 328
#
# _framework density 21.885525000000001
#
# number of rings (size 3 to 8) (size 9 to 14) (size 15 to 20)
#    0.000    3.143    0.000    5.143    0.000    0.000 
#   15.429    2.857   18.857    0.000    0.000    0.000 
#    0.000    0.000    0.000    0.000    0.000    0.000 
#
# Total GULP energy -77983.406653 kJ/mol
# GULP energy per Si atom -5570.243332 kJ/mol
# Density = 2.183571 g / cm^3
# Si number density = 21.885525 Si / 1000 Ang^3
#
#
#
# Elastic Constant Matrix: (Units=GPa)
#
#
# Indices 1 2 3 4 5 6 
#
# 1 247.1684 55.6609 84.2911 0.0000 0.0000 0.0000
# 2 55.6609 74.7478 31.7880 0.0000 0.0000 0.0000
# 3 84.2911 31.7880 145.8493 0.0000 0.0000 0.0000
# 4 0.0000 0.0000 0.0000 -21.3075 0.0000 0.0000
# 5 0.0000 0.0000 0.0000 0.0000 -25.3451 0.0000
# 6 0.0000 0.0000 0.0000 0.0000 0.0000 36.8894
#
#
#
# Elastic Compliance Matrix: (Units=1/GPa)
#
#
# Indices 1 2 3 4 5 6 
#
# 1 0.005620 -0.003090 -0.002574 0.000000 0.000000 0.000000
# 2 -0.003090 0.016444 -0.001798 0.000000 0.000000 0.000000
# 3 -0.002574 -0.001798 0.008736 0.000000 0.000000 0.000000
# 4 0.000000 0.000000 0.000000 -0.046932 0.000000 0.000000
# 5 0.000000 0.000000 0.000000 0.000000 -0.039455 0.000000
# 6 0.000000 0.000000 0.000000 0.000000 0.000000 0.027108
#
#
# Mechanical properties :
#
#
# Convention : Reuss Voigt Hill
#
# Bulk Modulus (GPa) = 62.99290 90.13839 76.56564
# Shear Modulus (GPa) = -605.08169 17.78240 -293.64964
#
# Velocity S-wave (km/s) = -16.64560 2.85356 -11.59597
# Velocity P-wave (km/s) = 18.45506 7.22031 12.00950
#
# Compressibility (1/GPa) = 0.01587480
#
# Stress axis : x y z
#
# Youngs Moduli (GPa) = 177.95072 60.81285 114.46779
#
# Poissons Ratio (x) = 0.18790 0.29467
# Poissons Ratio (y) = 0.54984 0.20584
# Poissons Ratio (z) = 0.45810 0.10936
#
# Static dielectric constant tensor:
#      x y z
#    x 1.849820 0.000000 0.000000 
#    y 0.000000 1.955370 0.000000 
#    z 0.000000 0.000000 1.941410 
# 
# From -- ./inp_files/41496.got.cif
#   From: 2010.05.17/outbox.cif.g08.bks.cpg/sg22_21_cif.got.tgz:41496.got - 2010.06.03 23:40:54.
