data_PCOD9329273
_publ_section_title
;
Structure prediction by ZEFSAII (Michael W. Deem and Ramdas Pophale) SiO2 
 PCOD9329273
Probable space group: F 2 2 2
;
_chemical_formula_sum "Si O2"
_cell_formula_units_Z 56
_cell_length_a 11.393678
_cell_length_b 15.321339
_cell_length_c 10.351964
_cell_angle_alpha 90.000000
_cell_angle_beta 90.000000
_cell_angle_gamma 90.000000
_cell_volume 1807.105120
_symmetry_space_group_name_H-M "F 2 2 2"
_symmetry_group_IT_number 22
_symmetry_cell_setting 'orthorhombic'
loop_
_space_group_symop_operation_xyz
x,y,z
-x,-y,z
x,-y,-z
-x,y,-z
x,1/2+y,1/2+z
-x,1/2-y,1/2+z
x,1/2-y,1/2-z
-x,1/2+y,1/2-z
1/2+x,y,1/2+z
1/2-x,-y,1/2+z
1/2+x,-y,1/2-z
1/2-x,y,1/2-z
1/2+x,1/2+y,z
1/2-x,1/2-y,z
1/2+x,1/2-y,-z
1/2-x,1/2+y,-z
loop_
_atom_site_type_symbol
_atom_site_label
_atom_site_fract_x
_atom_site_fract_y
_atom_site_fract_z
Si Si1 0.750000 0.750000 0.476472
Si Si2 0.750000 0.923102 0.750000
Si Si3 0.297636 0.438753 0.094667
Si Si4 0.504564 0.646066 0.238102
Si Si5 0.000000 0.822518 0.500000
O O1 0.741627 0.838163 0.399469
O O2 0.884780 0.762770 0.532469
O O3 0.634056 0.867805 0.746133
O O4 0.725931 0.950515 0.573655
O O5 0.250000 0.469374 0.250000
O O6 0.434694 0.415892 0.133616
O O7 0.535098 0.750000 0.250000
O O8 0.534203 0.614282 0.383109
#
# Coordination Sequence:
#
# PCOD9329273 Si02
#       5
#     8   8  16  16   8
#     4  12  28  53  87 130 174 240 291 379 442 534
#     4  12  29  45  80 126 174 230 302 364 436 524
#     4  12  29  54  86 126 177 233 301 367 451 533
#     4  12  28  51  83 127 177 237 295 370 449 530
#     4  12  28  48  86 122 176 230 296 350 458 518
#
# _framework density 30.988789000000001
#
# number of rings (size 3 to 8) (size 9 to 14) (size 15 to 20)
#    0.000    0.000    2.857    4.714    8.000    5.714 
#    0.000    9.286    0.000    0.000    0.000    0.000 
#    0.000    0.000    0.000    0.000    0.000    0.000 
#
# Total GULP energy -77948.852847 kJ/mol
# GULP energy per Si atom -5567.775203 kJ/mol
# Density = 3.091826 g / cm^3
# Si number density = 30.988789 Si / 1000 Ang^3
#
#
#
# Elastic Constant Matrix: (Units=GPa)
#
#
# Indices 1 2 3 4 5 6 
#
# 1 250.7370 52.6191 34.6425 0.0000 0.0000 0.0000
# 2 52.6191 270.7197 115.8295 0.0000 0.0000 0.0000
# 3 34.6425 115.8295 229.9062 0.0000 0.0000 0.0000
# 4 0.0000 0.0000 0.0000 82.9749 0.0000 0.0000
# 5 0.0000 0.0000 0.0000 0.0000 52.8443 0.0000
# 6 0.0000 0.0000 0.0000 0.0000 0.0000 39.2533
#
#
#
# Elastic Compliance Matrix: (Units=1/GPa)
#
#
# Indices 1 2 3 4 5 6 
#
# 1 0.004172 -0.000691 -0.000281 0.000000 0.000000 0.000000
# 2 -0.000691 0.004823 -0.002326 0.000000 0.000000 0.000000
# 3 -0.000281 -0.002326 0.005564 0.000000 0.000000 0.000000
# 4 0.000000 0.000000 0.000000 0.012052 0.000000 0.000000
# 5 0.000000 0.000000 0.000000 0.000000 0.018924 0.000000
# 6 0.000000 0.000000 0.000000 0.000000 0.000000 0.025476
#
#
# Mechanical properties :
#
#
# Convention : Reuss Voigt Hill
#
# Bulk Modulus (GPa) = 125.56086 128.61614 127.08850
# Shear Modulus (GPa) = 62.29796 71.56596 66.93196
#
# Velocity S-wave (km/s) = 4.48854 4.81085 4.65249
# Velocity P-wave (km/s) = 8.21394 8.51195 8.36427
#
# Compressibility (1/GPa) = 0.00796427
#
# Stress axis : x y z
#
# Youngs Moduli (GPa) = 239.69385 207.32658 179.73604
#
# Poissons Ratio (x) = 0.14323 0.05043
# Poissons Ratio (y) = 0.16559 0.41806
# Poissons Ratio (z) = 0.06725 0.48223
#
# Static dielectric constant tensor:
#      x y z
#    x 2.978640 0.000000 0.000000 
#    y 0.000000 2.165040 0.000000 
#    z 0.000000 0.000000 5.453500 
# 
# From -- ./inp_files/19289.got.cif
#   From: 2010.05.17/outbox.cif.g08.bks.cpg/sg22_10_cif.got.tgz:19289.got - 2010.06.03 23:40:54.
