data_PCOD9329677
_publ_section_title
;
Structure prediction by ZEFSAII (Michael W. Deem and Ramdas Pophale) SiO2 
 PCOD9329677
Probable space group: I 2 2 2
;
_chemical_formula_sum "Si O2"
_cell_formula_units_Z 58
_cell_length_a 17.747049
_cell_length_b 7.457582
_cell_length_c 18.698994
_cell_angle_alpha 90.000000
_cell_angle_beta 90.000000
_cell_angle_gamma 90.000000
_cell_volume 2474.813224
_symmetry_space_group_name_H-M "I 2 2 2"
_symmetry_group_IT_number 23
_symmetry_cell_setting 'orthorhombic'
loop_
_space_group_symop_operation_xyz
x,y,z
-x,-y,z
x,-y,-z
-x,y,-z
1/2+x,1/2+y,1/2+z
1/2-x,1/2-y,1/2+z
1/2+x,1/2-y,1/2-z
1/2-x,1/2+y,1/2-z
loop_
_atom_site_type_symbol
_atom_site_label
_atom_site_fract_x
_atom_site_fract_y
_atom_site_fract_z
Si Si1 0.913672 0.048886 0.578220
Si Si2 0.866168 0.443814 0.918286
Si Si3 0.721447 0.530163 0.157764
Si Si4 0.000000 0.000000 0.000000
Si Si5 0.580126 0.898186 0.844034
Si Si6 0.241329 0.394590 0.320050
Si Si7 0.030014 0.296004 0.196146
Si Si8 0.897819 0.844297 0.875311
O O1 0.863628 0.940261 0.634385
O O2 0.911442 0.261087 0.591110
O O3 0.884869 0.000000 0.500000
O O4 0.000000 0.000000 0.584612
O O5 0.780276 0.394946 0.900641
O O6 0.920372 0.303205 0.877078
O O7 0.877855 0.634559 0.880013
O O8 0.881185 0.500000 0.000000
O O9 0.743584 0.596920 0.235657
O O10 0.728067 0.313125 0.159496
O O11 0.057324 0.896332 0.053001
O O12 0.662018 0.994278 0.836738
O O13 0.574489 0.780664 0.770104
O O14 0.500000 0.000000 0.850899
O O15 0.320160 0.446625 0.358524
O O16 0.000000 0.500000 0.200780
O O17 0.960334 0.161878 0.187116
#
# Coordination Sequence:
#
# PCOD9329677 Si02
#       8
#     8   8   8   2   8   8   8   8
#     4  10  23  41  61  89 129 167 214 274 347 406
#     4  10  18  35  62  89 121 163 214 257 310 377
#     4  10  21  38  62  91 125 169 210 272 324 389
#     4  12  24  40  54  84 134 180 202 242 336 416
#     4  10  21  40  72  97 122 167 228 281 326 401
#     4  10  22  40  62  96 129 161 218 274 327 384
#     4   9  18  34  60  92 116 156 208 262 311 374
#     4  10  23  37  58  86 132 164 205 261 318 394
#
# _framework density 23.436111
#
# number of rings (size 3 to 8) (size 9 to 14) (size 15 to 20)
#    0.000    2.069    1.379    1.241    3.862    4.138 
#    2.483    1.379   18.207    0.000    0.000    0.000 
#    0.000    0.000    0.000    0.000    0.000    0.000 
#
# Total GULP energy -161743.174330 kJ/mol
# GULP energy per Si atom -5577.350839 kJ/mol
# Density = 2.338277 g / cm^3
# Si number density = 23.436111 Si / 1000 Ang^3
#
#
#
# Elastic Constant Matrix: (Units=GPa)
#
#
# Indices 1 2 3 4 5 6 
#
# 1 172.9057 28.6800 50.8146 0.0000 0.0000 0.0000
# 2 28.6800 26.6057 13.7828 0.0000 0.0000 0.0000
# 3 50.8146 13.7828 85.6470 0.0000 0.0000 0.0000
# 4 0.0000 0.0000 0.0000 25.9742 0.0000 0.0000
# 5 0.0000 0.0000 0.0000 0.0000 28.5950 0.0000
# 6 0.0000 0.0000 0.0000 0.0000 0.0000 18.8311
#
#
#
# Elastic Compliance Matrix: (Units=1/GPa)
#
#
# Indices 1 2 3 4 5 6 
#
# 1 0.007967 -0.006698 -0.003649 0.000000 0.000000 0.000000
# 2 -0.006698 0.046635 -0.003531 0.000000 0.000000 0.000000
# 3 -0.003649 -0.003531 0.014409 0.000000 0.000000 0.000000
# 4 0.000000 0.000000 0.000000 0.038500 0.000000 0.000000
# 5 0.000000 0.000000 0.000000 0.000000 0.034971 0.000000
# 6 0.000000 0.000000 0.000000 0.000000 0.000000 0.053104
#
#
# Mechanical properties :
#
#
# Convention : Reuss Voigt Hill
#
# Bulk Modulus (GPa) = 24.23913 52.41258 38.32585
# Shear Modulus (GPa) = 21.08881 27.47210 24.28045
#
# Velocity S-wave (km/s) = 3.00299 3.42747 3.22223
# Velocity P-wave (km/s) = 4.73171 6.17058 5.49841
#
# Compressibility (1/GPa) = 0.04125561
#
# Stress axis : x y z
#
# Youngs Moduli (GPa) = 125.52071 21.44312 69.40117
#
# Poissons Ratio (x) = 0.14362 0.25324
# Poissons Ratio (y) = 0.84070 0.24506
# Poissons Ratio (z) = 0.45801 0.07572
#
# Static dielectric constant tensor:
#      x y z
#    x 2.018380 0.000000 0.000000 
#    y 0.000000 1.959000 0.000000 
#    z 0.000000 0.000000 1.889220 
# 
# From -- ./inp_files/25075.got.cif
#   From: 2010.05.17/outbox.cif.g08.bks.cpg/sg23_13_cif.got.tgz:25075.got - 2010.06.04 12:02:01.
