data_PCOD9329870
_publ_section_title
;
Structure prediction by ZEFSAII (Michael W. Deem and Ramdas Pophale) SiO2 
 PCOD9329870
Probable space group: I 2 2 2
;
_chemical_formula_sum "Si O2"
_cell_formula_units_Z 64
_cell_length_a 34.550674
_cell_length_b 9.412521
_cell_length_c 9.129991
_cell_angle_alpha 90.000000
_cell_angle_beta 90.000000
_cell_angle_gamma 90.000000
_cell_volume 2969.154737
_symmetry_space_group_name_H-M "I 2 2 2"
_symmetry_group_IT_number 23
_symmetry_cell_setting 'orthorhombic'
loop_
_space_group_symop_operation_xyz
x,y,z
-x,-y,z
x,-y,-z
-x,y,-z
1/2+x,1/2+y,1/2+z
1/2-x,1/2-y,1/2+z
1/2+x,1/2-y,1/2-z
1/2-x,1/2+y,1/2-z
loop_
_atom_site_type_symbol
_atom_site_label
_atom_site_fract_x
_atom_site_fract_y
_atom_site_fract_z
Si Si1 0.921332 0.226074 0.510334
Si Si2 0.623558 0.080156 0.786885
Si Si3 0.774734 0.313170 0.651591
Si Si4 0.788778 0.639921 0.690060
Si Si5 0.094009 0.717182 0.007710
Si Si6 0.141956 0.251424 0.274600
Si Si7 0.030155 0.225629 0.210779
Si Si8 0.948804 0.102901 0.223039
O O1 0.905230 0.350503 0.404170
O O2 0.885757 0.171003 0.611054
O O3 0.953965 0.268637 0.629081
O O4 0.938101 0.117375 0.392409
O O5 0.665143 0.157289 0.793475
O O6 0.606560 0.098139 0.624085
O O7 0.633098 0.916419 0.816424
O O8 0.778590 0.473602 0.713150
O O9 0.777790 0.324205 0.476869
O O10 0.736078 0.237295 0.703495
O O11 0.812753 0.228471 0.706821
O O12 0.084844 0.847469 0.116330
O O13 0.126585 0.759032 0.890191
O O14 0.055509 0.692061 0.909322
O O15 0.984102 0.215024 0.198653
O O16 0.040685 0.058650 0.190710
#
# Coordination Sequence:
#
# PCOD9329870 Si02
#       8
#     8   8   8   8   8   8   8   8
#     4  10  19  33  59  85 107 142 195 240 276 338
#     4  10  20  38  61  82 110 153 195 235 287 351
#     4  10  22  41  65  91 122 159 202 244 297 359
#     4  10  22  41  65  91 122 159 202 244 297 359
#     4  10  21  33  57  85 109 146 195 236 274 338
#     4  10  20  38  61  82 110 153 195 235 287 351
#     4  10  20  36  57  81 113 152 190 233 293 357
#     4  10  20  36  57  81 113 152 190 233 293 357
#
# _framework density 21.554955
#
# number of rings (size 3 to 8) (size 9 to 14) (size 15 to 20)
#    0.000    2.000    1.250    2.250    1.750    2.500 
#    0.000    7.500    0.000   52.500    0.000    0.000 
#    0.000    0.000    0.000    0.000    0.000    0.000 
#
# Total GULP energy -178736.496722 kJ/mol
# GULP energy per Si atom -5585.515523 kJ/mol
# Density = 2.150590 g / cm^3
# Si number density = 21.554955 Si / 1000 Ang^3
#
#
#
# Elastic Constant Matrix: (Units=GPa)
#
#
# Indices 1 2 3 4 5 6 
#
# 1 77.0262 21.0913 14.3898 0.0000 0.0000 0.0000
# 2 21.0913 19.3010 5.1408 0.0000 0.0000 0.0000
# 3 14.3898 5.1408 99.6393 0.0000 0.0000 0.0000
# 4 0.0000 0.0000 0.0000 31.0954 0.0000 0.0000
# 5 0.0000 0.0000 0.0000 0.0000 30.8128 0.0000
# 6 0.0000 0.0000 0.0000 0.0000 0.0000 27.7243
#
#
#
# Elastic Compliance Matrix: (Units=1/GPa)
#
#
# Indices 1 2 3 4 5 6 
#
# 1 0.018799 -0.020095 -0.001678 0.000000 0.000000 0.000000
# 2 -0.020095 0.074014 -0.000917 0.000000 0.000000 0.000000
# 3 -0.001678 -0.000917 0.010326 0.000000 0.000000 0.000000
# 4 0.000000 0.000000 0.000000 0.032159 0.000000 0.000000
# 5 0.000000 0.000000 0.000000 0.000000 0.032454 0.000000
# 6 0.000000 0.000000 0.000000 0.000000 0.000000 0.036069
#
#
# Mechanical properties :
#
#
# Convention : Reuss Voigt Hill
#
# Bulk Modulus (GPa) = 17.31342 30.80114 24.05728
# Shear Modulus (GPa) = 18.62518 28.28281 23.45400
#
# Velocity S-wave (km/s) = 2.94271 3.62626 3.30222
# Velocity P-wave (km/s) = 4.42671 5.64390 5.07195
#
# Compressibility (1/GPa) = 0.05775868
#
# Stress axis : x y z
#
# Youngs Moduli (GPa) = 53.19555 13.51095 96.84445
#
# Poissons Ratio (x) = 0.27151 0.16251
# Poissons Ratio (y) = 1.06898 0.08876
# Poissons Ratio (z) = 0.08927 0.01238
#
# Static dielectric constant tensor:
#      x y z
#    x 1.799560 0.000000 0.000000 
#    y 0.000000 1.819850 0.000000 
#    z 0.000000 0.000000 1.781180 
# 
# From -- ./inp_files/13491.got.cif
#   From: 2010.05.17/outbox.cif.g08.bks.cpg/sg23_7_cif.got.tgz:13491.got - 2010.06.04 12:02:01.
