data_PCOD9329724
_publ_section_title
;
Structure prediction by ZEFSAII (Michael W. Deem and Ramdas Pophale) SiO2 
 PCOD9329724
Probable space group: I 2 2 2
;
_chemical_formula_sum "Si O2"
_cell_formula_units_Z 52
_cell_length_a 16.978190
_cell_length_b 13.413666
_cell_length_c 11.987167
_cell_angle_alpha 90.000000
_cell_angle_beta 90.000000
_cell_angle_gamma 90.000000
_cell_volume 2729.954655
_symmetry_space_group_name_H-M "I 2 2 2"
_symmetry_group_IT_number 23
_symmetry_cell_setting 'orthorhombic'
loop_
_space_group_symop_operation_xyz
x,y,z
-x,-y,z
x,-y,-z
-x,y,-z
1/2+x,1/2+y,1/2+z
1/2-x,1/2-y,1/2+z
1/2+x,1/2-y,1/2-z
1/2-x,1/2+y,1/2-z
loop_
_atom_site_type_symbol
_atom_site_label
_atom_site_fract_x
_atom_site_fract_y
_atom_site_fract_z
Si Si1 0.048616 0.167796 0.102051
Si Si2 0.000000 0.732032 0.500000
Si Si3 0.370144 0.732224 0.180481
Si Si4 0.219440 0.440001 0.305838
Si Si5 0.837553 0.000000 0.000000
Si Si6 0.669215 0.518547 0.869754
Si Si7 0.500000 0.500000 0.242378
Si Si8 0.577661 0.946591 0.119844
O O1 0.091571 0.233142 0.195786
O O2 0.994358 0.095765 0.177507
O O3 0.000000 0.214975 0.000000
O O4 0.109921 0.089852 0.047609
O O5 0.062559 0.781355 0.584254
O O6 0.052494 0.663528 0.416278
O O7 0.324600 0.836142 0.169467
O O8 0.316651 0.633830 0.166555
O O9 0.282084 0.460729 0.402339
O O10 0.269373 0.447466 0.193202
O O11 0.153696 0.527498 0.309445
O O12 0.579669 0.501327 0.828161
O O13 0.674124 0.500000 0.000000
O O14 0.500000 0.000000 0.168808
O O15 0.591718 0.000000 0.000000
#
# Coordination Sequence:
#
# PCOD9329724 Si02
#       8
#     8   4   8   8   4   8   4   8
#     4  11  20  38  63  95 121 160 215 261 318 370
#     4  10  19  40  63 102 124 158 229 264 309 386
#     4  11  24  38  65  97 126 170 215 257 321 385
#     4  12  21  41  66  90 133 162 218 266 313 384
#     4  12  19  38  67  90 120 172 210 266 311 355
#     4  11  26  42  59  91 134 175 197 263 333 386
#     4  10  18  40  64  86 116 168 216 246 310 382
#     4   9  16  34  64  90 117 158 206 275 308 342
#
# _framework density 19.047934999999999
#
# number of rings (size 3 to 8) (size 9 to 14) (size 15 to 20)
#    0.000    1.385    8.462    0.231    4.308    1.231 
#    2.769    1.538    0.000    0.000    0.000    0.000 
#    0.000    0.000    0.000    0.000    0.000    0.000 
#
# Total GULP energy -144982.551612 kJ/mol
# GULP energy per Si atom -5576.251985 kJ/mol
# Density = 1.900458 g / cm^3
# Si number density = 19.047935 Si / 1000 Ang^3
#
#
#
# Elastic Constant Matrix: (Units=GPa)
#
#
# Indices 1 2 3 4 5 6 
#
# 1 93.2095 20.5429 48.2328 0.0000 0.0000 0.0000
# 2 20.5429 37.7899 6.1811 0.0000 0.0000 0.0000
# 3 48.2328 6.1811 120.2871 0.0000 0.0000 0.0000
# 4 0.0000 0.0000 0.0000 6.5043 0.0000 0.0000
# 5 0.0000 0.0000 0.0000 0.0000 14.8234 0.0000
# 6 0.0000 0.0000 0.0000 0.0000 0.0000 10.1456
#
#
#
# Elastic Compliance Matrix: (Units=1/GPa)
#
#
# Indices 1 2 3 4 5 6 
#
# 1 0.015347 -0.007398 -0.005774 0.000000 0.000000 0.000000
# 2 -0.007398 0.030253 0.001412 0.000000 0.000000 0.000000
# 3 -0.005774 0.001412 0.010556 0.000000 0.000000 0.000000
# 4 0.000000 0.000000 0.000000 0.153746 0.000000 0.000000
# 5 0.000000 0.000000 0.000000 0.000000 0.067461 0.000000
# 6 0.000000 0.000000 0.000000 0.000000 0.000000 0.098565
#
#
# Mechanical properties :
#
#
# Convention : Reuss Voigt Hill
#
# Bulk Modulus (GPa) = 30.64110 44.57778 37.60944
# Shear Modulus (GPa) = 12.18546 18.04996 15.11771
#
# Velocity S-wave (km/s) = 2.53202 3.08166 2.82027
# Velocity P-wave (km/s) = 4.96683 6.00965 5.51296
#
# Compressibility (1/GPa) = 0.03263590
#
# Stress axis : x y z
#
# Youngs Moduli (GPa) = 65.16067 33.05471 94.73305
#
# Poissons Ratio (x) = 0.24455 0.54695
# Poissons Ratio (y) = 0.48207 -0.13376
# Poissons Ratio (z) = 0.37621 -0.04667
#
# Static dielectric constant tensor:
#      x y z
#    x 1.686700 0.000000 0.000000 
#    y 0.000000 1.692580 0.000000 
#    z 0.000000 0.000000 1.666930 
# 
# From -- ./inp_files/17517.got.cif
#   From: 2010.05.17/outbox.cif.g08.bks.cpg/sg23_9_cif.got.tgz:17517.got - 2010.06.04 12:02:01.
