data_PCOD9329465
_publ_section_title
;
Structure prediction by ZEFSAII (Michael W. Deem and Ramdas Pophale) SiO2 
 PCOD9329465
Probable space group: I 2 2 2
;
_chemical_formula_sum "Si O2"
_cell_formula_units_Z 52
_cell_length_a 14.393214
_cell_length_b 11.508431
_cell_length_c 15.529865
_cell_angle_alpha 90.000000
_cell_angle_beta 90.000000
_cell_angle_gamma 90.000000
_cell_volume 2572.418245
_symmetry_space_group_name_H-M "I 2 2 2"
_symmetry_group_IT_number 23
_symmetry_cell_setting 'orthorhombic'
loop_
_space_group_symop_operation_xyz
x,y,z
-x,-y,z
x,-y,-z
-x,y,-z
1/2+x,1/2+y,1/2+z
1/2-x,1/2-y,1/2+z
1/2+x,1/2-y,1/2-z
1/2-x,1/2+y,1/2-z
loop_
_atom_site_type_symbol
_atom_site_label
_atom_site_fract_x
_atom_site_fract_y
_atom_site_fract_z
Si Si1 0.177756 0.641379 0.205639
Si Si2 0.623020 0.679207 0.032434
Si Si3 0.378920 0.300720 0.826489
Si Si4 0.961219 0.624922 0.638811
Si Si5 0.999434 0.641226 0.899125
Si Si6 0.500000 0.500000 0.855413
Si Si7 0.312416 0.922991 0.411231
O O1 0.274239 0.711896 0.208626
O O2 0.123987 0.618782 0.293983
O O3 0.206183 0.520629 0.159893
O O4 0.092171 0.689715 0.146285
O O5 0.579532 0.800473 0.060991
O O6 0.560862 0.583316 0.082401
O O7 0.724916 0.653885 0.066602
O O8 0.629190 0.675887 0.929866
O O9 0.452266 0.195693 0.818898
O O10 0.433736 0.417472 0.798545
O O11 0.000000 0.500000 0.615872
O O12 0.106488 0.661729 0.876572
O O13 0.000000 0.500000 0.885071
O O14 0.000000 0.666878 0.000000
O O15 0.334002 0.000000 0.500000
#
# Coordination Sequence:
#
# PCOD9329465 Si02
#       7
#     8   8   8   8   8   4   8
#     4  11  21  35  57  87 125 155 191 250 311 364
#     4  11  20  35  64  87 114 156 206 257 298 350
#     4  11  21  38  62  87 117 154 207 251 302 361
#     4  11  26  41  53  83 127 172 200 236 295 365
#     4   9  14  25  47  81 117 149 169 221 300 364
#     4  10  17  32  58  94 112 136 195 268 309 336
#     4  11  16  30  59  94 122 142 189 253 319 357
#
# _framework density 20.214444
#
# number of rings (size 3 to 8) (size 9 to 14) (size 15 to 20)
#    0.000    1.385    6.154    4.154    0.000    3.692 
#    0.000    0.000    0.000    0.000    0.000    0.000 
#    0.000    3.692    0.000    0.000    0.000    0.000 
#
# Total GULP energy -144934.369609 kJ/mol
# GULP energy per Si atom -5574.398831 kJ/mol
# Density = 2.016843 g / cm^3
# Si number density = 20.214444 Si / 1000 Ang^3
#
#
#
# Elastic Constant Matrix: (Units=GPa)
#
#
# Indices 1 2 3 4 5 6 
#
# 1 176.5951 42.2673 16.5363 0.0000 0.0000 0.0000
# 2 42.2673 82.6237 4.9259 0.0000 0.0000 0.0000
# 3 16.5363 4.9259 34.5598 0.0000 0.0000 0.0000
# 4 0.0000 0.0000 0.0000 4.8279 0.0000 0.0000
# 5 0.0000 0.0000 0.0000 0.0000 34.2702 0.0000
# 6 0.0000 0.0000 0.0000 0.0000 0.0000 21.5766
#
#
#
# Elastic Compliance Matrix: (Units=1/GPa)
#
#
# Indices 1 2 3 4 5 6 
#
# 1 0.006701 -0.003264 -0.002741 0.000000 0.000000 0.000000
# 2 -0.003264 0.013797 -0.000405 0.000000 0.000000 0.000000
# 3 -0.002741 -0.000405 0.030304 0.000000 0.000000 0.000000
# 4 0.000000 0.000000 0.000000 0.207129 0.000000 0.000000
# 5 0.000000 0.000000 0.000000 0.000000 0.029180 0.000000
# 6 0.000000 0.000000 0.000000 0.000000 0.000000 0.046347
#
#
# Mechanical properties :
#
#
# Convention : Reuss Voigt Hill
#
# Bulk Modulus (GPa) = 26.32788 46.80420 36.56604
# Shear Modulus (GPa) = 13.92998 27.47154 20.70076
#
# Velocity S-wave (km/s) = 2.62794 3.69047 3.20356
# Velocity P-wave (km/s) = 4.71812 6.43145 5.64022
#
# Compressibility (1/GPa) = 0.03798255
#
# Stress axis : x y z
#
# Youngs Moduli (GPa) = 149.23937 72.47885 32.99841
#
# Poissons Ratio (x) = 0.23660 0.09044
# Poissons Ratio (y) = 0.48718 0.01335
# Poissons Ratio (z) = 0.40905 0.02932
#
# Static dielectric constant tensor:
#      x y z
#    x 1.834670 0.000000 0.000000 
#    y 0.000000 1.729730 0.000000 
#    z 0.000000 0.000000 1.773790 
# 
# From -- ./inp_files/24809.got.cif
#   From: 2010.05.17/outbox.cif.g08.bks.cpg/sg23_13_cif.got.tgz:24809.got - 2010.06.04 12:02:01.
