data_PCOD9329399
_publ_section_title
;
Structure prediction by ZEFSAII (Michael W. Deem and Ramdas Pophale) SiO2 
 PCOD9329399
Probable space group: I 2 2 2
;
_chemical_formula_sum "Si O2"
_cell_formula_units_Z 64
_cell_length_a 5.280705
_cell_length_b 25.317560
_cell_length_c 26.249708
_cell_angle_alpha 90.000000
_cell_angle_beta 90.000000
_cell_angle_gamma 90.000000
_cell_volume 3509.443310
_symmetry_space_group_name_H-M "I 2 2 2"
_symmetry_group_IT_number 23
_symmetry_cell_setting 'orthorhombic'
loop_
_space_group_symop_operation_xyz
x,y,z
-x,-y,z
x,-y,-z
-x,y,-z
1/2+x,1/2+y,1/2+z
1/2-x,1/2-y,1/2+z
1/2+x,1/2-y,1/2-z
1/2-x,1/2+y,1/2-z
loop_
_atom_site_type_symbol
_atom_site_label
_atom_site_fract_x
_atom_site_fract_y
_atom_site_fract_z
Si Si1 0.904765 0.698765 0.945317
Si Si2 0.232030 0.382134 0.733563
Si Si3 0.915455 0.072460 0.380507
Si Si4 0.570298 0.763903 0.220064
Si Si5 0.590480 0.072533 0.555763
Si Si6 0.751251 0.514103 0.673461
Si Si7 0.084388 0.199553 0.616247
Si Si8 0.267167 0.569567 0.769474
O O1 0.869452 0.635490 0.950739
O O2 0.635722 0.717002 0.923177
O O3 0.135207 0.707427 0.906293
O O4 0.000000 0.719101 0.000000
O O5 0.154541 0.324751 0.715429
O O6 0.232758 0.425662 0.689405
O O7 0.516806 0.387888 0.754396
O O8 0.010775 0.403698 0.771598
O O9 0.654445 0.063845 0.409919
O O10 0.946504 0.136410 0.374398
O O11 0.862975 0.050157 0.324135
O O12 0.156158 0.053885 0.414384
O O13 0.296895 0.761177 0.246632
O O14 0.554397 0.732186 0.167665
O O15 0.500000 0.054066 0.500000
O O16 0.500000 0.500000 0.644862
O O17 0.744475 0.476115 0.725333
O O18 0.000000 0.500000 0.644008
#
# Coordination Sequence:
#
# PCOD9329399 Si02
#       8
#     8   8   8   8   8   8   8   8
#     4   9  17  30  46  61  81 113 156 205 244 272
#     4  10  19  32  46  62  90 119 149 188 224 265
#     4  10  17  26  41  59  83 110 141 188 226 262
#     4  12  23  33  45  65  97 137 167 189 227 283
#     4   9  17  27  39  57  82 111 139 173 229 286
#     4   8  16  29  46  64  83 106 142 187 226 261
#     4  10  19  29  42  63  88 119 161 195 229 283
#     4  10  18  30  47  67  86 112 151 193 236 269
#
# _framework density 18.236511
#
# number of rings (size 3 to 8) (size 9 to 14) (size 15 to 20)
#    0.000    2.250    0.000    4.500    0.000    5.000 
#    0.000    0.000    0.000    0.000    0.000    0.000 
#    0.000   67.500    0.000    3.750    0.000   84.375 
#
# Total GULP energy -178408.160689 kJ/mol
# GULP energy per Si atom -5575.255022 kJ/mol
# Density = 1.819500 g / cm^3
# Si number density = 18.236511 Si / 1000 Ang^3
#
#
#
# Elastic Constant Matrix: (Units=GPa)
#
#
# Indices 1 2 3 4 5 6 
#
# 1 81.2980 22.0159 -0.0333 0.0000 0.0000 0.0000
# 2 22.0159 65.5453 11.8647 0.0000 0.0000 0.0000
# 3 -0.0333 11.8647 36.7936 0.0000 0.0000 0.0000
# 4 0.0000 0.0000 0.0000 -14.2259 0.0000 0.0000
# 5 0.0000 0.0000 0.0000 0.0000 8.6612 0.0000
# 6 0.0000 0.0000 0.0000 0.0000 0.0000 12.2193
#
#
#
# Elastic Compliance Matrix: (Units=1/GPa)
#
#
# Indices 1 2 3 4 5 6 
#
# 1 0.013617 -0.004860 0.001579 0.000000 0.000000 0.000000
# 2 -0.004860 0.017937 -0.005788 0.000000 0.000000 0.000000
# 3 0.001579 -0.005788 0.029047 0.000000 0.000000 0.000000
# 4 0.000000 0.000000 0.000000 -0.070294 0.000000 0.000000
# 5 0.000000 0.000000 0.000000 0.000000 0.115457 0.000000
# 6 0.000000 0.000000 0.000000 0.000000 0.000000 0.081838
#
#
# Mechanical properties :
#
#
# Convention : Reuss Voigt Hill
#
# Bulk Modulus (GPa) = 23.54988 27.92573 25.73780
# Shear Modulus (GPa) = 22.73833 11.31689 17.02761
#
# Velocity S-wave (km/s) = 3.53492 2.49381 3.05898
# Velocity P-wave (km/s) = 5.44082 4.86194 5.15950
#
# Compressibility (1/GPa) = 0.04246306
#
# Stress axis : x y z
#
# Youngs Moduli (GPa) = 73.43699 55.75148 34.42742
#
# Poissons Ratio (x) = 0.27094 -0.05438
# Poissons Ratio (y) = 0.35688 0.19928
# Poissons Ratio (z) = -0.11599 0.32271
#
# Static dielectric constant tensor:
#      x y z
#    x 1.688690 0.000000 0.000000 
#    y 0.000000 1.637500 0.000000 
#    z 0.000000 0.000000 1.626420 
# 
# From -- ./inp_files/27755.got.cif
#   From: 2010.05.17/outbox.cif.g08.bks.cpg/sg23_14_cif.got.tgz:27755.got - 2010.06.04 12:02:01.
