data_PCOD9329116
_publ_section_title
;
Structure prediction by ZEFSAII (Michael W. Deem and Ramdas Pophale) SiO2 
 PCOD9329116
Probable space group: F 2 2 2
;
_chemical_formula_sum "Si O2"
_cell_formula_units_Z 64
_cell_length_a 32.241092
_cell_length_b 4.975233
_cell_length_c 17.804453
_cell_angle_alpha 90.000000
_cell_angle_beta 90.000000
_cell_angle_gamma 90.000000
_cell_volume 2855.957911
_symmetry_space_group_name_H-M "F 2 2 2"
_symmetry_group_IT_number 22
_symmetry_cell_setting 'orthorhombic'
loop_
_space_group_symop_operation_xyz
x,y,z
-x,-y,z
x,-y,-z
-x,y,-z
x,1/2+y,1/2+z
-x,1/2-y,1/2+z
x,1/2-y,1/2-z
-x,1/2+y,1/2-z
1/2+x,y,1/2+z
1/2-x,-y,1/2+z
1/2+x,-y,1/2-z
1/2-x,y,1/2-z
1/2+x,1/2+y,z
1/2-x,1/2-y,z
1/2+x,1/2-y,-z
1/2-x,1/2+y,-z
loop_
_atom_site_type_symbol
_atom_site_label
_atom_site_fract_x
_atom_site_fract_y
_atom_site_fract_z
Si Si1 0.457742 0.376621 0.877439
Si Si2 0.500000 0.500000 0.500000
Si Si3 0.250000 0.750000 0.250000
Si Si4 0.685391 0.882717 0.168633
Si Si5 0.250000 0.750000 0.946330
Si Si6 0.908067 0.372300 0.833472
O O1 0.500000 0.500000 0.843081
O O2 0.427845 0.635861 0.884939
O O3 0.472975 0.205260 0.949686
O O4 0.434617 0.142813 0.832801
O O5 0.281332 0.605781 0.307549
O O6 0.679871 0.750000 0.250000
O O7 0.709884 0.710995 0.106957
O O8 0.638944 0.948112 0.143413
O O9 0.242233 0.500000 0.000000
O O10 0.908505 0.250000 0.750000
#
# Coordination Sequence:
#
# PCOD9329116 Si02
#       6
#    16   4   4  16   8  16
#     4  12  25  49  73 102 144 195 240 299 365 442
#     4  12  26  52  74 100 142 216 258 270 374 484
#     4  12  20  44  88 104 140 206 262 286 370 462
#     4  11  25  46  77 106 147 203 254 300 373 464
#     4  12  26  46  67 109 154 192 240 304 376 432
#     4  11  27  45  75 112 146 181 251 317 369 427
#
# _framework density 22.409293999999999
#
# number of rings (size 3 to 8) (size 9 to 14) (size 15 to 20)
#    0.000    0.500    5.000    1.875    7.000    2.000 
#    9.000    0.000    0.000    0.000    0.000    0.000 
#    0.000    0.000    0.000    0.000    0.000    0.000 
#
# Total GULP energy -89315.126806 kJ/mol
# GULP energy per Si atom -5582.195425 kJ/mol
# Density = 2.235829 g / cm^3
# Si number density = 22.409294 Si / 1000 Ang^3
#
#
#
# Elastic Constant Matrix: (Units=GPa)
#
#
# Indices 1 2 3 4 5 6 
#
# 1 206.4432 82.6051 42.2938 0.0000 -0.0020 0.0015
# 2 82.6051 146.2494 20.9619 0.0015 -0.0020 0.0090
# 3 42.2938 20.9619 74.0808 0.0003 -0.0011 0.0009
# 4 0.0000 0.0015 0.0003 42.7148 -0.0010 0.0008
# 5 -0.0020 -0.0020 -0.0011 -0.0010 -25.5581 -0.0022
# 6 0.0015 0.0090 0.0009 0.0008 -0.0022 126.8742
#
#
#
# Elastic Compliance Matrix: (Units=1/GPa)
#
#
# Indices 1 2 3 4 5 6 
#
# 1 0.006815 -0.003431 -0.002920 0.000000 0.000000 0.000000
# 2 -0.003431 0.008854 -0.000547 0.000000 0.000000 -0.000001
# 3 -0.002920 -0.000547 0.015320 0.000000 0.000000 0.000000
# 4 0.000000 0.000000 0.000000 0.023411 -0.000001 0.000000
# 5 0.000000 0.000000 0.000000 -0.000001 -0.039126 -0.000001
# 6 0.000000 -0.000001 0.000000 0.000000 -0.000001 0.007882
#
#
# Mechanical properties :
#
#
# Convention : Reuss Voigt Hill
#
# Bulk Modulus (GPa) = 58.15799 79.83279 68.99539
# Shear Modulus (GPa) = 117.14644 47.53369 82.34006
#
# Velocity S-wave (km/s) = 7.23805 4.61060 6.06824
# Velocity P-wave (km/s) = 9.79088 8.00286 8.94167
#
# Compressibility (1/GPa) = 0.01719454
#
# Stress axis : x y z
#
# Youngs Moduli (GPa) = 146.73725 112.94691 65.27205
#
# Poissons Ratio (x) = 0.38749 0.19059
# Poissons Ratio (y) = 0.50341 0.03568
# Poissons Ratio (z) = 0.42847 0.06174
#
# Static dielectric constant tensor:
#      x y z
#    x 1.911060 0.000000 0.000000 
#    y 0.000000 1.870740 0.000000 
#    z 0.000000 0.000000 1.891180 
# 
# From -- ./inp_files/40237.got.cif
#   From: 2010.05.17/outbox.cif.g08.bks.cpg/sg22_21_cif.got.tgz:40237.got - 2010.06.03 23:40:54.
