data_PCOD9329916
_publ_section_title
;
Structure prediction by ZEFSAII (Michael W. Deem and Ramdas Pophale) SiO2 
 PCOD9329916
Probable space group: I 2 2 2
;
_chemical_formula_sum "Si O2"
_cell_formula_units_Z 52
_cell_length_a 20.620987
_cell_length_b 8.313050
_cell_length_c 15.256627
_cell_angle_alpha 90.000000
_cell_angle_beta 90.000000
_cell_angle_gamma 90.000000
_cell_volume 2615.341286
_symmetry_space_group_name_H-M "I 2 2 2"
_symmetry_group_IT_number 23
_symmetry_cell_setting 'orthorhombic'
loop_
_space_group_symop_operation_xyz
x,y,z
-x,-y,z
x,-y,-z
-x,y,-z
1/2+x,1/2+y,1/2+z
1/2-x,1/2-y,1/2+z
1/2+x,1/2-y,1/2-z
1/2-x,1/2+y,1/2-z
loop_
_atom_site_type_symbol
_atom_site_label
_atom_site_fract_x
_atom_site_fract_y
_atom_site_fract_z
Si Si1 0.307938 0.799947 0.083502
Si Si2 0.625913 0.619977 0.671584
Si Si3 0.302780 0.500000 0.500000
Si Si4 0.695770 0.473612 0.842131
Si Si5 0.419960 0.000000 0.000000
Si Si6 0.664824 0.044874 0.267572
Si Si7 0.500000 0.500000 0.756516
Si Si8 0.587721 0.781357 0.159298
O O1 0.245996 0.857967 0.029603
O O2 0.318550 0.611962 0.088839
O O3 0.373227 0.876992 0.048711
O O4 0.302733 0.877707 0.180238
O O5 0.654344 0.560152 0.580466
O O6 0.667336 0.534318 0.748885
O O7 0.628611 0.810442 0.684964
O O8 0.553770 0.571736 0.693566
O O9 0.773092 0.485491 0.829046
O O10 0.655518 0.312594 0.865393
O O11 0.445065 0.113421 0.080479
O O12 0.616368 0.903503 0.234489
O O13 0.536656 0.357012 0.810901
#
# Coordination Sequence:
#
# PCOD9329916 Si02
#       8
#     8   8   4   8   4   8   4   8
#     4   9  19  32  57  92 135 153 196 248 342 386
#     4  10  22  38  62  89 125 166 222 252 322 368
#     4  11  20  37  60  98 130 165 201 272 322 380
#     4  10  19  34  61  94 124 168 200 257 314 421
#     4   9  20  36  58  93 128 169 189 284 328 392
#     4  10  19  35  62  94 121 166 204 261 316 407
#     4  10  24  43  66  87 116 188 228 274 288 398
#     4  10  21  39  65  90 129 165 230 259 331 376
#
# _framework density 19.882684000000001
#
# number of rings (size 3 to 8) (size 9 to 14) (size 15 to 20)
#    0.000    2.154    1.538    1.846    6.462    1.538 
#    0.000    0.000    0.000   54.462    4.000    0.000 
#    0.000    0.000    0.000    0.000    0.000    0.000 
#
# Total GULP energy -144816.981083 kJ/mol
# GULP energy per Si atom -5569.883888 kJ/mol
# Density = 1.983743 g / cm^3
# Si number density = 19.882684 Si / 1000 Ang^3
#
#
#
# Elastic Constant Matrix: (Units=GPa)
#
#
# Indices 1 2 3 4 5 6 
#
# 1 102.8364 51.5357 32.8766 0.0000 0.0000 0.0000
# 2 51.5357 128.4999 47.4581 0.0000 0.0000 0.0000
# 3 32.8766 47.4581 75.4132 0.0000 0.0000 0.0000
# 4 0.0000 0.0000 0.0000 23.4383 0.0000 0.0000
# 5 0.0000 0.0000 0.0000 0.0000 -13.0297 0.0000
# 6 0.0000 0.0000 0.0000 0.0000 0.0000 44.6677
#
#
#
# Elastic Compliance Matrix: (Units=1/GPa)
#
#
# Indices 1 2 3 4 5 6 
#
# 1 0.012681 -0.003966 -0.003033 0.000000 0.000000 0.000000
# 2 -0.003966 0.011379 -0.005432 0.000000 0.000000 0.000000
# 3 -0.003033 -0.005432 0.018001 0.000000 0.000000 0.000000
# 4 0.000000 0.000000 0.000000 0.042665 0.000000 0.000000
# 5 0.000000 0.000000 0.000000 0.000000 -0.076748 0.000000
# 6 0.000000 0.000000 0.000000 0.000000 0.000000 0.022388
#
#
# Mechanical properties :
#
#
# Convention : Reuss Voigt Hill
#
# Bulk Modulus (GPa) = 58.13970 63.38781 60.76376
# Shear Modulus (GPa) = 82.02193 22.67387 52.34790
#
# Velocity S-wave (km/s) = 6.42981 3.38062 5.13669
# Velocity P-wave (km/s) = 9.18848 6.86937 8.11223
#
# Compressibility (1/GPa) = 0.01719995
#
# Stress axis : x y z
#
# Youngs Moduli (GPa) = 78.85709 87.88325 55.55354
#
# Poissons Ratio (x) = 0.34853 0.16847
# Poissons Ratio (y) = 0.31273 0.30176
# Poissons Ratio (z) = 0.23915 0.47737
#
# Static dielectric constant tensor:
#      x y z
#    x 1.832660 0.000000 0.000000 
#    y 0.000000 1.740080 0.000000 
#    z 0.000000 0.000000 1.728400 
# 
# From -- ./inp_files/22374.got.cif
#   From: 2010.05.17/outbox.cif.g08.bks.cpg/sg23_12_cif.got.tgz:22374.got - 2010.06.04 12:02:01.
