data_PCOD9329881
_publ_section_title
;
Structure prediction by ZEFSAII (Michael W. Deem and Ramdas Pophale) SiO2 
 PCOD9329881
Probable space group: I 2 2 2
;
_chemical_formula_sum "Si O2"
_cell_formula_units_Z 64
_cell_length_a 18.717116
_cell_length_b 8.040227
_cell_length_c 22.419696
_cell_angle_alpha 90.000000
_cell_angle_beta 90.000000
_cell_angle_gamma 90.000000
_cell_volume 3373.936944
_symmetry_space_group_name_H-M "I 2 2 2"
_symmetry_group_IT_number 23
_symmetry_cell_setting 'orthorhombic'
loop_
_space_group_symop_operation_xyz
x,y,z
-x,-y,z
x,-y,-z
-x,y,-z
1/2+x,1/2+y,1/2+z
1/2-x,1/2-y,1/2+z
1/2+x,1/2-y,1/2-z
1/2-x,1/2+y,1/2-z
loop_
_atom_site_type_symbol
_atom_site_label
_atom_site_fract_x
_atom_site_fract_y
_atom_site_fract_z
Si Si1 0.164003 0.433878 0.723180
Si Si2 0.387084 0.387015 0.549871
Si Si3 0.259378 0.966090 0.652776
Si Si4 0.374048 0.675065 0.216540
Si Si5 0.980739 0.699926 0.746475
Si Si6 0.158916 0.342181 0.957590
Si Si7 0.696993 0.647648 0.658501
Si Si8 0.984986 0.695505 0.884433
O O1 0.197282 0.401653 0.788963
O O2 0.145816 0.628342 0.717137
O O3 0.097557 0.309117 0.718035
O O4 0.224409 0.408021 0.674825
O O5 0.422409 0.500000 0.500000
O O6 0.329252 0.294568 0.507904
O O7 0.340669 0.448638 0.605152
O O8 0.449069 0.279499 0.581216
O O9 0.176878 0.928214 0.671397
O O10 0.281171 0.878039 0.591359
O O11 0.290686 0.154630 0.646243
O O12 0.459931 0.689053 0.213323
O O13 0.351264 0.620475 0.283009
O O14 0.978770 0.754249 0.815949
O O15 0.000000 0.500000 0.747005
O O16 0.087957 0.292452 0.921053
O O17 0.143164 0.500000 0.000000
O O18 0.000000 0.500000 0.880921
#
# Coordination Sequence:
#
# PCOD9329881 Si02
#       8
#     8   8   8   8   8   8   8   8
#     4   9  18  32  55  79 108 141 180 230 297 331
#     4  12  26  37  53  80 116 153 191 238 282 327
#     4  10  19  34  53  80 104 148 194 230 265 343
#     4   9  18  32  57  80 106 137 188 234 280 336
#     4   9  16  31  56  84 106 141 184 228 280 346
#     4  12  22  35  57  78 105 156 204 222 263 343
#     4  10  19  36  52  75 112 151 180 231 287 335
#     4  11  19  35  55  75 110 157 194 218 260 338
#
# _framework density 18.968938999999999
#
# number of rings (size 3 to 8) (size 9 to 14) (size 15 to 20)
#    0.000    1.750    5.000    0.375    1.750    1.000 
#    0.000    0.625    2.750    0.000    0.000    0.875 
#    0.000    0.000    0.000    0.000    0.000    0.000 
#
# Total GULP energy -178327.515798 kJ/mol
# GULP energy per Si atom -5572.734869 kJ/mol
# Density = 1.892576 g / cm^3
# Si number density = 18.968939 Si / 1000 Ang^3
#
#
#
# Elastic Constant Matrix: (Units=GPa)
#
#
# Indices 1 2 3 4 5 6 
#
# 1 100.7630 19.3018 42.5681 0.0000 0.0000 0.0000
# 2 19.3018 22.0110 16.3535 0.0000 0.0000 0.0000
# 3 42.5681 16.3535 85.9316 0.0000 0.0000 0.0000
# 4 0.0000 0.0000 0.0000 20.5035 0.0000 0.0000
# 5 0.0000 0.0000 0.0000 0.0000 13.1641 0.0000
# 6 0.0000 0.0000 0.0000 0.0000 0.0000 22.3137
#
#
#
# Elastic Compliance Matrix: (Units=1/GPa)
#
#
# Indices 1 2 3 4 5 6 
#
# 1 0.013692 -0.008115 -0.005238 0.000000 0.000000 0.000000
# 2 -0.008115 0.057723 -0.006965 0.000000 0.000000 0.000000
# 3 -0.005238 -0.006965 0.015558 0.000000 0.000000 0.000000
# 4 0.000000 0.000000 0.000000 0.048772 0.000000 0.000000
# 5 0.000000 0.000000 0.000000 0.000000 0.075964 0.000000
# 6 0.000000 0.000000 0.000000 0.000000 0.000000 0.044815
#
#
# Mechanical properties :
#
#
# Convention : Reuss Voigt Hill
#
# Bulk Modulus (GPa) = 21.58169 40.57248 31.07709
# Shear Modulus (GPa) = 15.99464 19.89509 17.94487
#
# Velocity S-wave (km/s) = 2.90694 3.24207 3.07907
# Velocity P-wave (km/s) = 4.76122 5.95399 5.39070
#
# Compressibility (1/GPa) = 0.04633557
#
# Stress axis : x y z
#
# Youngs Moduli (GPa) = 73.03771 17.32425 64.27741
#
# Poissons Ratio (x) = 0.14058 0.33669
# Poissons Ratio (y) = 0.59267 0.44772
# Poissons Ratio (z) = 0.38258 0.12067
#
# Static dielectric constant tensor:
#      x y z
#    x 1.678840 0.000000 0.000000 
#    y 0.000000 1.989350 0.000000 
#    z 0.000000 0.000000 1.619840 
# 
# From -- ./inp_files/26361.got.cif
#   From: 2010.05.17/outbox.cif.g08.bks.cpg/sg23_14_cif.got.tgz:26361.got - 2010.06.04 12:02:01.
