data_PCOD9329905
_publ_section_title
;
Structure prediction by ZEFSAII (Michael W. Deem and Ramdas Pophale) SiO2 
 PCOD9329905
Probable space group: I 2 2 2
;
_chemical_formula_sum "Si O2"
_cell_formula_units_Z 48
_cell_length_a 5.092252
_cell_length_b 14.387357
_cell_length_c 32.115143
_cell_angle_alpha 90.000000
_cell_angle_beta 90.000000
_cell_angle_gamma 90.000000
_cell_volume 2352.885361
_symmetry_space_group_name_H-M "I 2 2 2"
_symmetry_group_IT_number 23
_symmetry_cell_setting 'orthorhombic'
loop_
_space_group_symop_operation_xyz
x,y,z
-x,-y,z
x,-y,-z
-x,y,-z
1/2+x,1/2+y,1/2+z
1/2-x,1/2-y,1/2+z
1/2+x,1/2-y,1/2-z
1/2-x,1/2+y,1/2-z
loop_
_atom_site_type_symbol
_atom_site_label
_atom_site_fract_x
_atom_site_fract_y
_atom_site_fract_z
Si Si1 0.742771 0.043866 0.546318
Si Si2 0.366750 0.737735 0.776330
Si Si3 0.561784 0.400255 0.388528
Si Si4 0.559079 0.610734 0.147760
Si Si5 0.062749 0.597798 0.666191
Si Si6 0.935516 0.307541 0.098325
O O1 0.680499 0.150087 0.554600
O O2 0.500000 0.000000 0.569749
O O3 0.742822 0.000000 0.500000
O O4 0.000000 0.000000 0.564895
O O5 0.075714 0.764777 0.761314
O O6 0.373197 0.647431 0.805841
O O7 0.482608 0.818522 0.805168
O O8 0.500000 0.500000 0.409916
O O9 0.361275 0.400801 0.349151
O O10 0.491970 0.301156 0.408400
O O11 0.862493 0.399234 0.373244
O O12 0.500000 0.500000 0.149491
O O13 0.298673 0.663819 0.130105
O O14 0.799081 0.647982 0.118293
O O15 0.000000 0.500000 0.687661
#
# Coordination Sequence:
#
# PCOD9329905 Si02
#       6
#     8   8   8   8   8   8
#     4  10  21  36  56  89 127 159 195 227 279 359
#     4  12  24  38  56  76 110 148 199 251 305 370
#     4  10  19  34  58  84 108 139 191 245 295 341
#     4  12  25  39  58  86 116 153 203 249 304 368
#     4  10  20  37  56  76 102 141 190 247 301 349
#     4  12  20  38  62  85 120 158 191 248 303 347
#
# _framework density 20.400486000000001
#
# number of rings (size 3 to 8) (size 9 to 14) (size 15 to 20)
#    0.000    1.000    3.333    5.000    0.000    1.333 
#    0.000    0.000    0.000    0.000    0.000    2.333 
#    0.000   10.667    0.000    0.000    0.000    0.833 
#
# Total GULP energy -133616.638372 kJ/mol
# GULP energy per Si atom -5567.359932 kJ/mol
# Density = 2.035405 g / cm^3
# Si number density = 20.400486 Si / 1000 Ang^3
#
#
#
# Elastic Constant Matrix: (Units=GPa)
#
#
# Indices 1 2 3 4 5 6 
#
# 1 134.8074 21.2127 8.5654 0.0000 0.0000 0.0000
# 2 21.2127 180.6227 44.0214 0.0000 0.0000 0.0000
# 3 8.5654 44.0214 58.9788 0.0000 0.0000 0.0000
# 4 0.0000 0.0000 0.0000 -155.9830 0.0000 0.0000
# 5 0.0000 0.0000 0.0000 0.0000 3.8654 0.0000
# 6 0.0000 0.0000 0.0000 0.0000 0.0000 26.9792
#
#
#
# Elastic Compliance Matrix: (Units=1/GPa)
#
#
# Indices 1 2 3 4 5 6 
#
# 1 0.007571 -0.000759 -0.000533 0.000000 0.000000 0.000000
# 2 -0.000759 0.006844 -0.004998 0.000000 0.000000 0.000000
# 3 -0.000533 -0.004998 0.020763 0.000000 0.000000 0.000000
# 4 0.000000 0.000000 0.000000 -0.006411 0.000000 0.000000
# 5 0.000000 0.000000 0.000000 0.000000 0.258703 0.000000
# 6 0.000000 0.000000 0.000000 0.000000 0.000000 0.037066
#
#
# Mechanical properties :
#
#
# Convention : Reuss Voigt Hill
#
# Bulk Modulus (GPa) = 44.25158 58.00089 51.12624
# Shear Modulus (GPa) = 14.50754 -4.98705 4.76024
#
# Velocity S-wave (km/s) = 2.66961 -1.56521 1.52920
# Velocity P-wave (km/s) = 5.58936 5.02258 5.31353
#
# Compressibility (1/GPa) = 0.02259806
#
# Stress axis : x y z
#
# Youngs Moduli (GPa) = 132.07722 146.12105 48.16277
#
# Poissons Ratio (x) = 0.11096 0.02566
# Poissons Ratio (y) = 0.10029 0.24071
# Poissons Ratio (z) = 0.07037 0.73028
#
# Static dielectric constant tensor:
#      x y z
#    x 3.379520 0.000000 0.000000 
#    y 0.000000 1.850540 0.000000 
#    z 0.000000 0.000000 1.710420 
# 
# From -- ./inp_files/29932.got.cif
#   From: 2010.05.17/outbox.cif.g08.bks.cpg/sg23_15_cif.got.tgz:29932.got - 2010.06.04 12:02:01.
