data_PCOD9329232
_publ_section_title
;
Structure prediction by ZEFSAII (Michael W. Deem and Ramdas Pophale) SiO2 
 PCOD9329232
Probable space group: F 2 2 2
;
_chemical_formula_sum "Si O2"
_cell_formula_units_Z 48
_cell_length_a 4.846151
_cell_length_b 14.841824
_cell_length_c 29.276820
_cell_angle_alpha 90.000000
_cell_angle_beta 90.000000
_cell_angle_gamma 90.000000
_cell_volume 2105.756364
_symmetry_space_group_name_H-M "F 2 2 2"
_symmetry_group_IT_number 22
_symmetry_cell_setting 'orthorhombic'
loop_
_space_group_symop_operation_xyz
x,y,z
-x,-y,z
x,-y,-z
-x,y,-z
x,1/2+y,1/2+z
-x,1/2-y,1/2+z
x,1/2-y,1/2-z
-x,1/2+y,1/2-z
1/2+x,y,1/2+z
1/2-x,-y,1/2+z
1/2+x,-y,1/2-z
1/2-x,y,1/2-z
1/2+x,1/2+y,z
1/2-x,1/2-y,z
1/2+x,1/2-y,-z
1/2-x,1/2+y,-z
loop_
_atom_site_type_symbol
_atom_site_label
_atom_site_fract_x
_atom_site_fract_y
_atom_site_fract_z
Si Si1 0.201373 0.644294 0.154685
Si Si2 0.175725 0.414795 0.401253
Si Si3 0.750000 0.750000 0.468065
Si Si4 0.250000 0.435648 0.750000
O O1 0.250000 0.750000 0.146586
O O2 0.497928 0.604184 0.143540
O O3 0.141007 0.622523 0.207182
O O4 0.987417 0.597324 0.119090
O O5 0.153744 0.333081 0.436950
O O6 0.000000 0.500000 0.421293
O O7 0.500000 0.719357 0.500000
O O8 0.500000 0.500000 0.764385
#
# Coordination Sequence:
#
# PCOD9329232 Si02
#       4
#    16  16   8   8
#     4  12  23  44  69 102 144 194 244 300 362 436
#     4  12  25  46  74 104 142 192 242 298 377 449
#     4  12  26  48  76 105 146 183 242 320 382 454
#     4  12  25  40  63 102 146 190 248 301 354 429
#
# _framework density 22.794658999999999
#
# number of rings (size 3 to 8) (size 9 to 14) (size 15 to 20)
#    0.000    0.000    3.333    8.500    0.000    0.667 
#    0.000    6.667    0.000    0.000    0.000    0.000 
#    0.000    0.000    0.000    0.000    0.000    0.000 
#
# Total GULP energy -66923.586462 kJ/mol
# GULP energy per Si atom -5576.965538 kJ/mol
# Density = 2.274278 g / cm^3
# Si number density = 22.794659 Si / 1000 Ang^3
#
#
#
# Elastic Constant Matrix: (Units=GPa)
#
#
# Indices 1 2 3 4 5 6 
#
# 1 110.3885 28.1224 11.2698 0.0000 0.0000 0.0000
# 2 28.1224 189.6374 48.9112 0.0000 0.0000 0.0000
# 3 11.2698 48.9112 104.6278 0.0000 0.0000 0.0000
# 4 0.0000 0.0000 0.0000 -23.4513 0.0000 0.0000
# 5 0.0000 0.0000 0.0000 0.0000 -0.9911 0.0000
# 6 0.0000 0.0000 0.0000 0.0000 0.0000 35.9621
#
#
#
# Elastic Compliance Matrix: (Units=1/GPa)
#
#
# Indices 1 2 3 4 5 6 
#
# 1 0.009430 -0.001292 -0.000412 0.000000 0.000000 0.000000
# 2 -0.001292 0.006173 -0.002747 0.000000 0.000000 0.000000
# 3 -0.000412 -0.002747 0.010886 0.000000 0.000000 0.000000
# 4 0.000000 0.000000 0.000000 -0.042642 0.000000 0.000000
# 5 0.000000 0.000000 0.000000 0.000000 -1.008933 0.000000
# 6 0.000000 0.000000 0.000000 0.000000 0.000000 0.027807
#
#
# Mechanical properties :
#
#
# Convention : Reuss Voigt Hill
#
# Bulk Modulus (GPa) = 56.85604 64.58451 60.72027
# Shear Modulus (GPa) = -5.08899 23.39396 9.15248
#
# Velocity S-wave (km/s) = -1.49579 3.20705 2.00597
# Velocity P-wave (km/s) = 4.69187 6.48909 5.66224
#
# Compressibility (1/GPa) = 0.01758828
#
# Stress axis : x y z
#
# Youngs Moduli (GPa) = 106.04275 161.98834 91.86073
#
# Poissons Ratio (x) = 0.20933 0.03781
# Poissons Ratio (y) = 0.13704 0.25231
# Poissons Ratio (z) = 0.04365 0.44493
#
# Static dielectric constant tensor:
#      x y z
#    x 1.724640 0.000000 0.000000 
#    y 0.000000 2.022230 0.000000 
#    z 0.000000 0.000000 1.766580 
# 
# From -- ./inp_files/1656.got.cif
#   From: 2010.05.17/outbox.cif.g08.bks.cpg/sg22_1_cif.got.tgz:1656.got - 2010.06.03 23:40:54.
