data_PCOD9329135
_publ_section_title
;
Structure prediction by ZEFSAII (Michael W. Deem and Ramdas Pophale) SiO2 
 PCOD9329135
Probable space group: F 2 2 2
;
_chemical_formula_sum "Si O2"
_cell_formula_units_Z 64
_cell_length_a 18.437051
_cell_length_b 14.421983
_cell_length_c 9.881387
_cell_angle_alpha 90.000000
_cell_angle_beta 90.000000
_cell_angle_gamma 90.000000
_cell_volume 2627.449302
_symmetry_space_group_name_H-M "F 2 2 2"
_symmetry_group_IT_number 22
_symmetry_cell_setting 'orthorhombic'
loop_
_space_group_symop_operation_xyz
x,y,z
-x,-y,z
x,-y,-z
-x,y,-z
x,1/2+y,1/2+z
-x,1/2-y,1/2+z
x,1/2-y,1/2-z
-x,1/2+y,1/2-z
1/2+x,y,1/2+z
1/2-x,-y,1/2+z
1/2+x,-y,1/2-z
1/2-x,y,1/2-z
1/2+x,1/2+y,z
1/2-x,1/2-y,z
1/2+x,1/2-y,-z
1/2-x,1/2+y,-z
loop_
_atom_site_type_symbol
_atom_site_label
_atom_site_fract_x
_atom_site_fract_y
_atom_site_fract_z
Si Si1 0.655556 0.948712 0.828445
Si Si2 0.019746 0.669523 0.154156
Si Si3 0.636649 0.353838 0.786007
Si Si4 0.283654 0.852386 0.436642
O O1 0.574394 0.916372 0.863338
O O2 0.676400 0.888025 0.696818
O O3 0.711201 0.913823 0.940621
O O4 0.665584 0.054809 0.787191
O O5 0.053680 0.750000 0.250000
O O6 0.947365 0.645645 0.239201
O O7 0.000000 0.700895 0.000000
O O8 0.663500 0.250000 0.750000
O O9 0.660207 0.363517 0.941222
O O10 0.250000 0.750000 0.429412
#
# Coordination Sequence:
#
# PCOD9329135 Si02
#       4
#    16  16  16  16
#     4  11  25  50  79 110 159 210 256 319 396 473
#     4  11  27  51  81 117 156 207 259 323 393 471
#     4  11  28  48  76 116 155 204 264 326 382 464
#     4  11  26  49  75 115 155 205 260 322 394 466
#
# _framework density 24.358225000000001
#
# number of rings (size 3 to 8) (size 9 to 14) (size 15 to 20)
#    0.000    1.000    0.000    4.500   14.000    8.500 
#    4.500    2.500    0.000    0.000    0.000    0.000 
#    0.000    0.000    0.000    0.000    0.000    0.000 
#
# Total GULP energy -89484.778114 kJ/mol
# GULP energy per Si atom -5592.798632 kJ/mol
# Density = 2.430278 g / cm^3
# Si number density = 24.358225 Si / 1000 Ang^3
#
#
#
# Elastic Constant Matrix: (Units=GPa)
#
#
# Indices 1 2 3 4 5 6 
#
# 1 129.9664 42.8080 47.5061 0.0000 0.0000 0.0000
# 2 42.8080 197.7188 46.7618 0.0000 0.0000 0.0000
# 3 47.5061 46.7618 183.4544 0.0000 0.0000 0.0000
# 4 0.0000 0.0000 0.0000 32.8728 0.0000 0.0000
# 5 0.0000 0.0000 0.0000 0.0000 28.0957 0.0000
# 6 0.0000 0.0000 0.0000 0.0000 0.0000 -5.5532
#
#
#
# Elastic Compliance Matrix: (Units=1/GPa)
#
#
# Indices 1 2 3 4 5 6 
#
# 1 0.008882 -0.001467 -0.001926 0.000000 0.000000 0.000000
# 2 -0.001467 0.005625 -0.001054 0.000000 0.000000 0.000000
# 3 -0.001926 -0.001054 0.006218 0.000000 0.000000 0.000000
# 4 0.000000 0.000000 0.000000 0.030420 0.000000 0.000000
# 5 0.000000 0.000000 0.000000 0.000000 0.035593 0.000000
# 6 0.000000 0.000000 0.000000 0.000000 0.000000 -0.180077
#
#
# Mechanical properties :
#
#
# Convention : Reuss Voigt Hill
#
# Bulk Modulus (GPa) = 84.52795 87.25459 85.89127
# Shear Modulus (GPa) = -62.11006 36.02064 -13.04471
#
# Velocity S-wave (km/s) = -5.05509 3.84967 -2.31668
# Velocity P-wave (km/s) = 0.83989 7.46051 5.30870
#
# Compressibility (1/GPa) = 0.01183041
#
# Stress axis : x y z
#
# Youngs Moduli (GPa) = 112.59236 177.79008 160.81731
#
# Poissons Ratio (x) = 0.26090 0.30971
# Poissons Ratio (y) = 0.16523 0.16945
# Poissons Ratio (z) = 0.21684 0.18733
#
# Static dielectric constant tensor:
#      x y z
#    x 1.979650 0.000000 0.000000 
#    y 0.000000 1.976180 0.000000 
#    z 0.000000 0.000000 1.967080 
# 
# From -- ./inp_files/13423.got.cif
#   From: 2010.05.17/outbox.cif.g08.bks.cpg/sg22_7_cif.got.tgz:13423.got - 2010.06.03 23:40:54.
