data_PCOD9329917
_publ_section_title
;
Structure prediction by ZEFSAII (Michael W. Deem and Ramdas Pophale) SiO2 
 PCOD9329917
Probable space group: I 2 2 2
;
_chemical_formula_sum "Si O2"
_cell_formula_units_Z 36
_cell_length_a 14.394273
_cell_length_b 15.186573
_cell_length_c 7.968532
_cell_angle_alpha 90.000000
_cell_angle_beta 90.000000
_cell_angle_gamma 90.000000
_cell_volume 1741.918527
_symmetry_space_group_name_H-M "I 2 2 2"
_symmetry_group_IT_number 23
_symmetry_cell_setting 'orthorhombic'
loop_
_space_group_symop_operation_xyz
x,y,z
-x,-y,z
x,-y,-z
-x,y,-z
1/2+x,1/2+y,1/2+z
1/2-x,1/2-y,1/2+z
1/2+x,1/2-y,1/2-z
1/2-x,1/2+y,1/2-z
loop_
_atom_site_type_symbol
_atom_site_label
_atom_site_fract_x
_atom_site_fract_y
_atom_site_fract_z
Si Si1 0.186529 0.306068 0.504703
Si Si2 0.186122 0.500000 0.500000
Si Si3 0.371913 0.306253 0.690742
Si Si4 0.943354 0.173345 0.323644
Si Si5 0.324477 0.498997 0.192421
O O1 0.142714 0.403612 0.525126
O O2 0.297514 0.307023 0.540197
O O3 0.164221 0.265247 0.324461
O O4 0.138555 0.242096 0.640239
O O5 0.247291 0.483910 0.333087
O O6 0.482851 0.295816 0.684480
O O7 0.362573 0.404259 0.768526
O O8 0.900853 0.077404 0.291330
O O9 0.000000 0.171279 0.500000
O O10 0.290321 0.500000 0.000000
#
# Coordination Sequence:
#
# PCOD9329917 Si02
#       5
#     8   4   8   8   8
#     4  10  20  36  53  82 117 145 191 232 274 344
#     4  10  24  36  54  90 114 154 196 226 278 340
#     4  10  21  34  58  83 113 149 188 231 296 337
#     4  10  19  34  62  82 112 153 188 230 295 343
#     4  11  19  36  60  85 118 144 183 241 294 339
#
# _framework density 20.666865999999999
#
# number of rings (size 3 to 8) (size 9 to 14) (size 15 to 20)
#    0.000    1.778    4.444    2.000    0.000    0.000 
#    0.000   19.444    0.000    0.000    0.000    0.000 
#    0.000    0.000    0.000    0.000    0.000    0.000 
#
# Total GULP energy -100388.031151 kJ/mol
# GULP energy per Si atom -5577.112842 kJ/mol
# Density = 2.061983 g / cm^3
# Si number density = 20.666866 Si / 1000 Ang^3
#
#
#
# Elastic Constant Matrix: (Units=GPa)
#
#
# Indices 1 2 3 4 5 6 
#
# 1 38.3336 29.3563 20.5914 0.0000 0.0000 0.0000
# 2 29.3563 134.9424 13.6865 0.0000 0.0000 0.0000
# 3 20.5914 13.6865 87.6831 0.0000 0.0000 0.0000
# 4 0.0000 0.0000 0.0000 19.4897 0.0000 0.0000
# 5 0.0000 0.0000 0.0000 0.0000 16.7874 0.0000
# 6 0.0000 0.0000 0.0000 0.0000 0.0000 22.5690
#
#
#
# Elastic Compliance Matrix: (Units=1/GPa)
#
#
# Indices 1 2 3 4 5 6 
#
# 1 0.035271 -0.006943 -0.007199 0.000000 0.000000 0.000000
# 2 -0.006943 0.008896 0.000242 0.000000 0.000000 0.000000
# 3 -0.007199 0.000242 0.013058 0.000000 0.000000 0.000000
# 4 0.000000 0.000000 0.000000 0.051309 0.000000 0.000000
# 5 0.000000 0.000000 0.000000 0.000000 0.059568 0.000000
# 6 0.000000 0.000000 0.000000 0.000000 0.000000 0.044309
#
#
# Mechanical properties :
#
#
# Convention : Reuss Voigt Hill
#
# Bulk Modulus (GPa) = 33.98552 43.13641 38.56096
# Shear Modulus (GPa) = 19.99840 24.92422 22.46131
#
# Velocity S-wave (km/s) = 3.11409 3.47652 3.30028
# Velocity P-wave (km/s) = 5.42312 6.08543 5.76380
#
# Compressibility (1/GPa) = 0.02942430
#
# Stress axis : x y z
#
# Youngs Moduli (GPa) = 28.35193 112.40441 76.58355
#
# Poissons Ratio (x) = 0.78041 0.55135
# Poissons Ratio (y) = 0.19684 -0.01852
# Poissons Ratio (z) = 0.20411 -0.02718
#
# Static dielectric constant tensor:
#      x y z
#    x 1.780040 0.000000 0.000000 
#    y 0.000000 1.753000 0.000000 
#    z 0.000000 0.000000 1.791490 
# 
# From -- ./inp_files/9474.got.cif
#   From: 2010.05.17/outbox.cif.g08.bks.cpg/sg23_5_cif.got.tgz:9474.got - 2010.06.04 12:02:01.
