data_PCOD9329295
_publ_section_title
;
Structure prediction by ZEFSAII (Michael W. Deem and Ramdas Pophale) SiO2 
 PCOD9329295
Probable space group: F 2 2 2
;
_chemical_formula_sum "Si O2"
_cell_formula_units_Z 28
_cell_length_a 12.000000
_cell_length_b 15.000000
_cell_length_c 30.000000
_cell_angle_alpha 90.000000
_cell_angle_beta 90.000000
_cell_angle_gamma 90.000000
_cell_volume 5400.000000
_symmetry_space_group_name_H-M "F 2 2 2"
_symmetry_group_IT_number 22
_symmetry_cell_setting 'orthorhombic'
loop_
_space_group_symop_operation_xyz
x,y,z
-x,-y,z
x,-y,-z
-x,y,-z
x,1/2+y,1/2+z
-x,1/2-y,1/2+z
x,1/2-y,1/2-z
-x,1/2+y,1/2-z
1/2+x,y,1/2+z
1/2-x,-y,1/2+z
1/2+x,-y,1/2-z
1/2-x,y,1/2-z
1/2+x,1/2+y,z
1/2-x,1/2-y,z
1/2+x,1/2-y,-z
1/2-x,1/2+y,-z
loop_
_atom_site_type_symbol
_atom_site_label
_atom_site_fract_x
_atom_site_fract_y
_atom_site_fract_z
Si Si1 0.557209 0.906175 0.245919
Si Si2 0.990063 0.103891 0.452657
Si Si3 0.712395 0.155670 0.105788
Si Si4 0.831108 0.175289 0.613816
Si Si5 0.095424 0.074994 0.844312
Si Si6 0.765448 0.431042 0.687867
Si Si7 0.535739 0.775282 0.822483
O O1 0.643903 0.934369 0.207721
O O2 0.646259 0.874089 0.283356
O O3 0.481890 0.831030 0.222931
O O4 0.500000 0.000000 0.258520
O O5 0.874158 0.116244 0.428108
O O6 0.000000 0.150731 0.500000
O O7 0.091762 0.133904 0.422722
O O8 0.000000 0.000000 0.457656
O O9 0.750000 0.250000 0.087572
O O10 0.824463 0.100898 0.114891
O O11 0.638213 0.179130 0.150167
O O12 0.750000 0.250000 0.595883
O O13 0.750703 0.106313 0.638933
O O14 0.920574 0.212823 0.649789
O O15 0.057681 0.168823 0.823056
O O16 0.182908 0.027954 0.811804
O O17 0.000000 0.000000 0.853582
#
# Coordination Sequence:
#
# PCOD9329295 Si02
#       7
#    16  16  16  16  16  16  16
#     4  10  20  37  56  78 111 152 199 251 294 336
#     4  10  21  37  60  90 117 146 185 231 290 359
#     4   9  19  36  59  85 115 153 193 235 290 358
#     4  10  20  37  58  82 111 148 190 233 287 352
#     4  11  20  34  56  84 113 148 194 244 293 348
#     4  10  21  35  55  80 110 148 194 245 296 337
#     4   9  20  36  57  81 112 154 198 239 293 352
#
# _framework density 5.1851849999999997
#
# number of rings (size 3 to 8) (size 9 to 14) (size 15 to 20)
#    0.000    2.143    0.000    3.000    0.000    4.571 
#    0.000   15.714    0.000    6.857    0.000    4.000 
#    0.000    0.000    0.000    0.000    0.000    0.000 
#
# Total GULP energy -155876.220173 kJ/mol
# GULP energy per Si atom -5567.007863 kJ/mol
# Density = 0.517338 g / cm^3
# Si number density = 5.185185 Si / 1000 Ang^3
#
#
#
# Elastic Constant Matrix: (Units=GPa)
#
#
# Indices 1 2 3 4 5 6 
#
# 1 96.8927 70.1613 26.4424 0.0000 0.0000 0.0000
# 2 70.1613 114.9804 59.0174 0.0000 0.0000 0.0000
# 3 26.4424 59.0174 66.8825 0.0000 0.0000 0.0000
# 4 0.0000 0.0000 0.0000 9.6280 0.0000 0.0000
# 5 0.0000 0.0000 0.0000 0.0000 -5.2719 0.0000
# 6 0.0000 0.0000 0.0000 0.0000 0.0000 28.0125
#
#
#
# Elastic Compliance Matrix: (Units=1/GPa)
#
#
# Indices 1 2 3 4 5 6 
#
# 1 0.019388 -0.014434 0.005071 0.000000 0.000000 0.000000
# 2 -0.014434 0.026643 -0.017803 0.000000 0.000000 0.000000
# 3 0.005071 -0.017803 0.028656 0.000000 0.000000 0.000000
# 4 0.000000 0.000000 0.000000 0.103864 0.000000 0.000000
# 5 0.000000 0.000000 0.000000 0.000000 -0.189686 0.000000
# 6 0.000000 0.000000 0.000000 0.000000 0.000000 0.035698
#
#
# Mechanical properties :
#
#
# Convention : Reuss Voigt Hill
#
# Bulk Modulus (GPa) = 49.12610 65.55530 57.34070
# Shear Modulus (GPa) = 58.35594 14.68269 36.51931
#
# Velocity S-wave (km/s) = 5.31008 2.66355 4.20068
# Velocity P-wave (km/s) = 7.83155 6.41366 7.15780
#
# Compressibility (1/GPa) = 0.02035578
#
# Stress axis : x y z
#
# Youngs Moduli (GPa) = 51.57700 37.53363 34.89627
#
# Poissons Ratio (x) = 0.54175 -0.17696
# Poissons Ratio (y) = 0.74445 0.62127
# Poissons Ratio (z) = -0.26155 0.66822
#
# Static dielectric constant tensor:
#      x y z
#    x 1.742100 0.000000 0.000000 
#    y 0.000000 1.843340 0.000000 
#    z 0.000000 0.000000 1.904670 
# 
# From -- ./inp_files/56096.got.cif
#   From: 2010.05.17/outbox.ucp.g08.bks.cvg/sg22_29_cif.got.tgz:56096.got - 2010.06.11 15:16:44.
