data_PCOD9329772
_publ_section_title
;
Structure prediction by ZEFSAII (Michael W. Deem and Ramdas Pophale) SiO2 
 PCOD9329772
Probable space group: I 2 2 2
;
_chemical_formula_sum "Si O2"
_cell_formula_units_Z 52
_cell_length_a 24.063370
_cell_length_b 13.019380
_cell_length_c 9.772844
_cell_angle_alpha 90.000000
_cell_angle_beta 90.000000
_cell_angle_gamma 90.000000
_cell_volume 3061.735842
_symmetry_space_group_name_H-M "I 2 2 2"
_symmetry_group_IT_number 23
_symmetry_cell_setting 'orthorhombic'
loop_
_space_group_symop_operation_xyz
x,y,z
-x,-y,z
x,-y,-z
-x,y,-z
1/2+x,1/2+y,1/2+z
1/2-x,1/2-y,1/2+z
1/2+x,1/2-y,1/2-z
1/2-x,1/2+y,1/2-z
loop_
_atom_site_type_symbol
_atom_site_label
_atom_site_fract_x
_atom_site_fract_y
_atom_site_fract_z
Si Si1 0.280151 0.311392 0.435067
Si Si2 0.810511 0.000000 0.500000
Si Si3 0.727833 0.029531 0.253937
Si Si4 0.647198 0.835761 0.237594
Si Si5 0.347439 0.224471 0.667054
Si Si6 0.064666 0.379102 0.974940
Si Si7 0.842151 0.779402 0.471036
O O1 0.261220 0.419799 0.372114
O O2 0.315377 0.247440 0.321822
O O3 0.314875 0.308273 0.575496
O O4 0.223342 0.250005 0.464779
O O5 0.770808 0.008306 0.631950
O O6 0.846033 0.897476 0.511589
O O7 0.693298 0.125968 0.315681
O O8 0.684935 0.938118 0.222399
O O9 0.592585 0.856204 0.328130
O O10 0.633320 0.791965 0.088850
O O11 0.399671 0.185665 0.582372
O O12 0.362878 0.260837 0.817975
O O13 0.073633 0.500000 0.000000
O O14 0.000000 0.357583 0.000000
#
# Coordination Sequence:
#
# PCOD9329772 Si02
#       7
#     8   4   8   8   8   8   8
#     4  10  19  31  48  76 111 155 190 207 260 344
#     4  12  18  32  50  74 110 156 174 222 254 320
#     4  11  19  31  51  74 115 155 181 216 267 323
#     4  11  20  35  53  80 111 155 187 226 272 336
#     4  10  20  35  51  79 111 146 181 230 266 335
#     4  10  20  38  61  81 104 143 187 232 289 343
#     4  11  21  33  50  78 113 143 190 218 274 334
#
# _framework density 16.983830000000001
#
# number of rings (size 3 to 8) (size 9 to 14) (size 15 to 20)
#    0.000    1.385    6.154    1.846    0.000    2.462 
#    0.000    0.769    0.000    1.846    0.000    3.231 
#    0.000    0.000    0.000    0.000    0.000    0.000 
#
# Total GULP energy -145143.892188 kJ/mol
# GULP energy per Si atom -5582.457392 kJ/mol
# Density = 1.694517 g / cm^3
# Si number density = 16.983830 Si / 1000 Ang^3
#
#
#
# Elastic Constant Matrix: (Units=GPa)
#
#
# Indices 1 2 3 4 5 6 
#
# 1 69.7302 34.4189 48.8868 0.0000 0.0000 0.0000
# 2 34.4189 82.1371 57.9977 0.0000 0.0000 0.0000
# 3 48.8868 57.9977 142.7311 0.0000 0.0000 0.0000
# 4 0.0000 0.0000 0.0000 29.3247 0.0000 0.0000
# 5 0.0000 0.0000 0.0000 0.0000 8.6085 0.0000
# 6 0.0000 0.0000 0.0000 0.0000 0.0000 12.4436
#
#
#
# Elastic Compliance Matrix: (Units=1/GPa)
#
#
# Indices 1 2 3 4 5 6 
#
# 1 0.020255 -0.005033 -0.004892 0.000000 0.000000 0.000000
# 2 -0.005033 0.018324 -0.005722 0.000000 0.000000 0.000000
# 3 -0.004892 -0.005722 0.011007 0.000000 0.000000 0.000000
# 4 0.000000 0.000000 0.000000 0.034101 0.000000 0.000000
# 5 0.000000 0.000000 0.000000 0.000000 0.116165 0.000000
# 6 0.000000 0.000000 0.000000 0.000000 0.000000 0.080362
#
#
# Mechanical properties :
#
#
# Convention : Reuss Voigt Hill
#
# Bulk Modulus (GPa) = 54.67089 64.13390 59.40239
# Shear Modulus (GPa) = 15.74272 20.29503 18.01888
#
# Velocity S-wave (km/s) = 3.04785 3.46057 3.26075
# Velocity P-wave (km/s) = 6.68174 7.33561 7.01630
#
# Compressibility (1/GPa) = 0.01829127
#
# Stress axis : x y z
#
# Youngs Moduli (GPa) = 49.36946 54.57244 90.85144
#
# Poissons Ratio (x) = 0.27468 0.44449
# Poissons Ratio (y) = 0.24849 0.51985
# Poissons Ratio (z) = 0.24154 0.31226
#
# Static dielectric constant tensor:
#      x y z
#    x 1.539250 0.000000 0.000000 
#    y 0.000000 1.592800 0.000000 
#    z 0.000000 0.000000 1.620020 
# 
# From -- ./inp_files/12667.got.cif
#   From: 2010.05.17/outbox.cif.g08.bks.cpg/sg23_7_cif.got.tgz:12667.got - 2010.06.04 12:02:01.
