data_PCOD9329415
_publ_section_title
;
Structure prediction by ZEFSAII (Michael W. Deem and Ramdas Pophale) SiO2 
 PCOD9329415
Probable space group: I 2 2 2
;
_chemical_formula_sum "Si O2"
_cell_formula_units_Z 64
_cell_length_a 17.915905
_cell_length_b 11.323201
_cell_length_c 17.801355
_cell_angle_alpha 90.000000
_cell_angle_beta 90.000000
_cell_angle_gamma 90.000000
_cell_volume 3611.278885
_symmetry_space_group_name_H-M "I 2 2 2"
_symmetry_group_IT_number 23
_symmetry_cell_setting 'orthorhombic'
loop_
_space_group_symop_operation_xyz
x,y,z
-x,-y,z
x,-y,-z
-x,y,-z
1/2+x,1/2+y,1/2+z
1/2-x,1/2-y,1/2+z
1/2+x,1/2-y,1/2-z
1/2-x,1/2+y,1/2-z
loop_
_atom_site_type_symbol
_atom_site_label
_atom_site_fract_x
_atom_site_fract_y
_atom_site_fract_z
Si Si1 0.411488 0.501145 0.909464
Si Si2 0.839851 0.654167 0.782474
Si Si3 0.302044 0.713893 0.128219
Si Si4 0.799538 0.630968 0.521466
Si Si5 0.659002 0.884594 0.734786
Si Si6 0.031829 0.632921 0.423644
Si Si7 0.210186 0.192819 0.641912
Si Si8 0.497621 0.142467 0.246361
O O1 0.500000 0.500000 0.886456
O O2 0.364545 0.388681 0.878112
O O3 0.359477 0.614008 0.886904
O O4 0.410875 0.500000 0.000000
O O5 0.779843 0.663371 0.849297
O O6 0.841678 0.523207 0.746783
O O7 0.815794 0.741868 0.716984
O O8 0.927132 0.680285 0.796020
O O9 0.318426 0.807843 0.193573
O O10 0.303542 0.788322 0.052032
O O11 0.772992 0.500000 0.500000
O O12 0.881092 0.619742 0.559831
O O13 0.759655 0.710203 0.583471
O O14 0.717858 0.879164 0.667786
O O15 0.577424 0.832109 0.717534
O O16 0.012188 0.684015 0.341214
O O17 0.000000 0.500000 0.422478
O O18 0.000000 0.694092 0.500000
O O19 0.500000 0.000000 0.241376
#
# Coordination Sequence:
#
# PCOD9329415 Si02
#       8
#     8   8   8   8   8   8   8   8
#     4  11  24  42  55  83 124 165 194 218 281 367
#     4  10  20  38  57  83 115 147 196 246 288 333
#     4  11  23  36  58  82 114 164 191 232 286 350
#     4  12  22  35  56  86 115 147 194 239 288 337
#     4  10  21  37  58  83 113 147 199 242 290 335
#     4  10  17  28  47  82 117 140 164 227 294 332
#     4  11  22  37  58  78 116 163 189 238 281 346
#     4   9  18  31  54  83 110 142 181 242 288 326
#
# _framework density 17.722255000000001
#
# number of rings (size 3 to 8) (size 9 to 14) (size 15 to 20)
#    0.000    1.500    5.000    1.500    3.500    1.000 
#    0.000    0.000    0.000    0.750    0.000    4.375 
#    0.000    0.000    0.000    0.000    0.000    0.000 
#
# Total GULP energy -178191.344505 kJ/mol
# GULP energy per Si atom -5568.479516 kJ/mol
# Density = 1.768192 g / cm^3
# Si number density = 17.722255 Si / 1000 Ang^3
#
#
#
# Elastic Constant Matrix: (Units=GPa)
#
#
# Indices 1 2 3 4 5 6 
#
# 1 128.6619 23.2152 42.6845 0.0000 0.0000 0.0000
# 2 23.2152 64.8593 18.0512 0.0000 0.0000 0.0000
# 3 42.6845 18.0512 48.2874 0.0000 0.0000 0.0000
# 4 0.0000 0.0000 0.0000 22.5829 0.0000 0.0000
# 5 0.0000 0.0000 0.0000 0.0000 20.1796 0.0000
# 6 0.0000 0.0000 0.0000 0.0000 0.0000 16.8622
#
#
#
# Elastic Compliance Matrix: (Units=1/GPa)
#
#
# Indices 1 2 3 4 5 6 
#
# 1 0.011108 -0.001387 -0.009301 0.000000 0.000000 0.000000
# 2 -0.001387 0.017382 -0.005271 0.000000 0.000000 0.000000
# 3 -0.009301 -0.005271 0.030901 0.000000 0.000000 0.000000
# 4 0.000000 0.000000 0.000000 0.044281 0.000000 0.000000
# 5 0.000000 0.000000 0.000000 0.000000 0.049555 0.000000
# 6 0.000000 0.000000 0.000000 0.000000 0.000000 0.059304
#
#
# Mechanical properties :
#
#
# Convention : Reuss Voigt Hill
#
# Bulk Modulus (GPa) = 36.40009 45.52338 40.96174
# Shear Modulus (GPa) = 19.71546 22.44878 21.08212
#
# Velocity S-wave (km/s) = 3.33899 3.56293 3.45278
# Velocity P-wave (km/s) = 5.95390 6.53214 6.24971
#
# Compressibility (1/GPa) = 0.02747246
#
# Stress axis : x y z
#
# Youngs Moduli (GPa) = 90.02356 57.53185 32.36111
#
# Poissons Ratio (x) = 0.07982 0.30098
# Poissons Ratio (y) = 0.12491 0.17058
# Poissons Ratio (z) = 0.83727 0.30327
#
# Static dielectric constant tensor:
#      x y z
#    x 1.682540 0.000000 0.000000 
#    y 0.000000 1.689950 0.000000 
#    z 0.000000 0.000000 1.602370 
# 
# From -- ./inp_files/25139.got.cif
#   From: 2010.05.17/outbox.cif.g08.bks.cpg/sg23_13_cif.got.tgz:25139.got - 2010.06.04 12:02:01.
