data_PCOD9329090
_publ_section_title
;
Structure prediction by ZEFSAII (Michael W. Deem and Ramdas Pophale) SiO2 
 PCOD9329090
Probable space group: F 2 2 2
;
_chemical_formula_sum "Si O2"
_cell_formula_units_Z 112
_cell_length_a 14.248152
_cell_length_b 14.076739
_cell_length_c 24.837704
_cell_angle_alpha 90.000000
_cell_angle_beta 90.000000
_cell_angle_gamma 90.000000
_cell_volume 4981.636618
_symmetry_space_group_name_H-M "F 2 2 2"
_symmetry_group_IT_number 22
_symmetry_cell_setting 'orthorhombic'
loop_
_space_group_symop_operation_xyz
x,y,z
-x,-y,z
x,-y,-z
-x,y,-z
x,1/2+y,1/2+z
-x,1/2-y,1/2+z
x,1/2-y,1/2-z
-x,1/2+y,1/2-z
1/2+x,y,1/2+z
1/2-x,-y,1/2+z
1/2+x,-y,1/2-z
1/2-x,y,1/2-z
1/2+x,1/2+y,z
1/2-x,1/2-y,z
1/2+x,1/2-y,-z
1/2-x,1/2+y,-z
loop_
_atom_site_type_symbol
_atom_site_label
_atom_site_fract_x
_atom_site_fract_y
_atom_site_fract_z
Si Si1 0.500000 0.735396 0.500000
Si Si2 0.457836 0.671524 0.715698
Si Si3 0.786399 0.646865 0.608681
Si Si4 0.860544 0.150585 0.822222
Si Si5 0.500000 0.500000 0.653853
Si Si6 0.497318 0.895200 0.411094
Si Si7 0.204570 0.153941 0.489498
Si Si8 0.297998 0.951645 0.881461
O O1 0.518757 0.808149 0.450937
O O2 0.595029 0.673185 0.504222
O O3 0.514354 0.750000 0.750000
O O4 0.397355 0.739696 0.676197
O O5 0.385293 0.627793 0.759908
O O6 0.520943 0.591595 0.690259
O O7 0.750000 0.750000 0.626365
O O8 0.896874 0.633082 0.612722
O O9 0.759884 0.639264 0.544995
O O10 0.738752 0.555526 0.634228
O O11 0.758708 0.121444 0.843355
O O12 0.928518 0.097525 0.863282
O O13 0.409933 0.538476 0.622914
O O14 0.500000 0.000000 0.437307
O O15 0.250000 0.250000 0.465678
O O16 0.219645 0.076235 0.443597
#
# Coordination Sequence:
#
# PCOD9329090 Si02
#       8
#     8  16  16  16   8  16  16  16
#     4  12  25  40  67  98 140 188 234 295 353 420
#     4   8  24  48  74 103 143 175 242 299 363 430
#     4  11  25  45  63  99 147 187 238 297 361 424
#     4   9  23  46  74 101 138 187 232 302 354 434
#     4  12  28  42  73 110 140 183 234 300 370 432
#     4  12  23  40  73 103 133 186 244 296 352 425
#     4  11  25  43  66  96 147 192 236 288 351 431
#     4  12  27  43  70 104 143 187 246 288 365 443
#
# _framework density 22.482569999999999
#
# number of rings (size 3 to 8) (size 9 to 14) (size 15 to 20)
#    0.857    0.286    4.286    1.500    9.000    1.714 
#    2.571    0.000    0.000    0.000    3.714    0.000 
#    0.000    0.000    0.000    0.000    0.000    0.000 
#
# Total GULP energy -156156.214435 kJ/mol
# GULP energy per Si atom -5577.007658 kJ/mol
# Density = 2.243140 g / cm^3
# Si number density = 22.482570 Si / 1000 Ang^3
#
#
#
# Elastic Constant Matrix: (Units=GPa)
#
#
# Indices 1 2 3 4 5 6 
#
# 1 92.7093 -0.8354 -3.0660 0.0000 0.0000 0.0000
# 2 -0.8354 94.9528 1.3668 0.0000 0.0000 0.0000
# 3 -3.0660 1.3668 39.0367 0.0000 0.0000 0.0000
# 4 0.0000 0.0000 0.0000 20.7081 0.0000 0.0000
# 5 0.0000 0.0000 0.0000 0.0000 15.2117 0.0000
# 6 0.0000 0.0000 0.0000 0.0000 0.0000 25.6999
#
#
#
# Elastic Compliance Matrix: (Units=1/GPa)
#
#
# Indices 1 2 3 4 5 6 
#
# 1 0.010815 0.000083 0.000847 0.000000 0.000000 0.000000
# 2 0.000083 0.010537 -0.000362 0.000000 0.000000 0.000000
# 3 0.000847 -0.000362 0.025696 0.000000 0.000000 0.000000
# 4 0.000000 0.000000 0.000000 0.048290 0.000000 0.000000
# 5 0.000000 0.000000 0.000000 0.000000 0.065739 0.000000
# 6 0.000000 0.000000 0.000000 0.000000 0.000000 0.038911
#
#
# Mechanical properties :
#
#
# Convention : Reuss Voigt Hill
#
# Bulk Modulus (GPa) = 20.75428 24.62552 22.68990
# Shear Modulus (GPa) = 23.26497 27.60617 25.43557
#
# Velocity S-wave (km/s) = 3.22032 3.50793 3.36720
# Velocity P-wave (km/s) = 4.80402 5.23301 5.02310
#
# Compressibility (1/GPa) = 0.04818284
#
# Stress axis : x y z
#
# Youngs Moduli (GPa) = 92.46289 94.89923 38.91644
#
# Poissons Ratio (x) = -0.00787 -0.03294
# Poissons Ratio (y) = -0.00767 0.01410
# Poissons Ratio (z) = -0.07827 0.03439
#
# Static dielectric constant tensor:
#      x y z
#    x 1.846810 0.000000 0.000000 
#    y 0.000000 1.811980 0.000000 
#    z 0.000000 0.000000 1.851430 
# 
# From -- ./inp_files/53224.got.cif
#   From: 2010.05.17/outbox.cif.g08.bks.cpg/sg22_27_cif.got.tgz:53224.got - 2010.06.03 23:40:54.
