data_PCOD9329771
_publ_section_title
;
Structure prediction by ZEFSAII (Michael W. Deem and Ramdas Pophale) SiO2 
 PCOD9329771
Probable space group: I 2 2 2
;
_chemical_formula_sum "Si O2"
_cell_formula_units_Z 34
_cell_length_a 26.012831
_cell_length_b 14.050142
_cell_length_c 4.967787
_cell_angle_alpha 90.000000
_cell_angle_beta 90.000000
_cell_angle_gamma 90.000000
_cell_volume 1815.646512
_symmetry_space_group_name_H-M "I 2 2 2"
_symmetry_group_IT_number 23
_symmetry_cell_setting 'orthorhombic'
loop_
_space_group_symop_operation_xyz
x,y,z
-x,-y,z
x,-y,-z
-x,y,-z
1/2+x,1/2+y,1/2+z
1/2-x,1/2-y,1/2+z
1/2+x,1/2-y,1/2-z
1/2-x,1/2+y,1/2-z
loop_
_atom_site_type_symbol
_atom_site_label
_atom_site_fract_x
_atom_site_fract_y
_atom_site_fract_z
Si Si1 0.818442 0.610071 0.026470
Si Si2 0.356403 0.300204 0.363720
Si Si3 0.899388 0.903699 0.367295
Si Si4 0.500000 0.500000 0.000000
Si Si5 0.750571 0.889843 0.021770
O O1 0.859293 0.689641 0.943389
O O2 0.769347 0.622545 0.825240
O O3 0.834938 0.500000 0.000000
O O4 0.798161 0.625539 0.327776
O O5 0.380405 0.323254 0.074898
O O6 0.296496 0.326382 0.409681
O O7 0.382950 0.371160 0.575125
O O8 0.959639 0.930901 0.352114
O O9 0.875404 0.000000 0.500000
O O10 0.766833 0.000000 0.000000
#
# Coordination Sequence:
#
# PCOD9329771 Si02
#       5
#     8   8   8   2   8
#     4  10  21  34  48  73 112 150 182 221 254 289
#     4  12  20  33  55  80 101 145 186 215 256 326
#     4  10  22  36  56  79 107 129 166 218 281 343
#     4   8  24  42  56  82 118 126 160 230 308 334
#     4  10  19  31  48  72 110 147 181 221 260 298
#
# _framework density 18.726112000000001
#
# number of rings (size 3 to 8) (size 9 to 14) (size 15 to 20)
#    0.706    0.941    0.000    6.353    0.000    3.765 
#    0.000    0.000    0.000    0.000    0.000    4.941 
#    0.000    0.000    0.000    0.000    0.000    0.000 
#
# Total GULP energy -94776.631096 kJ/mol
# GULP energy per Si atom -5575.095947 kJ/mol
# Density = 1.868349 g / cm^3
# Si number density = 18.726112 Si / 1000 Ang^3
#
#
#
# Elastic Constant Matrix: (Units=GPa)
#
#
# Indices 1 2 3 4 5 6 
#
# 1 28.0652 25.6911 -12.1655 0.0000 0.0000 0.0000
# 2 25.6911 91.1592 -12.3297 0.0000 0.0000 0.0000
# 3 -12.1655 -12.3297 48.5676 0.0000 0.0000 0.0000
# 4 0.0000 0.0000 0.0000 21.8307 0.0000 0.0000
# 5 0.0000 0.0000 0.0000 0.0000 10.0462 0.0000
# 6 0.0000 0.0000 0.0000 0.0000 0.0000 7.8265
#
#
#
# Elastic Compliance Matrix: (Units=1/GPa)
#
#
# Indices 1 2 3 4 5 6 
#
# 1 0.052044 -0.013363 0.009644 0.000000 0.000000 0.000000
# 2 -0.013363 0.014791 0.000408 0.000000 0.000000 0.000000
# 3 0.009644 0.000408 0.023109 0.000000 0.000000 0.000000
# 4 0.000000 0.000000 0.000000 0.045807 0.000000 0.000000
# 5 0.000000 0.000000 0.000000 0.000000 0.099540 0.000000
# 6 0.000000 0.000000 0.000000 0.000000 0.000000 0.127771
#
#
# Mechanical properties :
#
#
# Convention : Reuss Voigt Hill
#
# Bulk Modulus (GPa) = 12.00167 18.90928 15.45548
# Shear Modulus (GPa) = 12.57991 19.04710 15.81350
#
# Velocity S-wave (km/s) = 2.59469 3.19273 2.90912
# Velocity P-wave (km/s) = 3.92422 4.86940 4.42214
#
# Compressibility (1/GPa) = 0.08332171
#
# Stress axis : x y z
#
# Youngs Moduli (GPa) = 19.21434 67.60851 43.27307
#
# Poissons Ratio (x) = 0.90346 -0.41733
# Poissons Ratio (y) = 0.25676 -0.01764
# Poissons Ratio (z) = -0.18530 -0.02756
#
# Static dielectric constant tensor:
#      x y z
#    x 1.655580 0.000000 0.000000 
#    y 0.000000 1.707940 0.000000 
#    z 0.000000 0.000000 1.643240 
# 
# From -- ./inp_files/2463.got.cif
#   From: 2010.05.17/outbox.cif.g08.bks.cpg/sg23_2_cif.got.tgz:2463.got - 2010.06.04 12:02:01.
