data_PCOD9329933
_publ_section_title
;
Structure prediction by ZEFSAII (Michael W. Deem and Ramdas Pophale) SiO2 
 PCOD9329933
Probable space group: I 2 2 2
;
_chemical_formula_sum "Si O2"
_cell_formula_units_Z 56
_cell_length_a 19.588572
_cell_length_b 19.378796
_cell_length_c 7.672759
_cell_angle_alpha 90.000000
_cell_angle_beta 90.000000
_cell_angle_gamma 90.000000
_cell_volume 2912.601880
_symmetry_space_group_name_H-M "I 2 2 2"
_symmetry_group_IT_number 23
_symmetry_cell_setting 'orthorhombic'
loop_
_space_group_symop_operation_xyz
x,y,z
-x,-y,z
x,-y,-z
-x,y,-z
1/2+x,1/2+y,1/2+z
1/2-x,1/2-y,1/2+z
1/2+x,1/2-y,1/2-z
1/2-x,1/2+y,1/2-z
loop_
_atom_site_type_symbol
_atom_site_label
_atom_site_fract_x
_atom_site_fract_y
_atom_site_fract_z
Si Si1 0.127628 0.738097 0.724117
Si Si2 0.662448 0.768948 0.179131
Si Si3 0.465760 0.432495 0.306346
Si Si4 0.218796 0.136173 0.255370
Si Si5 0.981076 0.222894 0.201652
Si Si6 0.742520 0.854499 0.662100
Si Si7 0.680512 0.514928 0.209674
O O1 0.148473 0.739025 0.523801
O O2 0.159879 0.809484 0.798854
O O3 0.166468 0.675259 0.818856
O O4 0.046473 0.738654 0.722673
O O5 0.708584 0.836883 0.189162
O O6 0.590142 0.762050 0.273339
O O7 0.710203 0.705718 0.245105
O O8 0.500000 0.500000 0.219360
O O9 0.500000 0.429719 0.500000
O O10 0.475794 0.356022 0.228127
O O11 0.386034 0.450355 0.294249
O O12 0.231745 0.139882 0.463507
O O13 0.197135 0.059218 0.209650
O O14 0.000000 0.217468 0.000000
O O15 0.758720 0.929939 0.734443
O O16 0.669249 0.500000 0.000000
#
# Coordination Sequence:
#
# PCOD9329933 Si02
#       7
#     8   8   8   8   8   8   8
#     4  10  20  34  53  80 109 144 186 233 273 329
#     4  10  19  35  52  80 108 145 188 232 273 329
#     4  10  21  36  48  80 119 151 181 217 274 334
#     4   9  19  34  56  78 107 144 190 228 276 325
#     4  11  21  34  56  78 112 149 183 229 282 329
#     4   9  18  35  54  77 108 142 188 230 275 326
#     4  10  19  36  57  81 111 151 190 231 271 330
#
# _framework density 19.226796
#
# number of rings (size 3 to 8) (size 9 to 14) (size 15 to 20)
#    0.000    2.143    1.429    2.143    0.000    1.429 
#    7.714    0.000    0.000    0.857    0.000    6.000 
#    0.000    0.000    0.000    0.000    0.000    0.000 
#
# Total GULP energy -156148.780600 kJ/mol
# GULP energy per Si atom -5576.742164 kJ/mol
# Density = 1.918303 g / cm^3
# Si number density = 19.226796 Si / 1000 Ang^3
#
#
#
# Elastic Constant Matrix: (Units=GPa)
#
#
# Indices 1 2 3 4 5 6 
#
# 1 123.7297 47.0035 1.6454 0.0000 0.0000 0.0000
# 2 47.0035 76.7539 11.1549 0.0000 0.0000 0.0000
# 3 1.6454 11.1549 23.1281 0.0000 0.0000 0.0000
# 4 0.0000 0.0000 0.0000 10.4494 0.0000 0.0000
# 5 0.0000 0.0000 0.0000 0.0000 26.8487 0.0000
# 6 0.0000 0.0000 0.0000 0.0000 0.0000 27.3754
#
#
#
# Elastic Compliance Matrix: (Units=1/GPa)
#
#
# Indices 1 2 3 4 5 6 
#
# 1 0.010673 -0.006910 0.002574 0.000000 0.000000 0.000000
# 2 -0.006910 0.018485 -0.008424 0.000000 0.000000 0.000000
# 3 0.002574 -0.008424 0.047117 0.000000 0.000000 0.000000
# 4 0.000000 0.000000 0.000000 0.095699 0.000000 0.000000
# 5 0.000000 0.000000 0.000000 0.000000 0.037246 0.000000
# 6 0.000000 0.000000 0.000000 0.000000 0.000000 0.036529
#
#
# Mechanical properties :
#
#
# Convention : Reuss Voigt Hill
#
# Bulk Modulus (GPa) = 19.70279 38.13547 28.91913
# Shear Modulus (GPa) = 17.34980 23.85522 20.60251
#
# Velocity S-wave (km/s) = 3.00722 3.52622 3.27701
# Velocity P-wave (km/s) = 4.72521 6.03793 5.42145
#
# Compressibility (1/GPa) = 0.05075425
#
# Stress axis : x y z
#
# Youngs Moduli (GPa) = 93.69458 54.09911 21.22365
#
# Poissons Ratio (x) = 0.37383 -0.05462
# Poissons Ratio (y) = 0.64744 0.17878
# Poissons Ratio (z) = -0.24112 0.45572
#
# Static dielectric constant tensor:
#      x y z
#    x 1.715810 0.000000 0.000000 
#    y 0.000000 1.691630 0.000000 
#    z 0.000000 0.000000 1.696210 
# 
# From -- ./inp_files/10233.got.cif
#   From: 2010.05.17/outbox.cif.g08.bks.cpg/sg23_6_cif.got.tgz:10233.got - 2010.06.04 12:02:01.
