data_PCOD9329446
_publ_section_title
;
Structure prediction by ZEFSAII (Michael W. Deem and Ramdas Pophale) SiO2 
 PCOD9329446
Probable space group: I 2 2 2
;
_chemical_formula_sum "Si O2"
_cell_formula_units_Z 56
_cell_length_a 17.349213
_cell_length_b 6.874383
_cell_length_c 18.804634
_cell_angle_alpha 90.000000
_cell_angle_beta 90.000000
_cell_angle_gamma 90.000000
_cell_volume 2242.737211
_symmetry_space_group_name_H-M "I 2 2 2"
_symmetry_group_IT_number 23
_symmetry_cell_setting 'orthorhombic'
loop_
_space_group_symop_operation_xyz
x,y,z
-x,-y,z
x,-y,-z
-x,y,-z
1/2+x,1/2+y,1/2+z
1/2-x,1/2-y,1/2+z
1/2+x,1/2-y,1/2-z
1/2-x,1/2+y,1/2-z
loop_
_atom_site_type_symbol
_atom_site_label
_atom_site_fract_x
_atom_site_fract_y
_atom_site_fract_z
Si Si1 0.118183 0.808938 0.290431
Si Si2 0.063475 0.824673 0.855424
Si Si3 0.942959 0.738774 0.295935
Si Si4 0.632010 0.265749 0.489809
Si Si5 0.170770 0.827286 0.136133
Si Si6 0.199657 0.183028 0.570241
Si Si7 0.839256 0.272332 0.575485
O O1 0.153165 0.748409 0.214402
O O2 0.179543 0.753561 0.350398
O O3 0.034373 0.721263 0.305862
O O4 0.093283 0.039346 0.291025
O O5 0.066030 0.684644 0.787677
O O6 0.064009 0.731566 0.933606
O O7 0.140982 0.952590 0.857197
O O8 0.000000 0.000000 0.847978
O O9 0.902182 0.664079 0.367203
O O10 0.637307 0.500000 0.500000
O O11 0.627092 0.209669 0.572986
O O12 0.712015 0.189383 0.455990
O O13 0.257720 0.833683 0.109041
O O14 0.155420 0.304669 0.509395
O O15 0.168536 0.963055 0.573063
#
# Coordination Sequence:
#
# PCOD9329446 Si02
#       7
#     8   8   8   8   8   8   8
#     4   9  16  29  46  68 102 125 160 207 252 293
#     4  10  17  31  48  73 100 123 163 210 251 293
#     4   9  16  29  45  71 100 128 162 206 248 298
#     4   9  19  30  48  73 100 125 165 204 249 296
#     4   9  17  30  44  71  99 128 155 205 246 291
#     4   9  18  32  47  73  96 130 167 202 248 304
#     4   9  18  30  49  69 101 129 165 205 248 300
#
# _framework density 24.969487000000001
#
# number of rings (size 3 to 8) (size 9 to 14) (size 15 to 20)
#    0.000    2.857    2.857    0.000    2.000    3.143 
#    0.000    2.857    0.000    0.857    0.000   29.000 
#    0.000    0.000    0.000    0.000    0.000    0.000 
#
# Total GULP energy -156041.486704 kJ/mol
# GULP energy per Si atom -5572.910239 kJ/mol
# Density = 2.491266 g / cm^3
# Si number density = 24.969487 Si / 1000 Ang^3
#
#
#
# Elastic Constant Matrix: (Units=GPa)
#
#
# Indices 1 2 3 4 5 6 
#
# 1 56.0944 -19.3828 75.3295 0.0000 0.0000 0.0000
# 2 -19.3828 72.7941 4.0446 0.0000 0.0000 0.0000
# 3 75.3295 4.0446 246.2705 0.0000 0.0000 0.0000
# 4 0.0000 0.0000 0.0000 1.6279 0.0000 0.0000
# 5 0.0000 0.0000 0.0000 0.0000 37.3807 0.0000
# 6 0.0000 0.0000 0.0000 0.0000 0.0000 25.2314
#
#
#
# Elastic Compliance Matrix: (Units=1/GPa)
#
#
# Indices 1 2 3 4 5 6 
#
# 1 0.036756 0.010421 -0.011414 0.000000 0.000000 0.000000
# 2 0.010421 0.016705 -0.003462 0.000000 0.000000 0.000000
# 3 -0.011414 -0.003462 0.007609 0.000000 0.000000 0.000000
# 4 0.000000 0.000000 0.000000 0.614285 0.000000 0.000000
# 5 0.000000 0.000000 0.000000 0.000000 0.026752 0.000000
# 6 0.000000 0.000000 0.000000 0.000000 0.000000 0.039633
#
#
# Mechanical properties :
#
#
# Convention : Reuss Voigt Hill
#
# Bulk Modulus (GPa) = 19.17191 55.01574 37.09383
# Shear Modulus (GPa) = 6.51011 33.85918 20.18465
#
# Velocity S-wave (km/s) = 1.61644 3.68642 2.84627
# Velocity P-wave (km/s) = 3.34345 6.34039 5.06849
#
# Compressibility (1/GPa) = 0.05215965
#
# Stress axis : x y z
#
# Youngs Moduli (GPa) = 27.20629 59.86385 131.42643
#
# Poissons Ratio (x) = -0.62385 1.50013
# Poissons Ratio (y) = -0.28352 0.45500
# Poissons Ratio (z) = 0.31054 0.20725
#
# Static dielectric constant tensor:
#      x y z
#    x 1.942070 0.000000 0.000000 
#    y 0.000000 2.099870 0.000000 
#    z 0.000000 0.000000 2.144210 
# 
# From -- ./inp_files/25111.got.cif
#   From: 2010.05.17/outbox.cif.g08.bks.cpg/sg23_13_cif.got.tgz:25111.got - 2010.06.04 12:02:01.
