data_PCOD9329680
_publ_section_title
;
Structure prediction by ZEFSAII (Michael W. Deem and Ramdas Pophale) SiO2 
 PCOD9329680
Probable space group: I 2 2 2
;
_chemical_formula_sum "Si O2"
_cell_formula_units_Z 48
_cell_length_a 30.280416
_cell_length_b 8.099075
_cell_length_c 8.755267
_cell_angle_alpha 90.000000
_cell_angle_beta 90.000000
_cell_angle_gamma 90.000000
_cell_volume 2147.171099
_symmetry_space_group_name_H-M "I 2 2 2"
_symmetry_group_IT_number 23
_symmetry_cell_setting 'orthorhombic'
loop_
_space_group_symop_operation_xyz
x,y,z
-x,-y,z
x,-y,-z
-x,y,-z
1/2+x,1/2+y,1/2+z
1/2-x,1/2-y,1/2+z
1/2+x,1/2-y,1/2-z
1/2-x,1/2+y,1/2-z
loop_
_atom_site_type_symbol
_atom_site_label
_atom_site_fract_x
_atom_site_fract_y
_atom_site_fract_z
Si Si1 0.185088 0.850448 0.295463
Si Si2 0.901523 0.717305 0.840494
Si Si3 0.331127 0.834026 0.097265
Si Si4 0.998617 0.808550 0.814688
Si Si5 0.092609 0.672866 0.806453
Si Si6 0.732759 0.970770 0.320475
O O1 0.135431 0.832057 0.235238
O O2 0.185597 0.794580 0.471851
O O3 0.211710 0.704604 0.212396
O O4 0.216142 0.007762 0.270992
O O5 0.950214 0.745660 0.773241
O O6 0.894647 0.521122 0.818134
O O7 0.901391 0.746118 0.023411
O O8 0.373246 0.759997 0.183540
O O9 0.295920 0.900250 0.220141
O O10 0.343583 0.000000 0.000000
O O11 0.041694 0.707521 0.762523
O O12 0.000000 0.000000 0.770551
O O13 0.000000 0.798314 0.000000
O O14 0.727995 0.000000 0.500000
#
# Coordination Sequence:
#
# PCOD9329680 Si02
#       6
#     8   8   8   8   8   8
#     4  11  23  40  62  90 125 157 205 252 306 361
#     4  10  19  36  63  90 115 160 205 246 289 358
#     4  10  20  36  60  88 119 155 198 250 296 354
#     4   9  19  36  59  91 126 152 194 248 298 353
#     4  10  18  35  65  86 118 158 204 244 290 355
#     4  11  22  41  63  85 120 163 202 257 298 356
#
# _framework density 22.354996
#
# number of rings (size 3 to 8) (size 9 to 14) (size 15 to 20)
#    0.000    1.833    3.333    2.500    0.000    2.000 
#    6.000    2.500   11.000    1.000    0.000    0.000 
#    0.000    0.000    0.000    0.000    0.000    0.000 
#
# Total GULP energy -134106.434161 kJ/mol
# GULP energy per Si atom -5587.768090 kJ/mol
# Density = 2.230411 g / cm^3
# Si number density = 22.354996 Si / 1000 Ang^3
#
#
#
# Elastic Constant Matrix: (Units=GPa)
#
#
# Indices 1 2 3 4 5 6 
#
# 1 147.1186 10.5691 50.2752 0.0000 0.0000 0.0000
# 2 10.5691 27.5769 3.8737 0.0000 0.0000 0.0000
# 3 50.2752 3.8737 82.5251 0.0000 0.0000 0.0000
# 4 0.0000 0.0000 0.0000 14.4531 0.0000 0.0000
# 5 0.0000 0.0000 0.0000 0.0000 13.5140 0.0000
# 6 0.0000 0.0000 0.0000 0.0000 0.0000 16.8056
#
#
#
# Elastic Compliance Matrix: (Units=1/GPa)
#
#
# Indices 1 2 3 4 5 6 
#
# 1 0.008770 -0.002628 -0.005219 0.000000 0.000000 0.000000
# 2 -0.002628 0.037290 -0.000149 0.000000 0.000000 0.000000
# 3 -0.005219 -0.000149 0.015304 0.000000 0.000000 0.000000
# 4 0.000000 0.000000 0.000000 0.069189 0.000000 0.000000
# 5 0.000000 0.000000 0.000000 0.000000 0.073998 0.000000
# 6 0.000000 0.000000 0.000000 0.000000 0.000000 0.059504
#
#
# Mechanical properties :
#
#
# Convention : Reuss Voigt Hill
#
# Bulk Modulus (GPa) = 22.04051 42.96185 32.50118
# Shear Modulus (GPa) = 16.93929 21.78803 19.36366
#
# Velocity S-wave (km/s) = 2.75570 3.12531 2.94630
# Velocity P-wave (km/s) = 4.47279 5.68182 5.11317
#
# Compressibility (1/GPa) = 0.04537100
#
# Stress axis : x y z
#
# Youngs Moduli (GPa) = 114.03052 26.81658 65.34191
#
# Poissons Ratio (x) = 0.07047 0.34103
# Poissons Ratio (y) = 0.29966 0.00977
# Poissons Ratio (z) = 0.59514 0.00401
#
# Static dielectric constant tensor:
#      x y z
#    x 1.848640 0.000000 0.000000 
#    y 0.000000 1.907810 0.000000 
#    z 0.000000 0.000000 1.815220 
# 
# From -- ./inp_files/13341.got.cif
#   From: 2010.05.17/outbox.cif.g08.bks.cpg/sg23_7_cif.got.tgz:13341.got - 2010.06.04 12:02:01.
