data_PCOD9329822
_publ_section_title
;
Structure prediction by ZEFSAII (Michael W. Deem and Ramdas Pophale) SiO2 
 PCOD9329822
Probable space group: I 2 2 2
;
_chemical_formula_sum "Si O2"
_cell_formula_units_Z 36
_cell_length_a 9.225458
_cell_length_b 11.828278
_cell_length_c 17.001346
_cell_angle_alpha 90.000000
_cell_angle_beta 90.000000
_cell_angle_gamma 90.000000
_cell_volume 1855.208670
_symmetry_space_group_name_H-M "I 2 2 2"
_symmetry_group_IT_number 23
_symmetry_cell_setting 'orthorhombic'
loop_
_space_group_symop_operation_xyz
x,y,z
-x,-y,z
x,-y,-z
-x,y,-z
1/2+x,1/2+y,1/2+z
1/2-x,1/2-y,1/2+z
1/2+x,1/2-y,1/2-z
1/2-x,1/2+y,1/2-z
loop_
_atom_site_type_symbol
_atom_site_label
_atom_site_fract_x
_atom_site_fract_y
_atom_site_fract_z
Si Si1 0.500000 0.500000 0.109580
Si Si2 0.500843 0.131385 0.123471
Si Si3 0.484760 0.132508 0.311983
Si Si4 0.272117 0.311060 0.928587
Si Si5 0.234103 0.187084 0.604285
O O1 0.396193 0.592526 0.071074
O O2 0.627305 0.588124 0.139427
O O3 0.485336 0.141659 0.218036
O O4 0.641925 0.195428 0.090146
O O5 0.362935 0.201766 0.094733
O O6 0.500000 0.000000 0.102473
O O7 0.343364 0.172928 0.358982
O O8 0.627206 0.197165 0.341245
O O9 0.500000 0.000000 0.332119
O O10 0.207837 0.329873 0.015357
#
# Coordination Sequence:
#
# PCOD9329822 Si02
#       5
#     4   8   8   8   8
#     4  10  19  32  54  88 116 146 185 232 295 340
#     4  10  23  41  59  81 118 162 203 227 282 351
#     4  11  22  37  60  90 125 148 185 247 302 348
#     4  11  21  36  60  88 118 152 194 243 288 345
#     4  11  21  36  60  88 118 152 194 243 288 345
#
# _framework density 19.404824999999999
#
# number of rings (size 3 to 8) (size 9 to 14) (size 15 to 20)
#    0.000    1.333    2.222    6.000    0.000    2.667 
#    0.000    1.111    0.000    2.667    0.000    0.000 
#    0.000    0.000    0.000    0.000    0.000    0.000 
#
# Total GULP energy -100219.446535 kJ/mol
# GULP energy per Si atom -5567.747030 kJ/mol
# Density = 1.936066 g / cm^3
# Si number density = 19.404825 Si / 1000 Ang^3
#
#
#
# Elastic Constant Matrix: (Units=GPa)
#
#
# Indices 1 2 3 4 5 6 
#
# 1 73.7011 20.2512 22.2837 0.0000 0.0000 0.0000
# 2 20.2512 106.3421 8.0459 0.0000 0.0000 0.0000
# 3 22.2837 8.0459 63.9729 0.0000 0.0000 0.0000
# 4 0.0000 0.0000 0.0000 13.4405 0.0000 0.0000
# 5 0.0000 0.0000 0.0000 0.0000 26.0373 0.0000
# 6 0.0000 0.0000 0.0000 0.0000 0.0000 14.8919
#
#
#
# Elastic Compliance Matrix: (Units=1/GPa)
#
#
# Indices 1 2 3 4 5 6 
#
# 1 0.015861 -0.002627 -0.005194 0.000000 0.000000 0.000000
# 2 -0.002627 0.009929 -0.000334 0.000000 0.000000 0.000000
# 3 -0.005194 -0.000334 0.017483 0.000000 0.000000 0.000000
# 4 0.000000 0.000000 0.000000 0.074402 0.000000 0.000000
# 5 0.000000 0.000000 0.000000 0.000000 0.038406 0.000000
# 6 0.000000 0.000000 0.000000 0.000000 0.000000 0.067150
#
#
# Mechanical properties :
#
#
# Convention : Reuss Voigt Hill
#
# Bulk Modulus (GPa) = 37.08894 38.35305 37.72100
# Shear Modulus (GPa) = 20.11829 23.76964 21.94396
#
# Velocity S-wave (km/s) = 3.22338 3.50370 3.36646
# Velocity P-wave (km/s) = 5.74529 6.01461 5.88149
#
# Compressibility (1/GPa) = 0.02696221
#
# Stress axis : x y z
#
# Youngs Moduli (GPa) = 63.04862 100.71295 57.19869
#
# Poissons Ratio (x) = 0.26462 0.29711
# Poissons Ratio (y) = 0.16566 0.01908
# Poissons Ratio (z) = 0.32750 0.03360
#
# Static dielectric constant tensor:
#      x y z
#    x 1.656110 0.000000 0.000000 
#    y 0.000000 1.686700 0.000000 
#    z 0.000000 0.000000 1.725600 
# 
# From -- ./inp_files/26048.got.cif
#   From: 2010.05.17/outbox.cif.g08.bks.cpg/sg23_14_cif.got.tgz:26048.got - 2010.06.04 12:02:01.
