data_PCOD9329471
_publ_section_title
;
Structure prediction by ZEFSAII (Michael W. Deem and Ramdas Pophale) SiO2 
 PCOD9329471
Probable space group: I 2 2 2
;
_chemical_formula_sum "Si O2"
_cell_formula_units_Z 58
_cell_length_a 9.318352
_cell_length_b 17.993254
_cell_length_c 16.265757
_cell_angle_alpha 90.000000
_cell_angle_beta 90.000000
_cell_angle_gamma 90.000000
_cell_volume 2727.238395
_symmetry_space_group_name_H-M "I 2 2 2"
_symmetry_group_IT_number 23
_symmetry_cell_setting 'orthorhombic'
loop_
_space_group_symop_operation_xyz
x,y,z
-x,-y,z
x,-y,-z
-x,y,-z
1/2+x,1/2+y,1/2+z
1/2-x,1/2-y,1/2+z
1/2+x,1/2-y,1/2-z
1/2-x,1/2+y,1/2-z
loop_
_atom_site_type_symbol
_atom_site_label
_atom_site_fract_x
_atom_site_fract_y
_atom_site_fract_z
Si Si1 0.336187 0.983575 0.739690
Si Si2 0.923686 0.772972 0.251339
Si Si3 0.151674 0.295657 0.011315
Si Si4 0.850406 0.683717 0.826138
Si Si5 0.410549 0.791936 0.913935
Si Si6 0.329642 0.408188 0.637004
Si Si7 0.346970 0.041827 0.575650
Si Si8 0.500000 0.500000 0.500000
O O1 0.339138 0.900651 0.701634
O O2 0.222582 0.979586 0.811485
O O3 0.500000 0.000000 0.765352
O O4 0.283300 0.035669 0.665763
O O5 0.756856 0.765825 0.273007
O O6 0.920145 0.851614 0.198189
O O7 0.992018 0.714475 0.189240
O O8 0.002336 0.749631 0.339156
O O9 0.276151 0.258030 0.060624
O O10 0.123750 0.375108 0.050908
O O11 0.799524 0.310178 0.081358
O O12 0.000000 0.253617 0.000000
O O13 0.322242 0.865756 0.884789
O O14 0.500000 0.803294 0.000000
O O15 0.409899 0.443123 0.558735
O O16 0.500000 0.000000 0.584300
O O17 0.269881 0.000000 0.500000
#
# Coordination Sequence:
#
# PCOD9329471 Si02
#       8
#     8   8   8   8   8   8   8   2
#     4  10  20  39  67  98 136 183 235 284 345 431
#     4  11  23  47  69 103 140 182 237 301 365 429
#     4  12  22  34  66 103 136 177 226 288 364 421
#     4  11  22  40  67  99 143 173 229 294 355 432
#     4  12  26  44  72 113 144 180 242 312 372 432
#     4  11  28  50  73  99 145 194 254 295 370 429
#     4  10  17  33  56  99 139 174 221 274 331 430
#     4  12  32  56  70 104 142 208 252 300 356 456
#
# _framework density 21.266935
#
# number of rings (size 3 to 8) (size 9 to 14) (size 15 to 20)
#    0.000    0.966    6.897    1.655    2.897    2.207 
#    2.483    0.000    0.000    2.069    0.000    0.000 
#    0.000    0.000    0.000    0.000    0.000    0.000 
#
# Total GULP energy -161494.295323 kJ/mol
# GULP energy per Si atom -5568.768804 kJ/mol
# Density = 2.121853 g / cm^3
# Si number density = 21.266935 Si / 1000 Ang^3
#
#
#
# Elastic Constant Matrix: (Units=GPa)
#
#
# Indices 1 2 3 4 5 6 
#
# 1 69.0929 22.5356 45.6656 0.0000 0.0000 0.0000
# 2 22.5356 41.1768 35.7517 0.0000 0.0000 0.0000
# 3 45.6656 35.7517 162.3549 0.0000 0.0000 0.0000
# 4 0.0000 0.0000 0.0000 26.6719 0.0000 0.0000
# 5 0.0000 0.0000 0.0000 0.0000 47.9212 0.0000
# 6 0.0000 0.0000 0.0000 0.0000 0.0000 20.9843
#
#
#
# Elastic Compliance Matrix: (Units=1/GPa)
#
#
# Indices 1 2 3 4 5 6 
#
# 1 0.019390 -0.007266 -0.003854 0.000000 0.000000 0.000000
# 2 -0.007266 0.032749 -0.005168 0.000000 0.000000 0.000000
# 3 -0.003854 -0.005168 0.008381 0.000000 0.000000 0.000000
# 4 0.000000 0.000000 0.000000 0.037493 0.000000 0.000000
# 5 0.000000 0.000000 0.000000 0.000000 0.020868 0.000000
# 6 0.000000 0.000000 0.000000 0.000000 0.000000 0.047655
#
#
# Mechanical properties :
#
#
# Convention : Reuss Voigt Hill
#
# Bulk Modulus (GPa) = 35.78424 53.39229 44.58827
# Shear Modulus (GPa) = 23.98930 30.36027 27.17479
#
# Velocity S-wave (km/s) = 3.36223 3.78243 3.57850
# Velocity P-wave (km/s) = 5.65115 6.65102 6.17137
#
# Compressibility (1/GPa) = 0.02794526
#
# Stress axis : x y z
#
# Youngs Moduli (GPa) = 51.57214 30.53518 119.31265
#
# Poissons Ratio (x) = 0.22187 0.45982
# Poissons Ratio (y) = 0.37472 0.61660
# Poissons Ratio (z) = 0.19875 0.15780
#
# Static dielectric constant tensor:
#      x y z
#    x 1.793970 0.000000 0.000000 
#    y 0.000000 1.780100 0.000000 
#    z 0.000000 0.000000 1.906950 
# 
# From -- ./inp_files/23897.got.cif
#   From: 2010.05.17/outbox.cif.g08.bks.cpg/sg23_12_cif.got.tgz:23897.got - 2010.06.04 12:02:01.
