data_PCOD9329276
_publ_section_title
;
Structure prediction by ZEFSAII (Michael W. Deem and Ramdas Pophale) SiO2 
 PCOD9329276
Probable space group: F 2 2 2
;
_chemical_formula_sum "Si O2"
_cell_formula_units_Z 44
_cell_length_a 15.316664
_cell_length_b 9.763559
_cell_length_c 10.032460
_cell_angle_alpha 90.000000
_cell_angle_beta 90.000000
_cell_angle_gamma 90.000000
_cell_volume 1500.305762
_symmetry_space_group_name_H-M "F 2 2 2"
_symmetry_group_IT_number 22
_symmetry_cell_setting 'orthorhombic'
loop_
_space_group_symop_operation_xyz
x,y,z
-x,-y,z
x,-y,-z
-x,y,-z
x,1/2+y,1/2+z
-x,1/2-y,1/2+z
x,1/2-y,1/2-z
-x,1/2+y,1/2-z
1/2+x,y,1/2+z
1/2-x,-y,1/2+z
1/2+x,-y,1/2-z
1/2-x,y,1/2-z
1/2+x,1/2+y,z
1/2-x,1/2-y,z
1/2+x,1/2-y,-z
1/2-x,1/2+y,-z
loop_
_atom_site_type_symbol
_atom_site_label
_atom_site_fract_x
_atom_site_fract_y
_atom_site_fract_z
Si Si1 0.500000 0.000000 0.000000
Si Si2 0.423604 0.381897 0.157067
Si Si3 0.638241 0.792346 0.902859
Si Si4 0.750000 0.968421 0.750000
O O1 0.608723 0.684220 0.015718
O O2 0.500000 0.500000 0.148668
O O3 0.445481 0.250000 0.250000
O O4 0.564514 0.406028 0.420131
O O5 0.335236 0.443997 0.219743
O O6 0.631854 0.750000 0.750000
O O7 0.728838 0.880021 0.885505
#
# Coordination Sequence:
#
# PCOD9329276 Si02
#       4
#     4  16  16   8
#     4  12  32  56  94 142 198 264 334 418 508 632
#     4  12  33  65 106 158 212 283 352 436 536 631
#     4  12  33  58  99 143 202 264 343 424 519 618
#     4  12  32  62 102 156 209 273 344 450 511 641
#
# _framework density 29.327354
#
# number of rings (size 3 to 8) (size 9 to 14) (size 15 to 20)
#    0.000    0.000    0.000    3.273   17.818   17.455 
#    0.000    0.000    0.000    0.000    0.000    0.000 
#    0.000    0.000    0.000    0.000    0.000    0.000 
#
# Total GULP energy -61629.582494 kJ/mol
# GULP energy per Si atom -5602.689318 kJ/mol
# Density = 2.926060 g / cm^3
# Si number density = 29.327354 Si / 1000 Ang^3
#
#
#
# Elastic Constant Matrix: (Units=GPa)
#
#
# Indices 1 2 3 4 5 6 
#
# 1 241.3484 122.7176 89.4007 0.0000 0.0000 0.0000
# 2 122.7176 219.2138 114.0543 0.0000 0.0000 0.0000
# 3 89.4007 114.0543 236.7100 0.0000 0.0000 0.0000
# 4 0.0000 0.0000 0.0000 232.6599 0.0000 0.0000
# 5 0.0000 0.0000 0.0000 0.0000 -12.7662 0.0000
# 6 0.0000 0.0000 0.0000 0.0000 0.0000 78.6125
#
#
#
# Elastic Compliance Matrix: (Units=1/GPa)
#
#
# Indices 1 2 3 4 5 6 
#
# 1 0.005918 -0.002869 -0.000853 0.000000 0.000000 0.000000
# 2 -0.002869 0.007479 -0.002520 0.000000 0.000000 0.000000
# 3 -0.000853 -0.002520 0.005761 0.000000 0.000000 0.000000
# 4 0.000000 0.000000 0.000000 0.004298 0.000000 0.000000
# 5 0.000000 0.000000 0.000000 0.000000 -0.078332 0.000000
# 6 0.000000 0.000000 0.000000 0.000000 0.000000 0.012721
#
#
# Mechanical properties :
#
#
# Convention : Reuss Voigt Hill
#
# Bulk Modulus (GPa) = 149.83188 149.95748 149.89468
# Shear Modulus (GPa) = -182.17793 84.44120 -48.86836
#
# Velocity S-wave (km/s) = -7.89010 5.37170 -4.08647
# Velocity P-wave (km/s) = 5.63954 9.47190 5.38109
#
# Compressibility (1/GPa) = 0.00667415
#
# Stress axis : x y z
#
# Youngs Moduli (GPa) = 168.96902 133.70360 173.58723
#
# Poissons Ratio (x) = 0.38366 0.14800
# Poissons Ratio (y) = 0.48485 0.43744
# Poissons Ratio (z) = 0.14406 0.33693
#
# Static dielectric constant tensor:
#      x y z
#    x 2.297830 0.000000 0.000000 
#    y 0.000000 2.615190 0.000000 
#    z 0.000000 0.000000 2.305350 
# 
# From -- ./inp_files/28667.got.cif
#   From: 2010.05.17/outbox.cif.g08.bks.cpg/sg22_15_cif.got.tgz:28667.got - 2010.06.03 23:40:54.
