data_PCOD9329463
_publ_section_title
;
Structure prediction by ZEFSAII (Michael W. Deem and Ramdas Pophale) SiO2 
 PCOD9329463
Probable space group: I 2 2 2
;
_chemical_formula_sum "Si O2"
_cell_formula_units_Z 52
_cell_length_a 13.931275
_cell_length_b 10.855313
_cell_length_c 20.317808
_cell_angle_alpha 90.000000
_cell_angle_beta 90.000000
_cell_angle_gamma 90.000000
_cell_volume 3072.628592
_symmetry_space_group_name_H-M "I 2 2 2"
_symmetry_group_IT_number 23
_symmetry_cell_setting 'orthorhombic'
loop_
_space_group_symop_operation_xyz
x,y,z
-x,-y,z
x,-y,-z
-x,y,-z
1/2+x,1/2+y,1/2+z
1/2-x,1/2-y,1/2+z
1/2+x,1/2-y,1/2-z
1/2-x,1/2+y,1/2-z
loop_
_atom_site_type_symbol
_atom_site_label
_atom_site_fract_x
_atom_site_fract_y
_atom_site_fract_z
Si Si1 0.394269 0.954911 0.719426
Si Si2 0.792945 0.607462 0.646050
Si Si3 0.211228 0.899369 0.055879
Si Si4 0.396518 0.145694 0.016480
Si Si5 0.154979 0.500000 0.000000
Si Si6 0.838550 0.337298 0.883537
Si Si7 0.060128 0.301703 0.905233
O O1 0.332906 0.915879 0.781823
O O2 0.409572 0.843911 0.667910
O O3 0.500000 0.000000 0.740941
O O4 0.349567 0.065579 0.675993
O O5 0.748861 0.480945 0.616779
O O6 0.874330 0.649268 0.593735
O O7 0.717263 0.717739 0.640259
O O8 0.120726 0.816364 0.073361
O O9 0.301086 0.820274 0.025768
O O10 0.186367 0.000000 0.000000
O O11 0.500000 0.202276 0.000000
O O12 0.402528 0.000000 0.000000
O O13 0.205761 0.410373 0.053436
O O14 0.092524 0.588174 0.046730
O O15 0.945316 0.294959 0.905767
#
# Coordination Sequence:
#
# PCOD9329463 Si02
#       7
#     8   8   8   8   4   8   8
#     4   9  21  35  53  76 101 144 187 219 258 313
#     4  10  20  32  53  76 108 136 175 220 271 316
#     4   9  19  31  50  80 106 139 173 217 280 312
#     4   8  16  30  47  75  99 126 172 216 257 296
#     4  10  17  32  58  76 107 140 175 218 252 314
#     4  10  20  34  52  81 105 139 177 217 266 320
#     4  10  19  34  52  79 110 138 180 215 265 324
#
# _framework density 16.923622000000002
#
# number of rings (size 3 to 8) (size 9 to 14) (size 15 to 20)
#    0.000    2.923    0.000    4.154    6.462    0.615 
#    0.000    3.077    0.000    0.000    0.000   20.462 
#    0.000    0.000    0.000    0.000    0.000    0.000 
#
# Total GULP energy -144802.439472 kJ/mol
# GULP energy per Si atom -5569.324595 kJ/mol
# Density = 1.688510 g / cm^3
# Si number density = 16.923622 Si / 1000 Ang^3
#
#
#
# Elastic Constant Matrix: (Units=GPa)
#
#
# Indices 1 2 3 4 5 6 
#
# 1 63.9653 48.2662 45.2216 0.0000 0.0000 0.0000
# 2 48.2662 68.2496 42.4643 0.0000 0.0000 0.0000
# 3 45.2216 42.4643 115.5094 0.0000 0.0000 0.0000
# 4 0.0000 0.0000 0.0000 17.6787 0.0000 0.0000
# 5 0.0000 0.0000 0.0000 0.0000 22.9139 0.0000
# 6 0.0000 0.0000 0.0000 0.0000 0.0000 18.7223
#
#
#
# Elastic Compliance Matrix: (Units=1/GPa)
#
#
# Indices 1 2 3 4 5 6 
#
# 1 0.036709 -0.022066 -0.006259 0.000000 0.000000 0.000000
# 2 -0.022066 0.032262 -0.003221 0.000000 0.000000 0.000000
# 3 -0.006259 -0.003221 0.012292 0.000000 0.000000 0.000000
# 4 0.000000 0.000000 0.000000 0.056565 0.000000 0.000000
# 5 0.000000 0.000000 0.000000 0.000000 0.043642 0.000000
# 6 0.000000 0.000000 0.000000 0.000000 0.000000 0.053412
#
#
# Mechanical properties :
#
#
# Convention : Reuss Voigt Hill
#
# Bulk Modulus (GPa) = 55.03900 57.73650 56.38775
# Shear Modulus (GPa) = 16.44563 19.31446 17.88004
#
# Velocity S-wave (km/s) = 3.12068 3.38194 3.25393
# Velocity P-wave (km/s) = 6.75111 7.03136 6.89266
#
# Compressibility (1/GPa) = 0.01816894
#
# Stress axis : x y z
#
# Youngs Moduli (GPa) = 27.24121 30.99661 81.35303
#
# Poissons Ratio (x) = 0.68398 0.50922
# Poissons Ratio (y) = 0.60111 0.26207
# Poissons Ratio (z) = 0.17051 0.09985
#
# Static dielectric constant tensor:
#      x y z
#    x 1.614020 0.000000 0.000000 
#    y 0.000000 1.582590 0.000000 
#    z 0.000000 0.000000 1.581050 
# 
# From -- ./inp_files/24823.got.cif
#   From: 2010.05.17/outbox.cif.g08.bks.cpg/sg23_13_cif.got.tgz:24823.got - 2010.06.04 12:02:01.
