data_PCOD9329317
_publ_section_title
;
Structure prediction by ZEFSAII (Michael W. Deem and Ramdas Pophale) SiO2 
 PCOD9329317
Probable space group: F 2 2 2
;
_chemical_formula_sum "Si O2"
_cell_formula_units_Z 23
_cell_length_a 18.000000
_cell_length_b 21.000000
_cell_length_c 15.000000
_cell_angle_alpha 90.000000
_cell_angle_beta 90.000000
_cell_angle_gamma 90.000000
_cell_volume 5670.000000
_symmetry_space_group_name_H-M "F 2 2 2"
_symmetry_group_IT_number 22
_symmetry_cell_setting 'orthorhombic'
loop_
_space_group_symop_operation_xyz
x,y,z
-x,-y,z
x,-y,-z
-x,y,-z
x,1/2+y,1/2+z
-x,1/2-y,1/2+z
x,1/2-y,1/2-z
-x,1/2+y,1/2-z
1/2+x,y,1/2+z
1/2-x,-y,1/2+z
1/2+x,-y,1/2-z
1/2-x,y,1/2-z
1/2+x,1/2+y,z
1/2-x,1/2-y,z
1/2+x,1/2-y,-z
1/2-x,1/2+y,-z
loop_
_atom_site_type_symbol
_atom_site_label
_atom_site_fract_x
_atom_site_fract_y
_atom_site_fract_z
Si Si1 0.820272 0.623467 0.011823
Si Si2 0.500000 0.000000 0.000000
Si Si3 0.363718 0.750000 0.750000
Si Si4 0.166891 0.506742 0.709680
Si Si5 0.420579 0.617055 0.690229
Si Si6 0.413238 0.581617 0.354402
Si Si7 0.750000 0.750000 0.406736
Si Si8 0.786992 0.500000 0.500000
O O1 0.878154 0.611563 0.094144
O O2 0.777214 0.688798 0.037274
O O3 0.862064 0.627066 0.916122
O O4 0.764318 0.563327 0.005733
O O5 0.556535 0.966466 0.930961
O O6 0.408244 0.688127 0.723418
O O7 0.314566 0.768195 0.663519
O O8 0.250000 0.515918 0.750000
O O9 0.117725 0.567552 0.741038
O O10 0.130758 0.450372 0.771543
O O11 0.172432 0.498111 0.600283
O O12 0.508312 0.607235 0.680937
#
# Coordination Sequence:
#
# PCOD9329317 Si02
#       8
#    16   4   8  16  16  16   8   8
#     4  11  19  35  59  89 115 149 195 244 296 339
#     4  12  18  36  60  94 110 148 186 250 290 338
#     4   9  20  34  54  82 115 154 192 234 293 344
#     4  12  22  35  57  89 120 146 187 243 299 349
#     4  11  20  36  58  83 115 150 192 245 291 340
#     4  12  21  35  60  88 116 146 194 246 292 342
#     4   9  20  34  56  85 120 148 192 245 291 350
#     4  12  23  34  58  88 119 152 188 238 295 354
#
# _framework density 4.0564369999999998
#
# number of rings (size 3 to 8) (size 9 to 14) (size 15 to 20)
#    0.000    0.870    6.957    1.565    2.435    0.000 
#    0.000    3.478    0.000    5.217    0.000    0.000 
#    0.000    0.000    0.000    0.000    0.000    0.000 
#
# Total GULP energy -128106.979577 kJ/mol
# GULP energy per Si atom -5569.868677 kJ/mol
# Density = 0.404720 g / cm^3
# Si number density = 4.056437 Si / 1000 Ang^3
#
#
#
# Elastic Constant Matrix: (Units=GPa)
#
#
# Indices 1 2 3 4 5 6 
#
# 1 112.2589 63.1830 62.7822 0.0000 0.0000 0.0000
# 2 63.1830 102.9976 57.5611 0.0000 0.0000 0.0000
# 3 62.7822 57.5611 147.9642 0.0000 0.0000 0.0000
# 4 0.0000 0.0000 0.0000 31.4368 0.0000 0.0000
# 5 0.0000 0.0000 0.0000 0.0000 33.8268 0.0000
# 6 0.0000 0.0000 0.0000 0.0000 0.0000 22.0410
#
#
#
# Elastic Compliance Matrix: (Units=1/GPa)
#
#
# Indices 1 2 3 4 5 6 
#
# 1 0.014929 -0.007179 -0.003542 0.000000 0.000000 0.000000
# 2 -0.007179 0.015858 -0.003123 0.000000 0.000000 0.000000
# 3 -0.003542 -0.003123 0.009476 0.000000 0.000000 0.000000
# 4 0.000000 0.000000 0.000000 0.031810 0.000000 0.000000
# 5 0.000000 0.000000 0.000000 0.000000 0.029562 0.000000
# 6 0.000000 0.000000 0.000000 0.000000 0.000000 0.045370
#
#
# Mechanical properties :
#
#
# Convention : Reuss Voigt Hill
#
# Bulk Modulus (GPa) = 79.51679 81.14148 80.32914
# Shear Modulus (GPa) = 27.95084 29.44055 28.69569
#
# Velocity S-wave (km/s) = 4.15495 4.26424 4.20995
# Velocity P-wave (km/s) = 8.49300 8.62330 8.55840
#
# Compressibility (1/GPa) = 0.01257596
#
# Stress axis : x y z
#
# Youngs Moduli (GPa) = 66.98237 63.05917 105.52763
#
# Poissons Ratio (x) = 0.45269 0.37377
# Poissons Ratio (y) = 0.48085 0.32957
# Poissons Ratio (z) = 0.23724 0.19694
#
# Static dielectric constant tensor:
#      x y z
#    x 1.571810 0.000000 0.000000 
#    y 0.000000 1.562630 0.000000 
#    z 0.000000 0.000000 1.547750 
# 
# From -- ./inp_files/30770.got.cif
#   From: 2010.05.17/outbox.ucp.g08.bks.cvg/sg22_16_cif.got.tgz:30770.got - 2010.06.11 15:16:44.
