data_PCOD9329306
_publ_section_title
;
Structure prediction by ZEFSAII (Michael W. Deem and Ramdas Pophale) SiO2 
 PCOD9329306
Probable space group: F 2 2 2
;
_chemical_formula_sum "Si O2"
_cell_formula_units_Z 26
_cell_length_a 27.000000
_cell_length_b 9.000000
_cell_length_c 21.000000
_cell_angle_alpha 90.000000
_cell_angle_beta 90.000000
_cell_angle_gamma 90.000000
_cell_volume 5103.000000
_symmetry_space_group_name_H-M "F 2 2 2"
_symmetry_group_IT_number 22
_symmetry_cell_setting 'orthorhombic'
loop_
_space_group_symop_operation_xyz
x,y,z
-x,-y,z
x,-y,-z
-x,y,-z
x,1/2+y,1/2+z
-x,1/2-y,1/2+z
x,1/2-y,1/2-z
-x,1/2+y,1/2-z
1/2+x,y,1/2+z
1/2-x,-y,1/2+z
1/2+x,-y,1/2-z
1/2-x,y,1/2-z
1/2+x,1/2+y,z
1/2-x,1/2-y,z
1/2+x,1/2-y,-z
1/2-x,1/2+y,-z
loop_
_atom_site_type_symbol
_atom_site_label
_atom_site_fract_x
_atom_site_fract_y
_atom_site_fract_z
Si Si1 0.156970 0.142018 0.532533
Si Si2 0.444782 0.917872 0.111788
Si Si3 0.553887 0.437898 0.119326
Si Si4 0.291622 0.969035 0.696875
Si Si5 0.846097 0.089417 0.938232
Si Si6 0.250000 0.750000 0.121105
Si Si7 0.103482 0.070276 0.747882
O O1 0.105279 0.083631 0.565956
O O2 0.144276 0.254796 0.474373
O O3 0.199573 0.209746 0.580173
O O4 0.181617 0.000000 0.500000
O O5 0.452520 0.739875 0.114123
O O6 0.422755 0.969047 0.180748
O O7 0.500000 0.000000 0.099018
O O8 0.500000 0.500000 0.100800
O O9 0.602132 0.503812 0.081183
O O10 0.567976 0.471707 0.192934
O O11 0.250000 0.913073 0.750000
O O12 0.265987 0.114722 0.666681
O O13 0.342229 0.001480 0.736909
O O14 0.313316 0.897255 0.627996
O O15 0.823451 0.000000 0.000000
O O16 0.109776 0.250000 0.750000
#
# Coordination Sequence:
#
# PCOD9329306 Si02
#       7
#    16  16  16  16  16   8  16
#     4  12  28  45  68 105 145 198 253 312 382 460
#     4  11  23  42  66 101 148 189 244 313 381 448
#     4  10  21  38  69  99 130 189 243 301 374 454
#     4  11  21  37  74 110 139 183 248 313 376 457
#     4  11  22  46  66  98 147 188 245 306 378 465
#     4  12  23  42  74 106 145 200 248 312 393 460
#     4   9  18  37  61  97 141 180 239 305 374 448
#
# _framework density 5.0950420000000003
#
# number of rings (size 3 to 8) (size 9 to 14) (size 15 to 20)
#    0.000    1.231    3.077    4.385    4.308    0.615 
#    0.000    0.000    0.000    6.462    0.000    0.000 
#    0.000    0.000    0.000    0.000    0.000    0.000 
#
# Total GULP energy -144788.551310 kJ/mol
# GULP energy per Si atom -5568.790435 kJ/mol
# Density = 0.508345 g / cm^3
# Si number density = 5.095042 Si / 1000 Ang^3
#
#
#
# Elastic Constant Matrix: (Units=GPa)
#
#
# Indices 1 2 3 4 5 6 
#
# 1 151.7290 23.9138 46.4196 0.0000 0.0000 0.0000
# 2 23.9138 78.4981 36.6391 0.0000 0.0000 0.0000
# 3 46.4196 36.6391 138.6756 0.0000 0.0000 0.0000
# 4 0.0000 0.0000 0.0000 33.0498 0.0000 0.0000
# 5 0.0000 0.0000 0.0000 0.0000 40.6215 0.0000
# 6 0.0000 0.0000 0.0000 0.0000 0.0000 30.5903
#
#
#
# Elastic Compliance Matrix: (Units=1/GPa)
#
#
# Indices 1 2 3 4 5 6 
#
# 1 0.007451 -0.001261 -0.002161 0.000000 0.000000 0.000000
# 2 -0.001261 0.014745 -0.003473 0.000000 0.000000 0.000000
# 3 -0.002161 -0.003473 0.008852 0.000000 0.000000 0.000000
# 4 0.000000 0.000000 0.000000 0.030257 0.000000 0.000000
# 5 0.000000 0.000000 0.000000 0.000000 0.024618 0.000000
# 6 0.000000 0.000000 0.000000 0.000000 0.000000 0.032690
#
#
# Mechanical properties :
#
#
# Convention : Reuss Voigt Hill
#
# Bulk Modulus (GPa) = 57.94953 64.76084 61.35518
# Shear Modulus (GPa) = 36.19120 38.31433 37.25276
#
# Velocity S-wave (km/s) = 4.21860 4.34058 4.28002
# Velocity P-wave (km/s) = 7.22667 7.54760 7.38888
#
# Compressibility (1/GPa) = 0.01725640
#
# Stress axis : x y z
#
# Youngs Moduli (GPa) = 134.21868 67.82135 112.96802
#
# Poissons Ratio (x) = 0.08554 0.24409
# Poissons Ratio (y) = 0.16928 0.39239
# Poissons Ratio (z) = 0.29001 0.23557
#
# Static dielectric constant tensor:
#      x y z
#    x 1.738110 0.000000 0.000000 
#    y 0.000000 1.787890 0.000000 
#    z 0.000000 0.000000 1.766430 
# 
# From -- ./inp_files/45809.got.cif
#   From: 2010.05.17/outbox.ucp.g08.bks.cvg/sg22_23_cif.got.tgz:45809.got - 2010.06.11 15:16:44.
