data_PCOD9329455
_publ_section_title
;
Structure prediction by ZEFSAII (Michael W. Deem and Ramdas Pophale) SiO2 
 PCOD9329455
Probable space group: I 2 2 2
;
_chemical_formula_sum "Si O2"
_cell_formula_units_Z 48
_cell_length_a 16.218803
_cell_length_b 8.872381
_cell_length_c 15.543923
_cell_angle_alpha 90.000000
_cell_angle_beta 90.000000
_cell_angle_gamma 90.000000
_cell_volume 2236.761187
_symmetry_space_group_name_H-M "I 2 2 2"
_symmetry_group_IT_number 23
_symmetry_cell_setting 'orthorhombic'
loop_
_space_group_symop_operation_xyz
x,y,z
-x,-y,z
x,-y,-z
-x,y,-z
1/2+x,1/2+y,1/2+z
1/2-x,1/2-y,1/2+z
1/2+x,1/2-y,1/2-z
1/2-x,1/2+y,1/2-z
loop_
_atom_site_type_symbol
_atom_site_label
_atom_site_fract_x
_atom_site_fract_y
_atom_site_fract_z
Si Si1 0.830147 0.315146 0.283374
Si Si2 0.500000 0.500000 0.179980
Si Si3 0.000000 0.000000 0.000000
Si Si4 0.719326 0.334115 0.036816
Si Si5 0.321771 0.471352 0.784243
Si Si6 0.608487 0.249988 0.589752
Si Si7 0.500000 0.000000 0.500000
Si Si8 0.064858 0.716078 0.430323
O O1 0.748876 0.417445 0.280237
O O2 0.869977 0.284277 0.189505
O O3 0.897958 0.376915 0.350246
O O4 0.804401 0.144776 0.309518
O O5 0.418960 0.535969 0.235942
O O6 0.524568 0.637850 0.117051
O O7 0.944356 0.106001 0.061443
O O8 0.689233 0.364338 0.133667
O O9 0.803607 0.242447 0.041382
O O10 0.737724 0.500000 0.000000
O O11 0.645388 0.262413 0.984212
O O12 0.557587 0.106612 0.556786
O O13 0.000000 0.659153 0.500000
#
# Coordination Sequence:
#
# PCOD9329455 Si02
#       8
#     8   4   2   8   8   8   2   8
#     4  10  23  38  60  99 133 168 225 273 345 395
#     4  10  17  31  61  96 126 157 228 273 323 387
#     4  10  24  48  58  90 132 170 236 270 358 404
#     4  11  17  34  62  93 122 170 223 266 334 397
#     4  10  21  37  58  95 133 170 218 278 328 402
#     4  10  23  40  64  95 123 178 221 289 336 412
#     4  10  20  42  72  82 120 170 240 278 324 406
#     4  11  19  34  63 101 128 170 220 286 330 391
#
# _framework density 21.459599000000001
#
# number of rings (size 3 to 8) (size 9 to 14) (size 15 to 20)
#    0.000    1.667    5.833    0.250    0.000    4.000 
#    0.000   10.000    0.000    0.000   13.000    0.000 
#    0.000    0.000    0.000    0.000    0.000    0.000 
#
# Total GULP energy -133941.133160 kJ/mol
# GULP energy per Si atom -5580.880548 kJ/mol
# Density = 2.141076 g / cm^3
# Si number density = 21.459599 Si / 1000 Ang^3
#
#
#
# Elastic Constant Matrix: (Units=GPa)
#
#
# Indices 1 2 3 4 5 6 
#
# 1 193.5679 55.1519 71.2728 0.0000 0.0000 0.0000
# 2 55.1519 60.0806 18.3133 0.0000 0.0000 0.0000
# 3 71.2728 18.3133 101.0531 0.0000 0.0000 0.0000
# 4 0.0000 0.0000 0.0000 16.1680 0.0000 0.0000
# 5 0.0000 0.0000 0.0000 0.0000 42.4197 0.0000
# 6 0.0000 0.0000 0.0000 0.0000 0.0000 26.6034
#
#
#
# Elastic Compliance Matrix: (Units=1/GPa)
#
#
# Indices 1 2 3 4 5 6 
#
# 1 0.008939 -0.006651 -0.005099 0.000000 0.000000 0.000000
# 2 -0.006651 0.022567 0.000601 0.000000 0.000000 0.000000
# 3 -0.005099 0.000601 0.013383 0.000000 0.000000 0.000000
# 4 0.000000 0.000000 0.000000 0.061851 0.000000 0.000000
# 5 0.000000 0.000000 0.000000 0.000000 0.023574 0.000000
# 6 0.000000 0.000000 0.000000 0.000000 0.000000 0.037589
#
#
# Mechanical properties :
#
#
# Convention : Reuss Voigt Hill
#
# Bulk Modulus (GPa) = 44.26586 71.57529 57.92058
# Shear Modulus (GPa) = 25.28700 31.03581 28.16140
#
# Velocity S-wave (km/s) = 3.43644 3.80708 3.62650
# Velocity P-wave (km/s) = 6.03472 7.26299 6.67716
#
# Compressibility (1/GPa) = 0.02259077
#
# Stress axis : x y z
#
# Youngs Moduli (GPa) = 111.87248 44.31346 74.72046
#
# Poissons Ratio (x) = 0.29474 0.38101
# Poissons Ratio (y) = 0.74408 -0.04494
# Poissons Ratio (z) = 0.57045 -0.02665
#
# Static dielectric constant tensor:
#      x y z
#    x 1.798560 0.000000 0.000000 
#    y 0.000000 1.776470 0.000000 
#    z 0.000000 0.000000 1.847290 
# 
# From -- ./inp_files/22063.got.cif
#   From: 2010.05.17/outbox.cif.g08.bks.cpg/sg23_12_cif.got.tgz:22063.got - 2010.06.04 12:02:01.
