data_PCOD9329013
_publ_section_title
;
Structure prediction by ZEFSAII (Michael W. Deem and Ramdas Pophale) SiO2 
 PCOD9329013
Probable space group: F 2 2 2
;
_chemical_formula_sum "Si O2"
_cell_formula_units_Z 116
_cell_length_a 16.697623
_cell_length_b 18.064287
_cell_length_c 18.875949
_cell_angle_alpha 90.000000
_cell_angle_beta 90.000000
_cell_angle_gamma 90.000000
_cell_volume 5693.564843
_symmetry_space_group_name_H-M "F 2 2 2"
_symmetry_group_IT_number 22
_symmetry_cell_setting 'orthorhombic'
loop_
_space_group_symop_operation_xyz
x,y,z
-x,-y,z
x,-y,-z
-x,y,-z
x,1/2+y,1/2+z
-x,1/2-y,1/2+z
x,1/2-y,1/2-z
-x,1/2+y,1/2-z
1/2+x,y,1/2+z
1/2-x,-y,1/2+z
1/2+x,-y,1/2-z
1/2-x,y,1/2-z
1/2+x,1/2+y,z
1/2-x,1/2-y,z
1/2+x,1/2-y,-z
1/2-x,1/2+y,-z
loop_
_atom_site_type_symbol
_atom_site_label
_atom_site_fract_x
_atom_site_fract_y
_atom_site_fract_z
Si Si1 0.014115 0.086037 0.084153
Si Si2 0.449530 0.181890 0.072284
Si Si3 0.841722 0.318121 0.622741
Si Si4 0.371992 0.836230 0.334857
Si Si5 0.601530 0.169826 0.167213
Si Si6 0.750000 0.250000 0.750000
Si Si7 0.706700 0.094384 0.940241
Si Si8 0.270672 0.564871 0.395441
O O1 0.100880 0.111183 0.111362
O O2 0.949139 0.136442 0.122859
O O3 0.000000 0.000000 0.100312
O O4 0.000000 0.095570 0.000000
O O5 0.395007 0.252791 0.089795
O O6 0.512207 0.171772 0.136180
O O7 0.386772 0.114809 0.063719
O O8 0.500000 0.191498 0.000000
O O9 0.809821 0.297604 0.700624
O O10 0.759975 0.336634 0.582827
O O11 0.391405 0.838577 0.251479
O O12 0.358133 0.749395 0.352003
O O13 0.300283 0.891121 0.356202
O O14 0.648709 0.102727 0.132081
O O15 0.726575 0.023881 0.890772
O O16 0.732368 0.078781 0.020558
#
# Coordination Sequence:
#
# PCOD9329013 Si02
#       8
#    16  16  16  16  16   4  16  16
#     4  11  24  43  71 105 137 178 229 298 351 413
#     4  12  24  44  73 104 136 184 239 287 350 408
#     4  12  25  45  70 100 139 184 234 285 349 417
#     4  11  24  43  69 101 137 181 231 290 344 412
#     4  11  25  43  69 101 140 180 231 289 347 411
#     4  12  28  44  72  96 144 194 232 288 336 432
#     4  11  25  45  70 102 140 181 229 292 346 414
#     4  11  24  45  69 101 136 181 229 286 349 414
#
# _framework density 20.373878999999999
#
# number of rings (size 3 to 8) (size 9 to 14) (size 15 to 20)
#    0.000    0.690    4.138    2.897    3.862    4.966 
#    7.448    0.000    0.000    0.000    0.000    0.000 
#    0.000    0.000    0.000    0.000    0.000    0.000 
#
# Total GULP energy -162077.654176 kJ/mol
# GULP energy per Si atom -5588.884627 kJ/mol
# Density = 2.032751 g / cm^3
# Si number density = 20.373879 Si / 1000 Ang^3
#
#
#
# Elastic Constant Matrix: (Units=GPa)
#
#
# Indices 1 2 3 4 5 6 
#
# 1 140.8226 59.1393 45.6740 0.0000 0.0000 0.0000
# 2 59.1393 103.6670 55.9755 0.0000 0.0000 0.0000
# 3 45.6740 55.9755 87.0241 0.0000 0.0000 0.0000
# 4 0.0000 0.0000 0.0000 40.7444 0.0000 0.0000
# 5 0.0000 0.0000 0.0000 0.0000 47.1998 0.0000
# 6 0.0000 0.0000 0.0000 0.0000 0.0000 69.6339
#
#
#
# Elastic Compliance Matrix: (Units=1/GPa)
#
#
# Indices 1 2 3 4 5 6 
#
# 1 0.009638 -0.004239 -0.002332 0.000000 0.000000 0.000000
# 2 -0.004239 0.016644 -0.008481 0.000000 0.000000 0.000000
# 3 -0.002332 -0.008481 0.018170 0.000000 0.000000 0.000000
# 4 0.000000 0.000000 0.000000 0.024543 0.000000 0.000000
# 5 0.000000 0.000000 0.000000 0.000000 0.021187 0.000000
# 6 0.000000 0.000000 0.000000 0.000000 0.000000 0.014361
#
#
# Mechanical properties :
#
#
# Convention : Reuss Voigt Hill
#
# Bulk Modulus (GPa) = 69.69441 72.56570 71.13006
# Shear Modulus (GPa) = 35.86104 42.89728 39.37916
#
# Velocity S-wave (km/s) = 4.19996 4.59356 4.40116
# Velocity P-wave (km/s) = 7.60273 7.98929 7.79841
#
# Compressibility (1/GPa) = 0.01434835
#
# Stress axis : x y z
#
# Youngs Moduli (GPa) = 103.76076 60.08274 55.03653
#
# Poissons Ratio (x) = 0.25469 0.12832
# Poissons Ratio (y) = 0.43984 0.46675
# Poissons Ratio (z) = 0.24193 0.50955
#
# Static dielectric constant tensor:
#      x y z
#    x 1.687660 0.000000 0.000000 
#    y 0.000000 1.797580 0.000000 
#    z 0.000000 0.000000 1.657380 
# 
# From -- ./inp_files/38164.got.cif
#   From: 2010.05.17/outbox.cif.g08.bks.cpg/sg22_20_cif.got.tgz:38164.got - 2010.06.03 23:40:54.
