data_PCOD9329742
_publ_section_title
;
Structure prediction by ZEFSAII (Michael W. Deem and Ramdas Pophale) SiO2 
 PCOD9329742
Probable space group: I 2 2 2
;
_chemical_formula_sum "Si O2"
_cell_formula_units_Z 36
_cell_length_a 11.265521
_cell_length_b 5.210125
_cell_length_c 32.449022
_cell_angle_alpha 90.000000
_cell_angle_beta 90.000000
_cell_angle_gamma 90.000000
_cell_volume 1904.587967
_symmetry_space_group_name_H-M "I 2 2 2"
_symmetry_group_IT_number 23
_symmetry_cell_setting 'orthorhombic'
loop_
_space_group_symop_operation_xyz
x,y,z
-x,-y,z
x,-y,-z
-x,y,-z
1/2+x,1/2+y,1/2+z
1/2-x,1/2-y,1/2+z
1/2+x,1/2-y,1/2-z
1/2-x,1/2+y,1/2-z
loop_
_atom_site_type_symbol
_atom_site_label
_atom_site_fract_x
_atom_site_fract_y
_atom_site_fract_z
Si Si1 0.500000 0.500000 0.715385
Si Si2 0.214270 0.916441 0.844739
Si Si3 0.320356 0.195268 0.235100
Si Si4 0.634696 0.244821 0.518658
Si Si5 0.363576 0.929645 0.612714
O O1 0.600979 0.612072 0.685713
O O2 0.441958 0.717126 0.743909
O O3 0.322338 0.866628 0.813496
O O4 0.203723 0.699602 0.879926
O O5 0.197872 0.206419 0.860558
O O6 0.237838 0.447293 0.243196
O O7 0.689712 0.500000 0.500000
O O8 0.500000 0.246687 0.500000
O O9 0.629672 0.195137 0.567139
O O10 0.698425 0.000000 0.500000
O O11 0.500000 0.000000 0.623489
#
# Coordination Sequence:
#
# PCOD9329742 Si02
#       5
#     4   8   8   8   8
#     4  10  20  36  54  68 101 138 173 222 274 292
#     4  11  22  32  50  73  97 130 183 213 254 309
#     4  10  22  36  50  74  98 131 178 227 264 312
#     4  10  19  29  42  63  93 126 168 196 230 302
#     4  12  20  32  47  70  98 136 166 212 253 287
#
# _framework density 18.901726
#
# number of rings (size 3 to 8) (size 9 to 14) (size 15 to 20)
#    0.000    1.333    4.444    4.000    3.111    2.667 
#    0.000    0.000    0.000    0.000    0.000    0.000 
#    0.000    0.000    0.000   15.000    0.000    5.333 
#
# Total GULP energy -100290.576982 kJ/mol
# GULP energy per Si atom -5571.698721 kJ/mol
# Density = 1.885870 g / cm^3
# Si number density = 18.901726 Si / 1000 Ang^3
#
#
#
# Elastic Constant Matrix: (Units=GPa)
#
#
# Indices 1 2 3 4 5 6 
#
# 1 12.3233 2.1292 5.0610 0.0000 0.0000 0.0000
# 2 2.1292 161.3948 22.2568 0.0000 0.0000 0.0000
# 3 5.0610 22.2568 81.2104 0.0000 0.0000 0.0000
# 4 0.0000 0.0000 0.0000 31.2379 0.0000 0.0000
# 5 0.0000 0.0000 0.0000 0.0000 17.7516 0.0000
# 6 0.0000 0.0000 0.0000 0.0000 0.0000 21.4672
#
#
#
# Elastic Compliance Matrix: (Units=1/GPa)
#
#
# Indices 1 2 3 4 5 6 
#
# 1 0.083303 -0.000398 -0.005082 0.000000 0.000000 0.000000
# 2 -0.000398 0.006441 -0.001741 0.000000 0.000000 0.000000
# 3 -0.005082 -0.001741 0.013107 0.000000 0.000000 0.000000
# 4 0.000000 0.000000 0.000000 0.032012 0.000000 0.000000
# 5 0.000000 0.000000 0.000000 0.000000 0.056333 0.000000
# 6 0.000000 0.000000 0.000000 0.000000 0.000000 0.046583
#
#
# Mechanical properties :
#
#
# Convention : Reuss Voigt Hill
#
# Bulk Modulus (GPa) = 11.31094 34.86918 23.09006
# Shear Modulus (GPa) = 17.74992 29.12346 23.43669
#
# Velocity S-wave (km/s) = 3.06774 3.92954 3.52507
# Velocity P-wave (km/s) = 4.30640 6.25108 5.36755
#
# Compressibility (1/GPa) = 0.08840999
#
# Stress axis : x y z
#
# Youngs Moduli (GPa) = 12.00435 155.24911 76.29266
#
# Poissons Ratio (x) = 0.06181 0.38774
# Poissons Ratio (y) = 0.00478 0.13279
# Poissons Ratio (z) = 0.06101 0.27021
#
# Static dielectric constant tensor:
#      x y z
#    x 1.692400 0.000000 0.000000 
#    y 0.000000 1.684660 0.000000 
#    z 0.000000 0.000000 1.738150 
# 
# From -- ./inp_files/30402.got.cif
#   From: 2010.05.17/outbox.cif.g08.bks.cpg/sg23_16_cif.got.tgz:30402.got - 2010.06.04 12:02:01.
