data_PCOD9329952
_publ_section_title
;
Structure prediction by ZEFSAII (Michael W. Deem and Ramdas Pophale) SiO2 
 PCOD9329952
Probable space group: I 2 2 2
;
_chemical_formula_sum "Si O2"
_cell_formula_units_Z 56
_cell_length_a 18.313276
_cell_length_b 5.238671
_cell_length_c 33.470709
_cell_angle_alpha 90.000000
_cell_angle_beta 90.000000
_cell_angle_gamma 90.000000
_cell_volume 3211.087037
_symmetry_space_group_name_H-M "I 2 2 2"
_symmetry_group_IT_number 23
_symmetry_cell_setting 'orthorhombic'
loop_
_space_group_symop_operation_xyz
x,y,z
-x,-y,z
x,-y,-z
-x,y,-z
1/2+x,1/2+y,1/2+z
1/2-x,1/2-y,1/2+z
1/2+x,1/2-y,1/2-z
1/2-x,1/2+y,1/2-z
loop_
_atom_site_type_symbol
_atom_site_label
_atom_site_fract_x
_atom_site_fract_y
_atom_site_fract_z
Si Si1 0.585727 0.509454 0.312688
Si Si2 0.776022 0.506438 0.916141
Si Si3 0.797745 0.040126 0.742820
Si Si4 0.914415 0.509647 0.133889
Si Si5 0.654768 0.502524 0.151427
Si Si6 0.706865 0.991585 0.046898
Si Si7 0.414031 0.000590 0.885985
O O1 0.500000 0.500000 0.301648
O O2 0.636948 0.488102 0.274451
O O3 0.599651 0.271289 0.342138
O O4 0.599765 0.770928 0.336660
O O5 0.859910 0.506240 0.903205
O O6 0.728694 0.495972 0.875091
O O7 0.752048 0.260320 0.941273
O O8 0.751866 0.760549 0.939107
O O9 0.740477 0.813636 0.751492
O O10 0.826160 0.011888 0.697770
O O11 0.000000 0.500000 0.122864
O O12 0.609797 0.256046 0.137116
O O13 0.610687 0.756778 0.139925
O O14 0.632964 0.989260 0.073237
O O15 0.691985 0.000000 0.000000
O O16 0.500000 0.000000 0.893391
#
# Coordination Sequence:
#
# PCOD9329952 Si02
#       7
#     8   8   8   8   8   8   8
#     4  10  21  35  52  78 109 140 178 226 269 306
#     4  10  19  35  57  78 107 137 174 217 260 318
#     4  12  23  36  55  78 107 144 186 226 268 311
#     4  10  20  36  58  80 104 137 178 220 264 314
#     4  10  21  35  53  79 106 143 182 221 266 311
#     4  10  21  36  57  83 108 138 172 212 264 314
#     4  10  21  37  56  79 108 142 181 219 259 314
#
# _framework density 17.439578999999998
#
# number of rings (size 3 to 8) (size 9 to 14) (size 15 to 20)
#    0.000    1.714    0.000    5.143    0.000    3.714 
#    0.000    1.429    0.000    7.714    0.000    0.000 
#    0.000    0.000    0.000    0.000    0.000    0.000 
#
# Total GULP energy -156459.948490 kJ/mol
# GULP energy per Si atom -5587.855303 kJ/mol
# Density = 1.739989 g / cm^3
# Si number density = 17.439579 Si / 1000 Ang^3
#
#
#
# Elastic Constant Matrix: (Units=GPa)
#
#
# Indices 1 2 3 4 5 6 
#
# 1 74.2280 17.7308 52.0521 0.0000 0.0000 0.0000
# 2 17.7308 82.6679 4.2329 0.0000 0.0000 0.0000
# 3 52.0521 4.2329 99.2610 0.0000 0.0000 0.0000
# 4 0.0000 0.0000 0.0000 2.3260 0.0000 0.0000
# 5 0.0000 0.0000 0.0000 0.0000 12.2288 0.0000
# 6 0.0000 0.0000 0.0000 0.0000 0.0000 38.6265
#
#
#
# Elastic Compliance Matrix: (Units=1/GPa)
#
#
# Indices 1 2 3 4 5 6 
#
# 1 0.022719 -0.004272 -0.011732 0.000000 0.000000 0.000000
# 2 -0.004272 0.012926 0.001689 0.000000 0.000000 0.000000
# 3 -0.011732 0.001689 0.016155 0.000000 0.000000 0.000000
# 4 0.000000 0.000000 0.000000 0.429918 0.000000 0.000000
# 5 0.000000 0.000000 0.000000 0.000000 0.081774 0.000000
# 6 0.000000 0.000000 0.000000 0.000000 0.000000 0.025889
#
#
# Mechanical properties :
#
#
# Convention : Reuss Voigt Hill
#
# Bulk Modulus (GPa) = 43.15823 44.90983 44.03403
# Shear Modulus (GPa) = 7.99060 22.77901 15.38481
#
# Velocity S-wave (km/s) = 2.14285 3.61801 2.97337
# Velocity P-wave (km/s) = 5.56089 6.57731 6.09034
#
# Compressibility (1/GPa) = 0.02317055
#
# Stress axis : x y z
#
# Youngs Moduli (GPa) = 44.01527 77.36093 61.90218
#
# Poissons Ratio (x) = 0.33050 0.72622
# Poissons Ratio (y) = 0.18804 -0.10456
# Poissons Ratio (z) = 0.51638 -0.13067
#
# Static dielectric constant tensor:
#      x y z
#    x 1.580450 0.000000 0.000000 
#    y 0.000000 1.586570 0.000000 
#    z 0.000000 0.000000 1.546410 
# 
# From -- ./inp_files/2748.got.cif
#   From: 2010.05.17/outbox.cif.g08.bks.cpg/sg23_2_cif.got.tgz:2748.got - 2010.06.04 12:02:01.
