data_PCOD9329752
_publ_section_title
;
Structure prediction by ZEFSAII (Michael W. Deem and Ramdas Pophale) SiO2 
 PCOD9329752
Probable space group: I 2 2 2
;
_chemical_formula_sum "Si O2"
_cell_formula_units_Z 64
_cell_length_a 23.500769
_cell_length_b 21.639550
_cell_length_c 5.151666
_cell_angle_alpha 90.000000
_cell_angle_beta 90.000000
_cell_angle_gamma 90.000000
_cell_volume 2619.859477
_symmetry_space_group_name_H-M "I 2 2 2"
_symmetry_group_IT_number 23
_symmetry_cell_setting 'orthorhombic'
loop_
_space_group_symop_operation_xyz
x,y,z
-x,-y,z
x,-y,-z
-x,y,-z
1/2+x,1/2+y,1/2+z
1/2-x,1/2-y,1/2+z
1/2+x,1/2-y,1/2-z
1/2-x,1/2+y,1/2-z
loop_
_atom_site_type_symbol
_atom_site_label
_atom_site_fract_x
_atom_site_fract_y
_atom_site_fract_z
Si Si1 0.220568 0.359312 0.582351
Si Si2 0.393508 0.728812 0.069334
Si Si3 0.582903 0.856944 0.076314
Si Si4 0.419568 0.069019 0.571220
Si Si5 0.871007 0.936598 0.923931
Si Si6 0.675212 0.299087 0.555807
Si Si7 0.781875 0.567491 0.076839
Si Si8 0.563086 0.591019 0.912549
O O1 0.152366 0.352697 0.582751
O O2 0.257485 0.300565 0.493804
O O3 0.231212 0.411901 0.366290
O O4 0.238500 0.382167 0.867693
O O5 0.359067 0.738408 0.337184
O O6 0.432054 0.787596 0.002696
O O7 0.348951 0.718832 0.834281
O O8 0.428320 0.665262 0.092729
O O9 0.562646 0.882379 0.351110
O O10 0.566345 0.905890 0.855068
O O11 0.350508 0.066698 0.558395
O O12 0.438425 0.000000 0.500000
O O13 0.922904 0.934680 0.129515
O O14 0.840658 0.871572 0.981083
O O15 0.892634 0.933558 0.629101
O O16 0.839848 0.000000 0.000000
O O17 0.760498 0.500000 0.000000
O O18 0.500000 0.575909 0.000000
#
# Coordination Sequence:
#
# PCOD9329752 Si02
#       8
#     8   8   8   8   8   8   8   8
#     4  10  19  30  45  66  90 127 170 199 241 288
#     4  10  21  36  51  70  98 127 160 203 246 292
#     4  10  19  31  50  72  96 130 167 202 240 286
#     4   9  17  30  47  70  99 124 154 199 241 275
#     4  10  21  35  52  76 102 129 164 206 255 305
#     4  10  21  35  47  66  99 132 164 205 245 286
#     4   9  17  28  42  62  88 119 160 205 239 277
#     4  10  21  37  56  76 100 128 160 207 259 304
#
# _framework density 24.428791
#
# number of rings (size 3 to 8) (size 9 to 14) (size 15 to 20)
#    0.000    2.250    0.000    3.000    0.000    6.500 
#    0.000    0.000    0.000    0.000    0.000    0.000 
#    0.000    3.000    0.000    0.000    0.000    0.000 
#
# Total GULP energy -179071.766336 kJ/mol
# GULP energy per Si atom -5595.992698 kJ/mol
# Density = 2.437319 g / cm^3
# Si number density = 24.428791 Si / 1000 Ang^3
#
#
#
# Elastic Constant Matrix: (Units=GPa)
#
#
# Indices 1 2 3 4 5 6 
#
# 1 76.4707 -8.0241 6.8953 0.0000 0.0000 0.0000
# 2 -8.0241 114.2748 5.3624 0.0000 0.0000 0.0000
# 3 6.8953 5.3624 81.2919 0.0000 0.0000 0.0000
# 4 0.0000 0.0000 0.0000 32.7126 0.0000 0.0000
# 5 0.0000 0.0000 0.0000 0.0000 15.0276 0.0000
# 6 0.0000 0.0000 0.0000 0.0000 0.0000 -34.6241
#
#
#
# Elastic Compliance Matrix: (Units=1/GPa)
#
#
# Indices 1 2 3 4 5 6 
#
# 1 0.013288 0.000989 -0.001192 0.000000 0.000000 0.000000
# 2 0.000989 0.008852 -0.000668 0.000000 0.000000 0.000000
# 3 -0.001192 -0.000668 0.012447 0.000000 0.000000 0.000000
# 4 0.000000 0.000000 0.000000 0.030569 0.000000 0.000000
# 5 0.000000 0.000000 0.000000 0.000000 0.066544 0.000000
# 6 0.000000 0.000000 0.000000 0.000000 0.000000 -0.028882
#
#
# Mechanical properties :
#
#
# Convention : Reuss Voigt Hill
#
# Bulk Modulus (GPa) = 30.44690 31.16720 30.80705
# Shear Modulus (GPa) = 43.28694 20.47682 31.88188
#
# Velocity S-wave (km/s) = 4.21404 2.89835 3.61653
# Velocity P-wave (km/s) = 6.01399 4.89762 5.48428
#
# Compressibility (1/GPa) = 0.03284406
#
# Stress axis : x y z
#
# Youngs Moduli (GPa) = 75.25481 112.97374 80.34367
#
# Poissons Ratio (x) = -0.11173 0.09580
# Poissons Ratio (y) = -0.07443 0.05365
# Poissons Ratio (z) = 0.08973 0.07544
#
# Static dielectric constant tensor:
#      x y z
#    x 1.983870 0.000000 0.000000 
#    y 0.000000 1.955410 0.000000 
#    z 0.000000 0.000000 1.892510 
# 
# From -- ./inp_files/5077.got.cif
#   From: 2010.05.17/outbox.cif.g08.bks.cpg/sg23_3_cif.got.tgz:5077.got - 2010.06.04 12:02:01.
