data_PCOD9329052
_publ_section_title
;
Structure prediction by ZEFSAII (Michael W. Deem and Ramdas Pophale) SiO2 
 PCOD9329052
Probable space group: F 2 2 2
;
_chemical_formula_sum "Si O2"
_cell_formula_units_Z 72
_cell_length_a 24.259051
_cell_length_b 7.208208
_cell_length_c 18.519867
_cell_angle_alpha 90.000000
_cell_angle_beta 90.000000
_cell_angle_gamma 90.000000
_cell_volume 3238.463310
_symmetry_space_group_name_H-M "F 2 2 2"
_symmetry_group_IT_number 22
_symmetry_cell_setting 'orthorhombic'
loop_
_space_group_symop_operation_xyz
x,y,z
-x,-y,z
x,-y,-z
-x,y,-z
x,1/2+y,1/2+z
-x,1/2-y,1/2+z
x,1/2-y,1/2-z
-x,1/2+y,1/2-z
1/2+x,y,1/2+z
1/2-x,-y,1/2+z
1/2+x,-y,1/2-z
1/2-x,y,1/2-z
1/2+x,1/2+y,z
1/2-x,1/2-y,z
1/2+x,1/2-y,-z
1/2-x,1/2+y,-z
loop_
_atom_site_type_symbol
_atom_site_label
_atom_site_fract_x
_atom_site_fract_y
_atom_site_fract_z
Si Si1 0.850776 0.500000 0.500000
Si Si2 0.176124 0.542644 0.190182
Si Si3 0.557107 0.383509 0.681184
Si Si4 0.706533 0.977326 0.651948
Si Si5 0.940245 0.784968 0.477328
O O1 0.818249 0.474962 0.574612
O O2 0.890555 0.674614 0.511654
O O3 0.112022 0.509842 0.175527
O O4 0.229202 0.462402 0.148536
O O5 0.191433 0.758687 0.171154
O O6 0.183379 0.456502 0.270967
O O7 0.500000 0.500000 0.680207
O O8 0.557820 0.250000 0.750000
O O9 0.561011 0.264672 0.608522
O O10 0.000000 0.716457 0.500000
O O11 0.936706 0.000000 0.500000
#
# Coordination Sequence:
#
# PCOD9329052 Si02
#       5
#     8  16  16  16  16
#     4  12  23  40  72 110 123 180 256 286 336 440
#     4   9  20  44  66  95 143 185 219 288 366 413
#     4  12  26  43  70 106 138 187 242 295 350 429
#     4   9  20  40  71 100 135 182 228 290 355 418
#     4  11  24  46  65  95 149 190 217 296 371 409
#
# _framework density 22.232765000000001
#
# number of rings (size 3 to 8) (size 9 to 14) (size 15 to 20)
#    0.000    1.556    2.222    4.333    3.111    1.778 
#   10.000    6.667    0.000    0.000    0.000    0.000 
#    0.000    0.000    0.000    0.000    0.000    0.000 
#
# Total GULP energy -100247.624993 kJ/mol
# GULP energy per Si atom -5569.312500 kJ/mol
# Density = 2.218216 g / cm^3
# Si number density = 22.232765 Si / 1000 Ang^3
#
#
#
# Elastic Constant Matrix: (Units=GPa)
#
#
# Indices 1 2 3 4 5 6 
#
# 1 222.2944 33.0906 53.6887 0.0000 0.0000 0.0000
# 2 33.0906 62.9756 8.1703 0.0000 0.0001 0.0000
# 3 53.6887 8.1703 115.8605 0.0000 0.0000 0.0000
# 4 0.0000 0.0000 0.0000 22.3021 0.0000 0.0000
# 5 0.0000 0.0001 0.0000 0.0000 -73.5361 -0.0001
# 6 0.0000 0.0000 0.0000 0.0000 -0.0001 12.8232
#
#
#
# Elastic Compliance Matrix: (Units=1/GPa)
#
#
# Indices 1 2 3 4 5 6 
#
# 1 0.005445 -0.002557 -0.002343 0.000000 0.000000 0.000000
# 2 -0.002557 0.017227 -0.000030 0.000000 0.000000 0.000000
# 3 -0.002343 -0.000030 0.009719 0.000000 0.000000 0.000000
# 4 0.000000 0.000000 0.000000 0.044839 0.000000 0.000000
# 5 0.000000 0.000000 0.000000 0.000000 -0.013599 0.000000
# 6 0.000000 0.000000 0.000000 0.000000 0.000000 0.077984
#
#
# Mechanical properties :
#
#
# Convention : Reuss Voigt Hill
#
# Bulk Modulus (GPa) = 44.38355 65.66998 55.02676
# Shear Modulus (GPa) = 31.44966 12.72991 22.08978
#
# Velocity S-wave (km/s) = 3.76515 2.39545 3.15551
# Velocity P-wave (km/s) = 6.23765 6.10348 6.17093
#
# Compressibility (1/GPa) = 0.02253087
#
# Stress axis : x y z
#
# Youngs Moduli (GPa) = 183.65328 58.04947 102.89304
#
# Poissons Ratio (x) = 0.14844 0.24106
# Poissons Ratio (y) = 0.46963 0.00307
# Poissons Ratio (z) = 0.43027 0.00173
#
# Static dielectric constant tensor:
#      x y z
#    x 1.864860 0.000000 0.000000 
#    y 0.000000 1.953110 0.000000 
#    z 0.000000 0.000000 1.803920 
# 
# From -- ./inp_files/39344.got.cif
#   From: 2010.05.17/outbox.cif.g08.bks.cpg/sg22_20_cif.got.tgz:39344.got - 2010.06.03 23:40:54.
