data_PCOD9329161
_publ_section_title
;
Structure prediction by ZEFSAII (Michael W. Deem and Ramdas Pophale) SiO2 
 PCOD9329161
Probable space group: F 2 2 2
;
_chemical_formula_sum "Si O2"
_cell_formula_units_Z 72
_cell_length_a 24.813765
_cell_length_b 9.226305
_cell_length_c 13.655608
_cell_angle_alpha 90.000000
_cell_angle_beta 90.000000
_cell_angle_gamma 90.000000
_cell_volume 3126.306212
_symmetry_space_group_name_H-M "F 2 2 2"
_symmetry_group_IT_number 22
_symmetry_cell_setting 'orthorhombic'
loop_
_space_group_symop_operation_xyz
x,y,z
-x,-y,z
x,-y,-z
-x,y,-z
x,1/2+y,1/2+z
-x,1/2-y,1/2+z
x,1/2-y,1/2-z
-x,1/2+y,1/2-z
1/2+x,y,1/2+z
1/2-x,-y,1/2+z
1/2+x,-y,1/2-z
1/2-x,y,1/2-z
1/2+x,1/2+y,z
1/2-x,1/2-y,z
1/2+x,1/2-y,-z
1/2-x,1/2+y,-z
loop_
_atom_site_type_symbol
_atom_site_label
_atom_site_fract_x
_atom_site_fract_y
_atom_site_fract_z
Si Si1 0.339835 0.250000 0.750000
Si Si2 0.399658 0.250000 0.250000
Si Si3 0.641816 0.145191 0.054209
Si Si4 0.250000 0.750000 0.521833
Si Si5 0.055513 0.664573 0.542794
Si Si6 0.802319 0.552098 0.313909
O O1 0.371357 0.161811 0.832261
O O2 0.309806 0.377862 0.810915
O O3 0.437490 0.291300 0.157065
O O4 0.354969 0.379278 0.238328
O O5 0.705901 0.160900 0.038988
O O6 0.609128 0.270241 0.002617
O O7 0.624811 0.000000 0.000000
O O8 0.214095 0.638341 0.587568
O O9 0.055625 0.500000 0.500000
O O10 0.000000 0.728872 0.500000
O O11 0.750000 0.580786 0.250000
#
# Coordination Sequence:
#
# PCOD9329161 Si02
#       6
#     8   8  16   8  16  16
#     4  12  29  41  68 105 157 192 251 303 360 448
#     4  12  21  47  78 101 145 195 239 308 380 440
#     4  12  28  46  70 111 149 198 247 305 373 444
#     4  12  25  43  74  98 154 198 242 294 370 454
#     4  11  26  49  78 108 143 194 256 309 377 447
#     4  12  22  42  69 104 143 198 245 293 370 447
#
# _framework density 23.030373000000001
#
# number of rings (size 3 to 8) (size 9 to 14) (size 15 to 20)
#    0.000    0.222    4.444    4.333    6.222    1.333 
#    0.000    2.222    0.000    0.000    0.000    0.000 
#    0.000    0.000    0.000    0.000    0.000    0.000 
#
# Total GULP energy -100346.554053 kJ/mol
# GULP energy per Si atom -5574.808559 kJ/mol
# Density = 2.297796 g / cm^3
# Si number density = 23.030373 Si / 1000 Ang^3
#
#
#
# Elastic Constant Matrix: (Units=GPa)
#
#
# Indices 1 2 3 4 5 6 
#
# 1 119.5647 24.1656 38.7929 0.0000 0.0000 0.0000
# 2 24.1656 131.9200 44.8623 0.0000 0.0000 0.0000
# 3 38.7929 44.8623 165.0962 0.0000 0.0000 0.0000
# 4 0.0000 0.0000 0.0000 28.3489 0.0000 0.0000
# 5 0.0000 0.0000 0.0000 0.0000 54.2540 0.0000
# 6 0.0000 0.0000 0.0000 0.0000 0.0000 -303.6542
#
#
#
# Elastic Compliance Matrix: (Units=1/GPa)
#
#
# Indices 1 2 3 4 5 6 
#
# 1 0.009183 -0.001045 -0.001874 0.000000 0.000000 0.000000
# 2 -0.001045 0.008471 -0.002056 0.000000 0.000000 0.000000
# 3 -0.001874 -0.002056 0.007056 0.000000 0.000000 0.000000
# 4 0.000000 0.000000 0.000000 0.035275 0.000000 0.000000
# 5 0.000000 0.000000 0.000000 0.000000 0.018432 0.000000
# 6 0.000000 0.000000 0.000000 0.000000 0.000000 -0.003293
#
#
# Mechanical properties :
#
#
# Convention : Reuss Voigt Hill
#
# Bulk Modulus (GPa) = 67.75093 70.24693 68.99893
# Shear Modulus (GPa) = 55.55965 -23.62625 15.96670
#
# Velocity S-wave (km/s) = 4.91700 -3.20640 2.63589
# Velocity P-wave (km/s) = 7.85607 4.10610 6.26809
#
# Compressibility (1/GPa) = 0.01475994
#
# Stress axis : x y z
#
# Youngs Moduli (GPa) = 108.89919 118.04881 141.72065
#
# Poissons Ratio (x) = 0.12335 0.26555
# Poissons Ratio (y) = 0.11379 0.29143
# Poissons Ratio (z) = 0.20405 0.24275
#
# Static dielectric constant tensor:
#      x y z
#    x 1.796720 0.000000 0.000000 
#    y 0.000000 2.012490 0.000000 
#    z 0.000000 0.000000 9.710160 
# 
# From -- ./inp_files/32968.got.cif
#   From: 2010.05.17/outbox.cif.g08.bks.cpg/sg22_17_cif.got.tgz:32968.got - 2010.06.03 23:40:54.
