data_PCOD9329552
_publ_section_title
;
Structure prediction by ZEFSAII (Michael W. Deem and Ramdas Pophale) SiO2 
 PCOD9329552
Probable space group: I 2 2 2
;
_chemical_formula_sum "Si O2"
_cell_formula_units_Z 48
_cell_length_a 15.764699
_cell_length_b 19.281293
_cell_length_c 8.178558
_cell_angle_alpha 90.000000
_cell_angle_beta 90.000000
_cell_angle_gamma 90.000000
_cell_volume 2485.985409
_symmetry_space_group_name_H-M "I 2 2 2"
_symmetry_group_IT_number 23
_symmetry_cell_setting 'orthorhombic'
loop_
_space_group_symop_operation_xyz
x,y,z
-x,-y,z
x,-y,-z
-x,y,-z
1/2+x,1/2+y,1/2+z
1/2-x,1/2-y,1/2+z
1/2+x,1/2-y,1/2-z
1/2-x,1/2+y,1/2-z
loop_
_atom_site_type_symbol
_atom_site_label
_atom_site_fract_x
_atom_site_fract_y
_atom_site_fract_z
Si Si1 0.226436 0.924647 0.944184
Si Si2 0.354718 0.741963 0.874261
Si Si3 0.911739 0.818951 0.945383
Si Si4 0.249638 0.159593 0.359846
Si Si5 0.908970 0.664587 0.073447
Si Si6 0.409840 0.121819 0.948604
O O1 0.169457 0.867049 0.033480
O O2 0.218550 0.902985 0.754030
O O3 0.325145 0.917177 0.993535
O O4 0.197237 0.000000 0.000000
O O5 0.413623 0.704470 0.742613
O O6 0.281147 0.779122 0.764050
O O7 0.315166 0.692130 0.010496
O O8 0.403675 0.804685 0.958209
O O9 0.902938 0.748545 0.053435
O O10 0.000000 0.852653 0.000000
O O11 0.332688 0.137389 0.461405
O O12 0.903730 0.637724 0.256803
O O13 0.000000 0.645231 0.000000
O O14 0.500000 0.089670 0.000000
#
# Coordination Sequence:
#
# PCOD9329552 Si02
#       6
#     8   8   8   8   8   8
#     4  11  24  39  54  75 108 156 196 224 264 321
#     4  10  18  31  57  88 114 139 174 228 293 341
#     4  10  20  36  57  84 111 139 180 232 285 337
#     4  10  18  32  54  82 116 148 180 225 278 334
#     4  10  18  32  56  88 115 137 173 228 290 340
#     4  11  20  34  57  85 115 145 177 225 281 337
#
# _framework density 19.308240000000001
#
# number of rings (size 3 to 8) (size 9 to 14) (size 15 to 20)
#    0.000    1.667    0.000   11.000    0.000    0.667 
#    0.000    3.333    0.000    1.000    0.000    9.333 
#    0.000    0.000    0.000    0.000    0.000    0.000 
#
# Total GULP energy -134021.817813 kJ/mol
# GULP energy per Si atom -5584.242409 kJ/mol
# Density = 1.926429 g / cm^3
# Si number density = 19.308240 Si / 1000 Ang^3
#
#
#
# Elastic Constant Matrix: (Units=GPa)
#
#
# Indices 1 2 3 4 5 6 
#
# 1 52.8877 3.0568 13.1688 0.0000 0.0000 0.0000
# 2 3.0568 42.2100 33.9885 0.0000 0.0000 0.0000
# 3 13.1688 33.9885 119.8296 0.0000 0.0000 0.0000
# 4 0.0000 0.0000 0.0000 10.8430 0.0000 0.0000
# 5 0.0000 0.0000 0.0000 0.0000 33.4837 0.0000
# 6 0.0000 0.0000 0.0000 0.0000 0.0000 0.2637
#
#
#
# Elastic Compliance Matrix: (Units=1/GPa)
#
#
# Indices 1 2 3 4 5 6 
#
# 1 0.019445 0.000405 -0.002252 0.000000 0.000000 0.000000
# 2 0.000405 0.030712 -0.008756 0.000000 0.000000 0.000000
# 3 -0.002252 -0.008756 0.011076 0.000000 0.000000 0.000000
# 4 0.000000 0.000000 0.000000 0.092225 0.000000 0.000000
# 5 0.000000 0.000000 0.000000 0.000000 0.029865 0.000000
# 6 0.000000 0.000000 0.000000 0.000000 0.000000 3.791988
#
#
# Mechanical properties :
#
#
# Convention : Reuss Voigt Hill
#
# Bulk Modulus (GPa) = 24.98226 35.03952 30.01089
# Shear Modulus (GPa) = 1.24693 19.89896 10.57294
#
# Velocity S-wave (km/s) = 0.80449 3.21377 2.34260
# Velocity P-wave (km/s) = 3.71883 5.65313 4.78475
#
# Compressibility (1/GPa) = 0.04002841
#
# Stress axis : x y z
#
# Youngs Moduli (GPa) = 51.42635 32.56054 90.28430
#
# Poissons Ratio (x) = -0.01319 0.20331
# Poissons Ratio (y) = -0.02083 0.79050
# Poissons Ratio (z) = 0.11580 0.28509
#
# Static dielectric constant tensor:
#      x y z
#    x 1.714770 0.000000 0.000000 
#    y 0.000000 1.665260 0.000000 
#    z 0.000000 0.000000 1.677320 
# 
# From -- ./inp_files/10080.got.cif
#   From: 2010.05.17/outbox.cif.g08.bks.cpg/sg23_6_cif.got.tgz:10080.got - 2010.06.04 12:02:01.
