data_PCOD9329608
_publ_section_title
;
Structure prediction by ZEFSAII (Michael W. Deem and Ramdas Pophale) SiO2 
 PCOD9329608
Probable space group: I 2 2 2
;
_chemical_formula_sum "Si O2"
_cell_formula_units_Z 26
_cell_length_a 6.982233
_cell_length_b 21.951785
_cell_length_c 9.281448
_cell_angle_alpha 90.000000
_cell_angle_beta 90.000000
_cell_angle_gamma 90.000000
_cell_volume 1422.590531
_symmetry_space_group_name_H-M "I 2 2 2"
_symmetry_group_IT_number 23
_symmetry_cell_setting 'orthorhombic'
loop_
_space_group_symop_operation_xyz
x,y,z
-x,-y,z
x,-y,-z
-x,y,-z
1/2+x,1/2+y,1/2+z
1/2-x,1/2-y,1/2+z
1/2+x,1/2-y,1/2-z
1/2-x,1/2+y,1/2-z
loop_
_atom_site_type_symbol
_atom_site_label
_atom_site_fract_x
_atom_site_fract_y
_atom_site_fract_z
Si Si1 0.690075 0.214961 0.095214
Si Si2 0.551902 0.167956 0.651641
Si Si3 0.500000 0.500000 0.500000
Si Si4 0.702263 0.097885 0.919893
O O1 0.624682 0.193336 0.253609
O O2 0.821569 0.273226 0.111214
O O3 0.500000 0.229636 0.000000
O O4 0.773960 0.156224 0.012882
O O5 0.500000 0.138238 0.500000
O O6 0.656543 0.123028 0.761789
O O7 0.355675 0.544523 0.416086
O O8 0.500000 0.080805 0.000000
#
# Coordination Sequence:
#
# PCOD9329608 Si02
#       4
#     8   8   2   8
#     4   9  19  32  53  89 121 154 190 236 307 354
#     4  10  18  33  56  87 125 149 183 255 303 349
#     4  12  22  40  68  80 116 164 222 232 264 394
#     4   9  22  38  58  89 115 159 201 245 293 343
#
# _framework density 18.276516000000001
#
# number of rings (size 3 to 8) (size 9 to 14) (size 15 to 20)
#    0.000    3.077    0.000    4.154    6.462    0.000 
#    0.000    0.000    0.000   22.154    0.000    0.000 
#    0.000    0.000    0.000    0.000    0.000    0.000 
#
# Total GULP energy -72465.271057 kJ/mol
# GULP energy per Si atom -5574.251620 kJ/mol
# Density = 1.823492 g / cm^3
# Si number density = 18.276516 Si / 1000 Ang^3
#
#
#
# Elastic Constant Matrix: (Units=GPa)
#
#
# Indices 1 2 3 4 5 6 
#
# 1 77.3628 55.7385 40.5878 0.0000 0.0000 0.0000
# 2 55.7385 105.9673 50.7224 0.0000 0.0000 0.0000
# 3 40.5878 50.7224 160.9788 -0.0001 0.0000 0.0000
# 4 0.0000 0.0000 -0.0001 -26.4447 0.0000 0.0000
# 5 0.0000 0.0000 0.0000 0.0000 4.1102 0.0000
# 6 0.0000 0.0000 0.0000 0.0000 0.0000 51.4754
#
#
#
# Elastic Compliance Matrix: (Units=1/GPa)
#
#
# Indices 1 2 3 4 5 6 
#
# 1 0.021446 -0.010236 -0.002182 0.000000 0.000000 0.000000
# 2 -0.010236 0.015999 -0.002460 0.000000 0.000000 0.000000
# 3 -0.002182 -0.002460 0.007537 0.000000 0.000000 0.000000
# 4 0.000000 0.000000 0.000000 -0.037815 0.000000 0.000000
# 5 0.000000 0.000000 0.000000 0.000000 0.243299 0.000000
# 6 0.000000 0.000000 0.000000 0.000000 0.000000 0.019427
#
#
# Mechanical properties :
#
#
# Convention : Reuss Voigt Hill
#
# Bulk Modulus (GPa) = 65.67936 70.93402 68.30669
# Shear Modulus (GPa) = 16.40831 18.97886 17.69358
#
# Velocity S-wave (km/s) = 2.99955 3.22596 3.11481
# Velocity P-wave (km/s) = 6.92899 7.26441 7.09868
#
# Compressibility (1/GPa) = 0.01522548
#
# Stress axis : x y z
#
# Youngs Moduli (GPa) = 46.62954 62.50578 132.67395
#
# Poissons Ratio (x) = 0.63981 0.28948
# Poissons Ratio (y) = 0.47730 0.32640
# Poissons Ratio (z) = 0.10174 0.15377
#
# Static dielectric constant tensor:
#      x y z
#    x 1.688780 0.000000 0.000000 
#    y 0.000000 1.621450 0.000000 
#    z 0.000000 0.000000 1.637710 
# 
# From -- ./inp_files/6352.got.cif
#   From: 2010.05.17/outbox.cif.g08.bks.cpg/sg23_4_cif.got.tgz:6352.got - 2010.06.04 12:02:01.
