data_PCOD9329416
_publ_section_title
;
Structure prediction by ZEFSAII (Michael W. Deem and Ramdas Pophale) SiO2 
 PCOD9329416
Probable space group: I 2 2 2
;
_chemical_formula_sum "Si O2"
_cell_formula_units_Z 48
_cell_length_a 21.453086
_cell_length_b 6.928311
_cell_length_c 11.429608
_cell_angle_alpha 90.000000
_cell_angle_beta 90.000000
_cell_angle_gamma 90.000000
_cell_volume 1698.824375
_symmetry_space_group_name_H-M "I 2 2 2"
_symmetry_group_IT_number 23
_symmetry_cell_setting 'orthorhombic'
loop_
_space_group_symop_operation_xyz
x,y,z
-x,-y,z
x,-y,-z
-x,y,-z
1/2+x,1/2+y,1/2+z
1/2-x,1/2-y,1/2+z
1/2+x,1/2-y,1/2-z
1/2-x,1/2+y,1/2-z
loop_
_atom_site_type_symbol
_atom_site_label
_atom_site_fract_x
_atom_site_fract_y
_atom_site_fract_z
Si Si1 0.747442 0.783577 0.798219
Si Si2 0.992203 0.786021 0.312988
Si Si3 0.061923 0.787129 0.944081
Si Si4 0.129527 0.835590 0.330694
Si Si5 0.202647 0.771824 0.967412
Si Si6 0.372968 0.784776 0.088053
O O1 0.818372 0.840967 0.768568
O O2 0.761510 0.671761 0.922055
O O3 0.729274 0.731917 0.664202
O O4 0.682093 0.882297 0.837180
O O5 0.955198 0.801901 0.191648
O O6 0.945268 0.661280 0.391154
O O7 0.064379 0.745829 0.285616
O O8 0.000000 0.000000 0.367616
O O9 0.130878 0.706408 0.961156
O O10 0.000000 0.697545 0.000000
O O11 0.065932 0.000000 0.000000
O O12 0.141332 0.721013 0.451242
O O13 0.127507 0.060547 0.369064
O O14 0.206694 0.000000 0.000000
#
# Coordination Sequence:
#
# PCOD9329416 Si02
#       6
#     8   8   8   8   8   8
#     4  12  21  37  55  82 117 158 196 232 285 357
#     4  10  17  30  51  77 110 145 178 228 300 359
#     4  10  17  28  48  78 112 143 171 218 294 360
#     4  10  21  34  53  80 113 148 187 235 289 353
#     4  11  24  38  57  85 122 156 193 245 292 348
#     4  10  20  35  52  79 113 147 188 234 287 352
#
# _framework density 28.254833999999999
#
# number of rings (size 3 to 8) (size 9 to 14) (size 15 to 20)
#    0.000    1.500    5.000    2.500    4.667    2.000 
#    0.000    0.000    0.000    0.000    0.000    5.833 
#    0.000    8.000    0.000    0.000    0.000    0.000 
#
# Total GULP energy -134003.945760 kJ/mol
# GULP energy per Si atom -5583.497740 kJ/mol
# Density = 2.819053 g / cm^3
# Si number density = 28.254834 Si / 1000 Ang^3
#
#
#
# Elastic Constant Matrix: (Units=GPa)
#
#
# Indices 1 2 3 4 5 6 
#
# 1 279.2874 26.7360 90.9697 0.0000 0.0000 0.0000
# 2 26.7360 87.9871 36.0505 0.0000 0.0000 0.0000
# 3 90.9697 36.0505 241.1257 0.0000 0.0000 0.0000
# 4 0.0000 0.0000 0.0000 17.2655 0.0000 0.0000
# 5 0.0000 0.0000 0.0000 0.0000 72.5681 0.0000
# 6 0.0000 0.0000 0.0000 0.0000 0.0000 8.4297
#
#
#
# Elastic Compliance Matrix: (Units=1/GPa)
#
#
# Indices 1 2 3 4 5 6 
#
# 1 0.004117 -0.000655 -0.001455 0.000000 0.000000 0.000000
# 2 -0.000655 0.012211 -0.001579 0.000000 0.000000 0.000000
# 3 -0.001455 -0.001579 0.004932 0.000000 0.000000 0.000000
# 4 0.000000 0.000000 0.000000 0.057919 0.000000 0.000000
# 5 0.000000 0.000000 0.000000 0.000000 0.013780 0.000000
# 6 0.000000 0.000000 0.000000 0.000000 0.000000 0.118629
#
#
# Mechanical properties :
#
#
# Convention : Reuss Voigt Hill
#
# Bulk Modulus (GPa) = 72.03052 101.76806 86.89929
# Shear Modulus (GPa) = 22.36198 49.96226 36.16212
#
# Velocity S-wave (km/s) = 2.81630 4.20965 3.58139
# Velocity P-wave (km/s) = 6.01032 7.72815 6.92272
#
# Compressibility (1/GPa) = 0.01388300
#
# Stress axis : x y z
#
# Youngs Moduli (GPa) = 242.87828 81.89286 202.74387
#
# Poissons Ratio (x) = 0.05362 0.29508
# Poissons Ratio (y) = 0.15903 0.32006
# Poissons Ratio (z) = 0.35349 0.12928
#
# Static dielectric constant tensor:
#      x y z
#    x 2.244540 0.000000 0.000000 
#    y 0.000000 2.497940 0.000000 
#    z 0.000000 0.000000 2.146650 
# 
# From -- ./inp_files/15855.got.cif
#   From: 2010.05.17/outbox.cif.g08.bks.cpg/sg23_8_cif.got.tgz:15855.got - 2010.06.04 12:02:01.
