data_PCOD9329110
_publ_section_title
;
Structure prediction by ZEFSAII (Michael W. Deem and Ramdas Pophale) SiO2 
 PCOD9329110
Probable space group: F 2 2 2
;
_chemical_formula_sum "Si O2"
_cell_formula_units_Z 120
_cell_length_a 12.463755
_cell_length_b 21.503997
_cell_length_c 21.447778
_cell_angle_alpha 90.000000
_cell_angle_beta 90.000000
_cell_angle_gamma 90.000000
_cell_volume 5748.445259
_symmetry_space_group_name_H-M "F 2 2 2"
_symmetry_group_IT_number 22
_symmetry_cell_setting 'orthorhombic'
loop_
_space_group_symop_operation_xyz
x,y,z
-x,-y,z
x,-y,-z
-x,y,-z
x,1/2+y,1/2+z
-x,1/2-y,1/2+z
x,1/2-y,1/2-z
-x,1/2+y,1/2-z
1/2+x,y,1/2+z
1/2-x,-y,1/2+z
1/2+x,-y,1/2-z
1/2-x,y,1/2-z
1/2+x,1/2+y,z
1/2-x,1/2-y,z
1/2+x,1/2-y,-z
1/2-x,1/2+y,-z
loop_
_atom_site_type_symbol
_atom_site_label
_atom_site_fract_x
_atom_site_fract_y
_atom_site_fract_z
Si Si1 0.269392 0.581254 0.439154
Si Si2 0.495269 0.112208 0.881212
Si Si3 0.326462 0.644727 0.810573
Si Si4 0.526839 0.930785 0.743059
Si Si5 0.971591 0.749350 0.174642
Si Si6 0.309096 0.192896 0.628480
Si Si7 0.282164 0.561262 0.582680
Si Si8 0.750000 0.134336 0.250000
O O1 0.387097 0.608762 0.421678
O O2 0.187684 0.630064 0.410022
O O3 0.247115 0.576102 0.512343
O O4 0.265771 0.512594 0.409138
O O5 0.480701 0.073784 0.817645
O O6 0.526232 0.181426 0.856856
O O7 0.592978 0.079753 0.916125
O O8 0.250000 0.651212 0.750000
O O9 0.436200 0.612862 0.786371
O O10 0.363990 0.711146 0.837172
O O11 0.273213 0.601204 0.862885
O O12 0.647261 0.906661 0.732193
O O13 0.500000 0.000000 0.721876
O O14 0.982450 0.750000 0.250000
O O15 0.074460 0.785427 0.148690
O O16 0.250000 0.250000 0.594763
O O17 0.235476 0.177400 0.689521
#
# Coordination Sequence:
#
# PCOD9329110 Si02
#       8
#    16  16  16  16  16  16  16   8
#     4  11  25  46  71  99 137 184 238 298 350 408
#     4  12  22  42  69 101 134 184 236 288 354 409
#     4  12  26  44  68 102 144 192 233 278 357 444
#     4  12  25  37  66 105 139 172 232 300 350 417
#     4  12  23  44  65 105 144 181 226 287 364 419
#     4  12  22  40  70 100 133 172 229 290 345 409
#     4  11  26  47  68  97 142 188 236 287 354 419
#     4  12  23  40  68 100 140 183 220 292 364 407
#
# _framework density 20.875211
#
# number of rings (size 3 to 8) (size 9 to 14) (size 15 to 20)
#    0.000    0.267    6.667    2.600    2.800    2.933 
#    2.400    0.667    0.000    1.600    0.000    0.000 
#    0.000    0.000    0.000    0.000    0.000    0.000 
#
# Total GULP energy -167782.887424 kJ/mol
# GULP energy per Si atom -5592.762914 kJ/mol
# Density = 2.082770 g / cm^3
# Si number density = 20.875211 Si / 1000 Ang^3
#
#
#
# Elastic Constant Matrix: (Units=GPa)
#
#
# Indices 1 2 3 4 5 6 
#
# 1 94.9631 43.7429 7.6895 0.0000 0.0000 0.0000
# 2 43.7429 162.9899 36.8103 0.0000 0.0000 0.0000
# 3 7.6895 36.8103 67.7322 0.0000 0.0000 0.0000
# 4 0.0000 0.0000 0.0000 29.2347 0.0000 0.0000
# 5 0.0000 0.0000 0.0000 0.0000 16.1614 0.0000
# 6 0.0000 0.0000 0.0000 0.0000 0.0000 34.0917
#
#
#
# Elastic Compliance Matrix: (Units=1/GPa)
#
#
# Indices 1 2 3 4 5 6 
#
# 1 0.012027 -0.003328 0.000443 0.000000 0.000000 0.000000
# 2 -0.003328 0.007915 -0.003924 0.000000 0.000000 0.000000
# 3 0.000443 -0.003924 0.016846 0.000000 0.000000 0.000000
# 4 0.000000 0.000000 0.000000 0.034206 0.000000 0.000000
# 5 0.000000 0.000000 0.000000 0.000000 0.061876 0.000000
# 6 0.000000 0.000000 0.000000 0.000000 0.000000 0.029333
#
#
# Mechanical properties :
#
#
# Convention : Reuss Voigt Hill
#
# Bulk Modulus (GPa) = 43.15648 55.79672 49.47660
# Shear Modulus (GPa) = 27.24158 31.72708 29.48433
#
# Velocity S-wave (km/s) = 3.61636 3.90275 3.76228
# Velocity P-wave (km/s) = 6.17704 6.86260 6.52883
#
# Compressibility (1/GPa) = 0.02317149
#
# Stress axis : x y z
#
# Youngs Moduli (GPa) = 83.14284 126.34850 59.36118
#
# Poissons Ratio (x) = 0.42049 -0.02631
# Poissons Ratio (y) = 0.27670 0.23290
# Poissons Ratio (z) = -0.03685 0.49573
#
# Static dielectric constant tensor:
#      x y z
#    x 1.789950 0.000000 0.000000 
#    y 0.000000 1.793970 0.000000 
#    z 0.000000 0.000000 1.755330 
# 
# From -- ./inp_files/48327.got.cif
#   From: 2010.05.17/outbox.cif.g08.bks.cpg/sg22_25_cif.got.tgz:48327.got - 2010.06.03 23:40:54.
