data_PCOD9329011
_publ_section_title
;
Structure prediction by ZEFSAII (Michael W. Deem and Ramdas Pophale) SiO2 
 PCOD9329011
Probable space group: F 2 2 2
;
_chemical_formula_sum "Si O2"
_cell_formula_units_Z 56
_cell_length_a 10.895679
_cell_length_b 21.008302
_cell_length_c 11.947114
_cell_angle_alpha 90.000000
_cell_angle_beta 90.000000
_cell_angle_gamma 90.000000
_cell_volume 2734.690989
_symmetry_space_group_name_H-M "F 2 2 2"
_symmetry_group_IT_number 22
_symmetry_cell_setting 'orthorhombic'
loop_
_space_group_symop_operation_xyz
x,y,z
-x,-y,z
x,-y,-z
-x,y,-z
x,1/2+y,1/2+z
-x,1/2-y,1/2+z
x,1/2-y,1/2-z
-x,1/2+y,1/2-z
1/2+x,y,1/2+z
1/2-x,-y,1/2+z
1/2+x,-y,1/2-z
1/2-x,y,1/2-z
1/2+x,1/2+y,z
1/2-x,1/2-y,z
1/2+x,1/2-y,-z
1/2-x,1/2+y,-z
loop_
_atom_site_type_symbol
_atom_site_label
_atom_site_fract_x
_atom_site_fract_y
_atom_site_fract_z
Si Si1 0.893919 0.820638 0.723344
Si Si2 0.475046 0.573684 0.867762
Si Si3 0.250000 0.136261 0.250000
Si Si4 0.000000 0.782573 0.500000
Si Si5 0.750000 0.250000 0.586122
O O1 0.946048 0.750000 0.750000
O O2 0.750000 0.817529 0.750000
O O3 0.942506 0.876544 0.800139
O O4 0.940563 0.827256 0.596341
O O5 0.500000 0.500000 0.841451
O O6 0.342385 0.592693 0.819409
O O7 0.500000 0.581697 0.000000
O O8 0.209257 0.188307 0.342852
O O9 0.879525 0.737947 0.476020
#
# Coordination Sequence:
#
# PCOD9329011 Si02
#       5
#    16  16   8   8   8
#     4  11  25  43  70 105 141 185 240 305 365 439
#     4  11  27  48  72 103 144 198 247 303 370 447
#     4  11  24  44  72 102 143 196 244 302 371 444
#     4  12  24  42  69 114 145 194 232 308 388 428
#     4  11  24  42  73 110 152 189 246 311 376 444
#
# _framework density 20.477634999999999
#
# number of rings (size 3 to 8) (size 9 to 14) (size 15 to 20)
#    0.000    0.857    2.857    3.429   14.000    0.000 
#    0.000    0.714    0.000    0.000    0.000    0.000 
#    0.000    0.000    0.000    0.000    0.000    0.000 
#
# Total GULP energy -77993.006629 kJ/mol
# GULP energy per Si atom -5570.929045 kJ/mol
# Density = 2.043103 g / cm^3
# Si number density = 20.477635 Si / 1000 Ang^3
#
#
#
# Elastic Constant Matrix: (Units=GPa)
#
#
# Indices 1 2 3 4 5 6 
#
# 1 144.1763 38.3640 61.0794 0.0000 0.0000 0.0000
# 2 38.3640 163.5947 73.3179 0.0000 0.0000 0.0000
# 3 61.0794 73.3179 129.5243 0.0000 0.0000 0.0000
# 4 0.0000 0.0000 0.0000 33.0738 0.0000 0.0000
# 5 0.0000 0.0000 0.0000 0.0000 38.2462 0.0000
# 6 0.0000 0.0000 0.0000 0.0000 0.0000 30.9718
#
#
#
# Elastic Compliance Matrix: (Units=1/GPa)
#
#
# Indices 1 2 3 4 5 6 
#
# 1 0.008676 -0.000269 -0.003939 0.000000 0.000000 0.000000
# 2 -0.000269 0.008199 -0.004514 0.000000 0.000000 0.000000
# 3 -0.003939 -0.004514 0.012133 0.000000 0.000000 0.000000
# 4 0.000000 0.000000 0.000000 0.030235 0.000000 0.000000
# 5 0.000000 0.000000 0.000000 0.000000 0.026146 0.000000
# 6 0.000000 0.000000 0.000000 0.000000 0.000000 0.032287
#
#
# Mechanical properties :
#
#
# Convention : Reuss Voigt Hill
#
# Bulk Modulus (GPa) = 86.47706 86.97975 86.72841
# Shear Modulus (GPa) = 35.97717 38.09396 37.03556
#
# Velocity S-wave (km/s) = 4.19609 4.31777 4.25736
# Velocity P-wave (km/s) = 8.11159 8.21128 8.16159
#
# Compressibility (1/GPa) = 0.01156376
#
# Stress axis : x y z
#
# Youngs Moduli (GPa) = 115.25567 121.96821 82.41807
#
# Poissons Ratio (x) = 0.03285 0.32465
# Poissons Ratio (y) = 0.03104 0.37204
# Poissons Ratio (z) = 0.45400 0.55057
#
# Static dielectric constant tensor:
#      x y z
#    x 1.862060 0.000000 0.000000 
#    y 0.000000 1.722100 0.000000 
#    z 0.000000 0.000000 1.886150 
# 
# From -- ./inp_files/17697.got.cif
#   From: 2010.05.17/outbox.cif.g08.bks.cpg/sg22_9_cif.got.tgz:17697.got - 2010.06.03 23:40:54.
