data_PCOD9329654
_publ_section_title
;
Structure prediction by ZEFSAII (Michael W. Deem and Ramdas Pophale) SiO2 
 PCOD9329654
Probable space group: I 2 2 2
;
_chemical_formula_sum "Si O2"
_cell_formula_units_Z 38
_cell_length_a 9.376972
_cell_length_b 7.779357
_cell_length_c 21.765060
_cell_angle_alpha 90.000000
_cell_angle_beta 90.000000
_cell_angle_gamma 90.000000
_cell_volume 1587.691757
_symmetry_space_group_name_H-M "I 2 2 2"
_symmetry_group_IT_number 23
_symmetry_cell_setting 'orthorhombic'
loop_
_space_group_symop_operation_xyz
x,y,z
-x,-y,z
x,-y,-z
-x,y,-z
1/2+x,1/2+y,1/2+z
1/2-x,1/2-y,1/2+z
1/2+x,1/2-y,1/2-z
1/2-x,1/2+y,1/2-z
loop_
_atom_site_type_symbol
_atom_site_label
_atom_site_fract_x
_atom_site_fract_y
_atom_site_fract_z
Si Si1 0.211943 0.363438 0.593923
Si Si2 0.500000 0.000000 0.000000
Si Si3 0.078906 0.669698 0.187138
Si Si4 0.000000 0.500000 0.000000
Si Si5 0.500000 0.500000 0.000000
Si Si6 0.248895 0.045143 0.410048
Si Si7 0.500000 0.500000 0.386877
Si Si8 0.500000 0.000000 0.192689
O O1 0.099700 0.382184 0.540593
O O2 0.240168 0.160561 0.603259
O O3 0.358352 0.456464 0.576759
O O4 0.137231 0.472217 0.649087
O O5 0.234004 0.639760 0.155839
O O6 0.021081 0.840068 0.158048
O O7 0.035160 0.653851 0.258430
O O8 0.000000 0.500000 0.162117
O O9 0.114129 0.590935 0.045992
O O10 0.611253 0.586410 0.951342
#
# Coordination Sequence:
#
# PCOD9329654 Si02
#       8
#     8   2   8   2   2   8   4   4
#     4  11  23  43  66  99 137 183 228 286 342 412
#     4  10  26  42  62  98 154 176 230 292 344 410
#     4  10  22  46  67 100 136 179 224 284 328 418
#     4  10  18  34  66  92 134 182 214 284 328 412
#     4  10  26  38  74 104 136 190 222 286 348 396
#     4  11  21  42  66 100 140 179 231 278 343 401
#     4  12  24  39  75 104 133 179 228 276 358 398
#     4   9  23  45  66  91 141 179 224 286 342 401
#
# _framework density 23.934114999999998
#
# number of rings (size 3 to 8) (size 9 to 14) (size 15 to 20)
#    0.632    0.842    3.158    0.632    0.000   12.211 
#    0.000    2.105    0.000    0.000    0.000    0.000 
#    0.000    0.000    0.000    0.000    0.000    0.000 
#
# Total GULP energy -105824.600208 kJ/mol
# GULP energy per Si atom -5569.715800 kJ/mol
# Density = 2.387964 g / cm^3
# Si number density = 23.934115 Si / 1000 Ang^3
#
#
#
# Elastic Constant Matrix: (Units=GPa)
#
#
# Indices 1 2 3 4 5 6 
#
# 1 179.1421 43.3898 62.5690 0.0000 0.0000 0.0000
# 2 43.3898 129.7584 31.1359 0.0000 0.0000 0.0000
# 3 62.5690 31.1359 107.5765 0.0000 0.0000 0.0000
# 4 0.0000 0.0000 0.0000 5.3132 0.0000 0.0000
# 5 0.0000 0.0000 0.0000 0.0000 5.3580 0.0000
# 6 0.0000 0.0000 0.0000 0.0000 0.0000 29.4334
#
#
#
# Elastic Compliance Matrix: (Units=1/GPa)
#
#
# Indices 1 2 3 4 5 6 
#
# 1 0.007275 -0.001523 -0.003790 0.000000 0.000000 0.000000
# 2 -0.001523 0.008601 -0.001603 0.000000 0.000000 0.000000
# 3 -0.003790 -0.001603 0.011964 0.000000 0.000000 0.000000
# 4 0.000000 0.000000 0.000000 0.188211 0.000000 0.000000
# 5 0.000000 0.000000 0.000000 0.000000 0.186636 0.000000
# 6 0.000000 0.000000 0.000000 0.000000 0.000000 0.033975
#
#
# Mechanical properties :
#
#
# Convention : Reuss Voigt Hill
#
# Bulk Modulus (GPa) = 71.39764 76.74072 74.06918
# Shear Modulus (GPa) = 10.98504 26.64640 18.81572
#
# Velocity S-wave (km/s) = 2.14468 3.34027 2.80687
# Velocity P-wave (km/s) = 6.00238 6.85634 6.44352
#
# Compressibility (1/GPa) = 0.01400606
#
# Stress axis : x y z
#
# Youngs Moduli (GPa) = 137.45764 116.26966 83.58135
#
# Poissons Ratio (x) = 0.17710 0.31681
# Poissons Ratio (y) = 0.20937 0.13402
# Poissons Ratio (z) = 0.52103 0.18643
#
# Static dielectric constant tensor:
#      x y z
#    x 1.972180 0.000000 0.000000 
#    y 0.000000 2.017740 0.000000 
#    z 0.000000 0.000000 1.965700 
# 
# From -- ./inp_files/27923.got.cif
#   From: 2010.05.17/outbox.cif.g08.bks.cpg/sg23_14_cif.got.tgz:27923.got - 2010.06.04 12:02:01.
