data_PCOD9329190
_publ_section_title
;
Structure prediction by ZEFSAII (Michael W. Deem and Ramdas Pophale) SiO2 
 PCOD9329190
Probable space group: F 2 2 2
;
_chemical_formula_sum "Si O2"
_cell_formula_units_Z 68
_cell_length_a 7.842428
_cell_length_b 21.205328
_cell_length_c 16.445682
_cell_angle_alpha 90.000000
_cell_angle_beta 90.000000
_cell_angle_gamma 90.000000
_cell_volume 2734.937606
_symmetry_space_group_name_H-M "F 2 2 2"
_symmetry_group_IT_number 22
_symmetry_cell_setting 'orthorhombic'
loop_
_space_group_symop_operation_xyz
x,y,z
-x,-y,z
x,-y,-z
-x,y,-z
x,1/2+y,1/2+z
-x,1/2-y,1/2+z
x,1/2-y,1/2-z
-x,1/2+y,1/2-z
1/2+x,y,1/2+z
1/2-x,-y,1/2+z
1/2+x,-y,1/2-z
1/2-x,y,1/2-z
1/2+x,1/2+y,z
1/2-x,1/2-y,z
1/2+x,1/2-y,-z
1/2-x,1/2+y,-z
loop_
_atom_site_type_symbol
_atom_site_label
_atom_site_fract_x
_atom_site_fract_y
_atom_site_fract_z
Si Si1 0.428849 0.341315 0.284625
Si Si2 0.608216 0.387603 0.123903
Si Si3 0.545776 0.246834 0.586222
Si Si4 0.515500 0.427722 0.403707
Si Si5 0.000000 0.500000 0.500000
O O1 0.250000 0.318651 0.250000
O O2 0.528487 0.379917 0.214528
O O3 0.515332 0.283546 0.333099
O O4 0.372963 0.389005 0.357041
O O5 0.540665 0.321916 0.086039
O O6 0.811827 0.394820 0.126158
O O7 0.568922 0.448177 0.066197
O O8 0.500000 0.278391 0.500000
O O9 0.750000 0.250000 0.588645
O O10 0.500000 0.500000 0.379372
O O11 0.500000 0.425302 0.500000
#
# Coordination Sequence:
#
# PCOD9329190 Si02
#       5
#    16  16  16  16   4
#     4  12  28  48  83 120 173 221 287 364 436 523
#     4  12  28  50  84 122 167 229 285 359 444 514
#     4  12  28  51  83 124 170 229 289 359 441 529
#     4  11  28  51  80 119 170 224 293 362 438 529
#     4  12  28  48  86 128 170 208 308 348 448 516
#
# _framework density 24.863457
#
# number of rings (size 3 to 8) (size 9 to 14) (size 15 to 20)
#    0.000    0.235    3.529    3.529   14.824    0.000 
#    0.000    2.353    0.000    0.000    0.000    0.000 
#    0.000    0.000    0.000    0.000    0.000    0.000 
#
# Total GULP energy -94922.007476 kJ/mol
# GULP energy per Si atom -5583.647499 kJ/mol
# Density = 2.480687 g / cm^3
# Si number density = 24.863457 Si / 1000 Ang^3
#
#
#
# Elastic Constant Matrix: (Units=GPa)
#
#
# Indices 1 2 3 4 5 6 
#
# 1 103.0563 55.2267 33.3606 0.0000 0.0000 0.0000
# 2 55.2267 171.9596 44.9662 0.0000 0.0000 0.0000
# 3 33.3606 44.9662 173.6246 0.0000 0.0000 0.0000
# 4 0.0000 0.0000 0.0000 61.5373 0.0000 0.0000
# 5 0.0000 0.0000 0.0000 0.0000 28.4489 0.0000
# 6 0.0000 0.0000 0.0000 0.0000 0.0000 20.0520
#
#
#
# Elastic Compliance Matrix: (Units=1/GPa)
#
#
# Indices 1 2 3 4 5 6 
#
# 1 0.012032 -0.003497 -0.001406 0.000000 0.000000 0.000000
# 2 -0.003497 0.007254 -0.001207 0.000000 0.000000 0.000000
# 3 -0.001406 -0.001207 0.006342 0.000000 0.000000 0.000000
# 4 0.000000 0.000000 0.000000 0.016250 0.000000 0.000000
# 5 0.000000 0.000000 0.000000 0.000000 0.035151 0.000000
# 6 0.000000 0.000000 0.000000 0.000000 0.000000 0.049870
#
#
# Mechanical properties :
#
#
# Convention : Reuss Voigt Hill
#
# Bulk Modulus (GPa) = 74.57619 79.52750 77.05184
# Shear Modulus (GPa) = 34.82153 43.01343 38.91748
#
# Velocity S-wave (km/s) = 3.74640 4.16382 3.96061
# Velocity P-wave (km/s) = 6.98380 7.42776 7.20920
#
# Compressibility (1/GPa) = 0.01340910
#
# Stress axis : x y z
#
# Youngs Moduli (GPa) = 83.10833 137.85759 157.67098
#
# Poissons Ratio (x) = 0.48203 0.22175
# Poissons Ratio (y) = 0.29060 0.19028
# Poissons Ratio (z) = 0.11688 0.16637
#
# Static dielectric constant tensor:
#      x y z
#    x 2.075420 0.000000 0.000000 
#    y 0.000000 2.076170 0.000000 
#    z 0.000000 0.000000 2.090520 
# 
# From -- ./inp_files/34858.got.cif
#   From: 2010.05.17/outbox.cif.g08.bks.cpg/sg22_18_cif.got.tgz:34858.got - 2010.06.03 23:40:54.
