data_PCOD9329396
_publ_section_title
;
Structure prediction by ZEFSAII (Michael W. Deem and Ramdas Pophale) SiO2 
 PCOD9329396
Probable space group: I 2 2 2
;
_chemical_formula_sum "Si O2"
_cell_formula_units_Z 64
_cell_length_a 5.249591
_cell_length_b 25.597432
_cell_length_c 26.615263
_cell_angle_alpha 90.000000
_cell_angle_beta 90.000000
_cell_angle_gamma 90.000000
_cell_volume 3576.453876
_symmetry_space_group_name_H-M "I 2 2 2"
_symmetry_group_IT_number 23
_symmetry_cell_setting 'orthorhombic'
loop_
_space_group_symop_operation_xyz
x,y,z
-x,-y,z
x,-y,-z
-x,y,-z
1/2+x,1/2+y,1/2+z
1/2-x,1/2-y,1/2+z
1/2+x,1/2-y,1/2-z
1/2-x,1/2+y,1/2-z
loop_
_atom_site_type_symbol
_atom_site_label
_atom_site_fract_x
_atom_site_fract_y
_atom_site_fract_z
Si Si1 0.341311 0.263187 0.221626
Si Si2 0.759416 0.733856 0.941007
Si Si3 0.062408 0.441512 0.069560
Si Si4 0.062024 0.877175 0.567166
Si Si5 0.254805 0.667263 0.481566
Si Si6 0.241797 0.733078 0.389137
Si Si7 0.947975 0.559339 0.190834
Si Si8 0.458610 0.623637 0.188748
O O1 0.585114 0.232971 0.244843
O O2 0.240264 0.236072 0.170295
O O3 0.461965 0.320007 0.209802
O O4 0.645658 0.678271 0.955751
O O5 0.549409 0.752486 0.901135
O O6 0.037251 0.730556 0.914656
O O7 0.757282 0.777592 0.985161
O O8 0.310219 0.409260 0.052012
O O9 0.000000 0.500000 0.052979
O O10 0.808123 0.411220 0.057680
O O11 0.079393 0.443727 0.130255
O O12 0.037348 0.870131 0.627865
O O13 0.500000 0.637517 0.500000
O O14 0.274806 0.681162 0.423049
O O15 0.000000 0.641027 0.500000
O O16 0.183658 0.598603 0.201601
O O17 0.000000 0.500000 0.208512
O O18 0.678607 0.583718 0.206535
#
# Coordination Sequence:
#
# PCOD9329396 Si02
#       8
#     8   8   8   8   8   8   8   8
#     4  12  24  34  46  65  92 131 164 181 216 273
#     4  10  17  28  47  67  85 102 137 178 240 276
#     4   9  17  26  36  57  86 109 134 165 211 283
#     4  10  17  25  43  60  80 110 135 173 229 269
#     4   8  16  28  44  65  83 102 128 182 239 273
#     4  10  19  32  46  60  88 112 143 188 225 266
#     4   9  17  29  46  64  82 107 142 186 243 284
#     4  10  19  30  44  61  89 115 147 187 228 273
#
# _framework density 17.894819999999999
#
# number of rings (size 3 to 8) (size 9 to 14) (size 15 to 20)
#    0.000    2.250    1.250    3.000    3.500    3.000 
#    0.000    0.000    0.000    0.000    0.000    0.000 
#    0.000   73.500    0.000    0.000    0.000    0.000 
#
# Total GULP energy -178184.443112 kJ/mol
# GULP energy per Si atom -5568.263847 kJ/mol
# Density = 1.785409 g / cm^3
# Si number density = 17.894820 Si / 1000 Ang^3
#
#
#
# Elastic Constant Matrix: (Units=GPa)
#
#
# Indices 1 2 3 4 5 6 
#
# 1 128.0182 15.3886 28.2772 0.0000 0.0000 0.0000
# 2 15.3886 28.9622 20.9718 0.0000 0.0000 0.0000
# 3 28.2772 20.9718 76.0048 0.0000 0.0000 0.0000
# 4 0.0000 0.0000 0.0000 -2.7966 0.0000 0.0000
# 5 0.0000 0.0000 0.0000 0.0000 5.6033 0.0000
# 6 0.0000 0.0000 0.0000 0.0000 0.0000 22.9299
#
#
#
# Elastic Compliance Matrix: (Units=1/GPa)
#
#
# Indices 1 2 3 4 5 6 
#
# 1 0.008695 -0.002846 -0.002449 0.000000 0.000000 0.000000
# 2 -0.002846 0.044081 -0.011104 0.000000 0.000000 0.000000
# 3 -0.002449 -0.011104 0.017132 0.000000 0.000000 0.000000
# 4 0.000000 0.000000 0.000000 -0.357573 0.000000 0.000000
# 5 0.000000 0.000000 0.000000 0.000000 0.178466 0.000000
# 6 0.000000 0.000000 0.000000 0.000000 0.000000 0.043611
#
#
# Mechanical properties :
#
#
# Convention : Reuss Voigt Hill
#
# Bulk Modulus (GPa) = 26.94828 40.25115 33.59972
# Shear Modulus (GPa) = -244.86141 16.37048 -114.24547
#
# Velocity S-wave (km/s) = -11.71028 3.02787 -7.99883
# Velocity P-wave (km/s) = 12.95180 5.89627 8.15423
#
# Compressibility (1/GPa) = 0.03710812
#
# Stress axis : x y z
#
# Youngs Moduli (GPa) = 115.01460 22.68569 58.36916
#
# Poissons Ratio (x) = 0.06456 0.14297
# Poissons Ratio (y) = 0.32734 0.64814
# Poissons Ratio (z) = 0.28172 0.25191
#
# Static dielectric constant tensor:
#      x y z
#    x 1.673000 0.000000 0.000000 
#    y 0.000000 1.644820 0.000000 
#    z 0.000000 0.000000 1.645010 
# 
# From -- ./inp_files/29071.got.cif
#   From: 2010.05.17/outbox.cif.g08.bks.cpg/sg23_15_cif.got.tgz:29071.got - 2010.06.04 12:02:01.
