data_PCOD9329897
_publ_section_title
;
Structure prediction by ZEFSAII (Michael W. Deem and Ramdas Pophale) SiO2 
 PCOD9329897
Probable space group: I 2 2 2
;
_chemical_formula_sum "Si O2"
_cell_formula_units_Z 64
_cell_length_a 5.713996
_cell_length_b 21.954565
_cell_length_c 26.419154
_cell_angle_alpha 90.000000
_cell_angle_beta 90.000000
_cell_angle_gamma 90.000000
_cell_volume 3314.237867
_symmetry_space_group_name_H-M "I 2 2 2"
_symmetry_group_IT_number 23
_symmetry_cell_setting 'orthorhombic'
loop_
_space_group_symop_operation_xyz
x,y,z
-x,-y,z
x,-y,-z
-x,y,-z
1/2+x,1/2+y,1/2+z
1/2-x,1/2-y,1/2+z
1/2+x,1/2-y,1/2-z
1/2-x,1/2+y,1/2-z
loop_
_atom_site_type_symbol
_atom_site_label
_atom_site_fract_x
_atom_site_fract_y
_atom_site_fract_z
Si Si1 0.680749 0.666783 0.298789
Si Si2 0.739910 0.645137 0.874145
Si Si3 0.247024 0.529471 0.728892
Si Si4 0.962249 0.779797 0.698319
Si Si5 0.755279 0.515224 0.843797
Si Si6 0.580817 0.740330 0.631716
Si Si7 0.246855 0.100129 0.488665
Si Si8 0.251820 0.738062 0.974669
O O1 0.763413 0.598551 0.290310
O O2 0.872159 0.721095 0.298019
O O3 0.530514 0.680031 0.248186
O O4 0.555996 0.679375 0.352571
O O5 0.518420 0.677948 0.849969
O O6 0.780255 0.587863 0.837343
O O7 0.729929 0.618252 0.929884
O O8 0.920995 0.700517 0.876927
O O9 0.500000 0.500000 0.713450
O O10 0.245987 0.521057 0.790465
O O11 0.000000 0.500000 0.712130
O O12 0.710639 0.755458 0.683747
O O13 0.500000 0.500000 0.867468
O O14 0.000000 0.500000 0.871677
O O15 0.739121 0.736608 0.582190
O O16 0.500000 0.071594 0.500000
O O17 0.247127 0.163984 0.520886
O O18 0.000000 0.068602 0.500000
O O19 0.500000 0.756687 0.000000
O O20 0.000000 0.755824 0.000000
#
# Coordination Sequence:
#
# PCOD9329897 Si02
#       8
#     8   8   8   8   8   8   8   8
#     4  11  24  37  57  89 128 168 211 260 328 381
#     4  11  23  36  63  86 117 161 214 254 317 379
#     4  10  23  40  61  80 114 170 221 260 293 356
#     4  11  22  36  56  88 125 162 193 258 320 390
#     4  10  23  39  57  83 107 155 219 271 295 348
#     4  11  23  36  59  91 125 163 198 258 323 402
#     4  10  19  34  56  87 113 152 195 246 309 380
#     4  10  19  36  55  85 121 158 195 235 305 388
#
# _framework density 19.310624000000001
#
# number of rings (size 3 to 8) (size 9 to 14) (size 15 to 20)
#    0.000    1.500    3.750    3.000    8.750    0.000 
#    0.000    0.000    0.000    2.250    0.000    0.000 
#    0.000    0.500    1.500    0.000    0.000    0.000 
#
# Total GULP energy -178148.498563 kJ/mol
# GULP energy per Si atom -5567.140580 kJ/mol
# Density = 1.926667 g / cm^3
# Si number density = 19.310624 Si / 1000 Ang^3
#
#
#
# Elastic Constant Matrix: (Units=GPa)
#
#
# Indices 1 2 3 4 5 6 
#
# 1 136.6136 30.2653 28.1329 0.0000 0.0000 0.0000
# 2 30.2653 102.1982 39.5064 0.0000 0.0000 0.0000
# 3 28.1329 39.5064 86.0829 0.0000 0.0000 0.0000
# 4 0.0000 0.0000 0.0000 5.6044 0.0000 0.0000
# 5 0.0000 0.0000 0.0000 0.0000 15.6059 0.0000
# 6 0.0000 0.0000 0.0000 0.0000 0.0000 3.4843
#
#
#
# Elastic Compliance Matrix: (Units=1/GPa)
#
#
# Indices 1 2 3 4 5 6 
#
# 1 0.008075 -0.001667 -0.001874 0.000000 0.000000 0.000000
# 2 -0.001667 0.012239 -0.005072 0.000000 0.000000 0.000000
# 3 -0.001874 -0.005072 0.014557 0.000000 0.000000 0.000000
# 4 0.000000 0.000000 0.000000 0.178432 0.000000 0.000000
# 5 0.000000 0.000000 0.000000 0.000000 0.064078 0.000000
# 6 0.000000 0.000000 0.000000 0.000000 0.000000 0.287006
#
#
# Mechanical properties :
#
#
# Convention : Reuss Voigt Hill
#
# Bulk Modulus (GPa) = 56.67340 57.85599 57.26469
# Shear Modulus (GPa) = 8.51071 20.07159 14.29115
#
# Velocity S-wave (km/s) = 2.10163 3.22748 2.72337
# Velocity P-wave (km/s) = 5.94148 6.62681 6.29348
#
# Compressibility (1/GPa) = 0.01764496
#
# Stress axis : x y z
#
# Youngs Moduli (GPa) = 123.83707 81.70376 68.69548
#
# Poissons Ratio (x) = 0.13620 0.12874
# Poissons Ratio (y) = 0.20643 0.34844
# Poissons Ratio (z) = 0.23207 0.41442
#
# Static dielectric constant tensor:
#      x y z
#    x 1.824330 0.000000 0.000000 
#    y 0.000000 1.715520 0.000000 
#    z 0.000000 0.000000 1.716000 
# 
# From -- ./inp_files/29048.got.cif
#   From: 2010.05.17/outbox.cif.g08.bks.cpg/sg23_15_cif.got.tgz:29048.got - 2010.06.04 12:02:01.
