data_PCOD9329931
_publ_section_title
;
Structure prediction by ZEFSAII (Michael W. Deem and Ramdas Pophale) SiO2 
 PCOD9329931
Probable space group: I 2 2 2
;
_chemical_formula_sum "Si O2"
_cell_formula_units_Z 58
_cell_length_a 25.862971
_cell_length_b 13.960340
_cell_length_c 8.813438
_cell_angle_alpha 90.000000
_cell_angle_beta 90.000000
_cell_angle_gamma 90.000000
_cell_volume 3182.143512
_symmetry_space_group_name_H-M "I 2 2 2"
_symmetry_group_IT_number 23
_symmetry_cell_setting 'orthorhombic'
loop_
_space_group_symop_operation_xyz
x,y,z
-x,-y,z
x,-y,-z
-x,y,-z
1/2+x,1/2+y,1/2+z
1/2-x,1/2-y,1/2+z
1/2+x,1/2-y,1/2-z
1/2-x,1/2+y,1/2-z
loop_
_atom_site_type_symbol
_atom_site_label
_atom_site_fract_x
_atom_site_fract_y
_atom_site_fract_z
Si Si1 0.634436 0.699465 0.463437
Si Si2 0.341684 0.545299 0.278435
Si Si3 0.577706 0.622513 0.204974
Si Si4 0.777141 0.481144 0.320085
Si Si5 0.719963 0.243585 0.778198
Si Si6 0.500000 0.500000 0.000000
Si Si7 0.167759 0.661417 0.789282
Si Si8 0.146262 0.787131 0.537119
O O1 0.644944 0.608285 0.572622
O O2 0.582398 0.680682 0.364805
O O3 0.683315 0.712135 0.350570
O O4 0.637435 0.794631 0.567997
O O5 0.381625 0.461886 0.242867
O O6 0.283903 0.504061 0.288992
O O7 0.347469 0.620527 0.142157
O O8 0.531571 0.568596 0.117144
O O9 0.601096 0.694071 0.081114
O O10 0.785797 0.500000 0.500000
O O11 0.785515 0.370832 0.276985
O O12 0.812885 0.553022 0.223585
O O13 0.778858 0.277255 0.773177
O O14 0.697875 0.276191 0.939503
O O15 0.137188 0.694387 0.639694
#
# Coordination Sequence:
#
# PCOD9329931 Si02
#       8
#     8   8   8   8   8   2   8   8
#     4  10  22  36  52  73 117 160 188 235 306 333
#     4  11  20  34  55  77 112 161 197 234 288 331
#     4  11  22  39  59  81 110 143 181 239 300 364
#     4  12  21  31  53  81 115 162 222 246 259 312
#     4  11  20  33  49  76 113 158 210 250 266 317
#     4  12  24  40  66  96 100 134 206 240 292 400
#     4  11  21  32  50  75 113 160 213 242 270 329
#     4  10  19  35  50  71 111 158 186 229 295 337
#
# _framework density 18.226709
#
# number of rings (size 3 to 8) (size 9 to 14) (size 15 to 20)
#    0.000    1.103    5.517    4.552    0.000    0.552 
#    0.000    1.379    0.000    0.000    0.000    0.000 
#    0.000    8.828   10.483    0.000    0.000    0.000 
#
# Total GULP energy -161765.126810 kJ/mol
# GULP energy per Si atom -5578.107821 kJ/mol
# Density = 1.818522 g / cm^3
# Si number density = 18.226709 Si / 1000 Ang^3
#
#
#
# Elastic Constant Matrix: (Units=GPa)
#
#
# Indices 1 2 3 4 5 6 
#
# 1 40.1823 11.7611 23.1564 0.0000 0.0000 0.0000
# 2 11.7611 93.7943 20.2343 0.0000 0.0000 0.0000
# 3 23.1564 20.2343 96.9279 0.0000 0.0000 0.0000
# 4 0.0000 0.0000 0.0000 27.4527 0.0000 0.0000
# 5 0.0000 0.0000 0.0000 0.0000 22.7685 0.0000
# 6 0.0000 0.0000 0.0000 0.0000 0.0000 17.9518
#
#
#
# Elastic Compliance Matrix: (Units=1/GPa)
#
#
# Indices 1 2 3 4 5 6 
#
# 1 0.029313 -0.002267 -0.006530 0.000000 0.000000 0.000000
# 2 -0.002267 0.011340 -0.001826 0.000000 0.000000 0.000000
# 3 -0.006530 -0.001826 0.012258 0.000000 0.000000 0.000000
# 4 0.000000 0.000000 0.000000 0.036426 0.000000 0.000000
# 5 0.000000 0.000000 0.000000 0.000000 0.043920 0.000000
# 6 0.000000 0.000000 0.000000 0.000000 0.000000 0.055705
#
#
# Mechanical properties :
#
#
# Convention : Reuss Voigt Hill
#
# Bulk Modulus (GPa) = 31.57948 37.91201 34.74574
# Shear Modulus (GPa) = 22.64877 25.35143 24.00010
#
# Velocity S-wave (km/s) = 3.52890 3.73352 3.63265
# Velocity P-wave (km/s) = 5.82818 6.27940 6.05800
#
# Compressibility (1/GPa) = 0.03166613
#
# Stress axis : x y z
#
# Youngs Moduli (GPa) = 34.11443 88.18538 81.57914
#
# Poissons Ratio (x) = 0.19991 0.53269
# Poissons Ratio (y) = 0.07734 0.14894
# Poissons Ratio (z) = 0.22276 0.16100
#
# Static dielectric constant tensor:
#      x y z
#    x 1.613170 0.000000 0.000000 
#    y 0.000000 1.665640 0.000000 
#    z 0.000000 0.000000 1.714010 
# 
# From -- ./inp_files/12694.got.cif
#   From: 2010.05.17/outbox.cif.g08.bks.cpg/sg23_7_cif.got.tgz:12694.got - 2010.06.04 12:02:01.
