data_PCOD9329743
_publ_section_title
;
Structure prediction by ZEFSAII (Michael W. Deem and Ramdas Pophale) SiO2 
 PCOD9329743
Probable space group: I 2 2 2
;
_chemical_formula_sum "Si O2"
_cell_formula_units_Z 64
_cell_length_a 8.805752
_cell_length_b 18.878975
_cell_length_c 26.815816
_cell_angle_alpha 90.000000
_cell_angle_beta 90.000000
_cell_angle_gamma 90.000000
_cell_volume 4457.957034
_symmetry_space_group_name_H-M "I 2 2 2"
_symmetry_group_IT_number 23
_symmetry_cell_setting 'orthorhombic'
loop_
_space_group_symop_operation_xyz
x,y,z
-x,-y,z
x,-y,-z
-x,y,-z
1/2+x,1/2+y,1/2+z
1/2-x,1/2-y,1/2+z
1/2+x,1/2-y,1/2-z
1/2-x,1/2+y,1/2-z
loop_
_atom_site_type_symbol
_atom_site_label
_atom_site_fract_x
_atom_site_fract_y
_atom_site_fract_z
Si Si1 0.931562 0.078076 0.244944
Si Si2 0.568230 0.836760 0.857224
Si Si3 0.068976 0.923217 0.945880
Si Si4 0.068143 0.705412 0.204058
Si Si5 0.068976 0.576783 0.445880
Si Si6 0.931563 0.578077 0.255057
Si Si7 0.068138 0.794588 0.704057
Si Si8 0.931772 0.163239 0.142777
O O1 0.749999 0.075934 0.248786
O O2 0.968683 0.115799 0.191825
O O3 0.998272 0.128035 0.288565
O O4 0.000000 0.000000 0.246136
O O5 0.480897 0.867375 0.904288
O O6 0.531317 0.884200 0.808176
O O7 0.532896 0.755065 0.843370
O O8 0.750001 0.842586 0.865111
O O9 0.250000 0.928805 0.949265
O O10 0.019104 0.867376 0.904287
O O11 0.000000 0.000000 0.931820
O O12 0.000000 0.905457 0.000000
O O13 0.250003 0.702074 0.208679
O O14 0.032895 0.755066 0.156632
O O15 0.998277 0.628035 0.211436
O O16 0.000005 0.750000 0.250001
O O17 0.000000 0.500000 0.431819
O O18 0.000000 0.594542 0.500000
O O19 0.000000 0.500000 0.253866
#
# Coordination Sequence:
#
# PCOD9329743 Si02
#       8
#     8   8   8   8   8   8   8   8
#     4  10  19  29  43  63  88 116 146 179 213 253
#     4   9  18  31  45  62  84 112 145 178 213 253
#     4  11  21  32  46  62  84 112 143 180 216 252
#     4   9  17  29  44  61  84 112 142 177 213 252
#     4  11  21  32  46  62  84 112 143 180 216 252
#     4  10  19  29  43  63  88 116 146 179 213 253
#     4   9  17  29  44  61  84 112 142 177 213 252
#     4   9  18  31  45  62  84 112 145 178 213 253
#
# _framework density 14.356351999999999
#
# number of rings (size 3 to 8) (size 9 to 14) (size 15 to 20)
#    0.000    2.250    0.000    6.750    0.000    8.000 
#    0.000    0.000    0.000    0.000    0.000    0.000 
#    0.000    1.000    0.000   10.500    0.000    4.500 
#
# Total GULP energy -178373.498072 kJ/mol
# GULP energy per Si atom -5574.171815 kJ/mol
# Density = 1.432368 g / cm^3
# Si number density = 14.356352 Si / 1000 Ang^3
#
#
#
# Elastic Constant Matrix: (Units=GPa)
#
#
# Indices 1 2 3 4 5 6 
#
# 1 75.6951 42.4745 39.8542 0.0000 0.0000 0.0000
# 2 42.4745 96.8749 36.5862 0.0000 0.0000 0.0000
# 3 39.8542 36.5862 57.7435 0.0000 0.0000 0.0000
# 4 0.0000 0.0000 0.0000 24.7781 0.0000 0.0000
# 5 0.0000 0.0000 0.0000 0.0000 20.8047 0.0000
# 6 0.0000 0.0000 0.0000 0.0000 0.0000 26.3134
#
#
#
# Elastic Compliance Matrix: (Units=1/GPa)
#
#
# Indices 1 2 3 4 5 6 
#
# 1 0.022643 -0.005292 -0.012275 0.000000 0.000000 0.000000
# 2 -0.005292 0.014806 -0.005729 0.000000 0.000000 0.000000
# 3 -0.012275 -0.005729 0.029420 0.000000 0.000000 0.000000
# 4 0.000000 0.000000 0.000000 0.040358 0.000000 0.000000
# 5 0.000000 0.000000 0.000000 0.000000 0.048066 0.000000
# 6 0.000000 0.000000 0.000000 0.000000 0.000000 0.038003
#
#
# Mechanical properties :
#
#
# Convention : Reuss Voigt Hill
#
# Bulk Modulus (GPa) = 49.31541 52.01591 50.66566
# Shear Modulus (GPa) = 20.27169 21.80581 21.03875
#
# Velocity S-wave (km/s) = 3.76178 3.90153 3.83229
# Velocity P-wave (km/s) = 7.30024 7.52373 7.41283
#
# Compressibility (1/GPa) = 0.02027764
#
# Stress axis : x y z
#
# Youngs Moduli (GPa) = 44.16284 67.53831 33.99031
#
# Poissons Ratio (x) = 0.35741 0.41724
# Poissons Ratio (y) = 0.23371 0.19472
# Poissons Ratio (z) = 0.54212 0.38692
#
# Static dielectric constant tensor:
#      x y z
#    x 1.475720 0.000000 0.000000 
#    y 0.000000 1.479670 0.000000 
#    z 0.000000 0.000000 1.461180 
# 
# From -- ./inp_files/28139.got.cif
#   From: 2010.05.17/outbox.cif.g08.bks.cpg/sg23_15_cif.got.tgz:28139.got - 2010.06.04 12:02:01.
