data_PCOD9329779
_publ_section_title
;
Structure prediction by ZEFSAII (Michael W. Deem and Ramdas Pophale) SiO2 
 PCOD9329779
Probable space group: I 2 2 2
;
_chemical_formula_sum "Si O2"
_cell_formula_units_Z 40
_cell_length_a 6.981499
_cell_length_b 15.446306
_cell_length_c 13.647853
_cell_angle_alpha 90.000000
_cell_angle_beta 90.000000
_cell_angle_gamma 90.000000
_cell_volume 1471.762220
_symmetry_space_group_name_H-M "I 2 2 2"
_symmetry_group_IT_number 23
_symmetry_cell_setting 'orthorhombic'
loop_
_space_group_symop_operation_xyz
x,y,z
-x,-y,z
x,-y,-z
-x,y,-z
1/2+x,1/2+y,1/2+z
1/2-x,1/2-y,1/2+z
1/2+x,1/2-y,1/2-z
1/2-x,1/2+y,1/2-z
loop_
_atom_site_type_symbol
_atom_site_label
_atom_site_fract_x
_atom_site_fract_y
_atom_site_fract_z
Si Si1 0.250367 0.877753 0.890721
Si Si2 0.320888 0.185953 0.688796
Si Si3 0.302929 0.162541 0.906198
Si Si4 0.828604 0.432490 0.197373
Si Si5 0.732528 0.146796 0.512485
O O1 0.181867 0.784388 0.849935
O O2 0.482227 0.873549 0.898004
O O3 0.215371 0.941067 0.798964
O O4 0.199532 0.888170 0.005315
O O5 0.231770 0.166096 0.794631
O O6 0.542177 0.155995 0.699266
O O7 0.211147 0.136741 0.600870
O O8 0.304600 0.261231 0.946208
O O9 0.723264 0.424386 0.094068
O O10 0.000000 0.500000 0.192550
O O11 0.500000 0.149488 0.500000
#
# Coordination Sequence:
#
# PCOD9329779 Si02
#       5
#     8   8   8   8   8
#     4   9  17  30  48  70  98 132 173 208 258 314
#     4   9  17  29  47  69  99 131 167 211 256 312
#     4   9  16  29  47  70  96 129 172 214 247 308
#     4  10  19  31  49  76 105 132 166 216 269 311
#     4   9  17  28  46  72  98 129 167 209 261 305
#
# _framework density 27.178305000000002
#
# number of rings (size 3 to 8) (size 9 to 14) (size 15 to 20)
#    0.000    2.800    2.000    0.000    0.000    3.600 
#    0.000    8.000    0.000    1.200    0.000    8.400 
#    0.000    8.000    0.000    0.000    0.000    0.000 
#
# Total GULP energy -111579.348727 kJ/mol
# GULP energy per Si atom -5578.967436 kJ/mol
# Density = 2.711645 g / cm^3
# Si number density = 27.178305 Si / 1000 Ang^3
#
#
#
# Elastic Constant Matrix: (Units=GPa)
#
#
# Indices 1 2 3 4 5 6 
#
# 1 94.4127 -3.1099 -8.1827 0.0000 0.0000 0.0000
# 2 -3.1099 38.0392 6.3716 0.0000 0.0000 0.0000
# 3 -8.1827 6.3716 342.6386 0.0000 0.0000 0.0000
# 4 0.0000 0.0000 0.0000 10.4676 0.0000 0.0000
# 5 0.0000 0.0000 0.0000 0.0000 -3.1105 0.0000
# 6 0.0000 0.0000 0.0000 0.0000 0.0000 30.1812
#
#
#
# Elastic Compliance Matrix: (Units=1/GPa)
#
#
# Indices 1 2 3 4 5 6 
#
# 1 0.010640 0.000830 0.000239 0.000000 0.000000 0.000000
# 2 0.000830 0.026436 -0.000472 0.000000 0.000000 0.000000
# 3 0.000239 -0.000472 0.002933 0.000000 0.000000 0.000000
# 4 0.000000 0.000000 0.000000 0.095533 0.000000 0.000000
# 5 0.000000 0.000000 0.000000 0.000000 -0.321492 0.000000
# 6 0.000000 0.000000 0.000000 0.000000 0.000000 0.033133
#
#
# Mechanical properties :
#
#
# Convention : Reuss Voigt Hill
#
# Bulk Modulus (GPa) = 24.27074 51.69429 37.98251
# Shear Modulus (GPa) = -35.64379 39.50842 1.93231
#
# Velocity S-wave (km/s) = -3.62536 3.81685 0.84411
# Velocity P-wave (km/s) = 2.92827 6.20372 3.86726
#
# Compressibility (1/GPa) = 0.04120188
#
# Stress axis : x y z
#
# Youngs Moduli (GPa) = 93.98657 37.82787 340.94792
#
# Poissons Ratio (x) = -0.03139 -0.08137
# Poissons Ratio (y) = -0.07800 0.16085
# Poissons Ratio (z) = -0.02243 0.01785
#
# Static dielectric constant tensor:
#      x y z
#    x 2.074700 0.000000 0.000000 
#    y 0.000000 2.176600 0.000000 
#    z 0.000000 0.000000 2.392790 
# 
# From -- ./inp_files/9786.got.cif
#   From: 2010.05.17/outbox.cif.g08.bks.cpg/sg23_5_cif.got.tgz:9786.got - 2010.06.04 12:02:01.
