data_PCOD9329761
_publ_section_title
;
Structure prediction by ZEFSAII (Michael W. Deem and Ramdas Pophale) SiO2 
 PCOD9329761
Probable space group: I 2 2 2
;
_chemical_formula_sum "Si O2"
_cell_formula_units_Z 64
_cell_length_a 28.274145
_cell_length_b 12.452927
_cell_length_c 12.452926
_cell_angle_alpha 90.000000
_cell_angle_beta 90.000000
_cell_angle_gamma 90.000000
_cell_volume 4384.623735
_symmetry_space_group_name_H-M "I 2 2 2"
_symmetry_group_IT_number 23
_symmetry_cell_setting 'orthorhombic'
loop_
_space_group_symop_operation_xyz
x,y,z
-x,-y,z
x,-y,-z
-x,y,-z
1/2+x,1/2+y,1/2+z
1/2-x,1/2-y,1/2+z
1/2+x,1/2-y,1/2-z
1/2-x,1/2+y,1/2-z
loop_
_atom_site_type_symbol
_atom_site_label
_atom_site_fract_x
_atom_site_fract_y
_atom_site_fract_z
Si Si1 0.126493 0.375943 0.495299
Si Si2 0.699074 0.307641 0.629385
Si Si3 0.056397 0.999715 0.321896
Si Si4 0.300926 0.129384 0.192362
Si Si5 0.302836 0.118804 0.796758
Si Si6 0.873508 0.004701 0.875943
Si Si7 0.302836 0.296761 0.618805
Si Si8 0.556397 0.321895 0.999716
O O1 0.109562 0.500000 0.500000
O O2 0.161855 0.359571 0.595654
O O3 0.157737 0.363177 0.387818
O O4 0.085838 0.287098 0.498730
O O5 0.688968 0.213555 0.713554
O O6 0.751565 0.352081 0.654013
O O7 0.661854 0.404347 0.640428
O O8 0.697274 0.268376 0.506771
O O9 0.067356 0.895305 0.395306
O O10 0.085838 0.001268 0.212903
O O11 0.067319 0.102752 0.397248
O O12 0.000000 0.000000 0.302508
O O13 0.248435 0.154009 0.147923
O O14 0.302728 0.006771 0.231628
O O15 0.310859 0.195711 0.695710
O O16 0.842264 0.112182 0.863178
O O17 0.890439 0.000000 0.000000
O O18 0.500000 0.302506 0.000000
#
# Coordination Sequence:
#
# PCOD9329761 Si02
#       8
#     8   8   8   8   8   8   8   8
#     4  10  19  30  50  70  93 124 155 196 230 280
#     4  10  19  31  46  64  91 123 156 194 231 271
#     4   9  18  33  51  71  97 124 153 195 241 283
#     4  10  19  31  46  64  91 123 156 194 231 271
#     4  10  19  31  46  64  91 123 156 194 231 271
#     4  10  19  30  50  70  93 124 155 196 230 280
#     4  10  19  31  46  64  91 123 156 194 231 271
#     4   9  18  33  51  71  97 124 153 195 241 283
#
# _framework density 14.596463999999999
#
# number of rings (size 3 to 8) (size 9 to 14) (size 15 to 20)
#    0.000    2.250    2.500    2.250    0.000    1.000 
#    0.000    0.000    0.000    0.000    0.000    0.000 
#    0.000    0.000    0.000   46.500    0.000    0.000 
#
# Total GULP energy -178427.615109 kJ/mol
# GULP energy per Si atom -5575.862972 kJ/mol
# Density = 1.456324 g / cm^3
# Si number density = 14.596464 Si / 1000 Ang^3
#
#
#
# Elastic Constant Matrix: (Units=GPa)
#
#
# Indices 1 2 3 4 5 6 
#
# 1 46.6673 18.9589 18.9573 0.0000 0.0000 0.0000
# 2 18.9589 55.8733 4.4727 0.0000 0.0000 0.0000
# 3 18.9573 4.4727 55.8687 0.0000 0.0000 0.0000
# 4 0.0000 0.0000 0.0000 20.0813 0.0000 0.0000
# 5 0.0000 0.0000 0.0000 0.0000 26.6695 0.0000
# 6 0.0000 0.0000 0.0000 0.0000 0.0000 26.6691
#
#
#
# Elastic Compliance Matrix: (Units=1/GPa)
#
#
# Indices 1 2 3 4 5 6 
#
# 1 0.028773 -0.009039 -0.009039 0.000000 0.000000 0.000000
# 2 -0.009039 0.020853 0.001398 0.000000 0.000000 0.000000
# 3 -0.009039 0.001398 0.020854 0.000000 0.000000 0.000000
# 4 0.000000 0.000000 0.000000 0.049798 0.000000 0.000000
# 5 0.000000 0.000000 0.000000 0.000000 0.037496 0.000000
# 6 0.000000 0.000000 0.000000 0.000000 0.000000 0.037497
#
#
# Mechanical properties :
#
#
# Convention : Reuss Voigt Hill
#
# Bulk Modulus (GPa) = 26.94114 27.02078 26.98096
# Shear Modulus (GPa) = 20.74647 22.41868 21.58257
#
# Velocity S-wave (km/s) = 3.77415 3.92331 3.84945
# Velocity P-wave (km/s) = 6.12288 6.25101 6.18728
#
# Compressibility (1/GPa) = 0.03711795
#
# Stress axis : x y z
#
# Youngs Moduli (GPa) = 34.75532 47.95475 47.95142
#
# Poissons Ratio (x) = 0.43348 0.43345
# Poissons Ratio (y) = 0.31417 -0.06703
# Poissons Ratio (z) = 0.31417 -0.06703
#
# Static dielectric constant tensor:
#      x y z
#    x 1.456900 0.000000 0.000000 
#    y 0.000000 1.466660 0.000000 
#    z 0.000000 0.000000 1.466660 
# 
# From -- ./inp_files/16130.got.cif
#   From: 2010.05.17/outbox.cif.g08.bks.cpg/sg23_9_cif.got.tgz:16130.got - 2010.06.04 12:02:01.
