data_PCOD9329073
_publ_section_title
;
Structure prediction by ZEFSAII (Michael W. Deem and Ramdas Pophale) SiO2 
 PCOD9329073
Probable space group: F 2 2 2
;
_chemical_formula_sum "Si O2"
_cell_formula_units_Z 88
_cell_length_a 11.532527
_cell_length_b 28.053101
_cell_length_c 12.334748
_cell_angle_alpha 90.000000
_cell_angle_beta 90.000000
_cell_angle_gamma 90.000000
_cell_volume 3990.576462
_symmetry_space_group_name_H-M "F 2 2 2"
_symmetry_group_IT_number 22
_symmetry_cell_setting 'orthorhombic'
loop_
_space_group_symop_operation_xyz
x,y,z
-x,-y,z
x,-y,-z
-x,y,-z
x,1/2+y,1/2+z
-x,1/2-y,1/2+z
x,1/2-y,1/2-z
-x,1/2+y,1/2-z
1/2+x,y,1/2+z
1/2-x,-y,1/2+z
1/2+x,-y,1/2-z
1/2-x,y,1/2-z
1/2+x,1/2+y,z
1/2-x,1/2-y,z
1/2+x,1/2-y,-z
1/2-x,1/2+y,-z
loop_
_atom_site_type_symbol
_atom_site_label
_atom_site_fract_x
_atom_site_fract_y
_atom_site_fract_z
Si Si1 0.073754 0.045194 0.322416
Si Si2 0.520966 0.352002 0.372992
Si Si3 0.325803 0.541608 0.914374
Si Si4 0.211739 0.304544 0.137001
Si Si5 0.627409 0.360778 0.024238
Si Si6 0.250000 0.648235 0.250000
O O1 0.008214 0.095988 0.321701
O O2 0.189008 0.049849 0.394408
O O3 0.116700 0.032384 0.201564
O O4 0.000000 0.000000 0.361585
O O5 0.500000 0.362328 0.500000
O O6 0.425007 0.311482 0.356715
O O7 0.641932 0.333266 0.323947
O O8 0.343599 0.500000 0.000000
O O9 0.376349 0.589450 0.962801
O O10 0.250000 0.328539 0.250000
O O11 0.250000 0.250000 0.135506
O O12 0.275171 0.330007 0.037836
O O13 0.671092 0.370546 0.147272
O O14 0.500000 0.338413 0.000000
#
# Coordination Sequence:
#
# PCOD9329073 Si02
#       6
#    16  16  16  16  16   8
#     4  11  26  41  66  99 142 200 251 318 386 461
#     4  12  25  48  75 110 155 200 261 319 393 473
#     4  11  26  43  63 100 145 189 259 320 382 459
#     4  11  24  48  80 110 152 208 256 320 399 469
#     4  12  26  47  75 108 153 201 259 323 394 464
#     4  12  26  44  81 114 148 206 250 320 389 470
#
# _framework density 22.051953000000001
#
# number of rings (size 3 to 8) (size 9 to 14) (size 15 to 20)
#    0.000    0.545    3.636    3.273   10.182    0.727 
#    0.000    0.455    0.000    0.000    0.000    0.000 
#    0.000    0.000    0.000    0.000    0.000    0.000 
#
# Total GULP energy -122657.279320 kJ/mol
# GULP energy per Si atom -5575.330878 kJ/mol
# Density = 2.200176 g / cm^3
# Si number density = 22.051953 Si / 1000 Ang^3
#
#
#
# Elastic Constant Matrix: (Units=GPa)
#
#
# Indices 1 2 3 4 5 6 
#
# 1 170.9342 28.0575 26.3147 0.0000 0.0000 0.0000
# 2 28.0575 65.2405 5.4548 0.0000 0.0000 0.0000
# 3 26.3147 5.4548 99.6748 0.0000 0.0000 0.0000
# 4 0.0000 0.0000 0.0000 13.3745 0.0000 0.0000
# 5 0.0000 0.0000 0.0000 0.0000 35.5384 0.0000
# 6 0.0000 0.0000 0.0000 0.0000 0.0000 29.5645
#
#
#
# Elastic Compliance Matrix: (Units=1/GPa)
#
#
# Indices 1 2 3 4 5 6 
#
# 1 0.006533 -0.002678 -0.001578 0.000000 0.000000 0.000000
# 2 -0.002678 0.016496 -0.000196 0.000000 0.000000 0.000000
# 3 -0.001578 -0.000196 0.010460 0.000000 0.000000 0.000000
# 4 0.000000 0.000000 0.000000 0.074769 0.000000 0.000000
# 5 0.000000 0.000000 0.000000 0.000000 0.028139 0.000000
# 6 0.000000 0.000000 0.000000 0.000000 0.000000 0.033824
#
#
# Mechanical properties :
#
#
# Convention : Reuss Voigt Hill
#
# Bulk Modulus (GPa) = 40.67454 50.61150 45.64302
# Shear Modulus (GPa) = 26.69247 34.09699 30.39473
#
# Velocity S-wave (km/s) = 3.48291 3.93646 3.71661
# Velocity P-wave (km/s) = 5.88720 6.60771 6.25783
#
# Compressibility (1/GPa) = 0.02458540
#
# Stress axis : x y z
#
# Youngs Moduli (GPa) = 153.07746 60.62160 95.60252
#
# Poissons Ratio (x) = 0.16231 0.15087
# Poissons Ratio (y) = 0.40986 0.01873
# Poissons Ratio (z) = 0.24157 0.01187
#
# Static dielectric constant tensor:
#      x y z
#    x 2.057490 0.000000 0.000000 
#    y 0.000000 1.691100 0.000000 
#    z 0.000000 0.000000 1.874570 
# 
# From -- ./inp_files/18429.got.cif
#   From: 2010.05.17/outbox.cif.g08.bks.cpg/sg22_10_cif.got.tgz:18429.got - 2010.06.03 23:40:54.
