data_PCOD9329136
_publ_section_title
;
Structure prediction by ZEFSAII (Michael W. Deem and Ramdas Pophale) SiO2 
 PCOD9329136
Probable space group: F 2 2 2
;
_chemical_formula_sum "Si O2"
_cell_formula_units_Z 80
_cell_length_a 28.665241
_cell_length_b 11.499421
_cell_length_c 10.879516
_cell_angle_alpha 90.000000
_cell_angle_beta 90.000000
_cell_angle_gamma 90.000000
_cell_volume 3586.254834
_symmetry_space_group_name_H-M "F 2 2 2"
_symmetry_group_IT_number 22
_symmetry_cell_setting 'orthorhombic'
loop_
_space_group_symop_operation_xyz
x,y,z
-x,-y,z
x,-y,-z
-x,y,-z
x,1/2+y,1/2+z
-x,1/2-y,1/2+z
x,1/2-y,1/2-z
-x,1/2+y,1/2-z
1/2+x,y,1/2+z
1/2-x,-y,1/2+z
1/2+x,-y,1/2-z
1/2-x,y,1/2-z
1/2+x,1/2+y,z
1/2-x,1/2-y,z
1/2+x,1/2-y,-z
1/2-x,1/2+y,-z
loop_
_atom_site_type_symbol
_atom_site_label
_atom_site_fract_x
_atom_site_fract_y
_atom_site_fract_z
Si Si1 0.881894 0.900686 0.913222
Si Si2 0.096852 0.280775 0.105396
Si Si3 0.354724 0.500000 0.500000
Si Si4 0.304027 0.389370 0.731810
Si Si5 0.028466 0.113764 0.750289
Si Si6 0.000000 0.165562 0.500000
O O1 0.836088 0.939834 0.840801
O O2 0.921275 0.878642 0.811821
O O3 0.873952 0.796518 0.008880
O O4 0.901409 0.000000 0.000000
O O5 0.101074 0.250000 0.250000
O O6 0.113980 0.410997 0.079310
O O7 0.043559 0.264543 0.058417
O O8 0.323445 0.432148 0.600863
O O9 0.309508 0.250000 0.750000
O O10 0.250000 0.419120 0.750000
O O11 0.012396 0.250000 0.750000
O O12 0.027105 0.095374 0.604799
O O13 0.000000 0.000000 0.800321
#
# Coordination Sequence:
#
# PCOD9329136 Si02
#       6
#    16  16   8  16  16   8
#     4  12  27  49  74 109 155 198 259 320 397 465
#     4  12  28  47  73 111 151 205 257 322 381 455
#     4  12  26  51  80 112 158 196 261 318 390 478
#     4  11  25  50  82 113 151 200 250 322 402 476
#     4  12  28  47  72 104 149 205 262 326 387 466
#     4  12  27  44  67 104 149 196 267 306 381 454
#
# _framework density 22.307395
#
# number of rings (size 3 to 8) (size 9 to 14) (size 15 to 20)
#    0.000    0.200    4.000    3.900   12.600    0.400 
#    0.000    0.000    0.000    0.000    0.000    0.000 
#    0.000    0.000    0.000    0.000    0.000    0.000 
#
# Total GULP energy -111596.146722 kJ/mol
# GULP energy per Si atom -5579.807336 kJ/mol
# Density = 2.225662 g / cm^3
# Si number density = 22.307395 Si / 1000 Ang^3
#
#
#
# Elastic Constant Matrix: (Units=GPa)
#
#
# Indices 1 2 3 4 5 6 
#
# 1 94.3138 34.0474 70.1765 0.0000 0.0000 0.0000
# 2 34.0474 121.2797 45.1740 0.0000 0.0000 0.0000
# 3 70.1765 45.1740 185.0772 0.0000 0.0000 0.0000
# 4 0.0000 0.0000 0.0000 38.5557 0.0000 0.0000
# 5 0.0000 0.0000 0.0000 0.0000 21.6162 0.0000
# 6 0.0000 0.0000 0.0000 0.0000 0.0000 24.2858
#
#
#
# Elastic Compliance Matrix: (Units=1/GPa)
#
#
# Indices 1 2 3 4 5 6 
#
# 1 0.015359 -0.002357 -0.005248 0.000000 0.000000 0.000000
# 2 -0.002357 0.009432 -0.001408 0.000000 0.000000 0.000000
# 3 -0.005248 -0.001408 0.007737 0.000000 0.000000 0.000000
# 4 0.000000 0.000000 0.000000 0.025936 0.000000 0.000000
# 5 0.000000 0.000000 0.000000 0.000000 0.046261 0.000000
# 6 0.000000 0.000000 0.000000 0.000000 0.000000 0.041176
#
#
# Mechanical properties :
#
#
# Convention : Reuss Voigt Hill
#
# Bulk Modulus (GPa) = 68.96493 77.71852 73.34172
# Shear Modulus (GPa) = 29.62738 33.64307 31.63522
#
# Velocity S-wave (km/s) = 3.64832 3.88771 3.76992
# Velocity P-wave (km/s) = 6.98068 7.42077 7.20409
#
# Compressibility (1/GPa) = 0.01450012
#
# Stress axis : x y z
#
# Youngs Moduli (GPa) = 65.10850 106.02575 129.24891
#
# Poissons Ratio (x) = 0.24989 0.67836
# Poissons Ratio (y) = 0.15345 0.18204
# Poissons Ratio (z) = 0.34172 0.14933
#
# Static dielectric constant tensor:
#      x y z
#    x 1.801270 0.000000 0.000000 
#    y 0.000000 2.277550 0.000000 
#    z 0.000000 0.000000 1.911110 
# 
# From -- ./inp_files/25145.got.cif
#   From: 2010.05.17/outbox.cif.g08.bks.cpg/sg22_13_cif.got.tgz:25145.got - 2010.06.03 23:40:54.
