data_PCOD9329646
_publ_section_title
;
Structure prediction by ZEFSAII (Michael W. Deem and Ramdas Pophale) SiO2 
 PCOD9329646
Probable space group: I 2 2 2
;
_chemical_formula_sum "Si O2"
_cell_formula_units_Z 64
_cell_length_a 21.281991
_cell_length_b 17.680926
_cell_length_c 8.031344
_cell_angle_alpha 90.000000
_cell_angle_beta 90.000000
_cell_angle_gamma 90.000000
_cell_volume 3022.076751
_symmetry_space_group_name_H-M "I 2 2 2"
_symmetry_group_IT_number 23
_symmetry_cell_setting 'orthorhombic'
loop_
_space_group_symop_operation_xyz
x,y,z
-x,-y,z
x,-y,-z
-x,y,-z
1/2+x,1/2+y,1/2+z
1/2-x,1/2-y,1/2+z
1/2+x,1/2-y,1/2-z
1/2-x,1/2+y,1/2-z
loop_
_atom_site_type_symbol
_atom_site_label
_atom_site_fract_x
_atom_site_fract_y
_atom_site_fract_z
Si Si1 0.573601 0.294820 0.214065
Si Si2 0.267177 0.091481 0.694699
Si Si3 0.062991 0.035597 0.186406
Si Si4 0.455447 0.257023 0.339191
Si Si5 0.296590 0.540665 0.318266
Si Si6 0.850646 0.302656 0.981558
Si Si7 0.146435 0.812337 0.375957
Si Si8 0.758321 0.314681 0.470621
O O1 0.557027 0.373879 0.306402
O O2 0.507419 0.251246 0.197409
O O3 0.618904 0.242821 0.325471
O O4 0.606114 0.316369 0.042879
O O5 0.321041 0.119357 0.574010
O O6 0.200251 0.125482 0.636534
O O7 0.256458 0.003407 0.718060
O O8 0.278364 0.134817 0.871329
O O9 0.133890 0.025907 0.254232
O O10 0.000000 0.000000 0.266758
O O11 0.064584 0.000000 0.000000
O O12 0.500000 0.268084 0.500000
O O13 0.407535 0.190877 0.389015
O O14 0.403226 0.317567 0.277076
O O15 0.297542 0.500000 0.500000
O O16 0.277544 0.627531 0.346694
O O17 0.792506 0.247802 0.030189
O O18 0.184546 0.732644 0.392651
#
# Coordination Sequence:
#
# PCOD9329646 Si02
#       8
#     8   8   8   8   8   8   8   8
#     4  11  22  37  59  88 124 160 216 264 302 375
#     4  10  20  34  59  87 122 158 209 263 322 372
#     4  10  22  33  57  86 124 178 217 247 292 384
#     4  10  23  36  61  83 115 159 208 257 318 383
#     4   9  19  33  55  85 123 162 208 246 302 382
#     4  10  19  35  57  86 113 160 207 259 309 377
#     4  11  22  37  61  87 126 157 213 273 321 363
#     4  10  18  34  59  87 121 163 204 263 316 380
#
# _framework density 21.177488
#
# number of rings (size 3 to 8) (size 9 to 14) (size 15 to 20)
#    0.000    1.875    3.750    0.375    7.000    0.000 
#    0.000    0.625    0.000    0.000    0.000    6.125 
#    0.000    0.000    0.000    0.000    0.000    0.000 
#
# Total GULP energy -178405.423308 kJ/mol
# GULP energy per Si atom -5575.169478 kJ/mol
# Density = 2.112929 g / cm^3
# Si number density = 21.177488 Si / 1000 Ang^3
#
#
#
# Elastic Constant Matrix: (Units=GPa)
#
#
# Indices 1 2 3 4 5 6 
#
# 1 118.0053 45.4096 37.6339 0.0000 0.0000 0.0000
# 2 45.4096 78.5840 11.8165 0.0000 0.0000 0.0000
# 3 37.6339 11.8165 60.2319 0.0000 0.0000 0.0000
# 4 0.0000 0.0000 0.0000 13.2237 0.0000 0.0000
# 5 0.0000 0.0000 0.0000 0.0000 37.6439 0.0000
# 6 0.0000 0.0000 0.0000 0.0000 0.0000 18.9105
#
#
#
# Elastic Compliance Matrix: (Units=1/GPa)
#
#
# Indices 1 2 3 4 5 6 
#
# 1 0.013240 -0.006601 -0.006977 0.000000 0.000000 0.000000
# 2 -0.006601 0.016403 0.000907 0.000000 0.000000 0.000000
# 3 -0.006977 0.000907 0.020784 0.000000 0.000000 0.000000
# 4 0.000000 0.000000 0.000000 0.075622 0.000000 0.000000
# 5 0.000000 0.000000 0.000000 0.000000 0.026565 0.000000
# 6 0.000000 0.000000 0.000000 0.000000 0.000000 0.052881
#
#
# Mechanical properties :
#
#
# Convention : Reuss Voigt Hill
#
# Bulk Modulus (GPa) = 39.86744 49.61570 44.74157
# Shear Modulus (GPa) = 20.90305 24.75304 22.82805
#
# Velocity S-wave (km/s) = 3.14513 3.42254 3.28676
# Velocity P-wave (km/s) = 5.66175 6.25282 5.96461
#
# Compressibility (1/GPa) = 0.02508312
#
# Stress axis : x y z
#
# Youngs Moduli (GPa) = 75.53081 60.96260 48.11357
#
# Poissons Ratio (x) = 0.40243 0.33570
# Poissons Ratio (y) = 0.49860 -0.04362
# Poissons Ratio (z) = 0.52700 -0.05526
#
# Static dielectric constant tensor:
#      x y z
#    x 1.800010 0.000000 0.000000 
#    y 0.000000 1.744160 0.000000 
#    z 0.000000 0.000000 1.887600 
# 
# From -- ./inp_files/11425.got.cif
#   From: 2010.05.17/outbox.cif.g08.bks.cpg/sg23_6_cif.got.tgz:11425.got - 2010.06.04 12:02:01.
