data_PCOD9329544
_publ_section_title
;
Structure prediction by ZEFSAII (Michael W. Deem and Ramdas Pophale) SiO2 
 PCOD9329544
Probable space group: I 2 2 2
;
_chemical_formula_sum "Si O2"
_cell_formula_units_Z 64
_cell_length_a 16.679093
_cell_length_b 7.650701
_cell_length_c 25.852141
_cell_angle_alpha 90.000000
_cell_angle_beta 90.000000
_cell_angle_gamma 90.000000
_cell_volume 3298.907784
_symmetry_space_group_name_H-M "I 2 2 2"
_symmetry_group_IT_number 23
_symmetry_cell_setting 'orthorhombic'
loop_
_space_group_symop_operation_xyz
x,y,z
-x,-y,z
x,-y,-z
-x,y,-z
1/2+x,1/2+y,1/2+z
1/2-x,1/2-y,1/2+z
1/2+x,1/2-y,1/2-z
1/2-x,1/2+y,1/2-z
loop_
_atom_site_type_symbol
_atom_site_label
_atom_site_fract_x
_atom_site_fract_y
_atom_site_fract_z
Si Si1 0.412418 0.212017 0.214164
Si Si2 0.588244 0.488980 0.126307
Si Si3 0.740622 0.986570 0.620918
Si Si4 0.665659 0.705484 0.689128
Si Si5 0.990419 0.796497 0.126439
Si Si6 0.097757 0.314569 0.293912
Si Si7 0.159205 0.794785 0.175375
Si Si8 0.418220 0.078863 0.557015
O O1 0.409322 0.363800 0.171525
O O2 0.506912 0.201487 0.228128
O O3 0.362522 0.253763 0.265391
O O4 0.387327 0.018730 0.195618
O O5 0.500000 0.500000 0.101267
O O6 0.671245 0.515471 0.096172
O O7 0.595591 0.303743 0.155352
O O8 0.725695 0.167761 0.651482
O O9 0.730450 0.830391 0.662603
O O10 0.667831 0.958296 0.581044
O O11 0.580424 0.768210 0.664324
O O12 0.656714 0.739158 0.750054
O O13 0.676818 0.502263 0.674409
O O14 0.947639 0.774932 0.069788
O O15 0.080129 0.741792 0.141989
O O16 0.000000 0.000000 0.137127
O O17 0.500000 0.000000 0.583661
O O18 0.417470 0.000000 0.500000
#
# Coordination Sequence:
#
# PCOD9329544 Si02
#       8
#     8   8   8   8   8   8   8   8
#     4  10  19  30  51  72 104 147 185 228 260 305
#     4  10  23  39  51  70 103 145 190 230 267 306
#     4  11  23  36  55  76 105 141 179 223 276 323
#     4  10  19  29  49  76 108 140 183 218 256 314
#     4   9  18  30  53  80 110 149 178 211 254 323
#     4  10  18  31  49  73 101 145 185 224 267 302
#     4  11  18  30  50  76 111 141 181 218 255 313
#     4  10  20  37  60  84 111 136 169 213 277 347
#
# _framework density 19.400361
#
# number of rings (size 3 to 8) (size 9 to 14) (size 15 to 20)
#    0.000    1.875    5.000    0.000    0.000    2.000 
#    0.000    1.250    0.000    0.375    0.000    0.000 
#    0.000    0.000    0.000   10.000    0.000    0.000 
#
# Total GULP energy -178184.472115 kJ/mol
# GULP energy per Si atom -5568.264754 kJ/mol
# Density = 1.935621 g / cm^3
# Si number density = 19.400361 Si / 1000 Ang^3
#
#
#
# Elastic Constant Matrix: (Units=GPa)
#
#
# Indices 1 2 3 4 5 6 
#
# 1 141.9299 14.1929 9.1453 0.0000 0.0000 0.0000
# 2 14.1929 82.4681 -2.7260 0.0000 0.0000 0.0000
# 3 9.1453 -2.7260 24.0646 0.0000 0.0000 0.0000
# 4 0.0000 0.0000 0.0000 72.5489 0.0000 0.0000
# 5 0.0000 0.0000 0.0000 0.0000 14.1764 0.0000
# 6 0.0000 0.0000 0.0000 0.0000 0.0000 -5.7279
#
#
#
# Elastic Compliance Matrix: (Units=1/GPa)
#
#
# Indices 1 2 3 4 5 6 
#
# 1 0.007373 -0.001367 -0.002957 0.000000 0.000000 0.000000
# 2 -0.001367 0.012425 0.001927 0.000000 0.000000 0.000000
# 3 -0.002957 0.001927 0.042897 0.000000 0.000000 0.000000
# 4 0.000000 0.000000 0.000000 0.013784 0.000000 0.000000
# 5 0.000000 0.000000 0.000000 0.000000 0.070540 0.000000
# 6 0.000000 0.000000 0.000000 0.000000 0.000000 -0.174583
#
#
# Mechanical properties :
#
#
# Convention : Reuss Voigt Hill
#
# Bulk Modulus (GPa) = 17.27076 32.18743 24.72910
# Shear Modulus (GPa) = -1440.17116 31.38950 -704.39083
#
# Velocity S-wave (km/s) = -27.27552 4.02678 -19.07536
# Velocity P-wave (km/s) = 31.35310 6.18443 21.73442
#
# Compressibility (1/GPa) = 0.05790133
#
# Stress axis : x y z
#
# Youngs Moduli (GPa) = 135.63162 80.48423 23.31182
#
# Poissons Ratio (x) = 0.10999 0.06893
# Poissons Ratio (y) = 0.18536 -0.04492
# Poissons Ratio (z) = 0.40103 -0.15508
#
# Static dielectric constant tensor:
#      x y z
#    x 1.638660 0.000000 0.000000 
#    y 0.000000 3.784410 0.000000 
#    z 0.000000 0.000000 1.680740 
# 
# From -- ./inp_files/30590.got.cif
#   From: 2010.05.17/outbox.cif.g08.bks.cpg/sg23_16_cif.got.tgz:30590.got - 2010.06.04 12:02:01.
