data_PCOD9329839
_publ_section_title
;
Structure prediction by ZEFSAII (Michael W. Deem and Ramdas Pophale) SiO2 
 PCOD9329839
Probable space group: I 2 2 2
;
_chemical_formula_sum "Si O2"
_cell_formula_units_Z 44
_cell_length_a 5.271792
_cell_length_b 16.788084
_cell_length_c 29.169283
_cell_angle_alpha 90.000000
_cell_angle_beta 90.000000
_cell_angle_gamma 90.000000
_cell_volume 2581.577423
_symmetry_space_group_name_H-M "I 2 2 2"
_symmetry_group_IT_number 23
_symmetry_cell_setting 'orthorhombic'
loop_
_space_group_symop_operation_xyz
x,y,z
-x,-y,z
x,-y,-z
-x,y,-z
1/2+x,1/2+y,1/2+z
1/2-x,1/2-y,1/2+z
1/2+x,1/2-y,1/2-z
1/2-x,1/2+y,1/2-z
loop_
_atom_site_type_symbol
_atom_site_label
_atom_site_fract_x
_atom_site_fract_y
_atom_site_fract_z
Si Si1 0.000000 0.000000 0.415178
Si Si2 0.500538 0.674896 0.294527
Si Si3 0.000000 0.500000 0.213061
Si Si4 0.001892 0.769290 0.310619
Si Si5 0.398506 0.092392 0.452500
Si Si6 0.336911 0.889125 0.362249
Si Si7 0.000000 0.000000 0.224722
O O1 0.898978 0.926840 0.445624
O O2 0.210848 0.969881 0.380648
O O3 0.223007 0.703050 0.309489
O O4 0.512837 0.688977 0.239436
O O5 0.531554 0.581548 0.303169
O O6 0.725568 0.729439 0.315544
O O7 0.015067 0.419000 0.182606
O O8 0.250974 0.505779 0.243528
O O9 0.108958 0.831369 0.347717
O O10 0.500000 0.127932 0.500000
O O11 0.498626 0.135478 0.406566
O O12 0.500000 0.000000 0.453748
#
# Coordination Sequence:
#
# PCOD9329839 Si02
#       7
#     4   8   4   8   8   8   4
#     4  10  19  33  49  68  98 136 172 218 243 302
#     4  10  22  35  49  69  95 128 166 213 262 296
#     4  12  22  30  51  78  94 132 180 218 249 298
#     4  10  22  34  48  71  98 126 165 213 260 300
#     4   9  19  31  45  70  94 131 174 213 253 295
#     4  11  21  30  49  70  99 129 176 215 254 292
#     4  12  23  36  55  70  99 132 175 226 251 310
#
# _framework density 17.043842000000001
#
# number of rings (size 3 to 8) (size 9 to 14) (size 15 to 20)
#    0.000    1.636    4.545    1.636    7.636    5.818 
#    0.000    0.000    0.000    0.000    0.000    0.000 
#    0.000    0.000    0.000    0.818    5.091    0.182 
#
# Total GULP energy -122593.721563 kJ/mol
# GULP energy per Si atom -5572.441889 kJ/mol
# Density = 1.700505 g / cm^3
# Si number density = 17.043842 Si / 1000 Ang^3
#
#
#
# Elastic Constant Matrix: (Units=GPa)
#
#
# Indices 1 2 3 4 5 6 
#
# 1 61.7665 -6.6791 3.3926 0.0000 0.0000 0.0000
# 2 -6.6791 53.2147 -2.3100 0.0000 0.0000 0.0000
# 3 3.3926 -2.3100 41.2381 0.0000 0.0000 0.0000
# 4 0.0000 0.0000 0.0000 7.2686 0.0000 0.0000
# 5 0.0000 0.0000 0.0000 0.0000 12.2721 0.0000
# 6 0.0000 0.0000 0.0000 0.0000 0.0000 21.3847
#
#
#
# Elastic Compliance Matrix: (Units=1/GPa)
#
#
# Indices 1 2 3 4 5 6 
#
# 1 0.016476 0.002014 -0.001243 0.000000 0.000000 0.000000
# 2 0.002014 0.019084 0.000903 0.000000 0.000000 0.000000
# 3 -0.001243 0.000903 0.024402 0.000000 0.000000 0.000000
# 4 0.000000 0.000000 0.000000 0.137579 0.000000 0.000000
# 5 0.000000 0.000000 0.000000 0.000000 0.081486 0.000000
# 6 0.000000 0.000000 0.000000 0.000000 0.000000 0.046762
#
#
# Mechanical properties :
#
#
# Convention : Reuss Voigt Hill
#
# Bulk Modulus (GPa) = 15.79494 16.11403 15.95448
# Shear Modulus (GPa) = 14.55420 18.97279 16.76350
#
# Velocity S-wave (km/s) = 2.92537 3.34005 3.13956
# Velocity P-wave (km/s) = 4.54948 4.93453 4.74591
#
# Compressibility (1/GPa) = 0.06331143
#
# Stress axis : x y z
#
# Youngs Moduli (GPa) = 60.69420 52.40048 40.97984
#
# Poissons Ratio (x) = -0.10553 0.05092
# Poissons Ratio (y) = -0.12224 -0.03702
# Poissons Ratio (z) = 0.07542 -0.04733
#
# Static dielectric constant tensor:
#      x y z
#    x 1.767780 0.000000 0.000000 
#    y 0.000000 1.627780 0.000000 
#    z 0.000000 0.000000 1.619040 
# 
# From -- ./inp_files/2678.got.cif
#   From: 2010.05.17/outbox.cif.g08.bks.cpg/sg23_2_cif.got.tgz:2678.got - 2010.06.04 12:02:01.
