data_PCOD9329040
_publ_section_title
;
Structure prediction by ZEFSAII (Michael W. Deem and Ramdas Pophale) SiO2 
 PCOD9329040
Probable space group: F 2 2 2
;
_chemical_formula_sum "Si O2"
_cell_formula_units_Z 96
_cell_length_a 14.184284
_cell_length_b 14.753261
_cell_length_c 21.452363
_cell_angle_alpha 90.000000
_cell_angle_beta 90.000000
_cell_angle_gamma 90.000000
_cell_volume 4489.216815
_symmetry_space_group_name_H-M "F 2 2 2"
_symmetry_group_IT_number 22
_symmetry_cell_setting 'orthorhombic'
loop_
_space_group_symop_operation_xyz
x,y,z
-x,-y,z
x,-y,-z
-x,y,-z
x,1/2+y,1/2+z
-x,1/2-y,1/2+z
x,1/2-y,1/2-z
-x,1/2+y,1/2-z
1/2+x,y,1/2+z
1/2-x,-y,1/2+z
1/2+x,-y,1/2-z
1/2-x,y,1/2-z
1/2+x,1/2+y,z
1/2-x,1/2-y,z
1/2+x,1/2-y,-z
1/2-x,1/2+y,-z
loop_
_atom_site_type_symbol
_atom_site_label
_atom_site_fract_x
_atom_site_fract_y
_atom_site_fract_z
Si Si1 0.641044 0.361331 0.944982
Si Si2 0.605825 0.502528 0.160307
Si Si3 0.753832 0.852700 0.675193
Si Si4 0.000000 0.782827 0.500000
Si Si5 0.250000 0.750000 0.656484
Si Si6 0.217757 0.000000 0.500000
Si Si7 0.250000 0.892697 0.750000
Si Si8 0.076707 0.072787 0.601189
O O1 0.595218 0.443860 0.905476
O O2 0.681854 0.302852 0.888478
O O3 0.719392 0.411817 0.986157
O O4 0.582255 0.288111 0.983089
O O5 0.500000 0.500000 0.186031
O O6 0.664536 0.409997 0.149813
O O7 0.674622 0.551860 0.210220
O O8 0.750000 0.853843 0.750000
O O9 0.750000 0.750000 0.652207
O O10 0.855235 0.890647 0.654700
O O11 0.970257 0.848839 0.557555
O O12 0.201528 0.824826 0.700445
O O13 0.149731 0.981447 0.442550
O O14 0.000000 0.000000 0.622707
#
# Coordination Sequence:
#
# PCOD9329040 Si02
#       8
#    16  16  16   8   8   8   8  16
#     4  11  26  39  70 101 147 183 236 296 369 437
#     4  11  24  45  70 105 141 187 245 295 370 453
#     4  11  27  51  72 104 149 202 254 311 384 456
#     4  12  27  45  68 118 146 190 254 303 377 456
#     4   9  20  44  66 100 126 180 233 282 352 424
#     4  12  23  45  70 106 150 196 235 304 387 454
#     4   9  20  44  73  94 140 176 231 302 360 415
#     4  12  26  48  76 108 153 197 255 313 379 466
#
# _framework density 21.384577
#
# number of rings (size 3 to 8) (size 9 to 14) (size 15 to 20)
#    0.000    1.000    4.167    1.000    7.000    0.667 
#    3.000    1.667    0.000    0.000    0.000    0.000 
#    0.000    0.000    0.000    0.000    0.000    0.000 
#
# Total GULP energy -133989.234642 kJ/mol
# GULP energy per Si atom -5582.884777 kJ/mol
# Density = 2.133590 g / cm^3
# Si number density = 21.384577 Si / 1000 Ang^3
#
#
#
# Elastic Constant Matrix: (Units=GPa)
#
#
# Indices 1 2 3 4 5 6 
#
# 1 128.2968 77.5404 28.0880 0.0000 0.0000 0.0000
# 2 77.5404 152.3273 24.8662 0.0000 0.0000 0.0000
# 3 28.0880 24.8662 47.1552 0.0000 0.0000 0.0000
# 4 0.0000 0.0000 0.0000 15.4399 0.0000 0.0000
# 5 0.0000 0.0000 0.0000 0.0000 28.5596 0.0000
# 6 0.0000 0.0000 0.0000 0.0000 0.0000 66.8580
#
#
#
# Elastic Compliance Matrix: (Units=1/GPa)
#
#
# Indices 1 2 3 4 5 6 
#
# 1 0.012005 -0.005409 -0.004298 0.000000 0.000000 0.000000
# 2 -0.005409 0.009620 -0.001851 0.000000 0.000000 0.000000
# 3 -0.004298 -0.001851 0.024743 0.000000 0.000000 0.000000
# 4 0.000000 0.000000 0.000000 0.064767 0.000000 0.000000
# 5 0.000000 0.000000 0.000000 0.000000 0.035014 0.000000
# 6 0.000000 0.000000 0.000000 0.000000 0.000000 0.014957
#
#
# Mechanical properties :
#
#
# Convention : Reuss Voigt Hill
#
# Bulk Modulus (GPa) = 43.00878 65.41873 54.21375
# Shear Modulus (GPa) = 26.04518 35.32382 30.68450
#
# Velocity S-wave (km/s) = 3.49369 4.06869 3.79210
# Velocity P-wave (km/s) = 6.03574 7.26156 6.67684
#
# Compressibility (1/GPa) = 0.02325107
#
# Stress axis : x y z
#
# Youngs Moduli (GPa) = 83.30110 103.94488 40.41555
#
# Poissons Ratio (x) = 0.56226 0.17371
# Poissons Ratio (y) = 0.45059 0.07482
# Poissons Ratio (z) = 0.35804 0.19242
#
# Static dielectric constant tensor:
#      x y z
#    x 1.771410 0.000000 0.000000 
#    y 0.000000 1.872460 0.000000 
#    z 0.000000 0.000000 1.709680 
# 
# From -- ./inp_files/43538.got.cif
#   From: 2010.05.17/outbox.cif.g08.bks.cpg/sg22_22_cif.got.tgz:43538.got - 2010.06.03 23:40:54.
