data_PCOD9329731
_publ_section_title
;
Structure prediction by ZEFSAII (Michael W. Deem and Ramdas Pophale) SiO2 
 PCOD9329731
Probable space group: I 2 2 2
;
_chemical_formula_sum "Si O2"
_cell_formula_units_Z 44
_cell_length_a 5.097224
_cell_length_b 14.600799
_cell_length_c 23.170362
_cell_angle_alpha 90.000000
_cell_angle_beta 90.000000
_cell_angle_gamma 90.000000
_cell_volume 1724.420435
_symmetry_space_group_name_H-M "I 2 2 2"
_symmetry_group_IT_number 23
_symmetry_cell_setting 'orthorhombic'
loop_
_space_group_symop_operation_xyz
x,y,z
-x,-y,z
x,-y,-z
-x,y,-z
1/2+x,1/2+y,1/2+z
1/2-x,1/2-y,1/2+z
1/2+x,1/2-y,1/2-z
1/2-x,1/2+y,1/2-z
loop_
_atom_site_type_symbol
_atom_site_label
_atom_site_fract_x
_atom_site_fract_y
_atom_site_fract_z
Si Si1 0.372513 0.631763 0.248748
Si Si2 0.124579 0.322376 0.316846
Si Si3 0.271300 0.138405 0.591733
Si Si4 0.000000 0.500000 0.817046
Si Si5 0.925429 0.176438 0.067430
Si Si6 0.500000 0.000000 0.500000
Si Si7 0.000000 0.000000 0.000000
Si Si8 0.000000 0.222810 0.500000
O O1 0.662386 0.628733 0.275123
O O2 0.360914 0.715979 0.203073
O O3 0.171448 0.651057 0.301451
O O4 0.231475 0.549122 0.217059
O O5 0.214198 0.342549 0.381379
O O6 0.346767 0.079409 0.646861
O O7 0.412171 0.236966 0.592821
O O8 0.999052 0.165863 0.560446
O O9 0.355936 0.069266 0.541569
O O10 0.057731 0.080062 0.049079
O O11 0.749331 0.214317 0.013367
#
# Coordination Sequence:
#
# PCOD9329731 Si02
#       8
#     8   8   8   4   8   2   2   4
#     4  10  23  45  72 106 140 189 246 307 368 452
#     4  10  24  45  72  99 147 191 238 309 380 425
#     4  11  23  44  66 106 149 193 240 308 374 450
#     4  11  24  45  76 106 150 191 256 299 382 466
#     4  12  25  47  69 105 143 196 246 314 375 448
#     4  10  18  42  56  94 158 184 230 292 368 448
#     4  12  26  46  72  94 142 188 254 302 364 462
#     4  12  24  44  74 102 154 192 248 310 376 452
#
# _framework density 25.515819
#
# number of rings (size 3 to 8) (size 9 to 14) (size 15 to 20)
#    0.000    1.091    5.455    0.000    2.545    4.364 
#    3.273    0.000    0.000    0.000    0.000    0.000 
#    0.000    0.000    0.000    0.000    0.000    0.000 
#
# Total GULP energy -122610.130244 kJ/mol
# GULP energy per Si atom -5573.187738 kJ/mol
# Density = 2.545774 g / cm^3
# Si number density = 25.515819 Si / 1000 Ang^3
#
#
#
# Elastic Constant Matrix: (Units=GPa)
#
#
# Indices 1 2 3 4 5 6 
#
# 1 67.6685 26.0463 -8.1432 0.0000 0.0000 0.0000
# 2 26.0463 179.4484 41.8860 0.0000 0.0000 0.0000
# 3 -8.1432 41.8860 87.9306 0.0000 0.0000 0.0000
# 4 0.0000 0.0000 0.0000 43.3319 0.0000 0.0000
# 5 0.0000 0.0000 0.0000 0.0000 27.6193 0.0000
# 6 0.0000 0.0000 0.0000 0.0000 0.0000 33.8760
#
#
#
# Elastic Compliance Matrix: (Units=1/GPa)
#
#
# Indices 1 2 3 4 5 6 
#
# 1 0.016313 -0.003061 0.002969 0.000000 0.000000 0.000000
# 2 -0.003061 0.006844 -0.003544 0.000000 0.000000 0.000000
# 3 0.002969 -0.003544 0.013336 0.000000 0.000000 0.000000
# 4 0.000000 0.000000 0.000000 0.023078 0.000000 0.000000
# 5 0.000000 0.000000 0.000000 0.000000 0.036207 0.000000
# 6 0.000000 0.000000 0.000000 0.000000 0.000000 0.029519
#
#
# Mechanical properties :
#
#
# Convention : Reuss Voigt Hill
#
# Bulk Modulus (GPa) = 34.22122 50.51398 42.36760
# Shear Modulus (GPa) = 35.13496 39.31600 37.22548
#
# Velocity S-wave (km/s) = 3.71480 3.92962 3.82372
# Velocity P-wave (km/s) = 5.64275 6.35841 6.01124
#
# Compressibility (1/GPa) = 0.02922164
#
# Stress axis : x y z
#
# Youngs Moduli (GPa) = 61.29963 146.11270 74.98749
#
# Poissons Ratio (x) = 0.44722 -0.22262
# Poissons Ratio (y) = 0.18762 0.26573
# Poissons Ratio (z) = -0.18199 0.51777
#
# Static dielectric constant tensor:
#      x y z
#    x 2.123240 0.000000 0.000000 
#    y 0.000000 -2.277690 0.000000 
#    z 0.000000 0.000000 2.139160 
# 
# From -- ./inp_files/28932.got.cif
#   From: 2010.05.17/outbox.cif.g08.bks.cpg/sg23_15_cif.got.tgz:28932.got - 2010.06.04 12:02:01.
