data_PCOD9329307
_publ_section_title
;
Structure prediction by ZEFSAII (Michael W. Deem and Ramdas Pophale) SiO2 
 PCOD9329307
Probable space group: F 2 2 2
;
_chemical_formula_sum "Si O2"
_cell_formula_units_Z 25
_cell_length_a 24.000000
_cell_length_b 15.000000
_cell_length_c 15.000000
_cell_angle_alpha 90.000000
_cell_angle_beta 90.000000
_cell_angle_gamma 90.000000
_cell_volume 5400.000000
_symmetry_space_group_name_H-M "F 2 2 2"
_symmetry_group_IT_number 22
_symmetry_cell_setting 'orthorhombic'
loop_
_space_group_symop_operation_xyz
x,y,z
-x,-y,z
x,-y,-z
-x,y,-z
x,1/2+y,1/2+z
-x,1/2-y,1/2+z
x,1/2-y,1/2-z
-x,1/2+y,1/2-z
1/2+x,y,1/2+z
1/2-x,-y,1/2+z
1/2+x,-y,1/2-z
1/2-x,y,1/2-z
1/2+x,1/2+y,z
1/2-x,1/2-y,z
1/2+x,1/2-y,-z
1/2-x,1/2+y,-z
loop_
_atom_site_type_symbol
_atom_site_label
_atom_site_fract_x
_atom_site_fract_y
_atom_site_fract_z
Si Si1 0.575271 0.132476 0.380385
Si Si2 0.000000 0.500000 0.500000
Si Si3 0.042040 0.317970 0.326580
Si Si4 0.635365 0.227991 0.534345
Si Si5 0.837624 0.071254 0.576007
Si Si6 0.885440 0.977739 0.234309
Si Si7 0.278977 0.378255 0.156440
O O1 0.523326 0.190758 0.345779
O O2 0.622102 0.183492 0.438549
O O3 0.541611 0.061628 0.442644
O O4 0.601504 0.076671 0.299148
O O5 0.059721 0.250000 0.250000
O O6 0.079274 0.295738 0.411691
O O7 0.062680 0.415362 0.295340
O O8 0.643282 0.333366 0.538422
O O9 0.688056 0.189764 0.591311
O O10 0.872606 0.041353 0.662711
O O11 0.772792 0.079092 0.604757
O O12 0.844334 0.000000 0.500000
O O13 0.829159 0.944168 0.184578
O O14 0.250000 0.346289 0.250000
#
# Coordination Sequence:
#
# PCOD9329307 Si02
#       7
#    16   4  16  16  16  16  16
#     4  12  22  36  62  94 128 156 211 265 333 372
#     4  12  16  32  56  96 112 148 180 276 308 376
#     4  11  20  36  62  86 125 162 209 259 319 375
#     4  11  22  38  62  93 125 162 214 270 313 375
#     4  11  24  40  60  88 131 166 214 257 323 391
#     4  10  21  39  62  91 124 164 211 265 316 376
#     4   9  21  38  65  92 118 159 211 265 322 369
#
# _framework density 4.6296299999999997
#
# number of rings (size 3 to 8) (size 9 to 14) (size 15 to 20)
#    0.000    1.280    4.800    1.440    2.240    3.200 
#    0.000    0.000    0.000    0.000    0.000    0.000 
#    0.000    0.000    0.000    0.000    0.000    0.000 
#
# Total GULP energy -139456.297721 kJ/mol
# GULP energy per Si atom -5578.251909 kJ/mol
# Density = 0.461909 g / cm^3
# Si number density = 4.629630 Si / 1000 Ang^3
#
#
#
# Elastic Constant Matrix: (Units=GPa)
#
#
# Indices 1 2 3 4 5 6 
#
# 1 81.7975 21.1156 25.8123 0.0000 0.0000 0.0000
# 2 21.1156 68.7833 58.0071 0.0000 0.0000 0.0000
# 3 25.8123 58.0071 65.1750 0.0000 0.0000 0.0000
# 4 0.0000 0.0000 0.0000 30.8174 0.0000 0.0000
# 5 0.0000 0.0000 0.0000 0.0000 22.9102 0.0000
# 6 0.0000 0.0000 0.0000 0.0000 0.0000 4.0854
#
#
#
# Elastic Compliance Matrix: (Units=1/GPa)
#
#
# Indices 1 2 3 4 5 6 
#
# 1 0.014011 0.001517 -0.006899 0.000000 0.000000 0.000000
# 2 0.001517 0.058454 -0.052626 0.000000 0.000000 0.000000
# 3 -0.006899 -0.052626 0.064914 0.000000 0.000000 0.000000
# 4 0.000000 0.000000 0.000000 0.032449 0.000000 0.000000
# 5 0.000000 0.000000 0.000000 0.000000 0.043649 0.000000
# 6 0.000000 0.000000 0.000000 0.000000 0.000000 0.244772
#
#
# Mechanical properties :
#
#
# Convention : Reuss Voigt Hill
#
# Bulk Modulus (GPa) = 46.81103 47.29175 47.05139
# Shear Modulus (GPa) = 8.60014 18.95066 13.77540
#
# Velocity S-wave (km/s) = 2.15735 3.20243 2.73036
# Velocity P-wave (km/s) = 5.61590 6.26635 5.95002
#
# Compressibility (1/GPa) = 0.02136249
#
# Stress axis : x y z
#
# Youngs Moduli (GPa) = 71.37344 17.10754 15.40499
#
# Poissons Ratio (x) = -0.02596 0.10628
# Poissons Ratio (y) = -0.10830 0.81070
# Poissons Ratio (z) = 0.49243 0.90030
#
# Static dielectric constant tensor:
#      x y z
#    x 1.615250 0.000000 0.000000 
#    y 0.000000 1.653860 0.000000 
#    z 0.000000 0.000000 1.661250 
# 
# From -- ./inp_files/32484.got.cif
#   From: 2010.05.17/outbox.ucp.g08.bks.cvg/sg22_17_cif.got.tgz:32484.got - 2010.06.11 15:16:44.
