data_PCOD9329345
_publ_section_title
;
Structure prediction by ZEFSAII (Michael W. Deem and Ramdas Pophale) SiO2 
 PCOD9329345
Probable space group: I 2 2 2
;
_chemical_formula_sum "Si O2"
_cell_formula_units_Z 52
_cell_length_a 15.230992
_cell_length_b 7.961700
_cell_length_c 20.230002
_cell_angle_alpha 90.000000
_cell_angle_beta 90.000000
_cell_angle_gamma 90.000000
_cell_volume 2453.182878
_symmetry_space_group_name_H-M "I 2 2 2"
_symmetry_group_IT_number 23
_symmetry_cell_setting 'orthorhombic'
loop_
_space_group_symop_operation_xyz
x,y,z
-x,-y,z
x,-y,-z
-x,y,-z
1/2+x,1/2+y,1/2+z
1/2-x,1/2-y,1/2+z
1/2+x,1/2-y,1/2-z
1/2-x,1/2+y,1/2-z
loop_
_atom_site_type_symbol
_atom_site_label
_atom_site_fract_x
_atom_site_fract_y
_atom_site_fract_z
Si Si1 0.728609 0.782358 0.927622
Si Si2 0.106771 0.746512 0.165498
Si Si3 0.863236 0.177586 0.697622
Si Si4 0.032220 0.196745 0.069823
Si Si5 0.712788 0.695921 0.215225
Si Si6 0.758988 0.180224 0.928021
Si Si7 0.000000 0.000000 0.769130
O O1 0.817275 0.725047 0.888823
O O2 0.650595 0.731951 0.878056
O O3 0.738304 0.982865 0.930337
O O4 0.724933 0.731699 0.004505
O O5 0.147462 0.697873 0.236271
O O6 0.015667 0.704354 0.129520
O O7 0.080453 0.939427 0.185351
O O8 0.804821 0.295068 0.745152
O O9 0.820676 0.993031 0.705847
O O10 0.961752 0.149352 0.724177
O O11 0.136242 0.203086 0.072792
O O12 0.000000 0.000000 0.068245
O O13 0.000000 0.268031 0.000000
O O14 0.721690 0.761416 0.141569
#
# Coordination Sequence:
#
# PCOD9329345 Si02
#       7
#     8   8   8   8   8   8   4
#     4  10  19  33  56  85 118 144 190 236 289 352
#     4  10  16  29  49  80 110 138 181 237 271 333
#     4  10  21  36  57  83 111 154 195 248 282 352
#     4  11  16  26  53  87 111 143 187 228 269 335
#     4  10  21  33  53  81 114 149 192 234 291 338
#     4  11  19  33  56  89 114 154 184 237 290 350
#     4  10  18  32  57  81 108 144 198 242 286 336
#
# _framework density 21.196952
#
# number of rings (size 3 to 8) (size 9 to 14) (size 15 to 20)
#    0.000    1.692    3.846    4.615    0.000    0.615 
#    0.000    0.000    0.000   50.769    0.000    8.615 
#    0.000    0.000    0.000    0.000    0.000    0.000 
#
# Total GULP energy -144753.709571 kJ/mol
# GULP energy per Si atom -5567.450368 kJ/mol
# Density = 2.114871 g / cm^3
# Si number density = 21.196952 Si / 1000 Ang^3
#
#
#
# Elastic Constant Matrix: (Units=GPa)
#
#
# Indices 1 2 3 4 5 6 
#
# 1 47.0574 5.3582 45.0921 0.0000 0.0000 0.0000
# 2 5.3582 29.5152 18.9632 0.0000 0.0000 0.0000
# 3 45.0921 18.9632 221.0117 0.0000 0.0000 0.0000
# 4 0.0000 0.0000 0.0000 21.5756 0.0000 0.0000
# 5 0.0000 0.0000 0.0000 0.0000 36.6757 0.0000
# 6 0.0000 0.0000 0.0000 0.0000 0.0000 24.9448
#
#
#
# Elastic Compliance Matrix: (Units=1/GPa)
#
#
# Indices 1 2 3 4 5 6 
#
# 1 0.026470 -0.001413 -0.005279 0.000000 0.000000 0.000000
# 2 -0.001413 0.035933 -0.002795 0.000000 0.000000 0.000000
# 3 -0.005279 -0.002795 0.005842 0.000000 0.000000 0.000000
# 4 0.000000 0.000000 0.000000 0.046349 0.000000 0.000000
# 5 0.000000 0.000000 0.000000 0.000000 0.027266 0.000000
# 6 0.000000 0.000000 0.000000 0.000000 0.000000 0.040089
#
#
# Mechanical properties :
#
#
# Convention : Reuss Voigt Hill
#
# Bulk Modulus (GPa) = 20.29640 48.49013 34.39326
# Shear Modulus (GPa) = 23.00473 31.85062 27.42767
#
# Velocity S-wave (km/s) = 3.29794 3.88055 3.60105
# Velocity P-wave (km/s) = 4.90895 6.55773 5.79231
#
# Compressibility (1/GPa) = 0.04926983
#
# Stress axis : x y z
#
# Youngs Moduli (GPa) = 37.77795 27.82960 171.18689
#
# Poissons Ratio (x) = 0.03934 0.90376
# Poissons Ratio (y) = 0.05340 0.47842
# Poissons Ratio (z) = 0.19944 0.07778
#
# Static dielectric constant tensor:
#      x y z
#    x 1.828650 0.000000 0.000000 
#    y 0.000000 1.826450 0.000000 
#    z 0.000000 0.000000 1.897320 
# 
# From -- ./inp_files/25055.got.cif
#   From: 2010.05.17/outbox.cif.g08.bks.cpg/sg23_13_cif.got.tgz:25055.got - 2010.06.04 12:02:01.
