data_PCOD9329695
_publ_section_title
;
Structure prediction by ZEFSAII (Michael W. Deem and Ramdas Pophale) SiO2 
 PCOD9329695
Probable space group: I 2 2 2
;
_chemical_formula_sum "Si O2"
_cell_formula_units_Z 48
_cell_length_a 21.199783
_cell_length_b 18.551680
_cell_length_c 6.420067
_cell_angle_alpha 90.000000
_cell_angle_beta 90.000000
_cell_angle_gamma 90.000000
_cell_volume 2524.958360
_symmetry_space_group_name_H-M "I 2 2 2"
_symmetry_group_IT_number 23
_symmetry_cell_setting 'orthorhombic'
loop_
_space_group_symop_operation_xyz
x,y,z
-x,-y,z
x,-y,-z
-x,y,-z
1/2+x,1/2+y,1/2+z
1/2-x,1/2-y,1/2+z
1/2+x,1/2-y,1/2-z
1/2-x,1/2+y,1/2-z
loop_
_atom_site_type_symbol
_atom_site_label
_atom_site_fract_x
_atom_site_fract_y
_atom_site_fract_z
Si Si1 0.102716 0.279285 0.281458
Si Si2 0.000000 0.500000 0.500000
Si Si3 0.689969 0.180208 0.595106
Si Si4 0.177770 0.816556 0.399611
Si Si5 0.000000 0.720809 0.000000
Si Si6 0.500000 0.500000 0.500000
Si Si7 0.921610 0.625230 0.670281
Si Si8 0.063202 0.074172 0.623079
O O1 0.074626 0.336709 0.444204
O O2 0.048291 0.239143 0.150410
O O3 0.143977 0.228485 0.420851
O O4 0.147289 0.314502 0.110265
O O5 0.954756 0.549052 0.642148
O O6 0.757793 0.157058 0.507876
O O7 0.692152 0.259062 0.712017
O O8 0.651187 0.128996 0.753797
O O9 0.124175 0.875428 0.351416
O O10 0.040731 0.671975 0.158268
O O11 0.540872 0.549919 0.349703
O O12 0.000000 0.103547 0.500000
O O13 0.079343 0.000000 0.500000
#
# Coordination Sequence:
#
# PCOD9329695 Si02
#       8
#     8   2   8   8   4   2   8   8
#     4  10  20  37  55  89 124 152 204 261 306 365
#     4  12  20  42  64  86 122 184 206 268 308 356
#     4  10  22  38  60  90 126 164 206 258 305 374
#     4  11  21  39  65  90 125 168 199 255 318 368
#     4  10  18  37  57  86 121 157 194 270 304 354
#     4   8  18  44  58  92 126 148 202 256 308 378
#     4  10  22  37  59  86 122 159 219 260 300 359
#     4   9  21  40  64  92 124 153 199 257 303 377
#
# _framework density 19.010213
#
# number of rings (size 3 to 8) (size 9 to 14) (size 15 to 20)
#    0.000    2.167    3.333    0.000    0.000    7.000 
#    0.000    5.833    0.000    0.000    0.000    0.000 
#    0.000    0.000    0.000    0.000    0.000    0.000 
#
# Total GULP energy -133673.579861 kJ/mol
# GULP energy per Si atom -5569.732494 kJ/mol
# Density = 1.896694 g / cm^3
# Si number density = 19.010213 Si / 1000 Ang^3
#
#
#
# Elastic Constant Matrix: (Units=GPa)
#
#
# Indices 1 2 3 4 5 6 
#
# 1 143.9315 40.9199 50.1240 0.0000 0.0000 0.0000
# 2 40.9199 38.2717 25.2073 0.0000 0.0000 0.0000
# 3 50.1240 25.2073 120.1626 0.0000 0.0000 0.0000
# 4 0.0000 0.0000 0.0000 11.6910 0.0000 0.0000
# 5 0.0000 0.0000 0.0000 0.0000 31.8852 0.0000
# 6 0.0000 0.0000 0.0000 0.0000 0.0000 -62.3065
#
#
#
# Elastic Compliance Matrix: (Units=1/GPa)
#
#
# Indices 1 2 3 4 5 6 
#
# 1 0.010527 -0.009704 -0.002355 0.000000 0.000000 0.000000
# 2 -0.009704 0.039263 -0.004189 0.000000 0.000000 0.000000
# 3 -0.002355 -0.004189 0.010183 0.000000 0.000000 0.000000
# 4 0.000000 0.000000 0.000000 0.085536 0.000000 0.000000
# 5 0.000000 0.000000 0.000000 0.000000 0.031363 0.000000
# 6 0.000000 0.000000 0.000000 0.000000 0.000000 -0.016050
#
#
# Mechanical properties :
#
#
# Convention : Reuss Voigt Hill
#
# Bulk Modulus (GPa) = 36.39370 59.42981 47.91175
# Shear Modulus (GPa) = 24.69417 8.66158 16.67787
#
# Velocity S-wave (km/s) = 3.60807 2.13686 2.96516
# Velocity P-wave (km/s) = 6.04511 6.11704 6.08118
#
# Compressibility (1/GPa) = 0.02747729
#
# Stress axis : x y z
#
# Youngs Moduli (GPa) = 94.99503 25.46917 98.20011
#
# Poissons Ratio (x) = 0.24715 0.23131
# Poissons Ratio (y) = 0.92182 0.41133
# Poissons Ratio (z) = 0.22376 0.10668
#
# Static dielectric constant tensor:
#      x y z
#    x 1.766640 0.000000 0.000000 
#    y 0.000000 1.710190 0.000000 
#    z 0.000000 0.000000 1.726440 
# 
# From -- ./inp_files/3918.got.cif
#   From: 2010.05.17/outbox.cif.g08.bks.cpg/sg23_2_cif.got.tgz:3918.got - 2010.06.04 12:02:01.
