data_PCOD9329410
_publ_section_title
;
Structure prediction by ZEFSAII (Michael W. Deem and Ramdas Pophale) SiO2 
 PCOD9329410
Probable space group: I 2 2 2
;
_chemical_formula_sum "Si O2"
_cell_formula_units_Z 60
_cell_length_a 32.252461
_cell_length_b 20.107253
_cell_length_c 5.648048
_cell_angle_alpha 90.000000
_cell_angle_beta 90.000000
_cell_angle_gamma 90.000000
_cell_volume 3662.806533
_symmetry_space_group_name_H-M "I 2 2 2"
_symmetry_group_IT_number 23
_symmetry_cell_setting 'orthorhombic'
loop_
_space_group_symop_operation_xyz
x,y,z
-x,-y,z
x,-y,-z
-x,y,-z
1/2+x,1/2+y,1/2+z
1/2-x,1/2-y,1/2+z
1/2+x,1/2-y,1/2-z
1/2-x,1/2+y,1/2-z
loop_
_atom_site_type_symbol
_atom_site_label
_atom_site_fract_x
_atom_site_fract_y
_atom_site_fract_z
Si Si1 0.799473 0.243718 0.624952
Si Si2 0.264504 0.877756 0.630133
Si Si3 0.948219 0.427179 0.901308
Si Si4 0.223199 0.396735 0.368565
Si Si5 0.127211 0.572102 0.603429
Si Si6 0.922268 0.326144 0.275235
Si Si7 0.338314 0.224339 0.375733
Si Si8 0.000000 0.648195 0.500000
O O1 0.766627 0.184611 0.632472
O O2 0.776502 0.315556 0.626355
O O3 0.823879 0.242014 0.373488
O O4 0.825636 0.243748 0.870740
O O5 0.258059 0.915928 0.383821
O O6 0.311114 0.844847 0.625886
O O7 0.259754 0.917329 0.875366
O O8 0.899571 0.425784 0.838308
O O9 0.975987 0.402857 0.681328
O O10 0.957554 0.500000 0.000000
O O11 0.949182 0.371807 0.100615
O O12 0.175340 0.417429 0.363350
O O13 0.118801 0.500000 0.500000
O O14 0.107572 0.628090 0.436553
O O15 0.888059 0.282905 0.139939
O O16 0.961181 0.303257 0.432771
#
# Coordination Sequence:
#
# PCOD9329410 Si02
#       8
#     8   8   8   8   8   8   8   4
#     4  10  17  28  45  67  86 103 125 153 202 262
#     4  10  17  28  45  66  86 105 124 156 200 261
#     4  11  22  36  49  57  73  96 136 190 234 273
#     4  10  18  28  43  63  86 107 129 158 199 252
#     4  11  21  33  45  63  79 107 142 176 218 268
#     4  11  21  36  45  60  76 105 135 179 225 268
#     4  10  18  28  46  62  85 103 124 157 200 261
#     4  10  26  35  46  60  74  98 140 182 234 280
#
# _framework density 16.380880000000001
#
# number of rings (size 3 to 8) (size 9 to 14) (size 15 to 20)
#    0.000    1.600    4.000    6.000    1.867    1.600 
#    0.000    0.000    0.000    0.000    0.000    0.000 
#    0.000    0.000    0.000    0.000    0.000    0.000 
#
# Total GULP energy -167028.944703 kJ/mol
# GULP energy per Si atom -5567.631490 kJ/mol
# Density = 1.634360 g / cm^3
# Si number density = 16.380880 Si / 1000 Ang^3
#
#
#
# Elastic Constant Matrix: (Units=GPa)
#
#
# Indices 1 2 3 4 5 6 
#
# 1 27.6648 -10.1491 -9.7392 0.0000 0.0000 0.0000
# 2 -10.1491 -8.2164 -13.8543 0.0000 0.0000 0.0000
# 3 -9.7392 -13.8543 85.9272 0.0000 0.0000 0.0000
# 4 0.0000 0.0000 0.0000 17.7131 0.0000 0.0000
# 5 0.0000 0.0000 0.0000 0.0000 62.2636 0.0000
# 6 0.0000 0.0000 0.0000 0.0000 0.0000 2.1534
#
#
#
# Elastic Compliance Matrix: (Units=1/GPa)
#
#
# Indices 1 2 3 4 5 6 
#
# 1 0.025187 -0.028246 -0.001699 0.000000 0.000000 0.000000
# 2 -0.028246 -0.064016 -0.013523 0.000000 0.000000 0.000000
# 3 -0.001699 -0.013523 0.009265 0.000000 0.000000 0.000000
# 4 0.000000 0.000000 0.000000 0.056455 0.000000 0.000000
# 5 0.000000 0.000000 0.000000 0.000000 0.016061 0.000000
# 6 0.000000 0.000000 0.000000 0.000000 0.000000 0.464391
#
#
# Mechanical properties :
#
#
# Convention : Reuss Voigt Hill
#
# Bulk Modulus (GPa) = -8.58367 4.21002 -2.18683
# Shear Modulus (GPa) = 9.00179 25.70056 17.35118
#
# Velocity S-wave (km/s) = 2.34675 3.96528 3.25812
# Velocity P-wave (km/s) = 1.44622 4.85183 3.57993
#
# Compressibility (1/GPa) = -0.11650025
#
# Stress axis : x y z
#
# Youngs Moduli (GPa) = 39.70363 -15.62113 107.93546
#
# Poissons Ratio (x) = -0.44123 0.18343
# Poissons Ratio (y) = 1.12145 1.45960
# Poissons Ratio (z) = 0.06747 -0.21124
#
# Static dielectric constant tensor:
#      x y z
#    x 1.542130 0.000000 0.000000 
#    y 0.000000 1.547310 0.000000 
#    z 0.000000 0.000000 1.785040 
# 
# From -- ./inp_files/4623.got.cif
#   From: 2010.05.17/outbox.cif.g08.bks.cpg/sg23_3_cif.got.tgz:4623.got - 2010.06.04 12:02:01.
