data_PCOD9329457
_publ_section_title
;
Structure prediction by ZEFSAII (Michael W. Deem and Ramdas Pophale) SiO2 
 PCOD9329457
Probable space group: I 2 2 2
;
_chemical_formula_sum "Si O2"
_cell_formula_units_Z 48
_cell_length_a 20.810976
_cell_length_b 14.115253
_cell_length_c 7.770350
_cell_angle_alpha 90.000000
_cell_angle_beta 90.000000
_cell_angle_gamma 90.000000
_cell_volume 2282.557341
_symmetry_space_group_name_H-M "I 2 2 2"
_symmetry_group_IT_number 23
_symmetry_cell_setting 'orthorhombic'
loop_
_space_group_symop_operation_xyz
x,y,z
-x,-y,z
x,-y,-z
-x,y,-z
1/2+x,1/2+y,1/2+z
1/2-x,1/2-y,1/2+z
1/2+x,1/2-y,1/2-z
1/2-x,1/2+y,1/2-z
loop_
_atom_site_type_symbol
_atom_site_label
_atom_site_fract_x
_atom_site_fract_y
_atom_site_fract_z
Si Si1 0.572986 0.717862 0.352945
Si Si2 0.679435 0.553222 0.682748
Si Si3 0.061011 0.186097 0.240223
Si Si4 0.432818 0.155550 0.038749
Si Si5 0.790641 0.669251 0.503495
Si Si6 0.796773 0.858978 0.692878
O O1 0.572522 0.737349 0.555574
O O2 0.512795 0.653016 0.290033
O O3 0.640126 0.673227 0.299309
O O4 0.564266 0.809873 0.235584
O O5 0.665778 0.500000 0.500000
O O6 0.616185 0.607791 0.744690
O O7 0.739235 0.621428 0.633662
O O8 0.697454 0.471550 0.817781
O O9 0.064953 0.254457 0.404922
O O10 0.500000 0.104184 0.000000
O O11 0.360248 0.120308 0.017728
O O12 0.794495 0.781829 0.542374
O O13 0.764550 0.657276 0.312783
#
# Coordination Sequence:
#
# PCOD9329457 Si02
#       6
#     8   8   8   8   8   8
#     4   9  18  31  50  77 109 140 175 208 255 320
#     4  10  19  33  53  79 106 142 181 212 262 322
#     4  10  17  32  52  74 108 147 167 209 266 316
#     4   9  19  33  52  78 104 136 184 223 257 313
#     4  10  19  33  53  73 105 142 172 222 263 307
#     4  10  20  35  51  77 106 139 179 219 260 317
#
# _framework density 21.029043000000001
#
# number of rings (size 3 to 8) (size 9 to 14) (size 15 to 20)
#    0.000    2.333    3.333    1.000    0.000    0.667 
#    0.000    7.500    0.000   12.500    0.000    0.000 
#    0.000    0.000    1.333    0.000    0.000    0.000 
#
# Total GULP energy -133674.563658 kJ/mol
# GULP energy per Si atom -5569.773486 kJ/mol
# Density = 2.098118 g / cm^3
# Si number density = 21.029043 Si / 1000 Ang^3
#
#
#
# Elastic Constant Matrix: (Units=GPa)
#
#
# Indices 1 2 3 4 5 6 
#
# 1 118.6030 6.0830 -12.9492 0.0000 0.0000 0.0000
# 2 6.0830 66.3654 24.5218 0.0000 0.0000 0.0000
# 3 -12.9492 24.5218 78.6011 0.0000 0.0000 0.0000
# 4 0.0000 0.0000 0.0000 15.2626 0.0000 0.0000
# 5 0.0000 0.0000 0.0000 0.0000 27.3038 0.0000
# 6 0.0000 0.0000 0.0000 0.0000 0.0000 -3.9827
#
#
#
# Elastic Compliance Matrix: (Units=1/GPa)
#
#
# Indices 1 2 3 4 5 6 
#
# 1 0.008717 -0.001503 0.001905 0.000000 0.000000 0.000000
# 2 -0.001503 0.017290 -0.005642 0.000000 0.000000 0.000000
# 3 0.001905 -0.005642 0.014796 0.000000 0.000000 0.000000
# 4 0.000000 0.000000 0.000000 0.065520 0.000000 0.000000
# 5 0.000000 0.000000 0.000000 0.000000 0.036625 0.000000
# 6 0.000000 0.000000 0.000000 0.000000 0.000000 -0.251088
#
#
# Mechanical properties :
#
#
# Convention : Reuss Voigt Hill
#
# Bulk Modulus (GPa) = 32.97730 33.20898 33.09314
# Shear Modulus (GPa) = -57.10854 24.11101 -16.49877
#
# Velocity S-wave (km/s) = -5.21689 3.38976 -2.80406
# Velocity P-wave (km/s) = 4.53565 5.58094 2.29943
#
# Compressibility (1/GPa) = 0.03032389
#
# Stress axis : x y z
#
# Youngs Moduli (GPa) = 114.72439 57.83527 67.58394
#
# Poissons Ratio (x) = 0.08691 -0.12874
# Poissons Ratio (y) = 0.17241 0.38130
# Poissons Ratio (z) = -0.21853 0.32630
#
# Static dielectric constant tensor:
#      x y z
#    x 1.822240 0.000000 0.000000 
#    y 0.000000 1.785720 0.000000 
#    z 0.000000 0.000000 1.786070 
# 
# From -- ./inp_files/11918.got.cif
#   From: 2010.05.17/outbox.cif.g08.bks.cpg/sg23_6_cif.got.tgz:11918.got - 2010.06.04 12:02:01.
