data_PCOD9329712
_publ_section_title
;
Structure prediction by ZEFSAII (Michael W. Deem and Ramdas Pophale) SiO2 
 PCOD9329712
Probable space group: I 2 2 2
;
_chemical_formula_sum "Si O2"
_cell_formula_units_Z 38
_cell_length_a 10.301287
_cell_length_b 18.145395
_cell_length_c 8.829161
_cell_angle_alpha 90.000000
_cell_angle_beta 90.000000
_cell_angle_gamma 90.000000
_cell_volume 1650.354911
_symmetry_space_group_name_H-M "I 2 2 2"
_symmetry_group_IT_number 23
_symmetry_cell_setting 'orthorhombic'
loop_
_space_group_symop_operation_xyz
x,y,z
-x,-y,z
x,-y,-z
-x,y,-z
1/2+x,1/2+y,1/2+z
1/2-x,1/2-y,1/2+z
1/2+x,1/2-y,1/2-z
1/2-x,1/2+y,1/2-z
loop_
_atom_site_type_symbol
_atom_site_label
_atom_site_fract_x
_atom_site_fract_y
_atom_site_fract_z
Si Si1 0.500000 0.000000 0.500000
Si Si2 0.187564 0.609588 0.170473
Si Si3 0.040506 0.731363 0.325945
Si Si4 0.180722 0.964006 0.250558
Si Si5 0.000000 0.000000 0.500000
Si Si6 0.000000 0.000000 0.000000
Si Si7 0.210018 0.675409 0.842478
O O1 0.412990 0.947695 0.600412
O O2 0.121649 0.656401 0.300997
O O3 0.292623 0.551991 0.235243
O O4 0.214071 0.662967 0.025185
O O5 0.151513 0.791713 0.290704
O O6 0.000000 0.740230 0.500000
O O7 0.912789 0.722963 0.218089
O O8 0.091422 0.950598 0.396946
O O9 0.296782 0.906458 0.267638
O O10 0.094421 0.952460 0.104424
#
# Coordination Sequence:
#
# PCOD9329712 Si02
#       7
#     2   8   8   8   2   2   8
#     4  12  18  44  84  98 128 178 260 304 338 418
#     4  12  22  47  77 104 138 189 254 297 352 434
#     4  12  29  45  71 110 153 192 234 302 374 427
#     4  11  23  44  73 106 137 194 241 306 351 429
#     4  10  18  38  72 104 128 180 248 290 348 412
#     4  10  28  38  62 112 156 170 224 318 388 398
#     4  12  25  49  74 107 143 201 245 292 356 445
#
# _framework density 23.025348999999999
#
# number of rings (size 3 to 8) (size 9 to 14) (size 15 to 20)
#    0.000    0.421    6.316    1.263    4.421    3.368 
#    3.789    1.053    0.000    0.000    0.000    0.000 
#    0.000    0.000    0.000    0.000    0.000    0.000 
#
# Total GULP energy -106064.952841 kJ/mol
# GULP energy per Si atom -5582.365939 kJ/mol
# Density = 2.297294 g / cm^3
# Si number density = 23.025349 Si / 1000 Ang^3
#
#
#
# Elastic Constant Matrix: (Units=GPa)
#
#
# Indices 1 2 3 4 5 6 
#
# 1 118.0855 38.8431 38.1349 0.0001 0.0000 0.0000
# 2 38.8431 80.1960 16.6297 0.0004 -0.0001 0.0001
# 3 38.1349 16.6297 78.9317 0.0011 -0.0005 0.0002
# 4 0.0001 0.0004 0.0011 22.0600 -0.0002 0.0001
# 5 0.0000 -0.0001 -0.0005 -0.0002 28.5360 0.0000
# 6 0.0000 0.0001 0.0002 0.0001 0.0000 -7.6023
#
#
#
# Elastic Compliance Matrix: (Units=1/GPa)
#
#
# Indices 1 2 3 4 5 6 
#
# 1 0.011457 -0.004602 -0.004566 0.000000 0.000000 0.000000
# 2 -0.004602 0.014888 -0.000913 0.000000 0.000000 0.000000
# 3 -0.004566 -0.000913 0.015067 -0.000001 0.000000 0.000000
# 4 0.000000 0.000000 -0.000001 0.045331 0.000000 0.000001
# 5 0.000000 0.000000 0.000000 0.000000 0.035043 0.000000
# 6 0.000000 0.000000 0.000000 0.000001 0.000000 -0.131539
#
#
# Mechanical properties :
#
#
# Convention : Reuss Voigt Hill
#
# Bulk Modulus (GPa) = 47.05873 51.60317 49.33095
# Shear Modulus (GPa) = 285.83903 20.83912 153.33907
#
# Velocity S-wave (km/s) = 11.15395 3.01167 8.16948
# Velocity P-wave (km/s) = 13.65148 5.87824 10.50991
#
# Compressibility (1/GPa) = 0.02125004
#
# Stress axis : x y z
#
# Youngs Moduli (GPa) = 87.28479 67.16843 66.36874
#
# Poissons Ratio (x) = 0.30913 0.30301
# Poissons Ratio (y) = 0.40172 0.06060
# Poissons Ratio (z) = 0.39850 0.06133
#
# Static dielectric constant tensor:
#      x y z
#    x 1.933640 0.000000 0.000000 
#    y 0.000000 2.229950 0.000000 
#    z 0.000000 0.000000 1.893450 
# 
# From -- ./inp_files/8267.got.cif
#   From: 2010.05.17/outbox.cif.g08.bks.cpg/sg23_5_cif.got.tgz:8267.got - 2010.06.04 12:02:01.
