data_PCOD9329643
_publ_section_title
;
Structure prediction by ZEFSAII (Michael W. Deem and Ramdas Pophale) SiO2 
 PCOD9329643
Probable space group: I 2 2 2
;
_chemical_formula_sum "Si O2"
_cell_formula_units_Z 64
_cell_length_a 28.945007
_cell_length_b 8.705670
_cell_length_c 14.292765
_cell_angle_alpha 90.000000
_cell_angle_beta 90.000000
_cell_angle_gamma 90.000000
_cell_volume 3601.572095
_symmetry_space_group_name_H-M "I 2 2 2"
_symmetry_group_IT_number 23
_symmetry_cell_setting 'orthorhombic'
loop_
_space_group_symop_operation_xyz
x,y,z
-x,-y,z
x,-y,-z
-x,y,-z
1/2+x,1/2+y,1/2+z
1/2-x,1/2-y,1/2+z
1/2+x,1/2-y,1/2-z
1/2-x,1/2+y,1/2-z
loop_
_atom_site_type_symbol
_atom_site_label
_atom_site_fract_x
_atom_site_fract_y
_atom_site_fract_z
Si Si1 0.155651 0.616914 0.804835
Si Si2 0.685283 0.672987 0.392916
Si Si3 0.128745 0.957206 0.771613
Si Si4 0.231530 0.777823 0.919703
Si Si5 0.687661 0.449638 0.897488
Si Si6 0.551782 0.565482 0.399471
Si Si7 0.764482 0.402055 0.233443
Si Si8 0.597310 0.111011 0.587213
O O1 0.138206 0.776428 0.762313
O O2 0.188977 0.662901 0.892956
O O3 0.193798 0.520369 0.748429
O O4 0.112527 0.509013 0.831669
O O5 0.657716 0.525211 0.359304
O O6 0.719106 0.658696 0.479620
O O7 0.712123 0.746731 0.304897
O O8 0.645152 0.793505 0.421930
O O9 0.146727 0.044336 0.678809
O O10 0.078141 0.997265 0.809250
O O11 0.282008 0.700438 0.919774
O O12 0.237110 0.881766 0.828375
O O13 0.728118 0.550699 0.847028
O O14 0.671461 0.500000 0.000000
O O15 0.500000 0.500000 0.395801
O O16 0.570405 0.500000 0.500000
O O17 0.560105 0.751192 0.399346
O O18 0.586508 0.000000 0.500000
#
# Coordination Sequence:
#
# PCOD9329643 Si02
#       8
#     8   8   8   8   8   8   8   8
#     4  10  21  32  50  80 113 156 199 232 279 344
#     4  10  20  32  55  77 110 161 203 236 285 343
#     4  11  22  37  56  80 111 155 200 239 301 366
#     4  11  19  33  51  76 117 154 209 243 279 332
#     4  11  21  33  52  77 112 159 196 254 292 336
#     4  10  23  41  62  91 120 143 182 244 306 368
#     4  10  20  33  47  76 112 155 200 247 280 327
#     4  10  18  34  57  86 113 156 187 225 281 358
#
# _framework density 17.770016999999999
#
# number of rings (size 3 to 8) (size 9 to 14) (size 15 to 20)
#    0.000    1.625    5.000    0.750    1.750    0.000 
#    0.000    5.625    0.000    0.375    0.000    0.000 
#    0.000    0.000    4.250    0.000    0.000    0.000 
#
# Total GULP energy -178200.714775 kJ/mol
# GULP energy per Si atom -5568.772337 kJ/mol
# Density = 1.772957 g / cm^3
# Si number density = 17.770017 Si / 1000 Ang^3
#
#
#
# Elastic Constant Matrix: (Units=GPa)
#
#
# Indices 1 2 3 4 5 6 
#
# 1 50.7566 14.1734 34.1107 0.0000 0.0000 0.0000
# 2 14.1734 85.4053 22.3540 0.0000 0.0000 0.0000
# 3 34.1107 22.3540 99.8990 0.0000 0.0000 0.0000
# 4 0.0000 0.0000 0.0000 12.2166 0.0000 0.0000
# 5 0.0000 0.0000 0.0000 0.0000 25.6060 0.0000
# 6 0.0000 0.0000 0.0000 0.0000 0.0000 26.4709
#
#
#
# Elastic Compliance Matrix: (Units=1/GPa)
#
#
# Indices 1 2 3 4 5 6 
#
# 1 0.025922 -0.002109 -0.008379 0.000000 0.000000 0.000000
# 2 -0.002109 0.012609 -0.002101 0.000000 0.000000 0.000000
# 3 -0.008379 -0.002101 0.013341 0.000000 0.000000 0.000000
# 4 0.000000 0.000000 0.000000 0.081856 0.000000 0.000000
# 5 0.000000 0.000000 0.000000 0.000000 0.039053 0.000000
# 6 0.000000 0.000000 0.000000 0.000000 0.000000 0.037777
#
#
# Mechanical properties :
#
#
# Convention : Reuss Voigt Hill
#
# Bulk Modulus (GPa) = 37.46223 41.92635 39.69429
# Shear Modulus (GPa) = 20.43857 23.88688 22.16272
#
# Velocity S-wave (km/s) = 3.39510 3.67034 3.53540
# Velocity P-wave (km/s) = 6.04122 6.45035 6.24913
#
# Compressibility (1/GPa) = 0.02669355
#
# Stress axis : x y z
#
# Youngs Moduli (GPa) = 38.57737 79.30942 74.95445
#
# Poissons Ratio (x) = 0.16724 0.62806
# Poissons Ratio (y) = 0.08135 0.15751
# Poissons Ratio (z) = 0.32325 0.16666
#
# Static dielectric constant tensor:
#      x y z
#    x 1.634680 0.000000 0.000000 
#    y 0.000000 1.758900 0.000000 
#    z 0.000000 0.000000 1.613850 
# 
# From -- ./inp_files/22817.got.cif
#   From: 2010.05.17/outbox.cif.g08.bks.cpg/sg23_12_cif.got.tgz:22817.got - 2010.06.04 12:02:01.
