data_PCOD9329089
_publ_section_title
;
Structure prediction by ZEFSAII (Michael W. Deem and Ramdas Pophale) SiO2 
 PCOD9329089
Probable space group: F 2 2 2
;
_chemical_formula_sum "Si O2"
_cell_formula_units_Z 60
_cell_length_a 7.265427
_cell_length_b 24.237718
_cell_length_c 14.876776
_cell_angle_alpha 90.000000
_cell_angle_beta 90.000000
_cell_angle_gamma 90.000000
_cell_volume 2619.761139
_symmetry_space_group_name_H-M "F 2 2 2"
_symmetry_group_IT_number 22
_symmetry_cell_setting 'orthorhombic'
loop_
_space_group_symop_operation_xyz
x,y,z
-x,-y,z
x,-y,-z
-x,y,-z
x,1/2+y,1/2+z
-x,1/2-y,1/2+z
x,1/2-y,1/2-z
-x,1/2+y,1/2-z
1/2+x,y,1/2+z
1/2-x,-y,1/2+z
1/2+x,-y,1/2-z
1/2-x,y,1/2-z
1/2+x,1/2+y,z
1/2-x,1/2-y,z
1/2+x,1/2-y,-z
1/2-x,1/2+y,-z
loop_
_atom_site_type_symbol
_atom_site_label
_atom_site_fract_x
_atom_site_fract_y
_atom_site_fract_z
Si Si1 0.000000 0.500000 0.500000
Si Si2 0.000000 0.356384 0.000000
Si Si3 0.497638 0.914976 0.353905
Si Si4 0.653855 0.801814 0.431942
Si Si5 0.556266 0.439072 0.348902
O O1 0.914472 0.543767 0.428330
O O2 0.024833 0.393635 0.086820
O O3 0.189099 0.324004 0.000989
O O4 0.564568 0.852904 0.376479
O O5 0.527775 0.930776 0.250454
O O6 0.276105 0.927231 0.358029
O O7 0.500000 0.780860 0.500000
O O8 0.750000 0.750000 0.381394
O O9 0.500000 0.500000 0.378281
#
# Coordination Sequence:
#
# PCOD9329089 Si02
#       5
#     4   8  16  16  16
#     4  12  20  42  70 102 146 200 234 306 380 464
#     4  12  25  43  76 106 147 199 258 300 382 454
#     4  11  25  43  70 109 157 198 250 307 388 456
#     4  12  25  48  77 105 145 203 263 320 372 443
#     4  11  25  42  68 114 159 194 239 310 389 474
#
# _framework density 22.902850999999998
#
# number of rings (size 3 to 8) (size 9 to 14) (size 15 to 20)
#    0.000    0.533    6.667    0.400    7.467    1.067 
#    0.000    2.667    0.000    4.800    0.000    0.000 
#    0.000    0.000    0.000    0.000    0.000    0.000 
#
# Total GULP energy -83680.326513 kJ/mol
# GULP energy per Si atom -5578.688434 kJ/mol
# Density = 2.285072 g / cm^3
# Si number density = 22.902851 Si / 1000 Ang^3
#
#
#
# Elastic Constant Matrix: (Units=GPa)
#
#
# Indices 1 2 3 4 5 6 
#
# 1 148.7521 60.5510 21.6517 0.0000 0.0000 0.0000
# 2 60.5510 169.4231 35.6308 0.0000 0.0000 0.0000
# 3 21.6517 35.6308 103.9122 0.0000 0.0000 0.0000
# 4 0.0000 0.0000 0.0000 18.3674 0.0000 0.0000
# 5 0.0000 0.0000 0.0000 0.0000 18.3958 0.0000
# 6 0.0000 0.0000 0.0000 0.0000 0.0000 250.1868
#
#
#
# Elastic Compliance Matrix: (Units=1/GPa)
#
#
# Indices 1 2 3 4 5 6 
#
# 1 0.007918 -0.002676 -0.000732 0.000000 0.000000 0.000000
# 2 -0.002676 0.007265 -0.001934 0.000000 0.000000 0.000000
# 3 -0.000732 -0.001934 0.010439 0.000000 0.000000 0.000000
# 4 0.000000 0.000000 0.000000 0.054444 0.000000 0.000000
# 5 0.000000 0.000000 0.000000 0.000000 0.054360 0.000000
# 6 0.000000 0.000000 0.000000 0.000000 0.000000 0.003997
#
#
# Mechanical properties :
#
#
# Convention : Reuss Voigt Hill
#
# Bulk Modulus (GPa) = 66.93893 73.08382 70.01138
# Shear Modulus (GPa) = 32.44895 77.67361 55.06128
#
# Velocity S-wave (km/s) = 3.76813 5.82992 4.90851
# Velocity P-wave (km/s) = 6.94425 8.79187 7.92211
#
# Compressibility (1/GPa) = 0.01493899
#
# Stress axis : x y z
#
# Youngs Moduli (GPa) = 126.28672 137.63781 95.79320
#
# Poissons Ratio (x) = 0.36832 0.07015
# Poissons Ratio (y) = 0.33794 0.18523
# Poissons Ratio (z) = 0.09249 0.26615
#
# Static dielectric constant tensor:
#      x y z
#    x 1.859370 0.000000 0.000000 
#    y 0.000000 1.884440 0.000000 
#    z 0.000000 0.000000 1.777530 
# 
# From -- ./inp_files/26829.got.cif
#   From: 2010.05.17/outbox.cif.g08.bks.cpg/sg22_14_cif.got.tgz:26829.got - 2010.06.03 23:40:54.
