data_PCOD9329623
_publ_section_title
;
Structure prediction by ZEFSAII (Michael W. Deem and Ramdas Pophale) SiO2 
 PCOD9329623
Probable space group: I 2 2 2
;
_chemical_formula_sum "Si O2"
_cell_formula_units_Z 48
_cell_length_a 16.882760
_cell_length_b 13.616419
_cell_length_c 9.211156
_cell_angle_alpha 90.000000
_cell_angle_beta 90.000000
_cell_angle_gamma 90.000000
_cell_volume 2117.485725
_symmetry_space_group_name_H-M "I 2 2 2"
_symmetry_group_IT_number 23
_symmetry_cell_setting 'orthorhombic'
loop_
_space_group_symop_operation_xyz
x,y,z
-x,-y,z
x,-y,-z
-x,y,-z
1/2+x,1/2+y,1/2+z
1/2-x,1/2-y,1/2+z
1/2+x,1/2-y,1/2-z
1/2-x,1/2+y,1/2-z
loop_
_atom_site_type_symbol
_atom_site_label
_atom_site_fract_x
_atom_site_fract_y
_atom_site_fract_z
Si Si1 0.013234 0.682201 0.823600
Si Si2 0.760854 0.290098 0.973691
Si Si3 0.327555 0.928045 0.242951
Si Si4 0.834472 0.658717 0.723513
Si Si5 0.818721 0.108634 0.060444
Si Si6 0.981490 0.893353 0.826556
O O1 0.926676 0.658550 0.762981
O O2 0.025246 0.795783 0.775742
O O3 0.083102 0.612745 0.762683
O O4 0.000000 0.674912 0.000000
O O5 0.786053 0.388472 0.889854
O O6 0.684818 0.238894 0.900803
O O7 0.776624 0.313413 0.141962
O O8 0.824056 0.199630 0.949711
O O9 0.269502 0.882702 0.122502
O O10 0.320425 0.042454 0.203811
O O11 0.887225 0.122768 0.177877
O O12 0.831122 0.000000 0.000000
O O13 0.000000 0.000000 0.762809
O O14 0.000000 0.898304 0.000000
#
# Coordination Sequence:
#
# PCOD9329623 Si02
#       6
#     8   8   8   8   8   8
#     4  11  22  40  62  97 135 176 231 291 341 422
#     4  12  23  43  65  97 132 177 223 295 342 415
#     4  12  25  39  69  99 135 182 229 288 358 411
#     4  12  25  42  69  95 138 176 235 286 356 420
#     4  12  22  41  66 100 138 180 233 286 354 422
#     4  10  18  33  63  95 127 169 224 293 333 394
#
# _framework density 22.668392000000001
#
# number of rings (size 3 to 8) (size 9 to 14) (size 15 to 20)
#    0.000    0.500    8.333    2.000    0.000    0.667 
#    0.000    0.833    0.000    0.000    0.000    0.000 
#    5.000    0.000    0.000    0.000    0.000    0.000 
#
# Total GULP energy -133687.121335 kJ/mol
# GULP energy per Si atom -5570.296722 kJ/mol
# Density = 2.261680 g / cm^3
# Si number density = 22.668392 Si / 1000 Ang^3
#
#
#
# Elastic Constant Matrix: (Units=GPa)
#
#
# Indices 1 2 3 4 5 6 
#
# 1 148.8996 32.6921 41.0306 0.0000 0.0000 0.0000
# 2 32.6921 111.4467 7.1317 0.0000 0.0000 0.0000
# 3 41.0306 7.1317 39.9983 0.0000 0.0000 0.0000
# 4 0.0000 0.0000 0.0000 23.1130 0.0000 0.0000
# 5 0.0000 0.0000 0.0000 0.0000 22.1934 0.0000
# 6 0.0000 0.0000 0.0000 0.0000 0.0000 35.3425
#
#
#
# Elastic Compliance Matrix: (Units=1/GPa)
#
#
# Indices 1 2 3 4 5 6 
#
# 1 0.009904 -0.002281 -0.009753 0.000000 0.000000 0.000000
# 2 -0.002281 0.009602 0.000628 0.000000 0.000000 0.000000
# 3 -0.009753 0.000628 0.034894 0.000000 0.000000 0.000000
# 4 0.000000 0.000000 0.000000 0.043266 0.000000 0.000000
# 5 0.000000 0.000000 0.000000 0.000000 0.045059 0.000000
# 6 0.000000 0.000000 0.000000 0.000000 0.000000 0.028295
#
#
# Mechanical properties :
#
#
# Convention : Reuss Voigt Hill
#
# Bulk Modulus (GPa) = 31.65809 51.33926 41.49868
# Shear Modulus (GPa) = 24.46650 30.76246 27.61448
#
# Velocity S-wave (km/s) = 3.28887 3.68783 3.49405
# Velocity P-wave (km/s) = 5.33088 6.38988 5.88425
#
# Compressibility (1/GPa) = 0.03158750
#
# Stress axis : x y z
#
# Youngs Moduli (GPa) = 100.96528 104.14610 28.65821
#
# Poissons Ratio (x) = 0.23758 0.27951
# Poissons Ratio (y) = 0.23033 -0.01800
# Poissons Ratio (z) = 0.98474 -0.06541
#
# Static dielectric constant tensor:
#      x y z
#    x 1.898330 0.000000 0.000000 
#    y 0.000000 1.914020 0.000000 
#    z 0.000000 0.000000 1.889280 
# 
# From -- ./inp_files/11036.got.cif
#   From: 2010.05.17/outbox.cif.g08.bks.cpg/sg23_6_cif.got.tgz:11036.got - 2010.06.04 12:02:01.
