data_PCOD9329198
_publ_section_title
;
Structure prediction by ZEFSAII (Michael W. Deem and Ramdas Pophale) SiO2 
 PCOD9329198
Probable space group: F 2 2 2
;
_chemical_formula_sum "Si O2"
_cell_formula_units_Z 80
_cell_length_a 9.460693
_cell_length_b 16.260401
_cell_length_c 22.002902
_cell_angle_alpha 90.000000
_cell_angle_beta 90.000000
_cell_angle_gamma 90.000000
_cell_volume 3384.808990
_symmetry_space_group_name_H-M "F 2 2 2"
_symmetry_group_IT_number 22
_symmetry_cell_setting 'orthorhombic'
loop_
_space_group_symop_operation_xyz
x,y,z
-x,-y,z
x,-y,-z
-x,y,-z
x,1/2+y,1/2+z
-x,1/2-y,1/2+z
x,1/2-y,1/2-z
-x,1/2+y,1/2-z
1/2+x,y,1/2+z
1/2-x,-y,1/2+z
1/2+x,-y,1/2-z
1/2-x,y,1/2-z
1/2+x,1/2+y,z
1/2-x,1/2-y,z
1/2+x,1/2-y,-z
1/2-x,1/2+y,-z
loop_
_atom_site_type_symbol
_atom_site_label
_atom_site_fract_x
_atom_site_fract_y
_atom_site_fract_z
Si Si1 0.500000 0.000000 0.500000
Si Si2 0.750000 0.750000 0.250000
Si Si3 0.353641 0.185370 0.029639
Si Si4 0.811523 0.883812 0.917969
Si Si5 0.965420 0.634433 0.324816
Si Si6 0.696400 0.045791 0.873825
Si Si7 0.000000 0.000000 0.732757
O O1 0.590110 0.057351 0.457424
O O2 0.860193 0.697800 0.291481
O O3 0.250000 0.250000 0.063461
O O4 0.366858 0.105233 0.073579
O O5 0.500000 0.215858 0.000000
O O6 0.268207 0.164740 0.969146
O O7 0.911403 0.835858 0.870431
O O8 0.703204 0.949144 0.888914
O O9 0.854563 0.577923 0.361852
O O10 0.044940 0.574213 0.277152
O O11 0.612333 0.044946 0.810698
#
# Coordination Sequence:
#
# PCOD9329198 Si02
#       7
#     4   4  16  16  16  16   8
#     4  12  18  40  74 108 136 194 240 328 378 456
#     4  12  28  48  72 114 172 210 266 320 432 482
#     4  12  30  48  73 114 159 210 259 328 419 490
#     4  12  23  45  76 105 148 198 268 318 390 463
#     4  12  25  44  76 110 150 213 259 330 400 482
#     4  12  23  43  77 104 150 192 270 332 386 457
#     4  12  23  44  73 113 142 201 268 324 376 474
#
# _framework density 23.635012
#
# number of rings (size 3 to 8) (size 9 to 14) (size 15 to 20)
#    0.000    0.000    8.000    1.200    5.600    0.800 
#    3.600    0.000    0.000    0.000    0.000    0.000 
#    0.000    0.000    0.000    0.000    0.000    0.000 
#
# Total GULP energy -111742.799893 kJ/mol
# GULP energy per Si atom -5587.139995 kJ/mol
# Density = 2.358122 g / cm^3
# Si number density = 23.635012 Si / 1000 Ang^3
#
#
#
# Elastic Constant Matrix: (Units=GPa)
#
#
# Indices 1 2 3 4 5 6 
#
# 1 101.1355 24.1684 37.7065 0.0000 0.0000 0.0000
# 2 24.1684 75.1318 27.5609 0.0000 0.0000 0.0000
# 3 37.7065 27.5609 113.5765 0.0000 0.0000 0.0000
# 4 0.0000 0.0000 0.0000 27.2360 0.0000 0.0000
# 5 0.0000 0.0000 0.0000 0.0000 52.1819 0.0000
# 6 0.0000 0.0000 0.0000 0.0000 0.0000 31.8538
#
#
#
# Elastic Compliance Matrix: (Units=1/GPa)
#
#
# Indices 1 2 3 4 5 6 
#
# 1 0.011720 -0.002572 -0.003267 0.000000 0.000000 0.000000
# 2 -0.002572 0.015175 -0.002829 0.000000 0.000000 0.000000
# 3 -0.003267 -0.002829 0.010576 0.000000 0.000000 0.000000
# 4 0.000000 0.000000 0.000000 0.036716 0.000000 0.000000
# 5 0.000000 0.000000 0.000000 0.000000 0.019164 0.000000
# 6 0.000000 0.000000 0.000000 0.000000 0.000000 0.031393
#
#
# Mechanical properties :
#
#
# Convention : Reuss Voigt Hill
#
# Bulk Modulus (GPa) = 49.66187 52.07950 50.87068
# Shear Modulus (GPa) = 33.60423 35.61487 34.60955
#
# Velocity S-wave (km/s) = 3.77477 3.88605 3.83081
# Velocity P-wave (km/s) = 6.32899 6.49753 6.41381
#
# Compressibility (1/GPa) = 0.02013617
#
# Stress axis : x y z
#
# Youngs Moduli (GPa) = 85.32177 65.89852 94.55685
#
# Poissons Ratio (x) = 0.16948 0.30892
# Poissons Ratio (y) = 0.21943 0.26746
# Poissons Ratio (z) = 0.27875 0.18640
#
# Static dielectric constant tensor:
#      x y z
#    x 2.310060 0.000000 0.000000 
#    y 0.000000 1.978760 0.000000 
#    z 0.000000 0.000000 1.876790 
# 
# From -- ./inp_files/42608.got.cif
#   From: 2010.05.17/outbox.cif.g08.bks.cpg/sg22_22_cif.got.tgz:42608.got - 2010.06.03 23:40:54.
