data_PCOD9329631
_publ_section_title
;
Structure prediction by ZEFSAII (Michael W. Deem and Ramdas Pophale) SiO2 
 PCOD9329631
Probable space group: I 2 2 2
;
_chemical_formula_sum "Si O2"
_cell_formula_units_Z 40
_cell_length_a 15.050873
_cell_length_b 11.451142
_cell_length_c 9.676985
_cell_angle_alpha 90.000000
_cell_angle_beta 90.000000
_cell_angle_gamma 90.000000
_cell_volume 1667.825306
_symmetry_space_group_name_H-M "I 2 2 2"
_symmetry_group_IT_number 23
_symmetry_cell_setting 'orthorhombic'
loop_
_space_group_symop_operation_xyz
x,y,z
-x,-y,z
x,-y,-z
-x,y,-z
1/2+x,1/2+y,1/2+z
1/2-x,1/2-y,1/2+z
1/2+x,1/2-y,1/2-z
1/2-x,1/2+y,1/2-z
loop_
_atom_site_type_symbol
_atom_site_label
_atom_site_fract_x
_atom_site_fract_y
_atom_site_fract_z
Si Si1 0.147542 0.027037 0.155273
Si Si2 0.353296 0.269996 0.304265
Si Si3 0.600841 0.878813 0.547902
Si Si4 0.353067 0.758534 0.193545
Si Si5 0.851781 0.606420 0.582861
O O1 0.112921 0.134584 0.247284
O O2 0.254428 0.053062 0.130624
O O3 0.124602 0.903362 0.225446
O O4 0.113220 0.000000 0.000000
O O5 0.360343 0.231707 0.464086
O O6 0.250302 0.262959 0.266969
O O7 0.396755 0.167323 0.214274
O O8 0.500000 0.881717 0.500000
O O9 0.605720 0.858193 0.709860
O O10 0.645332 0.000000 0.500000
O O11 0.352547 0.790594 0.032773
O O12 0.894776 0.500000 0.500000
#
# Coordination Sequence:
#
# PCOD9329631 Si02
#       5
#     8   8   8   8   8
#     4  10  18  34  53  91 122 155 221 257 332 374
#     4  11  20  38  61  87 131 169 215 278 317 389
#     4  11  25  42  63  95 134 179 221 265 339 407
#     4  11  20  36  60  88 127 166 219 276 313 383
#     4  10  19  33  53  89 122 155 211 272 318 371
#
# _framework density 23.983329999999999
#
# number of rings (size 3 to 8) (size 9 to 14) (size 15 to 20)
#    0.000    1.400    6.000    2.400    2.800    0.800 
#    0.000    3.000    0.000    3.600    0.000    2.800 
#    0.000    0.000    0.000    0.000    0.000    0.000 
#
# Total GULP energy -111484.998693 kJ/mol
# GULP energy per Si atom -5574.249935 kJ/mol
# Density = 2.392874 g / cm^3
# Si number density = 23.983330 Si / 1000 Ang^3
#
#
#
# Elastic Constant Matrix: (Units=GPa)
#
#
# Indices 1 2 3 4 5 6 
#
# 1 44.3441 -9.0946 6.9724 0.0000 0.0000 0.0000
# 2 -9.0946 142.4777 23.4513 0.0000 0.0000 0.0000
# 3 6.9724 23.4513 89.6024 0.0000 0.0000 0.0000
# 4 0.0000 0.0000 0.0000 50.2556 0.0000 0.0000
# 5 0.0000 0.0000 0.0000 0.0000 16.7965 0.0000
# 6 0.0000 0.0000 0.0000 0.0000 0.0000 -3.3740
#
#
#
# Elastic Compliance Matrix: (Units=1/GPa)
#
#
# Indices 1 2 3 4 5 6 
#
# 1 0.023295 0.001866 -0.002301 0.000000 0.000000 0.000000
# 2 0.001866 0.007484 -0.002104 0.000000 0.000000 0.000000
# 3 -0.002301 -0.002104 0.011890 0.000000 0.000000 0.000000
# 4 0.000000 0.000000 0.000000 0.019898 0.000000 0.000000
# 5 0.000000 0.000000 0.000000 0.000000 0.059536 0.000000
# 6 0.000000 0.000000 0.000000 0.000000 0.000000 -0.296384
#
#
# Mechanical properties :
#
#
# Convention : Reuss Voigt Hill
#
# Bulk Modulus (GPa) = 26.60210 35.45360 31.02785
# Shear Modulus (GPa) = -31.91400 29.74196 -1.08602
#
# Velocity S-wave (km/s) = -3.65180 3.52534 -0.67365
# Velocity P-wave (km/s) = 2.58164 5.60227 3.51572
#
# Compressibility (1/GPa) = 0.03759102
#
# Stress axis : x y z
#
# Youngs Moduli (GPa) = 42.92696 133.61777 84.10341
#
# Poissons Ratio (x) = -0.24929 0.19353
# Poissons Ratio (y) = -0.08009 0.17695
# Poissons Ratio (z) = 0.09878 0.28112
#
# Static dielectric constant tensor:
#      x y z
#    x 1.905580 0.000000 0.000000 
#    y 0.000000 2.074990 0.000000 
#    z 0.000000 0.000000 1.987960 
# 
# From -- ./inp_files/10712.got.cif
#   From: 2010.05.17/outbox.cif.g08.bks.cpg/sg23_6_cif.got.tgz:10712.got - 2010.06.04 12:02:01.
