data_PCOD9329944
_publ_section_title
;
Structure prediction by ZEFSAII (Michael W. Deem and Ramdas Pophale) SiO2 
 PCOD9329944
Probable space group: I 2 2 2
;
_chemical_formula_sum "Si O2"
_cell_formula_units_Z 40
_cell_length_a 9.874226
_cell_length_b 17.223190
_cell_length_c 11.198970
_cell_angle_alpha 90.000000
_cell_angle_beta 90.000000
_cell_angle_gamma 90.000000
_cell_volume 1904.560342
_symmetry_space_group_name_H-M "I 2 2 2"
_symmetry_group_IT_number 23
_symmetry_cell_setting 'orthorhombic'
loop_
_space_group_symop_operation_xyz
x,y,z
-x,-y,z
x,-y,-z
-x,y,-z
1/2+x,1/2+y,1/2+z
1/2-x,1/2-y,1/2+z
1/2+x,1/2-y,1/2-z
1/2-x,1/2+y,1/2-z
loop_
_atom_site_type_symbol
_atom_site_label
_atom_site_fract_x
_atom_site_fract_y
_atom_site_fract_z
Si Si1 0.573032 0.170352 0.113261
Si Si2 0.196690 0.916602 0.557315
Si Si3 0.038003 0.362791 0.865309
Si Si4 0.565433 0.341004 0.854874
Si Si5 0.887914 0.183084 0.092468
O O1 0.551375 0.130773 0.244457
O O2 0.500813 0.255472 0.129383
O O3 0.727578 0.181325 0.069475
O O4 0.500000 0.131006 0.000000
O O5 0.314290 0.900150 0.651168
O O6 0.189164 0.855119 0.446246
O O7 0.051981 0.901969 0.615533
O O8 0.211555 0.000000 0.500000
O O9 0.065543 0.271633 0.884646
O O10 0.000000 0.392795 0.000000
O O11 0.604216 0.356098 0.720743
O O12 0.000000 0.151525 0.000000
#
# Coordination Sequence:
#
# PCOD9329944 Si02
#       5
#     8   8   8   8   8
#     4  11  20  33  59  89 128 159 197 263 327 387
#     4  11  21  37  59  85 121 166 213 259 300 374
#     4  10  21  35  55  87 123 157 208 254 324 367
#     4  10  19  35  55  84 122 157 217 250 317 368
#     4  10  21  34  57  87 125 159 198 260 323 390
#
# _framework density 21.002222
#
# number of rings (size 3 to 8) (size 9 to 14) (size 15 to 20)
#    0.000    1.600    4.000    2.400    2.800    3.600 
#    0.000    0.000    0.000    2.400    0.000    1.400 
#    0.000    0.000    0.000    0.000    0.000    0.000 
#
# Total GULP energy -111341.765006 kJ/mol
# GULP energy per Si atom -5567.088250 kJ/mol
# Density = 2.095442 g / cm^3
# Si number density = 21.002222 Si / 1000 Ang^3
#
#
#
# Elastic Constant Matrix: (Units=GPa)
#
#
# Indices 1 2 3 4 5 6 
#
# 1 92.0121 -6.0147 56.7683 0.0000 0.0000 0.0000
# 2 -6.0147 24.3623 8.4967 -0.0001 0.0000 0.0000
# 3 56.7683 8.4967 123.9842 -0.0001 0.0000 0.0000
# 4 0.0000 -0.0001 -0.0001 9.5196 0.0000 0.0000
# 5 0.0000 0.0000 0.0000 0.0000 44.2960 0.0000
# 6 0.0000 0.0000 0.0000 0.0000 0.0000 11.0921
#
#
#
# Elastic Compliance Matrix: (Units=1/GPa)
#
#
# Indices 1 2 3 4 5 6 
#
# 1 0.016157 0.006730 -0.007859 0.000000 0.000000 0.000000
# 2 0.006730 0.044855 -0.006155 0.000000 0.000000 0.000000
# 3 -0.007859 -0.006155 0.012086 0.000000 0.000000 0.000000
# 4 0.000000 0.000000 0.000000 0.105046 0.000000 0.000000
# 5 0.000000 0.000000 0.000000 0.000000 0.022575 0.000000
# 6 0.000000 0.000000 0.000000 0.000000 0.000000 0.090154
#
#
# Mechanical properties :
#
#
# Convention : Reuss Voigt Hill
#
# Bulk Modulus (GPa) = 17.08559 39.87326 28.47943
# Shear Modulus (GPa) = 15.38690 25.05541 20.22116
#
# Velocity S-wave (km/s) = 2.70965 3.45771 3.10628
# Velocity P-wave (km/s) = 4.23585 5.91333 5.14344
#
# Compressibility (1/GPa) = 0.05852885
#
# Stress axis : x y z
#
# Youngs Moduli (GPa) = 61.89398 22.29392 82.74267
#
# Poissons Ratio (x) = -0.15003 0.65026
# Poissons Ratio (y) = -0.41653 0.50930
# Poissons Ratio (z) = 0.48641 0.13723
#
# Static dielectric constant tensor:
#      x y z
#    x 1.832310 0.000000 0.000000 
#    y 0.000000 1.751490 0.000000 
#    z 0.000000 0.000000 1.840700 
# 
# From -- ./inp_files/14448.got.cif
#   From: 2010.05.17/outbox.cif.g08.bks.cpg/sg23_8_cif.got.tgz:14448.got - 2010.06.04 12:02:01.
