data_PCOD9329407
_publ_section_title
;
Structure prediction by ZEFSAII (Michael W. Deem and Ramdas Pophale) SiO2 
 PCOD9329407
Probable space group: I 2 2 2
;
_chemical_formula_sum "Si O2"
_cell_formula_units_Z 52
_cell_length_a 26.715583
_cell_length_b 9.284866
_cell_length_c 11.598670
_cell_angle_alpha 90.000000
_cell_angle_beta 90.000000
_cell_angle_gamma 90.000000
_cell_volume 2877.057149
_symmetry_space_group_name_H-M "I 2 2 2"
_symmetry_group_IT_number 23
_symmetry_cell_setting 'orthorhombic'
loop_
_space_group_symop_operation_xyz
x,y,z
-x,-y,z
x,-y,-z
-x,y,-z
1/2+x,1/2+y,1/2+z
1/2-x,1/2-y,1/2+z
1/2+x,1/2-y,1/2-z
1/2-x,1/2+y,1/2-z
loop_
_atom_site_type_symbol
_atom_site_label
_atom_site_fract_x
_atom_site_fract_y
_atom_site_fract_z
Si Si1 0.178695 0.752521 0.073301
Si Si2 0.269053 0.937217 0.767262
Si Si3 0.250499 0.000000 0.000000
Si Si4 0.063184 0.244296 0.937363
Si Si5 0.682585 0.231685 0.300032
Si Si6 0.500000 0.500000 0.309765
Si Si7 0.000000 0.500000 0.821452
Si Si8 0.067315 0.249643 0.217179
O O1 0.201329 0.647916 0.168771
O O2 0.120437 0.771531 0.101489
O O3 0.213100 0.893698 0.067255
O O4 0.179991 0.706452 0.938467
O O5 0.281799 0.915445 0.903389
O O6 0.212437 0.876039 0.765126
O O7 0.283812 0.101465 0.745355
O O8 0.036577 0.391301 0.893083
O O9 0.033258 0.109293 0.885892
O O10 0.064131 0.243572 0.076170
O O11 0.625794 0.237680 0.255082
O O12 0.538297 0.394114 0.243172
O O13 0.035915 0.608084 0.751790
#
# Coordination Sequence:
#
# PCOD9329407 Si02
#       8
#     8   8   4   8   8   4   4   8
#     4  10  21  34  55  74 108 147 182 218 270 325
#     4  11  20  38  52  78 103 147 177 230 267 322
#     4  10  22  36  52  79 108 139 188 230 266 320
#     4  10  18  27  45  67 100 139 175 205 255 315
#     4  10  22  33  54  75 109 143 182 216 274 323
#     4  10  19  26  44  70 104 141 170 211 256 318
#     4  10  17  28  40  64  98 129 168 207 244 312
#     4  10  18  29  42  68  99 137 172 206 254 319
#
# _framework density 18.074024999999999
#
# number of rings (size 3 to 8) (size 9 to 14) (size 15 to 20)
#    0.000    1.846    1.538    5.077    6.462    2.462 
#    0.000    0.000    0.000    0.000    0.000    0.000 
#    0.000   23.385    0.615    0.000    0.000    0.000 
#
# Total GULP energy -144739.548394 kJ/mol
# GULP energy per Si atom -5566.905707 kJ/mol
# Density = 1.803289 g / cm^3
# Si number density = 18.074025 Si / 1000 Ang^3
#
#
#
# Elastic Constant Matrix: (Units=GPa)
#
#
# Indices 1 2 3 4 5 6 
#
# 1 129.2081 53.1156 46.0459 0.0000 0.0000 0.0000
# 2 53.1156 120.6378 17.2506 0.0000 0.0000 0.0000
# 3 46.0459 17.2506 25.1654 0.0000 0.0000 0.0000
# 4 0.0000 0.0000 0.0000 23.1909 0.0000 0.0000
# 5 0.0000 0.0000 0.0000 0.0000 19.3547 0.0000
# 6 0.0000 0.0000 0.0000 0.0000 0.0000 12.9417
#
#
#
# Elastic Compliance Matrix: (Units=1/GPa)
#
#
# Indices 1 2 3 4 5 6 
#
# 1 0.024577 -0.004868 -0.041633 0.000000 0.000000 0.000000
# 2 -0.004868 0.010154 0.001946 0.000000 0.000000 0.000000
# 3 -0.041633 0.001946 0.114579 0.000000 0.000000 0.000000
# 4 0.000000 0.000000 0.000000 0.043120 0.000000 0.000000
# 5 0.000000 0.000000 0.000000 0.000000 0.051667 0.000000
# 6 0.000000 0.000000 0.000000 0.000000 0.000000 0.077270
#
#
# Mechanical properties :
#
#
# Convention : Reuss Voigt Hill
#
# Bulk Modulus (GPa) = 16.61070 56.42616 36.51843
# Shear Modulus (GPa) = 11.61322 21.67074 16.64198
#
# Velocity S-wave (km/s) = 2.53758 3.46641 3.03771
# Velocity P-wave (km/s) = 4.21854 6.87813 5.70547
#
# Compressibility (1/GPa) = 0.06020215
#
# Stress axis : x y z
#
# Youngs Moduli (GPa) = 40.68819 98.48116 8.72757
#
# Poissons Ratio (x) = 0.47939 0.36335
# Poissons Ratio (y) = 0.19806 -0.01699
# Poissons Ratio (z) = 1.69396 -0.19166
#
# Static dielectric constant tensor:
#      x y z
#    x 1.649690 0.000000 0.000000 
#    y 0.000000 1.691040 0.000000 
#    z 0.000000 0.000000 1.643760 
# 
# From -- ./inp_files/22749.got.cif
#   From: 2010.05.17/outbox.cif.g08.bks.cpg/sg23_12_cif.got.tgz:22749.got - 2010.06.04 12:02:01.
