data_PCOD9329320
_publ_section_title
;
Structure prediction by ZEFSAII (Michael W. Deem and Ramdas Pophale) SiO2 
 PCOD9329320
Probable space group: F 2 2 2
;
_chemical_formula_sum "Si O2"
_cell_formula_units_Z 29
_cell_length_a 27.000000
_cell_length_b 24.000000
_cell_length_c 9.000000
_cell_angle_alpha 90.000000
_cell_angle_beta 90.000000
_cell_angle_gamma 90.000000
_cell_volume 5832.000000
_symmetry_space_group_name_H-M "F 2 2 2"
_symmetry_group_IT_number 22
_symmetry_cell_setting 'orthorhombic'
loop_
_space_group_symop_operation_xyz
x,y,z
-x,-y,z
x,-y,-z
-x,y,-z
x,1/2+y,1/2+z
-x,1/2-y,1/2+z
x,1/2-y,1/2-z
-x,1/2+y,1/2-z
1/2+x,y,1/2+z
1/2-x,-y,1/2+z
1/2+x,-y,1/2-z
1/2-x,y,1/2-z
1/2+x,1/2+y,z
1/2-x,1/2-y,z
1/2+x,1/2-y,-z
1/2-x,1/2+y,-z
loop_
_atom_site_type_symbol
_atom_site_label
_atom_site_fract_x
_atom_site_fract_y
_atom_site_fract_z
Si Si1 0.704262 0.475847 0.847883
Si Si2 0.480504 0.191426 0.160815
Si Si3 0.500000 0.500000 0.000000
Si Si4 0.054679 0.101362 0.831884
Si Si5 0.128170 0.151980 0.414086
Si Si6 0.363166 0.548562 0.382851
Si Si7 0.193079 0.757099 0.931057
Si Si8 0.640568 0.870180 0.434685
O O1 0.750000 0.452629 0.750000
O O2 0.674462 0.519595 0.738668
O O3 0.667258 0.430151 0.920340
O O4 0.727484 0.500000 0.000000
O O5 0.470609 0.250000 0.250000
O O6 0.516629 0.148137 0.257505
O O7 0.431213 0.159268 0.101608
O O8 0.500000 0.210297 0.000000
O O9 0.528998 0.545205 0.897573
O O10 0.092047 0.076716 0.708744
O O11 0.090308 0.125486 0.965936
O O12 0.150555 0.100569 0.508801
O O13 0.154844 0.207887 0.474024
O O14 0.137219 0.143493 0.239630
O O15 0.377324 0.500000 0.500000
O O16 0.194112 0.750000 0.750000
O O17 0.250000 0.750000 0.980556
O O18 0.172941 0.816976 0.986800
#
# Coordination Sequence:
#
# PCOD9329320 Si02
#       8
#    16  16   4  16  16  16  16  16
#     4  12  26  43  70 105 141 191 241 295 367 434
#     4  12  28  46  72 105 141 191 246 303 375 447
#     4  12  28  40  74 100 144 184 250 298 376 448
#     4  12  27  46  69 105 139 193 239 304 369 443
#     4  11  24  44  69 103 141 180 238 296 362 431
#     4  12  25  45  69  99 145 186 237 299 359 435
#     4   9  21  39  70 104 133 180 234 292 355 420
#     4  11  23  43  73  98 145 182 235 300 361 436
#
# _framework density 4.9725650000000003
#
# number of rings (size 3 to 8) (size 9 to 14) (size 15 to 20)
#    0.000    0.690    4.138    3.310   10.621    0.000 
#    0.000    0.000    0.000    0.828    0.000    0.000 
#    0.000    0.000    0.000    0.000    0.000    0.000 
#
# Total GULP energy -161444.630203 kJ/mol
# GULP energy per Si atom -5567.056214 kJ/mol
# Density = 0.496125 g / cm^3
# Si number density = 4.972565 Si / 1000 Ang^3
#
#
#
# Elastic Constant Matrix: (Units=GPa)
#
#
# Indices 1 2 3 4 5 6 
#
# 1 86.5674 42.4928 20.4108 0.0004 -0.0003 -0.0002
# 2 42.4928 121.6439 30.5649 0.0015 -0.0004 -0.0006
# 3 20.4108 30.5649 88.8406 0.0023 -0.0014 -0.0014
# 4 0.0004 0.0015 0.0023 24.3388 -0.0008 -0.0008
# 5 -0.0003 -0.0004 -0.0014 -0.0008 25.8612 0.0006
# 6 -0.0002 -0.0006 -0.0014 -0.0008 0.0006 39.7606
#
#
#
# Elastic Compliance Matrix: (Units=1/GPa)
#
#
# Indices 1 2 3 4 5 6 
#
# 1 0.014173 -0.004524 -0.001700 0.000000 0.000000 0.000000
# 2 -0.004524 0.010443 -0.002553 0.000000 0.000000 0.000000
# 3 -0.001700 -0.002553 0.012525 -0.000001 0.000001 0.000000
# 4 0.000000 0.000000 -0.000001 0.041087 0.000001 0.000001
# 5 0.000000 0.000000 0.000001 0.000001 0.038668 -0.000001
# 6 0.000000 0.000000 0.000000 0.000001 -0.000001 0.025151
#
#
# Mechanical properties :
#
#
# Convention : Reuss Voigt Hill
#
# Bulk Modulus (GPa) = 51.05501 53.77653 52.41577
# Shear Modulus (GPa) = 30.09713 31.56434 30.83074
#
# Velocity S-wave (km/s) = 3.89415 3.98794 3.94133
# Velocity P-wave (km/s) = 6.77815 6.94984 6.86453
#
# Compressibility (1/GPa) = 0.01958672
#
# Stress axis : x y z
#
# Youngs Moduli (GPa) = 70.55636 95.76194 79.83969
#
# Poissons Ratio (x) = 0.43321 0.13571
# Poissons Ratio (y) = 0.31919 0.20386
# Poissons Ratio (z) = 0.11993 0.24451
#
# Static dielectric constant tensor:
#      x y z
#    x 1.823740 0.000000 0.000000 
#    y 0.000000 1.750640 0.000000 
#    z 0.000000 0.000000 1.786220 
# 
# From -- ./inp_files/14986.got.cif
#   From: 2010.05.17/outbox.ucp.g08.bks.cvg/sg22_8_cif.got.tgz:14986.got - 2010.06.11 15:16:44.
