data_PCOD9329380
_publ_section_title
;
Structure prediction by ZEFSAII (Michael W. Deem and Ramdas Pophale) SiO2 
 PCOD9329380
Probable space group: I 2 2 2
;
_chemical_formula_sum "Si O2"
_cell_formula_units_Z 48
_cell_length_a 30.176780
_cell_length_b 8.768153
_cell_length_c 8.381058
_cell_angle_alpha 90.000000
_cell_angle_beta 90.000000
_cell_angle_gamma 90.000000
_cell_volume 2217.582891
_symmetry_space_group_name_H-M "I 2 2 2"
_symmetry_group_IT_number 23
_symmetry_cell_setting 'orthorhombic'
loop_
_space_group_symop_operation_xyz
x,y,z
-x,-y,z
x,-y,-z
-x,y,-z
1/2+x,1/2+y,1/2+z
1/2-x,1/2-y,1/2+z
1/2+x,1/2-y,1/2-z
1/2-x,1/2+y,1/2-z
loop_
_atom_site_type_symbol
_atom_site_label
_atom_site_fract_x
_atom_site_fract_y
_atom_site_fract_z
Si Si1 0.290374 0.861206 0.097685
Si Si2 0.708959 0.335745 0.797601
Si Si3 0.644705 0.826835 0.427086
Si Si4 0.933177 0.428113 0.257221
Si Si5 0.000000 0.500000 0.500000
Si Si6 0.000000 0.500000 0.000000
Si Si7 0.118173 0.749068 0.739759
Si Si8 0.366014 0.500000 0.000000
O O1 0.250742 0.913799 0.212341
O O2 0.331095 0.792362 0.192990
O O3 0.274374 0.750390 0.956147
O O4 0.310649 0.000000 0.000000
O O5 0.688950 0.229383 0.657762
O O6 0.668032 0.431682 0.867196
O O7 0.609838 0.832465 0.281188
O O8 0.624746 0.723540 0.570038
O O9 0.647796 0.000000 0.500000
O O10 0.966180 0.398288 0.400020
O O11 0.914636 0.602745 0.271722
O O12 0.966152 0.408693 0.108690
O O13 0.107109 0.877196 0.606957
#
# Coordination Sequence:
#
# PCOD9329380 Si02
#       8
#     8   8   8   8   2   2   8   4
#     4  11  24  37  58  83 118 163 208 265 301 352
#     4  11  25  39  59  86 121 163 215 256 302 370
#     4  10  20  39  66  90 122 160 204 259 324 368
#     4  10  20  37  63 100 127 156 196 260 333 371
#     4  10  24  30  68 100 136 142 200 274 330 386
#     4  10  16  38  58 110 122 146 196 260 326 382
#     4  10  21  41  60  86 126 166 208 254 309 379
#     4  10  26  40  57  87 122 172 214 246 300 384
#
# _framework density 21.645189999999999
#
# number of rings (size 3 to 8) (size 9 to 14) (size 15 to 20)
#    0.000    1.667    2.500    3.000   12.833    0.000 
#    6.000    0.000    0.000    0.500    0.000    1.167 
#    0.000    0.000    0.000    0.000    0.000    0.000 
#
# Total GULP energy -133700.671885 kJ/mol
# GULP energy per Si atom -5570.861329 kJ/mol
# Density = 2.159592 g / cm^3
# Si number density = 21.645190 Si / 1000 Ang^3
#
#
#
# Elastic Constant Matrix: (Units=GPa)
#
#
# Indices 1 2 3 4 5 6 
#
# 1 85.2631 17.9589 37.4576 0.0000 0.0000 0.0000
# 2 17.9589 47.3216 26.7318 0.0000 0.0000 0.0000
# 3 37.4576 26.7318 111.8315 0.0000 0.0000 0.0000
# 4 0.0000 0.0000 0.0000 24.8352 0.0000 0.0000
# 5 0.0000 0.0000 0.0000 0.0000 68.1072 0.0000
# 6 0.0000 0.0000 0.0000 0.0000 0.0000 5.6155
#
#
#
# Elastic Compliance Matrix: (Units=1/GPa)
#
#
# Indices 1 2 3 4 5 6 
#
# 1 0.014137 -0.003110 -0.003992 0.000000 0.000000 0.000000
# 2 -0.003110 0.025115 -0.004962 0.000000 0.000000 0.000000
# 3 -0.003992 -0.004962 0.011465 0.000000 0.000000 0.000000
# 4 0.000000 0.000000 0.000000 0.040265 0.000000 0.000000
# 5 0.000000 0.000000 0.000000 0.000000 0.014683 0.000000
# 6 0.000000 0.000000 0.000000 0.000000 0.000000 0.178078
#
#
# Mechanical properties :
#
#
# Convention : Reuss Voigt Hill
#
# Bulk Modulus (GPa) = 37.60799 45.41254 41.51026
# Shear Modulus (GPa) = 15.78609 30.52945 23.15777
#
# Velocity S-wave (km/s) = 2.70351 3.75967 3.27445
# Velocity P-wave (km/s) = 5.21131 6.31449 5.78924
#
# Compressibility (1/GPa) = 0.02659010
#
# Stress axis : x y z
#
# Youngs Moduli (GPa) = 70.73561 39.81661 87.22150
#
# Poissons Ratio (x) = 0.12384 0.34817
# Poissons Ratio (y) = 0.22000 0.43276
# Poissons Ratio (z) = 0.28236 0.19756
#
# Static dielectric constant tensor:
#      x y z
#    x 1.766360 0.000000 0.000000 
#    y 0.000000 1.864570 0.000000 
#    z 0.000000 0.000000 1.891060 
# 
# From -- ./inp_files/13428.got.cif
#   From: 2010.05.17/outbox.cif.g08.bks.cpg/sg23_7_cif.got.tgz:13428.got - 2010.06.04 12:02:01.
