data_PCOD9329546
_publ_section_title
;
Structure prediction by ZEFSAII (Michael W. Deem and Ramdas Pophale) SiO2 
 PCOD9329546
Probable space group: I 2 2 2
;
_chemical_formula_sum "Si O2"
_cell_formula_units_Z 64
_cell_length_a 8.752827
_cell_length_b 23.732777
_cell_length_c 19.763134
_cell_angle_alpha 90.000000
_cell_angle_beta 90.000000
_cell_angle_gamma 90.000000
_cell_volume 4105.373915
_symmetry_space_group_name_H-M "I 2 2 2"
_symmetry_group_IT_number 23
_symmetry_cell_setting 'orthorhombic'
loop_
_space_group_symop_operation_xyz
x,y,z
-x,-y,z
x,-y,-z
-x,y,-z
1/2+x,1/2+y,1/2+z
1/2-x,1/2-y,1/2+z
1/2+x,1/2-y,1/2-z
1/2-x,1/2+y,1/2-z
loop_
_atom_site_type_symbol
_atom_site_label
_atom_site_fract_x
_atom_site_fract_y
_atom_site_fract_z
Si Si1 0.316063 0.269376 0.351454
Si Si2 0.682624 0.065511 0.364485
Si Si3 0.817448 0.160956 0.723689
Si Si4 0.816093 0.746235 0.000000
Si Si5 0.316063 0.269376 0.648546
Si Si6 0.317376 0.934489 0.635515
Si Si7 0.317448 0.660956 0.776311
Si Si8 0.182302 0.120352 0.500000
O O1 0.238042 0.212635 0.323584
O O2 0.274590 0.276696 0.429880
O O3 0.500000 0.261634 0.346936
O O4 0.276151 0.319458 0.299757
O O5 0.500000 0.070395 0.370427
O O6 0.740333 0.104623 0.303542
O O7 0.756433 0.089271 0.433225
O O8 0.722394 1.000000 0.355485
O O9 0.776151 0.180542 0.799757
O O10 0.740334 0.104623 0.696458
O O11 0.000000 0.155820 0.718687
O O12 0.774590 0.776696 0.070120
O O13 0.743372 0.684255 0.000000
O O14 0.000000 0.739283 0.000000
O O15 0.238043 0.212635 0.676416
O O16 0.243567 0.910729 0.566775
O O17 0.000000 0.120503 0.500000
#
# Coordination Sequence:
#
# PCOD9329546 Si02
#       8
#     8   8   8   8   8   8   8   8
#     4   9  18  31  49  71  98 130 160 195 243 294
#     4  11  23  37  51  67  93 133 172 202 241 292
#     4  10  19  31  48  72  98 125 161 205 245 282
#     4  10  18  31  51  72  99 134 164 190 234 295
#     4   9  18  31  49  71  98 130 160 195 243 294
#     4  11  23  37  51  67  93 133 172 202 241 292
#     4  10  19  31  48  72  98 125 161 205 245 282
#     4  12  23  33  48  73 100 127 165 205 240 280
#
# _framework density 15.589321999999999
#
# number of rings (size 3 to 8) (size 9 to 14) (size 15 to 20)
#    0.000    1.750    2.500    3.000    0.000    4.500 
#    0.000    0.000    0.000    0.000    0.000    0.875 
#    0.000    7.000    0.000    0.000    0.000    0.000 
#
# Total GULP energy -178588.012838 kJ/mol
# GULP energy per Si atom -5580.875401 kJ/mol
# Density = 1.555384 g / cm^3
# Si number density = 15.589322 Si / 1000 Ang^3
#
#
#
# Elastic Constant Matrix: (Units=GPa)
#
#
# Indices 1 2 3 4 5 6 
#
# 1 30.1215 29.3694 40.6566 0.0000 0.0000 0.0000
# 2 29.3694 86.1909 71.0767 0.0000 0.0000 0.0000
# 3 40.6566 71.0767 154.6236 0.0000 0.0000 0.0000
# 4 0.0000 0.0000 0.0000 17.9265 0.0000 0.0000
# 5 0.0000 0.0000 0.0000 0.0000 20.7250 0.0000
# 6 0.0000 0.0000 0.0000 0.0000 0.0000 22.4557
#
#
#
# Elastic Compliance Matrix: (Units=1/GPa)
#
#
# Indices 1 2 3 4 5 6 
#
# 1 0.057804 -0.011536 -0.009896 0.000000 0.000000 0.000000
# 2 -0.011536 0.020987 -0.006614 0.000000 0.000000 0.000000
# 3 -0.009896 -0.006614 0.012110 0.000000 0.000000 0.000000
# 4 0.000000 0.000000 0.000000 0.055783 0.000000 0.000000
# 5 0.000000 0.000000 0.000000 0.000000 0.048251 0.000000
# 6 0.000000 0.000000 0.000000 0.000000 0.000000 0.044532
#
#
# Mechanical properties :
#
#
# Convention : Reuss Voigt Hill
#
# Bulk Modulus (GPa) = 28.72832 61.46017 45.09425
# Shear Modulus (GPa) = 16.27801 20.87699 18.57750
#
# Velocity S-wave (km/s) = 3.23488 3.66346 3.45582
# Velocity P-wave (km/s) = 5.69393 7.57659 6.70170
#
# Compressibility (1/GPa) = 0.03480886
#
# Stress axis : x y z
#
# Youngs Moduli (GPa) = 17.29980 47.64808 82.57785
#
# Poissons Ratio (x) = 0.54966 0.81721
# Poissons Ratio (y) = 0.19957 0.54618
# Poissons Ratio (z) = 0.17120 0.31515
#
# Static dielectric constant tensor:
#      x y z
#    x 1.522250 0.000000 0.000000 
#    y 0.000000 1.488370 0.000000 
#    z 0.000000 0.000000 1.541470 
# 
# From -- ./inp_files/11508.got.cif
#   From: 2010.05.17/outbox.cif.g08.bks.cpg/sg23_6_cif.got.tgz:11508.got - 2010.06.04 12:02:01.
