data_PCOD9329974
_publ_section_title
;
Structure prediction by ZEFSAII (Michael W. Deem and Ramdas Pophale) SiO2 
 PCOD9329974
Probable space group: I 2 2 2
;
_chemical_formula_sum "Si O2"
_cell_formula_units_Z 56
_cell_length_a 21.116988
_cell_length_b 7.004755
_cell_length_c 14.237791
_cell_angle_alpha 90.000000
_cell_angle_beta 90.000000
_cell_angle_gamma 90.000000
_cell_volume 2106.044467
_symmetry_space_group_name_H-M "I 2 2 2"
_symmetry_group_IT_number 23
_symmetry_cell_setting 'orthorhombic'
loop_
_space_group_symop_operation_xyz
x,y,z
-x,-y,z
x,-y,-z
-x,y,-z
1/2+x,1/2+y,1/2+z
1/2-x,1/2-y,1/2+z
1/2+x,1/2-y,1/2-z
1/2-x,1/2+y,1/2-z
loop_
_atom_site_type_symbol
_atom_site_label
_atom_site_fract_x
_atom_site_fract_y
_atom_site_fract_z
Si Si1 0.376220 0.339686 0.276662
Si Si2 0.238825 0.246093 0.094246
Si Si3 0.236929 0.349456 0.298645
Si Si4 0.599747 0.181654 0.129037
Si Si5 0.605779 0.340843 0.427895
Si Si6 0.121367 0.239672 0.567725
Si Si7 0.007890 0.232538 0.201086
O O1 0.307183 0.256272 0.297882
O O2 0.377054 0.535617 0.334795
O O3 0.387024 0.371998 0.165345
O O4 0.434875 0.207242 0.305877
O O5 0.230436 0.375135 0.186242
O O6 0.172589 0.245366 0.039279
O O7 0.304074 0.287463 0.042283
O O8 0.252797 0.035331 0.137005
O O9 0.169873 0.265555 0.331481
O O10 0.544821 0.206565 0.205421
O O11 0.606921 0.957426 0.101031
O O12 0.586111 0.287812 0.030478
O O13 0.583057 0.500000 0.500000
O O14 0.549208 0.214288 0.389678
O O15 0.000000 0.000000 0.203475
#
# Coordination Sequence:
#
# PCOD9329974 Si02
#       7
#     8   8   8   8   8   8   8
#     4   9  20  35  51  80 121 148 188 242 294 334
#     4   9  17  31  56  86 114 149 199 246 291 344
#     4   9  17  32  55  81 116 154 192 241 286 343
#     4  10  19  35  60  86 115 154 205 234 291 360
#     4  10  20  34  60  84 110 152 199 248 294 351
#     4   9  20  34  56  89 116 152 203 245 287 353
#     4  10  21  37  55  84 119 155 193 238 300 354
#
# _framework density 26.590129999999998
#
# number of rings (size 3 to 8) (size 9 to 14) (size 15 to 20)
#    0.000    2.571    1.429    0.000    6.000    3.714 
#    0.000    6.429    0.000    0.857    0.000    4.000 
#    0.000    0.000    0.000    0.000    0.000    0.000 
#
# Total GULP energy -156356.664337 kJ/mol
# GULP energy per Si atom -5584.166583 kJ/mol
# Density = 2.652961 g / cm^3
# Si number density = 26.590130 Si / 1000 Ang^3
#
#
#
# Elastic Constant Matrix: (Units=GPa)
#
#
# Indices 1 2 3 4 5 6 
#
# 1 122.8596 8.9978 -16.3466 0.0000 0.0000 0.0000
# 2 8.9978 71.5915 10.9384 0.0000 0.0000 0.0000
# 3 -16.3466 10.9384 82.0056 0.0000 0.0000 0.0000
# 4 0.0000 0.0000 0.0000 34.0834 0.0000 0.0000
# 5 0.0000 0.0000 0.0000 0.0000 12.3624 0.0000
# 6 0.0000 0.0000 0.0000 0.0000 0.0000 12.3209
#
#
#
# Elastic Compliance Matrix: (Units=1/GPa)
#
#
# Indices 1 2 3 4 5 6 
#
# 1 0.008488 -0.001353 0.001872 0.000000 0.000000 0.000000
# 2 -0.001353 0.014474 -0.002200 0.000000 0.000000 0.000000
# 3 0.001872 -0.002200 0.012861 0.000000 0.000000 0.000000
# 4 0.000000 0.000000 0.000000 0.029340 0.000000 0.000000
# 5 0.000000 0.000000 0.000000 0.000000 0.080891 0.000000
# 6 0.000000 0.000000 0.000000 0.000000 0.000000 0.081163
#
#
# Mechanical properties :
#
#
# Convention : Reuss Voigt Hill
#
# Bulk Modulus (GPa) = 30.80594 31.51509 31.16052
# Shear Modulus (GPa) = 20.71266 29.94447 25.32857
#
# Velocity S-wave (km/s) = 2.79401 3.35946 3.08970
# Velocity P-wave (km/s) = 4.69247 5.18901 4.94698
#
# Compressibility (1/GPa) = 0.03246127
#
# Stress axis : x y z
#
# Youngs Moduli (GPa) = 117.81951 69.08774 77.75442
#
# Poissons Ratio (x) = 0.09346 -0.14558
# Poissons Ratio (y) = 0.15939 0.17109
# Poissons Ratio (z) = -0.22059 0.15202
#
# Static dielectric constant tensor:
#      x y z
#    x 2.209310 0.000000 0.000000 
#    y 0.000000 2.193490 0.000000 
#    z 0.000000 0.000000 2.063400 
# 
# From -- ./inp_files/22392.got.cif
#   From: 2010.05.17/outbox.cif.g08.bks.cpg/sg23_12_cif.got.tgz:22392.got - 2010.06.04 12:02:01.
