data_PCOD9329672
_publ_section_title
;
Structure prediction by ZEFSAII (Michael W. Deem and Ramdas Pophale) SiO2 
 PCOD9329672
Probable space group: I 2 2 2
;
_chemical_formula_sum "Si O2"
_cell_formula_units_Z 64
_cell_length_a 18.986737
_cell_length_b 19.962282
_cell_length_c 9.260531
_cell_angle_alpha 90.000000
_cell_angle_beta 90.000000
_cell_angle_gamma 90.000000
_cell_volume 3509.913479
_symmetry_space_group_name_H-M "I 2 2 2"
_symmetry_group_IT_number 23
_symmetry_cell_setting 'orthorhombic'
loop_
_space_group_symop_operation_xyz
x,y,z
-x,-y,z
x,-y,-z
-x,y,-z
1/2+x,1/2+y,1/2+z
1/2-x,1/2-y,1/2+z
1/2+x,1/2-y,1/2-z
1/2-x,1/2+y,1/2-z
loop_
_atom_site_type_symbol
_atom_site_label
_atom_site_fract_x
_atom_site_fract_y
_atom_site_fract_z
Si Si1 0.049065 0.566618 0.688549
Si Si2 0.173561 0.572597 0.456533
Si Si3 0.702497 0.859060 0.319929
Si Si4 0.164888 0.777408 0.639769
Si Si5 0.744042 0.645762 0.326559
Si Si6 0.514978 0.218776 0.171566
Si Si7 0.824284 0.564285 0.095394
Si Si8 0.869264 0.225577 0.296829
O O1 0.099639 0.579246 0.545777
O O2 0.102120 0.554289 0.821802
O O3 0.000000 0.500000 0.672188
O O4 0.014885 0.639956 0.716195
O O5 0.198448 0.500000 0.500000
O O6 0.174350 0.582882 0.286567
O O7 0.231265 0.623904 0.515894
O O8 0.786266 0.841595 0.321919
O O9 0.676654 0.875607 0.480045
O O10 0.664863 0.793821 0.259392
O O11 0.210899 0.713736 0.691931
O O12 0.152394 0.780371 0.465903
O O13 0.087993 0.757540 0.699656
O O14 0.770694 0.588122 0.219109
O O15 0.664993 0.665157 0.291732
O O16 0.451220 0.263225 0.228398
O O17 0.500000 0.215789 0.000000
O O18 0.804347 0.500000 0.000000
#
# Coordination Sequence:
#
# PCOD9329672 Si02
#       8
#     8   8   8   8   8   8   8   8
#     4  11  25  39  55  79 127 166 192 232 276 347
#     4  11  22  37  59  85 109 153 210 230 274 350
#     4  11  21  36  61  83 109 155 203 245 294 341
#     4  10  18  35  59  82 113 148 192 255 293 341
#     4  10  19  38  55  81 112 146 195 249 284 341
#     4  10  20  35  56  87 114 154 196 233 291 355
#     4  11  23  39  54  79 119 155 196 237 292 347
#     4  10  20  33  58  83 111 150 193 246 299 343
#
# _framework density 18.234068000000001
#
# number of rings (size 3 to 8) (size 9 to 14) (size 15 to 20)
#    0.000    1.500    5.000    2.250    5.250    0.250 
#    0.000    0.625    0.000    0.000    0.000    5.250 
#    0.000    0.000    0.000    0.000    0.000    0.000 
#
# Total GULP energy -178256.657042 kJ/mol
# GULP energy per Si atom -5570.520533 kJ/mol
# Density = 1.819257 g / cm^3
# Si number density = 18.234068 Si / 1000 Ang^3
#
#
#
# Elastic Constant Matrix: (Units=GPa)
#
#
# Indices 1 2 3 4 5 6 
#
# 1 123.4229 39.7534 19.9652 0.0000 0.0000 0.0000
# 2 39.7534 47.3097 9.2243 0.0000 0.0000 0.0000
# 3 19.9652 9.2243 55.6286 0.0000 0.0000 0.0000
# 4 0.0000 0.0000 0.0000 27.1764 0.0000 0.0000
# 5 0.0000 0.0000 0.0000 0.0000 19.5431 0.0000
# 6 0.0000 0.0000 0.0000 0.0000 0.0000 32.4119
#
#
#
# Elastic Compliance Matrix: (Units=1/GPa)
#
#
# Indices 1 2 3 4 5 6 
#
# 1 0.011462 -0.009124 -0.002601 0.000000 0.000000 0.000000
# 2 -0.009124 0.029107 -0.001552 0.000000 0.000000 0.000000
# 3 -0.002601 -0.001552 0.019167 0.000000 0.000000 0.000000
# 4 0.000000 0.000000 0.000000 0.036797 0.000000 0.000000
# 5 0.000000 0.000000 0.000000 0.000000 0.051169 0.000000
# 6 0.000000 0.000000 0.000000 0.000000 0.000000 0.030853
#
#
# Mechanical properties :
#
#
# Convention : Reuss Voigt Hill
#
# Bulk Modulus (GPa) = 30.13649 40.47187 35.30418
# Shear Modulus (GPa) = 23.13023 26.32084 24.72553
#
# Velocity S-wave (km/s) = 3.56549 3.80346 3.68640
# Velocity P-wave (km/s) = 5.78910 6.44456 6.12561
#
# Compressibility (1/GPa) = 0.03318236
#
# Stress axis : x y z
#
# Youngs Moduli (GPa) = 87.24754 34.35657 52.17279
#
# Poissons Ratio (x) = 0.31347 0.13568
# Poissons Ratio (y) = 0.79604 0.08096
# Poissons Ratio (z) = 0.22690 0.05332
#
# Static dielectric constant tensor:
#      x y z
#    x 1.676180 0.000000 0.000000 
#    y 0.000000 1.684960 0.000000 
#    z 0.000000 0.000000 1.645610 
# 
# From -- ./inp_files/11402.got.cif
#   From: 2010.05.17/outbox.cif.g08.bks.cpg/sg23_6_cif.got.tgz:11402.got - 2010.06.04 12:02:01.
