data_PCOD9329097
_publ_section_title
;
Structure prediction by ZEFSAII (Michael W. Deem and Ramdas Pophale) SiO2 
 PCOD9329097
Probable space group: F 2 2 2
;
_chemical_formula_sum "Si O2"
_cell_formula_units_Z 64
_cell_length_a 20.330759
_cell_length_b 16.329475
_cell_length_c 8.632816
_cell_angle_alpha 90.000000
_cell_angle_beta 90.000000
_cell_angle_gamma 90.000000
_cell_volume 2866.013943
_symmetry_space_group_name_H-M "F 2 2 2"
_symmetry_group_IT_number 22
_symmetry_cell_setting 'orthorhombic'
loop_
_space_group_symop_operation_xyz
x,y,z
-x,-y,z
x,-y,-z
-x,y,-z
x,1/2+y,1/2+z
-x,1/2-y,1/2+z
x,1/2-y,1/2-z
-x,1/2+y,1/2-z
1/2+x,y,1/2+z
1/2-x,-y,1/2+z
1/2+x,-y,1/2-z
1/2-x,y,1/2-z
1/2+x,1/2+y,z
1/2-x,1/2-y,z
1/2+x,1/2-y,-z
1/2-x,1/2+y,-z
loop_
_atom_site_type_symbol
_atom_site_label
_atom_site_fract_x
_atom_site_fract_y
_atom_site_fract_z
Si Si1 0.547501 0.183425 0.356147
Si Si2 0.321564 0.108881 0.245239
Si Si3 0.822514 0.253775 0.997760
Si Si4 0.423424 0.019169 0.820808
O O1 0.500000 0.159129 0.500000
O O2 0.508919 0.250000 0.250000
O O3 0.611268 0.232390 0.414515
O O4 0.576464 0.108745 0.255249
O O5 0.250000 0.067200 0.250000
O O6 0.318988 0.181465 0.369917
O O7 0.330332 0.158489 0.085076
O O8 0.378661 0.044283 0.273429
O O9 0.750000 0.250000 0.074169
O O10 0.500000 0.000000 0.812279
O O11 0.404181 0.000000 0.000000
#
# Coordination Sequence:
#
# PCOD9329097 Si02
#       4
#    16  16  16  16
#     4  12  28  44  72 103 139 189 237 287 348 421
#     4   9  19  41  69  98 140 185 227 285 346 409
#     4   9  20  41  71 101 136 184 234 280 341 414
#     4  11  25  44  68  99 143 181 232 293 354 408
#
# _framework density 22.330665
#
# number of rings (size 3 to 8) (size 9 to 14) (size 15 to 20)
#    0.000    1.750    0.000    4.500   10.500    4.000 
#   13.500    0.000    0.000    0.000    0.000    0.000 
#    0.000    0.000    0.000    0.000    0.000    0.000 
#
# Total GULP energy -89282.630379 kJ/mol
# GULP energy per Si atom -5580.164399 kJ/mol
# Density = 2.227984 g / cm^3
# Si number density = 22.330665 Si / 1000 Ang^3
#
#
#
# Elastic Constant Matrix: (Units=GPa)
#
#
# Indices 1 2 3 4 5 6 
#
# 1 103.0889 50.0384 38.2108 0.0000 0.0000 0.0000
# 2 50.0384 138.4130 44.1630 0.0000 0.0000 0.0000
# 3 38.2108 44.1630 86.9561 0.0000 0.0000 0.0000
# 4 0.0000 0.0000 0.0000 12.6585 0.0000 0.0000
# 5 0.0000 0.0000 0.0000 0.0000 27.1260 0.0000
# 6 0.0000 0.0000 0.0000 0.0000 0.0000 36.8754
#
#
#
# Elastic Compliance Matrix: (Units=1/GPa)
#
#
# Indices 1 2 3 4 5 6 
#
# 1 0.012786 -0.003377 -0.003904 0.000000 0.000000 0.000000
# 2 -0.003377 0.009514 -0.003348 0.000000 0.000000 0.000000
# 3 -0.003904 -0.003348 0.014916 0.000000 0.000000 0.000000
# 4 0.000000 0.000000 0.000000 0.078998 0.000000 0.000000
# 5 0.000000 0.000000 0.000000 0.000000 0.036865 0.000000
# 6 0.000000 0.000000 0.000000 0.000000 0.000000 0.027118
#
#
# Mechanical properties :
#
#
# Convention : Reuss Voigt Hill
#
# Bulk Modulus (GPa) = 62.66066 65.92026 64.29046
# Shear Modulus (GPa) = 24.18097 28.40169 26.29133
#
# Velocity S-wave (km/s) = 3.29425 3.57020 3.43500
# Velocity P-wave (km/s) = 6.52616 6.82490 6.67720
#
# Compressibility (1/GPa) = 0.01595898
#
# Stress axis : x y z
#
# Youngs Moduli (GPa) = 78.20797 105.11066 67.04330
#
# Poissons Ratio (x) = 0.35496 0.26171
# Poissons Ratio (y) = 0.26411 0.22445
# Poissons Ratio (z) = 0.30529 0.35190
#
# Static dielectric constant tensor:
#      x y z
#    x 1.816020 0.000000 0.000000 
#    y 0.000000 1.919920 0.000000 
#    z 0.000000 0.000000 1.949410 
# 
# From -- ./inp_files/13413.got.cif
#   From: 2010.05.17/outbox.cif.g08.bks.cpg/sg22_7_cif.got.tgz:13413.got - 2010.06.03 23:40:54.
