data_PCOD9329068
_publ_section_title
;
Structure prediction by ZEFSAII (Michael W. Deem and Ramdas Pophale) SiO2 
 PCOD9329068
Probable space group: F 2 2 2
;
_chemical_formula_sum "Si O2"
_cell_formula_units_Z 84
_cell_length_a 20.531412
_cell_length_b 11.849534
_cell_length_c 15.653993
_cell_angle_alpha 90.000000
_cell_angle_beta 90.000000
_cell_angle_gamma 90.000000
_cell_volume 3808.423398
_symmetry_space_group_name_H-M "F 2 2 2"
_symmetry_group_IT_number 22
_symmetry_cell_setting 'orthorhombic'
loop_
_space_group_symop_operation_xyz
x,y,z
-x,-y,z
x,-y,-z
-x,y,-z
x,1/2+y,1/2+z
-x,1/2-y,1/2+z
x,1/2-y,1/2-z
-x,1/2+y,1/2-z
1/2+x,y,1/2+z
1/2-x,-y,1/2+z
1/2+x,-y,1/2-z
1/2-x,y,1/2-z
1/2+x,1/2+y,z
1/2-x,1/2-y,z
1/2+x,1/2-y,-z
1/2-x,1/2+y,-z
loop_
_atom_site_type_symbol
_atom_site_label
_atom_site_fract_x
_atom_site_fract_y
_atom_site_fract_z
Si Si1 0.678027 0.940716 0.284587
Si Si2 0.960033 0.148622 0.408736
Si Si3 0.321645 0.210275 0.451487
Si Si4 0.904915 0.902751 0.376893
Si Si5 0.750000 0.750000 0.750000
Si Si6 0.362389 0.151523 0.628677
O O1 0.750000 0.978008 0.250000
O O2 0.685001 0.853093 0.361646
O O3 0.643666 0.894788 0.201430
O O4 0.628749 0.034929 0.322161
O O5 0.918276 0.254341 0.377263
O O6 0.000000 0.154963 0.500000
O O7 0.023461 0.136789 0.349272
O O8 0.917302 0.033316 0.404852
O O9 0.250000 0.250000 0.475726
O O10 0.370632 0.317165 0.443996
O O11 0.345045 0.133064 0.529500
O O12 0.699188 0.803681 0.682549
#
# Coordination Sequence:
#
# PCOD9329068 Si02
#       6
#    16  16  16  16   4  16
#     4  12  26  48  74 112 157 199 255 324 395 468
#     4  11  25  50  78 107 148 206 264 319 388 471
#     4  12  25  45  78 107 148 202 256 316 389 465
#     4  11  24  47  78 109 147 201 260 322 382 474
#     4  12  24  44  72 108 152 184 254 320 392 458
#     4  12  26  47  73 113 150 198 250 327 393 461
#
# _framework density 22.056370000000001
#
# number of rings (size 3 to 8) (size 9 to 14) (size 15 to 20)
#    0.000    0.381    5.714    3.429    0.000    0.000 
#   20.571    0.000    0.000    0.000    0.000    0.000 
#    0.000    0.000    0.000    0.000    0.000    0.000 
#
# Total GULP energy -117102.340086 kJ/mol
# GULP energy per Si atom -5576.301909 kJ/mol
# Density = 2.200617 g / cm^3
# Si number density = 22.056370 Si / 1000 Ang^3
#
#
#
# Elastic Constant Matrix: (Units=GPa)
#
#
# Indices 1 2 3 4 5 6 
#
# 1 80.7033 30.2110 16.7093 0.0000 0.0000 0.0000
# 2 30.2110 91.5469 19.6171 0.0000 0.0000 0.0000
# 3 16.7093 19.6171 107.7753 0.0000 0.0000 0.0000
# 4 0.0000 0.0000 0.0000 45.3693 0.0000 0.0000
# 5 0.0000 0.0000 0.0000 0.0000 25.5055 0.0000
# 6 0.0000 0.0000 0.0000 0.0000 0.0000 31.5699
#
#
#
# Elastic Compliance Matrix: (Units=1/GPa)
#
#
# Indices 1 2 3 4 5 6 
#
# 1 0.014343 -0.004429 -0.001417 0.000000 0.000000 0.000000
# 2 -0.004429 0.012735 -0.001631 0.000000 0.000000 0.000000
# 3 -0.001417 -0.001631 0.009795 0.000000 0.000000 0.000000
# 4 0.000000 0.000000 0.000000 0.022041 0.000000 0.000000
# 5 0.000000 0.000000 0.000000 0.000000 0.039207 0.000000
# 6 0.000000 0.000000 0.000000 0.000000 0.000000 0.031676
#
#
# Mechanical properties :
#
#
# Convention : Reuss Voigt Hill
#
# Bulk Modulus (GPa) = 45.62788 45.90002 45.76395
# Shear Modulus (GPa) = 32.88210 34.72149 33.80179
#
# Velocity S-wave (km/s) = 3.86530 3.97194 3.91899
# Velocity P-wave (km/s) = 6.37594 6.47230 6.42430
#
# Compressibility (1/GPa) = 0.02191642
#
# Stress axis : x y z
#
# Youngs Moduli (GPa) = 69.72193 78.52591 102.09055
#
# Poissons Ratio (x) = 0.34783 0.14471
# Poissons Ratio (y) = 0.30883 0.16653
# Poissons Ratio (z) = 0.09883 0.12809
#
# Static dielectric constant tensor:
#      x y z
#    x 1.780470 0.000000 0.000000 
#    y 0.000000 1.875730 0.000000 
#    z 0.000000 0.000000 1.826410 
# 
# From -- ./inp_files/38729.got.cif
#   From: 2010.05.17/outbox.cif.g08.bks.cpg/sg22_20_cif.got.tgz:38729.got - 2010.06.03 23:40:54.
