data_PCOD9329561
_publ_section_title
;
Structure prediction by ZEFSAII (Michael W. Deem and Ramdas Pophale) SiO2 
 PCOD9329561
Probable space group: I 2 2 2
;
_chemical_formula_sum "Si O2"
_cell_formula_units_Z 46
_cell_length_a 16.324890
_cell_length_b 26.829334
_cell_length_c 5.578168
_cell_angle_alpha 90.000000
_cell_angle_beta 90.000000
_cell_angle_gamma 90.000000
_cell_volume 2443.159079
_symmetry_space_group_name_H-M "I 2 2 2"
_symmetry_group_IT_number 23
_symmetry_cell_setting 'orthorhombic'
loop_
_space_group_symop_operation_xyz
x,y,z
-x,-y,z
x,-y,-z
-x,y,-z
1/2+x,1/2+y,1/2+z
1/2-x,1/2-y,1/2+z
1/2+x,1/2-y,1/2-z
1/2-x,1/2+y,1/2-z
loop_
_atom_site_type_symbol
_atom_site_label
_atom_site_fract_x
_atom_site_fract_y
_atom_site_fract_z
Si Si1 0.774534 0.662945 0.269854
Si Si2 0.357688 0.730437 0.222603
Si Si3 0.000000 0.123243 0.500000
Si Si4 0.589824 0.696979 0.281545
Si Si5 0.742746 0.131464 0.734412
Si Si6 0.000000 0.000000 0.000000
Si Si7 0.630398 0.548886 0.848153
O O1 0.803302 0.720130 0.260697
O O2 0.675104 0.665240 0.286014
O O3 0.805191 0.639004 0.517987
O O4 0.799126 0.634748 0.026273
O O5 0.408375 0.727151 0.470768
O O6 0.301850 0.680550 0.222153
O O7 0.401715 0.729478 0.963187
O O8 0.015001 0.159387 0.725939
O O9 0.078907 0.088656 0.500482
O O10 0.794448 0.080541 0.751605
O O11 0.061954 0.032457 0.157257
O O12 0.653020 0.500000 0.000000
#
# Coordination Sequence:
#
# PCOD9329561 Si02
#       7
#     8   8   4   8   8   2   8
#     4  10  18  33  51  70  88 111 148 209 273 307
#     4  10  18  32  50  71  89 111 150 206 270 306
#     4  12  21  38  44  68  98 134 178 210 267 296
#     4  10  20  29  48  68  93 118 151 203 251 305
#     4  10  20  32  49  68  87 113 154 209 265 298
#     4  12  26  32  56  54  88 140 182 228 262 294
#     4  12  25  37  46  66  91 136 182 224 260 299
#
# _framework density 18.828082999999999
#
# number of rings (size 3 to 8) (size 9 to 14) (size 15 to 20)
#    0.000    1.391    5.217    5.217    7.304    0.696 
#    0.000    0.000    0.000    0.000    0.000    0.000 
#    0.000    0.000    0.000    0.000    0.000    0.000 
#
# Total GULP energy -128205.834971 kJ/mol
# GULP energy per Si atom -5574.166738 kJ/mol
# Density = 1.878523 g / cm^3
# Si number density = 18.828083 Si / 1000 Ang^3
#
#
#
# Elastic Constant Matrix: (Units=GPa)
#
#
# Indices 1 2 3 4 5 6 
#
# 1 11.9768 22.6112 6.5434 0.0000 0.0005 0.0001
# 2 22.6112 104.0793 45.4959 -0.0003 0.0002 -0.0006
# 3 6.5434 45.4959 173.0796 0.0040 0.0055 0.0036
# 4 0.0000 -0.0003 0.0040 3.7321 0.0025 0.0004
# 5 0.0005 0.0002 0.0055 0.0025 6.2709 0.0002
# 6 0.0001 -0.0006 0.0036 0.0004 0.0002 -4.3687
#
#
#
# Elastic Compliance Matrix: (Units=1/GPa)
#
#
# Indices 1 2 3 4 5 6 
#
# 1 0.143026 -0.032436 0.003119 -0.000006 -0.000012 0.000011
# 2 -0.032436 0.018211 -0.003561 0.000005 0.000005 -0.000006
# 3 0.003119 -0.003561 0.006596 -0.000007 -0.000006 0.000006
# 4 -0.000006 0.000005 -0.000007 0.267947 -0.000105 0.000025
# 5 -0.000012 0.000005 -0.000006 -0.000105 0.159467 0.000006
# 6 0.000011 -0.000006 0.000006 0.000025 0.000006 -0.228902
#
#
# Mechanical properties :
#
#
# Convention : Reuss Voigt Hill
#
# Bulk Modulus (GPa) = 9.79646 48.71518 29.25582
# Shear Modulus (GPa) = 10.72672 15.42588 13.07630
#
# Velocity S-wave (km/s) = 2.38947 2.86545 2.63822
# Velocity P-wave (km/s) = 3.58150 6.07269 4.98521
#
# Compressibility (1/GPa) = 0.10207773
#
# Stress axis : x y z
#
# Youngs Moduli (GPa) = 6.99175 54.91137 151.61249
#
# Poissons Ratio (x) = 1.78108 -0.47286
# Poissons Ratio (y) = 0.22678 0.53986
# Poissons Ratio (z) = -0.02181 0.19553
#
# Static dielectric constant tensor:
#      x y z
#    x 1.693760 0.000000 0.000000 
#    y 0.000000 1.767210 0.000000 
#    z 0.000000 0.000000 1.838740 
# 
# From -- ./inp_files/3398.got.cif
#   From: 2010.05.17/outbox.cif.g08.bks.cpg/sg23_2_cif.got.tgz:3398.got - 2010.06.04 12:02:01.
