data_PCOD9329868
_publ_section_title
;
Structure prediction by ZEFSAII (Michael W. Deem and Ramdas Pophale) SiO2 
 PCOD9329868
Probable space group: I 2 2 2
;
_chemical_formula_sum "Si O2"
_cell_formula_units_Z 26
_cell_length_a 14.682867
_cell_length_b 7.562324
_cell_length_c 9.482277
_cell_angle_alpha 90.000000
_cell_angle_beta 90.000000
_cell_angle_gamma 90.000000
_cell_volume 1052.879775
_symmetry_space_group_name_H-M "I 2 2 2"
_symmetry_group_IT_number 23
_symmetry_cell_setting 'orthorhombic'
loop_
_space_group_symop_operation_xyz
x,y,z
-x,-y,z
x,-y,-z
-x,y,-z
1/2+x,1/2+y,1/2+z
1/2-x,1/2-y,1/2+z
1/2+x,1/2-y,1/2-z
1/2-x,1/2+y,1/2-z
loop_
_atom_site_type_symbol
_atom_site_label
_atom_site_fract_x
_atom_site_fract_y
_atom_site_fract_z
Si Si1 0.000000 0.000000 0.500000
Si Si2 0.670246 0.962595 0.335843
Si Si3 0.684698 0.402890 0.630772
Si Si4 0.884274 0.326773 0.594131
O O1 0.064724 0.856757 0.576123
O O2 0.633684 0.764934 0.306855
O O3 0.671728 0.000000 0.500000
O O4 0.767223 0.982736 0.252362
O O5 0.610521 0.106734 0.254473
O O6 0.638667 0.500000 0.500000
O O7 0.775875 0.312880 0.560173
O O8 0.909580 0.500000 0.500000
#
# Coordination Sequence:
#
# PCOD9329868 Si02
#       4
#     2   8   8   8
#     4  12  22  44  72  84 128 188 242 264 296 386
#     4  10  19  33  58  95 137 160 205 270 335 394
#     4   9  19  33  54  94 134 170 201 259 338 399
#     4   9  23  38  62  95 123 173 227 268 315 385
#
# _framework density 24.694177
#
# number of rings (size 3 to 8) (size 9 to 14) (size 15 to 20)
#    1.846    0.615    0.000    2.308    2.154    0.000 
#    0.000    0.000    0.000    5.538    0.000    0.000 
#    0.000    0.000    0.000    0.000    0.000    0.000 
#
# Total GULP energy -72420.378951 kJ/mol
# GULP energy per Si atom -5570.798381 kJ/mol
# Density = 2.463797 g / cm^3
# Si number density = 24.694177 Si / 1000 Ang^3
#
#
#
# Elastic Constant Matrix: (Units=GPa)
#
#
# Indices 1 2 3 4 5 6 
#
# 1 43.2280 11.8722 -2.7594 0.0000 0.0000 0.0000
# 2 11.8722 205.0837 76.4460 0.0000 0.0000 0.0000
# 3 -2.7594 76.4460 177.8951 0.0000 0.0000 0.0000
# 4 0.0000 0.0000 0.0000 51.3752 0.0000 0.0000
# 5 0.0000 0.0000 0.0000 0.0000 10.8200 0.0000
# 6 0.0000 0.0000 0.0000 0.0000 0.0000 27.9326
#
#
#
# Elastic Compliance Matrix: (Units=1/GPa)
#
#
# Indices 1 2 3 4 5 6 
#
# 1 0.023699 -0.001797 0.001140 0.000000 0.000000 0.000000
# 2 -0.001797 0.005942 -0.002581 0.000000 0.000000 0.000000
# 3 0.001140 -0.002581 0.006748 0.000000 0.000000 0.000000
# 4 0.000000 0.000000 0.000000 0.019465 0.000000 0.000000
# 5 0.000000 0.000000 0.000000 0.000000 0.092422 0.000000
# 6 0.000000 0.000000 0.000000 0.000000 0.000000 0.035800
#
#
# Mechanical properties :
#
#
# Convention : Reuss Voigt Hill
#
# Bulk Modulus (GPa) = 33.43029 66.36936 49.89982
# Shear Modulus (GPa) = 24.93459 40.73543 32.83501
#
# Velocity S-wave (km/s) = 3.18108 4.06593 3.65041
# Velocity P-wave (km/s) = 5.20187 6.99837 6.16590
#
# Compressibility (1/GPa) = 0.02991299
#
# Stress axis : x y z
#
# Youngs Moduli (GPa) = 42.19523 168.28457 148.18599
#
# Poissons Ratio (x) = 0.30237 -0.16889
# Poissons Ratio (y) = 0.07582 0.38253
# Poissons Ratio (z) = -0.04809 0.43442
#
# Static dielectric constant tensor:
#      x y z
#    x 2.082630 0.000000 0.000000 
#    y 0.000000 2.002890 0.000000 
#    z 0.000000 0.000000 2.029410 
# 
# From -- ./inp_files/17106.got.cif
#   From: 2010.05.17/outbox.cif.g08.bks.cpg/sg23_9_cif.got.tgz:17106.got - 2010.06.04 12:02:01.
