data_PCOD9329468
_publ_section_title
;
Structure prediction by ZEFSAII (Michael W. Deem and Ramdas Pophale) SiO2 
 PCOD9329468
Probable space group: I 2 2 2
;
_chemical_formula_sum "Si O2"
_cell_formula_units_Z 56
_cell_length_a 12.243208
_cell_length_b 11.271328
_cell_length_c 22.169751
_cell_angle_alpha 90.000000
_cell_angle_beta 90.000000
_cell_angle_gamma 90.000000
_cell_volume 3059.363854
_symmetry_space_group_name_H-M "I 2 2 2"
_symmetry_group_IT_number 23
_symmetry_cell_setting 'orthorhombic'
loop_
_space_group_symop_operation_xyz
x,y,z
-x,-y,z
x,-y,-z
-x,y,-z
1/2+x,1/2+y,1/2+z
1/2-x,1/2-y,1/2+z
1/2+x,1/2-y,1/2-z
1/2-x,1/2+y,1/2-z
loop_
_atom_site_type_symbol
_atom_site_label
_atom_site_fract_x
_atom_site_fract_y
_atom_site_fract_z
Si Si1 0.790509 0.134070 0.984136
Si Si2 0.088262 0.327952 0.874017
Si Si3 0.000000 0.500000 0.217959
Si Si4 0.500000 0.199644 0.500000
Si Si5 0.042876 0.868227 0.801358
Si Si6 0.004383 0.296374 0.305148
Si Si7 0.696126 0.823105 0.890678
Si Si8 0.222695 0.405467 0.649887
O O1 0.740505 0.141182 0.918033
O O2 0.704180 0.162821 0.037129
O O3 0.895435 0.217873 0.986550
O O4 0.827342 0.000000 0.000000
O O5 0.207183 0.269023 0.876518
O O6 0.083776 0.433676 0.826030
O O7 0.009660 0.223463 0.848897
O O8 0.040133 0.364836 0.939084
O O9 0.050828 0.398798 0.260191
O O10 0.172967 0.871163 0.810028
O O11 0.005443 0.820408 0.736032
O O12 0.000000 0.000000 0.813222
O O13 0.886648 0.348069 0.323244
O O14 0.081648 0.283694 0.362731
O O15 0.718734 0.952082 0.860494
#
# Coordination Sequence:
#
# PCOD9329468 Si02
#       8
#     8   8   4   4   8   8   8   8
#     4   9  19  30  55  83 115 146 183 243 292 349
#     4  10  21  36  59  82 115 150 188 242 293 344
#     4  10  22  39  52  83 114 160 194 234 286 340
#     4  10  17  33  54  88 110 142 193 235 298 338
#     4  11  23  37  57  85 113 150 195 243 289 345
#     4  11  24  38  57  82 119 159 195 238 283 356
#     4  10  20  36  58  85 116 150 191 239 298 347
#     4  11  20  37  57  86 119 153 191 237 298 343
#
# _framework density 18.304459999999999
#
# number of rings (size 3 to 8) (size 9 to 14) (size 15 to 20)
#    0.000    1.714    4.286    0.214    4.000    0.857 
#    0.000    2.143    0.000    0.000    0.000    1.000 
#    0.000    0.000    0.000    0.000    0.000    0.000 
#
# Total GULP energy -156131.214141 kJ/mol
# GULP energy per Si atom -5576.114791 kJ/mol
# Density = 1.826280 g / cm^3
# Si number density = 18.304460 Si / 1000 Ang^3
#
#
#
# Elastic Constant Matrix: (Units=GPa)
#
#
# Indices 1 2 3 4 5 6 
#
# 1 111.7567 26.2217 43.4085 0.0000 0.0000 0.0000
# 2 26.2217 46.3629 21.4571 0.0000 0.0000 0.0000
# 3 43.4085 21.4571 89.6360 0.0000 0.0000 0.0000
# 4 0.0000 0.0000 0.0000 26.5648 0.0000 0.0000
# 5 0.0000 0.0000 0.0000 0.0000 24.0638 0.0000
# 6 0.0000 0.0000 0.0000 0.0000 0.0000 17.4815
#
#
#
# Elastic Compliance Matrix: (Units=1/GPa)
#
#
# Indices 1 2 3 4 5 6 
#
# 1 0.011812 -0.004536 -0.004635 0.000000 0.000000 0.000000
# 2 -0.004536 0.025998 -0.004027 0.000000 0.000000 0.000000
# 3 -0.004635 -0.004027 0.014365 0.000000 0.000000 0.000000
# 4 0.000000 0.000000 0.000000 0.037644 0.000000 0.000000
# 5 0.000000 0.000000 0.000000 0.000000 0.041556 0.000000
# 6 0.000000 0.000000 0.000000 0.000000 0.000000 0.057203
#
#
# Mechanical properties :
#
#
# Convention : Reuss Voigt Hill
#
# Bulk Modulus (GPa) = 38.78921 47.77002 43.27961
# Shear Modulus (GPa) = 22.36470 24.06657 23.21563
#
# Velocity S-wave (km/s) = 3.49924 3.62994 3.56519
# Velocity P-wave (km/s) = 6.12890 6.61232 6.37519
#
# Compressibility (1/GPa) = 0.02578037
#
# Stress axis : x y z
#
# Youngs Moduli (GPa) = 84.65626 38.46456 69.61542
#
# Poissons Ratio (x) = 0.17447 0.32265
# Poissons Ratio (y) = 0.38399 0.28033
# Poissons Ratio (z) = 0.39236 0.15489
#
# Static dielectric constant tensor:
#      x y z
#    x 1.600880 0.000000 0.000000 
#    y 0.000000 1.643340 0.000000 
#    z 0.000000 0.000000 1.664450 
# 
# From -- ./inp_files/28394.got.cif
#   From: 2010.05.17/outbox.cif.g08.bks.cpg/sg23_15_cif.got.tgz:28394.got - 2010.06.04 12:02:01.
