data_PCOD9329934
_publ_section_title
;
Structure prediction by ZEFSAII (Michael W. Deem and Ramdas Pophale) SiO2 
 PCOD9329934
Probable space group: I 2 2 2
;
_chemical_formula_sum "Si O2"
_cell_formula_units_Z 64
_cell_length_a 19.602764
_cell_length_b 7.688318
_cell_length_c 22.470249
_cell_angle_alpha 90.000000
_cell_angle_beta 90.000000
_cell_angle_gamma 90.000000
_cell_volume 3386.542533
_symmetry_space_group_name_H-M "I 2 2 2"
_symmetry_group_IT_number 23
_symmetry_cell_setting 'orthorhombic'
loop_
_space_group_symop_operation_xyz
x,y,z
-x,-y,z
x,-y,-z
-x,y,-z
1/2+x,1/2+y,1/2+z
1/2-x,1/2-y,1/2+z
1/2+x,1/2-y,1/2-z
1/2-x,1/2+y,1/2-z
loop_
_atom_site_type_symbol
_atom_site_label
_atom_site_fract_x
_atom_site_fract_y
_atom_site_fract_z
Si Si1 0.156577 0.346147 0.725657
Si Si2 0.393116 0.385952 0.566226
Si Si3 0.266932 0.859992 0.653594
Si Si4 0.362707 0.737125 0.220845
Si Si5 0.989658 0.709100 0.749787
Si Si6 0.149535 0.335686 0.957679
Si Si7 0.712286 0.730245 0.659379
Si Si8 0.970127 0.764588 0.889813
O O1 0.191538 0.289282 0.788518
O O2 0.145847 0.553784 0.725413
O O3 0.083581 0.254842 0.720540
O O4 0.209901 0.313450 0.673451
O O5 0.369596 0.325911 0.500497
O O6 0.326226 0.353887 0.604878
O O7 0.430659 0.556898 0.593145
O O8 0.457404 0.256772 0.577946
O O9 0.187521 0.831596 0.669473
O O10 0.291574 0.789954 0.589961
O O11 0.287426 0.062400 0.652017
O O12 0.443509 0.703558 0.221362
O O13 0.330466 0.671452 0.282679
O O14 0.982874 0.752521 0.819686
O O15 0.000000 0.500000 0.746628
O O16 0.083687 0.372991 0.915919
O O17 0.165423 0.500000 0.000000
#
# Coordination Sequence:
#
# PCOD9329934 Si02
#       8
#     8   8   8   8   8   8   8   8
#     4   9  19  33  56  80 110 145 188 242 297 353
#     4  11  24  39  52  80 116 155 199 236 281 339
#     4  10  20  36  53  81 109 151 199 241 286 339
#     4   9  19  34  56  80 110 144 190 238 296 348
#     4  10  19  35  59  87 115 152 193 236 303 365
#     4  12  24  38  58  78 111 162 204 238 276 338
#     4  10  19  35  53  78 110 147 192 242 288 348
#     4  11  24  38  54  78 117 157 193 236 278 341
#
# _framework density 18.898332
#
# number of rings (size 3 to 8) (size 9 to 14) (size 15 to 20)
#    0.000    1.750    3.750    0.750    3.500    3.500 
#    0.000    0.000    0.000    0.000    0.000    0.875 
#    0.000    3.000    0.000    0.000    0.000    0.000 
#
# Total GULP energy -178431.271254 kJ/mol
# GULP energy per Si atom -5575.977227 kJ/mol
# Density = 1.885532 g / cm^3
# Si number density = 18.898332 Si / 1000 Ang^3
#
#
#
# Elastic Constant Matrix: (Units=GPa)
#
#
# Indices 1 2 3 4 5 6 
#
# 1 160.7868 17.4698 64.2002 0.0000 0.0000 0.0000
# 2 17.4698 44.5665 -2.9024 0.0000 0.0000 0.0000
# 3 64.2002 -2.9024 65.7808 0.0000 0.0000 0.0000
# 4 0.0000 0.0000 0.0000 12.5860 0.0000 0.0000
# 5 0.0000 0.0000 0.0000 0.0000 26.6913 0.0000
# 6 0.0000 0.0000 0.0000 0.0000 0.0000 14.1848
#
#
#
# Elastic Compliance Matrix: (Units=1/GPa)
#
#
# Indices 1 2 3 4 5 6 
#
# 1 0.011254 -0.005142 -0.011211 0.000000 0.000000 0.000000
# 2 -0.005142 0.024852 0.006115 0.000000 0.000000 0.000000
# 3 -0.011211 0.006115 0.026413 0.000000 0.000000 0.000000
# 4 0.000000 0.000000 0.000000 0.079454 0.000000 0.000000
# 5 0.000000 0.000000 0.000000 0.000000 0.037465 0.000000
# 6 0.000000 0.000000 0.000000 0.000000 0.000000 0.070498
#
#
# Mechanical properties :
#
#
# Convention : Reuss Voigt Hill
#
# Bulk Modulus (GPa) = 23.78453 47.62992 35.70722
# Shear Modulus (GPa) = 17.57919 23.51685 20.54802
#
# Velocity S-wave (km/s) = 3.05322 3.53142 3.30099
# Velocity P-wave (km/s) = 5.00424 6.47192 5.78482
#
# Compressibility (1/GPa) = 0.04204414
#
# Stress axis : x y z
#
# Youngs Moduli (GPa) = 88.85369 40.23792 37.85971
#
# Poissons Ratio (x) = 0.20690 0.42444
# Poissons Ratio (y) = 0.45687 -0.23150
# Poissons Ratio (z) = 0.99613 -0.24605
#
# Static dielectric constant tensor:
#      x y z
#    x 1.678640 0.000000 0.000000 
#    y 0.000000 1.882410 0.000000 
#    z 0.000000 0.000000 1.683710 
# 
# From -- ./inp_files/27202.got.cif
#   From: 2010.05.17/outbox.cif.g08.bks.cpg/sg23_14_cif.got.tgz:27202.got - 2010.06.04 12:02:01.
