data_PCOD9329144
_publ_section_title
;
Structure prediction by ZEFSAII (Michael W. Deem and Ramdas Pophale) SiO2 
 PCOD9329144
Probable space group: F 2 2 2
;
_chemical_formula_sum "Si O2"
_cell_formula_units_Z 64
_cell_length_a 21.425727
_cell_length_b 16.139484
_cell_length_c 7.801255
_cell_angle_alpha 90.000000
_cell_angle_beta 90.000000
_cell_angle_gamma 90.000000
_cell_volume 2697.675368
_symmetry_space_group_name_H-M "F 2 2 2"
_symmetry_group_IT_number 22
_symmetry_cell_setting 'orthorhombic'
loop_
_space_group_symop_operation_xyz
x,y,z
-x,-y,z
x,-y,-z
-x,y,-z
x,1/2+y,1/2+z
-x,1/2-y,1/2+z
x,1/2-y,1/2-z
-x,1/2+y,1/2-z
1/2+x,y,1/2+z
1/2-x,-y,1/2+z
1/2+x,-y,1/2-z
1/2-x,y,1/2-z
1/2+x,1/2+y,z
1/2-x,1/2-y,z
1/2+x,1/2-y,-z
1/2-x,1/2+y,-z
loop_
_atom_site_type_symbol
_atom_site_label
_atom_site_fract_x
_atom_site_fract_y
_atom_site_fract_z
Si Si1 0.944581 0.936001 0.277031
Si Si2 0.385761 0.687523 0.451393
Si Si3 0.150551 0.000000 0.000000
Si Si4 0.809528 0.334908 0.374481
Si Si5 0.000000 0.191173 0.000000
O O1 0.906105 0.887354 0.424700
O O2 0.976294 0.866517 0.154690
O O3 0.000000 0.000000 0.323448
O O4 0.894874 0.983546 0.159561
O O5 0.365590 0.656373 0.264642
O O6 0.328711 0.753945 0.486568
O O7 0.444732 0.747381 0.451642
O O8 0.191655 0.081935 0.981351
O O9 0.750000 0.331310 0.250000
#
# Coordination Sequence:
#
# PCOD9329144 Si02
#       5
#    16  16   8  16   8
#     4  12  24  45  72 114 164 200 251 324 414 491
#     4  11  26  44  76 109 146 214 260 323 403 480
#     4  12  25  46  74 108 152 209 258 336 404 468
#     4  11  27  54  75 104 157 211 279 339 386 470
#     4  12  23  42  71 110 158 196 248 324 399 495
#
# _framework density 23.724129000000001
#
# number of rings (size 3 to 8) (size 9 to 14) (size 15 to 20)
#    0.000    0.500    5.000    2.250   10.500    3.000 
#    0.000    0.000    5.500    0.000    0.000    0.000 
#    0.000    0.000    0.000    0.000    0.000    0.000 
#
# Total GULP energy -89397.850301 kJ/mol
# GULP energy per Si atom -5587.365644 kJ/mol
# Density = 2.367013 g / cm^3
# Si number density = 23.724129 Si / 1000 Ang^3
#
#
#
# Elastic Constant Matrix: (Units=GPa)
#
#
# Indices 1 2 3 4 5 6 
#
# 1 122.7164 37.8213 25.2269 0.0000 0.0000 0.0000
# 2 37.8213 159.7542 40.4186 0.0000 0.0000 0.0000
# 3 25.2269 40.4186 89.3370 -0.0003 0.0001 0.0000
# 4 0.0000 0.0000 -0.0003 51.1972 0.0000 0.0000
# 5 0.0000 0.0000 0.0001 0.0000 36.2486 0.0000
# 6 0.0000 0.0000 0.0000 0.0000 0.0000 23.1169
#
#
#
# Elastic Compliance Matrix: (Units=1/GPa)
#
#
# Indices 1 2 3 4 5 6 
#
# 1 0.009036 -0.001687 -0.001789 0.000000 0.000000 0.000000
# 2 -0.001687 0.007384 -0.002864 0.000000 0.000000 0.000000
# 3 -0.001789 -0.002864 0.012994 0.000000 0.000000 0.000000
# 4 0.000000 0.000000 0.000000 0.019532 0.000000 0.000000
# 5 0.000000 0.000000 0.000000 0.000000 0.027587 0.000000
# 6 0.000000 0.000000 0.000000 0.000000 0.000000 0.043258
#
#
# Mechanical properties :
#
#
# Convention : Reuss Voigt Hill
#
# Bulk Modulus (GPa) = 59.75380 64.30456 62.02918
# Shear Modulus (GPa) = 36.21870 40.00191 38.11030
#
# Velocity S-wave (km/s) = 3.91149 4.11070 4.01233
# Velocity P-wave (km/s) = 6.75583 7.04943 6.90419
#
# Compressibility (1/GPa) = 0.01673534
#
# Stress axis : x y z
#
# Youngs Moduli (GPa) = 110.66328 135.43455 76.95575
#
# Poissons Ratio (x) = 0.22846 0.13764
# Poissons Ratio (y) = 0.18667 0.22042
# Poissons Ratio (z) = 0.19792 0.38792
#
# Static dielectric constant tensor:
#      x y z
#    x 1.993470 0.000000 0.000000 
#    y 0.000000 1.964840 0.000000 
#    z 0.000000 0.000000 1.922490 
# 
# From -- ./inp_files/12254.got.cif
#   From: 2010.05.17/outbox.cif.g08.bks.cpg/sg22_7_cif.got.tgz:12254.got - 2010.06.03 23:40:54.
