data_PCOD9329247
_publ_section_title
;
Structure prediction by ZEFSAII (Michael W. Deem and Ramdas Pophale) SiO2 
 PCOD9329247
Probable space group: F 2 2 2
;
_chemical_formula_sum "Si O2"
_cell_formula_units_Z 56
_cell_length_a 31.227250
_cell_length_b 14.174077
_cell_length_c 5.324782
_cell_angle_alpha 90.000000
_cell_angle_beta 90.000000
_cell_angle_gamma 90.000000
_cell_volume 2356.841409
_symmetry_space_group_name_H-M "F 2 2 2"
_symmetry_group_IT_number 22
_symmetry_cell_setting 'orthorhombic'
loop_
_space_group_symop_operation_xyz
x,y,z
-x,-y,z
x,-y,-z
-x,y,-z
x,1/2+y,1/2+z
-x,1/2-y,1/2+z
x,1/2-y,1/2-z
-x,1/2+y,1/2-z
1/2+x,y,1/2+z
1/2-x,-y,1/2+z
1/2+x,-y,1/2-z
1/2-x,y,1/2-z
1/2+x,1/2+y,z
1/2-x,1/2-y,z
1/2+x,1/2-y,-z
1/2-x,1/2+y,-z
loop_
_atom_site_type_symbol
_atom_site_label
_atom_site_fract_x
_atom_site_fract_y
_atom_site_fract_z
Si Si1 0.166637 0.102969 0.125873
Si Si2 0.500000 0.188860 0.000000
Si Si3 0.722533 0.000000 0.000000
Si Si4 0.153546 0.250000 0.750000
Si Si5 0.093220 0.109436 0.445911
O O1 0.117062 0.126527 0.183137
O O2 0.193484 0.083916 0.381958
O O3 0.180693 0.189384 0.951732
O O4 0.167786 0.000000 0.000000
O O5 0.506891 0.250000 0.250000
O O6 0.543398 0.131280 0.954338
O O7 0.750000 0.972513 0.750000
O O8 0.121192 0.174436 0.627099
O O9 0.100143 0.000000 0.500000
#
# Coordination Sequence:
#
# PCOD9329247 Si02
#       5
#    16   8   8   8  16
#     4  12  24  48  83 125 159 213 276 332 422 490
#     4  12  27  48  71 114 166 214 275 342 395 466
#     4  12  26  50  88 127 162 215 272 344 420 510
#     4  12  24  46  80 117 162 210 270 334 401 490
#     4  12  25  46  76 118 159 217 271 335 401 479
#
# _framework density 23.760614
#
# number of rings (size 3 to 8) (size 9 to 14) (size 15 to 20)
#    0.000    0.000    7.143    3.000    0.000    0.000 
#    0.000    1.429    0.000   24.000    0.000    0.000 
#    0.000    0.000    0.000    0.000    0.000    0.000 
#
# Total GULP energy -78256.812483 kJ/mol
# GULP energy per Si atom -5589.772320 kJ/mol
# Density = 2.370653 g / cm^3
# Si number density = 23.760614 Si / 1000 Ang^3
#
#
#
# Elastic Constant Matrix: (Units=GPa)
#
#
# Indices 1 2 3 4 5 6 
#
# 1 134.8724 46.1537 61.6348 0.0000 0.0000 0.0000
# 2 46.1537 169.4809 79.9819 -0.0001 0.0000 0.0000
# 3 61.6348 79.9819 160.5777 -0.0002 -0.0002 -0.0001
# 4 0.0000 -0.0001 -0.0002 57.4312 -0.0001 -0.0001
# 5 0.0000 0.0000 -0.0002 -0.0001 30.4226 0.0000
# 6 0.0000 0.0000 -0.0001 -0.0001 0.0000 24.3510
#
#
#
# Elastic Compliance Matrix: (Units=1/GPa)
#
#
# Indices 1 2 3 4 5 6 
#
# 1 0.009143 -0.001090 -0.002967 0.000000 0.000000 0.000000
# 2 -0.001090 0.007843 -0.003488 0.000000 0.000000 0.000000
# 3 -0.002967 -0.003488 0.009104 0.000000 0.000000 0.000000
# 4 0.000000 0.000000 0.000000 0.017412 0.000000 0.000000
# 5 0.000000 0.000000 0.000000 0.000000 0.032870 0.000000
# 6 0.000000 0.000000 0.000000 0.000000 0.000000 0.041066
#
#
# Mechanical properties :
#
#
# Convention : Reuss Voigt Hill
#
# Bulk Modulus (GPa) = 90.90461 93.38576 92.14519
# Shear Modulus (GPa) = 36.71201 40.91831 38.81516
#
# Velocity S-wave (km/s) = 3.93501 4.15433 4.04616
# Velocity P-wave (km/s) = 7.68032 7.89933 7.79059
#
# Compressibility (1/GPa) = 0.01100054
#
# Stress axis : x y z
#
# Youngs Moduli (GPa) = 109.37274 127.49535 109.84559
#
# Poissons Ratio (x) = 0.13896 0.32586
# Poissons Ratio (y) = 0.11920 0.38318
# Poissons Ratio (z) = 0.32446 0.44475
#
# Static dielectric constant tensor:
#      x y z
#    x 1.944260 0.000000 0.000000 
#    y 0.000000 1.904410 0.000000 
#    z 0.000000 0.000000 2.041200 
# 
# From -- ./inp_files/6015.got.cif
#   From: 2010.05.17/outbox.cif.g08.bks.cpg/sg22_4_cif.got.tgz:6015.got - 2010.06.03 23:40:54.
