data_PCOD9329823
_publ_section_title
;
Structure prediction by ZEFSAII (Michael W. Deem and Ramdas Pophale) SiO2 
 PCOD9329823
Probable space group: I 2 2 2
;
_chemical_formula_sum "Si O2"
_cell_formula_units_Z 58
_cell_length_a 31.123411
_cell_length_b 5.116673
_cell_length_c 18.741003
_cell_angle_alpha 90.000000
_cell_angle_beta 90.000000
_cell_angle_gamma 90.000000
_cell_volume 2984.473182
_symmetry_space_group_name_H-M "I 2 2 2"
_symmetry_group_IT_number 23
_symmetry_cell_setting 'orthorhombic'
loop_
_space_group_symop_operation_xyz
x,y,z
-x,-y,z
x,-y,-z
-x,y,-z
1/2+x,1/2+y,1/2+z
1/2-x,1/2-y,1/2+z
1/2+x,1/2-y,1/2-z
1/2-x,1/2+y,1/2-z
loop_
_atom_site_type_symbol
_atom_site_label
_atom_site_fract_x
_atom_site_fract_y
_atom_site_fract_z
Si Si1 0.193251 0.441279 0.259546
Si Si2 0.663623 0.756080 0.453046
Si Si3 0.452369 0.428363 0.294973
Si Si4 0.280295 0.436135 0.323619
Si Si5 0.434358 0.755959 0.549681
Si Si6 0.091889 0.577837 0.727817
Si Si7 0.548402 0.116782 0.075949
Si Si8 0.000000 0.000000 0.500000
O O1 0.228836 0.399570 0.321204
O O2 0.201509 0.738498 0.235875
O O3 0.143284 0.411929 0.273965
O O4 0.206265 0.230319 0.198053
O O5 0.657840 0.500000 0.500000
O O6 0.696845 0.670367 0.393437
O O7 0.615156 0.821038 0.427163
O O8 0.678610 0.000000 0.500000
O O9 0.500000 0.500000 0.267837
O O10 0.456908 0.324909 0.376552
O O11 0.425013 0.690974 0.280088
O O12 0.428187 0.193501 0.255269
O O13 0.435886 0.500000 0.500000
O O14 0.448751 0.000000 0.500000
O O15 0.075206 0.602489 0.646872
O O16 0.535642 0.408675 0.057421
O O17 0.500000 0.000000 0.084060
O O18 0.564996 0.000000 0.000000
#
# Coordination Sequence:
#
# PCOD9329823 Si02
#       8
#     8   8   8   8   8   8   8   2
#     4  10  21  37  61  85 112 159 190 244 299 353
#     4  10  19  32  55  85 111 146 188 238 286 338
#     4  12  26  41  60  91 122 161 203 258 316 350
#     4  10  20  38  59  84 119 149 200 236 294 368
#     4  10  21  38  60  82 115 157 202 241 292 365
#     4  12  24  39  63  90 125 152 205 260 305 361
#     4   9  20  36  58  84 113 158 199 236 298 359
#     4   8  18  36  60  78 108 156 200 228 294 356
#
# _framework density 19.433917000000001
#
# number of rings (size 3 to 8) (size 9 to 14) (size 15 to 20)
#    0.000    1.793    0.000    5.379    4.828    2.483 
#    0.000    1.379    1.517    0.000    0.000    0.000 
#    0.000    0.000    0.000    0.000    0.000    0.000 
#
# Total GULP energy -161513.354250 kJ/mol
# GULP energy per Si atom -5569.426009 kJ/mol
# Density = 1.938968 g / cm^3
# Si number density = 19.433917 Si / 1000 Ang^3
#
#
#
# Elastic Constant Matrix: (Units=GPa)
#
#
# Indices 1 2 3 4 5 6 
#
# 1 133.4034 18.2138 32.6108 0.0000 0.0000 0.0000
# 2 18.2138 83.2840 11.7425 0.0000 0.0000 0.0000
# 3 32.6108 11.7425 60.3611 0.0000 0.0000 0.0000
# 4 0.0000 0.0000 0.0000 34.5838 0.0000 0.0000
# 5 0.0000 0.0000 0.0000 0.0000 28.8221 0.0000
# 6 0.0000 0.0000 0.0000 0.0000 0.0000 17.3338
#
#
#
# Elastic Compliance Matrix: (Units=1/GPa)
#
#
# Indices 1 2 3 4 5 6 
#
# 1 0.008768 -0.001285 -0.004487 0.000000 0.000000 0.000000
# 2 -0.001285 0.012534 -0.001744 0.000000 0.000000 0.000000
# 3 -0.004487 -0.001744 0.019331 0.000000 0.000000 0.000000
# 4 0.000000 0.000000 0.000000 0.028915 0.000000 0.000000
# 5 0.000000 0.000000 0.000000 0.000000 0.034696 0.000000
# 6 0.000000 0.000000 0.000000 0.000000 0.000000 0.057691
#
#
# Mechanical properties :
#
#
# Convention : Reuss Voigt Hill
#
# Bulk Modulus (GPa) = 39.06200 44.68695 41.87448
# Shear Modulus (GPa) = 26.95408 30.44671 28.70040
#
# Velocity S-wave (km/s) = 3.72823 3.96242 3.84711
# Velocity P-wave (km/s) = 6.21904 6.63164 6.42865
#
# Compressibility (1/GPa) = 0.02560033
#
# Stress axis : x y z
#
# Youngs Moduli (GPa) = 114.04557 79.78280 51.73155
#
# Poissons Ratio (x) = 0.10252 0.23213
# Poissons Ratio (y) = 0.14654 0.09023
# Poissons Ratio (z) = 0.51175 0.13915
#
# Static dielectric constant tensor:
#      x y z
#    x 1.695310 0.000000 0.000000 
#    y 0.000000 2.335390 0.000000 
#    z 0.000000 0.000000 1.692580 
# 
# From -- ./inp_files/25443.got.cif
#   From: 2010.05.17/outbox.cif.g08.bks.cpg/sg23_13_cif.got.tgz:25443.got - 2010.06.04 12:02:01.
