data_PCOD9329389
_publ_section_title
;
Structure prediction by ZEFSAII (Michael W. Deem and Ramdas Pophale) SiO2 
 PCOD9329389
Probable space group: I 2 2 2
;
_chemical_formula_sum "Si O2"
_cell_formula_units_Z 44
_cell_length_a 8.978515
_cell_length_b 8.109757
_cell_length_c 30.756589
_cell_angle_alpha 90.000000
_cell_angle_beta 90.000000
_cell_angle_gamma 90.000000
_cell_volume 2239.497196
_symmetry_space_group_name_H-M "I 2 2 2"
_symmetry_group_IT_number 23
_symmetry_cell_setting 'orthorhombic'
loop_
_space_group_symop_operation_xyz
x,y,z
-x,-y,z
x,-y,-z
-x,y,-z
1/2+x,1/2+y,1/2+z
1/2-x,1/2-y,1/2+z
1/2+x,1/2-y,1/2-z
1/2-x,1/2+y,1/2-z
loop_
_atom_site_type_symbol
_atom_site_label
_atom_site_fract_x
_atom_site_fract_y
_atom_site_fract_z
Si Si1 0.732104 0.621343 0.289325
Si Si2 0.393265 0.255150 0.705841
Si Si3 0.129812 0.744478 0.434611
Si Si4 0.594247 0.655125 0.858750
Si Si5 0.853284 0.418419 0.886103
Si Si6 0.500000 0.500000 0.000000
Si Si7 0.000000 0.500000 0.500000
O O1 0.567214 0.702697 0.286413
O O2 0.698167 0.428133 0.297832
O O3 0.820059 0.650835 0.244590
O O4 0.831918 0.716048 0.325522
O O5 0.382052 0.151549 0.661866
O O6 0.289884 0.768589 0.413958
O O7 0.098360 0.893157 0.467690
O O8 0.012497 0.758915 0.394451
O O9 0.104445 0.593905 0.466144
O O10 0.500000 0.500000 0.838009
O O11 0.727180 0.558716 0.882754
O O12 0.000000 0.500000 0.904339
#
# Coordination Sequence:
#
# PCOD9329389 Si02
#       7
#     8   8   8   8   8   2   2
#     4  11  25  42  61  91 131 178 230 277 330 384
#     4  11  26  40  62  90 132 176 226 283 324 389
#     4  10  22  39  69  96 127 168 208 266 327 395
#     4  10  21  40  64  90 126 171 218 264 324 395
#     4  11  21  41  64  94 125 171 216 272 331 387
#     4  10  16  42  62  94 120 158 214 254 316 398
#     4  10  24  42  72 100 136 158 220 272 324 406
#
# _framework density 19.647265999999998
#
# number of rings (size 3 to 8) (size 9 to 14) (size 15 to 20)
#    0.000    1.455    4.545    1.091   10.182    0.000 
#    0.000    0.455    0.000    1.091    0.000    0.000 
#    0.000    0.000    0.000    0.000    0.000    0.000 
#
# Total GULP energy -122801.532363 kJ/mol
# GULP energy per Si atom -5581.887835 kJ/mol
# Density = 1.960255 g / cm^3
# Si number density = 19.647266 Si / 1000 Ang^3
#
#
#
# Elastic Constant Matrix: (Units=GPa)
#
#
# Indices 1 2 3 4 5 6 
#
# 1 107.1118 30.9692 32.9985 0.0000 0.0000 0.0000
# 2 30.9692 65.5642 27.3523 0.0000 0.0000 0.0000
# 3 32.9985 27.3523 92.3411 0.0000 0.0000 0.0000
# 4 0.0000 0.0000 0.0000 21.9906 0.0000 0.0000
# 5 0.0000 0.0000 0.0000 0.0000 -17.6370 0.0000
# 6 0.0000 0.0000 0.0000 0.0000 0.0000 32.5091
#
#
#
# Elastic Compliance Matrix: (Units=1/GPa)
#
#
# Indices 1 2 3 4 5 6 
#
# 1 0.011428 -0.004215 -0.002835 0.000000 0.000000 0.000000
# 2 -0.004215 0.018958 -0.004109 0.000000 0.000000 0.000000
# 3 -0.002835 -0.004109 0.013060 0.000000 0.000000 0.000000
# 4 0.000000 0.000000 0.000000 0.045474 0.000000 0.000000
# 5 0.000000 0.000000 0.000000 0.000000 -0.056699 0.000000
# 6 0.000000 0.000000 0.000000 0.000000 0.000000 0.030761
#
#
# Mechanical properties :
#
#
# Convention : Reuss Voigt Hill
#
# Bulk Modulus (GPa) = 47.33449 49.73969 48.53709
# Shear Modulus (GPa) = 54.14619 18.95236 36.54927
#
# Velocity S-wave (km/s) = 5.25538 3.10922 4.31777
# Velocity P-wave (km/s) = 7.80831 6.18554 7.04382
#
# Compressibility (1/GPa) = 0.02112625
#
# Stress axis : x y z
#
# Youngs Moduli (GPa) = 87.50198 52.74941 76.57093
#
# Poissons Ratio (x) = 0.22235 0.21711
# Poissons Ratio (y) = 0.36885 0.31463
# Poissons Ratio (z) = 0.24810 0.21675
#
# Static dielectric constant tensor:
#      x y z
#    x 1.707190 0.000000 0.000000 
#    y 0.000000 1.785440 0.000000 
#    z 0.000000 0.000000 1.657750 
# 
# From -- ./inp_files/7291.got.cif
#   From: 2010.05.17/outbox.cif.g08.bks.cpg/sg23_4_cif.got.tgz:7291.got - 2010.06.04 12:02:01.
