data_PCOD9329404
_publ_section_title
;
Structure prediction by ZEFSAII (Michael W. Deem and Ramdas Pophale) SiO2 
 PCOD9329404
Probable space group: I 2 2 2
;
_chemical_formula_sum "Si O2"
_cell_formula_units_Z 58
_cell_length_a 24.061006
_cell_length_b 17.510805
_cell_length_c 8.947241
_cell_angle_alpha 90.000000
_cell_angle_beta 90.000000
_cell_angle_gamma 90.000000
_cell_volume 3769.719436
_symmetry_space_group_name_H-M "I 2 2 2"
_symmetry_group_IT_number 23
_symmetry_cell_setting 'orthorhombic'
loop_
_space_group_symop_operation_xyz
x,y,z
-x,-y,z
x,-y,-z
-x,y,-z
1/2+x,1/2+y,1/2+z
1/2-x,1/2-y,1/2+z
1/2+x,1/2-y,1/2-z
1/2-x,1/2+y,1/2-z
loop_
_atom_site_type_symbol
_atom_site_label
_atom_site_fract_x
_atom_site_fract_y
_atom_site_fract_z
Si Si1 0.680817 0.229908 0.167594
Si Si2 0.190616 0.174631 0.840898
Si Si3 0.398991 0.939118 0.675148
Si Si4 0.659076 0.815455 0.161907
Si Si5 0.500000 0.000000 0.500000
Si Si6 0.213345 0.124095 0.169193
Si Si7 0.840238 0.589335 0.135488
Si Si8 0.712907 0.467986 0.839878
O O1 0.745242 0.202918 0.164745
O O2 0.683453 0.317218 0.218273
O O3 0.654382 0.171306 0.286909
O O4 0.655765 0.218475 0.004119
O O5 0.156941 0.248144 0.784974
O O6 0.182137 0.105793 0.724832
O O7 0.186593 0.142127 0.008069
O O8 0.386853 0.879056 0.803636
O O9 0.360426 0.911559 0.535609
O O10 0.459776 0.949793 0.605144
O O11 0.376846 0.023712 0.714763
O O12 0.720804 0.854019 0.168611
O O13 0.209708 0.037427 0.223036
O O14 0.776773 0.560493 0.142094
O O15 0.694460 0.500000 0.000000
#
# Coordination Sequence:
#
# PCOD9329404 Si02
#       8
#     8   8   8   8   2   8   8   8
#     4   9  18  26  39  59  83 107 149 185 211 248
#     4   9  19  26  37  57  84 113 149 184 209 248
#     4  10  17  31  48  61  82 107 147 186 228 275
#     4  10  17  28  41  59  78 112 145 183 222 257
#     4   8  20  32  48  70  80 108 146 194 236 272
#     4  10  17  27  37  56  85 116 148 181 211 248
#     4   9  16  27  41  58  76 110 142 177 215 264
#     4  11  16  25  38  57  83 114 149 179 212 242
#
# _framework density 15.385761
#
# number of rings (size 3 to 8) (size 9 to 14) (size 15 to 20)
#    0.000    2.483    2.759    2.069    0.000    4.966 
#    0.000    0.000    0.000    6.621    0.000    0.000 
#    0.000    0.000    0.000   22.345    0.000   52.414 
#
# Total GULP energy -161508.976251 kJ/mol
# GULP energy per Si atom -5569.275043 kJ/mol
# Density = 1.535074 g / cm^3
# Si number density = 15.385761 Si / 1000 Ang^3
#
#
#
# Elastic Constant Matrix: (Units=GPa)
#
#
# Indices 1 2 3 4 5 6 
#
# 1 27.3920 7.9115 4.8718 0.0000 0.0000 0.0000
# 2 7.9115 59.3579 1.6892 0.0000 0.0000 0.0000
# 3 4.8718 1.6892 38.3691 0.0000 0.0000 0.0000
# 4 0.0000 0.0000 0.0000 29.4806 0.0000 0.0000
# 5 0.0000 0.0000 0.0000 0.0000 12.3497 0.0000
# 6 0.0000 0.0000 0.0000 0.0000 0.0000 7.3564
#
#
#
# Elastic Compliance Matrix: (Units=1/GPa)
#
#
# Indices 1 2 3 4 5 6 
#
# 1 0.038799 -0.005037 -0.004705 0.000000 0.000000 0.000000
# 2 -0.005037 0.017522 -0.000132 0.000000 0.000000 0.000000
# 3 -0.004705 -0.000132 0.026666 0.000000 0.000000 0.000000
# 4 0.000000 0.000000 0.000000 0.033921 0.000000 0.000000
# 5 0.000000 0.000000 0.000000 0.000000 0.080974 0.000000
# 6 0.000000 0.000000 0.000000 0.000000 0.000000 0.135936
#
#
# Mechanical properties :
#
#
# Convention : Reuss Voigt Hill
#
# Bulk Modulus (GPa) = 15.81302 17.11822 16.46562
# Shear Modulus (GPa) = 13.34601 17.21378 15.27989
#
# Velocity S-wave (km/s) = 2.94841 3.34849 3.15480
# Velocity P-wave (km/s) = 4.67876 5.10882 4.89851
#
# Compressibility (1/GPa) = 0.06323904
#
# Stress axis : x y z
#
# Youngs Moduli (GPa) = 25.77408 57.07072 37.50125
#
# Poissons Ratio (x) = 0.28749 0.17643
# Poissons Ratio (y) = 0.12983 0.00494
# Poissons Ratio (z) = 0.12126 0.00752
#
# Static dielectric constant tensor:
#      x y z
#    x 1.478650 0.000000 0.000000 
#    y 0.000000 1.526340 0.000000 
#    z 0.000000 0.000000 1.554730 
# 
# From -- ./inp_files/10406.got.cif
#   From: 2010.05.17/outbox.cif.g08.bks.cpg/sg23_6_cif.got.tgz:10406.got - 2010.06.04 12:02:01.
