data_PCOD9329408
_publ_section_title
;
Structure prediction by ZEFSAII (Michael W. Deem and Ramdas Pophale) SiO2 
 PCOD9329408
Probable space group: I 2 2 2
;
_chemical_formula_sum "Si O2"
_cell_formula_units_Z 56
_cell_length_a 5.347450
_cell_length_b 25.180701
_cell_length_c 30.298032
_cell_angle_alpha 90.000000
_cell_angle_beta 90.000000
_cell_angle_gamma 90.000000
_cell_volume 4079.706953
_symmetry_space_group_name_H-M "I 2 2 2"
_symmetry_group_IT_number 23
_symmetry_cell_setting 'orthorhombic'
loop_
_space_group_symop_operation_xyz
x,y,z
-x,-y,z
x,-y,-z
-x,y,-z
1/2+x,1/2+y,1/2+z
1/2-x,1/2-y,1/2+z
1/2+x,1/2-y,1/2-z
1/2-x,1/2+y,1/2-z
loop_
_atom_site_type_symbol
_atom_site_label
_atom_site_fract_x
_atom_site_fract_y
_atom_site_fract_z
Si Si1 0.760299 0.531456 0.184500
Si Si2 0.120783 0.769226 0.305008
Si Si3 0.623881 0.847852 0.234569
Si Si4 0.629423 0.376493 0.747213
Si Si5 0.534203 0.562723 0.947628
Si Si6 0.116605 0.686820 0.165003
Si Si7 0.956052 0.594892 0.100501
O O1 0.500000 0.500000 0.175272
O O2 0.666008 0.579491 0.215440
O O3 0.884522 0.555160 0.140343
O O4 0.000000 0.500000 0.205071
O O5 0.113659 0.712892 0.281105
O O6 0.122495 0.817279 0.269284
O O7 0.381896 0.774256 0.330115
O O8 0.879373 0.782422 0.334741
O O9 0.376575 0.876535 0.218446
O O10 0.621984 0.846746 0.288656
O O11 0.871293 0.878977 0.221918
O O12 0.500000 0.500000 0.937858
O O13 0.308216 0.596151 0.925322
O O14 0.811091 0.576678 0.929729
O O15 0.500000 0.569452 0.000000
O O16 0.054372 0.647701 0.125103
#
# Coordination Sequence:
#
# PCOD9329408 Si02
#       7
#     8   8   8   8   8   8   8
#     4  12  23  31  43  61  83 105 130 164 208 249
#     4  10  17  28  43  60  83 106 124 148 185 230
#     4  10  17  28  44  59  81 108 124 150 185 228
#     4  10  18  29  38  56  80 100 131 156 177 234
#     4  11  24  39  50  61  74  95 132 172 216 271
#     4  10  18  27  42  62  83  95 122 151 184 240
#     4  12  21  35  49  64  78  99 123 167 211 257
#
# _framework density 13.726476
#
# number of rings (size 3 to 8) (size 9 to 14) (size 15 to 20)
#    0.000    1.286    2.857    9.000    4.000    1.143 
#    0.000    0.000    0.000    0.000    0.000    0.000 
#    0.000    0.000    0.000    0.000    0.000    0.000 
#
# Total GULP energy -155948.017597 kJ/mol
# GULP energy per Si atom -5569.572057 kJ/mol
# Density = 1.369523 g / cm^3
# Si number density = 13.726476 Si / 1000 Ang^3
#
#
#
# Elastic Constant Matrix: (Units=GPa)
#
#
# Indices 1 2 3 4 5 6 
#
# 1 148.2333 26.7292 17.6502 0.0000 0.0000 0.0000
# 2 26.7292 36.2960 24.8586 0.0000 0.0000 0.0000
# 3 17.6502 24.8586 25.8549 0.0000 0.0000 0.0000
# 4 0.0000 0.0000 0.0000 12.3472 0.0000 0.0000
# 5 0.0000 0.0000 0.0000 0.0000 15.4370 0.0000
# 6 0.0000 0.0000 0.0000 0.0000 0.0000 22.6888
#
#
#
# Elastic Compliance Matrix: (Units=1/GPa)
#
#
# Indices 1 2 3 4 5 6 
#
# 1 0.007782 -0.006127 0.000578 0.000000 0.000000 0.000000
# 2 -0.006127 0.085500 -0.078023 0.000000 0.000000 0.000000
# 3 0.000578 -0.078023 0.113299 0.000000 0.000000 0.000000
# 4 0.000000 0.000000 0.000000 0.080990 0.000000 0.000000
# 5 0.000000 0.000000 0.000000 0.000000 0.064779 0.000000
# 6 0.000000 0.000000 0.000000 0.000000 0.000000 0.044075
#
#
# Mechanical properties :
#
#
# Convention : Reuss Voigt Hill
#
# Bulk Modulus (GPa) = 25.35614 38.76225 32.05920
# Shear Modulus (GPa) = 8.66981 19.50434 14.08707
#
# Velocity S-wave (km/s) = 2.51592 3.77361 3.20702
# Velocity P-wave (km/s) = 5.19156 6.87657 6.09260
#
# Compressibility (1/GPa) = 0.03943818
#
# Stress axis : x y z
#
# Youngs Moduli (GPa) = 128.50051 11.69589 8.82622
#
# Poissons Ratio (x) = 0.07166 -0.00511
# Poissons Ratio (y) = 0.78733 0.68865
# Poissons Ratio (z) = -0.07433 0.91255
#
# Static dielectric constant tensor:
#      x y z
#    x 1.583380 0.000000 0.000000 
#    y 0.000000 1.461840 0.000000 
#    z 0.000000 0.000000 1.432080 
# 
# From -- ./inp_files/29062.got.cif
#   From: 2010.05.17/outbox.cif.g08.bks.cpg/sg23_15_cif.got.tgz:29062.got - 2010.06.04 12:02:01.
