data_PCOD9329946
_publ_section_title
;
Structure prediction by ZEFSAII (Michael W. Deem and Ramdas Pophale) SiO2 
 PCOD9329946
Probable space group: I 2 2 2
;
_chemical_formula_sum "Si O2"
_cell_formula_units_Z 56
_cell_length_a 14.909823
_cell_length_b 9.719357
_cell_length_c 19.585901
_cell_angle_alpha 90.000000
_cell_angle_beta 90.000000
_cell_angle_gamma 90.000000
_cell_volume 2838.269153
_symmetry_space_group_name_H-M "I 2 2 2"
_symmetry_group_IT_number 23
_symmetry_cell_setting 'orthorhombic'
loop_
_space_group_symop_operation_xyz
x,y,z
-x,-y,z
x,-y,-z
-x,y,-z
1/2+x,1/2+y,1/2+z
1/2-x,1/2-y,1/2+z
1/2+x,1/2-y,1/2-z
1/2-x,1/2+y,1/2-z
loop_
_atom_site_type_symbol
_atom_site_label
_atom_site_fract_x
_atom_site_fract_y
_atom_site_fract_z
Si Si1 0.297288 0.704483 0.366934
Si Si2 0.944170 0.879908 0.243442
Si Si3 0.806127 0.951223 0.680597
Si Si4 0.605112 0.833642 0.503309
Si Si5 0.707840 0.806105 0.368789
Si Si6 0.061721 0.617512 0.244940
Si Si7 0.797817 0.542664 0.325361
O O1 0.368037 0.687262 0.304714
O O2 0.212352 0.797468 0.343713
O O3 0.348830 0.772649 0.429349
O O4 0.256396 0.553948 0.377370
O O5 0.004419 0.750831 0.265997
O O6 0.898790 0.972882 0.302576
O O7 0.000000 0.000000 0.204126
O O8 0.754960 0.960060 0.753173
O O9 0.754326 0.046238 0.627104
O O10 0.500000 0.799020 0.500000
O O11 0.655220 0.774071 0.437207
O O12 0.611822 0.000000 0.500000
O O13 0.635914 0.822164 0.307211
O O14 0.785267 0.697148 0.350546
O O15 0.108848 0.528768 0.304972
O O16 0.000000 0.500000 0.208868
#
# Coordination Sequence:
#
# PCOD9329946 Si02
#       7
#     8   8   8   8   8   8   8
#     4  11  21  38  55  81 120 155 186 228 279 343
#     4  11  21  34  57  89 118 148 188 241 290 335
#     4  10  19  35  56  79 113 153 188 229 281 341
#     4  11  24  37  57  83 112 152 195 226 268 336
#     4  11  21  37  55  82 118 155 187 227 276 345
#     4  11  21  34  59  89 117 149 185 239 294 334
#     4  10  21  35  55  81 116 151 187 231 289 339
#
# _framework density 19.730335
#
# number of rings (size 3 to 8) (size 9 to 14) (size 15 to 20)
#    0.000    1.286    1.429    8.571    2.000    0.571 
#    0.000    0.714    0.000    0.000    0.000   15.000 
#    0.000    0.000    0.000    0.000    0.000    0.000 
#
# Total GULP energy -156126.407019 kJ/mol
# GULP energy per Si atom -5575.943108 kJ/mol
# Density = 1.968543 g / cm^3
# Si number density = 19.730335 Si / 1000 Ang^3
#
#
#
# Elastic Constant Matrix: (Units=GPa)
#
#
# Indices 1 2 3 4 5 6 
#
# 1 63.1325 27.6281 20.1719 0.0000 0.0000 0.0000
# 2 27.6281 114.4333 13.9935 0.0000 0.0000 0.0000
# 3 20.1719 13.9935 61.2326 0.0000 0.0000 0.0000
# 4 0.0000 0.0000 0.0000 19.8016 0.0000 0.0000
# 5 0.0000 0.0000 0.0000 0.0000 19.1135 0.0000
# 6 0.0000 0.0000 0.0000 0.0000 0.0000 46.0402
#
#
#
# Elastic Compliance Matrix: (Units=1/GPa)
#
#
# Indices 1 2 3 4 5 6 
#
# 1 0.019333 -0.004001 -0.005455 0.000000 0.000000 0.000000
# 2 -0.004001 0.009818 -0.000926 0.000000 0.000000 0.000000
# 3 -0.005455 -0.000926 0.018340 0.000000 0.000000 0.000000
# 4 0.000000 0.000000 0.000000 0.050501 0.000000 0.000000
# 5 0.000000 0.000000 0.000000 0.000000 0.052319 0.000000
# 6 0.000000 0.000000 0.000000 0.000000 0.000000 0.021720
#
#
# Mechanical properties :
#
#
# Convention : Reuss Voigt Hill
#
# Bulk Modulus (GPa) = 37.41312 40.26505 38.83908
# Shear Modulus (GPa) = 24.78894 28.79139 26.79016
#
# Velocity S-wave (km/s) = 3.54840 3.82415 3.68885
# Velocity P-wave (km/s) = 5.98261 6.32067 6.15396
#
# Compressibility (1/GPa) = 0.02672859
#
# Stress axis : x y z
#
# Youngs Moduli (GPa) = 51.72399 101.85560 54.52655
#
# Poissons Ratio (x) = 0.40749 0.29743
# Poissons Ratio (y) = 0.20693 0.05048
# Poissons Ratio (z) = 0.28214 0.09429
#
# Static dielectric constant tensor:
#      x y z
#    x 1.796630 0.000000 0.000000 
#    y 0.000000 1.716300 0.000000 
#    z 0.000000 0.000000 1.661710 
# 
# From -- ./inp_files/27007.got.cif
#   From: 2010.05.17/outbox.cif.g08.bks.cpg/sg23_14_cif.got.tgz:27007.got - 2010.06.04 12:02:01.
