data_PCOD9329066
_publ_section_title
;
Structure prediction by ZEFSAII (Michael W. Deem and Ramdas Pophale) SiO2 
 PCOD9329066
Probable space group: F 2 2 2
;
_chemical_formula_sum "Si O2"
_cell_formula_units_Z 56
_cell_length_a 7.219287
_cell_length_b 17.065784
_cell_length_c 18.527696
_cell_angle_alpha 90.000000
_cell_angle_beta 90.000000
_cell_angle_gamma 90.000000
_cell_volume 2282.663887
_symmetry_space_group_name_H-M "F 2 2 2"
_symmetry_group_IT_number 22
_symmetry_cell_setting 'orthorhombic'
loop_
_space_group_symop_operation_xyz
x,y,z
-x,-y,z
x,-y,-z
-x,y,-z
x,1/2+y,1/2+z
-x,1/2-y,1/2+z
x,1/2-y,1/2-z
-x,1/2+y,1/2-z
1/2+x,y,1/2+z
1/2-x,-y,1/2+z
1/2+x,-y,1/2-z
1/2-x,y,1/2-z
1/2+x,1/2+y,z
1/2-x,1/2-y,z
1/2+x,1/2-y,-z
1/2-x,1/2+y,-z
loop_
_atom_site_type_symbol
_atom_site_label
_atom_site_fract_x
_atom_site_fract_y
_atom_site_fract_z
Si Si1 0.250000 0.750000 0.454115
Si Si2 0.632809 0.072931 0.821782
Si Si3 0.970806 0.235445 0.666869
Si Si4 0.209973 0.916132 0.973630
O O1 0.416240 0.772384 0.398593
O O2 0.285488 0.669768 0.499966
O O3 0.750000 0.088572 0.750000
O O4 0.496794 0.143487 0.841224
O O5 0.773739 0.073220 0.887998
O O6 0.500000 0.000000 0.812637
O O7 0.025359 0.250000 0.750000
O O8 0.750000 0.250000 0.661332
O O9 0.000000 0.916111 0.000000
O O10 0.294686 0.000000 0.000000
#
# Coordination Sequence:
#
# PCOD9329066 Si02
#       4
#     8  16  16  16
#     4  12  27  44  85 108 156 218 264 314 423 468
#     4  12  28  49  81 111 161 207 265 328 409 473
#     4  11  24  47  75 113 156 200 265 327 387 480
#     4  11  28  49  77 115 159 198 270 333 397 475
#
# _framework density 24.532741000000001
#
# number of rings (size 3 to 8) (size 9 to 14) (size 15 to 20)
#    0.000    0.571    2.857    3.857   10.000    5.143 
#    0.000    0.000    0.000    0.000    0.000    0.000 
#    0.000    0.000    0.000    0.000    0.000    0.000 
#
# Total GULP energy -78252.372153 kJ/mol
# GULP energy per Si atom -5589.455154 kJ/mol
# Density = 2.447690 g / cm^3
# Si number density = 24.532741 Si / 1000 Ang^3
#
#
#
# Elastic Constant Matrix: (Units=GPa)
#
#
# Indices 1 2 3 4 5 6 
#
# 1 104.8312 0.5023 38.2961 0.0000 0.0000 0.0000
# 2 0.5023 144.2726 24.1222 0.0000 0.0000 0.0000
# 3 38.2961 24.1222 206.2046 0.0000 0.0000 0.0000
# 4 0.0000 0.0000 0.0000 40.9786 0.0000 0.0000
# 5 0.0000 0.0000 0.0000 0.0000 23.2471 0.0000
# 6 0.0000 0.0000 0.0000 0.0000 0.0000 32.9186
#
#
#
# Elastic Compliance Matrix: (Units=1/GPa)
#
#
# Indices 1 2 3 4 5 6 
#
# 1 0.010245 0.000288 -0.001936 0.000000 0.000000 0.000000
# 2 0.000288 0.007078 -0.000881 0.000000 0.000000 0.000000
# 3 -0.001936 -0.000881 0.005312 0.000000 0.000000 0.000000
# 4 0.000000 0.000000 0.000000 0.024403 0.000000 0.000000
# 5 0.000000 0.000000 0.000000 0.000000 0.043016 0.000000
# 6 0.000000 0.000000 0.000000 0.000000 0.000000 0.030378
#
#
# Mechanical properties :
#
#
# Convention : Reuss Voigt Hill
#
# Bulk Modulus (GPa) = 56.89711 64.57216 60.73464
# Shear Modulus (GPa) = 38.06612 45.58804 41.82708
#
# Velocity S-wave (km/s) = 3.94337 4.31542 4.13358
# Velocity P-wave (km/s) = 6.63145 7.15601 6.89872
#
# Compressibility (1/GPa) = 0.01757558
#
# Stress axis : x y z
#
# Youngs Moduli (GPa) = 97.60703 141.28877 188.24242
#
# Poissons Ratio (x) = -0.04071 0.36452
# Poissons Ratio (y) = -0.02812 0.16593
# Poissons Ratio (z) = 0.18901 0.12454
#
# Static dielectric constant tensor:
#      x y z
#    x 1.935200 0.000000 0.000000 
#    y 0.000000 2.073880 0.000000 
#    z 0.000000 0.000000 2.054370 
# 
# From -- ./inp_files/10949.got.cif
#   From: 2010.05.17/outbox.cif.g08.bks.cpg/sg22_6_cif.got.tgz:10949.got - 2010.06.03 23:40:54.
