data_PCOD9329786
_publ_section_title
;
Structure prediction by ZEFSAII (Michael W. Deem and Ramdas Pophale) SiO2 
 PCOD9329786
Probable space group: I 2 2 2
;
_chemical_formula_sum "Si O2"
_cell_formula_units_Z 48
_cell_length_a 12.822453
_cell_length_b 9.093672
_cell_length_c 17.798387
_cell_angle_alpha 90.000000
_cell_angle_beta 90.000000
_cell_angle_gamma 90.000000
_cell_volume 2075.348555
_symmetry_space_group_name_H-M "I 2 2 2"
_symmetry_group_IT_number 23
_symmetry_cell_setting 'orthorhombic'
loop_
_space_group_symop_operation_xyz
x,y,z
-x,-y,z
x,-y,-z
-x,y,-z
1/2+x,1/2+y,1/2+z
1/2-x,1/2-y,1/2+z
1/2+x,1/2-y,1/2-z
1/2-x,1/2+y,1/2-z
loop_
_atom_site_type_symbol
_atom_site_label
_atom_site_fract_x
_atom_site_fract_y
_atom_site_fract_z
Si Si1 0.680809 0.766768 0.575037
Si Si2 0.648398 0.503727 0.086288
Si Si3 0.608189 0.329730 0.772547
Si Si4 0.978247 0.166854 0.121200
Si Si5 0.763754 0.303499 0.584139
Si Si6 0.769859 0.548520 0.692223
O O1 0.556499 0.769752 0.575450
O O2 0.743943 0.695178 0.505374
O O3 0.697745 0.662324 0.646652
O O4 0.736454 0.921587 0.584344
O O5 0.586494 0.608821 0.143757
O O6 0.669229 0.336643 0.108315
O O7 0.611562 0.500000 0.000000
O O8 0.515844 0.335278 0.712159
O O9 0.701047 0.442156 0.745181
O O10 0.647747 0.161028 0.772924
O O11 0.857336 0.205599 0.109450
O O12 0.000000 0.000000 0.094414
O O13 0.812168 0.441880 0.626792
#
# Coordination Sequence:
#
# PCOD9329786 Si02
#       6
#     8   8   8   8   8   8
#     4  10  19  33  52  81 110 145 182 226 283 338
#     4   9  20  36  55  78 108 144 188 240 276 328
#     4  10  19  33  51  74 107 145 197 225 277 330
#     4  11  20  31  50  80 112 155 178 230 280 339
#     4  10  19  32  53  79 111 144 189 222 284 340
#     4  10  19  31  51  74 105 151 184 232 265 327
#
# _framework density 23.128644000000001
#
# number of rings (size 3 to 8) (size 9 to 14) (size 15 to 20)
#    0.000    2.000    3.333    3.000    0.000    1.333 
#    0.000    2.500    0.000    0.500    0.000    0.000 
#    0.000    0.000    5.000    0.000    0.000    0.000 
#
# Total GULP energy -133830.075174 kJ/mol
# GULP energy per Si atom -5576.253132 kJ/mol
# Density = 2.307600 g / cm^3
# Si number density = 23.128644 Si / 1000 Ang^3
#
#
#
# Elastic Constant Matrix: (Units=GPa)
#
#
# Indices 1 2 3 4 5 6 
#
# 1 60.5930 40.3499 9.3960 0.0000 0.0000 0.0000
# 2 40.3499 122.4851 27.3601 0.0000 0.0000 0.0000
# 3 9.3960 27.3601 100.3050 0.0000 0.0000 0.0000
# 4 0.0000 0.0000 0.0000 36.8161 0.0000 0.0000
# 5 0.0000 0.0000 0.0000 0.0000 12.9095 0.0000
# 6 0.0000 0.0000 0.0000 0.0000 0.0000 23.8062
#
#
#
# Elastic Compliance Matrix: (Units=1/GPa)
#
#
# Indices 1 2 3 4 5 6 
#
# 1 0.021142 -0.006946 -0.000086 0.000000 0.000000 0.000000
# 2 -0.006946 0.010976 -0.002343 0.000000 0.000000 0.000000
# 3 -0.000086 -0.002343 0.010617 0.000000 0.000000 0.000000
# 4 0.000000 0.000000 0.000000 0.027162 0.000000 0.000000
# 5 0.000000 0.000000 0.000000 0.000000 0.077462 0.000000
# 6 0.000000 0.000000 0.000000 0.000000 0.000000 0.042006
#
#
# Mechanical properties :
#
#
# Convention : Reuss Voigt Hill
#
# Bulk Modulus (GPa) = 41.69245 48.62168 45.15706
# Shear Modulus (GPa) = 23.13642 28.45816 25.79729
#
# Velocity S-wave (km/s) = 3.16624 3.51155 3.34336
# Velocity P-wave (km/s) = 5.60645 6.12448 5.87118
#
# Compressibility (1/GPa) = 0.02398516
#
# Stress axis : x y z
#
# Youngs Moduli (GPa) = 47.29909 91.11007 94.19034
#
# Poissons Ratio (x) = 0.63281 0.00809
# Poissons Ratio (y) = 0.32852 0.22071
# Poissons Ratio (z) = 0.00406 0.21349
#
# Static dielectric constant tensor:
#      x y z
#    x 1.938830 0.000000 0.000000 
#    y 0.000000 1.869520 0.000000 
#    z 0.000000 0.000000 2.038980 
# 
# From -- ./inp_files/9923.got.cif
#   From: 2010.05.17/outbox.cif.g08.bks.cpg/sg23_5_cif.got.tgz:9923.got - 2010.06.04 12:02:01.
