data_PCOD9329487
_publ_section_title
;
Structure prediction by ZEFSAII (Michael W. Deem and Ramdas Pophale) SiO2 
 PCOD9329487
Probable space group: I 2 2 2
;
_chemical_formula_sum "Si O2"
_cell_formula_units_Z 42
_cell_length_a 22.816260
_cell_length_b 17.598248
_cell_length_c 5.510802
_cell_angle_alpha 90.000000
_cell_angle_beta 90.000000
_cell_angle_gamma 90.000000
_cell_volume 2212.731397
_symmetry_space_group_name_H-M "I 2 2 2"
_symmetry_group_IT_number 23
_symmetry_cell_setting 'orthorhombic'
loop_
_space_group_symop_operation_xyz
x,y,z
-x,-y,z
x,-y,-z
-x,y,-z
1/2+x,1/2+y,1/2+z
1/2-x,1/2-y,1/2+z
1/2+x,1/2-y,1/2-z
1/2-x,1/2+y,1/2-z
loop_
_atom_site_type_symbol
_atom_site_label
_atom_site_fract_x
_atom_site_fract_y
_atom_site_fract_z
Si Si1 0.000000 0.000000 0.500000
Si Si2 0.654506 0.614246 0.628952
Si Si3 0.764972 0.706855 0.580311
Si Si4 0.563012 0.245531 0.421782
Si Si5 0.604201 0.404183 0.865229
Si Si6 0.900872 0.720261 0.584072
O O1 0.041838 0.945042 0.347832
O O2 0.722170 0.637171 0.639581
O O3 0.614185 0.691436 0.612713
O O4 0.641307 0.576910 0.371494
O O5 0.633042 0.575796 0.875927
O O6 0.742333 0.740734 0.322176
O O7 0.833942 0.694973 0.546719
O O8 0.500000 0.279612 0.500000
O O9 0.578692 0.192916 0.651360
O O10 0.562136 0.205708 0.159041
O O11 0.597367 0.312586 0.881591
#
# Coordination Sequence:
#
# PCOD9329487 Si02
#       6
#     2   8   8   8   8   8
#     4  12  28  38  52  62 100 142 196 214 250 276
#     4  10  20  32  49  66  86 109 154 208 260 290
#     4  12  16  31  48  72  86 106 139 208 268 314
#     4  10  18  26  40  61  85 114 140 178 225 291
#     4  10  22  34  44  64  82 124 160 212 240 281
#     4  10  19  30  46  64  84 112 148 203 254 288
#
# _framework density 18.981066999999999
#
# number of rings (size 3 to 8) (size 9 to 14) (size 15 to 20)
#    0.000    1.524    7.619    0.571   10.667    1.524 
#    0.000    0.000    0.000    0.000    0.000    0.000 
#    0.000    0.000    0.000    0.000    0.000    0.000 
#
# Total GULP energy -116969.554914 kJ/mol
# GULP energy per Si atom -5569.978805 kJ/mol
# Density = 1.893787 g / cm^3
# Si number density = 18.981067 Si / 1000 Ang^3
#
#
#
# Elastic Constant Matrix: (Units=GPa)
#
#
# Indices 1 2 3 4 5 6 
#
# 1 108.7621 26.3100 25.8085 0.0000 0.0000 0.0000
# 2 26.3100 16.6926 9.7288 0.0000 0.0000 0.0000
# 3 25.8085 9.7288 195.9546 0.0000 0.0000 0.0000
# 4 0.0000 0.0000 0.0000 11.7964 0.0000 0.0000
# 5 0.0000 0.0000 0.0000 0.0000 -0.4915 0.0000
# 6 0.0000 0.0000 0.0000 0.0000 0.0000 34.6648
#
#
#
# Elastic Compliance Matrix: (Units=1/GPa)
#
#
# Indices 1 2 3 4 5 6 
#
# 1 0.014989 -0.023144 -0.000825 0.000000 0.000000 0.000000
# 2 -0.023144 0.097427 -0.001789 0.000000 0.000000 0.000000
# 3 -0.000825 -0.001789 0.005301 0.000000 0.000000 0.000000
# 4 0.000000 0.000000 0.000000 0.084771 0.000000 0.000000
# 5 0.000000 0.000000 0.000000 0.000000 -2.034695 0.000000
# 6 0.000000 0.000000 0.000000 0.000000 0.000000 0.028848
#
#
# Mechanical properties :
#
#
# Convention : Reuss Voigt Hill
#
# Bulk Modulus (GPa) = 15.10537 49.45600 32.28068
# Shear Modulus (GPa) = -2.89055 26.49809 11.80377
#
# Velocity S-wave (km/s) = -1.23538 3.74040 2.49644
# Velocity P-wave (km/s) = 2.43732 6.69075 5.03521
#
# Compressibility (1/GPa) = 0.06620160
#
# Stress axis : x y z
#
# Youngs Moduli (GPa) = 66.71703 10.26406 188.65405
#
# Poissons Ratio (x) = 0.23755 0.15565
# Poissons Ratio (y) = 1.54407 0.33749
# Poissons Ratio (z) = 0.05505 0.01836
#
# Static dielectric constant tensor:
#      x y z
#    x 1.687760 0.000000 0.000000 
#    y 0.000000 1.865040 0.000000 
#    z 0.000000 0.000000 1.697880 
# 
# From -- ./inp_files/3327.got.cif
#   From: 2010.05.17/outbox.cif.g08.bks.cpg/sg23_2_cif.got.tgz:3327.got - 2010.06.04 12:02:01.
