data_PCOD9329314
_publ_section_title
;
Structure prediction by ZEFSAII (Michael W. Deem and Ramdas Pophale) SiO2 
 PCOD9329314
Probable space group: F 2 2 2
;
_chemical_formula_sum "Si O2"
_cell_formula_units_Z 29
_cell_length_a 27.000000
_cell_length_b 24.000000
_cell_length_c 9.000000
_cell_angle_alpha 90.000000
_cell_angle_beta 90.000000
_cell_angle_gamma 90.000000
_cell_volume 5832.000000
_symmetry_space_group_name_H-M "F 2 2 2"
_symmetry_group_IT_number 22
_symmetry_cell_setting 'orthorhombic'
loop_
_space_group_symop_operation_xyz
x,y,z
-x,-y,z
x,-y,-z
-x,y,-z
x,1/2+y,1/2+z
-x,1/2-y,1/2+z
x,1/2-y,1/2-z
-x,1/2+y,1/2-z
1/2+x,y,1/2+z
1/2-x,-y,1/2+z
1/2+x,-y,1/2-z
1/2-x,y,1/2-z
1/2+x,1/2+y,z
1/2-x,1/2-y,z
1/2+x,1/2-y,-z
1/2-x,1/2+y,-z
loop_
_atom_site_type_symbol
_atom_site_label
_atom_site_fract_x
_atom_site_fract_y
_atom_site_fract_z
Si Si1 0.703408 0.473492 0.839966
Si Si2 0.534675 0.305228 0.354799
Si Si3 0.500000 0.500000 0.000000
Si Si4 0.060207 0.096374 0.843989
Si Si5 0.128860 0.156549 0.455492
Si Si6 0.358606 0.547589 0.382173
Si Si7 0.195784 0.760362 0.926836
Si Si8 0.632177 0.868652 0.389927
O O1 0.750000 0.448674 0.750000
O O2 0.681653 0.520196 0.727508
O O3 0.662274 0.426374 0.871524
O O4 0.716985 0.500000 0.000000
O O5 0.500000 0.294905 0.500000
O O6 0.538905 0.250000 0.250000
O O7 0.526308 0.356969 0.238834
O O8 0.582842 0.327612 0.441459
O O9 0.531342 0.457599 0.099223
O O10 0.099289 0.071159 0.726625
O O11 0.089413 0.122816 0.986327
O O12 0.155181 0.100666 0.516041
O O13 0.162671 0.209813 0.478928
O O14 0.116179 0.148412 0.279358
O O15 0.374752 0.500000 0.500000
O O16 0.199032 0.750000 0.750000
O O17 0.250000 0.750000 0.991335
O O18 0.169444 0.819932 0.946240
#
# Coordination Sequence:
#
# PCOD9329314 Si02
#       8
#    16  16   4  16  16  16  16  16
#     4  12  25  39  64 100 136 186 240 288 351 417
#     4  11  27  46  73 102 138 179 237 293 365 444
#     4  12  28  40  74 100 140 176 238 298 360 440
#     4  11  26  45  68 102 136 183 233 297 361 443
#     4  10  23  41  68  96 136 178 226 288 357 418
#     4  11  22  42  65  91 135 181 226 285 355 423
#     4   9  20  36  62  98 128 171 224 274 334 409
#     4  11  22  41  72  92 141 185 230 289 360 424
#
# _framework density 4.9725650000000003
#
# number of rings (size 3 to 8) (size 9 to 14) (size 15 to 20)
#    0.000    1.241    2.759    2.069    6.759    2.759 
#    0.000    0.000    0.000    3.310    0.000    0.000 
#    0.000    0.000    0.000    0.000    0.000    0.000 
#
# Total GULP energy -161723.673796 kJ/mol
# GULP energy per Si atom -5576.678407 kJ/mol
# Density = 0.496125 g / cm^3
# Si number density = 4.972565 Si / 1000 Ang^3
#
#
#
# Elastic Constant Matrix: (Units=GPa)
#
#
# Indices 1 2 3 4 5 6 
#
# 1 50.4579 28.1935 38.7107 0.0011 -0.0013 0.0009
# 2 28.1935 115.9327 46.6114 0.0027 -0.0049 0.0021
# 3 38.7107 46.6114 132.9312 0.0048 -0.0069 0.0035
# 4 0.0011 0.0027 0.0048 39.9339 -0.0048 0.0021
# 5 -0.0013 -0.0049 -0.0069 -0.0048 49.7144 -0.0046
# 6 0.0009 0.0021 0.0035 0.0021 -0.0046 -16.9741
#
#
#
# Elastic Compliance Matrix: (Units=1/GPa)
#
#
# Indices 1 2 3 4 5 6 
#
# 1 0.026999 -0.003963 -0.006472 0.000000 -0.000001 0.000000
# 2 -0.003963 0.010623 -0.002571 0.000000 0.000001 0.000001
# 3 -0.006472 -0.002571 0.010309 -0.000001 0.000001 0.000001
# 4 0.000000 0.000000 -0.000001 0.025041 0.000002 0.000003
# 5 -0.000001 0.000001 0.000001 0.000002 0.020115 -0.000005
# 6 0.000000 0.000001 0.000001 0.000003 -0.000005 -0.058913
#
#
# Mechanical properties :
#
#
# Convention : Reuss Voigt Hill
#
# Bulk Modulus (GPa) = 45.62583 58.48366 52.05474
# Shear Modulus (GPa) = 74.08163 26.92192 50.50177
#
# Velocity S-wave (km/s) = 6.10950 3.68302 5.04434
# Velocity P-wave (km/s) = 8.52975 6.89588 7.75596
#
# Compressibility (1/GPa) = 0.02191741
#
# Stress axis : x y z
#
# Youngs Moduli (GPa) = 37.03877 94.13411 97.00317
#
# Poissons Ratio (x) = 0.37310 0.62785
# Poissons Ratio (y) = 0.14680 0.24937
# Poissons Ratio (z) = 0.23973 0.24199
#
# Static dielectric constant tensor:
#      x y z
#    x 1.840320 0.000000 0.000000 
#    y 0.000000 1.667680 0.000010 
#    z 0.000000 0.000010 1.726440 
# 
# From -- ./inp_files/14987.got.cif
#   From: 2010.05.17/outbox.ucp.g08.bks.cvg/sg22_8_cif.got.tgz:14987.got - 2010.06.11 15:16:44.
