data_PCOD9329799
_publ_section_title
;
Structure prediction by ZEFSAII (Michael W. Deem and Ramdas Pophale) SiO2 
 PCOD9329799
Probable space group: I 2 2 2
;
_chemical_formula_sum "Si O2"
_cell_formula_units_Z 58
_cell_length_a 8.093638
_cell_length_b 28.312449
_cell_length_c 13.321474
_cell_angle_alpha 90.000000
_cell_angle_beta 90.000000
_cell_angle_gamma 90.000000
_cell_volume 3052.625267
_symmetry_space_group_name_H-M "I 2 2 2"
_symmetry_group_IT_number 23
_symmetry_cell_setting 'orthorhombic'
loop_
_space_group_symop_operation_xyz
x,y,z
-x,-y,z
x,-y,-z
-x,y,-z
1/2+x,1/2+y,1/2+z
1/2-x,1/2-y,1/2+z
1/2+x,1/2-y,1/2-z
1/2-x,1/2+y,1/2-z
loop_
_atom_site_type_symbol
_atom_site_label
_atom_site_fract_x
_atom_site_fract_y
_atom_site_fract_z
Si Si1 0.306314 0.143498 0.734887
Si Si2 0.681422 0.585689 0.408773
Si Si3 0.173231 0.864494 0.904362
Si Si4 0.690187 0.844944 0.313336
Si Si5 0.808349 0.163781 0.481200
Si Si6 0.147082 0.758315 0.214523
Si Si7 0.500000 0.500000 0.500000
Si Si8 0.195830 0.240898 0.094091
O O1 0.283579 0.100014 0.811034
O O2 0.495468 0.151298 0.704695
O O3 0.211938 0.139609 0.628166
O O4 0.238878 0.191410 0.789136
O O5 0.515365 0.617851 0.399050
O O6 0.761048 0.601904 0.514627
O O7 0.612841 0.533425 0.429651
O O8 0.231665 0.864392 0.789246
O O9 0.196648 0.811590 0.948097
O O10 0.742129 0.864489 0.421693
O O11 0.738943 0.789355 0.319873
O O12 0.703146 0.212500 0.471978
O O13 0.000000 0.173790 0.500000
O O14 0.145212 0.747710 0.333897
O O15 0.972276 0.759153 0.159587
#
# Coordination Sequence:
#
# PCOD9329799 Si02
#       8
#     8   8   8   8   8   8   2   8
#     4  11  22  36  54  81 116 157 198 252 293 345
#     4  10  20  39  64  86 115 140 195 240 312 357
#     4   9  20  34  55  76 108 153 192 252 281 345
#     4  11  22  35  53  79 120 157 210 236 288 337
#     4  11  24  35  52  77 115 167 209 244 282 333
#     4  10  19  32  48  69 109 156 206 242 273 321
#     4   8  20  40  68  98 106 148 184 250 300 386
#     4  10  20  33  48  70 106 158 205 244 277 320
#
# _framework density 19.000039999999998
#
# number of rings (size 3 to 8) (size 9 to 14) (size 15 to 20)
#    0.000    1.931    4.138    1.241    7.724    0.552 
#    0.000    0.000    0.000    6.621    0.000   12.069 
#    0.000   13.241    0.000    0.000    0.000    0.000 
#
# Total GULP energy -161516.986579 kJ/mol
# GULP energy per Si atom -5569.551261 kJ/mol
# Density = 1.895680 g / cm^3
# Si number density = 19.000040 Si / 1000 Ang^3
#
#
#
# Elastic Constant Matrix: (Units=GPa)
#
#
# Indices 1 2 3 4 5 6 
#
# 1 85.0527 10.7932 30.0333 0.0000 0.0000 0.0000
# 2 10.7932 78.4352 29.3967 -0.0001 0.0000 0.0000
# 3 30.0333 29.3967 137.6926 -0.0001 0.0001 -0.0001
# 4 0.0000 -0.0001 -0.0001 19.5493 0.0000 0.0000
# 5 0.0000 0.0000 0.0001 0.0000 29.1717 0.0000
# 6 0.0000 0.0000 -0.0001 0.0000 0.0000 17.5471
#
#
#
# Elastic Compliance Matrix: (Units=1/GPa)
#
#
# Indices 1 2 3 4 5 6 
#
# 1 0.012782 -0.000776 -0.002622 0.000000 0.000000 0.000000
# 2 -0.000776 0.013905 -0.002799 0.000000 0.000000 0.000000
# 3 -0.002622 -0.002799 0.008432 0.000000 0.000000 0.000000
# 4 0.000000 0.000000 0.000000 0.051153 0.000000 0.000000
# 5 0.000000 0.000000 0.000000 0.000000 0.034280 0.000000
# 6 0.000000 0.000000 0.000000 0.000000 0.000000 0.056990
#
#
# Mechanical properties :
#
#
# Convention : Reuss Voigt Hill
#
# Bulk Modulus (GPa) = 44.00664 49.06964 46.53814
# Shear Modulus (GPa) = 25.31494 28.65076 26.98285
#
# Velocity S-wave (km/s) = 3.65411 3.88742 3.77257
# Velocity P-wave (km/s) = 6.40430 6.78465 6.59722
#
# Compressibility (1/GPa) = 0.02272384
#
# Stress axis : x y z
#
# Youngs Moduli (GPa) = 78.23585 71.91458 118.59311
#
# Poissons Ratio (x) = 0.05581 0.31098
# Poissons Ratio (y) = 0.06072 0.33200
# Poissons Ratio (z) = 0.20516 0.20132
#
# Static dielectric constant tensor:
#      x y z
#    x 1.702110 0.000000 0.000000 
#    y 0.000000 1.660590 0.000000 
#    z 0.000000 0.000000 1.815500 
# 
# From -- ./inp_files/14963.got.cif
#   From: 2010.05.17/outbox.cif.g08.bks.cpg/sg23_8_cif.got.tgz:14963.got - 2010.06.04 12:02:01.
