data_PCOD9329363
_publ_section_title
;
Structure prediction by ZEFSAII (Michael W. Deem and Ramdas Pophale) SiO2 
 PCOD9329363
Probable space group: I 2 2 2
;
_chemical_formula_sum "Si O2"
_cell_formula_units_Z 48
_cell_length_a 7.895930
_cell_length_b 22.559859
_cell_length_c 14.495232
_cell_angle_alpha 90.000000
_cell_angle_beta 90.000000
_cell_angle_gamma 90.000000
_cell_volume 2582.051149
_symmetry_space_group_name_H-M "I 2 2 2"
_symmetry_group_IT_number 23
_symmetry_cell_setting 'orthorhombic'
loop_
_space_group_symop_operation_xyz
x,y,z
-x,-y,z
x,-y,-z
-x,y,-z
1/2+x,1/2+y,1/2+z
1/2-x,1/2-y,1/2+z
1/2+x,1/2-y,1/2-z
1/2-x,1/2+y,1/2-z
loop_
_atom_site_type_symbol
_atom_site_label
_atom_site_fract_x
_atom_site_fract_y
_atom_site_fract_z
Si Si1 0.298719 0.772077 0.873641
Si Si2 0.822153 0.092610 0.884726
Si Si3 0.991469 0.436486 0.263159
Si Si4 0.825247 0.230722 0.060739
Si Si5 0.793004 0.906062 0.900225
Si Si6 0.494017 0.194831 0.707269
O O1 0.205092 0.836457 0.872081
O O2 0.461598 0.782839 0.810441
O O3 0.180755 0.723096 0.826273
O O4 0.311966 0.756702 0.981433
O O5 0.686665 0.064745 0.816990
O O6 0.017650 0.076345 0.869134
O O7 0.778297 0.078450 0.991327
O O8 0.141803 0.430629 0.338888
O O9 0.000000 0.500000 0.214311
O O10 0.004778 0.376090 0.205378
O O11 0.792443 0.165754 0.101663
O O12 0.862215 0.278282 0.139560
O O13 0.000000 0.228430 0.000000
#
# Coordination Sequence:
#
# PCOD9329363 Si02
#       6
#     8   8   8   8   8   8
#     4   9  17  30  52  81 103 128 167 215 272 317
#     4   9  18  33  51  74 101 129 169 214 263 318
#     4  11  24  33  44  73 105 141 183 208 239 306
#     4   9  15  31  55  79 103 132 167 216 272 318
#     4  10  16  33  54  69 102 135 163 215 270 311
#     4  10  18  31  52  73 103 138 166 216 260 304
#
# _framework density 18.589873000000001
#
# number of rings (size 3 to 8) (size 9 to 14) (size 15 to 20)
#    0.000    2.333    5.000    1.500    0.000    2.000 
#    0.000    4.167    0.000    4.500    0.000    0.000 
#    0.000    0.000    3.000    0.000    0.000    0.000 
#
# Total GULP energy -133869.042322 kJ/mol
# GULP energy per Si atom -5577.876763 kJ/mol
# Density = 1.854756 g / cm^3
# Si number density = 18.589873 Si / 1000 Ang^3
#
#
#
# Elastic Constant Matrix: (Units=GPa)
#
#
# Indices 1 2 3 4 5 6 
#
# 1 67.6068 13.3388 16.6275 -0.0001 0.0000 0.0000
# 2 13.3388 121.6592 29.9422 -0.0001 0.0000 0.0000
# 3 16.6275 29.9422 38.3340 -0.0002 0.0000 -0.0001
# 4 -0.0001 -0.0001 -0.0002 10.9654 0.0000 0.0000
# 5 0.0000 0.0000 0.0000 0.0000 22.7385 0.0000
# 6 0.0000 0.0000 -0.0001 0.0000 0.0000 -2.4550
#
#
#
# Elastic Compliance Matrix: (Units=1/GPa)
#
#
# Indices 1 2 3 4 5 6 
#
# 1 0.016558 -0.000059 -0.007136 0.000000 0.000000 0.000000
# 2 -0.000059 0.010176 -0.007923 0.000000 0.000000 0.000000
# 3 -0.007136 -0.007923 0.035370 0.000000 0.000000 -0.000001
# 4 0.000000 0.000000 0.000000 0.091196 0.000000 -0.000002
# 5 0.000000 0.000000 0.000000 0.000000 0.043978 0.000000
# 6 0.000000 0.000000 -0.000001 -0.000002 0.000000 -0.407329
#
#
# Mechanical properties :
#
#
# Convention : Reuss Voigt Hill
#
# Bulk Modulus (GPa) = 31.37887 38.60191 34.99039
# Shear Modulus (GPa) = -29.55225 17.42921 -6.06152
#
# Velocity S-wave (km/s) = -3.99143 3.06529 -1.80769
# Velocity P-wave (km/s) = 2.07985 5.77392 3.80870
#
# Compressibility (1/GPa) = 0.03186858
#
# Stress axis : x y z
#
# Youngs Moduli (GPa) = 60.39330 98.26961 28.27248
#
# Poissons Ratio (x) = 0.00582 0.20175
# Poissons Ratio (y) = 0.00357 0.22400
# Poissons Ratio (z) = 0.43096 0.77857
#
# Static dielectric constant tensor:
#      x y z
#    x 1.709240 0.000000 0.000000 
#    y 0.000000 1.666360 0.000000 
#    z 0.000000 0.000000 1.661090 
# 
# From -- ./inp_files/11917.got.cif
#   From: 2010.05.17/outbox.cif.g08.bks.cpg/sg23_6_cif.got.tgz:11917.got - 2010.06.04 12:02:01.
