data_PCOD9329022
_publ_section_title
;
Structure prediction by ZEFSAII (Michael W. Deem and Ramdas Pophale) SiO2 
 PCOD9329022
Probable space group: F 2 2 2
;
_chemical_formula_sum "Si O2"
_cell_formula_units_Z 68
_cell_length_a 29.981973
_cell_length_b 8.930148
_cell_length_c 12.847161
_cell_angle_alpha 90.000000
_cell_angle_beta 90.000000
_cell_angle_gamma 90.000000
_cell_volume 3439.743289
_symmetry_space_group_name_H-M "F 2 2 2"
_symmetry_group_IT_number 22
_symmetry_cell_setting 'orthorhombic'
loop_
_space_group_symop_operation_xyz
x,y,z
-x,-y,z
x,-y,-z
-x,y,-z
x,1/2+y,1/2+z
-x,1/2-y,1/2+z
x,1/2-y,1/2-z
-x,1/2+y,1/2-z
1/2+x,y,1/2+z
1/2-x,-y,1/2+z
1/2+x,-y,1/2-z
1/2-x,y,1/2-z
1/2+x,1/2+y,z
1/2-x,1/2-y,z
1/2+x,1/2-y,-z
1/2-x,1/2+y,-z
loop_
_atom_site_type_symbol
_atom_site_label
_atom_site_fract_x
_atom_site_fract_y
_atom_site_fract_z
Si Si1 0.883962 0.624624 0.426540
Si Si2 0.395581 0.583690 0.270647
Si Si3 0.179463 0.092331 0.395781
Si Si4 0.250000 0.750000 0.750000
Si Si5 0.550146 0.843535 0.957720
O O1 0.863042 0.500000 0.500000
O O2 0.901403 0.533803 0.324658
O O3 0.847729 0.752424 0.409645
O O4 0.923072 0.706009 0.492507
O O5 0.377718 0.750000 0.250000
O O6 0.357058 0.509392 0.338592
O O7 0.440500 0.626695 0.335871
O O8 0.220215 0.141944 0.322935
O O9 0.192127 0.000000 0.500000
O O10 0.500000 0.832183 0.000000
O O11 0.569149 0.000000 0.000000
#
# Coordination Sequence:
#
# PCOD9329022 Si02
#       5
#    16  16  16   4  16
#     4  12  22  42  74  97 136 189 231 281 352 416
#     4  12  22  44  72  99 133 192 231 278 351 419
#     4  12  24  48  72 100 140 176 231 291 350 423
#     4  12  28  44  74 110 136 180 234 288 364 418
#     4  11  24  44  63 101 142 180 238 287 333 403
#
# _framework density 19.768917999999999
#
# number of rings (size 3 to 8) (size 9 to 14) (size 15 to 20)
#    0.000    0.235    9.412    0.000    0.000    1.412 
#   12.706    0.000    0.000    0.000    0.000    0.000 
#    0.000    0.000    0.000    0.000    0.000    0.000 
#
# Total GULP energy -94676.098376 kJ/mol
# GULP energy per Si atom -5569.182257 kJ/mol
# Density = 1.972392 g / cm^3
# Si number density = 19.768918 Si / 1000 Ang^3
#
#
#
# Elastic Constant Matrix: (Units=GPa)
#
#
# Indices 1 2 3 4 5 6 
#
# 1 95.6394 50.6389 54.3012 0.0000 0.0000 0.0000
# 2 50.6389 173.9608 72.8311 0.0000 0.0000 0.0000
# 3 54.3012 72.8311 135.3398 0.0000 0.0000 0.0000
# 4 0.0000 0.0000 0.0000 65.6401 0.0000 0.0000
# 5 0.0000 0.0000 0.0000 0.0000 -52.7352 0.0000
# 6 0.0000 0.0000 0.0000 0.0000 0.0000 31.1486
#
#
#
# Elastic Compliance Matrix: (Units=1/GPa)
#
#
# Indices 1 2 3 4 5 6 
#
# 1 0.014195 -0.002256 -0.004481 0.000000 0.000000 0.000000
# 2 -0.002256 0.007779 -0.003281 0.000000 0.000000 0.000000
# 3 -0.004481 -0.003281 0.010952 0.000000 0.000000 0.000000
# 4 0.000000 0.000000 0.000000 0.015235 0.000000 0.000000
# 5 0.000000 0.000000 0.000000 0.000000 -0.018963 0.000000
# 6 0.000000 0.000000 0.000000 0.000000 0.000000 0.032104
#
#
# Mechanical properties :
#
#
# Convention : Reuss Voigt Hill
#
# Bulk Modulus (GPa) = 77.58117 84.49803 81.03960
# Shear Modulus (GPa) = 58.38777 23.95529 41.17153
#
# Velocity S-wave (km/s) = 5.44052 3.48482 4.56855
# Velocity P-wave (km/s) = 8.87665 7.68294 8.30128
#
# Compressibility (1/GPa) = 0.01288973
#
# Stress axis : x y z
#
# Youngs Moduli (GPa) = 70.44893 128.55663 91.30462
#
# Poissons Ratio (x) = 0.29000 0.40916
# Poissons Ratio (y) = 0.15892 0.29956
# Poissons Ratio (z) = 0.31570 0.42178
#
# Static dielectric constant tensor:
#      x y z
#    x 1.675240 0.000000 0.000000 
#    y 0.000000 1.818280 0.000000 
#    z 0.000000 0.000000 1.838400 
# 
# From -- ./inp_files/32887.got.cif
#   From: 2010.05.17/outbox.cif.g08.bks.cpg/sg22_17_cif.got.tgz:32887.got - 2010.06.03 23:40:54.
