data_PCOD9329120
_publ_section_title
;
Structure prediction by ZEFSAII (Michael W. Deem and Ramdas Pophale) SiO2 
 PCOD9329120
Probable space group: F 2 2 2
;
_chemical_formula_sum "Si O2"
_cell_formula_units_Z 64
_cell_length_a 26.305590
_cell_length_b 10.296325
_cell_length_c 11.437373
_cell_angle_alpha 90.000000
_cell_angle_beta 90.000000
_cell_angle_gamma 90.000000
_cell_volume 3097.822816
_symmetry_space_group_name_H-M "F 2 2 2"
_symmetry_group_IT_number 22
_symmetry_cell_setting 'orthorhombic'
loop_
_space_group_symop_operation_xyz
x,y,z
-x,-y,z
x,-y,-z
-x,y,-z
x,1/2+y,1/2+z
-x,1/2-y,1/2+z
x,1/2-y,1/2-z
-x,1/2+y,1/2-z
1/2+x,y,1/2+z
1/2-x,-y,1/2+z
1/2+x,-y,1/2-z
1/2-x,y,1/2-z
1/2+x,1/2+y,z
1/2-x,1/2-y,z
1/2+x,1/2-y,-z
1/2-x,1/2+y,-z
loop_
_atom_site_type_symbol
_atom_site_label
_atom_site_fract_x
_atom_site_fract_y
_atom_site_fract_z
Si Si1 0.000000 0.709371 0.000000
Si Si2 0.193346 0.740524 0.112936
Si Si3 0.353752 0.000000 0.000000
Si Si4 0.087110 0.101680 0.897079
Si Si5 0.928089 0.108083 0.689769
O O1 0.043360 0.795637 0.065785
O O2 0.976780 0.627975 0.106772
O O3 0.199946 0.750000 0.250000
O O4 0.250000 0.750000 0.057282
O O5 0.177340 0.598259 0.076771
O O6 0.143276 0.832466 0.095998
O O7 0.385826 0.082209 0.092308
O O8 0.074587 0.014138 0.780675
O O9 0.085751 0.000000 0.000000
O O10 0.920704 0.250000 0.750000
#
# Coordination Sequence:
#
# PCOD9329120 Si02
#       5
#     8  16   8  16  16
#     4  12  27  45  68 112 142 205 243 302 372 428
#     4  11  25  47  77 106 141 194 245 309 375 439
#     4  12  24  49  72 108 144 185 240 308 368 444
#     4  12  25  50  71 105 154 194 243 308 368 445
#     4  12  27  45  73 105 145 193 247 298 368 437
#
# _framework density 20.659670999999999
#
# number of rings (size 3 to 8) (size 9 to 14) (size 15 to 20)
#    0.000    0.250    7.500    0.375    1.750    5.500 
#    0.000    0.000    0.000    0.000    0.000    0.000 
#    0.000    0.000    0.000    0.000    0.000    0.000 
#
# Total GULP energy -89175.012876 kJ/mol
# GULP energy per Si atom -5573.438305 kJ/mol
# Density = 2.061265 g / cm^3
# Si number density = 20.659671 Si / 1000 Ang^3
#
#
#
# Elastic Constant Matrix: (Units=GPa)
#
#
# Indices 1 2 3 4 5 6 
#
# 1 163.7566 79.5866 36.4322 0.0000 0.0000 0.0000
# 2 79.5866 133.8213 48.1196 0.0000 0.0000 0.0000
# 3 36.4322 48.1196 100.1945 0.0000 0.0000 0.0000
# 4 0.0000 0.0000 0.0000 47.5512 0.0000 0.0000
# 5 0.0000 0.0000 0.0000 0.0000 74.3354 0.0000
# 6 0.0000 0.0000 0.0000 0.0000 0.0000 51.9538
#
#
#
# Elastic Compliance Matrix: (Units=1/GPa)
#
#
# Indices 1 2 3 4 5 6 
#
# 1 0.008644 -0.004848 -0.000815 0.000000 0.000000 0.000000
# 2 -0.004848 0.011751 -0.003881 0.000000 0.000000 0.000000
# 3 -0.000815 -0.003881 0.012141 0.000000 0.000000 0.000000
# 4 0.000000 0.000000 0.000000 0.021030 0.000000 0.000000
# 5 0.000000 0.000000 0.000000 0.000000 0.013453 0.000000
# 6 0.000000 0.000000 0.000000 0.000000 0.000000 0.019248
#
#
# Mechanical properties :
#
#
# Convention : Reuss Voigt Hill
#
# Bulk Modulus (GPa) = 74.35617 80.67214 77.51416
# Shear Modulus (GPa) = 45.52226 50.34369 47.93298
#
# Velocity S-wave (km/s) = 4.69917 4.94176 4.82199
# Velocity P-wave (km/s) = 8.09395 8.46724 8.28270
#
# Compressibility (1/GPa) = 0.01344878
#
# Stress axis : x y z
#
# Youngs Moduli (GPa) = 115.68790 85.09751 82.36717
#
# Poissons Ratio (x) = 0.41253 0.06712
# Poissons Ratio (y) = 0.56082 0.31966
# Poissons Ratio (z) = 0.09427 0.33026
#
# Static dielectric constant tensor:
#      x y z
#    x 1.956900 0.000000 0.000000 
#    y 0.000000 1.748980 0.000000 
#    z 0.000000 0.000000 1.712610 
# 
# From -- ./inp_files/16947.got.cif
#   From: 2010.05.17/outbox.cif.g08.bks.cpg/sg22_9_cif.got.tgz:16947.got - 2010.06.03 23:40:54.
