data_PCOD9329432
_publ_section_title
;
Structure prediction by ZEFSAII (Michael W. Deem and Ramdas Pophale) SiO2 
 PCOD9329432
Probable space group: I 2 2 2
;
_chemical_formula_sum "Si O2"
_cell_formula_units_Z 44
_cell_length_a 16.128303
_cell_length_b 25.589050
_cell_length_c 5.604350
_cell_angle_alpha 90.000000
_cell_angle_beta 90.000000
_cell_angle_gamma 90.000000
_cell_volume 2312.959810
_symmetry_space_group_name_H-M "I 2 2 2"
_symmetry_group_IT_number 23
_symmetry_cell_setting 'orthorhombic'
loop_
_space_group_symop_operation_xyz
x,y,z
-x,-y,z
x,-y,-z
-x,y,-z
1/2+x,1/2+y,1/2+z
1/2-x,1/2-y,1/2+z
1/2+x,1/2-y,1/2-z
1/2-x,1/2+y,1/2-z
loop_
_atom_site_type_symbol
_atom_site_label
_atom_site_fract_x
_atom_site_fract_y
_atom_site_fract_z
Si Si1 0.000000 0.906991 0.500000
Si Si2 0.406300 0.445402 0.394033
Si Si3 0.287993 0.155427 0.375196
Si Si4 0.629556 0.733080 0.359768
Si Si5 0.595660 0.689734 0.853153
Si Si6 0.745197 0.365352 0.617639
O O1 0.930113 0.942319 0.616171
O O2 0.953817 0.864488 0.335177
O O3 0.375808 0.500000 0.500000
O O4 0.500000 0.438967 0.500000
O O5 0.337210 0.400720 0.414548
O O6 0.343409 0.207164 0.365635
O O7 0.192158 0.173886 0.364141
O O8 0.291400 0.126121 0.629881
O O9 0.298778 0.126942 0.121018
O O10 0.584677 0.721376 0.610292
O O11 0.710871 0.694727 0.367196
O O12 0.583500 0.717449 0.112249
#
# Coordination Sequence:
#
# PCOD9329432 Si02
#       6
#     4   8   8   8   8   8
#     4  12  22  37  50  66  94 130 170 218 259 288
#     4  11  24  37  49  62  88 130 178 219 252 278
#     4  10  17  30  50  68  91 106 144 196 254 297
#     4  10  17  30  48  73  87 111 141 199 247 305
#     4  10  19  28  48  67  93 114 148 190 250 288
#     4  10  18  32  45  68  85 113 147 200 253 282
#
# _framework density 19.023243999999998
#
# number of rings (size 3 to 8) (size 9 to 14) (size 15 to 20)
#    0.000    1.636    3.636    7.636    0.000    1.455 
#    0.000    0.000    0.000    0.000    0.000    0.000 
#    0.000    0.000    0.000    0.000    0.000    0.000 
#
# Total GULP energy -122499.754111 kJ/mol
# GULP energy per Si atom -5568.170641 kJ/mol
# Density = 1.897995 g / cm^3
# Si number density = 19.023244 Si / 1000 Ang^3
#
#
#
# Elastic Constant Matrix: (Units=GPa)
#
#
# Indices 1 2 3 4 5 6 
#
# 1 11.4465 16.0302 15.6204 0.0000 0.0000 0.0000
# 2 16.0302 65.4904 28.5561 0.0000 0.0000 0.0000
# 3 15.6204 28.5561 159.2828 0.0003 0.0003 0.0001
# 4 0.0000 0.0000 0.0003 18.1620 0.0000 0.0000
# 5 0.0000 0.0000 0.0003 0.0000 22.5664 0.0000
# 6 0.0000 0.0000 0.0001 0.0000 0.0000 15.2190
#
#
#
# Elastic Compliance Matrix: (Units=1/GPa)
#
#
# Indices 1 2 3 4 5 6 
#
# 1 0.142544 -0.031237 -0.008379 0.000000 0.000000 0.000000
# 2 -0.031237 0.023410 -0.001134 0.000000 0.000000 0.000000
# 3 -0.008379 -0.001134 0.007303 0.000000 0.000000 0.000000
# 4 0.000000 0.000000 0.000000 0.055060 0.000000 0.000000
# 5 0.000000 0.000000 0.000000 0.000000 0.044314 0.000000
# 6 0.000000 0.000000 0.000000 0.000000 0.000000 0.065708
#
#
# Mechanical properties :
#
#
# Convention : Reuss Voigt Hill
#
# Bulk Modulus (GPa) = 10.89831 39.62591 25.26211
# Shear Modulus (GPa) = 11.10069 22.92367 17.01218
#
# Velocity S-wave (km/s) = 2.41826 3.47513 2.99370
# Velocity P-wave (km/s) = 3.67950 6.08091 5.02574
#
# Compressibility (1/GPa) = 0.09175732
#
# Stress axis : x y z
#
# Youngs Moduli (GPa) = 7.01539 42.71731 136.92945
#
# Poissons Ratio (x) = 1.33438 1.14729
# Poissons Ratio (y) = 0.21914 0.15521
# Poissons Ratio (z) = 0.05878 0.04842
#
# Static dielectric constant tensor:
#      x y z
#    x 1.667770 0.000000 0.000000 
#    y 0.000000 1.638460 0.000000 
#    z 0.000000 0.000000 1.952420 
# 
# From -- ./inp_files/3340.got.cif
#   From: 2010.05.17/outbox.cif.g08.bks.cpg/sg23_2_cif.got.tgz:3340.got - 2010.06.04 12:02:01.
