data_PCOD9329477
_publ_section_title
;
Structure prediction by ZEFSAII (Michael W. Deem and Ramdas Pophale) SiO2 
 PCOD9329477
Probable space group: I 2 2 2
;
_chemical_formula_sum "Si O2"
_cell_formula_units_Z 64
_cell_length_a 26.696590
_cell_length_b 7.717012
_cell_length_c 12.517585
_cell_angle_alpha 90.000000
_cell_angle_beta 90.000000
_cell_angle_gamma 90.000000
_cell_volume 2578.846642
_symmetry_space_group_name_H-M "I 2 2 2"
_symmetry_group_IT_number 23
_symmetry_cell_setting 'orthorhombic'
loop_
_space_group_symop_operation_xyz
x,y,z
-x,-y,z
x,-y,-z
-x,y,-z
1/2+x,1/2+y,1/2+z
1/2-x,1/2-y,1/2+z
1/2+x,1/2-y,1/2-z
1/2-x,1/2+y,1/2-z
loop_
_atom_site_type_symbol
_atom_site_label
_atom_site_fract_x
_atom_site_fract_y
_atom_site_fract_z
Si Si1 0.527646 0.311600 0.289629
Si Si2 0.600867 0.292110 0.486957
Si Si3 0.708007 0.225033 0.430652
Si Si4 0.801912 0.901555 0.641870
Si Si5 0.848987 0.457670 0.384553
Si Si6 0.922780 0.307594 0.229639
Si Si7 0.902543 0.967927 0.376438
Si Si8 0.260011 0.583513 0.645041
O O1 0.500000 0.500000 0.304029
O O2 0.557051 0.274943 0.399431
O O3 0.482550 0.181301 0.267033
O O4 0.564925 0.329413 0.188499
O O5 0.611490 0.500000 0.500000
O O6 0.649556 0.196910 0.440120
O O7 0.590021 0.222709 0.605468
O O8 0.745176 0.072065 0.396913
O O9 0.725723 0.313088 0.540262
O O10 0.719009 0.386269 0.352186
O O11 0.825326 0.731957 0.588671
O O12 0.842209 0.051624 0.626527
O O13 0.792979 0.837688 0.761675
O O14 0.872215 0.500000 0.500000
O O15 0.888916 0.448273 0.289578
O O16 0.799915 0.567258 0.351184
O O17 0.910410 0.137546 0.301931
O O18 0.917579 0.000000 0.500000
#
# Coordination Sequence:
#
# PCOD9329477 Si02
#       8
#     8   8   8   8   8   8   8   8
#     4  10  20  33  57  90 127 171 208 276 342 388
#     4  12  18  33  58  88 130 164 218 265 335 401
#     4  10  19  32  53  84 119 168 204 257 312 399
#     4  10  20  36  54  85 114 165 215 256 324 391
#     4  10  19  38  56  82 126 176 222 270 319 400
#     4  10  22  34  58  89 121 172 222 264 337 397
#     4  10  20  35  52  86 132 165 202 268 339 399
#     4  10  17  34  56  78 119 165 219 253 309 389
#
# _framework density 24.817297
#
# number of rings (size 3 to 8) (size 9 to 14) (size 15 to 20)
#    0.000    1.750    6.250    2.625    0.000    2.250 
#    9.000    0.000    0.000    0.000    0.000   16.625 
#    0.000   10.000    0.000    0.000    0.000    0.000 
#
# Total GULP energy -178831.556766 kJ/mol
# GULP energy per Si atom -5588.486149 kJ/mol
# Density = 2.476081 g / cm^3
# Si number density = 24.817297 Si / 1000 Ang^3
#
#
#
# Elastic Constant Matrix: (Units=GPa)
#
#
# Indices 1 2 3 4 5 6 
#
# 1 178.3035 28.8623 78.3966 0.0000 0.0000 0.0000
# 2 28.8623 49.8370 8.8229 0.0000 0.0000 0.0000
# 3 78.3966 8.8229 176.3088 0.0000 0.0000 0.0000
# 4 0.0000 0.0000 0.0000 20.5612 0.0000 0.0000
# 5 0.0000 0.0000 0.0000 0.0000 42.9652 0.0000
# 6 0.0000 0.0000 0.0000 0.0000 0.0000 11.8205
#
#
#
# Elastic Compliance Matrix: (Units=1/GPa)
#
#
# Indices 1 2 3 4 5 6 
#
# 1 0.007642 -0.003858 -0.003205 0.000000 0.000000 0.000000
# 2 -0.003858 0.022193 0.000605 0.000000 0.000000 0.000000
# 3 -0.003205 0.000605 0.007067 0.000000 0.000000 0.000000
# 4 0.000000 0.000000 0.000000 0.048635 0.000000 0.000000
# 5 0.000000 0.000000 0.000000 0.000000 0.023275 0.000000
# 6 0.000000 0.000000 0.000000 0.000000 0.000000 0.084599
#
#
# Mechanical properties :
#
#
# Convention : Reuss Voigt Hill
#
# Bulk Modulus (GPa) = 41.69282 70.73477 56.21380
# Shear Modulus (GPa) = 23.32933 34.29387 28.81160
#
# Velocity S-wave (km/s) = 3.06934 3.72136 3.41097
# Velocity P-wave (km/s) = 5.42195 6.85775 6.18168
#
# Compressibility (1/GPa) = 0.02398495
#
# Stress axis : x y z
#
# Youngs Moduli (GPa) = 130.85259 45.05960 141.50817
#
# Poissons Ratio (x) = 0.17386 0.45354
# Poissons Ratio (y) = 0.50489 -0.08563
# Poissons Ratio (z) = 0.41939 -0.02727
#
# Static dielectric constant tensor:
#      x y z
#    x 2.011480 0.000000 0.000000 
#    y 0.000000 2.072490 0.000000 
#    z 0.000000 0.000000 1.997640 
# 
# From -- ./inp_files/18682.got.cif
#   From: 2010.05.17/outbox.cif.g08.bks.cpg/sg23_10_cif.got.tgz:18682.got - 2010.06.04 12:02:01.
