data_PCOD9329896
_publ_section_title
;
Structure prediction by ZEFSAII (Michael W. Deem and Ramdas Pophale) SiO2 
 PCOD9329896
Probable space group: I 2 2 2
;
_chemical_formula_sum "Si O2"
_cell_formula_units_Z 40
_cell_length_a 29.073313
_cell_length_b 6.996913
_cell_length_c 8.668411
_cell_angle_alpha 90.000000
_cell_angle_beta 90.000000
_cell_angle_gamma 90.000000
_cell_volume 1763.358000
_symmetry_space_group_name_H-M "I 2 2 2"
_symmetry_group_IT_number 23
_symmetry_cell_setting 'orthorhombic'
loop_
_space_group_symop_operation_xyz
x,y,z
-x,-y,z
x,-y,-z
-x,y,-z
1/2+x,1/2+y,1/2+z
1/2-x,1/2-y,1/2+z
1/2+x,1/2-y,1/2-z
1/2-x,1/2+y,1/2-z
loop_
_atom_site_type_symbol
_atom_site_label
_atom_site_fract_x
_atom_site_fract_y
_atom_site_fract_z
Si Si1 0.447017 0.016456 0.813482
Si Si2 0.601390 0.326041 0.408017
Si Si3 0.142541 0.652472 0.213448
Si Si4 0.779906 0.721348 0.554299
Si Si5 0.186465 0.228574 0.232291
O O1 0.428827 0.197846 0.709209
O O2 0.500000 0.000000 0.764255
O O3 0.409318 0.852739 0.779544
O O4 0.447494 0.000000 0.000000
O O5 0.577365 0.500000 0.500000
O O6 0.630273 0.210333 0.539275
O O7 0.644376 0.408962 0.311582
O O8 0.182262 0.753618 0.313258
O O9 0.161381 0.434807 0.235203
O O10 0.781797 0.500000 0.500000
O O11 0.791906 0.826906 0.396003
O O12 0.728796 0.748616 0.616381
#
# Coordination Sequence:
#
# PCOD9329896 Si02
#       5
#     8   8   8   8   8
#     4  10  21  42  71  97 124 167 215 261 326 405
#     4  11  23  40  62  95 133 163 209 274 330 389
#     4  10  21  39  61  87 123 165 211 260 323 399
#     4  10  20  34  55  85 122 166 221 272 320 383
#     4  10  19  34  56  83 121 170 216 262 323 391
#
# _framework density 22.683990000000001
#
# number of rings (size 3 to 8) (size 9 to 14) (size 15 to 20)
#    0.000    1.800    0.000    7.200    0.000    4.800 
#    0.000   10.000    0.000    2.400    0.000    0.000 
#    0.000    0.000    0.000    0.000    0.000    0.000 
#
# Total GULP energy -111335.410338 kJ/mol
# GULP energy per Si atom -5566.770517 kJ/mol
# Density = 2.263236 g / cm^3
# Si number density = 22.683990 Si / 1000 Ang^3
#
#
#
# Elastic Constant Matrix: (Units=GPa)
#
#
# Indices 1 2 3 4 5 6 
#
# 1 195.3161 19.9033 68.7814 0.0000 0.0000 0.0000
# 2 19.9033 49.8130 15.6974 0.0000 0.0000 0.0000
# 3 68.7814 15.6974 109.2981 0.0000 0.0000 0.0000
# 4 0.0000 0.0000 0.0000 35.8416 0.0000 0.0000
# 5 0.0000 0.0000 0.0000 0.0000 38.2782 0.0000
# 6 0.0000 0.0000 0.0000 0.0000 0.0000 18.0104
#
#
#
# Elastic Compliance Matrix: (Units=1/GPa)
#
#
# Indices 1 2 3 4 5 6 
#
# 1 0.006670 -0.001406 -0.003996 0.000000 0.000000 0.000000
# 2 -0.001406 0.021323 -0.002178 0.000000 0.000000 0.000000
# 3 -0.003996 -0.002178 0.011977 0.000000 0.000000 0.000000
# 4 0.000000 0.000000 0.000000 0.027901 0.000000 0.000000
# 5 0.000000 0.000000 0.000000 0.000000 0.026125 0.000000
# 6 0.000000 0.000000 0.000000 0.000000 0.000000 0.055523
#
#
# Mechanical properties :
#
#
# Convention : Reuss Voigt Hill
#
# Bulk Modulus (GPa) = 40.30431 62.57683 51.44057
# Shear Modulus (GPa) = 28.91053 35.09573 32.00313
#
# Velocity S-wave (km/s) = 3.57387 3.93766 3.76017
# Velocity P-wave (km/s) = 5.90224 6.95124 6.44811
#
# Compressibility (1/GPa) = 0.02481124
#
# Stress axis : x y z
#
# Youngs Moduli (GPa) = 149.91885 46.89755 83.49671
#
# Poissons Ratio (x) = 0.06594 0.33363
# Poissons Ratio (y) = 0.21079 0.18182
# Poissons Ratio (z) = 0.59903 0.10212
#
# Static dielectric constant tensor:
#      x y z
#    x 1.824920 0.000000 0.000000 
#    y 0.000000 2.046440 0.000000 
#    z 0.000000 0.000000 2.069520 
# 
# From -- ./inp_files/12893.got.cif
#   From: 2010.05.17/outbox.cif.g08.bks.cpg/sg23_7_cif.got.tgz:12893.got - 2010.06.04 12:02:01.
