data_PCOD9329562
_publ_section_title
;
Structure prediction by ZEFSAII (Michael W. Deem and Ramdas Pophale) SiO2 
 PCOD9329562
Probable space group: I 2 2 2
;
_chemical_formula_sum "Si O2"
_cell_formula_units_Z 42
_cell_length_a 12.775659
_cell_length_b 7.333231
_cell_length_c 24.059986
_cell_angle_alpha 90.000000
_cell_angle_beta 90.000000
_cell_angle_gamma 90.000000
_cell_volume 2254.104507
_symmetry_space_group_name_H-M "I 2 2 2"
_symmetry_group_IT_number 23
_symmetry_cell_setting 'orthorhombic'
loop_
_space_group_symop_operation_xyz
x,y,z
-x,-y,z
x,-y,-z
-x,y,-z
1/2+x,1/2+y,1/2+z
1/2-x,1/2-y,1/2+z
1/2+x,1/2-y,1/2-z
1/2-x,1/2+y,1/2-z
loop_
_atom_site_type_symbol
_atom_site_label
_atom_site_fract_x
_atom_site_fract_y
_atom_site_fract_z
Si Si1 0.960109 0.309192 0.083064
Si Si2 0.686991 0.290271 0.675392
Si Si3 0.363587 0.295165 0.669862
Si Si4 0.361844 0.299364 0.199627
Si Si5 0.908685 0.765902 0.295017
Si Si6 0.000000 0.000000 0.000000
O O1 0.862980 0.326820 0.126099
O O2 0.000000 0.500000 0.058473
O O3 0.058784 0.257737 0.121560
O O4 0.939958 0.143815 0.040091
O O5 0.633427 0.486526 0.672397
O O6 0.664507 0.223923 0.738318
O O7 0.811376 0.320613 0.672995
O O8 0.242250 0.237274 0.664546
O O9 0.403117 0.219781 0.729417
O O10 0.381870 0.517155 0.202503
O O11 0.475595 0.224865 0.183143
#
# Coordination Sequence:
#
# PCOD9329562 Si02
#       6
#     8   8   8   8   8   2
#     4  12  23  39  61  82 109 147 188 239 292 331
#     4  10  18  32  50  75 114 149 183 231 278 328
#     4  10  18  32  50  75 114 149 183 231 278 328
#     4   9  17  29  47  76 114 153 189 217 266 347
#     4   9  17  29  47  76 114 153 189 217 266 347
#     4  12  26  44  60  82 110 144 202 248 284 326
#
# _framework density 18.632676
#
# number of rings (size 3 to 8) (size 9 to 14) (size 15 to 20)
#    0.000    1.905    3.810    1.429    0.000    2.286 
#    0.000    0.000    0.000    0.000    0.000    2.667 
#    0.000    6.095    0.000    0.000    0.000    0.000 
#
# Total GULP energy -117103.802568 kJ/mol
# GULP energy per Si atom -5576.371551 kJ/mol
# Density = 1.859027 g / cm^3
# Si number density = 18.632676 Si / 1000 Ang^3
#
#
#
# Elastic Constant Matrix: (Units=GPa)
#
#
# Indices 1 2 3 4 5 6 
#
# 1 139.5127 0.9679 28.5978 0.0000 0.0000 0.0000
# 2 0.9679 54.4270 13.1289 0.0000 0.0000 0.0000
# 3 28.5978 13.1289 61.3968 0.0000 0.0000 0.0000
# 4 0.0000 0.0000 0.0000 17.2689 0.0000 0.0000
# 5 0.0000 0.0000 0.0000 0.0000 3.6746 0.0000
# 6 0.0000 0.0000 0.0000 0.0000 0.0000 27.7662
#
#
#
# Elastic Compliance Matrix: (Units=1/GPa)
#
#
# Indices 1 2 3 4 5 6 
#
# 1 0.007957 0.000793 -0.003876 0.000000 0.000000 0.000000
# 2 0.000793 0.019452 -0.004529 0.000000 0.000000 0.000000
# 3 -0.003876 -0.004529 0.019061 0.000000 0.000000 0.000000
# 4 0.000000 0.000000 0.000000 0.057908 0.000000 0.000000
# 5 0.000000 0.000000 0.000000 0.000000 0.272138 0.000000
# 6 0.000000 0.000000 0.000000 0.000000 0.000000 0.036015
#
#
# Mechanical properties :
#
#
# Convention : Reuss Voigt Hill
#
# Bulk Modulus (GPa) = 32.00327 37.85842 34.93084
# Shear Modulus (GPa) = 11.41113 23.91806 17.66459
#
# Velocity S-wave (km/s) = 2.47741 3.58671 3.08237
# Velocity P-wave (km/s) = 5.03950 6.12495 5.60855
#
# Compressibility (1/GPa) = 0.03124680
#
# Stress axis : x y z
#
# Youngs Moduli (GPa) = 125.67888 51.40961 52.46237
#
# Poissons Ratio (x) = -0.04079 0.20334
# Poissons Ratio (y) = -0.09972 0.23760
# Poissons Ratio (z) = 0.48711 0.23284
#
# Static dielectric constant tensor:
#      x y z
#    x 1.679450 0.000000 0.000000 
#    y 0.000000 1.748720 0.000000 
#    z 0.000000 0.000000 1.637240 
# 
# From -- ./inp_files/8596.got.cif
#   From: 2010.05.17/outbox.cif.g08.bks.cpg/sg23_5_cif.got.tgz:8596.got - 2010.06.04 12:02:01.
