data_PCOD9329166
_publ_section_title
;
Structure prediction by ZEFSAII (Michael W. Deem and Ramdas Pophale) SiO2 
 PCOD9329166
Probable space group: F 2 2 2
;
_chemical_formula_sum "Si O2"
_cell_formula_units_Z 92
_cell_length_a 8.717890
_cell_length_b 21.978165
_cell_length_c 20.775033
_cell_angle_alpha 90.000000
_cell_angle_beta 90.000000
_cell_angle_gamma 90.000000
_cell_volume 3980.563320
_symmetry_space_group_name_H-M "F 2 2 2"
_symmetry_group_IT_number 22
_symmetry_cell_setting 'orthorhombic'
loop_
_space_group_symop_operation_xyz
x,y,z
-x,-y,z
x,-y,-z
-x,y,-z
x,1/2+y,1/2+z
-x,1/2-y,1/2+z
x,1/2-y,1/2-z
-x,1/2+y,1/2-z
1/2+x,y,1/2+z
1/2-x,-y,1/2+z
1/2+x,-y,1/2-z
1/2-x,y,1/2-z
1/2+x,1/2+y,z
1/2-x,1/2-y,z
1/2+x,1/2-y,-z
1/2-x,1/2+y,-z
loop_
_atom_site_type_symbol
_atom_site_label
_atom_site_fract_x
_atom_site_fract_y
_atom_site_fract_z
Si Si1 0.714780 0.920129 0.160135
Si Si2 0.184385 0.070084 0.013157
Si Si3 0.986544 0.680692 0.815234
Si Si4 0.240318 0.816412 0.074695
Si Si5 0.750000 0.750000 0.250000
Si Si6 0.750000 0.969737 0.750000
Si Si7 0.957500 0.632173 0.686275
O O1 0.770018 0.922868 0.087075
O O2 0.556929 0.884697 0.166822
O O3 0.862813 0.884974 0.190742
O O4 0.690169 0.983872 0.195725
O O5 0.259328 0.125376 0.972154
O O6 0.000000 0.074043 0.000000
O O7 0.229674 0.000000 0.000000
O O8 0.135114 0.720035 0.801520
O O9 0.870607 0.694205 0.871476
O O10 0.916962 0.677171 0.744144
O O11 0.250000 0.750000 0.040019
O O12 0.094723 0.837997 0.119104
O O13 0.863982 0.927846 0.792270
#
# Coordination Sequence:
#
# PCOD9329166 Si02
#       7
#    16  16  16  16   4   8  16
#     4  12  25  44  70 107 142 193 248 308 374 445
#     4  11  26  50  78 106 147 204 256 305 367 453
#     4  12  25  43  70 108 148 190 244 309 380 449
#     4  12  27  49  75 110 152 201 252 314 378 452
#     4  12  22  44  70 104 144 198 238 308 384 460
#     4  12  23  38  77 109 150 185 250 320 384 446
#     4  12  22  43  70 111 144 189 244 306 381 448
#
# _framework density 23.112307999999999
#
# number of rings (size 3 to 8) (size 9 to 14) (size 15 to 20)
#    0.000    0.174    6.957    2.609    2.435    1.391 
#    4.696    0.870    0.000    0.000    0.000    0.000 
#    0.000    0.000    0.000    0.000    0.000    0.000 
#
# Total GULP energy -128331.216566 kJ/mol
# GULP energy per Si atom -5579.618112 kJ/mol
# Density = 2.305970 g / cm^3
# Si number density = 23.112308 Si / 1000 Ang^3
#
#
#
# Elastic Constant Matrix: (Units=GPa)
#
#
# Indices 1 2 3 4 5 6 
#
# 1 47.1809 20.7542 -13.0855 0.0000 0.0000 0.0000
# 2 20.7542 136.8596 29.9206 0.0000 0.0000 0.0000
# 3 -13.0855 29.9206 113.8928 0.0000 0.0000 0.0000
# 4 0.0000 0.0000 0.0000 29.1947 0.0000 0.0000
# 5 0.0000 0.0000 0.0000 0.0000 27.3249 0.0000
# 6 0.0000 0.0000 0.0000 0.0000 0.0000 10.9058
#
#
#
# Elastic Compliance Matrix: (Units=1/GPa)
#
#
# Indices 1 2 3 4 5 6 
#
# 1 0.024307 -0.004558 0.003990 0.000000 0.000000 0.000000
# 2 -0.004558 0.008607 -0.002785 0.000000 0.000000 0.000000
# 3 0.003990 -0.002785 0.009970 0.000000 0.000000 0.000000
# 4 0.000000 0.000000 0.000000 0.034253 0.000000 0.000000
# 5 0.000000 0.000000 0.000000 0.000000 0.036597 0.000000
# 6 0.000000 0.000000 0.000000 0.000000 0.000000 0.091694
#
#
# Mechanical properties :
#
#
# Convention : Reuss Voigt Hill
#
# Bulk Modulus (GPa) = 27.64115 41.45690 34.54903
# Shear Modulus (GPa) = 22.30221 30.84134 26.57177
#
# Velocity S-wave (km/s) = 3.10973 3.65692 3.39437
# Velocity P-wave (km/s) = 4.98792 5.98388 5.50846
#
# Compressibility (1/GPa) = 0.03617794
#
# Stress axis : x y z
#
# Youngs Moduli (GPa) = 41.14066 116.18657 100.29853
#
# Poissons Ratio (x) = 0.52962 -0.40021
# Poissons Ratio (y) = 0.18754 0.27931
# Poissons Ratio (z) = -0.16416 0.32356
#
# Static dielectric constant tensor:
#      x y z
#    x 1.898450 0.000000 0.000000 
#    y 0.000000 1.992470 0.000000 
#    z 0.000000 0.000000 1.903580 
# 
# From -- ./inp_files/41889.got.cif
#   From: 2010.05.17/outbox.cif.g08.bks.cpg/sg22_21_cif.got.tgz:41889.got - 2010.06.03 23:40:54.
