data_PCOD9329700
_publ_section_title
;
Structure prediction by ZEFSAII (Michael W. Deem and Ramdas Pophale) SiO2 
 PCOD9329700
Probable space group: I 2 2 2
;
_chemical_formula_sum "Si O2"
_cell_formula_units_Z 48
_cell_length_a 16.063023
_cell_length_b 7.736971
_cell_length_c 17.139528
_cell_angle_alpha 90.000000
_cell_angle_beta 90.000000
_cell_angle_gamma 90.000000
_cell_volume 2130.085853
_symmetry_space_group_name_H-M "I 2 2 2"
_symmetry_group_IT_number 23
_symmetry_cell_setting 'orthorhombic'
loop_
_space_group_symop_operation_xyz
x,y,z
-x,-y,z
x,-y,-z
-x,y,-z
1/2+x,1/2+y,1/2+z
1/2-x,1/2-y,1/2+z
1/2+x,1/2-y,1/2-z
1/2-x,1/2+y,1/2-z
loop_
_atom_site_type_symbol
_atom_site_label
_atom_site_fract_x
_atom_site_fract_y
_atom_site_fract_z
Si Si1 0.794468 0.741071 0.621356
Si Si2 0.122626 0.090935 0.084385
Si Si3 0.841770 0.651454 0.316416
Si Si4 0.983923 0.686126 0.182945
Si Si5 0.090902 0.292682 0.482130
Si Si6 0.160218 0.826380 0.223040
O O1 0.699499 0.724618 0.593592
O O2 0.821249 0.552033 0.660425
O O3 0.845367 0.779275 0.544240
O O4 0.819222 0.876106 0.688117
O O5 0.039826 0.185554 0.113340
O O6 0.142922 0.958650 0.153757
O O7 0.121766 0.000000 0.000000
O O8 0.907581 0.673312 0.245440
O O9 0.883099 0.727836 0.393500
O O10 0.752951 0.741636 0.299228
O O11 0.000000 0.500000 0.147295
O O12 0.070764 0.731991 0.224905
O O13 0.090732 0.500000 0.500000
O O14 0.000000 0.225202 0.500000
#
# Coordination Sequence:
#
# PCOD9329700 Si02
#       6
#     8   8   8   8   8   8
#     4  10  18  37  65  99 134 177 229 284 355 430
#     4  11  25  46  67  96 141 193 243 295 363 437
#     4  10  20  37  60  98 140 169 228 289 352 425
#     4  12  24  41  69 100 138 183 246 299 355 435
#     4   9  17  29  57  95 127 164 210 274 340 417
#     4  11  22  38  67  98 136 184 231 292 361 424
#
# _framework density 22.534302
#
# number of rings (size 3 to 8) (size 9 to 14) (size 15 to 20)
#    0.000    1.500    3.333    4.000    2.333    1.333 
#    0.000    1.667    0.000    1.000    0.000    3.500 
#    0.000    0.000    0.000    0.000    0.000    0.000 
#
# Total GULP energy -133836.054950 kJ/mol
# GULP energy per Si atom -5576.502290 kJ/mol
# Density = 2.248301 g / cm^3
# Si number density = 22.534302 Si / 1000 Ang^3
#
#
#
# Elastic Constant Matrix: (Units=GPa)
#
#
# Indices 1 2 3 4 5 6 
#
# 1 164.3149 31.9929 33.6843 0.0000 0.0000 0.0000
# 2 31.9929 48.3244 45.9559 0.0000 0.0000 0.0000
# 3 33.6843 45.9559 144.6984 0.0000 0.0000 0.0000
# 4 0.0000 0.0000 0.0000 23.0313 0.0000 0.0000
# 5 0.0000 0.0000 0.0000 0.0000 31.2972 0.0000
# 6 0.0000 0.0000 0.0000 0.0000 0.0000 11.2610
#
#
#
# Elastic Compliance Matrix: (Units=1/GPa)
#
#
# Indices 1 2 3 4 5 6 
#
# 1 0.006992 -0.004414 -0.000226 0.000000 0.000000 0.000000
# 2 -0.004414 0.032435 -0.009274 0.000000 0.000000 0.000000
# 3 -0.000226 -0.009274 0.009909 0.000000 0.000000 0.000000
# 4 0.000000 0.000000 0.000000 0.043419 0.000000 0.000000
# 5 0.000000 0.000000 0.000000 0.000000 0.031952 0.000000
# 6 0.000000 0.000000 0.000000 0.000000 0.000000 0.088802
#
#
# Mechanical properties :
#
#
# Convention : Reuss Voigt Hill
#
# Bulk Modulus (GPa) = 46.49359 64.51155 55.50257
# Shear Modulus (GPa) = 20.12036 29.49823 24.80929
#
# Velocity S-wave (km/s) = 2.99135 3.62199 3.32167
# Velocity P-wave (km/s) = 5.71034 6.79574 6.27655
#
# Compressibility (1/GPa) = 0.02150834
#
# Stress axis : x y z
#
# Youngs Moduli (GPa) = 143.02896 30.83085 100.92067
#
# Poissons Ratio (x) = 0.13609 0.02277
# Poissons Ratio (y) = 0.63135 0.93591
# Poissons Ratio (z) = 0.03227 0.28592
#
# Static dielectric constant tensor:
#      x y z
#    x 1.873280 0.000000 0.000000 
#    y 0.000000 1.992040 0.000000 
#    z 0.000000 0.000000 1.815910 
# 
# From -- ./inp_files/24724.got.cif
#   From: 2010.05.17/outbox.cif.g08.bks.cpg/sg23_13_cif.got.tgz:24724.got - 2010.06.04 12:02:01.
