data_PCOD9329253
_publ_section_title
;
Structure prediction by ZEFSAII (Michael W. Deem and Ramdas Pophale) SiO2 
 PCOD9329253
Probable space group: F 2 2 2
;
_chemical_formula_sum "Si O2"
_cell_formula_units_Z 56
_cell_length_a 28.282800
_cell_length_b 15.640824
_cell_length_c 4.953052
_cell_angle_alpha 90.000000
_cell_angle_beta 90.000000
_cell_angle_gamma 90.000000
_cell_volume 2191.063272
_symmetry_space_group_name_H-M "F 2 2 2"
_symmetry_group_IT_number 22
_symmetry_cell_setting 'orthorhombic'
loop_
_space_group_symop_operation_xyz
x,y,z
-x,-y,z
x,-y,-z
-x,y,-z
x,1/2+y,1/2+z
-x,1/2-y,1/2+z
x,1/2-y,1/2-z
-x,1/2+y,1/2-z
1/2+x,y,1/2+z
1/2-x,-y,1/2+z
1/2+x,-y,1/2-z
1/2-x,y,1/2-z
1/2+x,1/2+y,z
1/2-x,1/2-y,z
1/2+x,1/2-y,-z
1/2-x,1/2+y,-z
loop_
_atom_site_type_symbol
_atom_site_label
_atom_site_fract_x
_atom_site_fract_y
_atom_site_fract_z
Si Si1 0.250000 0.250000 0.750000
Si Si2 0.672675 0.660793 0.125824
Si Si3 0.415274 0.919292 0.807256
Si Si4 0.533970 0.750000 0.250000
Si Si5 0.750000 0.445068 0.750000
Si Si6 0.000000 0.500000 0.500000
O O1 0.286979 0.189842 0.586064
O O2 0.657349 0.750000 0.250000
O O3 0.626417 0.602863 0.091384
O O4 0.704830 0.609418 0.339035
O O5 0.432867 0.823660 0.891326
O O6 0.464105 0.949438 0.683196
O O7 0.400849 0.000000 0.000000
O O8 0.500000 0.778525 0.500000
O O9 0.767104 0.500000 0.500000
#
# Coordination Sequence:
#
# PCOD9329253 Si02
#       6
#     4  16  16   8   8   4
#     4  12  24  50  80 116 172 218 292 362 426 532
#     4  12  26  49  78 114 163 225 282 348 439 519
#     4  12  28  50  80 121 169 225 289 357 434 529
#     4  12  26  51  84 121 172 231 289 364 444 508
#     4  12  26  46  75 115 162 210 278 362 422 503
#     4  12  26  52  76 118 162 216 278 360 422 514
#
# _framework density 25.558368000000002
#
# number of rings (size 3 to 8) (size 9 to 14) (size 15 to 20)
#    0.000    0.000    5.714    3.857    2.000    3.429 
#    0.000    0.000    0.000    0.000    0.000    0.000 
#    0.000    0.000    0.000    0.000    0.000    0.000 
#
# Total GULP energy -77953.302461 kJ/mol
# GULP energy per Si atom -5568.093033 kJ/mol
# Density = 2.550020 g / cm^3
# Si number density = 25.558368 Si / 1000 Ang^3
#
#
#
# Elastic Constant Matrix: (Units=GPa)
#
#
# Indices 1 2 3 4 5 6 
#
# 1 208.8301 67.1919 47.2306 0.0005 -0.0003 0.0001
# 2 67.1919 161.9775 40.4244 0.0013 -0.0007 0.0000
# 3 47.2306 40.4244 84.3222 0.0042 0.0009 0.0002
# 4 0.0005 0.0013 0.0042 25.8454 0.0000 0.0000
# 5 -0.0003 -0.0007 0.0009 0.0000 -605.7967 0.0039
# 6 0.0001 0.0000 0.0002 0.0000 0.0039 63.0222
#
#
#
# Elastic Compliance Matrix: (Units=1/GPa)
#
#
# Indices 1 2 3 4 5 6 
#
# 1 0.005936 -0.001855 -0.002436 0.000000 0.000000 0.000000
# 2 -0.001855 0.007592 -0.002601 0.000000 0.000000 0.000000
# 3 -0.002436 -0.002601 0.014471 -0.000002 0.000000 0.000000
# 4 0.000000 0.000000 -0.000002 0.038692 0.000000 0.000000
# 5 0.000000 0.000000 0.000000 0.000000 -0.001651 0.000000
# 6 0.000000 0.000000 0.000000 0.000000 0.000000 0.015867
#
#
# Mechanical properties :
#
#
# Convention : Reuss Voigt Hill
#
# Bulk Modulus (GPa) = 70.34265 84.98041 77.66153
# Shear Modulus (GPa) = 50.28733 -83.36695 -16.53981
#
# Velocity S-wave (km/s) = 4.44052 -5.71744 -2.54665
# Velocity P-wave (km/s) = 7.33983 3.20370 4.66955
#
# Compressibility (1/GPa) = 0.01421613
#
# Stress axis : x y z
#
# Youngs Moduli (GPa) = 168.45747 131.71574 69.10576
#
# Poissons Ratio (x) = 0.24427 0.16834
# Poissons Ratio (y) = 0.31241 0.17974
# Poissons Ratio (z) = 0.41035 0.34258
#
# Static dielectric constant tensor:
#      x y z
#    x 1.948660 0.000000 0.000000 
#    y 0.000000 2.708940 0.000040 
#    z 0.000000 0.000040 2.623000 
# 
# From -- ./inp_files/6031.got.cif
#   From: 2010.05.17/outbox.cif.g08.bks.cpg/sg22_4_cif.got.tgz:6031.got - 2010.06.03 23:40:54.
