data_PCOD9329976
_publ_section_title
;
Structure prediction by ZEFSAII (Michael W. Deem and Ramdas Pophale) SiO2 
 PCOD9329976
Probable space group: I 2 2 2
;
_chemical_formula_sum "Si O2"
_cell_formula_units_Z 48
_cell_length_a 16.944855
_cell_length_b 17.047751
_cell_length_c 9.213939
_cell_angle_alpha 90.000000
_cell_angle_beta 90.000000
_cell_angle_gamma 90.000000
_cell_volume 2661.645935
_symmetry_space_group_name_H-M "I 2 2 2"
_symmetry_group_IT_number 23
_symmetry_cell_setting 'orthorhombic'
loop_
_space_group_symop_operation_xyz
x,y,z
-x,-y,z
x,-y,-z
-x,y,-z
1/2+x,1/2+y,1/2+z
1/2-x,1/2-y,1/2+z
1/2+x,1/2-y,1/2-z
1/2-x,1/2+y,1/2-z
loop_
_atom_site_type_symbol
_atom_site_label
_atom_site_fract_x
_atom_site_fract_y
_atom_site_fract_z
Si Si1 0.224445 0.057031 0.357916
Si Si2 0.843537 0.529469 0.341668
Si Si3 0.409150 0.518633 0.669601
Si Si4 0.296066 0.657442 0.672767
Si Si5 0.773106 0.698740 0.025930
Si Si6 0.079524 0.415519 0.075075
O O1 0.223912 0.145713 0.412747
O O2 0.227836 0.000000 0.500000
O O3 0.299146 0.037123 0.254778
O O4 0.147452 0.034466 0.267658
O O5 0.865601 0.500000 0.500000
O O6 0.774393 0.594846 0.354223
O O7 0.914910 0.564566 0.246091
O O8 0.500000 0.500000 0.703678
O O9 0.396754 0.500000 0.500000
O O10 0.375997 0.607002 0.690225
O O11 0.273720 0.700598 0.822908
O O12 0.295800 0.718749 0.542343
O O13 0.850638 0.645350 0.048613
O O14 0.092860 0.500000 0.000000
O O15 0.000000 0.385656 0.000000
#
# Coordination Sequence:
#
# PCOD9329976 Si02
#       6
#     8   8   8   8   8   8
#     4  11  17  36  60  84 109 153 203 246 294 359
#     4  10  19  35  60  87 112 145 204 247 281 351
#     4  10  22  40  59  86 121 158 207 250 299 369
#     4  10  22  35  57  91 115 155 197 244 309 346
#     4  11  21  36  57  87 118 150 196 250 298 355
#     4  10  19  37  59  79 111 155 193 227 295 362
#
# _framework density 18.033954000000001
#
# number of rings (size 3 to 8) (size 9 to 14) (size 15 to 20)
#    0.000    1.667    6.667    2.000    4.667    0.333 
#    3.000    1.667    0.000    0.000    0.000    0.000 
#    0.000    0.000    0.000    0.000    0.000    0.000 
#
# Total GULP energy -133811.009831 kJ/mol
# GULP energy per Si atom -5575.458743 kJ/mol
# Density = 1.799291 g / cm^3
# Si number density = 18.033954 Si / 1000 Ang^3
#
#
#
# Elastic Constant Matrix: (Units=GPa)
#
#
# Indices 1 2 3 4 5 6 
#
# 1 95.7510 11.6287 50.1096 0.0000 0.0000 0.0000
# 2 11.6287 56.1338 16.4554 0.0000 0.0000 0.0000
# 3 50.1096 16.4554 115.4919 0.0000 0.0000 0.0000
# 4 0.0000 0.0000 0.0000 39.8483 0.0000 0.0000
# 5 0.0000 0.0000 0.0000 0.0000 19.0841 0.0000
# 6 0.0000 0.0000 0.0000 0.0000 0.0000 13.8784
#
#
#
# Elastic Compliance Matrix: (Units=1/GPa)
#
#
# Indices 1 2 3 4 5 6 
#
# 1 0.013581 -0.001133 -0.005731 0.000000 0.000000 0.000000
# 2 -0.001133 0.018686 -0.002171 0.000000 0.000000 0.000000
# 3 -0.005731 -0.002171 0.011454 0.000000 0.000000 0.000000
# 4 0.000000 0.000000 0.000000 0.025095 0.000000 0.000000
# 5 0.000000 0.000000 0.000000 0.000000 0.052400 0.000000
# 6 0.000000 0.000000 0.000000 0.000000 0.000000 0.072055
#
#
# Mechanical properties :
#
#
# Convention : Reuss Voigt Hill
#
# Bulk Modulus (GPa) = 38.98491 47.08490 43.03491
# Shear Modulus (GPa) = 22.73867 27.17437 24.95652
#
# Velocity S-wave (km/s) = 3.55474 3.88602 3.72407
# Velocity P-wave (km/s) = 6.20586 6.80445 6.51204
#
# Compressibility (1/GPa) = 0.02565095
#
# Stress axis : x y z
#
# Youngs Moduli (GPa) = 73.63482 53.51697 87.30285
#
# Poissons Ratio (x) = 0.06065 0.50032
# Poissons Ratio (y) = 0.08346 0.18950
# Poissons Ratio (z) = 0.42199 0.11616
#
# Static dielectric constant tensor:
#      x y z
#    x 1.636070 0.000000 0.000000 
#    y 0.000000 1.619060 0.000000 
#    z 0.000000 0.000000 1.645920 
# 
# From -- ./inp_files/11171.got.cif
#   From: 2010.05.17/outbox.cif.g08.bks.cpg/sg23_6_cif.got.tgz:11171.got - 2010.06.04 12:02:01.
