data_PCOD9329160
_publ_section_title
;
Structure prediction by ZEFSAII (Michael W. Deem and Ramdas Pophale) SiO2 
 PCOD9329160
Probable space group: F 2 2 2
;
_chemical_formula_sum "Si O2"
_cell_formula_units_Z 60
_cell_length_a 18.132489
_cell_length_b 11.047391
_cell_length_c 12.297852
_cell_angle_alpha 90.000000
_cell_angle_beta 90.000000
_cell_angle_gamma 90.000000
_cell_volume 2463.465078
_symmetry_space_group_name_H-M "F 2 2 2"
_symmetry_group_IT_number 22
_symmetry_cell_setting 'orthorhombic'
loop_
_space_group_symop_operation_xyz
x,y,z
-x,-y,z
x,-y,-z
-x,y,-z
x,1/2+y,1/2+z
-x,1/2-y,1/2+z
x,1/2-y,1/2-z
-x,1/2+y,1/2-z
1/2+x,y,1/2+z
1/2-x,-y,1/2+z
1/2+x,-y,1/2-z
1/2-x,y,1/2-z
1/2+x,1/2+y,z
1/2-x,1/2-y,z
1/2+x,1/2-y,-z
1/2-x,1/2+y,-z
loop_
_atom_site_type_symbol
_atom_site_label
_atom_site_fract_x
_atom_site_fract_y
_atom_site_fract_z
Si Si1 0.750000 0.750000 0.250000
Si Si2 0.655136 0.179413 0.929309
Si Si3 0.965269 0.874103 0.780900
Si Si4 0.000000 0.722719 0.500000
Si Si5 0.185573 0.412819 0.837825
O O1 0.688506 0.719435 0.153041
O O2 0.568607 0.198344 0.955378
O O3 0.674066 0.054606 0.866475
O O4 0.691311 0.158491 0.048330
O O5 0.006522 0.750000 0.750000
O O6 0.888415 0.870725 0.720247
O O7 0.962818 0.862332 0.909862
O O8 0.000000 0.000000 0.748438
O O9 0.250000 0.399148 0.750000
#
# Coordination Sequence:
#
# PCOD9329160 Si02
#       5
#     4  16  16   8  16
#     4  12  28  48  74 120 162 218 272 346 422 500
#     4  11  27  48  80 110 164 215 278 342 418 504
#     4  12  27  50  79 118 163 214 276 343 413 505
#     4  12  27  49  76 118 157 218 271 350 417 496
#     4  11  26  49  77 115 156 219 275 339 416 506
#
# _framework density 24.355936
#
# number of rings (size 3 to 8) (size 9 to 14) (size 15 to 20)
#    0.000    0.533    4.000    2.000    9.333    1.600 
#    4.800    0.000    0.000    0.000    0.000    0.000 
#    0.000    0.000    0.000    0.000    0.000    0.000 
#
# Total GULP energy -83647.879657 kJ/mol
# GULP energy per Si atom -5576.525310 kJ/mol
# Density = 2.430050 g / cm^3
# Si number density = 24.355936 Si / 1000 Ang^3
#
#
#
# Elastic Constant Matrix: (Units=GPa)
#
#
# Indices 1 2 3 4 5 6 
#
# 1 118.1805 58.6847 75.2145 0.0000 0.0000 0.0000
# 2 58.6847 131.2694 38.6018 0.0000 0.0000 0.0000
# 3 75.2145 38.6018 216.3916 0.0000 0.0000 0.0000
# 4 0.0000 0.0000 0.0000 56.1525 0.0000 0.0000
# 5 0.0000 0.0000 0.0000 0.0000 58.2785 0.0000
# 6 0.0000 0.0000 0.0000 0.0000 0.0000 17.5433
#
#
#
# Elastic Compliance Matrix: (Units=1/GPa)
#
#
# Indices 1 2 3 4 5 6 
#
# 1 0.013234 -0.004816 -0.003741 0.000000 0.000000 0.000000
# 2 -0.004816 0.009792 -0.000073 0.000000 0.000000 0.000000
# 3 -0.003741 -0.000073 0.005934 0.000000 0.000000 0.000000
# 4 0.000000 0.000000 0.000000 0.017809 0.000000 0.000000
# 5 0.000000 0.000000 0.000000 0.000000 0.017159 0.000000
# 6 0.000000 0.000000 0.000000 0.000000 0.000000 0.057002
#
#
# Mechanical properties :
#
#
# Convention : Reuss Voigt Hill
#
# Bulk Modulus (GPa) = 85.46108 90.09373 87.77741
# Shear Modulus (GPa) = 35.18884 45.95089 40.56987
#
# Velocity S-wave (km/s) = 3.80514 4.34826 4.08574
# Velocity P-wave (km/s) = 7.38038 7.89180 7.64037
#
# Compressibility (1/GPa) = 0.01170123
#
# Stress axis : x y z
#
# Youngs Moduli (GPa) = 75.56273 102.11909 168.50689
#
# Poissons Ratio (x) = 0.49184 0.63035
# Poissons Ratio (y) = 0.36393 0.01227
# Poissons Ratio (z) = 0.28266 0.00743
#
# Static dielectric constant tensor:
#      x y z
#    x 1.819550 0.000000 0.000000 
#    y 0.000000 2.242480 0.000000 
#    z 0.000000 0.000000 2.002190 
# 
# From -- ./inp_files/22214.got.cif
#   From: 2010.05.17/outbox.cif.g08.bks.cpg/sg22_12_cif.got.tgz:22214.got - 2010.06.03 23:40:54.
