data_PCOD9329067
_publ_section_title
;
Structure prediction by ZEFSAII (Michael W. Deem and Ramdas Pophale) SiO2 
 PCOD9329067
Probable space group: F 2 2 2
;
_chemical_formula_sum "Si O2"
_cell_formula_units_Z 108
_cell_length_a 15.369864
_cell_length_b 23.726731
_cell_length_c 13.242999
_cell_angle_alpha 90.000000
_cell_angle_beta 90.000000
_cell_angle_gamma 90.000000
_cell_volume 4829.412228
_symmetry_space_group_name_H-M "F 2 2 2"
_symmetry_group_IT_number 22
_symmetry_cell_setting 'orthorhombic'
loop_
_space_group_symop_operation_xyz
x,y,z
-x,-y,z
x,-y,-z
-x,y,-z
x,1/2+y,1/2+z
-x,1/2-y,1/2+z
x,1/2-y,1/2-z
-x,1/2+y,1/2-z
1/2+x,y,1/2+z
1/2-x,-y,1/2+z
1/2+x,-y,1/2-z
1/2-x,y,1/2-z
1/2+x,1/2+y,z
1/2-x,1/2-y,z
1/2+x,1/2-y,-z
1/2-x,1/2+y,-z
loop_
_atom_site_type_symbol
_atom_site_label
_atom_site_fract_x
_atom_site_fract_y
_atom_site_fract_z
Si Si1 0.267685 0.617095 0.066161
Si Si2 0.653940 0.023686 0.785312
Si Si3 0.899499 0.327109 0.979789
Si Si4 0.500000 0.500000 0.000000
Si Si5 0.904409 0.803983 0.043502
Si Si6 0.085801 0.141906 0.248289
Si Si7 0.700171 0.500000 0.500000
Si Si8 0.419543 0.422017 0.821984
O O1 0.328517 0.611037 0.164270
O O2 0.171197 0.642656 0.051529
O O3 0.329991 0.654711 0.996127
O O4 0.257594 0.552291 0.034392
O O5 0.750000 0.007291 0.750000
O O6 0.636441 0.083044 0.731955
O O7 0.647932 0.024995 0.905786
O O8 0.592303 0.973916 0.752241
O O9 0.889907 0.259799 0.991794
O O10 0.888571 0.340067 0.860698
O O11 0.000000 0.342822 0.000000
O O12 0.450574 0.544625 0.075348
O O13 0.899872 0.810790 0.164134
O O14 0.000000 0.820951 0.000000
O O15 0.987833 0.121154 0.225949
#
# Coordination Sequence:
#
# PCOD9329067 Si02
#       8
#    16  16  16   4  16  16   8  16
#     4  12  24  47  71 104 144 194 238 299 364 445
#     4  12  25  41  64 105 151 190 242 290 370 450
#     4  11  28  48  72 101 147 194 249 302 368 441
#     4  12  22  40  64 108 142 188 234 308 360 434
#     4  11  24  47  76 107 137 187 253 315 367 428
#     4  12  24  43  69 107 141 190 236 309 368 441
#     4  12  25  44  70 105 152 196 233 300 370 457
#     4  12  25  40  71 104 148 191 250 301 370 452
#
# _framework density 22.362970000000001
#
# number of rings (size 3 to 8) (size 9 to 14) (size 15 to 20)
#    0.000    0.296    5.926    3.111    2.074    0.000 
#    0.000    2.593    0.000    0.000    0.000    0.000 
#    0.000    0.000    0.000    0.000    0.000    0.000 
#
# Total GULP energy -150763.568105 kJ/mol
# GULP energy per Si atom -5583.835856 kJ/mol
# Density = 2.231207 g / cm^3
# Si number density = 22.362970 Si / 1000 Ang^3
#
#
#
# Elastic Constant Matrix: (Units=GPa)
#
#
# Indices 1 2 3 4 5 6 
#
# 1 112.5444 37.1172 5.5528 0.0000 0.0000 0.0000
# 2 37.1172 80.2329 -19.2427 0.0000 0.0000 0.0000
# 3 5.5528 -19.2427 51.5099 0.0000 0.0000 0.0000
# 4 0.0000 0.0000 0.0000 30.8658 0.0000 0.0000
# 5 0.0000 0.0000 0.0000 0.0000 37.4357 0.0000
# 6 0.0000 0.0000 0.0000 0.0000 0.0000 26.9710
#
#
#
# Elastic Compliance Matrix: (Units=1/GPa)
#
#
# Indices 1 2 3 4 5 6 
#
# 1 0.010999 -0.005901 -0.003390 0.000000 0.000000 0.000000
# 2 -0.005901 0.016857 0.006933 0.000000 0.000000 0.000000
# 3 -0.003390 0.006933 0.022369 0.000000 0.000000 0.000000
# 4 0.000000 0.000000 0.000000 0.032398 0.000000 0.000000
# 5 0.000000 0.000000 0.000000 0.000000 0.026712 0.000000
# 6 0.000000 0.000000 0.000000 0.000000 0.000000 0.037077
#
#
# Mechanical properties :
#
#
# Convention : Reuss Voigt Hill
#
# Bulk Modulus (GPa) = 21.97403 32.34910 27.16156
# Shear Modulus (GPa) = 30.06635 33.77849 31.92242
#
# Velocity S-wave (km/s) = 3.67068 3.89069 3.78228
# Velocity P-wave (km/s) = 5.27377 5.88898 5.58984
#
# Compressibility (1/GPa) = 0.04550827
#
# Stress axis : x y z
#
# Youngs Moduli (GPa) = 90.91768 59.32355 44.70404
#
# Poissons Ratio (x) = 0.35009 0.15156
# Poissons Ratio (y) = 0.53655 -0.30995
# Poissons Ratio (z) = 0.30824 -0.41131
#
# Static dielectric constant tensor:
#      x y z
#    x 1.876650 0.000000 0.000000 
#    y 0.000000 1.793950 0.000000 
#    z 0.000000 0.000000 1.848060 
# 
# From -- ./inp_files/29660.got.cif
#   From: 2010.05.17/outbox.cif.g08.bks.cpg/sg22_15_cif.got.tgz:29660.got - 2010.06.03 23:40:54.
