data_PCOD9329514
_publ_section_title
;
Structure prediction by ZEFSAII (Michael W. Deem and Ramdas Pophale) SiO2 
 PCOD9329514
Probable space group: I 2 2 2
;
_chemical_formula_sum "Si O2"
_cell_formula_units_Z 48
_cell_length_a 11.428287
_cell_length_b 20.100155
_cell_length_c 11.461648
_cell_angle_alpha 90.000000
_cell_angle_beta 90.000000
_cell_angle_gamma 90.000000
_cell_volume 2632.859060
_symmetry_space_group_name_H-M "I 2 2 2"
_symmetry_group_IT_number 23
_symmetry_cell_setting 'orthorhombic'
loop_
_space_group_symop_operation_xyz
x,y,z
-x,-y,z
x,-y,-z
-x,y,-z
1/2+x,1/2+y,1/2+z
1/2-x,1/2-y,1/2+z
1/2+x,1/2-y,1/2-z
1/2-x,1/2+y,1/2-z
loop_
_atom_site_type_symbol
_atom_site_label
_atom_site_fract_x
_atom_site_fract_y
_atom_site_fract_z
Si Si1 0.666738 0.845442 0.769608
Si Si2 0.171662 0.192768 0.328818
Si Si3 0.908996 0.664807 0.703739
Si Si4 0.798077 0.578855 0.504279
Si Si5 0.684114 0.290928 0.916159
Si Si6 0.610397 0.680294 0.580176
O O1 0.685147 0.772442 0.824918
O O2 0.531092 0.846452 0.731928
O O3 0.677945 0.896498 0.873951
O O4 0.764291 0.846761 0.669792
O O5 0.297548 0.163292 0.289399
O O6 0.142736 0.178644 0.462148
O O7 0.088517 0.175171 0.219387
O O8 0.886718 0.612046 0.599003
O O9 0.905250 0.738340 0.642941
O O10 0.799188 0.500000 0.500000
O O11 0.675608 0.613194 0.540686
O O12 0.796716 0.241044 0.934276
O O13 0.500000 0.692766 0.500000
#
# Coordination Sequence:
#
# PCOD9329514 Si02
#       6
#     8   8   8   8   8   8
#     4  10  18  29  48  71 100 138 167 209 258 318
#     4   9  18  31  46  74 107 131 163 215 260 313
#     4   9  19  30  45  71 102 132 173 208 258 312
#     4  10  20  34  49  71 103 136 179 221 261 304
#     4   9  19  30  47  74 108 133 165 214 267 311
#     4   9  19  32  51  74 102 139 173 209 264 315
#
# _framework density 18.231131999999999
#
# number of rings (size 3 to 8) (size 9 to 14) (size 15 to 20)
#    0.000    3.333    3.333    0.500    4.667    1.667 
#    0.000    0.000    0.000    4.000    0.000    4.667 
#    0.000    5.333    0.000    0.000    0.000    0.000 
#
# Total GULP energy -133654.836781 kJ/mol
# GULP energy per Si atom -5568.951533 kJ/mol
# Density = 1.818964 g / cm^3
# Si number density = 18.231132 Si / 1000 Ang^3
#
#
#
# Elastic Constant Matrix: (Units=GPa)
#
#
# Indices 1 2 3 4 5 6 
#
# 1 39.9397 20.3271 26.6359 -0.0001 0.0000 0.0000
# 2 20.3271 72.9509 12.5190 -0.0004 0.0001 0.0001
# 3 26.6359 12.5190 78.6952 -0.0010 0.0002 0.0001
# 4 -0.0001 -0.0004 -0.0010 17.7399 0.0002 0.0001
# 5 0.0000 0.0001 0.0002 0.0002 27.3179 0.0000
# 6 0.0000 0.0001 0.0001 0.0001 0.0000 6.1940
#
#
#
# Elastic Compliance Matrix: (Units=1/GPa)
#
#
# Indices 1 2 3 4 5 6 
#
# 1 0.036662 -0.008313 -0.011087 -0.000001 0.000000 0.000000
# 2 -0.008313 0.015978 0.000272 0.000000 0.000000 0.000000
# 3 -0.011087 0.000272 0.016416 0.000001 0.000000 0.000000
# 4 -0.000001 0.000000 0.000001 0.056370 0.000000 -0.000001
# 5 0.000000 0.000000 0.000000 0.000000 0.036606 0.000000
# 6 0.000000 0.000000 0.000000 -0.000001 0.000000 0.161447
#
#
# Mechanical properties :
#
#
# Convention : Reuss Voigt Hill
#
# Bulk Modulus (GPa) = 32.46658 34.50556 33.48607
# Shear Modulus (GPa) = 13.44078 19.05726 16.24902
#
# Velocity S-wave (km/s) = 2.71817 3.23664 2.98867
# Velocity P-wave (km/s) = 5.26291 5.73895 5.50608
#
# Compressibility (1/GPa) = 0.03080090
#
# Stress axis : x y z
#
# Youngs Moduli (GPa) = 27.27595 62.58785 60.91438
#
# Poissons Ratio (x) = 0.52030 0.67534
# Poissons Ratio (y) = 0.22675 -0.01657
# Poissons Ratio (z) = 0.30240 -0.01702
#
# Static dielectric constant tensor:
#      x y z
#    x 1.716920 0.000000 0.000000 
#    y 0.000000 1.588170 0.000000 
#    z 0.000000 0.000000 1.717280 
# 
# From -- ./inp_files/15861.got.cif
#   From: 2010.05.17/outbox.cif.g08.bks.cpg/sg23_8_cif.got.tgz:15861.got - 2010.06.04 12:02:01.
