data_PCOD9329850
_publ_section_title
;
Structure prediction by ZEFSAII (Michael W. Deem and Ramdas Pophale) SiO2 
 PCOD9329850
Probable space group: I 2 2 2
;
_chemical_formula_sum "Si O2"
_cell_formula_units_Z 52
_cell_length_a 17.665280
_cell_length_b 5.218518
_cell_length_c 25.266849
_cell_angle_alpha 90.000000
_cell_angle_beta 90.000000
_cell_angle_gamma 90.000000
_cell_volume 2329.264439
_symmetry_space_group_name_H-M "I 2 2 2"
_symmetry_group_IT_number 23
_symmetry_cell_setting 'orthorhombic'
loop_
_space_group_symop_operation_xyz
x,y,z
-x,-y,z
x,-y,-z
-x,y,-z
1/2+x,1/2+y,1/2+z
1/2-x,1/2-y,1/2+z
1/2+x,1/2-y,1/2-z
1/2-x,1/2+y,1/2-z
loop_
_atom_site_type_symbol
_atom_site_label
_atom_site_fract_x
_atom_site_fract_y
_atom_site_fract_z
Si Si1 0.167874 0.000000 0.000000
Si Si2 0.451530 0.748911 0.069529
Si Si3 0.204897 0.301464 0.235842
Si Si4 0.211560 0.231187 0.432520
Si Si5 0.285222 0.763957 0.863585
Si Si6 0.034875 0.757130 0.940351
Si Si7 0.083946 0.070554 0.312670
O O1 0.220353 0.800132 0.029808
O O2 0.119383 0.159661 0.043606
O O3 0.500000 0.500000 0.056871
O O4 0.370845 0.753249 0.041168
O O5 0.432289 0.720058 0.132357
O O6 0.500000 0.000000 0.060788
O O7 0.233295 0.590272 0.244679
O O8 0.210965 0.259508 0.173149
O O9 0.130795 0.230210 0.269126
O O10 0.211297 0.452219 0.387016
O O11 0.219012 0.949333 0.408880
O O12 0.360444 0.665707 0.831010
O O13 0.000000 0.500000 0.915946
O O14 0.000000 0.000000 0.910857
O O15 0.000000 0.750892 0.000000
O O16 0.000000 0.000000 0.292989
#
# Coordination Sequence:
#
# PCOD9329850 Si02
#       7
#     4   8   8   8   8   8   8
#     4  10  23  38  63  92 114 148 206 252 289 362
#     4  10  19  34  53  78 113 152 192 238 283 331
#     4  10  19  33  54  79 110 146 185 230 287 349
#     4  11  22  37  58  83 114 153 198 249 296 342
#     4  10  21  36  53  81 119 152 185 241 307 345
#     4   8  16  32  54  80 104 125 163 230 289 331
#     4   9  18  32  56  83 107 146 198 236 269 334
#
# _framework density 22.324646000000001
#
# number of rings (size 3 to 8) (size 9 to 14) (size 15 to 20)
#    0.000    2.462    0.000    5.538    0.000    8.000 
#    0.000    0.385    0.000    9.231    0.000   18.308 
#    0.000    0.000    0.000    0.000    0.000    0.000 
#
# Total GULP energy -145061.707441 kJ/mol
# GULP energy per Si atom -5579.296440 kJ/mol
# Density = 2.227383 g / cm^3
# Si number density = 22.324646 Si / 1000 Ang^3
#
#
#
# Elastic Constant Matrix: (Units=GPa)
#
#
# Indices 1 2 3 4 5 6 
#
# 1 155.0035 31.1010 39.2984 0.0000 0.0000 0.0000
# 2 31.1010 107.5052 8.3066 0.0000 0.0000 0.0000
# 3 39.2984 8.3066 47.0505 0.0000 0.0000 0.0000
# 4 0.0000 0.0000 0.0000 30.6301 0.0000 0.0000
# 5 0.0000 0.0000 0.0000 0.0000 32.2450 0.0000
# 6 0.0000 0.0000 0.0000 0.0000 0.0000 32.6367
#
#
#
# Elastic Compliance Matrix: (Units=1/GPa)
#
#
# Indices 1 2 3 4 5 6 
#
# 1 0.008571 -0.001953 -0.006814 0.000000 0.000000 0.000000
# 2 -0.001953 0.009876 -0.000112 0.000000 0.000000 0.000000
# 3 -0.006814 -0.000112 0.026965 0.000000 0.000000 0.000000
# 4 0.000000 0.000000 0.000000 0.032648 0.000000 0.000000
# 5 0.000000 0.000000 0.000000 0.000000 0.031013 0.000000
# 6 0.000000 0.000000 0.000000 0.000000 0.000000 0.030640
#
#
# Mechanical properties :
#
#
# Convention : Reuss Voigt Hill
#
# Bulk Modulus (GPa) = 36.16263 51.88569 44.02416
# Shear Modulus (GPa) = 29.99619 34.49257 32.24438
#
# Velocity S-wave (km/s) = 3.66954 3.93497 3.80457
# Velocity P-wave (km/s) = 5.84703 6.62851 6.25000
#
# Compressibility (1/GPa) = 0.02765286
#
# Stress axis : x y z
#
# Youngs Moduli (GPa) = 116.67399 101.26003 37.08537
#
# Poissons Ratio (x) = 0.19777 0.25270
# Poissons Ratio (y) = 0.22787 0.00416
# Poissons Ratio (z) = 0.79501 0.01136
#
# Static dielectric constant tensor:
#      x y z
#    x 1.890920 0.000000 0.000000 
#    y 0.000000 1.672950 0.000000 
#    z 0.000000 0.000000 1.846070 
# 
# From -- ./inp_files/30622.got.cif
#   From: 2010.05.17/outbox.cif.g08.bks.cpg/sg23_16_cif.got.tgz:30622.got - 2010.06.04 12:02:01.
