data_PCOD9329498
_publ_section_title
;
Structure prediction by ZEFSAII (Michael W. Deem and Ramdas Pophale) SiO2 
 PCOD9329498
Probable space group: I 2 2 2
;
_chemical_formula_sum "Si O2"
_cell_formula_units_Z 56
_cell_length_a 16.470083
_cell_length_b 11.828297
_cell_length_c 12.033222
_cell_angle_alpha 90.000000
_cell_angle_beta 90.000000
_cell_angle_gamma 90.000000
_cell_volume 2344.228479
_symmetry_space_group_name_H-M "I 2 2 2"
_symmetry_group_IT_number 23
_symmetry_cell_setting 'orthorhombic'
loop_
_space_group_symop_operation_xyz
x,y,z
-x,-y,z
x,-y,-z
-x,y,-z
1/2+x,1/2+y,1/2+z
1/2-x,1/2-y,1/2+z
1/2+x,1/2-y,1/2-z
1/2-x,1/2+y,1/2-z
loop_
_atom_site_type_symbol
_atom_site_label
_atom_site_fract_x
_atom_site_fract_y
_atom_site_fract_z
Si Si1 0.992613 0.130533 0.670350
Si Si2 0.070078 0.171946 0.914157
Si Si3 0.477138 0.123565 0.168868
Si Si4 0.810786 0.153153 0.743015
Si Si5 0.641000 0.128640 0.298317
Si Si6 0.147863 0.389840 0.856671
Si Si7 0.740746 0.445510 0.608820
O O1 0.023328 0.250141 0.615766
O O2 0.896452 0.146259 0.682691
O O3 0.037254 0.137510 0.791335
O O4 0.000000 0.000000 0.628882
O O5 0.089459 0.306265 0.922746
O O6 0.158352 0.116814 0.928298
O O7 0.000000 0.139749 0.000000
O O8 0.547227 0.133699 0.264202
O O9 0.391994 0.110301 0.232201
O O10 0.500000 0.000000 0.117639
O O11 0.822635 0.252071 0.834346
O O12 0.736221 0.163525 0.658079
O O13 0.792733 0.039677 0.807787
O O14 0.691343 0.115494 0.182702
O O15 0.654316 0.023140 0.378533
O O16 0.779815 0.500000 0.500000
#
# Coordination Sequence:
#
# PCOD9329498 Si02
#       7
#     8   8   8   8   8   8   8
#     4  10  18  28  46  75 105 138 186 231 292 341
#     4  11  21  32  49  77 119 156 183 235 307 372
#     4   8  16  30  48  67  97 135 178 231 280 330
#     4  10  18  32  53  78 110 151 197 251 289 359
#     4   9  18  34  55  74 105 151 203 246 280 355
#     4   9  18  32  52  77 104 148 203 230 286 357
#     4  11  21  32  52  83 117 147 195 249 315 356
#
# _framework density 23.888456999999999
#
# number of rings (size 3 to 8) (size 9 to 14) (size 15 to 20)
#    0.000    2.286    2.857    0.857    0.000    0.000 
#    0.000    0.000    0.000   72.429    0.000    0.000 
#    0.000    0.000    0.000   58.000    0.571    0.000 
#
# Total GULP energy -156060.614930 kJ/mol
# GULP energy per Si atom -5573.593390 kJ/mol
# Density = 2.383409 g / cm^3
# Si number density = 23.888457 Si / 1000 Ang^3
#
#
#
# Elastic Constant Matrix: (Units=GPa)
#
#
# Indices 1 2 3 4 5 6 
#
# 1 117.7189 20.3485 6.1423 0.0000 0.0000 0.0000
# 2 20.3485 159.4633 -11.9392 0.0000 0.0000 0.0000
# 3 6.1423 -11.9392 58.9450 0.0000 0.0000 0.0000
# 4 0.0000 0.0000 0.0000 -15.8200 0.0000 0.0000
# 5 0.0000 0.0000 0.0000 0.0000 11.7693 0.0000
# 6 0.0000 0.0000 0.0000 0.0000 0.0000 40.2641
#
#
#
# Elastic Compliance Matrix: (Units=1/GPa)
#
#
# Indices 1 2 3 4 5 6 
#
# 1 0.008763 -0.001205 -0.001157 0.000000 0.000000 0.000000
# 2 -0.001205 0.006533 0.001449 0.000000 0.000000 0.000000
# 3 -0.001157 0.001449 0.017379 0.000000 0.000000 0.000000
# 4 0.000000 0.000000 0.000000 -0.063211 0.000000 0.000000
# 5 0.000000 0.000000 0.000000 0.000000 0.084967 0.000000
# 6 0.000000 0.000000 0.000000 0.000000 0.000000 0.024836
#
#
# Mechanical properties :
#
#
# Convention : Reuss Voigt Hill
#
# Bulk Modulus (GPa) = 32.41579 40.58116 36.49848
# Shear Modulus (GPa) = 54.71838 28.68105 41.69971
#
# Velocity S-wave (km/s) = 4.79119 3.46876 4.18257
# Velocity P-wave (km/s) = 6.64879 5.75045 6.21587
#
# Compressibility (1/GPa) = 0.03084916
#
# Stress axis : x y z
#
# Youngs Moduli (GPa) = 114.11004 153.06274 57.54060
#
# Poissons Ratio (x) = 0.18443 0.06659
# Poissons Ratio (y) = 0.13749 -0.08337
# Poissons Ratio (z) = 0.13205 -0.22177
#
# Static dielectric constant tensor:
#      x y z
#    x 1.825120 0.000000 0.000000 
#    y 0.000000 2.078330 0.000000 
#    z 0.000000 0.000000 1.952580 
# 
# From -- ./inp_files/21592.got.cif
#   From: 2010.05.17/outbox.cif.g08.bks.cpg/sg23_11_cif.got.tgz:21592.got - 2010.06.04 12:02:01.
