data_PCOD9329517
_publ_section_title
;
Structure prediction by ZEFSAII (Michael W. Deem and Ramdas Pophale) SiO2 
 PCOD9329517
Probable space group: I 2 2 2
;
_chemical_formula_sum "Si O2"
_cell_formula_units_Z 60
_cell_length_a 11.760139
_cell_length_b 14.834099
_cell_length_c 17.626126
_cell_angle_alpha 90.000000
_cell_angle_beta 90.000000
_cell_angle_gamma 90.000000
_cell_volume 3074.896473
_symmetry_space_group_name_H-M "I 2 2 2"
_symmetry_group_IT_number 23
_symmetry_cell_setting 'orthorhombic'
loop_
_space_group_symop_operation_xyz
x,y,z
-x,-y,z
x,-y,-z
-x,y,-z
1/2+x,1/2+y,1/2+z
1/2-x,1/2-y,1/2+z
1/2+x,1/2-y,1/2-z
1/2-x,1/2+y,1/2-z
loop_
_atom_site_type_symbol
_atom_site_label
_atom_site_fract_x
_atom_site_fract_y
_atom_site_fract_z
Si Si1 0.631205 0.677793 0.812649
Si Si2 0.634920 0.500000 0.623649
Si Si3 0.190414 0.196538 0.134202
Si Si4 0.499999 0.168513 0.583146
Si Si5 0.000000 0.500000 0.195935
Si Si6 0.868795 0.822207 0.687351
Si Si7 0.809586 0.803461 0.865798
Si Si8 0.755753 1.000000 0.712764
O O1 0.644135 0.693407 0.721729
O O2 0.500000 0.661531 0.829780
O O3 0.684327 0.762702 0.856102
O O4 0.709374 0.590838 0.830223
O O5 0.500000 0.500000 0.611105
O O6 0.683112 0.596855 0.598837
O O7 0.683112 0.403145 0.598837
O O8 0.664402 0.500000 0.713256
O O9 0.108161 0.266125 0.092767
O O10 0.315674 0.237297 0.143898
O O11 0.500000 0.126827 0.500000
O O12 0.608159 0.233875 0.592767
O O13 0.499999 0.090198 0.645296
O O14 0.123286 0.500000 0.236285
O O15 0.855865 0.806593 0.778271
O O16 0.790625 0.909161 0.669777
#
# Coordination Sequence:
#
# PCOD9329517 Si02
#       8
#     8   8   8   8   4   8   8   8
#     4  10  18  31  54  78 113 142 176 227 287 330
#     4  10  18  32  53  79 118 139 167 230 287 335
#     4  10  19  33  51  80 106 144 183 225 273 332
#     4  12  23  39  56  75 115 158 187 227 265 316
#     4  12  23  36  50  86 116 142 189 226 260 342
#     4  10  18  31  54  78 113 142 176 227 287 330
#     4  10  19  33  51  80 106 144 183 225 273 332
#     4  10  18  29  52  79 113 144 169 220 294 334
#
# _framework density 19.512851999999999
#
# number of rings (size 3 to 8) (size 9 to 14) (size 15 to 20)
#    0.000    1.600    5.333    3.000    0.000    0.000 
#    0.000    1.333    0.000    0.800    0.000    1.867 
#    0.000    2.133    0.000    0.000    0.000    0.000 
#
# Total GULP energy -167267.595382 kJ/mol
# GULP energy per Si atom -5575.586513 kJ/mol
# Density = 1.946844 g / cm^3
# Si number density = 19.512852 Si / 1000 Ang^3
#
#
#
# Elastic Constant Matrix: (Units=GPa)
#
#
# Indices 1 2 3 4 5 6 
#
# 1 115.5364 24.6512 -7.5214 0.0000 0.0000 0.0000
# 2 24.6512 102.2090 1.2357 0.0000 0.0000 0.0000
# 3 -7.5214 1.2357 18.4201 0.0000 0.0000 0.0000
# 4 0.0000 0.0000 0.0000 -15.8565 0.0000 0.0000
# 5 0.0000 0.0000 0.0000 0.0000 -0.1010 0.0000
# 6 0.0000 0.0000 0.0000 0.0000 0.0000 33.5915
#
#
#
# Elastic Compliance Matrix: (Units=1/GPa)
#
#
# Indices 1 2 3 4 5 6 
#
# 1 0.009410 -0.002318 0.003998 0.000000 0.000000 0.000000
# 2 -0.002318 0.010363 -0.001642 0.000000 0.000000 0.000000
# 3 0.003998 -0.001642 0.056031 0.000000 0.000000 0.000000
# 4 0.000000 0.000000 0.000000 -0.063066 0.000000 0.000000
# 5 0.000000 0.000000 0.000000 0.000000 -9.904549 0.000000
# 6 0.000000 0.000000 0.000000 0.000000 0.000000 0.029769
#
#
# Mechanical properties :
#
#
# Convention : Reuss Voigt Hill
#
# Bulk Modulus (GPa) = 13.17860 30.32184 21.75022
# Shear Modulus (GPa) = -0.50829 18.04682 8.76926
#
# Velocity S-wave (km/s) = -0.51094 3.04446 2.12223
# Velocity P-wave (km/s) = 2.53385 5.28503 4.14439
#
# Compressibility (1/GPa) = 0.07588061
#
# Stress axis : x y z
#
# Youngs Moduli (GPa) = 106.26880 96.49938 17.84724
#
# Poissons Ratio (x) = 0.22368 -0.07135
# Poissons Ratio (y) = 0.24632 0.02930
# Poissons Ratio (z) = -0.42485 0.15842
#
# Static dielectric constant tensor:
#      x y z
#    x 1.676360 0.000000 0.000000 
#    y 0.000000 1.760070 0.000000 
#    z 0.000000 0.000000 1.670880 
# 
# From -- ./inp_files/22484.got.cif
#   From: 2010.05.17/outbox.cif.g08.bks.cpg/sg23_12_cif.got.tgz:22484.got - 2010.06.04 12:02:01.
