data_PCOD9329602
_publ_section_title
;
Structure prediction by ZEFSAII (Michael W. Deem and Ramdas Pophale) SiO2 
 PCOD9329602
Probable space group: I 2 2 2
;
_chemical_formula_sum "Si O2"
_cell_formula_units_Z 40
_cell_length_a 20.280289
_cell_length_b 11.006397
_cell_length_c 8.996240
_cell_angle_alpha 90.000000
_cell_angle_beta 90.000000
_cell_angle_gamma 90.000000
_cell_volume 2008.076928
_symmetry_space_group_name_H-M "I 2 2 2"
_symmetry_group_IT_number 23
_symmetry_cell_setting 'orthorhombic'
loop_
_space_group_symop_operation_xyz
x,y,z
-x,-y,z
x,-y,-z
-x,y,-z
1/2+x,1/2+y,1/2+z
1/2-x,1/2-y,1/2+z
1/2+x,1/2-y,1/2-z
1/2-x,1/2+y,1/2-z
loop_
_atom_site_type_symbol
_atom_site_label
_atom_site_fract_x
_atom_site_fract_y
_atom_site_fract_z
Si Si1 0.125859 0.661222 0.255505
Si Si2 0.184604 0.500000 0.000000
Si Si3 0.603909 0.473683 0.324074
Si Si4 0.505274 0.698320 0.322916
Si Si5 0.309683 0.000000 0.000000
Si Si6 0.777168 0.105134 0.258900
O O1 0.049032 0.698744 0.252227
O O2 0.145979 0.584763 0.397778
O O3 0.176756 0.776010 0.251507
O O4 0.141657 0.580788 0.111072
O O5 0.229679 0.589222 0.899288
O O6 0.617014 0.500000 0.500000
O O7 0.551738 0.580938 0.292995
O O8 0.568216 0.347203 0.286053
O O9 0.670867 0.493506 0.237305
O O10 0.500000 0.719661 0.500000
O O11 0.264944 0.082184 0.890253
#
# Coordination Sequence:
#
# PCOD9329602 Si02
#       6
#     8   4   8   8   4   8
#     4  10  20  35  55  82 120 157 195 238 287 346
#     4  10  22  34  51  91 116 154 196 228 292 366
#     4   8  13  26  52  86 115 134 177 235 296 343
#     4   8  15  28  52  85 108 142 186 237 282 332
#     4  10  20  32  54  87 123 158 188 230 300 366
#     4  10  18  33  55  86 122 146 186 244 299 345
#
# _framework density 19.919556
#
# number of rings (size 3 to 8) (size 9 to 14) (size 15 to 20)
#    0.000    2.800    1.000    2.400    0.000    0.000 
#    0.000    0.500    0.000    9.600   15.600    0.000 
#    0.000    0.000    0.000    0.000    0.000    0.000 
#
# Total GULP energy -111382.893173 kJ/mol
# GULP energy per Si atom -5569.144659 kJ/mol
# Density = 1.987422 g / cm^3
# Si number density = 19.919556 Si / 1000 Ang^3
#
#
#
# Elastic Constant Matrix: (Units=GPa)
#
#
# Indices 1 2 3 4 5 6 
#
# 1 81.1665 39.9915 40.0401 0.0000 0.0000 0.0000
# 2 39.9915 74.9574 39.3967 0.0000 0.0000 0.0000
# 3 40.0401 39.3967 81.1126 0.0000 0.0000 0.0000
# 4 0.0000 0.0000 0.0000 12.4099 0.0000 0.0000
# 5 0.0000 0.0000 0.0000 0.0000 15.2392 0.0000
# 6 0.0000 0.0000 0.0000 0.0000 0.0000 33.2891
#
#
#
# Elastic Compliance Matrix: (Units=1/GPa)
#
#
# Indices 1 2 3 4 5 6 
#
# 1 0.018573 -0.006835 -0.005848 0.000000 0.000000 0.000000
# 2 -0.006835 0.020430 -0.006549 0.000000 0.000000 0.000000
# 3 -0.005848 -0.006549 0.018396 0.000000 0.000000 0.000000
# 4 0.000000 0.000000 0.000000 0.080581 0.000000 0.000000
# 5 0.000000 0.000000 0.000000 0.000000 0.065620 0.000000
# 6 0.000000 0.000000 0.000000 0.000000 0.000000 0.030040
#
#
# Mechanical properties :
#
#
# Convention : Reuss Voigt Hill
#
# Bulk Modulus (GPa) = 52.81425 52.89925 52.85675
# Shear Modulus (GPa) = 17.95872 20.04153 19.00013
#
# Velocity S-wave (km/s) = 3.00586 3.17539 3.09179
# Velocity P-wave (km/s) = 6.21436 6.32915 6.27202
#
# Compressibility (1/GPa) = 0.01893429
#
# Stress axis : x y z
#
# Youngs Moduli (GPa) = 53.84071 48.94864 54.35910
#
# Poissons Ratio (x) = 0.33458 0.31792
# Poissons Ratio (y) = 0.36802 0.35597
# Poissons Ratio (z) = 0.31489 0.32054
#
# Static dielectric constant tensor:
#      x y z
#    x 1.738190 0.000000 0.000000 
#    y 0.000000 1.740970 0.000000 
#    z 0.000000 0.000000 1.696320 
# 
# From -- ./inp_files/11839.got.cif
#   From: 2010.05.17/outbox.cif.g08.bks.cpg/sg23_6_cif.got.tgz:11839.got - 2010.06.04 12:02:01.
