data_PCOD9329176
_publ_section_title
;
Structure prediction by ZEFSAII (Michael W. Deem and Ramdas Pophale) SiO2 
 PCOD9329176
Probable space group: F 2 2 2
;
_chemical_formula_sum "Si O2"
_cell_formula_units_Z 88
_cell_length_a 12.601885
_cell_length_b 12.433983
_cell_length_c 23.732732
_cell_angle_alpha 90.000000
_cell_angle_beta 90.000000
_cell_angle_gamma 90.000000
_cell_volume 3718.720316
_symmetry_space_group_name_H-M "F 2 2 2"
_symmetry_group_IT_number 22
_symmetry_cell_setting 'orthorhombic'
loop_
_space_group_symop_operation_xyz
x,y,z
-x,-y,z
x,-y,-z
-x,y,-z
x,1/2+y,1/2+z
-x,1/2-y,1/2+z
x,1/2-y,1/2-z
-x,1/2+y,1/2-z
1/2+x,y,1/2+z
1/2-x,-y,1/2+z
1/2+x,-y,1/2-z
1/2-x,y,1/2-z
1/2+x,1/2+y,z
1/2-x,1/2-y,z
1/2+x,1/2-y,-z
1/2-x,1/2+y,-z
loop_
_atom_site_type_symbol
_atom_site_label
_atom_site_fract_x
_atom_site_fract_y
_atom_site_fract_z
Si Si1 0.500000 0.000000 0.368919
Si Si2 0.000000 0.767896 0.000000
Si Si3 0.250000 0.505254 0.250000
Si Si4 0.419241 0.673775 0.199243
Si Si5 0.344712 0.922788 0.862560
Si Si6 0.672580 0.070478 0.552093
Si Si7 0.925536 0.841612 0.610834
O O1 0.510460 0.895888 0.330139
O O2 0.602669 0.008155 0.408003
O O3 0.087669 0.843468 0.970520
O O4 0.941571 0.697251 0.952741
O O5 0.337355 0.585897 0.223262
O O6 0.298814 0.434388 0.300041
O O7 0.452507 0.750000 0.250000
O O8 0.374977 0.750751 0.150307
O O9 0.262503 0.879975 0.908681
O O10 0.455692 0.861484 0.865009
O O11 0.366933 0.045705 0.882614
O O12 0.714155 0.000000 0.500000
#
# Coordination Sequence:
#
# PCOD9329176 Si02
#       7
#     8   8   8  16  16  16  16
#     4  12  23  46  70 110 152 183 246 312 368 440
#     4  12  25  49  72 102 146 188 250 302 372 452
#     4  12  25  44  74 111 142 192 255 306 361 434
#     4  12  25  42  73 106 147 191 251 303 365 437
#     4  11  28  47  73 108 152 194 244 306 373 440
#     4  12  23  45  75 106 137 186 244 304 367 430
#     4  11  27  49  70 107 150 199 243 300 382 441
#
# _framework density 23.664055000000001
#
# number of rings (size 3 to 8) (size 9 to 14) (size 15 to 20)
#    0.000    0.364    7.273    0.273    5.091    1.455 
#    0.000    0.000    0.000    1.091    0.000    0.000 
#    0.000    0.000    0.000    0.000    0.000    0.000 
#
# Total GULP energy -123267.978668 kJ/mol
# GULP energy per Si atom -5603.089939 kJ/mol
# Density = 2.361019 g / cm^3
# Si number density = 23.664055 Si / 1000 Ang^3
#
#
#
# Elastic Constant Matrix: (Units=GPa)
#
#
# Indices 1 2 3 4 5 6 
#
# 1 91.2081 12.9795 42.1365 0.0000 0.0000 0.0000
# 2 12.9795 73.7884 36.6074 0.0000 0.0000 0.0000
# 3 42.1365 36.6074 163.4978 0.0000 0.0000 0.0000
# 4 0.0000 0.0000 0.0000 34.7969 0.0000 0.0000
# 5 0.0000 0.0000 0.0000 0.0000 25.8732 0.0000
# 6 0.0000 0.0000 0.0000 0.0000 0.0000 11.5634
#
#
#
# Elastic Compliance Matrix: (Units=1/GPa)
#
#
# Indices 1 2 3 4 5 6 
#
# 1 0.012475 -0.000674 -0.003064 0.000000 0.000000 0.000000
# 2 -0.000674 0.015282 -0.003248 0.000000 0.000000 0.000000
# 3 -0.003064 -0.003248 0.007633 0.000000 0.000000 0.000000
# 4 0.000000 0.000000 0.000000 0.028738 0.000000 0.000000
# 5 0.000000 0.000000 0.000000 0.000000 0.038650 0.000000
# 6 0.000000 0.000000 0.000000 0.000000 0.000000 0.086480
#
#
# Mechanical properties :
#
#
# Convention : Reuss Voigt Hill
#
# Bulk Modulus (GPa) = 46.68948 56.88234 51.78591
# Shear Modulus (GPa) = 23.76748 30.23142 26.99945
#
# Velocity S-wave (km/s) = 3.17262 3.57813 3.38146
# Velocity P-wave (km/s) = 5.76139 6.41563 6.09729
#
# Compressibility (1/GPa) = 0.02141810
#
# Stress axis : x y z
#
# Youngs Moduli (GPa) = 80.15711 65.43552 131.00645
#
# Poissons Ratio (x) = 0.04412 0.40143
# Poissons Ratio (y) = 0.05405 0.42550
# Poissons Ratio (z) = 0.24562 0.21253
#
# Static dielectric constant tensor:
#      x y z
#    x 1.922860 0.000000 0.000000 
#    y 0.000000 1.878860 0.000000 
#    z 0.000000 0.000000 1.897920 
# 
# From -- ./inp_files/48817.got.cif
#   From: 2010.05.17/outbox.cif.g08.bks.cpg/sg22_25_cif.got.tgz:48817.got - 2010.06.03 23:40:54.
