data_PCOD9329434
_publ_section_title
;
Structure prediction by ZEFSAII (Michael W. Deem and Ramdas Pophale) SiO2 
 PCOD9329434
Probable space group: I 2 2 2
;
_chemical_formula_sum "Si O2"
_cell_formula_units_Z 48
_cell_length_a 14.436376
_cell_length_b 6.971273
_cell_length_c 18.702452
_cell_angle_alpha 90.000000
_cell_angle_beta 90.000000
_cell_angle_gamma 90.000000
_cell_volume 1882.213240
_symmetry_space_group_name_H-M "I 2 2 2"
_symmetry_group_IT_number 23
_symmetry_cell_setting 'orthorhombic'
loop_
_space_group_symop_operation_xyz
x,y,z
-x,-y,z
x,-y,-z
-x,y,-z
1/2+x,1/2+y,1/2+z
1/2-x,1/2-y,1/2+z
1/2+x,1/2-y,1/2-z
1/2-x,1/2+y,1/2-z
loop_
_atom_site_type_symbol
_atom_site_label
_atom_site_fract_x
_atom_site_fract_y
_atom_site_fract_z
Si Si1 0.408637 0.258870 0.277556
Si Si2 0.387126 0.805421 0.312928
Si Si3 0.200519 0.167102 0.646602
Si Si4 0.892132 0.233555 0.499289
Si Si5 0.599835 0.775845 0.518497
Si Si6 0.739938 0.735538 0.396407
O O1 0.517582 0.293552 0.290783
O O2 0.385358 0.337359 0.199715
O O3 0.331423 0.334865 0.334591
O O4 0.398074 0.025706 0.285873
O O5 0.280700 0.744882 0.300812
O O6 0.386275 0.774118 0.398095
O O7 0.166350 0.269558 0.574009
O O8 0.239681 0.958440 0.624475
O O9 0.841037 0.313993 0.570456
O O10 0.000000 0.288445 0.500000
O O11 0.890359 0.000000 0.500000
O O12 0.500000 0.697259 0.500000
O O13 0.677445 0.700663 0.466316
O O14 0.598071 0.000000 0.500000
#
# Coordination Sequence:
#
# PCOD9329434 Si02
#       6
#     8   8   8   8   8   8
#     4  10  19  29  46  74 105 137 165 211 274 309
#     4  10  18  31  48  73 102 134 164 217 266 305
#     4  10  19  29  45  72 103 131 165 210 263 322
#     4   9  17  29  46  67  96 131 162 203 258 310
#     4  11  13  23  51  77  93 119 159 218 269 289
#     4  10  17  30  49  74 100 134 168 215 270 303
#
# _framework density 25.501891000000001
#
# number of rings (size 3 to 8) (size 9 to 14) (size 15 to 20)
#    0.000    2.000    6.667    1.500    0.000    1.333 
#    0.000    1.667    0.000    0.000    0.000   16.333 
#    0.000    0.000    8.000    0.000    0.000    0.000 
#
# Total GULP energy -133770.269898 kJ/mol
# GULP energy per Si atom -5573.761246 kJ/mol
# Density = 2.544385 g / cm^3
# Si number density = 25.501891 Si / 1000 Ang^3
#
#
#
# Elastic Constant Matrix: (Units=GPa)
#
#
# Indices 1 2 3 4 5 6 
#
# 1 183.6701 9.0757 43.7773 0.0000 0.0000 0.0000
# 2 9.0757 122.7421 8.1889 0.0000 0.0000 0.0000
# 3 43.7773 8.1889 95.6708 0.0000 0.0000 0.0000
# 4 0.0000 0.0000 0.0000 4.6840 0.0000 0.0000
# 5 0.0000 0.0000 0.0000 0.0000 65.1226 0.0000
# 6 0.0000 0.0000 0.0000 0.0000 0.0000 -104.6040
#
#
#
# Elastic Compliance Matrix: (Units=1/GPa)
#
#
# Indices 1 2 3 4 5 6 
#
# 1 0.006120 -0.000267 -0.002777 0.000000 0.000000 0.000000
# 2 -0.000267 0.008206 -0.000580 0.000000 0.000000 0.000000
# 3 -0.002777 -0.000580 0.011773 0.000000 0.000000 0.000000
# 4 0.000000 0.000000 0.000000 0.213492 0.000000 0.000000
# 5 0.000000 0.000000 0.000000 0.000000 0.015356 0.000000
# 6 0.000000 0.000000 0.000000 0.000000 0.000000 -0.009560
#
#
# Mechanical properties :
#
#
# Convention : Reuss Voigt Hill
#
# Bulk Modulus (GPa) = 53.05320 58.24076 55.64698
# Shear Modulus (GPa) = 19.31112 15.77659 17.54386
#
# Velocity S-wave (km/s) = 2.75479 2.48995 2.62571
# Velocity P-wave (km/s) = 5.56483 5.58157 5.57320
#
# Compressibility (1/GPa) = 0.01884900
#
# Stress axis : x y z
#
# Youngs Moduli (GPa) = 163.40572 121.86770 84.93968
#
# Poissons Ratio (x) = 0.03256 0.23591
# Poissons Ratio (y) = 0.04366 0.04927
# Poissons Ratio (z) = 0.45385 0.07069
#
# Static dielectric constant tensor:
#      x y z
#    x 1.987110 0.000000 0.000000 
#    y 0.000000 2.102530 0.000000 
#    z 0.000000 0.000000 1.689740 
# 
# From -- ./inp_files/24791.got.cif
#   From: 2010.05.17/outbox.cif.g08.bks.cpg/sg23_13_cif.got.tgz:24791.got - 2010.06.04 12:02:01.
