data_PCOD9329567
_publ_section_title
;
Structure prediction by ZEFSAII (Michael W. Deem and Ramdas Pophale) SiO2 
 PCOD9329567
Probable space group: I 2 2 2
;
_chemical_formula_sum "Si O2"
_cell_formula_units_Z 64
_cell_length_a 15.310940
_cell_length_b 8.995617
_cell_length_c 25.165029
_cell_angle_alpha 90.000000
_cell_angle_beta 90.000000
_cell_angle_gamma 90.000000
_cell_volume 3466.013471
_symmetry_space_group_name_H-M "I 2 2 2"
_symmetry_group_IT_number 23
_symmetry_cell_setting 'orthorhombic'
loop_
_space_group_symop_operation_xyz
x,y,z
-x,-y,z
x,-y,-z
-x,y,-z
1/2+x,1/2+y,1/2+z
1/2-x,1/2-y,1/2+z
1/2+x,1/2-y,1/2-z
1/2-x,1/2+y,1/2-z
loop_
_atom_site_type_symbol
_atom_site_label
_atom_site_fract_x
_atom_site_fract_y
_atom_site_fract_z
Si Si1 0.591488 0.133438 0.470512
Si Si2 0.542049 0.337553 0.679225
Si Si3 0.714634 0.172238 0.881850
Si Si4 0.258437 0.908059 0.702664
Si Si5 0.116411 0.369641 0.148388
Si Si6 0.849110 0.202772 0.283084
Si Si7 0.773306 0.827950 0.882383
Si Si8 0.258534 0.674471 0.495878
O O1 0.500000 0.150480 0.500000
O O2 0.587554 0.082894 0.410293
O O3 0.644605 0.283960 0.476127
O O4 0.641775 0.000000 0.500000
O O5 0.500000 0.500000 0.673538
O O6 0.466028 0.218444 0.670086
O O7 0.576343 0.311020 0.739013
O O8 0.624890 0.329503 0.638076
O O9 0.800872 0.260322 0.861412
O O10 0.639468 0.226902 0.841473
O O11 0.701669 0.218903 0.943894
O O12 0.735545 0.995973 0.877989
O O13 0.279741 0.813636 0.754753
O O14 0.231070 0.789882 0.657942
O O15 0.345858 0.994555 0.682604
O O16 0.189583 0.037648 0.711786
O O17 0.756544 0.773740 0.942845
O O18 0.246616 0.500000 0.500000
#
# Coordination Sequence:
#
# PCOD9329567 Si02
#       8
#     8   8   8   8   8   8   8   8
#     4  10  19  29  41  63 100 135 174 205 244 290
#     4  11  21  33  52  73 106 140 175 221 266 312
#     4   9  18  35  50  71 103 136 175 213 257 301
#     4  10  21  33  54  71 101 137 182 213 260 313
#     4  10  20  33  49  69  99 139 175 215 254 307
#     4  10  21  34  50  73  96 142 173 222 263 305
#     4  10  18  32  52  76 102 136 176 211 259 311
#     4   9  18  30  49  71  96 132 168 212 243 306
#
# _framework density 18.465015999999999
#
# number of rings (size 3 to 8) (size 9 to 14) (size 15 to 20)
#    0.000    2.125    1.250    3.000    1.750    5.250 
#    0.000    0.000    0.000    0.000    0.000    0.000 
#    0.000    2.000    2.500    0.000    0.000    0.000 
#
# Total GULP energy -178168.402083 kJ/mol
# GULP energy per Si atom -5567.762565 kJ/mol
# Density = 1.842299 g / cm^3
# Si number density = 18.465016 Si / 1000 Ang^3
#
#
#
# Elastic Constant Matrix: (Units=GPa)
#
#
# Indices 1 2 3 4 5 6 
#
# 1 16.5509 6.2038 21.5174 0.0000 0.0000 0.0000
# 2 6.2038 69.1455 33.0383 0.0000 0.0000 0.0000
# 3 21.5174 33.0383 147.5895 0.0000 0.0000 0.0000
# 4 0.0000 0.0000 0.0000 25.6516 0.0000 0.0000
# 5 0.0000 0.0000 0.0000 0.0000 12.4360 0.0000
# 6 0.0000 0.0000 0.0000 0.0000 0.0000 18.8411
#
#
#
# Elastic Compliance Matrix: (Units=1/GPa)
#
#
# Indices 1 2 3 4 5 6 
#
# 1 0.074723 -0.001678 -0.010518 0.000000 0.000000 0.000000
# 2 -0.001678 0.016232 -0.003389 0.000000 0.000000 0.000000
# 3 -0.010518 -0.003389 0.009068 0.000000 0.000000 0.000000
# 4 0.000000 0.000000 0.000000 0.038984 0.000000 0.000000
# 5 0.000000 0.000000 0.000000 0.000000 0.080412 0.000000
# 6 0.000000 0.000000 0.000000 0.000000 0.000000 0.053076
#
#
# Mechanical properties :
#
#
# Convention : Reuss Voigt Hill
#
# Bulk Modulus (GPa) = 14.52400 39.42276 26.97338
# Shear Modulus (GPa) = 15.30850 22.88751 19.09800
#
# Velocity S-wave (km/s) = 2.88245 3.52448 3.21951
# Velocity P-wave (km/s) = 4.35440 6.16108 5.33478
#
# Compressibility (1/GPa) = 0.06885156
#
# Stress axis : x y z
#
# Youngs Moduli (GPa) = 13.38272 61.60640 110.28224
#
# Poissons Ratio (x) = 0.10341 1.15998
# Poissons Ratio (y) = 0.02246 0.37373
# Poissons Ratio (z) = 0.14076 0.20878
#
# Static dielectric constant tensor:
#      x y z
#    x 1.631210 0.000000 0.000000 
#    y 0.000000 1.680130 0.000000 
#    z 0.000000 0.000000 1.712320 
# 
# From -- ./inp_files/28656.got.cif
#   From: 2010.05.17/outbox.cif.g08.bks.cpg/sg23_15_cif.got.tgz:28656.got - 2010.06.04 12:02:01.
