data_PCOD9329734
_publ_section_title
;
Structure prediction by ZEFSAII (Michael W. Deem and Ramdas Pophale) SiO2 
 PCOD9329734
Probable space group: I 2 2 2
;
_chemical_formula_sum "Si O2"
_cell_formula_units_Z 40
_cell_length_a 16.284249
_cell_length_b 8.423749
_cell_length_c 12.956435
_cell_angle_alpha 90.000000
_cell_angle_beta 90.000000
_cell_angle_gamma 90.000000
_cell_volume 1777.291537
_symmetry_space_group_name_H-M "I 2 2 2"
_symmetry_group_IT_number 23
_symmetry_cell_setting 'orthorhombic'
loop_
_space_group_symop_operation_xyz
x,y,z
-x,-y,z
x,-y,-z
-x,y,-z
1/2+x,1/2+y,1/2+z
1/2-x,1/2-y,1/2+z
1/2+x,1/2-y,1/2-z
1/2-x,1/2+y,1/2-z
loop_
_atom_site_type_symbol
_atom_site_label
_atom_site_fract_x
_atom_site_fract_y
_atom_site_fract_z
Si Si1 0.500000 0.000000 0.000000
Si Si2 0.000000 0.000000 0.500000
Si Si3 0.630827 0.000000 0.500000
Si Si4 0.267781 0.699551 0.881819
Si Si5 0.879398 0.751770 0.417799
Si Si6 0.613246 0.500000 0.500000
Si Si7 0.266153 0.435462 0.325767
Si Si8 0.500000 0.761601 0.500000
O O1 0.559222 0.894687 0.931126
O O2 0.941955 0.898568 0.422891
O O3 0.688628 0.100478 0.423330
O O4 0.566427 0.122923 0.552919
O O5 0.301793 0.598133 0.786508
O O6 0.255643 0.879971 0.842711
O O7 0.327398 0.717229 0.978334
O O8 0.810549 0.686260 0.338825
O O9 0.669970 0.590122 0.418426
O O10 0.558018 0.633124 0.557353
#
# Coordination Sequence:
#
# PCOD9329734 Si02
#       8
#     2   2   4   8   8   4   8   4
#     4  10  18  42  74  90 136 182 220 278 362 386
#     4  10  26  38  78 102 136 186 216 290 362 410
#     4  11  23  46  69 101 138 182 232 287 343 406
#     4  12  26  43  75 103 134 187 239 282 339 412
#     4  11  22  47  70  99 138 182 227 287 345 407
#     4  11  21  46  71  97 140 184 226 281 347 406
#     4  12  25  44  74 103 137 185 238 284 336 413
#     4  10  22  40  74  96 138 186 218 284 356 400
#
# _framework density 22.506156000000001
#
# number of rings (size 3 to 8) (size 9 to 14) (size 15 to 20)
#    0.000    0.800    6.000    0.600    8.400    0.000 
#    0.000    8.000    0.000    0.000    0.000    0.000 
#    0.000    0.000    0.000    0.000    0.000    0.000 
#
# Total GULP energy -111392.993650 kJ/mol
# GULP energy per Si atom -5569.649682 kJ/mol
# Density = 2.245493 g / cm^3
# Si number density = 22.506156 Si / 1000 Ang^3
#
#
#
# Elastic Constant Matrix: (Units=GPa)
#
#
# Indices 1 2 3 4 5 6 
#
# 1 117.3721 60.8100 27.3481 0.0000 0.0000 0.0000
# 2 60.8100 144.2816 16.4102 0.0000 0.0000 0.0000
# 3 27.3481 16.4102 58.2379 0.0000 0.0000 0.0000
# 4 0.0000 0.0000 0.0000 29.1702 0.0000 0.0000
# 5 0.0000 0.0000 0.0000 0.0000 7.8102 0.0000
# 6 0.0000 0.0000 0.0000 0.0000 0.0000 87.5062
#
#
#
# Elastic Compliance Matrix: (Units=1/GPa)
#
#
# Indices 1 2 3 4 5 6 
#
# 1 0.011857 -0.004509 -0.004298 0.000000 0.000000 0.000000
# 2 -0.004509 0.008875 -0.000384 0.000000 0.000000 0.000000
# 3 -0.004298 -0.000384 0.019297 0.000000 0.000000 0.000000
# 4 0.000000 0.000000 0.000000 0.034282 0.000000 0.000000
# 5 0.000000 0.000000 0.000000 0.000000 0.128037 0.000000
# 6 0.000000 0.000000 0.000000 0.000000 0.000000 0.011428
#
#
# Mechanical properties :
#
#
# Convention : Reuss Voigt Hill
#
# Bulk Modulus (GPa) = 46.19025 58.78092 52.48558
# Shear Modulus (GPa) = 20.88805 39.25222 30.07014
#
# Velocity S-wave (km/s) = 3.04979 4.18073 3.65922
# Velocity P-wave (km/s) = 5.74191 7.03414 6.42062
#
# Compressibility (1/GPa) = 0.02164959
#
# Stress axis : x y z
#
# Youngs Moduli (GPa) = 84.33718 112.67932 51.82114
#
# Poissons Ratio (x) = 0.50803 0.22271
# Poissons Ratio (y) = 0.38024 0.01987
# Poissons Ratio (z) = 0.36245 0.04321
#
# Static dielectric constant tensor:
#      x y z
#    x 1.896680 0.000000 0.000000 
#    y 0.000000 1.912550 0.000000 
#    z 0.000000 0.000000 1.773830 
# 
# From -- ./inp_files/21410.got.cif
#   From: 2010.05.17/outbox.cif.g08.bks.cpg/sg23_11_cif.got.tgz:21410.got - 2010.06.04 12:02:01.
