data_PCOD9329984
_publ_section_title
;
Structure prediction by ZEFSAII (Michael W. Deem and Ramdas Pophale) SiO2 
 PCOD9329984
Probable space group: I 2 2 2
;
_chemical_formula_sum "Si O2"
_cell_formula_units_Z 64
_cell_length_a 9.077603
_cell_length_b 24.153117
_cell_length_c 15.685671
_cell_angle_alpha 90.000000
_cell_angle_beta 90.000000
_cell_angle_gamma 90.000000
_cell_volume 3439.121127
_symmetry_space_group_name_H-M "I 2 2 2"
_symmetry_group_IT_number 23
_symmetry_cell_setting 'orthorhombic'
loop_
_space_group_symop_operation_xyz
x,y,z
-x,-y,z
x,-y,-z
-x,y,-z
1/2+x,1/2+y,1/2+z
1/2-x,1/2-y,1/2+z
1/2+x,1/2-y,1/2-z
1/2-x,1/2+y,1/2-z
loop_
_atom_site_type_symbol
_atom_site_label
_atom_site_fract_x
_atom_site_fract_y
_atom_site_fract_z
Si Si1 0.325471 0.565820 0.500000
Si Si2 0.826833 0.244199 0.102496
Si Si3 0.323383 0.868863 0.652747
Si Si4 0.324026 0.564871 1.000000
Si Si5 0.323383 0.131137 0.652747
Si Si6 0.175677 0.368363 0.653003
Si Si7 0.173167 0.244199 0.102496
Si Si8 0.324323 0.868363 0.153003
O O1 0.302107 0.500000 0.500000
O O2 0.500000 0.577208 0.500000
O O3 0.253908 0.593680 0.416965
O O4 0.253908 0.593680 0.583035
O O5 0.784879 0.304261 0.138379
O O6 0.731249 0.194231 0.138602
O O7 0.000000 0.234557 0.121830
O O8 0.811627 0.245480 0.000000
O O9 0.242443 0.905563 0.583021
O O10 0.500000 0.873127 0.639689
O O11 0.289465 0.884988 0.749871
O O12 0.257557 0.594437 0.916979
O O13 0.286392 0.500000 0.000000
O O14 0.500000 0.570595 0.000000
O O15 0.284879 0.195739 0.638379
O O16 0.289465 0.115012 0.749871
O O17 0.231249 0.305769 0.638602
O O18 0.000000 0.370733 0.641582
#
# Coordination Sequence:
#
# PCOD9329984 Si02
#       8
#     8   8   8   8   8   8   8   8
#     4  11  25  44  63  82 113 160 204 245 298 353
#     4  10  19  35  61  89 122 159 194 235 289 354
#     4  10  22  41  63  89 121 159 197 239 294 352
#     4  11  25  42  61  88 119 154 200 251 296 345
#     4  10  22  41  63  89 121 159 197 239 294 352
#     4  11  23  38  62  93 122 153 195 245 296 350
#     4  10  19  35  61  89 122 159 194 235 289 354
#     4  11  23  38  62  93 122 153 195 245 296 350
#
# _framework density 18.609407000000001
#
# number of rings (size 3 to 8) (size 9 to 14) (size 15 to 20)
#    0.000    1.500    2.500    2.250    0.000    6.000 
#    0.000    5.000    0.000    0.000    0.000    0.000 
#    0.000    0.000    0.000    0.000    0.000    0.000 
#
# Total GULP energy -178898.739265 kJ/mol
# GULP energy per Si atom -5590.585602 kJ/mol
# Density = 1.856705 g / cm^3
# Si number density = 18.609407 Si / 1000 Ang^3
#
#
#
# Elastic Constant Matrix: (Units=GPa)
#
#
# Indices 1 2 3 4 5 6 
#
# 1 77.1126 80.8813 90.4720 0.0000 0.0000 0.0000
# 2 80.8813 129.7479 101.6201 0.0000 0.0000 0.0000
# 3 90.4720 101.6201 173.3867 0.0000 0.0000 0.0000
# 4 0.0000 0.0000 0.0000 -8.8484 0.0000 0.0000
# 5 0.0000 0.0000 0.0000 0.0000 16.7217 0.0000
# 6 0.0000 0.0000 0.0000 0.0000 0.0000 -4.7142
#
#
#
# Elastic Compliance Matrix: (Units=1/GPa)
#
#
# Indices 1 2 3 4 5 6 
#
# 1 0.053052 -0.021055 -0.015342 0.000000 0.000000 0.000000
# 2 -0.021055 0.022604 -0.002261 0.000000 0.000000 0.000000
# 3 -0.015342 -0.002261 0.015098 0.000000 0.000000 0.000000
# 4 0.000000 0.000000 0.000000 -0.113015 0.000000 0.000000
# 5 0.000000 0.000000 0.000000 0.000000 0.059803 0.000000
# 6 0.000000 0.000000 0.000000 0.000000 0.000000 -0.212125
#
#
# Mechanical properties :
#
#
# Convention : Reuss Voigt Hill
#
# Bulk Modulus (GPa) = 74.42196 102.91044 88.66620
# Shear Modulus (GPa) = -53.88659 7.78341 -23.05159
#
# Velocity S-wave (km/s) = -5.38698 2.04734 -3.52334
# Velocity P-wave (km/s) = 1.17717 7.81083 5.58546
#
# Compressibility (1/GPa) = 0.01343690
#
# Stress axis : x y z
#
# Youngs Moduli (GPa) = 18.84929 44.24092 66.23340
#
# Poissons Ratio (x) = 0.93150 1.01616
# Poissons Ratio (y) = 0.39688 0.14977
# Poissons Ratio (z) = 0.28919 0.10004
#
# Static dielectric constant tensor:
#      x y z
#    x 1.618840 0.000000 0.000000 
#    y 0.000000 1.614000 0.000000 
#    z 0.000000 0.000000 1.630970 
# 
# From -- ./inp_files/20350.got.cif
#   From: 2010.05.17/outbox.cif.g08.bks.cpg/sg23_11_cif.got.tgz:20350.got - 2010.06.04 12:02:01.
