data_PCOD9329762
_publ_section_title
;
Structure prediction by ZEFSAII (Michael W. Deem and Ramdas Pophale) SiO2 
 PCOD9329762
Probable space group: I 2 2 2
;
_chemical_formula_sum "Si O2"
_cell_formula_units_Z 36
_cell_length_a 9.893503
_cell_length_b 14.365309
_cell_length_c 14.365393
_cell_angle_alpha 90.000000
_cell_angle_beta 90.000000
_cell_angle_gamma 90.000000
_cell_volume 2041.656020
_symmetry_space_group_name_H-M "I 2 2 2"
_symmetry_group_IT_number 23
_symmetry_cell_setting 'orthorhombic'
loop_
_space_group_symop_operation_xyz
x,y,z
-x,-y,z
x,-y,-z
-x,y,-z
1/2+x,1/2+y,1/2+z
1/2-x,1/2-y,1/2+z
1/2+x,1/2-y,1/2-z
1/2-x,1/2+y,1/2-z
loop_
_atom_site_type_symbol
_atom_site_label
_atom_site_fract_x
_atom_site_fract_y
_atom_site_fract_z
Si Si1 0.159670 0.109906 0.754518
Si Si2 0.361733 0.826355 0.091670
Si Si3 0.840330 0.745484 0.609906
Si Si4 0.361733 0.408330 0.673644
Si Si5 0.000000 0.000000 0.000000
Si Si6 0.500000 0.000000 0.000000
O O1 0.250447 0.164088 0.829676
O O2 0.186175 0.153809 0.653810
O O3 0.002005 0.123333 0.779929
O O4 0.185531 0.000295 0.770740
O O5 0.502006 0.779928 0.123335
O O6 0.314472 0.770738 0.999705
O O7 0.406379 0.930337 0.058968
O O8 0.749552 0.670326 0.664086
O O9 0.406379 0.441032 0.569662
#
# Coordination Sequence:
#
# PCOD9329762 Si02
#       6
#     8   8   8   8   2   2
#     4  10  19  32  49  72 102 130 160 198 241 290
#     4  10  19  30  50  74  98 126 160 202 249 288
#     4  10  19  32  49  72 102 130 160 198 241 290
#     4  10  19  30  50  74  98 126 160 202 249 288
#     4   8  16  30  48  74  96 118 156 214 260 286
#     4   8  16  30  48  74  96 118 156 214 260 286
#
# _framework density 17.632746000000001
#
# number of rings (size 3 to 8) (size 9 to 14) (size 15 to 20)
#    0.000    2.667    0.000    6.667    0.000    1.778 
#    0.000    0.000    0.000   22.667    0.000    0.000 
#    0.000   49.778    0.000    0.000    0.000    0.000 
#
# Total GULP energy -100356.263014 kJ/mol
# GULP energy per Si atom -5575.347945 kJ/mol
# Density = 1.759261 g / cm^3
# Si number density = 17.632746 Si / 1000 Ang^3
#
#
#
# Elastic Constant Matrix: (Units=GPa)
#
#
# Indices 1 2 3 4 5 6 
#
# 1 49.7136 10.3171 10.3163 0.0000 0.0000 0.0000
# 2 10.3171 50.7480 26.1024 0.0000 0.0000 0.0000
# 3 10.3163 26.1024 50.7456 0.0000 0.0000 0.0000
# 4 0.0000 0.0000 0.0000 18.5662 0.0000 0.0000
# 5 0.0000 0.0000 0.0000 0.0000 4.8626 0.0000
# 6 0.0000 0.0000 0.0000 0.0000 0.0000 4.8617
#
#
#
# Elastic Compliance Matrix: (Units=1/GPa)
#
#
# Indices 1 2 3 4 5 6 
#
# 1 0.021302 -0.002860 -0.002860 0.000000 0.000000 0.000000
# 2 -0.002860 0.027178 -0.013398 0.000000 0.000000 0.000000
# 3 -0.002860 -0.013398 0.027179 0.000000 0.000000 0.000000
# 4 0.000000 0.000000 0.000000 0.053861 0.000000 0.000000
# 5 0.000000 0.000000 0.000000 0.000000 0.205650 0.000000
# 6 0.000000 0.000000 0.000000 0.000000 0.000000 0.205690
#
#
# Mechanical properties :
#
#
# Convention : Reuss Voigt Hill
#
# Bulk Modulus (GPa) = 26.72093 27.18653 26.95373
# Shear Modulus (GPa) = 8.45206 12.62286 10.53746
#
# Velocity S-wave (km/s) = 2.19176 2.67849 2.44725
# Velocity P-wave (km/s) = 4.64673 5.00174 4.82750
#
# Compressibility (1/GPa) = 0.03742385
#
# Stress axis : x y z
#
# Youngs Moduli (GPa) = 46.94364 36.79417 36.79262
#
# Poissons Ratio (x) = 0.10523 0.10521
# Poissons Ratio (y) = 0.13425 0.49297
# Poissons Ratio (z) = 0.13424 0.49299
#
# Static dielectric constant tensor:
#      x y z
#    x 1.614090 0.000000 0.000000 
#    y 0.000000 1.608650 0.000000 
#    z 0.000000 0.000000 1.608650 
# 
# From -- ./inp_files/20667.got.cif
#   From: 2010.05.17/outbox.cif.g08.bks.cpg/sg23_11_cif.got.tgz:20667.got - 2010.06.04 12:02:01.
