data_PCOD9329568
_publ_section_title
;
Structure prediction by ZEFSAII (Michael W. Deem and Ramdas Pophale) SiO2 
 PCOD9329568
Probable space group: I 2 2 2
;
_chemical_formula_sum "Si O2"
_cell_formula_units_Z 64
_cell_length_a 24.161367
_cell_length_b 7.958735
_cell_length_c 14.817734
_cell_angle_alpha 90.000000
_cell_angle_beta 90.000000
_cell_angle_gamma 90.000000
_cell_volume 2849.360115
_symmetry_space_group_name_H-M "I 2 2 2"
_symmetry_group_IT_number 23
_symmetry_cell_setting 'orthorhombic'
loop_
_space_group_symop_operation_xyz
x,y,z
-x,-y,z
x,-y,-z
-x,y,-z
1/2+x,1/2+y,1/2+z
1/2-x,1/2-y,1/2+z
1/2+x,1/2-y,1/2-z
1/2-x,1/2+y,1/2-z
loop_
_atom_site_type_symbol
_atom_site_label
_atom_site_fract_x
_atom_site_fract_y
_atom_site_fract_z
Si Si1 0.149003 0.700475 0.518693
Si Si2 0.649418 0.417144 0.640619
Si Si3 0.065029 0.785945 0.030197
Si Si4 0.764180 0.356055 0.075235
Si Si5 0.436608 0.956205 0.373730
Si Si6 0.150517 0.763358 0.327376
Si Si7 0.726376 0.681251 0.725032
Si Si8 0.377996 0.878797 0.204684
O O1 0.148112 0.500000 0.500000
O O2 0.211399 0.754189 0.539539
O O3 0.133263 0.803969 0.429399
O O4 0.114716 0.718886 0.611008
O O5 0.594872 0.442458 0.580008
O O6 0.685593 0.271251 0.592780
O O7 0.633511 0.380262 0.744816
O O8 0.694141 0.564656 0.654326
O O9 0.082003 0.647109 0.109225
O O10 0.086567 0.676850 0.945380
O O11 0.000000 0.811773 0.000000
O O12 0.745327 0.402126 0.178724
O O13 0.775824 0.500000 0.000000
O O14 0.425659 0.871201 0.278451
O O15 0.500000 0.000000 0.392077
O O16 0.217011 0.744546 0.319017
O O17 0.127896 0.576711 0.311482
O O18 0.680155 0.816898 0.753458
#
# Coordination Sequence:
#
# PCOD9329568 Si02
#       8
#     8   8   8   8   8   8   8   8
#     4   9  18  32  50  75 113 151 183 230 284 343
#     4  11  20  32  53  79 110 154 195 235 288 339
#     4   9  19  34  55  80 100 133 189 241 287 340
#     4  10  21  33  50  78 119 160 205 236 276 350
#     4   9  18  35  58  79  99 134 187 244 292 338
#     4  10  18  32  52  77 115 159 194 228 272 344
#     4  10  21  33  49  81 122 155 188 233 286 356
#     4  10  19  34  54  79 108 148 192 231 291 340
#
# _framework density 22.461182000000001
#
# number of rings (size 3 to 8) (size 9 to 14) (size 15 to 20)
#    0.000    2.250    1.250    4.500    1.750    2.000 
#    0.000    1.875    0.000   10.875    0.000    0.000 
#    0.000    0.000   27.500    0.000    0.000    0.000 
#
# Total GULP energy -178222.860453 kJ/mol
# GULP energy per Si atom -5569.464389 kJ/mol
# Density = 2.241006 g / cm^3
# Si number density = 22.461182 Si / 1000 Ang^3
#
#
#
# Elastic Constant Matrix: (Units=GPa)
#
#
# Indices 1 2 3 4 5 6 
#
# 1 42.5117 -5.5328 36.3938 0.0000 0.0000 0.0000
# 2 -5.5328 15.9497 17.5657 0.0000 0.0000 0.0000
# 3 36.3938 17.5657 146.0800 0.0000 0.0000 0.0000
# 4 0.0000 0.0000 0.0000 30.8620 0.0000 0.0000
# 5 0.0000 0.0000 0.0000 0.0000 28.2596 0.0000
# 6 0.0000 0.0000 0.0000 0.0000 0.0000 28.2799
#
#
#
# Elastic Compliance Matrix: (Units=1/GPa)
#
#
# Indices 1 2 3 4 5 6 
#
# 1 0.037952 0.027178 -0.012723 0.000000 0.000000 0.000000
# 2 0.027178 0.091729 -0.017801 0.000000 0.000000 0.000000
# 3 -0.012723 -0.017801 0.012156 0.000000 0.000000 0.000000
# 4 0.000000 0.000000 0.000000 0.032402 0.000000 0.000000
# 5 0.000000 0.000000 0.000000 0.000000 0.035386 0.000000
# 6 0.000000 0.000000 0.000000 0.000000 0.000000 0.035361
#
#
# Mechanical properties :
#
#
# Convention : Reuss Voigt Hill
#
# Bulk Modulus (GPa) = 7.39950 33.48833 20.44391
# Shear Modulus (GPa) = 16.85041 27.88795 22.36918
#
# Velocity S-wave (km/s) = 2.74195 3.52747 3.15922
# Velocity P-wave (km/s) = 3.65047 5.61538 4.73595
#
# Compressibility (1/GPa) = 0.13514422
#
# Stress axis : x y z
#
# Youngs Moduli (GPa) = 26.34879 10.90163 82.26411
#
# Poissons Ratio (x) = -0.29628 1.04668
# Poissons Ratio (y) = -0.71610 1.46440
# Poissons Ratio (z) = 0.33525 0.19406
#
# Static dielectric constant tensor:
#      x y z
#    x 1.896340 0.000000 0.000000 
#    y 0.000000 2.094000 0.000000 
#    z 0.000000 0.000000 1.926470 
# 
# From -- ./inp_files/22608.got.cif
#   From: 2010.05.17/outbox.cif.g08.bks.cpg/sg23_12_cif.got.tgz:22608.got - 2010.06.04 12:02:01.
