data_PCOD9329753
_publ_section_title
;
Structure prediction by ZEFSAII (Michael W. Deem and Ramdas Pophale) SiO2 
 PCOD9329753
Probable space group: I 2 2 2
;
_chemical_formula_sum "Si O2"
_cell_formula_units_Z 48
_cell_length_a 10.842871
_cell_length_b 9.044156
_cell_length_c 19.173094
_cell_angle_alpha 90.000000
_cell_angle_beta 90.000000
_cell_angle_gamma 90.000000
_cell_volume 1880.202116
_symmetry_space_group_name_H-M "I 2 2 2"
_symmetry_group_IT_number 23
_symmetry_cell_setting 'orthorhombic'
loop_
_space_group_symop_operation_xyz
x,y,z
-x,-y,z
x,-y,-z
-x,y,-z
1/2+x,1/2+y,1/2+z
1/2-x,1/2-y,1/2+z
1/2+x,1/2-y,1/2-z
1/2-x,1/2+y,1/2-z
loop_
_atom_site_type_symbol
_atom_site_label
_atom_site_fract_x
_atom_site_fract_y
_atom_site_fract_z
Si Si1 0.761301 0.801706 0.384253
Si Si2 0.854961 0.711179 0.184004
Si Si3 0.251007 0.796345 0.460331
Si Si4 0.139833 0.014893 0.096485
Si Si5 0.475135 0.837933 0.893798
Si Si6 0.629661 0.821366 0.253337
O O1 0.741234 0.861765 0.462648
O O2 0.691611 0.644665 0.387114
O O3 0.903102 0.754519 0.375770
O O4 0.704622 0.888075 0.318685
O O5 0.831203 0.648431 0.105548
O O6 0.731704 0.694506 0.231322
O O7 0.989174 0.683829 0.216439
O O8 0.859617 0.887467 0.167150
O O9 0.293420 0.623390 0.458367
O O10 0.109604 0.773951 0.437700
O O11 0.000000 0.000000 0.075035
O O12 0.399892 0.880654 0.823811
O O13 0.500000 0.000000 0.925820
#
# Coordination Sequence:
#
# PCOD9329753 Si02
#       6
#     8   8   8   8   8   8
#     4  12  19  31  54  75 109 143 169 219 264 316
#     4   9  20  33  46  70 105 132 178 207 255 324
#     4   9  21  31  48  80 105 139 172 207 264 333
#     4  10  19  30  46  73 106 134 167 207 259 323
#     4  11  21  35  52  75 111 146 180 212 265 334
#     4  11  20  33  50  71 104 146 177 214 255 313
#
# _framework density 25.529171000000002
#
# number of rings (size 3 to 8) (size 9 to 14) (size 15 to 20)
#    1.000    0.667    5.000    1.000    0.000    4.000 
#    0.000    0.000    0.000    0.000    0.000    2.333 
#    0.000    0.000    3.000    0.000    0.000    0.000 
#
# Total GULP energy -133685.553792 kJ/mol
# GULP energy per Si atom -5570.231408 kJ/mol
# Density = 2.547106 g / cm^3
# Si number density = 25.529171 Si / 1000 Ang^3
#
#
#
# Elastic Constant Matrix: (Units=GPa)
#
#
# Indices 1 2 3 4 5 6 
#
# 1 182.4643 -1.8505 34.3832 0.0000 0.0000 0.0000
# 2 -1.8505 53.3733 27.0008 0.0000 0.0000 0.0000
# 3 34.3832 27.0008 200.5774 0.0000 0.0000 0.0000
# 4 0.0000 0.0000 0.0000 111.4711 0.0000 0.0000
# 5 0.0000 0.0000 0.0000 0.0000 -6.9435 0.0000
# 6 0.0000 0.0000 0.0000 0.0000 0.0000 3.5301
#
#
#
# Elastic Compliance Matrix: (Units=1/GPa)
#
#
# Indices 1 2 3 4 5 6 
#
# 1 0.005691 0.000741 -0.001075 0.000000 0.000000 0.000000
# 2 0.000741 0.020202 -0.002847 0.000000 0.000000 0.000000
# 3 -0.001075 -0.002847 0.005553 0.000000 0.000000 0.000000
# 4 0.000000 0.000000 0.000000 0.008971 0.000000 0.000000
# 5 0.000000 0.000000 0.000000 0.000000 -0.144019 0.000000
# 6 0.000000 0.000000 0.000000 0.000000 0.000000 0.283279
#
#
# Mechanical properties :
#
#
# Convention : Reuss Voigt Hill
#
# Bulk Modulus (GPa) = 39.86547 61.72023 50.79285
# Shear Modulus (GPa) = 25.72031 46.73696 36.22863
#
# Velocity S-wave (km/s) = 3.17754 4.28334 3.77119
# Velocity P-wave (km/s) = 5.39554 6.97793 6.23712
#
# Compressibility (1/GPa) = 0.02508436
#
# Stress axis : x y z
#
# Youngs Moduli (GPa) = 175.72635 49.50089 180.07898
#
# Poissons Ratio (x) = -0.03669 0.19364
# Poissons Ratio (y) = -0.13026 0.51260
# Poissons Ratio (z) = 0.18896 0.14091
#
# Static dielectric constant tensor:
#      x y z
#    x 2.006850 0.000000 0.000000 
#    y 0.000000 2.083150 0.000000 
#    z 0.000000 0.000000 2.115460 
# 
# From -- ./inp_files/24351.got.cif
#   From: 2010.05.17/outbox.cif.g08.bks.cpg/sg23_13_cif.got.tgz:24351.got - 2010.06.04 12:02:01.
