data_PCOD9329206
_publ_section_title
;
Structure prediction by ZEFSAII (Michael W. Deem and Ramdas Pophale) SiO2 
 PCOD9329206
Probable space group: F 2 2 2
;
_chemical_formula_sum "Si O2"
_cell_formula_units_Z 88
_cell_length_a 18.499513
_cell_length_b 19.033861
_cell_length_c 11.992984
_cell_angle_alpha 90.000000
_cell_angle_beta 90.000000
_cell_angle_gamma 90.000000
_cell_volume 4222.935454
_symmetry_space_group_name_H-M "F 2 2 2"
_symmetry_group_IT_number 22
_symmetry_cell_setting 'orthorhombic'
loop_
_space_group_symop_operation_xyz
x,y,z
-x,-y,z
x,-y,-z
-x,y,-z
x,1/2+y,1/2+z
-x,1/2-y,1/2+z
x,1/2-y,1/2-z
-x,1/2+y,1/2-z
1/2+x,y,1/2+z
1/2-x,-y,1/2+z
1/2+x,-y,1/2-z
1/2-x,y,1/2-z
1/2+x,1/2+y,z
1/2-x,1/2-y,z
1/2+x,1/2-y,-z
1/2-x,1/2+y,-z
loop_
_atom_site_type_symbol
_atom_site_label
_atom_site_fract_x
_atom_site_fract_y
_atom_site_fract_z
Si Si1 0.750000 0.250000 0.958391
Si Si2 0.939464 0.112462 0.095512
Si Si3 0.874338 0.743191 0.884024
Si Si4 0.845080 0.500000 0.500000
Si Si5 0.810970 0.884523 0.161915
Si Si6 0.500000 0.654548 0.500000
Si Si7 0.463131 0.078228 0.215612
O O1 0.793191 0.194250 0.881276
O O2 0.806978 0.285500 0.044169
O O3 0.886481 0.176680 0.077049
O O4 0.978148 0.121422 0.212705
O O5 0.000000 0.111265 0.000000
O O6 0.896962 0.039799 0.087093
O O7 0.864210 0.750000 0.750000
O O8 0.944628 0.701954 0.928542
O O9 0.802861 0.438924 0.560658
O O10 0.750000 0.901508 0.250000
O O11 0.888400 0.902629 0.219569
O O12 0.458871 0.606474 0.590165
O O13 0.500000 0.000000 0.215551
#
# Coordination Sequence:
#
# PCOD9329206 Si02
#       7
#     8  16  16   8  16   8  16
#     4  12  26  50  72 104 146 200 254 320 388 458
#     4  12  20  42  77 104 135 184 255 314 361 439
#     4  12  25  44  70 104 147 197 249 314 381 452
#     4  12  23  46  72 106 135 190 256 308 375 454
#     4  12  27  48  73 106 148 200 249 315 390 465
#     4  12  27  42  70 111 148 198 252 318 388 451
#     4  12  24  47  76 107 149 197 259 321 379 456
#
# _framework density 20.838584999999998
#
# number of rings (size 3 to 8) (size 9 to 14) (size 15 to 20)
#    0.000    0.000    8.182    2.182    0.000    0.000 
#    9.818    0.000    0.000    0.000    0.000    0.000 
#    0.000    0.000    0.000    0.000    0.000    0.000 
#
# Total GULP energy -122706.755898 kJ/mol
# GULP energy per Si atom -5577.579814 kJ/mol
# Density = 2.079116 g / cm^3
# Si number density = 20.838585 Si / 1000 Ang^3
#
#
#
# Elastic Constant Matrix: (Units=GPa)
#
#
# Indices 1 2 3 4 5 6 
#
# 1 90.8534 35.8330 43.6226 0.0000 0.0000 0.0000
# 2 35.8330 107.3307 46.8274 0.0000 0.0000 0.0000
# 3 43.6226 46.8274 131.0872 0.0000 0.0000 0.0000
# 4 0.0000 0.0000 0.0000 25.4357 0.0000 0.0000
# 5 0.0000 0.0000 0.0000 0.0000 43.6645 0.0000
# 6 0.0000 0.0000 0.0000 0.0000 0.0000 67.1933
#
#
#
# Elastic Compliance Matrix: (Units=1/GPa)
#
#
# Indices 1 2 3 4 5 6 
#
# 1 0.013925 -0.003112 -0.003522 0.000000 0.000000 0.000000
# 2 -0.003112 0.011733 -0.003156 0.000000 0.000000 0.000000
# 3 -0.003522 -0.003156 0.009928 0.000000 0.000000 0.000000
# 4 0.000000 0.000000 0.000000 0.039315 0.000000 0.000000
# 5 0.000000 0.000000 0.000000 0.000000 0.022902 0.000000
# 6 0.000000 0.000000 0.000000 0.000000 0.000000 0.014882
#
#
# Mechanical properties :
#
#
# Convention : Reuss Voigt Hill
#
# Bulk Modulus (GPa) = 62.47712 64.64860 63.56286
# Shear Modulus (GPa) = 36.33701 40.79127 38.56414
#
# Velocity S-wave (km/s) = 4.18034 4.42915 4.30654
# Velocity P-wave (km/s) = 7.30389 7.56620 7.43620
#
# Compressibility (1/GPa) = 0.01600586
#
# Stress axis : x y z
#
# Youngs Moduli (GPa) = 71.81098 85.23115 100.72683
#
# Poissons Ratio (x) = 0.26527 0.35478
# Poissons Ratio (y) = 0.22350 0.31784
# Poissons Ratio (z) = 0.25293 0.26895
#
# Static dielectric constant tensor:
#      x y z
#    x 1.771290 0.000000 0.000000 
#    y 0.000000 1.744920 0.000000 
#    z 0.000000 0.000000 1.531970 
# 
# From -- ./inp_files/22647.got.cif
#   From: 2010.05.17/outbox.cif.g08.bks.cpg/sg22_12_cif.got.tgz:22647.got - 2010.06.03 23:40:54.
