data_PCOD9329535
_publ_section_title
;
Structure prediction by ZEFSAII (Michael W. Deem and Ramdas Pophale) SiO2 
 PCOD9329535
Probable space group: I 2 2 2
;
_chemical_formula_sum "Si O2"
_cell_formula_units_Z 54
_cell_length_a 8.139889
_cell_length_b 18.079785
_cell_length_c 19.036898
_cell_angle_alpha 90.000000
_cell_angle_beta 90.000000
_cell_angle_gamma 90.000000
_cell_volume 2801.611602
_symmetry_space_group_name_H-M "I 2 2 2"
_symmetry_group_IT_number 23
_symmetry_cell_setting 'orthorhombic'
loop_
_space_group_symop_operation_xyz
x,y,z
-x,-y,z
x,-y,-z
-x,y,-z
1/2+x,1/2+y,1/2+z
1/2-x,1/2-y,1/2+z
1/2+x,1/2-y,1/2-z
1/2-x,1/2+y,1/2-z
loop_
_atom_site_type_symbol
_atom_site_label
_atom_site_fract_x
_atom_site_fract_y
_atom_site_fract_z
Si Si1 0.701922 0.680442 0.144710
Si Si2 0.256336 0.892961 0.921076
Si Si3 0.176857 0.111721 0.784505
Si Si4 0.666194 0.745947 0.850543
Si Si5 0.000000 0.000000 0.127040
Si Si6 0.195329 0.735990 0.994596
Si Si7 0.811979 0.178846 0.787589
Si Si8 0.000000 0.500000 0.500000
O O1 0.714864 0.613705 0.200831
O O2 0.524047 0.720783 0.151760
O O3 0.739874 0.675963 0.062265
O O4 0.826586 0.741477 0.175481
O O5 0.082267 0.935690 0.918653
O O6 0.243914 0.816805 0.964006
O O7 0.292730 0.870657 0.840434
O O8 0.387531 0.947222 0.953386
O O9 0.292147 0.169862 0.826501
O O10 0.992548 0.145009 0.786525
O O11 0.145681 0.035001 0.824917
O O12 0.750189 0.695083 0.790296
O O13 0.729654 0.730833 0.928184
O O14 0.000000 0.731669 0.000000
#
# Coordination Sequence:
#
# PCOD9329535 Si02
#       8
#     8   8   8   8   4   8   8   2
#     4   9  18  31  51  76 103 129 177 228 268 308
#     4  10  24  36  50  73 107 144 181 217 252 319
#     4   9  18  33  52  75 100 139 180 213 259 318
#     4  10  18  30  54  74  97 134 172 221 268 304
#     4  10  20  37  54  70 105 152 182 206 256 323
#     4  11  22  34  50  75 108 137 174 218 278 323
#     4   8  17  35  50  70  97 132 177 219 260 311
#     4  12  28  34  48  76 112 146 190 214 256 306
#
# _framework density 19.274619999999999
#
# number of rings (size 3 to 8) (size 9 to 14) (size 15 to 20)
#    0.000    2.370    0.000    3.111    8.296    1.185 
#    0.000    0.000    0.000    0.000    0.000   18.667 
#    0.000   10.667    0.000    0.000    0.000    0.000 
#
# Total GULP energy -150428.990070 kJ/mol
# GULP energy per Si atom -5571.444077 kJ/mol
# Density = 1.923075 g / cm^3
# Si number density = 19.274620 Si / 1000 Ang^3
#
#
#
# Elastic Constant Matrix: (Units=GPa)
#
#
# Indices 1 2 3 4 5 6 
#
# 1 35.8090 12.2068 26.8283 0.0000 0.0000 0.0000
# 2 12.2068 25.5260 20.1562 0.0000 0.0000 0.0000
# 3 26.8283 20.1562 154.7690 0.0000 0.0000 0.0000
# 4 0.0000 0.0000 0.0000 10.8272 0.0000 0.0000
# 5 0.0000 0.0000 0.0000 0.0000 5.1155 0.0000
# 6 0.0000 0.0000 0.0000 0.0000 0.0000 20.4917
#
#
#
# Elastic Compliance Matrix: (Units=1/GPa)
#
#
# Indices 1 2 3 4 5 6 
#
# 1 0.035915 -0.013664 -0.004446 0.000000 0.000000 0.000000
# 2 -0.013664 0.048865 -0.003995 0.000000 0.000000 0.000000
# 3 -0.004446 -0.003995 0.007752 0.000000 0.000000 0.000000
# 4 0.000000 0.000000 0.000000 0.092360 0.000000 0.000000
# 5 0.000000 0.000000 0.000000 0.000000 0.195483 0.000000
# 6 0.000000 0.000000 0.000000 0.000000 0.000000 0.048800
#
#
# Mechanical properties :
#
#
# Convention : Reuss Voigt Hill
#
# Bulk Modulus (GPa) = 20.69488 37.16518 28.93003
# Shear Modulus (GPa) = 10.21464 17.74773 13.98119
#
# Velocity S-wave (km/s) = 2.30457 3.03773 2.69619
# Velocity P-wave (km/s) = 4.22392 5.62384 4.97338
#
# Compressibility (1/GPa) = 0.04832113
#
# Stress axis : x y z
#
# Youngs Moduli (GPa) = 27.84367 20.46462 128.99446
#
# Poissons Ratio (x) = 0.27963 0.57352
# Poissons Ratio (y) = 0.38046 0.51537
# Poissons Ratio (z) = 0.12380 0.08176
#
# Static dielectric constant tensor:
#      x y z
#    x 1.703130 0.000000 0.000000 
#    y 0.000000 1.674670 0.000000 
#    z 0.000000 0.000000 1.753700 
# 
# From -- ./inp_files/12169.got.cif
#   From: 2010.05.17/outbox.cif.g08.bks.cpg/sg23_7_cif.got.tgz:12169.got - 2010.06.04 12:02:01.
