data_PCOD9329693
_publ_section_title
;
Structure prediction by ZEFSAII (Michael W. Deem and Ramdas Pophale) SiO2 
 PCOD9329693
Probable space group: I 2 2 2
;
_chemical_formula_sum "Si O2"
_cell_formula_units_Z 46
_cell_length_a 25.061517
_cell_length_b 10.209683
_cell_length_c 8.431452
_cell_angle_alpha 90.000000
_cell_angle_beta 90.000000
_cell_angle_gamma 90.000000
_cell_volume 2157.356838
_symmetry_space_group_name_H-M "I 2 2 2"
_symmetry_group_IT_number 23
_symmetry_cell_setting 'orthorhombic'
loop_
_space_group_symop_operation_xyz
x,y,z
-x,-y,z
x,-y,-z
-x,y,-z
1/2+x,1/2+y,1/2+z
1/2-x,1/2-y,1/2+z
1/2+x,1/2-y,1/2-z
1/2-x,1/2+y,1/2-z
loop_
_atom_site_type_symbol
_atom_site_label
_atom_site_fract_x
_atom_site_fract_y
_atom_site_fract_z
Si Si1 0.344093 0.500000 0.000000
Si Si2 0.691308 0.348650 0.464720
Si Si3 0.906881 0.331089 0.389085
Si Si4 0.990330 0.147548 0.307944
Si Si5 0.798614 0.255487 0.313208
Si Si6 0.000000 0.500000 0.500000
Si Si7 0.602862 0.708626 0.777000
O O1 0.311738 0.622468 0.918911
O O2 0.380683 0.428032 0.867201
O O3 0.678545 0.500000 0.500000
O O4 0.744896 0.327030 0.363971
O O5 0.703948 0.287094 0.633136
O O6 0.643391 0.281643 0.367032
O O7 0.931247 0.204989 0.295831
O O8 0.848776 0.354897 0.322982
O O9 0.958886 0.420944 0.390516
O O10 0.894018 0.308013 0.575498
O O11 0.000000 0.154548 0.500000
O O12 0.040951 0.217712 0.229262
O O13 0.000000 0.000000 0.257715
#
# Coordination Sequence:
#
# PCOD9329693 Si02
#       7
#     4   8   8   8   8   2   8
#     4  10  18  36  67  90 130 164 215 278 322 392
#     4  12  26  43  68  97 135 179 229 280 341 405
#     4  10  21  37  67  95 128 174 214 275 322 397
#     4   9  15  29  58  92 121 161 207 255 324 380
#     4  11  24  43  64  97 133 177 224 283 338 397
#     4  12  20  40  66 102 128 168 236 256 318 428
#     4  10  18  37  59  96 128 166 214 268 323 386
#
# _framework density 21.322386999999999
#
# number of rings (size 3 to 8) (size 9 to 14) (size 15 to 20)
#    0.000    1.565    4.348    5.217    1.217    0.000 
#    0.000    0.870    0.000    1.043    0.000    0.000 
#    0.000    0.000    0.000    0.000    0.000    0.000 
#
# Total GULP energy -128120.796104 kJ/mol
# GULP energy per Si atom -5570.469396 kJ/mol
# Density = 2.127386 g / cm^3
# Si number density = 21.322387 Si / 1000 Ang^3
#
#
#
# Elastic Constant Matrix: (Units=GPa)
#
#
# Indices 1 2 3 4 5 6 
#
# 1 128.3459 -0.6603 37.3476 0.0000 0.0000 0.0000
# 2 -0.6603 24.9021 3.9809 0.0000 0.0000 0.0000
# 3 37.3476 3.9809 74.1515 0.0000 0.0000 0.0000
# 4 0.0000 0.0000 0.0000 14.4698 0.0000 0.0000
# 5 0.0000 0.0000 0.0000 0.0000 34.6600 0.0000
# 6 0.0000 0.0000 0.0000 0.0000 0.0000 18.8861
#
#
#
# Elastic Compliance Matrix: (Units=1/GPa)
#
#
# Indices 1 2 3 4 5 6 
#
# 1 0.009154 0.000988 -0.004663 0.000000 0.000000 0.000000
# 2 0.000988 0.040612 -0.002678 0.000000 0.000000 0.000000
# 3 -0.004663 -0.002678 0.015978 0.000000 0.000000 0.000000
# 4 0.000000 0.000000 0.000000 0.069110 0.000000 0.000000
# 5 0.000000 0.000000 0.000000 0.000000 0.028852 0.000000
# 6 0.000000 0.000000 0.000000 0.000000 0.000000 0.052949
#
#
# Mechanical properties :
#
#
# Convention : Reuss Voigt Hill
#
# Bulk Modulus (GPa) = 18.85469 34.30399 26.57934
# Shear Modulus (GPa) = 20.23969 26.05193 23.14581
#
# Velocity S-wave (km/s) = 3.08429 3.49923 3.29829
# Velocity P-wave (km/s) = 4.64173 5.69643 5.19591
#
# Compressibility (1/GPa) = 0.05303721
#
# Stress axis : x y z
#
# Youngs Moduli (GPa) = 109.24745 24.62355 62.58431
#
# Poissons Ratio (x) = -0.02433 0.29185
# Poissons Ratio (y) = -0.10796 0.16760
# Poissons Ratio (z) = 0.50946 0.06594
#
# Static dielectric constant tensor:
#      x y z
#    x 1.797730 0.000000 0.000000 
#    y 0.000000 1.954290 0.000000 
#    z 0.000000 0.000000 1.765340 
# 
# From -- ./inp_files/12622.got.cif
#   From: 2010.05.17/outbox.cif.g08.bks.cpg/sg23_7_cif.got.tgz:12622.got - 2010.06.04 12:02:01.
