data_PCOD9329084
_publ_section_title
;
Structure prediction by ZEFSAII (Michael W. Deem and Ramdas Pophale) SiO2 
 PCOD9329084
Probable space group: F 2 2 2
;
_chemical_formula_sum "Si O2"
_cell_formula_units_Z 60
_cell_length_a 12.630996
_cell_length_b 17.866673
_cell_length_c 10.066443
_cell_angle_alpha 90.000000
_cell_angle_beta 90.000000
_cell_angle_gamma 90.000000
_cell_volume 2271.733201
_symmetry_space_group_name_H-M "F 2 2 2"
_symmetry_group_IT_number 22
_symmetry_cell_setting 'orthorhombic'
loop_
_space_group_symop_operation_xyz
x,y,z
-x,-y,z
x,-y,-z
-x,y,-z
x,1/2+y,1/2+z
-x,1/2-y,1/2+z
x,1/2-y,1/2-z
-x,1/2+y,1/2-z
1/2+x,y,1/2+z
1/2-x,-y,1/2+z
1/2+x,-y,1/2-z
1/2-x,y,1/2-z
1/2+x,1/2+y,z
1/2-x,1/2-y,z
1/2+x,1/2-y,-z
1/2-x,1/2+y,-z
loop_
_atom_site_type_symbol
_atom_site_label
_atom_site_fract_x
_atom_site_fract_y
_atom_site_fract_z
Si Si1 0.700246 0.591964 0.893513
Si Si2 0.605315 0.096893 0.917428
Si Si3 0.000000 0.000000 0.188273
Si Si4 0.882451 0.275451 0.525938
Si Si5 0.750000 0.750000 0.250000
O O1 0.750000 0.578260 0.750000
O O2 0.587455 0.549681 0.889470
O O3 0.679478 0.681511 0.910715
O O4 0.785614 0.573708 0.009107
O O5 0.572985 0.056526 0.779406
O O6 0.611831 0.187380 0.939308
O O7 0.500000 0.078084 0.000000
O O8 0.824071 0.301411 0.659376
O O9 0.000000 0.299427 0.500000
#
# Coordination Sequence:
#
# PCOD9329084 Si02
#       5
#    16  16   8  16   4
#     4  12  27  53  87 125 174 222 298 353 432 519
#     4  11  24  53  83 121 171 232 283 343 450 506
#     4  12  29  54  87 122 182 231 271 364 438 526
#     4  11  28  51  84 125 159 225 295 351 419 506
#     4  12  24  52  82 114 172 216 264 368 428 490
#
# _framework density 26.411550999999999
#
# number of rings (size 3 to 8) (size 9 to 14) (size 15 to 20)
#    0.000    0.533    5.333    0.400    3.733    2.133 
#   12.000    0.000    0.000    0.000    0.000    0.000 
#    0.000    0.000    0.000    0.000    0.000    0.000 
#
# Total GULP energy -83646.081458 kJ/mol
# GULP energy per Si atom -5576.405431 kJ/mol
# Density = 2.635144 g / cm^3
# Si number density = 26.411551 Si / 1000 Ang^3
#
#
#
# Elastic Constant Matrix: (Units=GPa)
#
#
# Indices 1 2 3 4 5 6 
#
# 1 254.2724 69.1396 90.3596 0.0000 0.0000 0.0000
# 2 69.1396 218.5484 51.3328 0.0000 0.0000 0.0000
# 3 90.3596 51.3328 95.1150 0.0000 0.0000 0.0000
# 4 0.0000 0.0000 0.0000 48.3500 0.0000 0.0000
# 5 0.0000 0.0000 0.0000 0.0000 63.1489 0.0000
# 6 0.0000 0.0000 0.0000 0.0000 0.0000 1.7337
#
#
#
# Elastic Compliance Matrix: (Units=1/GPa)
#
#
# Indices 1 2 3 4 5 6 
#
# 1 0.006015 -0.000642 -0.005368 0.000000 0.000000 0.000000
# 2 -0.000642 0.005308 -0.002255 0.000000 0.000000 0.000000
# 3 -0.005368 -0.002255 0.016830 0.000000 0.000000 0.000000
# 4 0.000000 0.000000 0.000000 0.020683 0.000000 0.000000
# 5 0.000000 0.000000 0.000000 0.000000 0.015836 0.000000
# 6 0.000000 0.000000 0.000000 0.000000 0.000000 0.576799
#
#
# Mechanical properties :
#
#
# Convention : Reuss Voigt Hill
#
# Bulk Modulus (GPa) = 86.03016 109.95553 97.99284
# Shear Modulus (GPa) = 7.55431 46.45345 27.00388
#
# Velocity S-wave (km/s) = 1.69306 4.19839 3.20101
# Velocity P-wave (km/s) = 6.03867 8.07614 7.13055
#
# Compressibility (1/GPa) = 0.01162383
#
# Stress axis : x y z
#
# Youngs Moduli (GPa) = 166.25555 188.38017 59.41856
#
# Poissons Ratio (x) = 0.12096 0.31893
# Poissons Ratio (y) = 0.10675 0.13398
# Poissons Ratio (z) = 0.89239 0.42478
#
# Static dielectric constant tensor:
#      x y z
#    x 2.043750 0.000000 0.000000 
#    y 0.000000 2.133800 0.000000 
#    z 0.000000 0.000000 2.135440 
# 
# From -- ./inp_files/27766.got.cif
#   From: 2010.05.17/outbox.cif.g08.bks.cpg/sg22_14_cif.got.tgz:27766.got - 2010.06.03 23:40:54.
