data_PCOD9329146
_publ_section_title
;
Structure prediction by ZEFSAII (Michael W. Deem and Ramdas Pophale) SiO2 
 PCOD9329146
Probable space group: F 2 2 2
;
_chemical_formula_sum "Si O2"
_cell_formula_units_Z 56
_cell_length_a 9.936301
_cell_length_b 9.955588
_cell_length_c 20.552707
_cell_angle_alpha 90.000000
_cell_angle_beta 90.000000
_cell_angle_gamma 90.000000
_cell_volume 2033.109107
_symmetry_space_group_name_H-M "F 2 2 2"
_symmetry_group_IT_number 22
_symmetry_cell_setting 'orthorhombic'
loop_
_space_group_symop_operation_xyz
x,y,z
-x,-y,z
x,-y,-z
-x,y,-z
x,1/2+y,1/2+z
-x,1/2-y,1/2+z
x,1/2-y,1/2-z
-x,1/2+y,1/2-z
1/2+x,y,1/2+z
1/2-x,-y,1/2+z
1/2+x,-y,1/2-z
1/2-x,y,1/2-z
1/2+x,1/2+y,z
1/2-x,1/2-y,z
1/2+x,1/2-y,-z
1/2-x,1/2+y,-z
loop_
_atom_site_type_symbol
_atom_site_label
_atom_site_fract_x
_atom_site_fract_y
_atom_site_fract_z
Si Si1 0.750000 0.750000 0.420796
Si Si2 0.027874 0.199361 0.909479
Si Si3 0.803107 0.962789 0.575453
Si Si4 0.392916 0.899927 0.725835
O O1 0.607725 0.789563 0.454739
O O2 0.702716 0.608338 0.389275
O O3 0.092956 0.348167 0.902829
O O4 0.155447 0.103515 0.920805
O O5 0.956273 0.136812 0.845532
O O6 0.830912 0.000000 0.500000
O O7 0.389588 0.750000 0.750000
O O8 0.250000 0.959340 0.750000
O O9 0.500000 0.000000 0.755987
#
# Coordination Sequence:
#
# PCOD9329146 Si02
#       4
#     8  16  16  16
#     4  12  22  40  73 106 148 198 259 322 390 460
#     4  11  26  47  73 115 163 206 263 337 401 474
#     4  11  26  46  72 107 155 213 269 325 393 469
#     4  11  26  48  78 118 160 207 265 331 409 488
#
# _framework density 27.544021000000001
#
# number of rings (size 3 to 8) (size 9 to 14) (size 15 to 20)
#    0.000    0.857    0.000    6.857    0.000   16.571 
#    0.000    0.000    0.000    0.000    0.000    0.000 
#    0.000    0.000    0.000    0.000    0.000    0.000 
#
# Total GULP energy -78064.119779 kJ/mol
# GULP energy per Si atom -5576.008556 kJ/mol
# Density = 2.748133 g / cm^3
# Si number density = 27.544021 Si / 1000 Ang^3
#
#
#
# Elastic Constant Matrix: (Units=GPa)
#
#
# Indices 1 2 3 4 5 6 
#
# 1 333.9777 104.0552 42.0670 0.0000 0.0000 0.0000
# 2 104.0552 248.1833 18.4905 0.0000 0.0000 0.0000
# 3 42.0670 18.4905 79.4662 0.0000 0.0000 0.0000
# 4 0.0000 0.0000 0.0000 430.3367 0.0000 0.0000
# 5 0.0000 0.0000 0.0000 0.0000 13.4213 0.0000
# 6 0.0000 0.0000 0.0000 0.0000 0.0000 52.0627
#
#
#
# Elastic Compliance Matrix: (Units=1/GPa)
#
#
# Indices 1 2 3 4 5 6 
#
# 1 0.003633 -0.001404 -0.001596 0.000000 0.000000 0.000000
# 2 -0.001404 0.004643 -0.000337 0.000000 0.000000 0.000000
# 3 -0.001596 -0.000337 0.013507 0.000000 0.000000 0.000000
# 4 0.000000 0.000000 0.000000 0.002324 0.000000 0.000000
# 5 0.000000 0.000000 0.000000 0.000000 0.074508 0.000000
# 6 0.000000 0.000000 0.000000 0.000000 0.000000 0.019208
#
#
# Mechanical properties :
#
#
# Convention : Reuss Voigt Hill
#
# Bulk Modulus (GPa) = 66.18924 110.09471 88.14198
# Shear Modulus (GPa) = 38.59979 132.29844 85.44911
#
# Velocity S-wave (km/s) = 3.74757 6.93800 5.57585
# Velocity P-wave (km/s) = 6.54280 10.20972 8.57457
#
# Compressibility (1/GPa) = 0.01510820
#
# Stress axis : x y z
#
# Youngs Moduli (GPa) = 275.27194 215.37269 74.03318
#
# Poissons Ratio (x) = 0.30242 0.11818
# Poissons Ratio (y) = 0.38653 0.02495
# Poissons Ratio (z) = 0.43943 0.07259
#
# Static dielectric constant tensor:
#      x y z
#    x 2.199330 0.000000 0.000000 
#    y 0.000000 2.189250 0.000000 
#    z 0.000000 0.000000 2.445950 
# 
# From -- ./inp_files/51517.got.cif
#   From: 2010.05.17/outbox.cif.g08.bks.cpg/sg22_26_cif.got.tgz:51517.got - 2010.06.03 23:40:54.
