data_PCOD9329604
_publ_section_title
;
Structure prediction by ZEFSAII (Michael W. Deem and Ramdas Pophale) SiO2 
 PCOD9329604
Probable space group: I 2 2 2
;
_chemical_formula_sum "Si O2"
_cell_formula_units_Z 52
_cell_length_a 13.939598
_cell_length_b 19.245215
_cell_length_c 7.040355
_cell_angle_alpha 90.000000
_cell_angle_beta 90.000000
_cell_angle_gamma 90.000000
_cell_volume 1888.719982
_symmetry_space_group_name_H-M "I 2 2 2"
_symmetry_group_IT_number 23
_symmetry_cell_setting 'orthorhombic'
loop_
_space_group_symop_operation_xyz
x,y,z
-x,-y,z
x,-y,-z
-x,y,-z
1/2+x,1/2+y,1/2+z
1/2-x,1/2-y,1/2+z
1/2+x,1/2-y,1/2-z
1/2-x,1/2+y,1/2-z
loop_
_atom_site_type_symbol
_atom_site_label
_atom_site_fract_x
_atom_site_fract_y
_atom_site_fract_z
Si Si1 0.319791 0.364286 0.614242
Si Si2 0.725035 0.201564 0.395793
Si Si3 0.971629 0.718127 0.225869
Si Si4 0.863640 0.620785 0.753567
Si Si5 0.677889 0.000000 0.500000
Si Si6 0.928890 0.857061 0.732727
Si Si7 0.646120 0.501977 0.266700
O O1 0.288302 0.283999 0.602692
O O2 0.213716 0.398915 0.594829
O O3 0.399277 0.362922 0.452895
O O4 0.361387 0.418811 0.771030
O O5 0.634501 0.186851 0.257724
O O6 0.697370 0.167909 0.596354
O O7 0.831647 0.178375 0.349453
O O8 0.049111 0.666618 0.313475
O O9 0.988917 0.798068 0.291664
O O10 0.000000 0.717644 0.000000
O O11 0.885524 0.555657 0.888064
O O12 0.754272 0.025277 0.337440
O O13 0.927991 0.939808 0.690605
O O14 0.644534 0.500000 0.500000
#
# Coordination Sequence:
#
# PCOD9329604 Si02
#       7
#     8   8   8   8   4   8   8
#     4  10  18  33  56  81 109 150 187 232 289 339
#     4  11  19  35  58  82 113 149 188 239 289 339
#     4  10  20  34  56  87 115 142 199 243 273 359
#     4  10  19  33  56  81 113 146 190 236 288 342
#     4  10  18  34  57  86 115 154 198 240 293 354
#     4  11  19  36  58  80 118 150 186 243 291 337
#     4   9  20  32  55  87 113 154 201 237 289 356
#
# _framework density 27.531873000000001
#
# number of rings (size 3 to 8) (size 9 to 14) (size 15 to 20)
#    0.000    1.846    6.154    0.000    0.000    0.000 
#    0.000    5.000    0.000    0.000    0.000    4.308 
#    0.000    0.000    0.000    0.000    0.000    0.000 
#
# Total GULP energy -144871.972977 kJ/mol
# GULP energy per Si atom -5571.998961 kJ/mol
# Density = 2.746921 g / cm^3
# Si number density = 27.531873 Si / 1000 Ang^3
#
#
#
# Elastic Constant Matrix: (Units=GPa)
#
#
# Indices 1 2 3 4 5 6 
#
# 1 101.7377 28.2610 30.7622 0.0000 0.0000 0.0000
# 2 28.2610 173.9015 17.6150 0.0000 0.0000 0.0000
# 3 30.7622 17.6150 103.5949 0.0000 0.0000 0.0000
# 4 0.0000 0.0000 0.0000 16.7140 0.0000 0.0000
# 5 0.0000 0.0000 0.0000 0.0000 33.1341 0.0000
# 6 0.0000 0.0000 0.0000 0.0000 0.0000 28.6261
#
#
#
# Elastic Compliance Matrix: (Units=1/GPa)
#
#
# Indices 1 2 3 4 5 6 
#
# 1 0.011173 -0.001506 -0.003062 0.000000 0.000000 0.000000
# 2 -0.001506 0.006054 -0.000582 0.000000 0.000000 0.000000
# 3 -0.003062 -0.000582 0.010661 0.000000 0.000000 0.000000
# 4 0.000000 0.000000 0.000000 0.059830 0.000000 0.000000
# 5 0.000000 0.000000 0.000000 0.000000 0.030180 0.000000
# 6 0.000000 0.000000 0.000000 0.000000 0.000000 0.034933
#
#
# Mechanical properties :
#
#
# Convention : Reuss Voigt Hill
#
# Bulk Modulus (GPa) = 56.85407 59.16783 58.01095
# Shear Modulus (GPa) = 29.58672 35.86791 32.72732
#
# Velocity S-wave (km/s) = 3.28172 3.61332 3.45150
# Velocity P-wave (km/s) = 5.92070 6.24063 6.08277
#
# Compressibility (1/GPa) = 0.01758889
#
# Stress axis : x y z
#
# Youngs Moduli (GPa) = 89.49950 165.17875 93.79801
#
# Poissons Ratio (x) = 0.24870 0.28720
# Poissons Ratio (y) = 0.13475 0.05462
# Poissons Ratio (z) = 0.27403 0.09619
#
# Static dielectric constant tensor:
#      x y z
#    x 2.226980 0.000000 0.000000 
#    y 0.000000 2.296840 0.000000 
#    z 0.000000 0.000000 2.384710 
# 
# From -- ./inp_files/11218.got.cif
#   From: 2010.05.17/outbox.cif.g08.bks.cpg/sg23_6_cif.got.tgz:11218.got - 2010.06.04 12:02:01.
