data_PCOD9329479
_publ_section_title
;
Structure prediction by ZEFSAII (Michael W. Deem and Ramdas Pophale) SiO2 
 PCOD9329479
Probable space group: I 2 2 2
;
_chemical_formula_sum "Si O2"
_cell_formula_units_Z 40
_cell_length_a 17.045462
_cell_length_b 16.802138
_cell_length_c 5.763247
_cell_angle_alpha 90.000000
_cell_angle_beta 90.000000
_cell_angle_gamma 90.000000
_cell_volume 1650.595121
_symmetry_space_group_name_H-M "I 2 2 2"
_symmetry_group_IT_number 23
_symmetry_cell_setting 'orthorhombic'
loop_
_space_group_symop_operation_xyz
x,y,z
-x,-y,z
x,-y,-z
-x,y,-z
1/2+x,1/2+y,1/2+z
1/2-x,1/2-y,1/2+z
1/2+x,1/2-y,1/2-z
1/2-x,1/2+y,1/2-z
loop_
_atom_site_type_symbol
_atom_site_label
_atom_site_fract_x
_atom_site_fract_y
_atom_site_fract_z
Si Si1 0.563910 0.217066 0.695013
Si Si2 0.191403 0.706542 0.831781
Si Si3 0.684724 0.603025 0.674950
Si Si4 0.866214 0.411559 0.435315
Si Si5 0.138484 0.128041 0.662603
O O1 0.500000 0.230011 0.500000
O O2 0.646436 0.198571 0.570652
O O3 0.559823 0.132091 0.815229
O O4 0.575241 0.299979 0.830779
O O5 0.187214 0.800824 0.802619
O O6 0.150096 0.653021 0.638550
O O7 0.277799 0.672703 0.839159
O O8 0.776193 0.575915 0.669790
O O9 0.643538 0.587006 0.421130
O O10 0.639750 0.581600 0.915759
O O11 0.889176 0.500000 0.500000
#
# Coordination Sequence:
#
# PCOD9329479 Si02
#       5
#     8   8   8   8   8
#     4  11  22  36  57  88 122 172 230 279 330 412
#     4  10  18  36  59  78 116 165 218 282 344 364
#     4  10  17  34  61  83 109 157 214 277 341 365
#     4  11  22  36  57  88 122 172 230 279 330 412
#     4  10  17  34  61  83 109 157 214 277 341 365
#
# _framework density 24.233682999999999
#
# number of rings (size 3 to 8) (size 9 to 14) (size 15 to 20)
#    0.000    1.600    6.000    1.200    0.000    1.600 
#    0.000    3.000    0.000    0.000    0.000    0.000 
#    0.000   64.800    0.000  190.800    0.000   17.200 
#
# Total GULP energy -111383.810425 kJ/mol
# GULP energy per Si atom -5569.190521 kJ/mol
# Density = 2.417853 g / cm^3
# Si number density = 24.233683 Si / 1000 Ang^3
#
#
#
# Elastic Constant Matrix: (Units=GPa)
#
#
# Indices 1 2 3 4 5 6 
#
# 1 41.7034 14.6531 23.9202 0.0000 0.0000 0.0000
# 2 14.6531 71.6899 28.9438 0.0000 0.0000 0.0000
# 3 23.9202 28.9438 156.5661 0.0000 0.0000 0.0000
# 4 0.0000 0.0000 0.0000 15.0150 0.0000 0.0000
# 5 0.0000 0.0000 0.0000 0.0000 45.1092 0.0000
# 6 0.0000 0.0000 0.0000 0.0000 0.0000 1.2438
#
#
#
# Elastic Compliance Matrix: (Units=1/GPa)
#
#
# Indices 1 2 3 4 5 6 
#
# 1 0.027419 -0.004229 -0.003407 0.000000 0.000000 0.000000
# 2 -0.004229 0.015726 -0.002261 0.000000 0.000000 0.000000
# 3 -0.003407 -0.002261 0.007326 0.000000 0.000000 0.000000
# 4 0.000000 0.000000 0.000000 0.066600 0.000000 0.000000
# 5 0.000000 0.000000 0.000000 0.000000 0.022168 0.000000
# 6 0.000000 0.000000 0.000000 0.000000 0.000000 0.803962
#
#
# Mechanical properties :
#
#
# Convention : Reuss Voigt Hill
#
# Bulk Modulus (GPa) = 32.59819 44.99928 38.79873
# Shear Modulus (GPa) = 5.13758 25.76976 15.45367
#
# Velocity S-wave (km/s) = 1.45761 3.26450 2.52800
# Velocity P-wave (km/s) = 4.03901 5.72874 4.95641
#
# Compressibility (1/GPa) = 0.03067655
#
# Stress axis : x y z
#
# Youngs Moduli (GPa) = 36.47096 63.58809 136.50620
#
# Poissons Ratio (x) = 0.26889 0.46513
# Poissons Ratio (y) = 0.15422 0.30867
# Poissons Ratio (z) = 0.12427 0.14379
#
# Static dielectric constant tensor:
#      x y z
#    x 1.941320 0.000000 0.000000 
#    y 0.000000 1.963370 0.000000 
#    z 0.000000 0.000000 2.583910 
# 
# From -- ./inp_files/3104.got.cif
#   From: 2010.05.17/outbox.cif.g08.bks.cpg/sg23_2_cif.got.tgz:3104.got - 2010.06.04 12:02:01.
