data_PCOD9329570
_publ_section_title
;
Structure prediction by ZEFSAII (Michael W. Deem and Ramdas Pophale) SiO2 
 PCOD9329570
Probable space group: I 2 2 2
;
_chemical_formula_sum "Si O2"
_cell_formula_units_Z 64
_cell_length_a 18.843401
_cell_length_b 14.554772
_cell_length_c 10.918182
_cell_angle_alpha 90.000000
_cell_angle_beta 90.000000
_cell_angle_gamma 90.000000
_cell_volume 2994.435938
_symmetry_space_group_name_H-M "I 2 2 2"
_symmetry_group_IT_number 23
_symmetry_cell_setting 'orthorhombic'
loop_
_space_group_symop_operation_xyz
x,y,z
-x,-y,z
x,-y,-z
-x,y,-z
1/2+x,1/2+y,1/2+z
1/2-x,1/2-y,1/2+z
1/2+x,1/2-y,1/2-z
1/2-x,1/2+y,1/2-z
loop_
_atom_site_type_symbol
_atom_site_label
_atom_site_fract_x
_atom_site_fract_y
_atom_site_fract_z
Si Si1 0.902884 0.031023 0.135127
Si Si2 0.953857 0.788871 0.751706
Si Si3 0.603028 0.350304 0.238115
Si Si4 0.331171 0.179811 0.363695
Si Si5 0.618067 0.400607 0.969314
Si Si6 0.267176 0.866547 0.388438
Si Si7 0.245927 0.119230 0.872612
Si Si8 0.749287 0.843317 0.135811
O O1 0.938337 0.128170 0.155716
O O2 0.818488 0.048280 0.144323
O O3 0.924026 0.953074 0.230899
O O4 0.919109 0.000000 0.000000
O O5 0.907451 0.705220 0.805088
O O6 0.925325 0.834666 0.623803
O O7 0.038400 0.779515 0.748361
O O8 0.666547 0.339951 0.335141
O O9 0.629441 0.349966 0.098910
O O10 0.321013 0.133680 0.497079
O O11 0.290949 0.279062 0.374309
O O12 0.289355 0.124224 0.258622
O O13 0.695497 0.423148 0.913256
O O14 0.584261 0.500000 0.000000
O O15 0.293231 0.884740 0.249775
O O16 0.233094 0.764179 0.382484
O O17 0.273344 0.108552 0.010455
#
# Coordination Sequence:
#
# PCOD9329570 Si02
#       8
#     8   8   8   8   8   8   8   8
#     4  11  20  34  44  66 108 147 173 208 253 305
#     4  11  23  36  46  72 111 142 182 227 248 309
#     4  12  23  31  50  75 103 148 186 208 260 323
#     4   9  18  34  53  68  90 135 179 226 266 294
#     4  12  21  34  52  75 106 148 185 219 261 318
#     4  10  18  34  54  68  95 130 182 228 266 298
#     4   9  17  31  48  70  92 127 175 223 254 296
#     4  10  18  32  53  72  89 131 185 217 263 306
#
# _framework density 21.372973000000002
#
# number of rings (size 3 to 8) (size 9 to 14) (size 15 to 20)
#    0.000    1.500    7.500    0.750    0.000    1.500 
#    0.000    0.000    0.000    0.000    0.000    0.000 
#    0.000    2.000    0.000    0.125   27.750    1.625 
#
# Total GULP energy -178455.323281 kJ/mol
# GULP energy per Si atom -5576.728853 kJ/mol
# Density = 2.132433 g / cm^3
# Si number density = 21.372973 Si / 1000 Ang^3
#
#
#
# Elastic Constant Matrix: (Units=GPa)
#
#
# Indices 1 2 3 4 5 6 
#
# 1 69.4917 12.1670 40.1869 0.0000 0.0000 0.0000
# 2 12.1670 24.1667 10.8275 0.0000 0.0000 0.0000
# 3 40.1869 10.8275 208.3260 0.0000 0.0000 0.0000
# 4 0.0000 0.0000 0.0000 16.4670 0.0000 0.0000
# 5 0.0000 0.0000 0.0000 0.0000 11.3807 0.0000
# 6 0.0000 0.0000 0.0000 0.0000 0.0000 17.8488
#
#
#
# Elastic Compliance Matrix: (Units=1/GPa)
#
#
# Indices 1 2 3 4 5 6 
#
# 1 0.017411 -0.007434 -0.002972 0.000000 0.000000 0.000000
# 2 -0.007434 0.045540 -0.000933 0.000000 0.000000 0.000000
# 3 -0.002972 -0.000933 0.005422 0.000000 0.000000 0.000000
# 4 0.000000 0.000000 0.000000 0.060727 0.000000 0.000000
# 5 0.000000 0.000000 0.000000 0.000000 0.087868 0.000000
# 6 0.000000 0.000000 0.000000 0.000000 0.000000 0.056026
#
#
# Mechanical properties :
#
#
# Convention : Reuss Voigt Hill
#
# Bulk Modulus (GPa) = 21.88442 47.59411 34.73927
# Shear Modulus (GPa) = 16.08213 25.05949 20.57081
#
# Velocity S-wave (km/s) = 2.74606 3.42787 3.10573
# Velocity P-wave (km/s) = 4.50733 6.16310 5.39906
#
# Compressibility (1/GPa) = 0.04569461
#
# Stress axis : x y z
#
# Youngs Moduli (GPa) = 57.43635 21.95875 184.43372
#
# Poissons Ratio (x) = 0.16324 0.54817
# Poissons Ratio (y) = 0.42698 0.17205
# Poissons Ratio (z) = 0.17071 0.02048
#
# Static dielectric constant tensor:
#      x y z
#    x 1.827190 0.000000 0.000000 
#    y 0.000000 1.826520 0.000000 
#    z 0.000000 0.000000 1.869170 
# 
# From -- ./inp_files/16970.got.cif
#   From: 2010.05.17/outbox.cif.g08.bks.cpg/sg23_9_cif.got.tgz:16970.got - 2010.06.04 12:02:01.
