data_PCOD9329686
_publ_section_title
;
Structure prediction by ZEFSAII (Michael W. Deem and Ramdas Pophale) SiO2 
 PCOD9329686
Probable space group: I 2 2 2
;
_chemical_formula_sum "Si O2"
_cell_formula_units_Z 58
_cell_length_a 19.929267
_cell_length_b 16.701817
_cell_length_c 9.105559
_cell_angle_alpha 90.000000
_cell_angle_beta 90.000000
_cell_angle_gamma 90.000000
_cell_volume 3030.830571
_symmetry_space_group_name_H-M "I 2 2 2"
_symmetry_group_IT_number 23
_symmetry_cell_setting 'orthorhombic'
loop_
_space_group_symop_operation_xyz
x,y,z
-x,-y,z
x,-y,-z
-x,y,-z
1/2+x,1/2+y,1/2+z
1/2-x,1/2-y,1/2+z
1/2+x,1/2-y,1/2-z
1/2-x,1/2+y,1/2-z
loop_
_atom_site_type_symbol
_atom_site_label
_atom_site_fract_x
_atom_site_fract_y
_atom_site_fract_z
Si Si1 0.127825 0.823848 0.712488
Si Si2 0.000000 0.000000 0.500000
Si Si3 0.326623 0.855428 0.160319
Si Si4 0.985389 0.758745 0.677403
Si Si5 0.753076 0.967222 0.661183
Si Si6 0.110509 0.888598 0.388277
Si Si7 0.773834 0.078175 0.913885
Si Si8 0.978061 0.414877 0.668873
O O1 0.160390 0.738247 0.674518
O O2 0.130506 0.872261 0.558668
O O3 0.168768 0.867109 0.841551
O O4 0.049334 0.805541 0.744230
O O5 0.046082 0.055189 0.600042
O O6 0.290433 0.889867 0.303464
O O7 0.398574 0.899153 0.159255
O O8 0.278602 0.877839 0.022543
O O9 0.915811 0.807232 0.687927
O O10 0.000000 0.757701 0.500000
O O11 0.988066 0.666850 0.730188
O O12 0.829164 0.936614 0.683168
O O13 0.744637 0.000000 0.500000
O O14 0.735906 0.036751 0.776801
O O15 0.801094 0.000000 0.000000
O O16 0.000000 0.500000 0.737102
O O17 0.000000 0.418097 0.500000
#
# Coordination Sequence:
#
# PCOD9329686 Si02
#       8
#     8   2   8   8   8   8   8   8
#     4  10  18  36  58  83 120 153 194 247 305 349
#     4  12  16  28  56  84 116 144 198 252 282 320
#     4  10  24  38  58  91 122 153 200 252 306 360
#     4   8  16  31  51  85 115 138 196 257 286 345
#     4  11  22  37  56  85 122 160 199 240 300 373
#     4  11  19  32  56  89 114 152 201 248 298 347
#     4  10  22  37  55  84 127 157 199 247 296 366
#     4   9  18  33  60  86 112 147 193 257 307 343
#
# _framework density 19.136666999999999
#
# number of rings (size 3 to 8) (size 9 to 14) (size 15 to 20)
#    0.000    2.069    4.138    0.828    7.724    0.000 
#    0.000    0.000    0.000    6.207    0.000    7.724 
#    0.000    0.000    0.000    0.000    0.000    0.000 
#
# Total GULP energy -161607.316484 kJ/mol
# GULP energy per Si atom -5572.666086 kJ/mol
# Density = 1.909311 g / cm^3
# Si number density = 19.136667 Si / 1000 Ang^3
#
#
#
# Elastic Constant Matrix: (Units=GPa)
#
#
# Indices 1 2 3 4 5 6 
#
# 1 87.8566 48.9358 33.2414 0.0000 0.0000 0.0000
# 2 48.9358 111.6515 40.5128 0.0000 0.0000 0.0000
# 3 33.2414 40.5128 61.9727 0.0000 0.0000 0.0000
# 4 0.0000 0.0000 0.0000 17.4461 0.0000 0.0000
# 5 0.0000 0.0000 0.0000 0.0000 19.7723 0.0000
# 6 0.0000 0.0000 0.0000 0.0000 0.0000 32.0984
#
#
#
# Elastic Compliance Matrix: (Units=1/GPa)
#
#
# Indices 1 2 3 4 5 6 
#
# 1 0.016304 -0.005208 -0.005341 0.000000 0.000000 0.000000
# 2 -0.005208 0.013405 -0.005970 0.000000 0.000000 0.000000
# 3 -0.005341 -0.005970 0.022903 0.000000 0.000000 0.000000
# 4 0.000000 0.000000 0.000000 0.057320 0.000000 0.000000
# 5 0.000000 0.000000 0.000000 0.000000 0.050576 0.000000
# 6 0.000000 0.000000 0.000000 0.000000 0.000000 0.031154
#
#
# Mechanical properties :
#
#
# Convention : Reuss Voigt Hill
#
# Bulk Modulus (GPa) = 51.08391 56.31785 53.70088
# Shear Modulus (GPa) = 21.62412 23.11607 22.37009
#
# Velocity S-wave (km/s) = 3.36517 3.47932 3.42272
# Velocity P-wave (km/s) = 6.46926 6.75530 6.61383
#
# Compressibility (1/GPa) = 0.01957564
#
# Stress axis : x y z
#
# Youngs Moduli (GPa) = 61.33612 74.59823 43.66183
#
# Poissons Ratio (x) = 0.38850 0.23318
# Poissons Ratio (y) = 0.31943 0.26065
# Poissons Ratio (z) = 0.32757 0.44533
#
# Static dielectric constant tensor:
#      x y z
#    x 1.603470 0.000000 0.000000 
#    y 0.000000 1.748720 0.000000 
#    z 0.000000 0.000000 1.660850 
# 
# From -- ./inp_files/11289.got.cif
#   From: 2010.05.17/outbox.cif.g08.bks.cpg/sg23_6_cif.got.tgz:11289.got - 2010.06.04 12:02:01.
