data_PCOD9329216
_publ_section_title
;
Structure prediction by ZEFSAII (Michael W. Deem and Ramdas Pophale) SiO2 
 PCOD9329216
Probable space group: F 2 2 2
;
_chemical_formula_sum "Si O2"
_cell_formula_units_Z 88
_cell_length_a 5.102084
_cell_length_b 27.577867
_cell_length_c 31.492831
_cell_angle_alpha 90.000000
_cell_angle_beta 90.000000
_cell_angle_gamma 90.000000
_cell_volume 4431.185999
_symmetry_space_group_name_H-M "F 2 2 2"
_symmetry_group_IT_number 22
_symmetry_cell_setting 'orthorhombic'
loop_
_space_group_symop_operation_xyz
x,y,z
-x,-y,z
x,-y,-z
-x,y,-z
x,1/2+y,1/2+z
-x,1/2-y,1/2+z
x,1/2-y,1/2-z
-x,1/2+y,1/2-z
1/2+x,y,1/2+z
1/2-x,-y,1/2+z
1/2+x,-y,1/2-z
1/2-x,y,1/2-z
1/2+x,1/2+y,z
1/2-x,1/2-y,z
1/2+x,1/2-y,-z
1/2-x,1/2+y,-z
loop_
_atom_site_type_symbol
_atom_site_label
_atom_site_fract_x
_atom_site_fract_y
_atom_site_fract_z
Si Si1 0.500000 0.000000 0.388757
Si Si2 0.750000 0.750000 0.098841
Si Si3 0.500000 0.500000 0.328464
Si Si4 0.077518 0.605940 0.414238
Si Si5 0.408799 0.647267 0.632676
Si Si6 0.506326 0.899910 0.779181
Si Si7 0.250000 0.750000 0.038751
Si Si8 0.000000 0.836154 0.000000
O O1 0.422496 0.952370 0.415580
O O2 0.250885 0.009166 0.358287
O O3 0.667854 0.797040 0.125215
O O4 0.498284 0.742283 0.069051
O O5 0.547891 0.453075 0.299632
O O6 0.351905 0.628642 0.397445
O O7 0.989567 0.630357 0.458437
O O8 0.853631 0.618900 0.380308
O O9 0.480231 0.635534 0.680797
O O10 0.250000 0.900417 0.750000
O O11 0.750000 0.886951 0.750000
O O12 0.266169 0.701933 0.009838
#
# Coordination Sequence:
#
# PCOD9329216 Si02
#       8
#     8   8   8  16  16  16   8   8
#     4  12  22  44  66 100 139 196 231 278 336 448
#     4  12  23  46  71 100 127 186 231 278 361 424
#     4  12  22  41  70  99 139 178 239 283 356 407
#     4  12  25  42  70  96 145 187 230 280 354 415
#     4  12  24  46  68 100 136 185 225 287 358 424
#     4  12  24  41  68 105 138 175 231 292 352 418
#     4  12  25  40  70 102 138 164 236 304 348 398
#     4  12  26  43  68 108 138 179 232 302 346 406
#
# _framework density 19.859241999999998
#
# number of rings (size 3 to 8) (size 9 to 14) (size 15 to 20)
#    0.000    0.000    7.273    3.273    0.000    2.545 
#    0.000    0.455    0.000    4.364    0.000    0.000 
#    0.000    0.000    0.000    0.000    0.000    0.000 
#
# Total GULP energy -122993.231717 kJ/mol
# GULP energy per Si atom -5590.601442 kJ/mol
# Density = 1.981404 g / cm^3
# Si number density = 19.859242 Si / 1000 Ang^3
#
#
#
# Elastic Constant Matrix: (Units=GPa)
#
#
# Indices 1 2 3 4 5 6 
#
# 1 116.0115 33.4261 19.6095 0.0000 0.0000 0.0000
# 2 33.4261 173.2776 70.6113 0.0000 0.0000 0.0000
# 3 19.6095 70.6113 103.3051 0.0000 0.0000 0.0000
# 4 0.0000 0.0000 0.0000 124.7230 0.0000 0.0000
# 5 0.0000 0.0000 0.0000 0.0000 30.0538 0.0000
# 6 0.0000 0.0000 0.0000 0.0000 0.0000 31.8247
#
#
#
# Elastic Compliance Matrix: (Units=1/GPa)
#
#
# Indices 1 2 3 4 5 6 
#
# 1 0.009167 -0.001468 -0.000737 0.000000 0.000000 0.000000
# 2 -0.001468 0.008234 -0.005350 0.000000 0.000000 0.000000
# 3 -0.000737 -0.005350 0.013476 0.000000 0.000000 0.000000
# 4 0.000000 0.000000 0.000000 0.008018 0.000000 0.000000
# 5 0.000000 0.000000 0.000000 0.000000 0.033274 0.000000
# 6 0.000000 0.000000 0.000000 0.000000 0.000000 0.031422
#
#
# Mechanical properties :
#
#
# Convention : Reuss Voigt Hill
#
# Bulk Modulus (GPa) = 63.41463 71.09868 67.25666
# Shear Modulus (GPa) = 40.33652 55.25012 47.79332
#
# Velocity S-wave (km/s) = 4.51169 5.28027 4.91104
# Velocity P-wave (km/s) = 7.69037 8.54717 8.13006
#
# Compressibility (1/GPa) = 0.01576923
#
# Stress axis : x y z
#
# Youngs Moduli (GPa) = 109.08235 121.44293 74.20341
#
# Poissons Ratio (x) = 0.17831 0.05466
# Poissons Ratio (y) = 0.16016 0.39696
# Poissons Ratio (z) = 0.08035 0.64967
#
# Static dielectric constant tensor:
#      x y z
#    x 1.705500 0.000000 0.000000 
#    y 0.000000 1.733540 0.000000 
#    z 0.000000 0.000000 1.687020 
# 
# From -- ./inp_files/55086.got.cif
#   From: 2010.05.17/outbox.cif.g08.bks.cpg/sg22_28_cif.got.tgz:55086.got - 2010.06.03 23:40:54.
