data_PCOD9329953
_publ_section_title
;
Structure prediction by ZEFSAII (Michael W. Deem and Ramdas Pophale) SiO2 
 PCOD9329953
Probable space group: I 2 2 2
;
_chemical_formula_sum "Si O2"
_cell_formula_units_Z 42
_cell_length_a 12.975861
_cell_length_b 16.506715
_cell_length_c 10.298097
_cell_angle_alpha 90.000000
_cell_angle_beta 90.000000
_cell_angle_gamma 90.000000
_cell_volume 2205.737445
_symmetry_space_group_name_H-M "I 2 2 2"
_symmetry_group_IT_number 23
_symmetry_cell_setting 'orthorhombic'
loop_
_space_group_symop_operation_xyz
x,y,z
-x,-y,z
x,-y,-z
-x,y,-z
1/2+x,1/2+y,1/2+z
1/2-x,1/2-y,1/2+z
1/2+x,1/2-y,1/2-z
1/2-x,1/2+y,1/2-z
loop_
_atom_site_type_symbol
_atom_site_label
_atom_site_fract_x
_atom_site_fract_y
_atom_site_fract_z
Si Si1 0.092606 0.192242 0.848575
Si Si2 0.371991 0.662215 0.347309
Si Si3 0.972947 0.376961 0.207107
Si Si4 0.000000 0.500000 0.000000
Si Si5 0.182235 0.675237 0.703266
Si Si6 0.170720 0.587512 0.437032
O O1 0.065015 0.285143 0.814993
O O2 0.195897 0.162074 0.778198
O O3 0.990596 0.139777 0.817373
O O4 0.116052 0.192336 0.002886
O O5 0.339487 0.733061 0.248595
O O6 0.277095 0.600937 0.357562
O O7 0.940432 0.438432 0.094724
O O8 0.924676 0.405029 0.341477
O O9 0.097310 0.375530 0.217401
O O10 0.162695 0.653810 0.552256
O O11 0.174153 0.500000 0.500000
#
# Coordination Sequence:
#
# PCOD9329953 Si02
#       6
#     8   8   8   2   8   8
#     4   9  18  34  57  80 108 149 206 244 272 355
#     4   9  18  35  55  80 112 154 203 237 292 354
#     4  11  21  36  55  87 115 152 194 243 303 358
#     4  12  24  36  58  80 122 160 178 242 304 374
#     4  10  19  35  57  80 115 153 190 248 292 346
#     4  11  22  35  56  88 124 152 194 255 306 350
#
# _framework density 19.041250999999999
#
# number of rings (size 3 to 8) (size 9 to 14) (size 15 to 20)
#    0.000    1.905    1.905    4.000    0.000    0.762 
#    0.000    7.619    0.000    0.000    0.000    1.333 
#    0.000    0.000    0.000    0.000    0.000    0.000 
#
# Total GULP energy -116982.738915 kJ/mol
# GULP energy per Si atom -5570.606615 kJ/mol
# Density = 1.899791 g / cm^3
# Si number density = 19.041251 Si / 1000 Ang^3
#
#
#
# Elastic Constant Matrix: (Units=GPa)
#
#
# Indices 1 2 3 4 5 6 
#
# 1 149.3648 25.3077 20.8327 0.0000 0.0000 0.0000
# 2 25.3077 36.9358 6.3767 0.0000 0.0000 0.0000
# 3 20.8327 6.3767 33.1805 0.0000 0.0000 0.0000
# 4 0.0000 0.0000 0.0000 22.6181 0.0000 0.0000
# 5 0.0000 0.0000 0.0000 0.0000 26.5339 0.0000
# 6 0.0000 0.0000 0.0000 0.0000 0.0000 10.3687
#
#
#
# Elastic Compliance Matrix: (Units=1/GPa)
#
#
# Indices 1 2 3 4 5 6 
#
# 1 0.008092 -0.004828 -0.004153 0.000000 0.000000 0.000000
# 2 -0.004828 0.030883 -0.002904 0.000000 0.000000 0.000000
# 3 -0.004153 -0.002904 0.033304 0.000000 0.000000 0.000000
# 4 0.000000 0.000000 0.000000 0.044212 0.000000 0.000000
# 5 0.000000 0.000000 0.000000 0.000000 0.037688 0.000000
# 6 0.000000 0.000000 0.000000 0.000000 0.000000 0.096444
#
#
# Mechanical properties :
#
#
# Convention : Reuss Voigt Hill
#
# Bulk Modulus (GPa) = 20.61445 36.05726 28.33585
# Shear Modulus (GPa) = 17.20796 23.03507 20.12152
#
# Velocity S-wave (km/s) = 3.00946 3.48191 3.25427
# Velocity P-wave (km/s) = 4.78805 5.92811 5.38832
#
# Compressibility (1/GPa) = 0.04850967
#
# Stress axis : x y z
#
# Youngs Moduli (GPa) = 123.57529 32.38011 30.02655
#
# Poissons Ratio (x) = 0.15632 0.12470
# Poissons Ratio (y) = 0.59658 0.08720
# Poissons Ratio (z) = 0.51321 0.09404
#
# Static dielectric constant tensor:
#      x y z
#    x 1.738700 0.000000 0.000000 
#    y 0.000000 1.648270 0.000000 
#    z 0.000000 0.000000 1.650280 
# 
# From -- ./inp_files/15686.got.cif
#   From: 2010.05.17/outbox.cif.g08.bks.cpg/sg23_8_cif.got.tgz:15686.got - 2010.06.04 12:02:01.
