data_PCOD9329430
_publ_section_title
;
Structure prediction by ZEFSAII (Michael W. Deem and Ramdas Pophale) SiO2 
 PCOD9329430
Probable space group: I 2 2 2
;
_chemical_formula_sum "Si O2"
_cell_formula_units_Z 44
_cell_length_a 12.857975
_cell_length_b 23.138561
_cell_length_c 8.369988
_cell_angle_alpha 90.000000
_cell_angle_beta 90.000000
_cell_angle_gamma 90.000000
_cell_volume 2490.197305
_symmetry_space_group_name_H-M "I 2 2 2"
_symmetry_group_IT_number 23
_symmetry_cell_setting 'orthorhombic'
loop_
_space_group_symop_operation_xyz
x,y,z
-x,-y,z
x,-y,-z
-x,y,-z
1/2+x,1/2+y,1/2+z
1/2-x,1/2-y,1/2+z
1/2+x,1/2-y,1/2-z
1/2-x,1/2+y,1/2-z
loop_
_atom_site_type_symbol
_atom_site_label
_atom_site_fract_x
_atom_site_fract_y
_atom_site_fract_z
Si Si1 0.000000 0.500000 0.000000
Si Si2 0.962489 0.311371 0.682746
Si Si3 0.894912 0.581488 0.752785
Si Si4 0.712021 0.669305 0.745818
Si Si5 0.009118 0.187776 0.814136
Si Si6 0.268250 0.292727 0.375165
Si Si7 0.000000 0.500000 0.500000
O O1 0.075102 0.540836 0.101732
O O2 0.839465 0.320424 0.680878
O O3 0.000000 0.299741 0.500000
O O4 0.024556 0.365591 0.745699
O O5 0.986662 0.255609 0.788344
O O6 0.783290 0.612670 0.758519
O O7 0.924407 0.541668 0.601402
O O8 0.588738 0.659294 0.776676
O O9 0.720009 0.692533 0.562564
O O10 0.754597 0.723501 0.849658
O O11 0.131840 0.183189 0.779356
O O12 0.000000 0.171475 0.000000
#
# Coordination Sequence:
#
# PCOD9329430 Si02
#       7
#     2   8   8   8   8   8   2
#     4  10  28  34  56  70 102 126 204 222 288 290
#     4  11  18  29  51  72 109 141 168 205 262 303
#     4  11  20  38  49  79  98 143 172 240 258 310
#     4  10  19  30  51  70 114 138 173 204 263 307
#     4   9  19  29  45  78 110 144 168 191 243 339
#     4  10  17  30  46  81 107 147 164 197 244 343
#     4  10  20  34  56  70  98 130 204 226 274 284
#
# _framework density 17.669283
#
# number of rings (size 3 to 8) (size 9 to 14) (size 15 to 20)
#    0.000    1.818    4.545    0.000    1.273    1.455 
#    0.000    0.000    0.000    0.000    0.000   28.636 
#    0.000    0.000    0.000    0.000    0.000    0.000 
#
# Total GULP energy -122576.101178 kJ/mol
# GULP energy per Si atom -5571.640963 kJ/mol
# Density = 1.762907 g / cm^3
# Si number density = 17.669283 Si / 1000 Ang^3
#
#
#
# Elastic Constant Matrix: (Units=GPa)
#
#
# Indices 1 2 3 4 5 6 
#
# 1 176.6184 33.8184 10.1453 -0.0001 -0.0025 0.0001
# 2 33.8184 68.8322 16.8812 0.0000 0.0013 0.0001
# 3 10.1453 16.8812 31.9605 0.0022 0.0058 0.0012
# 4 -0.0001 0.0000 0.0022 7.2246 0.0067 0.0005
# 5 -0.0025 0.0013 0.0058 0.0067 -63.2834 0.0042
# 6 0.0001 0.0001 0.0012 0.0005 0.0042 38.7931
#
#
#
# Elastic Compliance Matrix: (Units=1/GPa)
#
#
# Indices 1 2 3 4 5 6 
#
# 1 0.006255 -0.002971 -0.000416 0.000000 0.000000 0.000000
# 2 -0.002971 0.018101 -0.008618 0.000002 0.000000 0.000000
# 3 -0.000416 -0.008618 0.035973 -0.000011 0.000003 -0.000001
# 4 0.000000 0.000002 -0.000011 0.138416 0.000015 -0.000002
# 5 0.000000 0.000000 0.000003 0.000015 -0.015802 0.000002
# 6 0.000000 0.000000 -0.000001 -0.000002 0.000002 0.025778
#
#
# Mechanical properties :
#
#
# Convention : Reuss Voigt Hill
#
# Bulk Modulus (GPa) = 27.53415 44.34455 35.93935
# Shear Modulus (GPa) = 20.42174 10.98460 15.70317
#
# Velocity S-wave (km/s) = 3.40336 2.49605 2.98439
# Velocity P-wave (km/s) = 5.57321 5.78433 5.67975
#
# Compressibility (1/GPa) = 0.03631853
#
# Stress axis : x y z
#
# Youngs Moduli (GPa) = 159.87968 55.24466 27.79895
#
# Poissons Ratio (x) = 0.16413 0.01157
# Poissons Ratio (y) = 0.47500 0.23957
# Poissons Ratio (z) = 0.06655 0.47609
#
# Static dielectric constant tensor:
#      x y z
#    x 1.673550 0.000000 0.000000 
#    y 0.000000 1.566400 0.000000 
#    z 0.000000 0.000000 1.624430 
# 
# From -- ./inp_files/8629.got.cif
#   From: 2010.05.17/outbox.cif.g08.bks.cpg/sg23_5_cif.got.tgz:8629.got - 2010.06.04 12:02:01.
