data_PCOD9329879
_publ_section_title
;
Structure prediction by ZEFSAII (Michael W. Deem and Ramdas Pophale) SiO2 
 PCOD9329879
Probable space group: I 2 2 2
;
_chemical_formula_sum "Si O2"
_cell_formula_units_Z 40
_cell_length_a 5.192855
_cell_length_b 14.034859
_cell_length_c 31.348233
_cell_angle_alpha 90.000000
_cell_angle_beta 90.000000
_cell_angle_gamma 90.000000
_cell_volume 2284.690185
_symmetry_space_group_name_H-M "I 2 2 2"
_symmetry_group_IT_number 23
_symmetry_cell_setting 'orthorhombic'
loop_
_space_group_symop_operation_xyz
x,y,z
-x,-y,z
x,-y,-z
-x,y,-z
1/2+x,1/2+y,1/2+z
1/2-x,1/2-y,1/2+z
1/2+x,1/2-y,1/2-z
1/2-x,1/2+y,1/2-z
loop_
_atom_site_type_symbol
_atom_site_label
_atom_site_fract_x
_atom_site_fract_y
_atom_site_fract_z
Si Si1 0.430434 0.702604 0.844398
Si Si2 0.242756 0.392362 0.980542
Si Si3 0.997081 0.112757 0.253432
Si Si4 0.499025 0.112569 0.801385
Si Si5 0.066156 0.607889 0.117291
O O1 0.405774 0.665612 0.795842
O O2 0.444064 0.816540 0.840250
O O3 0.702245 0.657633 0.857937
O O4 0.198055 0.665524 0.874152
O O5 0.182153 0.399029 0.930672
O O6 0.245885 0.500000 0.000000
O O7 0.500000 0.348592 0.000000
O O8 0.000000 0.339448 0.000000
O O9 0.280883 0.131827 0.234481
O O10 0.782482 0.133841 0.217700
O O11 0.000000 0.000000 0.262874
O O12 0.500000 0.000000 0.811591
O O13 0.000000 0.500000 0.131259
#
# Coordination Sequence:
#
# PCOD9329879 Si02
#       5
#     8   8   8   8   8
#     4  12  23  34  52  81 113 138 187 237 282 312
#     4  10  19  34  55  71 103 150 178 189 244 334
#     4  10  19  34  53  74 103 148 188 227 281 334
#     4  10  21  37  56  72 101 150 198 233 273 325
#     4  12  23  35  52  82 114 146 170 219 274 327
#
# _framework density 17.507845
#
# number of rings (size 3 to 8) (size 9 to 14) (size 15 to 20)
#    0.000    1.200    2.000    6.600    2.800    1.600 
#    0.000    0.000    0.000    0.000    0.000    0.000 
#    0.000   12.000    0.000    0.000    0.000    0.000 
#
# Total GULP energy -111494.879606 kJ/mol
# GULP energy per Si atom -5574.743980 kJ/mol
# Density = 1.746800 g / cm^3
# Si number density = 17.507845 Si / 1000 Ang^3
#
#
#
# Elastic Constant Matrix: (Units=GPa)
#
#
# Indices 1 2 3 4 5 6 
#
# 1 129.2390 21.9560 12.8172 0.0000 0.0000 0.0000
# 2 21.9560 67.1302 38.7367 0.0000 0.0000 0.0000
# 3 12.8172 38.7367 46.6743 0.0000 0.0000 0.0000
# 4 0.0000 0.0000 0.0000 12.1466 0.0000 0.0000
# 5 0.0000 0.0000 0.0000 0.0000 39.4030 0.0000
# 6 0.0000 0.0000 0.0000 0.0000 0.0000 14.6060
#
#
#
# Elastic Compliance Matrix: (Units=1/GPa)
#
#
# Indices 1 2 3 4 5 6 
#
# 1 0.008193 -0.002651 -0.000050 0.000000 0.000000 0.000000
# 2 -0.002651 0.029445 -0.023709 0.000000 0.000000 0.000000
# 3 -0.000050 -0.023709 0.041116 0.000000 0.000000 0.000000
# 4 0.000000 0.000000 0.000000 0.082328 0.000000 0.000000
# 5 0.000000 0.000000 0.000000 0.000000 0.025379 0.000000
# 6 0.000000 0.000000 0.000000 0.000000 0.000000 0.068465
#
#
# Mechanical properties :
#
#
# Convention : Reuss Voigt Hill
#
# Bulk Modulus (GPa) = 38.55996 43.34037 40.95016
# Shear Modulus (GPa) = 15.80331 24.53335 20.16833
#
# Velocity S-wave (km/s) = 3.00766 3.74743 3.39773
# Velocity P-wave (km/s) = 5.84239 6.59794 6.23163
#
# Compressibility (1/GPa) = 0.02593364
#
# Stress axis : x y z
#
# Youngs Moduli (GPa) = 122.05709 33.96207 24.32146
#
# Poissons Ratio (x) = 0.09003 0.00121
# Poissons Ratio (y) = 0.32356 0.57664
# Poissons Ratio (z) = 0.00608 0.80521
#
# Static dielectric constant tensor:
#      x y z
#    x 1.613090 0.000000 0.000000 
#    y 0.000000 1.615960 0.000000 
#    z 0.000000 0.000000 1.651260 
# 
# From -- ./inp_files/27587.got.cif
#   From: 2010.05.17/outbox.cif.g08.bks.cpg/sg23_14_cif.got.tgz:27587.got - 2010.06.04 12:02:01.
