data_PCOD9329625
_publ_section_title
;
Structure prediction by ZEFSAII (Michael W. Deem and Ramdas Pophale) SiO2 
 PCOD9329625
Probable space group: I 2 2 2
;
_chemical_formula_sum "Si O2"
_cell_formula_units_Z 56
_cell_length_a 8.572264
_cell_length_b 17.281105
_cell_length_c 14.333038
_cell_angle_alpha 90.000000
_cell_angle_beta 90.000000
_cell_angle_gamma 90.000000
_cell_volume 2123.270368
_symmetry_space_group_name_H-M "I 2 2 2"
_symmetry_group_IT_number 23
_symmetry_cell_setting 'orthorhombic'
loop_
_space_group_symop_operation_xyz
x,y,z
-x,-y,z
x,-y,-z
-x,y,-z
1/2+x,1/2+y,1/2+z
1/2-x,1/2-y,1/2+z
1/2+x,1/2-y,1/2-z
1/2-x,1/2+y,1/2-z
loop_
_atom_site_type_symbol
_atom_site_label
_atom_site_fract_x
_atom_site_fract_y
_atom_site_fract_z
Si Si1 0.835194 0.430429 0.946162
Si Si2 0.015589 0.278416 0.217225
Si Si3 0.761223 0.911126 0.742414
Si Si4 0.236460 0.300894 0.936591
Si Si5 0.187756 0.623425 0.565166
Si Si6 0.599234 0.608499 0.778666
Si Si7 0.847909 0.388812 0.359059
O O1 0.848047 0.449968 0.837116
O O2 0.750194 0.500000 0.000000
O O3 0.766573 0.344870 0.964990
O O4 0.000000 0.425359 0.000000
O O5 0.927728 0.290134 0.118567
O O6 0.899327 0.313366 0.297413
O O7 0.173902 0.326861 0.234720
O O8 0.053053 0.188828 0.226400
O O9 0.790892 0.912549 0.853578
O O10 0.931234 0.926141 0.701463
O O11 0.317024 0.217300 0.935800
O O12 0.325051 0.362067 0.872712
O O13 0.237047 0.609279 0.458896
O O14 0.020691 0.589430 0.601782
O O15 0.732575 0.569121 0.714146
#
# Coordination Sequence:
#
# PCOD9329625 Si02
#       7
#     8   8   8   8   8   8   8
#     4  11  26  44  63  87 123 181 233 272 316 385
#     4  10  18  34  49  84 121 157 202 256 325 408
#     4  11  21  37  57  83 122 158 217 268 321 384
#     4  11  21  33  57  83 117 161 211 260 323 376
#     4  10  20  33  56  88 121 168 194 263 333 392
#     4  11  20  33  53  86 125 159 198 256 334 394
#     4   9  20  32  49  81 134 156 199 238 321 423
#
# _framework density 26.374409
#
# number of rings (size 3 to 8) (size 9 to 14) (size 15 to 20)
#    0.000    1.571    5.714    0.857    4.000    1.143 
#    0.000    1.429    0.000    0.000    0.000    4.000 
#    0.000    4.571    0.286    0.000    0.000    0.000 
#
# Total GULP energy -155958.193226 kJ/mol
# GULP energy per Si atom -5569.935472 kJ/mol
# Density = 2.631438 g / cm^3
# Si number density = 26.374409 Si / 1000 Ang^3
#
#
#
# Elastic Constant Matrix: (Units=GPa)
#
#
# Indices 1 2 3 4 5 6 
#
# 1 97.0710 5.2687 8.1877 0.0000 0.0000 0.0000
# 2 5.2687 92.9165 23.4287 0.0000 0.0000 0.0000
# 3 8.1877 23.4287 168.0029 -0.0001 0.0000 0.0000
# 4 0.0000 0.0000 -0.0001 99.9286 0.0000 0.0000
# 5 0.0000 0.0000 0.0000 0.0000 20.9309 0.0000
# 6 0.0000 0.0000 0.0000 0.0000 0.0000 22.3269
#
#
#
# Elastic Compliance Matrix: (Units=1/GPa)
#
#
# Indices 1 2 3 4 5 6 
#
# 1 0.010365 -0.000477 -0.000439 0.000000 0.000000 0.000000
# 2 -0.000477 0.011177 -0.001535 0.000000 0.000000 0.000000
# 3 -0.000439 -0.001535 0.006188 0.000000 0.000000 0.000000
# 4 0.000000 0.000000 0.000000 0.010007 0.000000 0.000000
# 5 0.000000 0.000000 0.000000 0.000000 0.047776 0.000000
# 6 0.000000 0.000000 0.000000 0.000000 0.000000 0.044789
#
#
# Mechanical properties :
#
#
# Convention : Reuss Voigt Hill
#
# Bulk Modulus (GPa) = 43.80818 47.97341 45.89079
# Shear Modulus (GPa) = 35.01094 50.04429 42.52762
#
# Velocity S-wave (km/s) = 3.64738 4.36071 4.01990
# Velocity P-wave (km/s) = 5.86379 6.60176 6.24369
#
# Compressibility (1/GPa) = 0.02282679
#
# Stress axis : x y z
#
# Youngs Moduli (GPa) = 96.48199 89.47307 161.60927
#
# Poissons Ratio (x) = 0.04269 0.07088
# Poissons Ratio (y) = 0.04603 0.24813
# Poissons Ratio (z) = 0.04232 0.13737
#
# Static dielectric constant tensor:
#      x y z
#    x 2.133120 0.000000 0.000000 
#    y 0.000000 2.177510 0.000000 
#    z 0.000000 0.000000 2.160010 
# 
# From -- ./inp_files/20189.got.cif
#   From: 2010.05.17/outbox.cif.g08.bks.cpg/sg23_11_cif.got.tgz:20189.got - 2010.06.04 12:02:01.
