data_PCOD9329502
_publ_section_title
;
Structure prediction by ZEFSAII (Michael W. Deem and Ramdas Pophale) SiO2 
 PCOD9329502
Probable space group: I 2 2 2
;
_chemical_formula_sum "Si O2"
_cell_formula_units_Z 48
_cell_length_a 9.634999
_cell_length_b 8.062952
_cell_length_c 27.188607
_cell_angle_alpha 90.000000
_cell_angle_beta 90.000000
_cell_angle_gamma 90.000000
_cell_volume 2112.188655
_symmetry_space_group_name_H-M "I 2 2 2"
_symmetry_group_IT_number 23
_symmetry_cell_setting 'orthorhombic'
loop_
_space_group_symop_operation_xyz
x,y,z
-x,-y,z
x,-y,-z
-x,y,-z
1/2+x,1/2+y,1/2+z
1/2-x,1/2-y,1/2+z
1/2+x,1/2-y,1/2-z
1/2-x,1/2+y,1/2-z
loop_
_atom_site_type_symbol
_atom_site_label
_atom_site_fract_x
_atom_site_fract_y
_atom_site_fract_z
Si Si1 0.658183 0.445734 0.811716
Si Si2 0.645921 0.486058 0.647434
Si Si3 0.336906 0.200661 0.005041
Si Si4 0.422426 0.733970 0.551040
Si Si5 0.154191 0.563558 0.275266
Si Si6 0.807077 0.335497 0.901434
O O1 0.500000 0.500000 0.817987
O O2 0.744968 0.545338 0.771149
O O3 0.651070 0.254075 0.793066
O O4 0.743132 0.463498 0.863139
O O5 0.500000 0.500000 0.676455
O O6 0.617911 0.384391 0.597227
O O7 0.775479 0.448224 0.682055
O O8 0.672315 0.671371 0.630475
O O9 0.299085 0.278255 0.057101
O O10 0.500000 0.222395 0.000000
O O11 0.228921 0.289367 0.967836
O O12 0.308124 0.000000 0.000000
O O13 0.500000 0.673044 0.500000
O O14 0.543605 0.848791 0.572699
O O15 0.000000 0.500000 0.264112
#
# Coordination Sequence:
#
# PCOD9329502 Si02
#       6
#     8   8   8   8   8   8
#     4  11  24  46  69  96 136 178 230 305 377 452
#     4   9  17  30  52  85 127 174 224 281 341 399
#     4  10  18  28  51  92 144 184 228 286 346 403
#     4   9  17  28  52  85 136 190 232 286 336 399
#     4  11  24  41  66  97 132 178 236 293 366 442
#     4   9  19  33  55  90 125 181 230 278 355 417
#
# _framework density 22.725242999999999
#
# number of rings (size 3 to 8) (size 9 to 14) (size 15 to 20)
#    0.000    2.167    1.667    1.500    2.333    5.333 
#    0.000    1.667    0.000    0.500    0.000    0.000 
#    0.000    5.333    0.000    0.000    0.000    0.000 
#
# Total GULP energy -133743.409154 kJ/mol
# GULP energy per Si atom -5572.642048 kJ/mol
# Density = 2.267352 g / cm^3
# Si number density = 22.725243 Si / 1000 Ang^3
#
#
#
# Elastic Constant Matrix: (Units=GPa)
#
#
# Indices 1 2 3 4 5 6 
#
# 1 207.2072 32.8727 70.6624 0.0000 0.0000 0.0000
# 2 32.8727 60.8575 35.6886 0.0000 0.0000 0.0000
# 3 70.6624 35.6886 96.7432 0.0000 0.0000 0.0000
# 4 0.0000 0.0000 0.0000 4.1553 0.0000 0.0000
# 5 0.0000 0.0000 0.0000 0.0000 4.7021 0.0000
# 6 0.0000 0.0000 0.0000 0.0000 0.0000 -194.4090
#
#
#
# Elastic Compliance Matrix: (Units=1/GPa)
#
#
# Indices 1 2 3 4 5 6 
#
# 1 0.006467 -0.000923 -0.004383 0.000000 0.000000 0.000000
# 2 -0.000923 0.021100 -0.007110 0.000000 0.000000 0.000000
# 3 -0.004383 -0.007110 0.016161 0.000000 0.000000 0.000000
# 4 0.000000 0.000000 0.000000 0.240656 0.000000 0.000000
# 5 0.000000 0.000000 0.000000 0.000000 0.212669 0.000000
# 6 0.000000 0.000000 0.000000 0.000000 0.000000 -0.005144
#
#
# Mechanical properties :
#
#
# Convention : Reuss Voigt Hill
#
# Bulk Modulus (GPa) = 52.92032 71.47280 62.19656
# Shear Modulus (GPa) = 9.55950 -22.07136 -6.25593
#
# Velocity S-wave (km/s) = 2.05321 -3.11983 -1.66097
# Velocity P-wave (km/s) = 5.38131 4.30596 4.87339
#
# Compressibility (1/GPa) = 0.01889633
#
# Stress axis : x y z
#
# Youngs Moduli (GPa) = 154.62345 47.39439 61.87724
#
# Poissons Ratio (x) = 0.04374 0.27123
# Poissons Ratio (y) = 0.14269 0.43992
# Poissons Ratio (z) = 0.67777 0.33695
#
# Static dielectric constant tensor:
#      x y z
#    x 1.821600 0.000000 0.000000 
#    y 0.000000 1.891950 0.000000 
#    z 0.000000 0.000000 2.751470 
# 
# From -- ./inp_files/30244.got.cif
#   From: 2010.05.17/outbox.cif.g08.bks.cpg/sg23_16_cif.got.tgz:30244.got - 2010.06.04 12:02:01.
