data_PCOD9329441
_publ_section_title
;
Structure prediction by ZEFSAII (Michael W. Deem and Ramdas Pophale) SiO2 
 PCOD9329441
Probable space group: I 2 2 2
;
_chemical_formula_sum "Si O2"
_cell_formula_units_Z 40
_cell_length_a 14.169906
_cell_length_b 17.569589
_cell_length_c 8.243271
_cell_angle_alpha 90.000000
_cell_angle_beta 90.000000
_cell_angle_gamma 90.000000
_cell_volume 2052.240005
_symmetry_space_group_name_H-M "I 2 2 2"
_symmetry_group_IT_number 23
_symmetry_cell_setting 'orthorhombic'
loop_
_space_group_symop_operation_xyz
x,y,z
-x,-y,z
x,-y,-z
-x,y,-z
1/2+x,1/2+y,1/2+z
1/2-x,1/2-y,1/2+z
1/2+x,1/2-y,1/2-z
1/2-x,1/2+y,1/2-z
loop_
_atom_site_type_symbol
_atom_site_label
_atom_site_fract_x
_atom_site_fract_y
_atom_site_fract_z
Si Si1 0.039388 0.247478 0.825510
Si Si2 0.639629 0.816852 0.859819
Si Si3 0.393733 0.028509 0.741149
Si Si4 0.687119 0.695600 0.115874
Si Si5 0.173807 0.611540 0.083580
O O1 0.095334 0.182978 0.725976
O O2 0.114850 0.314656 0.864038
O O3 0.956156 0.282780 0.716362
O O4 0.000000 0.222629 0.000000
O O5 0.630012 0.907874 0.873741
O O6 0.723739 0.799008 0.734611
O O7 0.665013 0.773601 0.022952
O O8 0.381038 0.075639 0.572185
O O9 0.500000 0.000000 0.758462
O O10 0.329003 0.954452 0.717544
O O11 0.723274 0.635856 0.981008
#
# Coordination Sequence:
#
# PCOD9329441 Si02
#       5
#     8   8   8   8   8
#     4  12  19  35  57  81 119 159 195 248 301 358
#     4  11  21  35  57  85 123 161 198 250 298 362
#     4  10  17  30  58  86 115 162 192 235 311 373
#     4  11  22  35  54  84 125 159 207 242 292 373
#     4  10  18  32  55  82 120 157 195 235 293 370
#
# _framework density 19.490898999999999
#
# number of rings (size 3 to 8) (size 9 to 14) (size 15 to 20)
#    0.000    1.200    8.000    1.800    0.000    0.000 
#    0.000    1.000    0.000    0.000    0.000   44.800 
#    0.000   35.200    0.000    0.000    0.000    0.000 
#
# Total GULP energy -111617.657553 kJ/mol
# GULP energy per Si atom -5580.882878 kJ/mol
# Density = 1.944654 g / cm^3
# Si number density = 19.490899 Si / 1000 Ang^3
#
#
#
# Elastic Constant Matrix: (Units=GPa)
#
#
# Indices 1 2 3 4 5 6 
#
# 1 99.2103 50.7523 31.9725 0.0000 0.0000 0.0000
# 2 50.7523 79.1932 37.8565 0.0000 0.0000 0.0000
# 3 31.9725 37.8565 67.2630 0.0000 0.0000 0.0000
# 4 0.0000 0.0000 0.0000 23.8014 0.0000 0.0000
# 5 0.0000 0.0000 0.0000 0.0000 29.8276 0.0000
# 6 0.0000 0.0000 0.0000 0.0000 0.0000 27.4269
#
#
#
# Elastic Compliance Matrix: (Units=1/GPa)
#
#
# Indices 1 2 3 4 5 6 
#
# 1 0.015273 -0.008643 -0.002395 0.000000 0.000000 0.000000
# 2 -0.008643 0.022166 -0.008367 0.000000 0.000000 0.000000
# 3 -0.002395 -0.008367 0.020715 0.000000 0.000000 0.000000
# 4 0.000000 0.000000 0.000000 0.042014 0.000000 0.000000
# 5 0.000000 0.000000 0.000000 0.000000 0.033526 0.000000
# 6 0.000000 0.000000 0.000000 0.000000 0.000000 0.036461
#
#
# Mechanical properties :
#
#
# Convention : Reuss Voigt Hill
#
# Bulk Modulus (GPa) = 51.69845 54.09212 52.89528
# Shear Modulus (GPa) = 23.21127 24.55021 23.88074
#
# Velocity S-wave (km/s) = 3.45465 3.55290 3.50412
# Velocity P-wave (km/s) = 6.51881 6.68158 6.60069
#
# Compressibility (1/GPa) = 0.01934294
#
# Stress axis : x y z
#
# Youngs Moduli (GPa) = 65.47535 45.11436 48.27481
#
# Poissons Ratio (x) = 0.38991 0.11564
# Poissons Ratio (y) = 0.56589 0.40392
# Poissons Ratio (z) = 0.15685 0.37747
#
# Static dielectric constant tensor:
#      x y z
#    x 1.679750 0.000000 0.000000 
#    y 0.000000 1.712030 0.000000 
#    z 0.000000 0.000000 1.758810 
# 
# From -- ./inp_files/8220.got.cif
#   From: 2010.05.17/outbox.cif.g08.bks.cpg/sg23_5_cif.got.tgz:8220.got - 2010.06.04 12:02:01.
