data_PCOD9329321
_publ_section_title
;
Structure prediction by ZEFSAII (Michael W. Deem and Ramdas Pophale) SiO2 
 PCOD9329321
Probable space group: F 2 2 2
;
_chemical_formula_sum "Si O2"
_cell_formula_units_Z 22
_cell_length_a 24.000000
_cell_length_b 15.000000
_cell_length_c 12.000000
_cell_angle_alpha 90.000000
_cell_angle_beta 90.000000
_cell_angle_gamma 90.000000
_cell_volume 4320.000000
_symmetry_space_group_name_H-M "F 2 2 2"
_symmetry_group_IT_number 22
_symmetry_cell_setting 'orthorhombic'
loop_
_space_group_symop_operation_xyz
x,y,z
-x,-y,z
x,-y,-z
-x,y,-z
x,1/2+y,1/2+z
-x,1/2-y,1/2+z
x,1/2-y,1/2-z
-x,1/2+y,1/2-z
1/2+x,y,1/2+z
1/2-x,-y,1/2+z
1/2+x,-y,1/2-z
1/2-x,y,1/2-z
1/2+x,1/2+y,z
1/2-x,1/2-y,z
1/2+x,1/2-y,-z
1/2-x,1/2+y,-z
loop_
_atom_site_type_symbol
_atom_site_label
_atom_site_fract_x
_atom_site_fract_y
_atom_site_fract_z
Si Si1 0.183287 0.403535 0.767903
Si Si2 0.134206 0.245297 0.366898
Si Si3 0.184960 0.265026 0.593116
Si Si4 0.500000 0.000000 0.721819
Si Si5 0.105792 0.460347 0.123830
Si Si6 0.988656 0.306977 0.633240
O O1 0.250000 0.413774 0.750000
O O2 0.163995 0.352796 0.656131
O O3 0.163301 0.328400 0.857670
O O4 0.156551 0.494241 0.808811
O O5 0.164452 0.250000 0.250000
O O6 0.172504 0.275065 0.465915
O O7 0.114153 0.144738 0.386607
O O8 0.078362 0.303822 0.360337
O O9 0.250000 0.250000 0.615379
O O10 0.551955 0.017588 0.803000
O O11 0.491290 0.091405 0.652090
O O12 0.101754 0.500000 0.000000
O O13 0.006018 0.250000 0.750000
O O14 0.000000 0.279076 0.500000
#
# Coordination Sequence:
#
# PCOD9329321 Si02
#       6
#    16  16  16   8  16  16
#     4   9  20  41  67  99 128 173 227 273 330 406
#     4  11  23  45  60  96 135 165 214 287 334 404
#     4   9  19  40  69  95 129 171 223 273 331 407
#     4  12  26  46  66  98 135 188 227 278 345 416
#     4  12  24  42  68  98 138 174 228 286 342 405
#     4  11  26  46  68  95 135 174 228 280 337 411
#
# _framework density 5.0925929999999999
#
# number of rings (size 3 to 8) (size 9 to 14) (size 15 to 20)
#    0.000    1.455    5.455    1.636    5.091    0.364 
#    3.273    0.909    0.000    0.000    0.000    0.000 
#    0.000    0.000    0.000    0.000    0.000    0.000 
#
# Total GULP energy -122490.783452 kJ/mol
# GULP energy per Si atom -5567.762884 kJ/mol
# Density = 0.508100 g / cm^3
# Si number density = 5.092593 Si / 1000 Ang^3
#
#
#
# Elastic Constant Matrix: (Units=GPa)
#
#
# Indices 1 2 3 4 5 6 
#
# 1 29.3051 -0.8403 14.2246 0.0000 0.0000 0.0000
# 2 -0.8403 63.0557 3.8199 0.0000 0.0000 0.0000
# 3 14.2246 3.8199 156.6629 0.0000 0.0000 0.0000
# 4 0.0000 0.0000 0.0000 24.2429 0.0000 0.0000
# 5 0.0000 0.0000 0.0000 0.0000 137.9873 0.0000
# 6 0.0000 0.0000 0.0000 0.0000 0.0000 13.4650
#
#
#
# Elastic Compliance Matrix: (Units=1/GPa)
#
#
# Indices 1 2 3 4 5 6 
#
# 1 0.035726 0.000674 -0.003260 0.000000 0.000000 0.000000
# 2 0.000674 0.015895 -0.000449 0.000000 0.000000 0.000000
# 3 -0.003260 -0.000449 0.006690 0.000000 0.000000 0.000000
# 4 0.000000 0.000000 0.000000 0.041249 0.000000 0.000000
# 5 0.000000 0.000000 0.000000 0.000000 0.007247 0.000000
# 6 0.000000 0.000000 0.000000 0.000000 0.000000 0.074266
#
#
# Mechanical properties :
#
#
# Convention : Reuss Voigt Hill
#
# Bulk Modulus (GPa) = 19.14239 31.49246 25.31743
# Shear Modulus (GPa) = 24.44301 50.59369 37.51835
#
# Velocity S-wave (km/s) = 3.46776 4.98907 4.29629
# Velocity P-wave (km/s) = 5.04493 6.97720 6.08821
#
# Compressibility (1/GPa) = 0.05224009
#
# Stress axis : x y z
#
# Youngs Moduli (GPa) = 27.99116 62.91229 149.47478
#
# Poissons Ratio (x) = -0.04238 0.48732
# Poissons Ratio (y) = -0.01885 0.06707
# Poissons Ratio (z) = 0.09126 0.02823
#
# Static dielectric constant tensor:
#      x y z
#    x 1.728780 0.000000 0.000000 
#    y 0.000000 1.503460 0.000000 
#    z 0.000000 0.000000 1.790270 
# 
# From -- ./inp_files/23647.got.cif
#   From: 2010.05.17/outbox.ucp.g08.bks.cvg/sg22_12_cif.got.tgz:23647.got - 2010.06.11 15:16:44.
