data_PCOD9329207
_publ_section_title
;
Structure prediction by ZEFSAII (Michael W. Deem and Ramdas Pophale) SiO2 
 PCOD9329207
Probable space group: F 2 2 2
;
_chemical_formula_sum "Si O2"
_cell_formula_units_Z 64
_cell_length_a 5.263334
_cell_length_b 18.450048
_cell_length_c 25.502430
_cell_angle_alpha 90.000000
_cell_angle_beta 90.000000
_cell_angle_gamma 90.000000
_cell_volume 2476.509480
_symmetry_space_group_name_H-M "F 2 2 2"
_symmetry_group_IT_number 22
_symmetry_cell_setting 'orthorhombic'
loop_
_space_group_symop_operation_xyz
x,y,z
-x,-y,z
x,-y,-z
-x,y,-z
x,1/2+y,1/2+z
-x,1/2-y,1/2+z
x,1/2-y,1/2-z
-x,1/2+y,1/2-z
1/2+x,y,1/2+z
1/2-x,-y,1/2+z
1/2+x,-y,1/2-z
1/2-x,y,1/2-z
1/2+x,1/2+y,z
1/2-x,1/2-y,z
1/2+x,1/2-y,-z
1/2-x,1/2+y,-z
loop_
_atom_site_type_symbol
_atom_site_label
_atom_site_fract_x
_atom_site_fract_y
_atom_site_fract_z
Si Si1 0.000000 0.000000 0.281441
Si Si2 0.000000 0.000000 0.500000
Si Si3 0.750000 0.750000 0.250000
Si Si4 0.750000 0.250000 0.089073
Si Si5 0.485207 0.355438 0.335827
Si Si6 0.377357 0.575091 0.918763
Si Si7 0.000000 0.186801 0.000000
O O1 0.087997 0.931109 0.314524
O O2 0.250000 0.024232 0.250000
O O3 0.836807 0.950713 0.460375
O O4 0.591989 0.697624 0.288588
O O5 0.685377 0.185586 0.128425
O O6 0.978247 0.248657 0.046324
O O7 0.247629 0.378465 0.372520
O O8 0.500000 0.500000 0.900017
O O9 0.556221 0.625014 0.954987
#
# Coordination Sequence:
#
# PCOD9329207 Si02
#       7
#     8   4   4   8  16  16   8
#     4  12  31  56  86 119 162 217 286 363 430 500
#     4  12  20  46  68 122 150 204 258 340 408 506
#     4  12  28  56  72 112 158 220 290 360 426 498
#     4  12  28  46  80 118 162 218 272 340 438 528
#     4  12  29  49  84 116 163 220 286 355 431 508
#     4  12  25  44  77 117 159 211 271 336 424 509
#     4  12  23  47  68 113 167 204 260 332 418 518
#
# _framework density 25.842825999999999
#
# number of rings (size 3 to 8) (size 9 to 14) (size 15 to 20)
#    0.000    0.000    3.750    5.250    8.750    0.000 
#    0.000    0.000    0.000    0.000    0.000    0.000 
#    0.000    0.000    0.000    0.000    0.000    0.000 
#
# Total GULP energy -89154.033535 kJ/mol
# GULP energy per Si atom -5572.127096 kJ/mol
# Density = 2.578401 g / cm^3
# Si number density = 25.842826 Si / 1000 Ang^3
#
#
#
# Elastic Constant Matrix: (Units=GPa)
#
#
# Indices 1 2 3 4 5 6 
#
# 1 82.1655 16.7899 46.1334 0.0000 0.0000 0.0000
# 2 16.7899 152.2490 85.4007 0.0000 0.0000 0.0000
# 3 46.1334 85.4007 185.8515 0.0000 0.0000 0.0000
# 4 0.0000 0.0000 0.0000 55.3818 0.0000 0.0000
# 5 0.0000 0.0000 0.0000 0.0000 45.4386 0.0000
# 6 0.0000 0.0000 0.0000 0.0000 0.0000 29.2448
#
#
#
# Elastic Compliance Matrix: (Units=1/GPa)
#
#
# Indices 1 2 3 4 5 6 
#
# 1 0.014176 0.000553 -0.003773 0.000000 0.000000 0.000000
# 2 0.000553 0.008871 -0.004213 0.000000 0.000000 0.000000
# 3 -0.003773 -0.004213 0.008253 0.000000 0.000000 0.000000
# 4 0.000000 0.000000 0.000000 0.018056 0.000000 0.000000
# 5 0.000000 0.000000 0.000000 0.000000 0.022008 0.000000
# 6 0.000000 0.000000 0.000000 0.000000 0.000000 0.034194
#
#
# Mechanical properties :
#
#
# Convention : Reuss Voigt Hill
#
# Bulk Modulus (GPa) = 60.85251 79.65710 70.25480
# Shear Modulus (GPa) = 39.71322 44.14251 41.92787
#
# Velocity S-wave (km/s) = 3.92436 4.13742 4.03229
# Velocity P-wave (km/s) = 6.64322 7.32904 6.99454
#
# Compressibility (1/GPa) = 0.01643318
#
# Stress axis : x y z
#
# Youngs Moduli (GPa) = 70.54200 112.73166 121.16351
#
# Poissons Ratio (x) = -0.06235 0.45715
# Poissons Ratio (y) = -0.03901 0.51051
# Poissons Ratio (z) = 0.26615 0.47499
#
# Static dielectric constant tensor:
#      x y z
#    x 2.092230 0.000000 0.000000 
#    y 0.000000 2.152020 0.000000 
#    z 0.000000 0.000000 1.967000 
# 
# From -- ./inp_files/51105.got.cif
#   From: 2010.05.17/outbox.cif.g08.bks.cpg/sg22_26_cif.got.tgz:51105.got - 2010.06.03 23:40:54.
