data_PCOD9329109
_publ_section_title
;
Structure prediction by ZEFSAII (Michael W. Deem and Ramdas Pophale) SiO2 
 PCOD9329109
Probable space group: F 2 2 2
;
_chemical_formula_sum "Si O2"
_cell_formula_units_Z 68
_cell_length_a 19.226767
_cell_length_b 10.048330
_cell_length_c 15.410754
_cell_angle_alpha 90.000000
_cell_angle_beta 90.000000
_cell_angle_gamma 90.000000
_cell_volume 2977.309894
_symmetry_space_group_name_H-M "F 2 2 2"
_symmetry_group_IT_number 22
_symmetry_cell_setting 'orthorhombic'
loop_
_space_group_symop_operation_xyz
x,y,z
-x,-y,z
x,-y,-z
-x,y,-z
x,1/2+y,1/2+z
-x,1/2-y,1/2+z
x,1/2-y,1/2-z
-x,1/2+y,1/2-z
1/2+x,y,1/2+z
1/2-x,-y,1/2+z
1/2+x,-y,1/2-z
1/2-x,y,1/2-z
1/2+x,1/2+y,z
1/2-x,1/2-y,z
1/2+x,1/2-y,-z
1/2-x,1/2+y,-z
loop_
_atom_site_type_symbol
_atom_site_label
_atom_site_fract_x
_atom_site_fract_y
_atom_site_fract_z
Si Si1 0.098176 0.530697 0.853962
Si Si2 0.829987 0.228805 0.415801
Si Si3 0.671030 0.715344 0.121831
Si Si4 0.577874 0.961112 0.662535
Si Si5 0.000000 0.500000 0.000000
O O1 0.149473 0.423554 0.897261
O O2 0.131063 0.668623 0.828576
O O3 0.071652 0.460013 0.767160
O O4 0.046239 0.575977 0.930724
O O5 0.750000 0.250000 0.385481
O O6 0.832414 0.260382 0.517865
O O7 0.887319 0.324700 0.371116
O O8 0.750000 0.750000 0.144934
O O9 0.634851 0.574166 0.138507
O O10 0.500000 0.000000 0.629205
#
# Coordination Sequence:
#
# PCOD9329109 Si02
#       5
#    16  16  16  16   4
#     4  12  25  44  72  93 134 183 232 273 343 418
#     4  11  25  46  70  99 138 182 225 277 346 416
#     4  11  25  46  70  99 138 182 225 277 346 416
#     4  12  28  42  68 108 140 170 230 299 345 386
#     4  12  24  44  68  98 130 188 230 278 332 436
#
# _framework density 22.839409
#
# number of rings (size 3 to 8) (size 9 to 14) (size 15 to 20)
#    0.000    0.471    3.529    3.529    3.294   13.176 
#    0.000    0.000    0.000    0.000    0.000    0.000 
#    0.000    0.000    0.000    0.000    0.000    0.000 
#
# Total GULP energy -94901.956820 kJ/mol
# GULP energy per Si atom -5582.468048 kJ/mol
# Density = 2.278743 g / cm^3
# Si number density = 22.839409 Si / 1000 Ang^3
#
#
#
# Elastic Constant Matrix: (Units=GPa)
#
#
# Indices 1 2 3 4 5 6 
#
# 1 132.6413 29.3783 26.7315 0.0000 0.0000 0.0000
# 2 29.3783 109.2164 10.0403 0.0000 0.0000 0.0000
# 3 26.7315 10.0403 108.5160 0.0000 0.0000 0.0000
# 4 0.0000 0.0000 0.0000 32.4764 0.0000 0.0000
# 5 0.0000 0.0000 0.0000 0.0000 11.8249 0.0000
# 6 0.0000 0.0000 0.0000 0.0000 0.0000 10.6962
#
#
#
# Elastic Compliance Matrix: (Units=1/GPa)
#
#
# Indices 1 2 3 4 5 6 
#
# 1 0.008377 -0.002081 -0.001871 0.000000 0.000000 0.000000
# 2 -0.002081 0.009752 -0.000390 0.000000 0.000000 0.000000
# 3 -0.001871 -0.000390 0.009712 0.000000 0.000000 0.000000
# 4 0.000000 0.000000 0.000000 0.030792 0.000000 0.000000
# 5 0.000000 0.000000 0.000000 0.000000 0.084567 0.000000
# 6 0.000000 0.000000 0.000000 0.000000 0.000000 0.093491
#
#
# Mechanical properties :
#
#
# Convention : Reuss Voigt Hill
#
# Bulk Modulus (GPa) = 52.19958 53.63044 52.91501
# Shear Modulus (GPa) = 19.86012 29.94776 24.90394
#
# Velocity S-wave (km/s) = 2.95202 3.62502 3.30569
# Velocity P-wave (km/s) = 5.87570 6.40730 6.14725
#
# Compressibility (1/GPa) = 0.01915724
#
# Stress axis : x y z
#
# Youngs Moduli (GPa) = 119.37157 102.54496 102.96351
#
# Poissons Ratio (x) = 0.21344 0.19265
# Poissons Ratio (y) = 0.24846 0.04011
# Poissons Ratio (z) = 0.22335 0.03995
#
# Static dielectric constant tensor:
#      x y z
#    x 2.463920 0.000000 0.000000 
#    y 0.000000 1.799360 0.000000 
#    z 0.000000 0.000000 1.880180 
# 
# From -- ./inp_files/38582.got.cif
#   From: 2010.05.17/outbox.cif.g08.bks.cpg/sg22_20_cif.got.tgz:38582.got - 2010.06.03 23:40:54.
