data_PCOD9329945
_publ_section_title
;
Structure prediction by ZEFSAII (Michael W. Deem and Ramdas Pophale) SiO2 
 PCOD9329945
Probable space group: I 2 2 2
;
_chemical_formula_sum "Si O2"
_cell_formula_units_Z 48
_cell_length_a 20.248417
_cell_length_b 7.242013
_cell_length_c 13.711973
_cell_angle_alpha 90.000000
_cell_angle_beta 90.000000
_cell_angle_gamma 90.000000
_cell_volume 2010.714111
_symmetry_space_group_name_H-M "I 2 2 2"
_symmetry_group_IT_number 23
_symmetry_cell_setting 'orthorhombic'
loop_
_space_group_symop_operation_xyz
x,y,z
-x,-y,z
x,-y,-z
-x,y,-z
1/2+x,1/2+y,1/2+z
1/2-x,1/2-y,1/2+z
1/2+x,1/2-y,1/2-z
1/2-x,1/2+y,1/2-z
loop_
_atom_site_type_symbol
_atom_site_label
_atom_site_fract_x
_atom_site_fract_y
_atom_site_fract_z
Si Si1 0.494770 0.281587 0.154190
Si Si2 0.764710 0.737862 0.390444
Si Si3 0.642194 0.771428 0.509707
Si Si4 0.449069 0.845353 0.642484
Si Si5 0.395335 0.722474 0.006031
Si Si6 0.316752 0.064442 0.692103
O O1 0.500000 0.500000 0.142912
O O2 0.487030 0.243854 0.267247
O O3 0.559487 0.213231 0.097201
O O4 0.431736 0.214662 0.091890
O O5 0.698038 0.678891 0.444019
O O6 0.821032 0.727473 0.471741
O O7 0.791136 0.631430 0.296207
O O8 0.743877 0.945646 0.354779
O O9 0.575618 0.728403 0.450542
O O10 0.659877 0.763190 0.623545
O O11 0.644837 0.000000 0.500000
O O12 0.500000 0.000000 0.608050
O O13 0.381965 0.933164 0.690918
O O14 0.396058 0.500000 0.000000
#
# Coordination Sequence:
#
# PCOD9329945 Si02
#       6
#     8   8   8   8   8   8
#     4   9  19  33  53  83 109 139 182 223 273 334
#     4  10  19  35  56  78 108 146 184 230 278 326
#     4   8  19  35  53  78 106 145 189 218 268 343
#     4  10  19  35  56  81 111 145 184 229 275 330
#     4   9  17  32  54  78 108 146 181 216 274 345
#     4  10  22  37  56  84 109 146 195 231 274 336
#
# _framework density 23.872115000000001
#
# number of rings (size 3 to 8) (size 9 to 14) (size 15 to 20)
#    0.000    3.000    0.000    3.500    0.000   11.000 
#    0.000    8.333    0.000    4.000    0.000   32.667 
#    0.000    0.000    0.000    0.000    0.000    0.000 
#
# Total GULP energy -133777.823559 kJ/mol
# GULP energy per Si atom -5574.075982 kJ/mol
# Density = 2.381778 g / cm^3
# Si number density = 23.872115 Si / 1000 Ang^3
#
#
#
# Elastic Constant Matrix: (Units=GPa)
#
#
# Indices 1 2 3 4 5 6 
#
# 1 123.0002 9.6954 16.2142 0.0000 0.0000 0.0000
# 2 9.6954 52.2030 17.2823 0.0000 0.0000 0.0000
# 3 16.2142 17.2823 57.7011 0.0000 0.0000 0.0000
# 4 0.0000 0.0000 0.0000 52.0927 0.0000 0.0000
# 5 0.0000 0.0000 0.0000 0.0000 35.7856 0.0000
# 6 0.0000 0.0000 0.0000 0.0000 0.0000 7.5000
#
#
#
# Elastic Compliance Matrix: (Units=1/GPa)
#
#
# Indices 1 2 3 4 5 6 
#
# 1 0.008478 -0.000872 -0.002121 0.000000 0.000000 0.000000
# 2 -0.000872 0.021354 -0.006151 0.000000 0.000000 0.000000
# 3 -0.002121 -0.006151 0.019769 0.000000 0.000000 0.000000
# 4 0.000000 0.000000 0.000000 0.019197 0.000000 0.000000
# 5 0.000000 0.000000 0.000000 0.000000 0.027944 0.000000
# 6 0.000000 0.000000 0.000000 0.000000 0.000000 0.133333
#
#
# Mechanical properties :
#
#
# Convention : Reuss Voigt Hill
#
# Bulk Modulus (GPa) = 31.93562 35.47647 33.70604
# Shear Modulus (GPa) = 19.31978 31.72316 25.52147
#
# Velocity S-wave (km/s) = 2.84791 3.64933 3.27324
# Velocity P-wave (km/s) = 4.92148 5.71403 5.33250
#
# Compressibility (1/GPa) = 0.03131300
#
# Stress axis : x y z
#
# Youngs Moduli (GPa) = 117.94598 46.82903 50.58423
#
# Poissons Ratio (x) = 0.04085 0.10730
# Poissons Ratio (y) = 0.10290 0.31113
# Poissons Ratio (z) = 0.25018 0.28803
#
# Static dielectric constant tensor:
#      x y z
#    x 1.847470 0.000000 0.000000 
#    y 0.000000 1.989020 0.000000 
#    z 0.000000 0.000000 1.969290 
# 
# From -- ./inp_files/22026.got.cif
#   From: 2010.05.17/outbox.cif.g08.bks.cpg/sg23_12_cif.got.tgz:22026.got - 2010.06.04 12:02:01.
