data_PCOD9329560
_publ_section_title
;
Structure prediction by ZEFSAII (Michael W. Deem and Ramdas Pophale) SiO2 
 PCOD9329560
Probable space group: I 2 2 2
;
_chemical_formula_sum "Si O2"
_cell_formula_units_Z 56
_cell_length_a 8.594789
_cell_length_b 22.833185
_cell_length_c 16.473035
_cell_angle_alpha 90.000000
_cell_angle_beta 90.000000
_cell_angle_gamma 90.000000
_cell_volume 3232.773936
_symmetry_space_group_name_H-M "I 2 2 2"
_symmetry_group_IT_number 23
_symmetry_cell_setting 'orthorhombic'
loop_
_space_group_symop_operation_xyz
x,y,z
-x,-y,z
x,-y,-z
-x,y,-z
1/2+x,1/2+y,1/2+z
1/2-x,1/2-y,1/2+z
1/2+x,1/2-y,1/2-z
1/2-x,1/2+y,1/2-z
loop_
_atom_site_type_symbol
_atom_site_label
_atom_site_fract_x
_atom_site_fract_y
_atom_site_fract_z
Si Si1 0.790246 0.900299 0.684913
Si Si2 0.858013 0.861061 0.350864
Si Si3 0.614797 0.212013 0.731177
Si Si4 0.313623 0.512875 0.089712
Si Si5 0.332565 0.752866 0.032316
Si Si6 0.806112 0.680883 0.313333
Si Si7 0.098576 0.688972 0.922958
O O1 0.762296 0.967038 0.658416
O O2 0.729572 0.881404 0.773584
O O3 0.697153 0.861620 0.619279
O O4 0.970385 0.880854 0.676226
O O5 0.749657 0.836135 0.279305
O O6 0.859439 0.807618 0.415724
O O7 0.786117 0.919750 0.388843
O O8 0.701013 0.273726 0.739438
O O9 0.485806 0.197915 0.797590
O O10 0.518627 0.211772 0.646233
O O11 0.500000 0.500000 0.085076
O O12 0.249736 0.500000 0.000000
O O13 0.271749 0.802180 0.094391
O O14 0.500000 0.770557 0.000000
O O15 0.214054 0.737349 0.960484
O O16 0.000000 0.667489 0.000000
#
# Coordination Sequence:
#
# PCOD9329560 Si02
#       7
#     8   8   8   8   8   8   8
#     4  10  20  33  50  68 105 137 172 209 258 303
#     4  10  18  32  50  70  97 135 178 206 253 298
#     4  10  21  31  49  68 101 132 174 206 254 313
#     4   9  18  29  49  74  97 135 178 210 240 305
#     4  11  20  32  52  71  98 139 172 212 260 310
#     4  10  20  33  46  70  98 141 164 214 260 308
#     4  11  19  31  47  70  97 132 171 208 252 305
#
# _framework density 17.322583999999999
#
# number of rings (size 3 to 8) (size 9 to 14) (size 15 to 20)
#    0.000    1.857    4.286    2.571    4.000    0.000 
#    0.000    2.857    3.143    0.000    0.000    0.000 
#    0.000    2.286    2.857    0.000    0.000    0.000 
#
# Total GULP energy -156132.704308 kJ/mol
# GULP energy per Si atom -5576.168011 kJ/mol
# Density = 1.728316 g / cm^3
# Si number density = 17.322584 Si / 1000 Ang^3
#
#
#
# Elastic Constant Matrix: (Units=GPa)
#
#
# Indices 1 2 3 4 5 6 
#
# 1 57.8368 -3.3940 -0.3041 0.0000 0.0000 0.0000
# 2 -3.3940 72.7669 26.7380 0.0000 0.0000 0.0000
# 3 -0.3041 26.7380 44.2059 0.0000 0.0000 0.0000
# 4 0.0000 0.0000 0.0000 27.6254 0.0000 0.0000
# 5 0.0000 0.0000 0.0000 0.0000 24.1891 0.0000
# 6 0.0000 0.0000 0.0000 0.0000 0.0000 12.0093
#
#
#
# Elastic Compliance Matrix: (Units=1/GPa)
#
#
# Indices 1 2 3 4 5 6 
#
# 1 0.017345 0.000984 -0.000476 0.000000 0.000000 0.000000
# 2 0.000984 0.017725 -0.010714 0.000000 0.000000 0.000000
# 3 -0.000476 -0.010714 0.029099 0.000000 0.000000 0.000000
# 4 0.000000 0.000000 0.000000 0.036199 0.000000 0.000000
# 5 0.000000 0.000000 0.000000 0.000000 0.041341 0.000000
# 6 0.000000 0.000000 0.000000 0.000000 0.000000 0.083269
#
#
# Mechanical properties :
#
#
# Convention : Reuss Voigt Hill
#
# Bulk Modulus (GPa) = 22.85364 24.54326 23.69845
# Shear Modulus (GPa) = 19.23253 22.88275 21.05764
#
# Velocity S-wave (km/s) = 3.33567 3.63847 3.49035
# Velocity P-wave (km/s) = 5.29690 5.64362 5.47301
#
# Compressibility (1/GPa) = 0.04375671
#
# Stress axis : x y z
#
# Youngs Moduli (GPa) = 57.65261 56.41624 34.36571
#
# Poissons Ratio (x) = -0.05550 0.01635
# Poissons Ratio (y) = -0.05672 0.36821
# Poissons Ratio (z) = 0.02743 0.60447
#
# Static dielectric constant tensor:
#      x y z
#    x 1.647000 0.000000 0.000000 
#    y 0.000000 1.579470 0.000000 
#    z 0.000000 0.000000 1.628500 
# 
# From -- ./inp_files/11365.got.cif
#   From: 2010.05.17/outbox.cif.g08.bks.cpg/sg23_6_cif.got.tgz:11365.got - 2010.06.04 12:02:01.
