data_PCOD9329036
_publ_section_title
;
Structure prediction by ZEFSAII (Michael W. Deem and Ramdas Pophale) SiO2 
 PCOD9329036
Probable space group: F 2 2 2
;
_chemical_formula_sum "Si O2"
_cell_formula_units_Z 92
_cell_length_a 14.290346
_cell_length_b 13.909877
_cell_length_c 22.284954
_cell_angle_alpha 90.000000
_cell_angle_beta 90.000000
_cell_angle_gamma 90.000000
_cell_volume 4429.735302
_symmetry_space_group_name_H-M "F 2 2 2"
_symmetry_group_IT_number 22
_symmetry_cell_setting 'orthorhombic'
loop_
_space_group_symop_operation_xyz
x,y,z
-x,-y,z
x,-y,-z
-x,y,-z
x,1/2+y,1/2+z
-x,1/2-y,1/2+z
x,1/2-y,1/2-z
-x,1/2+y,1/2-z
1/2+x,y,1/2+z
1/2-x,-y,1/2+z
1/2+x,-y,1/2-z
1/2-x,y,1/2-z
1/2+x,1/2+y,z
1/2-x,1/2-y,z
1/2+x,1/2-y,-z
1/2-x,1/2+y,-z
loop_
_atom_site_type_symbol
_atom_site_label
_atom_site_fract_x
_atom_site_fract_y
_atom_site_fract_z
Si Si1 0.250000 0.250000 0.750000
Si Si2 0.071422 0.079136 0.661460
Si Si3 0.351020 0.500000 0.000000
Si Si4 0.500000 0.661705 0.000000
Si Si5 0.750000 0.750000 0.150764
Si Si6 0.111291 0.405580 0.699659
Si Si7 0.466699 0.777099 0.634053
Si Si8 0.752711 0.972203 0.123547
O O1 0.184733 0.317814 0.709551
O O2 0.082886 0.068464 0.732969
O O3 0.027665 0.182913 0.649359
O O4 0.169973 0.048909 0.633213
O O5 0.000000 0.000000 0.638094
O O6 0.415424 0.590566 0.016779
O O7 0.289704 0.524088 0.943320
O O8 0.466667 0.714868 0.939042
O O9 0.637165 0.726541 0.163155
O O10 0.726373 0.861512 0.133765
O O11 0.165408 0.491841 0.667765
O O12 0.024441 0.366556 0.661405
#
# Coordination Sequence:
#
# PCOD9329036 Si02
#       8
#     4  16   8   8   8  16  16  16
#     4  12  20  44  78 108 136 182 260 300 358 436
#     4  12  26  45  70 107 145 190 237 305 377 448
#     4  11  24  44  77 108 140 196 251 298 367 448
#     4  11  24  44  77 108 140 196 251 298 367 448
#     4  12  28  44  70 102 150 193 237 318 380 448
#     4  12  24  45  76 107 141 193 246 311 364 452
#     4  12  25  49  72 107 151 188 251 309 376 456
#     4  12  25  49  72 107 151 188 251 309 376 456
#
# _framework density 20.768735
#
# number of rings (size 3 to 8) (size 9 to 14) (size 15 to 20)
#    0.000    0.174    8.696    0.000    2.435    1.391 
#    0.000    3.478    0.000    0.000    0.000    0.000 
#    0.000    0.000    0.000    0.000    0.000    0.000 
#
# Total GULP energy -128162.307693 kJ/mol
# GULP energy per Si atom -5572.274248 kJ/mol
# Density = 2.072146 g / cm^3
# Si number density = 20.768735 Si / 1000 Ang^3
#
#
#
# Elastic Constant Matrix: (Units=GPa)
#
#
# Indices 1 2 3 4 5 6 
#
# 1 122.0544 25.0552 6.0511 0.0000 0.0000 0.0000
# 2 25.0552 67.2960 -0.1962 0.0000 0.0000 0.0000
# 3 6.0511 -0.1962 43.7277 0.0000 0.0000 0.0000
# 4 0.0000 0.0000 0.0000 -134.9181 0.0000 0.0000
# 5 0.0000 0.0000 0.0000 0.0000 16.8207 0.0000
# 6 0.0000 0.0000 0.0000 0.0000 0.0000 25.7411
#
#
#
# Elastic Compliance Matrix: (Units=1/GPa)
#
#
# Indices 1 2 3 4 5 6 
#
# 1 0.008939 -0.003332 -0.001252 0.000000 0.000000 0.000000
# 2 -0.003332 0.016102 0.000533 0.000000 0.000000 0.000000
# 3 -0.001252 0.000533 0.023044 0.000000 0.000000 0.000000
# 4 0.000000 0.000000 0.000000 -0.007412 0.000000 0.000000
# 5 0.000000 0.000000 0.000000 0.000000 0.059451 0.000000
# 6 0.000000 0.000000 0.000000 0.000000 0.000000 0.038848
#
#
# Mechanical properties :
#
#
# Convention : Reuss Voigt Hill
#
# Bulk Modulus (GPa) = 25.00976 32.76648 28.88812
# Shear Modulus (GPa) = 31.17180 -4.99340 13.08920
#
# Velocity S-wave (km/s) = 3.87835 -1.55226 2.51317
# Velocity P-wave (km/s) = 5.66777 3.54942 4.72874
#
# Compressibility (1/GPa) = 0.03998439
#
# Stress axis : x y z
#
# Youngs Moduli (GPa) = 111.86828 62.10505 43.39442
#
# Poissons Ratio (x) = 0.20692 0.05433
# Poissons Ratio (y) = 0.37272 -0.02314
# Poissons Ratio (z) = 0.14005 -0.03312
#
# Static dielectric constant tensor:
#      x y z
#    x 2.550490 0.000000 0.000000 
#    y 0.000000 1.755430 0.000000 
#    z 0.000000 0.000000 1.732790 
# 
# From -- ./inp_files/43539.got.cif
#   From: 2010.05.17/outbox.cif.g08.bks.cpg/sg22_22_cif.got.tgz:43539.got - 2010.06.03 23:40:54.
