data_PCOD9329880
_publ_section_title
;
Structure prediction by ZEFSAII (Michael W. Deem and Ramdas Pophale) SiO2 
 PCOD9329880
Probable space group: I 2 2 2
;
_chemical_formula_sum "Si O2"
_cell_formula_units_Z 58
_cell_length_a 26.566710
_cell_length_b 7.047747
_cell_length_c 14.580923
_cell_angle_alpha 90.000000
_cell_angle_beta 90.000000
_cell_angle_gamma 90.000000
_cell_volume 2730.065690
_symmetry_space_group_name_H-M "I 2 2 2"
_symmetry_group_IT_number 23
_symmetry_cell_setting 'orthorhombic'
loop_
_space_group_symop_operation_xyz
x,y,z
-x,-y,z
x,-y,-z
-x,y,-z
1/2+x,1/2+y,1/2+z
1/2-x,1/2-y,1/2+z
1/2+x,1/2-y,1/2-z
1/2-x,1/2+y,1/2-z
loop_
_atom_site_type_symbol
_atom_site_label
_atom_site_fract_x
_atom_site_fract_y
_atom_site_fract_z
Si Si1 0.647059 0.722740 0.024268
Si Si2 0.806408 0.218101 0.169766
Si Si3 0.399317 0.230027 0.226718
Si Si4 0.764016 0.272865 0.978208
Si Si5 0.293497 0.160431 0.718157
Si Si6 0.500000 0.500000 0.000000
Si Si7 0.499346 0.228562 0.156563
Si Si8 0.888865 0.308373 0.671379
O O1 0.624152 0.738780 0.125232
O O2 0.705470 0.782184 0.026638
O O3 0.644290 0.500000 0.000000
O O4 0.621407 0.827227 0.937624
O O5 0.862228 0.166427 0.203208
O O6 0.760214 0.146933 0.231574
O O7 0.805931 0.444301 0.191442
O O8 0.792642 0.185264 0.064466
O O9 0.458305 0.273476 0.233559
O O10 0.398688 0.001055 0.227247
O O11 0.787959 0.236659 0.879161
O O12 0.764083 0.500000 0.000000
O O13 0.335603 0.254242 0.784180
O O14 0.477576 0.346504 0.070296
O O15 0.556736 0.292480 0.174745
O O16 0.500000 0.000000 0.137986
#
# Coordination Sequence:
#
# PCOD9329880 Si02
#       8
#     8   8   8   8   8   2   8   8
#     4  11  20  29  49  75 106 136 170 216 260 314
#     4  10  19  34  53  76 103 140 176 220 275 326
#     4  10  21  35  52  72 107 147 178 219 273 322
#     4   9  18  32  49  76 107 133 170 223 268 314
#     4  10  19  34  53  76 103 140 176 220 275 326
#     4  12  22  36  60  86 108 154 194 220 300 336
#     4  10  23  39  51  79 117 149 191 237 270 338
#     4  10  21  35  52  72 107 147 178 219 273 322
#
# _framework density 21.244907999999999
#
# number of rings (size 3 to 8) (size 9 to 14) (size 15 to 20)
#    0.000    1.931    2.759    1.448    3.862    2.207 
#    0.000    0.690    0.000    0.828    0.000    5.793 
#    0.000    1.103    0.000    0.138    0.000    0.000 
#
# Total GULP energy -161727.370259 kJ/mol
# GULP energy per Si atom -5576.805871 kJ/mol
# Density = 2.119655 g / cm^3
# Si number density = 21.244908 Si / 1000 Ang^3
#
#
#
# Elastic Constant Matrix: (Units=GPa)
#
#
# Indices 1 2 3 4 5 6 
#
# 1 168.3348 -13.1657 56.2860 0.0000 0.0000 0.0000
# 2 -13.1657 63.8019 -15.0035 0.0000 0.0000 0.0000
# 3 56.2860 -15.0035 101.2332 0.0000 0.0000 0.0000
# 4 0.0000 0.0000 0.0000 14.5107 0.0000 0.0000
# 5 0.0000 0.0000 0.0000 0.0000 9.7181 0.0000
# 6 0.0000 0.0000 0.0000 0.0000 0.0000 10.0388
#
#
#
# Elastic Compliance Matrix: (Units=1/GPa)
#
#
# Indices 1 2 3 4 5 6 
#
# 1 0.007317 0.000573 -0.003984 0.000000 0.000000 0.000000
# 2 0.000573 0.016284 0.002095 0.000000 0.000000 0.000000
# 3 -0.003984 0.002095 0.012403 0.000000 0.000000 0.000000
# 4 0.000000 0.000000 0.000000 0.068915 0.000000 0.000000
# 5 0.000000 0.000000 0.000000 0.000000 0.102901 0.000000
# 6 0.000000 0.000000 0.000000 0.000000 0.000000 0.099613
#
#
# Mechanical properties :
#
#
# Convention : Reuss Voigt Hill
#
# Bulk Modulus (GPa) = 29.96333 43.28928 36.62631
# Shear Modulus (GPa) = 15.56712 27.20373 21.38542
#
# Velocity S-wave (km/s) = 2.70986 3.58226 3.17616
# Velocity P-wave (km/s) = 4.89137 6.12623 5.54330
#
# Compressibility (1/GPa) = 0.03337412
#
# Stress axis : x y z
#
# Youngs Moduli (GPa) = 136.66170 61.40852 80.62243
#
# Poissons Ratio (x) = -0.03520 0.32116
# Poissons Ratio (y) = -0.07833 -0.16889
# Poissons Ratio (z) = 0.54439 -0.12864
#
# Static dielectric constant tensor:
#      x y z
#    x 1.847090 0.000000 0.000000 
#    y 0.000000 1.944190 0.000000 
#    z 0.000000 0.000000 1.741510 
# 
# From -- ./inp_files/22583.got.cif
#   From: 2010.05.17/outbox.cif.g08.bks.cpg/sg23_12_cif.got.tgz:22583.got - 2010.06.04 12:02:01.
