data_PCOD9329656
_publ_section_title
;
Structure prediction by ZEFSAII (Michael W. Deem and Ramdas Pophale) SiO2 
 PCOD9329656
Probable space group: I 2 2 2
;
_chemical_formula_sum "Si O2"
_cell_formula_units_Z 52
_cell_length_a 5.054799
_cell_length_b 12.692800
_cell_length_c 33.526366
_cell_angle_alpha 90.000000
_cell_angle_beta 90.000000
_cell_angle_gamma 90.000000
_cell_volume 2151.036648
_symmetry_space_group_name_H-M "I 2 2 2"
_symmetry_group_IT_number 23
_symmetry_cell_setting 'orthorhombic'
loop_
_space_group_symop_operation_xyz
x,y,z
-x,-y,z
x,-y,-z
-x,y,-z
1/2+x,1/2+y,1/2+z
1/2-x,1/2-y,1/2+z
1/2+x,1/2-y,1/2-z
1/2-x,1/2+y,1/2-z
loop_
_atom_site_type_symbol
_atom_site_label
_atom_site_fract_x
_atom_site_fract_y
_atom_site_fract_z
Si Si1 0.000000 0.500000 0.085006
Si Si2 0.165418 0.821890 0.205034
Si Si3 0.000000 0.855667 0.000000
Si Si4 0.730671 0.703366 0.936041
Si Si5 0.844093 0.823618 0.706571
Si Si6 0.857913 0.866454 0.881259
Si Si7 0.500000 0.500000 0.856186
Si Si8 0.361079 0.871713 0.931208
O O1 0.866881 0.408126 0.058270
O O2 0.750958 0.515600 0.114649
O O3 0.129876 0.871253 0.248757
O O4 0.457258 0.774161 0.206043
O O5 0.361763 0.909762 0.087703
O O6 0.160446 0.889822 0.164867
O O7 0.223260 0.910051 0.971995
O O8 0.851360 0.781643 0.968746
O O9 0.425308 0.744314 0.937151
O O10 0.814370 0.741688 0.891361
O O11 0.553444 0.772187 0.700528
O O12 0.954722 0.902384 0.673657
O O13 0.147064 0.888034 0.897073
#
# Coordination Sequence:
#
# PCOD9329656 Si02
#       8
#     4   8   4   8   8   8   4   8
#     4  12  26  33  52  64  94 126 176 208 266 301
#     4  10  19  34  53  74  94 124 167 209 250 314
#     4  10  18  35  48  64  90 124 156 213 246 306
#     4   9  21  32  47  66  84 124 158 207 249 295
#     4  10  21  33  52  73  97 128 160 205 265 314
#     4   9  17  29  47  67  86 112 148 206 238 292
#     4  12  24  38  50  75 102 132 160 225 270 318
#     4   9  19  29  49  66  87 114 155 197 254 289
#
# _framework density 24.174391
#
# number of rings (size 3 to 8) (size 9 to 14) (size 15 to 20)
#    0.923    1.231    0.000    4.154    6.462    0.308 
#    0.000    0.000    0.000    0.000    0.000    0.000 
#    0.000    0.000    0.000    0.000    0.000   12.308 
#
# Total GULP energy -144738.986831 kJ/mol
# GULP energy per Si atom -5566.884109 kJ/mol
# Density = 2.411937 g / cm^3
# Si number density = 24.174391 Si / 1000 Ang^3
#
#
#
# Elastic Constant Matrix: (Units=GPa)
#
#
# Indices 1 2 3 4 5 6 
#
# 1 135.7477 7.1936 51.5330 0.0000 0.0000 0.0000
# 2 7.1936 45.2591 17.5771 0.0000 0.0000 0.0000
# 3 51.5330 17.5771 167.9282 0.0000 0.0000 0.0000
# 4 0.0000 0.0000 0.0000 34.9437 0.0000 0.0000
# 5 0.0000 0.0000 0.0000 0.0000 35.4994 0.0000
# 6 0.0000 0.0000 0.0000 0.0000 0.0000 21.4472
#
#
#
# Elastic Compliance Matrix: (Units=1/GPa)
#
#
# Indices 1 2 3 4 5 6 
#
# 1 0.008343 -0.000346 -0.002524 0.000000 0.000000 0.000000
# 2 -0.000346 0.023046 -0.002306 0.000000 0.000000 0.000000
# 3 -0.002524 -0.002306 0.006971 0.000000 0.000000 0.000000
# 4 0.000000 0.000000 0.000000 0.028617 0.000000 0.000000
# 5 0.000000 0.000000 0.000000 0.000000 0.028169 0.000000
# 6 0.000000 0.000000 0.000000 0.000000 0.000000 0.046626
#
#
# Mechanical properties :
#
#
# Convention : Reuss Voigt Hill
#
# Bulk Modulus (GPa) = 35.70458 55.72695 45.71576
# Shear Modulus (GPa) = 30.96735 36.55349 33.76042
#
# Velocity S-wave (km/s) = 3.58299 3.89276 3.74108
# Velocity P-wave (km/s) = 5.64966 6.58080 6.13293
#
# Compressibility (1/GPa) = 0.02800762
#
# Stress axis : x y z
#
# Youngs Moduli (GPa) = 119.85893 43.39234 143.45369
#
# Poissons Ratio (x) = 0.01501 0.36209
# Poissons Ratio (y) = 0.04145 0.33081
# Poissons Ratio (z) = 0.30254 0.10007
#
# Static dielectric constant tensor:
#      x y z
#    x 1.899780 0.000000 0.000000 
#    y 0.000000 2.107740 0.000000 
#    z 0.000000 0.000000 1.919270 
# 
# From -- ./inp_files/29005.got.cif
#   From: 2010.05.17/outbox.cif.g08.bks.cpg/sg23_15_cif.got.tgz:29005.got - 2010.06.04 12:02:01.
