data_PCOD9329803
_publ_section_title
;
Structure prediction by ZEFSAII (Michael W. Deem and Ramdas Pophale) SiO2 
 PCOD9329803
Probable space group: I 2 2 2
;
_chemical_formula_sum "Si O2"
_cell_formula_units_Z 56
_cell_length_a 8.649071
_cell_length_b 19.084467
_cell_length_c 19.257330
_cell_angle_alpha 90.000000
_cell_angle_beta 90.000000
_cell_angle_gamma 90.000000
_cell_volume 3178.670930
_symmetry_space_group_name_H-M "I 2 2 2"
_symmetry_group_IT_number 23
_symmetry_cell_setting 'orthorhombic'
loop_
_space_group_symop_operation_xyz
x,y,z
-x,-y,z
x,-y,-z
-x,y,-z
1/2+x,1/2+y,1/2+z
1/2-x,1/2-y,1/2+z
1/2+x,1/2-y,1/2-z
1/2-x,1/2+y,1/2-z
loop_
_atom_site_type_symbol
_atom_site_label
_atom_site_fract_x
_atom_site_fract_y
_atom_site_fract_z
Si Si1 0.668693 0.150494 0.760659
Si Si2 0.181811 0.226205 0.480690
Si Si3 0.817027 0.759412 0.126213
Si Si4 0.678170 0.722219 0.342462
Si Si5 0.671799 0.481790 0.197473
Si Si6 0.809815 0.630535 0.226790
Si Si7 0.831842 0.933804 0.462247
O O1 0.715656 0.182355 0.834438
O O2 0.717779 0.210334 0.705371
O O3 0.754927 0.079177 0.743090
O O4 0.487215 0.138754 0.749738
O O5 0.275444 0.254480 0.546188
O O6 0.220569 0.269729 0.411602
O O7 0.231820 0.144795 0.468843
O O8 0.000000 0.227939 0.500000
O O9 0.779805 0.685297 0.164173
O O10 0.997748 0.774082 0.138520
O O11 0.711409 0.656085 0.293195
O O12 0.500000 0.500000 0.221418
O O13 0.770097 0.552826 0.202291
O O14 0.658598 0.453768 0.118453
O O15 0.000000 0.929608 0.500000
O O16 0.750445 0.000000 0.500000
#
# Coordination Sequence:
#
# PCOD9329803 Si02
#       7
#     8   8   8   8   8   8   8
#     4  10  21  38  55  81 113 149 196 244 290 344
#     4  11  21  33  57  82 116 154 191 236 292 343
#     4  10  21  36  58  81 112 149 196 244 292 340
#     4  10  20  38  56  82 111 149 198 244 287 345
#     4  12  21  34  58  82 116 154 194 234 284 342
#     4  10  22  36  57  80 114 151 195 244 294 339
#     4  10  19  32  49  80 117 155 190 222 273 347
#
# _framework density 17.617425999999998
#
# number of rings (size 3 to 8) (size 9 to 14) (size 15 to 20)
#    0.000    1.571    2.857    3.429    2.000    2.286 
#    0.000    0.000    0.000    0.857    0.000    6.000 
#    0.000    0.000    0.000    0.000    0.000    0.000 
#
# Total GULP energy -156323.333060 kJ/mol
# GULP energy per Si atom -5582.976181 kJ/mol
# Density = 1.757733 g / cm^3
# Si number density = 17.617426 Si / 1000 Ang^3
#
#
#
# Elastic Constant Matrix: (Units=GPa)
#
#
# Indices 1 2 3 4 5 6 
#
# 1 32.0662 14.8460 18.9390 0.0000 0.0000 0.0000
# 2 14.8460 78.8335 33.2571 0.0000 0.0000 0.0000
# 3 18.9390 33.2571 101.4797 0.0000 0.0000 0.0000
# 4 0.0000 0.0000 0.0000 21.8523 0.0000 0.0000
# 5 0.0000 0.0000 0.0000 0.0000 26.8266 0.0000
# 6 0.0000 0.0000 0.0000 0.0000 0.0000 22.8080
#
#
#
# Elastic Compliance Matrix: (Units=1/GPa)
#
#
# Indices 1 2 3 4 5 6 
#
# 1 0.036453 -0.004636 -0.005284 0.000000 0.000000 0.000000
# 2 -0.004636 0.015310 -0.004152 0.000000 0.000000 0.000000
# 3 -0.005284 -0.004152 0.012201 0.000000 0.000000 0.000000
# 4 0.000000 0.000000 0.000000 0.045762 0.000000 0.000000
# 5 0.000000 0.000000 0.000000 0.000000 0.037276 0.000000
# 6 0.000000 0.000000 0.000000 0.000000 0.000000 0.043844
#
#
# Mechanical properties :
#
#
# Convention : Reuss Voigt Hill
#
# Bulk Modulus (GPa) = 27.91755 38.49596 33.20675
# Shear Modulus (GPa) = 21.65167 23.98652 22.81910
#
# Velocity S-wave (km/s) = 3.50950 3.69388 3.60287
# Velocity P-wave (km/s) = 5.68358 6.33179 6.01642
#
# Compressibility (1/GPa) = 0.03581977
#
# Stress axis : x y z
#
# Youngs Moduli (GPa) = 27.43295 65.31843 81.96017
#
# Poissons Ratio (x) = 0.30280 0.43306
# Poissons Ratio (y) = 0.12717 0.34031
# Poissons Ratio (z) = 0.14495 0.27121
#
# Static dielectric constant tensor:
#      x y z
#    x 1.612630 0.000000 0.000000 
#    y 0.000000 1.599400 0.000000 
#    z 0.000000 0.000000 1.580430 
# 
# From -- ./inp_files/26324.got.cif
#   From: 2010.05.17/outbox.cif.g08.bks.cpg/sg23_14_cif.got.tgz:26324.got - 2010.06.04 12:02:01.
