data_PCOD9329716
_publ_section_title
;
Structure prediction by ZEFSAII (Michael W. Deem and Ramdas Pophale) SiO2 
 PCOD9329716
Probable space group: I 2 2 2
;
_chemical_formula_sum "Si O2"
_cell_formula_units_Z 46
_cell_length_a 22.367846
_cell_length_b 9.089067
_cell_length_c 10.278881
_cell_angle_alpha 90.000000
_cell_angle_beta 90.000000
_cell_angle_gamma 90.000000
_cell_volume 2089.725812
_symmetry_space_group_name_H-M "I 2 2 2"
_symmetry_group_IT_number 23
_symmetry_cell_setting 'orthorhombic'
loop_
_space_group_symop_operation_xyz
x,y,z
-x,-y,z
x,-y,-z
-x,y,-z
1/2+x,1/2+y,1/2+z
1/2-x,1/2-y,1/2+z
1/2+x,1/2-y,1/2-z
1/2-x,1/2+y,1/2-z
loop_
_atom_site_type_symbol
_atom_site_label
_atom_site_fract_x
_atom_site_fract_y
_atom_site_fract_z
Si Si1 0.356072 0.621854 0.397902
Si Si2 0.813518 0.320617 0.128650
Si Si3 0.500000 0.000000 0.500000
Si Si4 0.048515 0.318191 0.233129
Si Si5 0.747910 0.946812 0.770863
Si Si6 0.846211 0.500000 0.500000
Si Si7 0.079014 0.639890 0.316553
O O1 0.381949 0.500000 0.500000
O O2 0.324006 0.743275 0.490450
O O3 0.403827 0.693753 0.299839
O O4 0.305462 0.538632 0.317067
O O5 0.772675 0.217751 0.222273
O O6 0.782420 0.479008 0.145553
O O7 0.878472 0.324577 0.196042
O O8 0.536517 0.892975 0.592722
O O9 0.068475 0.462944 0.311711
O O10 0.984150 0.279797 0.296745
O O11 0.697203 0.958354 0.881421
O O12 0.883455 0.356851 0.449107
#
# Coordination Sequence:
#
# PCOD9329716 Si02
#       7
#     8   8   2   8   8   4   8
#     4  10  20  35  55  84 125 154 196 252 311 373
#     4  10  20  37  54  85 117 162 191 252 300 367
#     4   8  16  32  46  74 116 128 192 242 276 356
#     4  10  19  34  54  88 109 154 197 244 297 357
#     4  10  21  36  57  84 124 155 204 242 313 371
#     4  10  18  39  56  84 117 158 196 252 296 354
#     4   9  21  35  60  81 120 150 204 254 287 373
#
# _framework density 22.012457000000001
#
# number of rings (size 3 to 8) (size 9 to 14) (size 15 to 20)
#    0.000    2.435    2.609    2.087    4.870    1.391 
#    0.000   10.000    0.000    0.000    0.000    0.000 
#   41.739    0.000    0.000    0.000    0.000    0.000 
#
# Total GULP energy -128226.884062 kJ/mol
# GULP energy per Si atom -5575.081916 kJ/mol
# Density = 2.196236 g / cm^3
# Si number density = 22.012457 Si / 1000 Ang^3
#
#
#
# Elastic Constant Matrix: (Units=GPa)
#
#
# Indices 1 2 3 4 5 6 
#
# 1 106.5562 36.9462 13.8126 0.0000 0.0000 0.0000
# 2 36.9462 74.4201 8.1535 0.0000 0.0000 0.0000
# 3 13.8126 8.1535 41.1807 0.0000 0.0000 0.0000
# 4 0.0000 0.0000 0.0000 26.9765 0.0000 0.0000
# 5 0.0000 0.0000 0.0000 0.0000 119.9229 0.0000
# 6 0.0000 0.0000 0.0000 0.0000 0.0000 19.1778
#
#
#
# Elastic Compliance Matrix: (Units=1/GPa)
#
#
# Indices 1 2 3 4 5 6 
#
# 1 0.011649 -0.005474 -0.002823 0.000000 0.000000 0.000000
# 2 -0.005474 0.016307 -0.001393 0.000000 0.000000 0.000000
# 3 -0.002823 -0.001393 0.025506 0.000000 0.000000 0.000000
# 4 0.000000 0.000000 0.000000 0.037069 0.000000 0.000000
# 5 0.000000 0.000000 0.000000 0.000000 0.008339 0.000000
# 6 0.000000 0.000000 0.000000 0.000000 0.000000 0.052144
#
#
# Mechanical properties :
#
#
# Convention : Reuss Voigt Hill
#
# Bulk Modulus (GPa) = 29.34082 37.77572 33.55827
# Shear Modulus (GPa) = 27.50972 44.09840 35.80406
#
# Velocity S-wave (km/s) = 3.53899 4.48072 4.03741
# Velocity P-wave (km/s) = 5.48247 6.63080 6.08379
#
# Compressibility (1/GPa) = 0.03408221
#
# Stress axis : x y z
#
# Youngs Moduli (GPa) = 85.84737 61.32244 39.20649
#
# Poissons Ratio (x) = 0.33566 0.11069
# Poissons Ratio (y) = 0.46990 0.05461
# Poissons Ratio (z) = 0.24238 0.08541
#
# Static dielectric constant tensor:
#      x y z
#    x 1.897660 0.000000 0.000000 
#    y 0.000000 1.831200 0.000000 
#    z 0.000000 0.000000 1.901560 
# 
# From -- ./inp_files/18322.got.cif
#   From: 2010.05.17/outbox.cif.g08.bks.cpg/sg23_10_cif.got.tgz:18322.got - 2010.06.04 12:02:01.
