data_PCOD9329381
_publ_section_title
;
Structure prediction by ZEFSAII (Michael W. Deem and Ramdas Pophale) SiO2 
 PCOD9329381
Probable space group: I 2 2 2
;
_chemical_formula_sum "Si O2"
_cell_formula_units_Z 48
_cell_length_a 7.963898
_cell_length_b 9.030763
_cell_length_c 31.522411
_cell_angle_alpha 90.000000
_cell_angle_beta 90.000000
_cell_angle_gamma 90.000000
_cell_volume 2267.094176
_symmetry_space_group_name_H-M "I 2 2 2"
_symmetry_group_IT_number 23
_symmetry_cell_setting 'orthorhombic'
loop_
_space_group_symop_operation_xyz
x,y,z
-x,-y,z
x,-y,-z
-x,y,-z
1/2+x,1/2+y,1/2+z
1/2-x,1/2-y,1/2+z
1/2+x,1/2-y,1/2-z
1/2-x,1/2+y,1/2-z
loop_
_atom_site_type_symbol
_atom_site_label
_atom_site_fract_x
_atom_site_fract_y
_atom_site_fract_z
Si Si1 0.500000 0.500000 0.000000
Si Si2 0.000000 0.500000 0.500000
Si Si3 0.296330 0.534788 0.120518
Si Si4 0.546233 0.836102 0.210796
Si Si5 0.729652 0.786494 0.127342
Si Si6 0.452127 0.247983 0.938963
Si Si7 0.000000 0.000000 0.845250
Si Si8 0.181697 0.279340 0.802409
O O1 0.557510 0.626669 0.034253
O O2 0.098543 0.386156 0.469530
O O3 0.500000 0.500000 0.129385
O O4 0.214737 0.375816 0.112487
O O5 0.306950 0.655573 0.083042
O O6 0.195179 0.607644 0.158896
O O7 0.678573 0.773360 0.177067
O O8 0.375654 0.747498 0.208060
O O9 0.603728 0.838349 0.259115
O O10 0.500000 0.000000 0.195798
O O11 0.566809 0.816770 0.098632
O O12 0.864706 0.914791 0.126333
O O13 0.908446 0.873270 0.817026
#
# Coordination Sequence:
#
# PCOD9329381 Si02
#       8
#     2   2   8   8   8   8   4   8
#     4  10  16  38  66 118 126 158 220 288 346 434
#     4  10  24  30  76 112 140 162 220 296 352 438
#     4  10  21  42  70  92 135 177 220 284 354 403
#     4  12  26  41  65  90 134 182 232 296 346 394
#     4  11  23  43  66  96 136 182 226 285 345 410
#     4  10  20  39  66 109 139 168 218 286 355 412
#     4  12  28  42  63  95 132 192 236 274 342 412
#     4  12  27  43  64  95 133 178 240 293 338 407
#
# _framework density 21.172478999999999
#
# number of rings (size 3 to 8) (size 9 to 14) (size 15 to 20)
#    0.000    1.000    7.500    1.000    8.167    0.000 
#    1.500    0.000    0.000    0.500    0.000    1.167 
#    0.000    0.000    0.000    0.000    0.000    0.000 
#
# Total GULP energy -133742.576048 kJ/mol
# GULP energy per Si atom -5572.607335 kJ/mol
# Density = 2.112429 g / cm^3
# Si number density = 21.172479 Si / 1000 Ang^3
#
#
#
# Elastic Constant Matrix: (Units=GPa)
#
#
# Indices 1 2 3 4 5 6 
#
# 1 33.6147 20.3325 6.8452 0.0000 0.0000 0.0000
# 2 20.3325 108.7453 51.2529 0.0000 0.0000 0.0000
# 3 6.8452 51.2529 112.2077 0.0000 0.0000 0.0000
# 4 0.0000 0.0000 0.0000 44.7824 0.0000 0.0000
# 5 0.0000 0.0000 0.0000 0.0000 1.8320 0.0000
# 6 0.0000 0.0000 0.0000 0.0000 0.0000 30.6375
#
#
#
# Elastic Compliance Matrix: (Units=1/GPa)
#
#
# Indices 1 2 3 4 5 6 
#
# 1 0.033638 -0.006782 0.001046 0.000000 0.000000 0.000000
# 2 -0.006782 0.013086 -0.005564 0.000000 0.000000 0.000000
# 3 0.001046 -0.005564 0.011390 0.000000 0.000000 0.000000
# 4 0.000000 0.000000 0.000000 0.022330 0.000000 0.000000
# 5 0.000000 0.000000 0.000000 0.000000 0.545855 0.000000
# 6 0.000000 0.000000 0.000000 0.000000 0.000000 0.032640
#
#
# Mechanical properties :
#
#
# Convention : Reuss Voigt Hill
#
# Bulk Modulus (GPa) = 28.15802 45.71430 36.93616
# Shear Modulus (GPa) = 7.21108 27.19285 17.20197
#
# Velocity S-wave (km/s) = 1.84750 3.58767 2.85348
# Velocity P-wave (km/s) = 4.22839 6.22897 5.32350
#
# Compressibility (1/GPa) = 0.03551386
#
# Stress axis : x y z
#
# Youngs Moduli (GPa) = 29.72790 76.41691 87.80015
#
# Poissons Ratio (x) = 0.51829 -0.09183
# Poissons Ratio (y) = 0.20163 0.48848
# Poissons Ratio (z) = -0.03109 0.42515
#
# Static dielectric constant tensor:
#      x y z
#    x 1.744520 0.000000 0.000000 
#    y 0.000000 1.843470 0.000000 
#    z 0.000000 0.000000 1.839210 
# 
# From -- ./inp_files/30272.got.cif
#   From: 2010.05.17/outbox.cif.g08.bks.cpg/sg23_16_cif.got.tgz:30272.got - 2010.06.04 12:02:01.
