data_PCOD9329170
_publ_section_title
;
Structure prediction by ZEFSAII (Michael W. Deem and Ramdas Pophale) SiO2 
 PCOD9329170
Probable space group: F 2 2 2
;
_chemical_formula_sum "Si O2"
_cell_formula_units_Z 64
_cell_length_a 16.698217
_cell_length_b 16.250624
_cell_length_c 9.057684
_cell_angle_alpha 90.000000
_cell_angle_beta 90.000000
_cell_angle_gamma 90.000000
_cell_volume 2457.860939
_symmetry_space_group_name_H-M "F 2 2 2"
_symmetry_group_IT_number 22
_symmetry_cell_setting 'orthorhombic'
loop_
_space_group_symop_operation_xyz
x,y,z
-x,-y,z
x,-y,-z
-x,y,-z
x,1/2+y,1/2+z
-x,1/2-y,1/2+z
x,1/2-y,1/2-z
-x,1/2+y,1/2-z
1/2+x,y,1/2+z
1/2-x,-y,1/2+z
1/2+x,-y,1/2-z
1/2-x,y,1/2-z
1/2+x,1/2+y,z
1/2-x,1/2-y,z
1/2+x,1/2-y,-z
1/2-x,1/2+y,-z
loop_
_atom_site_type_symbol
_atom_site_label
_atom_site_fract_x
_atom_site_fract_y
_atom_site_fract_z
Si Si1 0.388731 0.342940 0.112500
Si Si2 0.250000 0.945280 0.750000
Si Si3 0.562519 0.655285 0.777065
Si Si4 0.250000 0.250000 0.004172
Si Si5 0.193538 0.071461 0.593564
O O1 0.325773 0.408081 0.167258
O O2 0.466047 0.342764 0.216641
O O3 0.414370 0.365256 0.945535
O O4 0.332602 0.262312 0.095140
O O5 0.196767 0.956913 0.585886
O O6 0.588506 0.750000 0.750000
O O7 0.606197 0.595313 0.661903
O O8 0.234816 0.336111 0.924136
O O9 0.250000 0.047603 0.750000
#
# Coordination Sequence:
#
# PCOD9329170 Si02
#       5
#    16   8  16   8  16
#     4  11  27  50  79 118 162 219 273 337 412 481
#     4  12  28  48  78 124 162 210 274 342 410 478
#     4  11  26  50  83 116 163 220 271 335 420 497
#     4  12  24  52  82 114 162 211 277 332 402 488
#     4  12  27  49  84 122 162 213 279 336 408 489
#
# _framework density 26.038903000000001
#
# number of rings (size 3 to 8) (size 9 to 14) (size 15 to 20)
#    0.000    0.500    5.000    1.500    3.500    2.000 
#    0.000    8.750    0.000    0.000    0.000    0.000 
#    0.000    0.000    0.000    0.000    0.000    0.000 
#
# Total GULP energy -89311.841867 kJ/mol
# GULP energy per Si atom -5581.990117 kJ/mol
# Density = 2.597964 g / cm^3
# Si number density = 26.038903 Si / 1000 Ang^3
#
#
#
# Elastic Constant Matrix: (Units=GPa)
#
#
# Indices 1 2 3 4 5 6 
#
# 1 240.0694 82.6265 88.5280 0.0000 0.0000 0.0000
# 2 82.6265 199.5469 104.0682 0.0000 0.0000 0.0000
# 3 88.5280 104.0682 193.1806 0.0000 0.0000 0.0000
# 4 0.0000 0.0000 0.0000 40.0211 0.0000 0.0000
# 5 0.0000 0.0000 0.0000 0.0000 55.0431 0.0000
# 6 0.0000 0.0000 0.0000 0.0000 0.0000 35.1704
#
#
#
# Elastic Compliance Matrix: (Units=1/GPa)
#
#
# Indices 1 2 3 4 5 6 
#
# 1 0.005236 -0.001275 -0.001713 0.000000 0.000000 0.000000
# 2 -0.001275 0.007280 -0.003337 0.000000 0.000000 0.000000
# 3 -0.001713 -0.003337 0.007759 0.000000 0.000000 0.000000
# 4 0.000000 0.000000 0.000000 0.024987 0.000000 0.000000
# 5 0.000000 0.000000 0.000000 0.000000 0.018168 0.000000
# 6 0.000000 0.000000 0.000000 0.000000 0.000000 0.028433
#
#
# Mechanical properties :
#
#
# Convention : Reuss Voigt Hill
#
# Bulk Modulus (GPa) = 131.14762 131.47138 131.30950
# Shear Modulus (GPa) = 46.70553 49.88522 48.29537
#
# Velocity S-wave (km/s) = 4.23978 4.38173 4.31134
# Velocity P-wave (km/s) = 8.62804 8.72923 8.67878
#
# Compressibility (1/GPa) = 0.00762500
#
# Stress axis : x y z
#
# Youngs Moduli (GPa) = 190.99393 137.36669 128.87809
#
# Poissons Ratio (x) = 0.17512 0.22072
# Poissons Ratio (y) = 0.24348 0.43013
# Poissons Ratio (z) = 0.32710 0.45846
#
# Static dielectric constant tensor:
#      x y z
#    x 2.046860 0.000000 0.000000 
#    y 0.000000 2.186260 0.000000 
#    z 0.000000 0.000000 2.116250 
# 
# From -- ./inp_files/21036.got.cif
#   From: 2010.05.17/outbox.cif.g08.bks.cpg/sg22_11_cif.got.tgz:21036.got - 2010.06.03 23:40:54.
