data_PCOD9329014
_publ_section_title
;
Structure prediction by ZEFSAII (Michael W. Deem and Ramdas Pophale) SiO2 
 PCOD9329014
Probable space group: F 2 2 2
;
_chemical_formula_sum "Si O2"
_cell_formula_units_Z 64
_cell_length_a 12.255744
_cell_length_b 18.656105
_cell_length_c 12.386955
_cell_angle_alpha 90.000000
_cell_angle_beta 90.000000
_cell_angle_gamma 90.000000
_cell_volume 2832.208475
_symmetry_space_group_name_H-M "F 2 2 2"
_symmetry_group_IT_number 22
_symmetry_cell_setting 'orthorhombic'
loop_
_space_group_symop_operation_xyz
x,y,z
-x,-y,z
x,-y,-z
-x,y,-z
x,1/2+y,1/2+z
-x,1/2-y,1/2+z
x,1/2-y,1/2-z
-x,1/2+y,1/2-z
1/2+x,y,1/2+z
1/2-x,-y,1/2+z
1/2+x,-y,1/2-z
1/2-x,y,1/2-z
1/2+x,1/2+y,z
1/2-x,1/2-y,z
1/2+x,1/2-y,-z
1/2-x,1/2+y,-z
loop_
_atom_site_type_symbol
_atom_site_label
_atom_site_fract_x
_atom_site_fract_y
_atom_site_fract_z
Si Si1 0.322255 0.180698 0.439251
Si Si2 0.894275 0.473246 0.307677
Si Si3 0.058200 0.817005 0.170999
Si Si4 0.186704 0.963618 0.599526
O O1 0.250000 0.250000 0.414692
O O2 0.369143 0.186379 0.561665
O O3 0.431374 0.177874 0.365919
O O4 0.242738 0.112747 0.420194
O O5 0.907809 0.391553 0.273223
O O6 0.881672 0.528423 0.208427
O O7 0.787555 0.482492 0.378015
O O8 0.000000 0.500000 0.370913
O O9 0.074297 0.750000 0.250000
O O10 0.126486 0.000000 0.500000
#
# Coordination Sequence:
#
# PCOD9329014 Si02
#       4
#    16  16  16  16
#     4  11  26  45  70 103 142 185 232 291 351 415
#     4  11  24  43  70 101 135 182 232 287 346 415
#     4  11  26  45  70 103 142 185 232 291 351 415
#     4  11  24  43  70 101 135 182 232 287 346 415
#
# _framework density 22.597207000000001
#
# number of rings (size 3 to 8) (size 9 to 14) (size 15 to 20)
#    0.000    1.000    5.000    0.000    7.000    2.000 
#    0.000    0.000    0.000    0.000    0.000    0.000 
#    0.000    0.000    0.000    0.000    0.000    0.000 
#
# Total GULP energy -89437.125367 kJ/mol
# GULP energy per Si atom -5589.820335 kJ/mol
# Density = 2.254578 g / cm^3
# Si number density = 22.597207 Si / 1000 Ang^3
#
#
#
# Elastic Constant Matrix: (Units=GPa)
#
#
# Indices 1 2 3 4 5 6 
#
# 1 99.0321 48.6767 19.1672 0.0000 0.0000 0.0000
# 2 48.6767 215.5069 53.4882 0.0000 0.0000 0.0000
# 3 19.1672 53.4882 108.9450 0.0000 0.0000 0.0000
# 4 0.0000 0.0000 0.0000 32.8329 0.0000 0.0000
# 5 0.0000 0.0000 0.0000 0.0000 4.9610 0.0000
# 6 0.0000 0.0000 0.0000 0.0000 0.0000 35.0587
#
#
#
# Elastic Compliance Matrix: (Units=1/GPa)
#
#
# Indices 1 2 3 4 5 6 
#
# 1 0.011427 -0.002371 -0.000846 0.000000 0.000000 0.000000
# 2 -0.002371 0.005776 -0.002419 0.000000 0.000000 0.000000
# 3 -0.000846 -0.002419 0.010515 0.000000 0.000000 0.000000
# 4 0.000000 0.000000 0.000000 0.030457 0.000000 0.000000
# 5 0.000000 0.000000 0.000000 0.000000 0.201574 0.000000
# 6 0.000000 0.000000 0.000000 0.000000 0.000000 0.028524
#
#
# Mechanical properties :
#
#
# Convention : Reuss Voigt Hill
#
# Bulk Modulus (GPa) = 60.80385 74.01648 67.41016
# Shear Modulus (GPa) = 16.39197 34.71396 25.55297
#
# Velocity S-wave (km/s) = 2.69624 3.92370 3.36639
# Velocity P-wave (km/s) = 6.05467 7.30432 6.70865
#
# Compressibility (1/GPa) = 0.01644633
#
# Stress axis : x y z
#
# Youngs Moduli (GPa) = 87.51265 173.12811 95.09908
#
# Poissons Ratio (x) = 0.41048 0.08049
# Poissons Ratio (y) = 0.20749 0.23002
# Poissons Ratio (z) = 0.07407 0.41875
#
# Static dielectric constant tensor:
#      x y z
#    x 1.812920 0.000000 0.000000 
#    y 0.000000 1.791300 0.000000 
#    z 0.000000 0.000000 1.872490 
# 
# From -- ./inp_files/19390.got.cif
#   From: 2010.05.17/outbox.cif.g08.bks.cpg/sg22_10_cif.got.tgz:19390.got - 2010.06.03 23:40:54.
