data_PCOD9329911
_publ_section_title
;
Structure prediction by ZEFSAII (Michael W. Deem and Ramdas Pophale) SiO2 
 PCOD9329911
Probable space group: I 2 2 2
;
_chemical_formula_sum "Si O2"
_cell_formula_units_Z 48
_cell_length_a 7.441617
_cell_length_b 11.036579
_cell_length_c 24.757285
_cell_angle_alpha 90.000000
_cell_angle_beta 90.000000
_cell_angle_gamma 90.000000
_cell_volume 2033.315666
_symmetry_space_group_name_H-M "I 2 2 2"
_symmetry_group_IT_number 23
_symmetry_cell_setting 'orthorhombic'
loop_
_space_group_symop_operation_xyz
x,y,z
-x,-y,z
x,-y,-z
-x,y,-z
1/2+x,1/2+y,1/2+z
1/2-x,1/2-y,1/2+z
1/2+x,1/2-y,1/2-z
1/2-x,1/2+y,1/2-z
loop_
_atom_site_type_symbol
_atom_site_label
_atom_site_fract_x
_atom_site_fract_y
_atom_site_fract_z
Si Si1 0.242808 0.387002 0.270402
Si Si2 0.234095 0.244563 0.597424
Si Si3 0.780867 0.491104 0.064084
Si Si4 0.163542 0.651705 0.293952
Si Si5 0.336926 0.742591 0.618187
Si Si6 0.282944 0.366869 0.490173
O O1 0.282841 0.533297 0.275422
O O2 0.295858 0.290740 0.223887
O O3 0.305049 0.316577 0.324287
O O4 0.028713 0.377241 0.269780
O O5 0.151437 0.334465 0.641339
O O6 0.448283 0.252503 0.609663
O O7 0.201057 0.282741 0.535781
O O8 0.194793 0.102340 0.596486
O O9 0.755483 0.371834 0.100520
O O10 0.000000 0.500000 0.061762
O O11 0.727399 0.500000 0.000000
O O12 0.254355 0.660381 0.571663
O O13 0.220432 0.500000 0.500000
O O14 0.500000 0.359286 0.500000
#
# Coordination Sequence:
#
# PCOD9329911 Si02
#       6
#     8   8   8   8   8   8
#     4  11  26  46  66  90 121 159 205 257 313 371
#     4  10  19  34  59  89 124 160 200 250 299 355
#     4   9  16  30  55  91 127 161 201 244 293 352
#     4  11  26  46  66  90 121 159 205 257 313 371
#     4  10  19  34  59  89 124 160 200 250 299 355
#     4   9  16  27  50  84 117 155 200 242 291 354
#
# _framework density 23.606762
#
# number of rings (size 3 to 8) (size 9 to 14) (size 15 to 20)
#    0.000    2.000    1.667    2.000    2.333    4.000 
#    0.000    0.833    0.000    4.000    0.000    0.000 
#    0.000    0.000    0.000    0.000    0.000    0.000 
#
# Total GULP energy -133794.521911 kJ/mol
# GULP energy per Si atom -5574.771746 kJ/mol
# Density = 2.355303 g / cm^3
# Si number density = 23.606762 Si / 1000 Ang^3
#
#
#
# Elastic Constant Matrix: (Units=GPa)
#
#
# Indices 1 2 3 4 5 6 
#
# 1 31.5995 -14.4394 -8.8630 0.0000 0.0000 0.0000
# 2 -14.4394 117.7982 14.4772 0.0000 0.0000 0.0000
# 3 -8.8630 14.4772 78.1941 0.0000 0.0000 0.0000
# 4 0.0000 0.0000 0.0000 17.1592 0.0000 0.0000
# 5 0.0000 0.0000 0.0000 0.0000 141.7886 0.0000
# 6 0.0000 0.0000 0.0000 0.0000 0.0000 0.8785
#
#
#
# Elastic Compliance Matrix: (Units=1/GPa)
#
#
# Indices 1 2 3 4 5 6 
#
# 1 0.034279 0.003811 0.003180 0.000000 0.000000 0.000000
# 2 0.003811 0.009110 -0.001255 0.000000 0.000000 0.000000
# 3 0.003180 -0.001255 0.013381 0.000000 0.000000 0.000000
# 4 0.000000 0.000000 0.000000 0.058278 0.000000 0.000000
# 5 0.000000 0.000000 0.000000 0.000000 0.007053 0.000000
# 6 0.000000 0.000000 0.000000 0.000000 0.000000 1.138360
#
#
# Mechanical properties :
#
#
# Convention : Reuss Voigt Hill
#
# Bulk Modulus (GPa) = 14.65337 23.32681 18.99009
# Shear Modulus (GPa) = 3.93163 47.72639 25.82901
#
# Velocity S-wave (km/s) = 1.29193 4.50124 3.31136
# Velocity P-wave (km/s) = 2.90623 6.07600 4.76256
#
# Compressibility (1/GPa) = 0.06824369
#
# Stress axis : x y z
#
# Youngs Moduli (GPa) = 29.17197 109.76393 74.73043
#
# Poissons Ratio (x) = -0.41832 -0.23763
# Poissons Ratio (y) = -0.11118 0.09377
# Poissons Ratio (z) = -0.09276 0.13773
#
# Static dielectric constant tensor:
#      x y z
#    x 1.977140 0.000000 0.000000 
#    y 0.000000 1.909770 0.000000 
#    z 0.000000 0.000000 1.945910 
# 
# From -- ./inp_files/27995.got.cif
#   From: 2010.05.17/outbox.cif.g08.bks.cpg/sg23_14_cif.got.tgz:27995.got - 2010.06.04 12:02:01.
