data_PCOD9329749
_publ_section_title
;
Structure prediction by ZEFSAII (Michael W. Deem and Ramdas Pophale) SiO2 
 PCOD9329749
Probable space group: I 2 2 2
;
_chemical_formula_sum "Si O2"
_cell_formula_units_Z 40
_cell_length_a 14.330232
_cell_length_b 14.009118
_cell_length_c 9.170680
_cell_angle_alpha 90.000000
_cell_angle_beta 90.000000
_cell_angle_gamma 90.000000
_cell_volume 1841.049877
_symmetry_space_group_name_H-M "I 2 2 2"
_symmetry_group_IT_number 23
_symmetry_cell_setting 'orthorhombic'
loop_
_space_group_symop_operation_xyz
x,y,z
-x,-y,z
x,-y,-z
-x,y,-z
1/2+x,1/2+y,1/2+z
1/2-x,1/2-y,1/2+z
1/2+x,1/2-y,1/2-z
1/2-x,1/2+y,1/2-z
loop_
_atom_site_type_symbol
_atom_site_label
_atom_site_fract_x
_atom_site_fract_y
_atom_site_fract_z
Si Si1 0.105218 0.883871 0.188830
Si Si2 0.322327 0.104178 0.320118
Si Si3 0.007646 0.288926 0.175999
Si Si4 0.328595 0.575067 0.392221
Si Si5 0.799585 0.624742 0.155936
O O1 0.020448 0.816537 0.231413
O O2 0.200302 0.854423 0.270020
O O3 0.106056 0.999608 0.194382
O O4 0.117059 0.866547 0.014054
O O5 0.422911 0.142728 0.273286
O O6 0.240988 0.131069 0.207773
O O7 0.297137 0.140592 0.481738
O O8 0.319226 0.988878 0.325101
O O9 0.110730 0.320936 0.218965
O O10 0.000000 0.299698 0.000000
O O11 0.273645 0.500000 0.500000
#
# Coordination Sequence:
#
# PCOD9329749 Si02
#       5
#     8   8   8   8   8
#     4   8  17  33  50  73 105 136 175 214 259 311
#     4   9  16  29  51  77 102 132 174 218 269 313
#     4  10  19  29  50  79 104 135 176 217 258 316
#     4   7  16  33  53  71 101 143 178 207 266 313
#     4   9  17  31  50  76 106 135 170 219 265 315
#
# _framework density 21.726732999999999
#
# number of rings (size 3 to 8) (size 9 to 14) (size 15 to 20)
#    1.200    2.000    0.000    0.600    0.000    5.600 
#    0.000    3.000    4.400    4.800    0.000    0.000 
#    0.000   60.800    0.000    0.000    0.000    0.000 
#
# Total GULP energy -111401.728152 kJ/mol
# GULP energy per Si atom -5570.086408 kJ/mol
# Density = 2.167728 g / cm^3
# Si number density = 21.726733 Si / 1000 Ang^3
#
#
#
# Elastic Constant Matrix: (Units=GPa)
#
#
# Indices 1 2 3 4 5 6 
#
# 1 123.7939 37.1713 33.9605 0.0000 0.0000 0.0000
# 2 37.1713 70.4920 8.5124 0.0000 0.0000 0.0000
# 3 33.9605 8.5124 27.7864 0.0000 0.0000 0.0000
# 4 0.0000 0.0000 0.0000 8.4369 0.0000 0.0000
# 5 0.0000 0.0000 0.0000 0.0000 27.6572 0.0000
# 6 0.0000 0.0000 0.0000 0.0000 0.0000 45.7233
#
#
#
# Elastic Compliance Matrix: (Units=1/GPa)
#
#
# Indices 1 2 3 4 5 6 
#
# 1 0.013941 -0.005497 -0.015354 0.000000 0.000000 0.000000
# 2 -0.005497 0.016898 0.001541 0.000000 0.000000 0.000000
# 3 -0.015354 0.001541 0.054283 0.000000 0.000000 0.000000
# 4 0.000000 0.000000 0.000000 0.118527 0.000000 0.000000
# 5 0.000000 0.000000 0.000000 0.000000 0.036157 0.000000
# 6 0.000000 0.000000 0.000000 0.000000 0.000000 0.021871
#
#
# Mechanical properties :
#
#
# Convention : Reuss Voigt Hill
#
# Bulk Modulus (GPa) = 21.50434 42.37341 31.93888
# Shear Modulus (GPa) = 15.83300 25.85868 20.84584
#
# Velocity S-wave (km/s) = 2.70244 3.45364 3.10087
# Velocity P-wave (km/s) = 4.43358 5.95388 5.24907
#
# Compressibility (1/GPa) = 0.04650224
#
# Stress axis : x y z
#
# Youngs Moduli (GPa) = 71.73275 59.17693 18.42214
#
# Poissons Ratio (x) = 0.32529 0.28286
# Poissons Ratio (y) = 0.39431 -0.02840
# Poissons Ratio (z) = 1.10140 -0.09122
#
# Static dielectric constant tensor:
#      x y z
#    x 1.796230 0.000000 0.000000 
#    y 0.000000 1.879420 0.000000 
#    z 0.000000 0.000000 1.789630 
# 
# From -- ./inp_files/14451.got.cif
#   From: 2010.05.17/outbox.cif.g08.bks.cpg/sg23_8_cif.got.tgz:14451.got - 2010.06.04 12:02:01.
