data_PCOD9329245
_publ_section_title
;
Structure prediction by ZEFSAII (Michael W. Deem and Ramdas Pophale) SiO2 
 PCOD9329245
Probable space group: F 2 2 2
;
_chemical_formula_sum "Si O2"
_cell_formula_units_Z 48
_cell_length_a 18.322377
_cell_length_b 21.345308
_cell_length_c 4.838516
_cell_angle_alpha 90.000000
_cell_angle_beta 90.000000
_cell_angle_gamma 90.000000
_cell_volume 1892.328029
_symmetry_space_group_name_H-M "F 2 2 2"
_symmetry_group_IT_number 22
_symmetry_cell_setting 'orthorhombic'
loop_
_space_group_symop_operation_xyz
x,y,z
-x,-y,z
x,-y,-z
-x,y,-z
x,1/2+y,1/2+z
-x,1/2-y,1/2+z
x,1/2-y,1/2-z
-x,1/2+y,1/2-z
1/2+x,y,1/2+z
1/2-x,-y,1/2+z
1/2+x,-y,1/2-z
1/2-x,y,1/2-z
1/2+x,1/2+y,z
1/2-x,1/2-y,z
1/2+x,1/2-y,-z
1/2-x,1/2+y,-z
loop_
_atom_site_type_symbol
_atom_site_label
_atom_site_fract_x
_atom_site_fract_y
_atom_site_fract_z
Si Si1 0.885494 0.808933 0.071502
Si Si2 0.500000 0.000000 0.000000
Si Si3 0.250000 0.953998 0.250000
Si Si4 0.398528 0.109913 0.899838
Si Si5 0.750000 0.250000 0.250000
O O1 0.911641 0.750000 0.250000
O O2 0.890817 0.866383 0.286691
O O3 0.924528 0.833254 0.794762
O O4 0.805376 0.788129 0.951470
O O5 0.552155 0.950816 0.848387
O O6 0.318313 0.911119 0.184232
O O7 0.267839 0.000000 0.500000
#
# Coordination Sequence:
#
# PCOD9329245 Si02
#       5
#    16   4   8  16   4
#     4  12  26  46  77 124 154 212 255 339 404 490
#     4  12  32  62  80 114 164 240 264 336 408 478
#     4  12  25  46  71 122 155 196 271 342 394 472
#     4  12  28  49  82 114 166 209 277 325 408 489
#     4  12  24  44  86 120 174 192 272 330 444 456
#
# _framework density 25.365582
#
# number of rings (size 3 to 8) (size 9 to 14) (size 15 to 20)
#    0.000    0.000    5.000    3.500    4.667    2.667 
#    0.000    3.333    3.667    0.000    0.000    0.000 
#    0.000    0.000    0.000    0.000    0.000    0.000 
#
# Total GULP energy -67169.930005 kJ/mol
# GULP energy per Si atom -5597.494167 kJ/mol
# Density = 2.530785 g / cm^3
# Si number density = 25.365582 Si / 1000 Ang^3
#
#
#
# Elastic Constant Matrix: (Units=GPa)
#
#
# Indices 1 2 3 4 5 6 
#
# 1 113.4535 42.1475 11.1856 -0.0351 0.0057 0.0212
# 2 42.1475 127.5919 36.0396 -0.0187 -0.0109 -0.0051
# 3 11.1856 36.0396 152.4012 -0.0235 -0.0205 0.0021
# 4 -0.0351 -0.0187 -0.0235 35.9923 0.0249 0.0700
# 5 0.0057 -0.0109 -0.0205 0.0249 13.0045 -0.0304
# 6 0.0212 -0.0051 0.0021 0.0700 -0.0304 -10.2691
#
#
#
# Elastic Compliance Matrix: (Units=1/GPa)
#
#
# Indices 1 2 3 4 5 6 
#
# 1 0.010047 -0.003333 0.000051 0.000008 -0.000007 0.000022
# 2 -0.003333 0.009504 -0.002003 0.000000 0.000006 -0.000012
# 3 0.000051 -0.002003 0.007032 0.000004 0.000009 0.000003
# 4 0.000008 0.000000 0.000004 0.027783 -0.000053 0.000189
# 5 -0.000007 0.000006 0.000009 -0.000053 0.076896 -0.000228
# 6 0.000022 -0.000012 0.000003 0.000189 -0.000228 -0.097378
#
#
# Mechanical properties :
#
#
# Convention : Reuss Voigt Hill
#
# Bulk Modulus (GPa) = 62.45123 63.57689 63.01406
# Shear Modulus (GPa) = 100.41466 28.01714 64.21590
#
# Velocity S-wave (km/s) = 6.29864 3.32706 5.03697
# Velocity P-wave (km/s) = 8.80745 6.31488 7.66319
#
# Compressibility (1/GPa) = 0.01601250
#
# Stress axis : x y z
#
# Youngs Moduli (GPa) = 99.52725 105.21512 142.21621
#
# Poissons Ratio (x) = 0.35072 -0.00723
# Poissons Ratio (y) = 0.33176 0.28485
# Poissons Ratio (z) = -0.00506 0.21074
#
# Static dielectric constant tensor:
#      x y z
#    x 2.042510 0.000000 0.000000 
#    y 0.000000 1.975400 -0.000010 
#    z 0.000000 -0.000010 2.003380 
# 
# From -- ./inp_files/3282.got.cif
#   From: 2010.05.17/outbox.cif.g08.bks.cpg/sg22_2_cif.got.tgz:3282.got - 2010.06.03 23:40:54.
