data_PCOD9329099
_publ_section_title
;
Structure prediction by ZEFSAII (Michael W. Deem and Ramdas Pophale) SiO2 
 PCOD9329099
Probable space group: F 2 2 2
;
_chemical_formula_sum "Si O2"
_cell_formula_units_Z 60
_cell_length_a 18.998832
_cell_length_b 8.273178
_cell_length_c 15.029716
_cell_angle_alpha 90.000000
_cell_angle_beta 90.000000
_cell_angle_gamma 90.000000
_cell_volume 2362.381566
_symmetry_space_group_name_H-M "F 2 2 2"
_symmetry_group_IT_number 22
_symmetry_cell_setting 'orthorhombic'
loop_
_space_group_symop_operation_xyz
x,y,z
-x,-y,z
x,-y,-z
-x,y,-z
x,1/2+y,1/2+z
-x,1/2-y,1/2+z
x,1/2-y,1/2-z
-x,1/2+y,1/2-z
1/2+x,y,1/2+z
1/2-x,-y,1/2+z
1/2+x,-y,1/2-z
1/2-x,y,1/2-z
1/2+x,1/2+y,z
1/2-x,1/2-y,z
1/2+x,1/2-y,-z
1/2-x,1/2+y,-z
loop_
_atom_site_type_symbol
_atom_site_label
_atom_site_fract_x
_atom_site_fract_y
_atom_site_fract_z
Si Si1 0.544413 0.250000 0.750000
Si Si2 0.500000 0.000000 0.500000
Si Si3 0.416487 0.665869 0.136243
Si Si4 0.266040 0.431460 0.854087
Si Si5 0.376565 0.526478 0.603670
O O1 0.486883 0.349446 0.806495
O O2 0.587497 0.348122 0.673257
O O3 0.554535 0.872673 0.540461
O O4 0.349869 0.547197 0.144443
O O5 0.390371 0.849326 0.147097
O O6 0.250000 0.431755 0.750000
O O7 0.250000 0.250000 0.890440
O O8 0.208337 0.549116 0.896954
O O9 0.400005 0.500000 0.500000
#
# Coordination Sequence:
#
# PCOD9329099 Si02
#       5
#     8   4  16  16  16
#     4  12  26  46  84 110 150 220 276 336 420 489
#     4  12  28  40  74 120 154 204 272 336 408 498
#     4  11  25  44  72 111 157 205 267 330 418 495
#     4   9  20  42  71  99 144 209 256 313 410 482
#     4  11  25  49  77 114 162 213 274 350 410 495
#
# _framework density 25.398098000000001
#
# number of rings (size 3 to 8) (size 9 to 14) (size 15 to 20)
#    0.000    1.333    0.000    5.600    9.333    1.067 
#    0.000    0.667    5.867    0.000    0.000    0.000 
#    0.000    0.000    0.000    0.000    0.000    0.000 
#
# Total GULP energy -83541.815926 kJ/mol
# GULP energy per Si atom -5569.454395 kJ/mol
# Density = 2.534029 g / cm^3
# Si number density = 25.398098 Si / 1000 Ang^3
#
#
#
# Elastic Constant Matrix: (Units=GPa)
#
#
# Indices 1 2 3 4 5 6 
#
# 1 228.9844 62.7037 70.6274 0.0000 0.0000 0.0000
# 2 62.7037 83.1232 25.4592 0.0000 0.0000 0.0000
# 3 70.6274 25.4592 90.2584 0.0000 0.0000 0.0000
# 4 0.0000 0.0000 0.0000 -561.8994 0.0000 0.0000
# 5 0.0000 0.0000 0.0000 0.0000 52.3467 0.0000
# 6 0.0000 0.0000 0.0000 0.0000 0.0000 66.1210
#
#
#
# Elastic Compliance Matrix: (Units=1/GPa)
#
#
# Indices 1 2 3 4 5 6 
#
# 1 0.006684 -0.003765 -0.004168 0.000000 0.000000 0.000000
# 2 -0.003765 0.015289 -0.001366 0.000000 0.000000 0.000000
# 3 -0.004168 -0.001366 0.014726 0.000000 0.000000 0.000000
# 4 0.000000 0.000000 0.000000 -0.001780 0.000000 0.000000
# 5 0.000000 0.000000 0.000000 0.000000 0.019103 0.000000
# 6 0.000000 0.000000 0.000000 0.000000 0.000000 0.015124
#
#
# Mechanical properties :
#
#
# Convention : Reuss Voigt Hill
#
# Bulk Modulus (GPa) = 55.24868 79.99406 67.62137
# Shear Modulus (GPa) = 53.31694 -72.44796 -9.56551
#
# Velocity S-wave (km/s) = 4.58673 -5.34667 -1.94278
# Velocity P-wave (km/s) = 7.06053 2.55957 4.65294
#
# Compressibility (1/GPa) = 0.01809998
#
# Stress axis : x y z
#
# Youngs Moduli (GPa) = 149.61707 65.40595 67.90651
#
# Poissons Ratio (x) = 0.24627 0.28303
# Poissons Ratio (y) = 0.56335 0.09278
# Poissons Ratio (z) = 0.62360 0.08936
#
# Static dielectric constant tensor:
#      x y z
#    x 3.855440 0.000000 0.000000 
#    y 0.000000 2.027020 0.000000 
#    z 0.000000 0.000000 1.645170 
# 
# From -- ./inp_files/10988.got.cif
#   From: 2010.05.17/outbox.cif.g08.bks.cpg/sg22_6_cif.got.tgz:10988.got - 2010.06.03 23:40:54.
