data_PCOD9329309
_publ_section_title
;
Structure prediction by ZEFSAII (Michael W. Deem and Ramdas Pophale) SiO2 
 PCOD9329309
Probable space group: F 2 2 2
;
_chemical_formula_sum "Si O2"
_cell_formula_units_Z 18
_cell_length_a 18.000000
_cell_length_b 24.000000
_cell_length_c 9.000000
_cell_angle_alpha 90.000000
_cell_angle_beta 90.000000
_cell_angle_gamma 90.000000
_cell_volume 3888.000000
_symmetry_space_group_name_H-M "F 2 2 2"
_symmetry_group_IT_number 22
_symmetry_cell_setting 'orthorhombic'
loop_
_space_group_symop_operation_xyz
x,y,z
-x,-y,z
x,-y,-z
-x,y,-z
x,1/2+y,1/2+z
-x,1/2-y,1/2+z
x,1/2-y,1/2-z
-x,1/2+y,1/2-z
1/2+x,y,1/2+z
1/2-x,-y,1/2+z
1/2+x,-y,1/2-z
1/2-x,y,1/2-z
1/2+x,1/2+y,z
1/2-x,1/2-y,z
1/2+x,1/2-y,-z
1/2-x,1/2+y,-z
loop_
_atom_site_type_symbol
_atom_site_label
_atom_site_fract_x
_atom_site_fract_y
_atom_site_fract_z
Si Si1 0.374845 0.750000 0.250000
Si Si2 0.250000 0.342365 0.250000
Si Si3 0.065904 0.126104 0.694398
Si Si4 0.895858 0.406124 0.854338
Si Si5 0.588242 0.012582 0.335376
Si Si6 0.250000 0.750000 0.499453
O O1 0.417455 0.809657 0.238017
O O2 0.321619 0.749315 0.393707
O O3 0.174751 0.376667 0.220741
O O4 0.243315 0.303014 0.393772
O O5 0.097635 0.108865 0.530336
O O6 0.099398 0.077666 0.799157
O O7 0.976730 0.116240 0.699155
O O8 0.888649 0.470531 0.798504
O O9 0.500000 0.000000 0.343788
O O10 0.619837 0.000000 0.500000
#
# Coordination Sequence:
#
# PCOD9329309 Si02
#       6
#     8   8  16  16  16   8
#     4  11  22  42  62  91 118 166 210 257 308 382
#     4  11  22  42  58  90 126 167 202 254 318 383
#     4  10  21  40  65  93 123 164 214 258 304 373
#     4  10  21  40  63  92 124 165 211 256 316 370
#     4   9  19  37  62  92 124 157 198 261 314 356
#     4  10  24  40  60  82 132 170 196 252 328 374
#
# _framework density 4.6296299999999997
#
# number of rings (size 3 to 8) (size 9 to 14) (size 15 to 20)
#    0.000    2.000    2.222    0.667    3.111    4.444 
#    0.000    4.444    0.000    0.000    0.000    0.000 
#    0.000    0.000    0.000    0.000    0.000    0.000 
#
# Total GULP energy -100265.528066 kJ/mol
# GULP energy per Si atom -5570.307115 kJ/mol
# Density = 0.461909 g / cm^3
# Si number density = 4.629630 Si / 1000 Ang^3
#
#
#
# Elastic Constant Matrix: (Units=GPa)
#
#
# Indices 1 2 3 4 5 6 
#
# 1 75.6471 43.3256 33.9209 0.0000 0.0000 0.0000
# 2 43.3256 178.8146 60.2049 0.0000 0.0000 0.0000
# 3 33.9209 60.2049 104.8990 0.0000 0.0000 0.0000
# 4 0.0000 0.0000 0.0000 17.6384 0.0000 0.0000
# 5 0.0000 0.0000 0.0000 0.0000 15.4608 0.0000
# 6 0.0000 0.0000 0.0000 0.0000 0.0000 26.1597
#
#
#
# Elastic Compliance Matrix: (Units=1/GPa)
#
#
# Indices 1 2 3 4 5 6 
#
# 1 0.016466 -0.002723 -0.003762 0.000000 0.000000 0.000000
# 2 -0.002723 0.007382 -0.003356 0.000000 0.000000 0.000000
# 3 -0.003762 -0.003356 0.012676 0.000000 0.000000 0.000000
# 4 0.000000 0.000000 0.000000 0.056694 0.000000 0.000000
# 5 0.000000 0.000000 0.000000 0.000000 0.064680 0.000000
# 6 0.000000 0.000000 0.000000 0.000000 0.000000 0.038227
#
#
# Mechanical properties :
#
#
# Convention : Reuss Voigt Hill
#
# Bulk Modulus (GPa) = 59.37704 70.47373 64.92539
# Shear Modulus (GPa) = 22.58152 26.64574 24.61363
#
# Velocity S-wave (km/s) = 3.49578 3.79736 3.64969
# Velocity P-wave (km/s) = 6.95897 7.57397 7.27297
#
# Compressibility (1/GPa) = 0.01684153
#
# Stress axis : x y z
#
# Youngs Moduli (GPa) = 60.73275 135.46105 78.89127
#
# Poissons Ratio (x) = 0.36886 0.29676
# Poissons Ratio (y) = 0.16538 0.26479
# Poissons Ratio (z) = 0.22845 0.45465
#
# Static dielectric constant tensor:
#      x y z
#    x 1.623910 0.000000 0.000000 
#    y 0.000000 1.647170 0.000000 
#    z 0.000000 0.000000 1.667980 
# 
# From -- ./inp_files/11477.got.cif
#   From: 2010.05.17/outbox.ucp.g08.bks.cvg/sg22_6_cif.got.tgz:11477.got - 2010.06.11 15:16:44.
