data_PCOD9329821
_publ_section_title
;
Structure prediction by ZEFSAII (Michael W. Deem and Ramdas Pophale) SiO2 
 PCOD9329821
Probable space group: I 2 2 2
;
_chemical_formula_sum "Si O2"
_cell_formula_units_Z 48
_cell_length_a 5.663013
_cell_length_b 19.390796
_cell_length_c 19.008845
_cell_angle_alpha 90.000000
_cell_angle_beta 90.000000
_cell_angle_gamma 90.000000
_cell_volume 2087.367539
_symmetry_space_group_name_H-M "I 2 2 2"
_symmetry_group_IT_number 23
_symmetry_cell_setting 'orthorhombic'
loop_
_space_group_symop_operation_xyz
x,y,z
-x,-y,z
x,-y,-z
-x,y,-z
1/2+x,1/2+y,1/2+z
1/2-x,1/2-y,1/2+z
1/2+x,1/2-y,1/2-z
1/2-x,1/2+y,1/2-z
loop_
_atom_site_type_symbol
_atom_site_label
_atom_site_fract_x
_atom_site_fract_y
_atom_site_fract_z
Si Si1 0.249295 0.008693 0.744536
Si Si2 0.252526 0.461882 0.909156
Si Si3 0.386444 0.156193 0.707631
Si Si4 0.224740 0.307455 0.917745
Si Si5 0.742691 0.681227 0.523222
Si Si6 0.893454 0.721001 0.671437
O O1 0.251672 0.084499 0.708804
O O2 0.500000 0.000000 0.782539
O O3 0.257051 0.957824 0.676677
O O4 0.000000 0.000000 0.782466
O O5 0.500000 0.500000 0.924193
O O6 0.280342 0.385500 0.940418
O O7 0.000000 0.500000 0.926305
O O8 0.502075 0.175297 0.632952
O O9 0.223151 0.222038 0.720842
O O10 0.547585 0.158690 0.776726
O O11 0.403548 0.265617 0.867332
O O12 0.226060 0.255964 0.983901
O O13 0.500000 0.644581 0.500000
O O14 0.742606 0.691789 0.606604
O O15 0.000000 0.652614 0.500000
#
# Coordination Sequence:
#
# PCOD9329821 Si02
#       6
#     8   8   8   8   8   8
#     4  10  20  34  52  80 117 157 200 257 311 365
#     4  10  19  32  54  78 109 149 205 252 293 349
#     4  12  21  34  60  86 121 162 212 274 320 388
#     4  11  21  37  57  82 117 166 205 258 317 381
#     4  10  22  38  58  78 117 163 205 249 316 379
#     4  11  23  36  56  89 119 161 215 263 332 392
#
# _framework density 22.995470999999998
#
# number of rings (size 3 to 8) (size 9 to 14) (size 15 to 20)
#    0.000    1.333    6.667    2.000    0.000    0.000 
#    0.000    0.000    0.000   22.000    0.000    0.000 
#    0.000    6.000    0.000   36.500    0.000    2.833 
#
# Total GULP energy -133746.399060 kJ/mol
# GULP energy per Si atom -5572.766628 kJ/mol
# Density = 2.294313 g / cm^3
# Si number density = 22.995471 Si / 1000 Ang^3
#
#
#
# Elastic Constant Matrix: (Units=GPa)
#
#
# Indices 1 2 3 4 5 6 
#
# 1 155.9495 12.2164 9.4448 0.0000 0.0000 0.0000
# 2 12.2164 28.0748 6.7844 0.0000 0.0000 0.0000
# 3 9.4448 6.7844 95.5010 0.0000 0.0000 0.0000
# 4 0.0000 0.0000 0.0000 14.3679 0.0000 0.0000
# 5 0.0000 0.0000 0.0000 0.0000 36.2705 0.0000
# 6 0.0000 0.0000 0.0000 0.0000 0.0000 21.6383
#
#
#
# Elastic Compliance Matrix: (Units=1/GPa)
#
#
# Indices 1 2 3 4 5 6 
#
# 1 0.006658 -0.002786 -0.000461 0.000000 0.000000 0.000000
# 2 -0.002786 0.037407 -0.002382 0.000000 0.000000 0.000000
# 3 -0.000461 -0.002382 0.010686 0.000000 0.000000 0.000000
# 4 0.000000 0.000000 0.000000 0.069599 0.000000 0.000000
# 5 0.000000 0.000000 0.000000 0.000000 0.027571 0.000000
# 6 0.000000 0.000000 0.000000 0.000000 0.000000 0.046214
#
#
# Mechanical properties :
#
#
# Convention : Reuss Voigt Hill
#
# Bulk Modulus (GPa) = 22.99148 37.37962 30.18555
# Shear Modulus (GPa) = 22.33231 31.19398 26.76314
#
# Velocity S-wave (km/s) = 3.11973 3.68710 3.41522
# Velocity P-wave (km/s) = 4.79551 5.86658 5.35788
#
# Compressibility (1/GPa) = 0.04349437
#
# Stress axis : x y z
#
# Youngs Moduli (GPa) = 150.18456 26.73295 93.58170
#
# Poissons Ratio (x) = 0.07448 0.04310
# Poissons Ratio (y) = 0.41842 0.22290
# Poissons Ratio (z) = 0.06917 0.06367
#
# Static dielectric constant tensor:
#      x y z
#    x 2.132370 0.000000 0.000000 
#    y 0.000000 1.781100 0.000000 
#    z 0.000000 0.000000 1.877010 
# 
# From -- ./inp_files/3884.got.cif
#   From: 2010.05.17/outbox.cif.g08.bks.cpg/sg23_2_cif.got.tgz:3884.got - 2010.06.04 12:02:01.
