data_PCOD9329328
_publ_section_title
;
Structure prediction by ZEFSAII (Michael W. Deem and Ramdas Pophale) SiO2 
 PCOD9329328
Probable space group: I 2 2 2
;
_chemical_formula_sum "Si O2"
_cell_formula_units_Z 48
_cell_length_a 8.014477
_cell_length_b 10.215358
_cell_length_c 26.100204
_cell_angle_alpha 90.000000
_cell_angle_beta 90.000000
_cell_angle_gamma 90.000000
_cell_volume 2136.843322
_symmetry_space_group_name_H-M "I 2 2 2"
_symmetry_group_IT_number 23
_symmetry_cell_setting 'orthorhombic'
loop_
_space_group_symop_operation_xyz
x,y,z
-x,-y,z
x,-y,-z
-x,y,-z
1/2+x,1/2+y,1/2+z
1/2-x,1/2-y,1/2+z
1/2+x,1/2-y,1/2-z
1/2-x,1/2+y,1/2-z
loop_
_atom_site_type_symbol
_atom_site_label
_atom_site_fract_x
_atom_site_fract_y
_atom_site_fract_z
Si Si1 0.740648 0.373116 0.902441
Si Si2 0.670750 0.580018 0.357590
Si Si3 0.510531 0.258597 0.275097
Si Si4 0.270709 0.500000 0.000000
Si Si5 0.924193 0.746131 0.949203
Si Si6 0.500000 0.000000 0.658831
Si Si7 0.354854 0.836941 0.823182
O O1 0.648304 0.421643 0.953090
O O2 0.644535 0.272490 0.867253
O O3 0.910858 0.298825 0.918880
O O4 0.824967 0.493025 0.871744
O O5 0.500000 0.500000 0.369712
O O6 0.626813 0.650978 0.303579
O O7 0.684891 0.674565 0.407452
O O8 0.821850 0.479002 0.348252
O O9 0.503533 0.126266 0.306842
O O10 0.491389 0.212898 0.216933
O O11 0.687459 0.323131 0.288116
O O12 0.163662 0.384582 0.972165
O O13 0.000000 0.817698 0.000000
#
# Coordination Sequence:
#
# PCOD9329328 Si02
#       7
#     8   8   8   4   8   4   8
#     4  10  15  28  44  71 102 137 168 217 265 323
#     4  10  18  34  44  71 109 142 174 224 275 324
#     4  10  21  34  52  73 103 154 183 223 269 316
#     4  10  17  26  48  74 102 141 175 218 276 351
#     4  10  16  27  46  70 103 142 171 213 281 335
#     4  10  16  29  50  72 102 138 179 216 260 318
#     4  10  22  34  52  74 111 149 184 225 270 326
#
# _framework density 22.463039999999999
#
# number of rings (size 3 to 8) (size 9 to 14) (size 15 to 20)
#    0.000    2.000    6.667    1.750    4.667    0.333 
#    0.000    0.000    0.000    0.000    0.000    0.000 
#    0.000   25.333   30.000    0.000    0.000    0.000 
#
# Total GULP energy -133735.805469 kJ/mol
# GULP energy per Si atom -5572.325228 kJ/mol
# Density = 2.241191 g / cm^3
# Si number density = 22.463040 Si / 1000 Ang^3
#
#
#
# Elastic Constant Matrix: (Units=GPa)
#
#
# Indices 1 2 3 4 5 6 
#
# 1 53.8753 20.9721 16.7256 0.0000 0.0000 0.0000
# 2 20.9721 87.8488 45.3860 0.0000 0.0000 0.0000
# 3 16.7256 45.3860 136.9753 0.0000 0.0000 0.0000
# 4 0.0000 0.0000 0.0000 5.5941 0.0000 0.0000
# 5 0.0000 0.0000 0.0000 0.0000 14.3665 0.0000
# 6 0.0000 0.0000 0.0000 0.0000 0.0000 3.2751
#
#
#
# Elastic Compliance Matrix: (Units=1/GPa)
#
#
# Indices 1 2 3 4 5 6 
#
# 1 0.020592 -0.004364 -0.001068 0.000000 0.000000 0.000000
# 2 -0.004364 0.014659 -0.004324 0.000000 0.000000 0.000000
# 3 -0.001068 -0.004324 0.008864 0.000000 0.000000 0.000000
# 4 0.000000 0.000000 0.000000 0.178760 0.000000 0.000000
# 5 0.000000 0.000000 0.000000 0.000000 0.069606 0.000000
# 6 0.000000 0.000000 0.000000 0.000000 0.000000 0.305334
#
#
# Mechanical properties :
#
#
# Convention : Reuss Voigt Hill
#
# Bulk Modulus (GPa) = 40.64802 49.42968 45.03885
# Shear Modulus (GPa) = 7.99324 17.68818 12.84071
#
# Velocity S-wave (km/s) = 1.88842 2.80917 2.39349
# Velocity P-wave (km/s) = 4.78431 5.70742 5.26613
#
# Compressibility (1/GPa) = 0.02460144
#
# Stress axis : x y z
#
# Youngs Moduli (GPa) = 48.56299 68.21701 112.81714
#
# Poissons Ratio (x) = 0.29769 0.12054
# Poissons Ratio (y) = 0.21192 0.48786
# Poissons Ratio (z) = 0.05189 0.29499
#
# Static dielectric constant tensor:
#      x y z
#    x 1.887240 0.000000 0.000000 
#    y 0.000000 1.871460 0.000000 
#    z 0.000000 0.000000 1.917160 
# 
# From -- ./inp_files/28353.got.cif
#   From: 2010.05.17/outbox.cif.g08.bks.cpg/sg23_15_cif.got.tgz:28353.got - 2010.06.04 12:02:01.
