data_PCOD9329449
_publ_section_title
;
Structure prediction by ZEFSAII (Michael W. Deem and Ramdas Pophale) SiO2 
 PCOD9329449
Probable space group: I 2 2 2
;
_chemical_formula_sum "Si O2"
_cell_formula_units_Z 48
_cell_length_a 14.913512
_cell_length_b 11.984564
_cell_length_c 11.358427
_cell_angle_alpha 90.000000
_cell_angle_beta 90.000000
_cell_angle_gamma 90.000000
_cell_volume 2030.113682
_symmetry_space_group_name_H-M "I 2 2 2"
_symmetry_group_IT_number 23
_symmetry_cell_setting 'orthorhombic'
loop_
_space_group_symop_operation_xyz
x,y,z
-x,-y,z
x,-y,-z
-x,y,-z
1/2+x,1/2+y,1/2+z
1/2-x,1/2-y,1/2+z
1/2+x,1/2-y,1/2-z
1/2-x,1/2+y,1/2-z
loop_
_atom_site_type_symbol
_atom_site_label
_atom_site_fract_x
_atom_site_fract_y
_atom_site_fract_z
Si Si1 0.070607 0.595180 0.155213
Si Si2 0.337430 0.775143 0.125086
Si Si3 0.287733 0.077663 0.681705
Si Si4 0.116666 0.394227 0.586258
Si Si5 0.680825 0.580926 0.693224
Si Si6 0.652939 0.733521 0.499772
O O1 0.166314 0.534139 0.134398
O O2 0.061414 0.619689 0.294305
O O3 0.076853 0.704378 0.075579
O O4 0.000000 0.500000 0.123769
O O5 0.352185 0.877938 0.213829
O O6 0.345394 0.664986 0.201951
O O7 0.233036 0.791179 0.090372
O O8 0.389542 0.791092 0.004037
O O9 0.299419 0.176471 0.588712
O O10 0.194062 0.037545 0.739755
O O11 0.100376 0.500000 0.500000
O O12 0.218893 0.402248 0.636610
O O13 0.626004 0.626558 0.579523
#
# Coordination Sequence:
#
# PCOD9329449 Si02
#       6
#     8   8   8   8   8   8
#     4  11  22  35  50  76 117 164 192 220 279 359
#     4  10  17  31  50  74 109 150 192 243 285 362
#     4  10  19  34  50  79 112 156 184 236 301 341
#     4  10  17  32  48  70 107 153 190 227 288 337
#     4   9  18  30  51  73 105 149 184 240 295 352
#     4  10  20  31  51  76 107 155 188 235 291 348
#
# _framework density 23.643996000000001
#
# number of rings (size 3 to 8) (size 9 to 14) (size 15 to 20)
#    0.000    2.000    6.667    0.500    0.000    1.667 
#    0.000    0.000    0.000    0.000    0.000    0.000 
#    0.000   22.667   12.333    0.167    0.000    0.000 
#
# Total GULP energy -133629.419271 kJ/mol
# GULP energy per Si atom -5567.892470 kJ/mol
# Density = 2.359018 g / cm^3
# Si number density = 23.643996 Si / 1000 Ang^3
#
#
#
# Elastic Constant Matrix: (Units=GPa)
#
#
# Indices 1 2 3 4 5 6 
#
# 1 44.3103 8.1008 29.6410 0.0000 0.0000 0.0000
# 2 8.1008 66.7354 57.8058 0.0000 0.0000 0.0000
# 3 29.6410 57.8058 169.7792 0.0000 0.0000 0.0000
# 4 0.0000 0.0000 0.0000 50.8942 0.0000 0.0000
# 5 0.0000 0.0000 0.0000 0.0000 13.0885 0.0000
# 6 0.0000 0.0000 0.0000 0.0000 0.0000 22.5491
#
#
#
# Elastic Compliance Matrix: (Units=1/GPa)
#
#
# Indices 1 2 3 4 5 6 
#
# 1 0.025607 0.001084 -0.004840 0.000000 0.000000 0.000000
# 2 0.001084 0.021298 -0.007441 0.000000 0.000000 0.000000
# 3 -0.004840 -0.007441 0.009268 0.000000 0.000000 0.000000
# 4 0.000000 0.000000 0.000000 0.019649 0.000000 0.000000
# 5 0.000000 0.000000 0.000000 0.000000 0.076403 0.000000
# 6 0.000000 0.000000 0.000000 0.000000 0.000000 0.044348
#
#
# Mechanical properties :
#
#
# Convention : Reuss Voigt Hill
#
# Bulk Modulus (GPa) = 29.60290 52.43557 41.01924
# Shear Modulus (GPa) = 21.71776 29.65818 25.68797
#
# Velocity S-wave (km/s) = 3.03402 3.54554 3.29971
# Velocity P-wave (km/s) = 4.98208 6.24391 5.64834
#
# Compressibility (1/GPa) = 0.03378047
#
# Stress axis : x y z
#
# Youngs Moduli (GPa) = 39.05117 46.95261 107.89456
#
# Poissons Ratio (x) = -0.05088 0.52217
# Poissons Ratio (y) = -0.04232 0.80281
# Poissons Ratio (z) = 0.18899 0.34936
#
# Static dielectric constant tensor:
#      x y z
#    x 1.964170 0.000000 0.000000 
#    y 0.000000 1.990080 0.000000 
#    z 0.000000 0.000000 2.003340 
# 
# From -- ./inp_files/17416.got.cif
#   From: 2010.05.17/outbox.cif.g08.bks.cpg/sg23_9_cif.got.tgz:17416.got - 2010.06.04 12:02:01.
