data_PCOD9329691
_publ_section_title
;
Structure prediction by ZEFSAII (Michael W. Deem and Ramdas Pophale) SiO2 
 PCOD9329691
Probable space group: I 2 2 2
;
_chemical_formula_sum "Si O2"
_cell_formula_units_Z 52
_cell_length_a 14.786184
_cell_length_b 7.418284
_cell_length_c 21.361216
_cell_angle_alpha 90.000000
_cell_angle_beta 90.000000
_cell_angle_gamma 90.000000
_cell_volume 2343.071457
_symmetry_space_group_name_H-M "I 2 2 2"
_symmetry_group_IT_number 23
_symmetry_cell_setting 'orthorhombic'
loop_
_space_group_symop_operation_xyz
x,y,z
-x,-y,z
x,-y,-z
-x,y,-z
1/2+x,1/2+y,1/2+z
1/2-x,1/2-y,1/2+z
1/2+x,1/2-y,1/2-z
1/2-x,1/2+y,1/2-z
loop_
_atom_site_type_symbol
_atom_site_label
_atom_site_fract_x
_atom_site_fract_y
_atom_site_fract_z
Si Si1 0.808934 0.620013 0.626306
Si Si2 0.691199 0.712426 0.520869
Si Si3 0.676868 0.721228 0.387907
Si Si4 0.729469 0.912740 0.261100
Si Si5 0.000000 0.500000 0.341047
Si Si6 0.476330 0.213288 0.609975
Si Si7 0.097922 0.749376 0.751692
O O1 0.771893 0.741925 0.570275
O O2 0.739465 0.451342 0.623452
O O3 0.795564 0.692515 0.696430
O O4 0.911020 0.550792 0.620104
O O5 0.691375 0.500000 0.500000
O O6 0.702457 0.810959 0.454351
O O7 0.597971 0.752754 0.556778
O O8 0.690789 0.838600 0.326093
O O9 0.570686 0.681771 0.396935
O O10 0.838722 0.918497 0.264742
O O11 0.672984 0.092317 0.248993
O O12 0.024159 0.328169 0.296440
O O13 0.438752 0.261955 0.678480
O O14 0.500000 0.000000 0.609639
#
# Coordination Sequence:
#
# PCOD9329691 Si02
#       7
#     8   8   8   8   4   8   8
#     4  10  21  38  62  84 122 162 203 257 311 361
#     4  10  24  41  56  89 129 166 200 251 319 379
#     4  11  22  37  58  87 125 156 202 254 304 368
#     4  11  19  38  61  87 123 163 195 257 305 359
#     4  10  18  36  63  90 117 154 214 266 292 362
#     4  12  22  38  63  94 126 165 208 248 312 382
#     4  11  21  37  64  95 124 158 207 257 314 368
#
# _framework density 22.193090000000002
#
# number of rings (size 3 to 8) (size 9 to 14) (size 15 to 20)
#    0.000    1.231    6.923    1.385    0.000    5.538 
#    0.000    3.462    0.000    0.000    0.000    0.000 
#    0.000    5.538    0.000    0.000    0.000    0.000 
#
# Total GULP energy -145194.448270 kJ/mol
# GULP energy per Si atom -5584.401857 kJ/mol
# Density = 2.214258 g / cm^3
# Si number density = 22.193090 Si / 1000 Ang^3
#
#
#
# Elastic Constant Matrix: (Units=GPa)
#
#
# Indices 1 2 3 4 5 6 
#
# 1 137.3194 26.0986 63.0924 0.0000 0.0000 0.0000
# 2 26.0986 41.0850 13.3556 0.0000 0.0000 0.0000
# 3 63.0924 13.3556 182.2401 0.0000 0.0000 0.0000
# 4 0.0000 0.0000 0.0000 25.2707 0.0000 0.0000
# 5 0.0000 0.0000 0.0000 0.0000 33.2426 0.0000
# 6 0.0000 0.0000 0.0000 0.0000 0.0000 37.6629
#
#
#
# Elastic Compliance Matrix: (Units=1/GPa)
#
#
# Indices 1 2 3 4 5 6 
#
# 1 0.009617 -0.005150 -0.002952 0.000000 0.000000 0.000000
# 2 -0.005150 0.027691 -0.000247 0.000000 0.000000 0.000000
# 3 -0.002952 -0.000247 0.006527 0.000000 0.000000 0.000000
# 4 0.000000 0.000000 0.000000 0.039572 0.000000 0.000000
# 5 0.000000 0.000000 0.000000 0.000000 0.030082 0.000000
# 6 0.000000 0.000000 0.000000 0.000000 0.000000 0.026551
#
#
# Mechanical properties :
#
#
# Convention : Reuss Voigt Hill
#
# Bulk Modulus (GPa) = 36.84703 62.85973 49.85338
# Shear Modulus (GPa) = 30.15975 36.44178 33.30077
#
# Velocity S-wave (km/s) = 3.69042 4.05660 3.87783
# Velocity P-wave (km/s) = 5.89898 7.09414 6.52398
#
# Compressibility (1/GPa) = 0.02713923
#
# Stress axis : x y z
#
# Youngs Moduli (GPa) = 103.97791 36.11262 153.20036
#
# Poissons Ratio (x) = 0.18597 0.45228
# Poissons Ratio (y) = 0.53545 0.03777
# Poissons Ratio (z) = 0.30696 0.00890
#
# Static dielectric constant tensor:
#      x y z
#    x 1.851550 0.000000 0.000000 
#    y 0.000000 2.025930 0.000000 
#    z 0.000000 0.000000 1.876680 
# 
# From -- ./inp_files/26947.got.cif
#   From: 2010.05.17/outbox.cif.g08.bks.cpg/sg23_14_cif.got.tgz:26947.got - 2010.06.04 12:02:01.
