data_PCOD9329941
_publ_section_title
;
Structure prediction by ZEFSAII (Michael W. Deem and Ramdas Pophale) SiO2 
 PCOD9329941
Probable space group: I 2 2 2
;
_chemical_formula_sum "Si O2"
_cell_formula_units_Z 56
_cell_length_a 19.264924
_cell_length_b 7.987342
_cell_length_c 19.068035
_cell_angle_alpha 90.000000
_cell_angle_beta 90.000000
_cell_angle_gamma 90.000000
_cell_volume 2934.104117
_symmetry_space_group_name_H-M "I 2 2 2"
_symmetry_group_IT_number 23
_symmetry_cell_setting 'orthorhombic'
loop_
_space_group_symop_operation_xyz
x,y,z
-x,-y,z
x,-y,-z
-x,y,-z
1/2+x,1/2+y,1/2+z
1/2-x,1/2-y,1/2+z
1/2+x,1/2-y,1/2-z
1/2-x,1/2+y,1/2-z
loop_
_atom_site_type_symbol
_atom_site_label
_atom_site_fract_x
_atom_site_fract_y
_atom_site_fract_z
Si Si1 0.964675 0.184136 0.066688
Si Si2 0.169631 0.183146 0.750391
Si Si3 0.881944 0.806924 0.274816
Si Si4 0.021520 0.688980 0.224113
Si Si5 0.674642 0.201769 0.500705
Si Si6 0.290611 0.173664 0.654068
Si Si7 0.737841 0.706916 0.873787
O O1 0.884602 0.198267 0.043243
O O2 0.978563 0.263091 0.141872
O O3 0.000000 0.000000 0.070717
O O4 0.000000 0.273298 0.000000
O O5 0.222157 0.248558 0.690797
O O6 0.213358 0.187005 0.822038
O O7 0.100143 0.288556 0.752321
O O8 0.143510 0.994649 0.740298
O O9 0.964417 0.793983 0.267549
O O10 0.850384 0.693204 0.212037
O O11 0.840484 0.766785 0.346590
O O12 0.000000 0.500000 0.232487
O O13 0.684036 0.248639 0.419489
O O14 0.744722 0.232535 0.545059
O O15 0.658894 0.000000 0.500000
O O16 0.266603 0.982287 0.640799
#
# Coordination Sequence:
#
# PCOD9329941 Si02
#       7
#     8   8   8   8   8   8   8
#     4  11  24  36  52  78 120 149 183 217 274 333
#     4  10  19  35  55  78 108 143 184 234 273 326
#     4  10  20  33  54  79 109 140 186 230 278 329
#     4  12  24  35  55  78 111 149 187 226 281 336
#     4  10  20  35  59  81 111 148 188 225 274 333
#     4   9  19  35  56  80 107 143 187 227 275 328
#     4   9  18  35  55  78 106 145 184 229 274 329
#
# _framework density 19.085892999999999
#
# number of rings (size 3 to 8) (size 9 to 14) (size 15 to 20)
#    0.000    1.857    1.429    3.000    4.000    2.286 
#    0.000    0.000    0.000    0.857    0.000    6.000 
#    0.000    0.000    0.000    0.000    0.000    0.000 
#
# Total GULP energy -156150.734886 kJ/mol
# GULP energy per Si atom -5576.811960 kJ/mol
# Density = 1.904245 g / cm^3
# Si number density = 19.085893 Si / 1000 Ang^3
#
#
#
# Elastic Constant Matrix: (Units=GPa)
#
#
# Indices 1 2 3 4 5 6 
#
# 1 80.6159 14.9084 13.9167 0.0000 0.0000 0.0000
# 2 14.9084 30.2044 3.3144 0.0000 0.0000 0.0000
# 3 13.9167 3.3144 54.2250 0.0000 0.0000 0.0000
# 4 0.0000 0.0000 0.0000 -25.3203 0.0000 0.0000
# 5 0.0000 0.0000 0.0000 0.0000 28.5523 0.0000
# 6 0.0000 0.0000 0.0000 0.0000 0.0000 25.2549
#
#
#
# Elastic Compliance Matrix: (Units=1/GPa)
#
#
# Indices 1 2 3 4 5 6 
#
# 1 0.014193 -0.006650 -0.003236 0.000000 0.000000 0.000000
# 2 -0.006650 0.036447 -0.000521 0.000000 0.000000 0.000000
# 3 -0.003236 -0.000521 0.019304 0.000000 0.000000 0.000000
# 4 0.000000 0.000000 0.000000 -0.039494 0.000000 0.000000
# 5 0.000000 0.000000 0.000000 0.000000 0.035023 0.000000
# 6 0.000000 0.000000 0.000000 0.000000 0.000000 0.039596
#
#
# Mechanical properties :
#
#
# Convention : Reuss Voigt Hill
#
# Bulk Modulus (GPa) = 20.35429 25.48045 22.91737
# Shear Modulus (GPa) = 35.14652 14.55777 24.85215
#
# Velocity S-wave (km/s) = 4.29592 2.76479 3.61241
# Velocity P-wave (km/s) = 5.94090 4.85505 5.42521
#
# Compressibility (1/GPa) = 0.04912970
#
# Stress axis : x y z
#
# Youngs Moduli (GPa) = 70.45721 27.43676 51.80257
#
# Poissons Ratio (x) = 0.18246 0.16764
# Poissons Ratio (y) = 0.46856 0.02699
# Poissons Ratio (z) = 0.22801 0.01429
#
# Static dielectric constant tensor:
#      x y z
#    x 1.737250 0.000000 0.000000 
#    y 0.000000 1.732430 0.000000 
#    z 0.000000 0.000000 1.672620 
# 
# From -- ./inp_files/27162.got.cif
#   From: 2010.05.17/outbox.cif.g08.bks.cpg/sg23_14_cif.got.tgz:27162.got - 2010.06.04 12:02:01.
