data_PCOD9329595
_publ_section_title
;
Structure prediction by ZEFSAII (Michael W. Deem and Ramdas Pophale) SiO2 
 PCOD9329595
Probable space group: I 2 2 2
;
_chemical_formula_sum "Si O2"
_cell_formula_units_Z 52
_cell_length_a 16.333420
_cell_length_b 7.319754
_cell_length_c 23.355927
_cell_angle_alpha 90.000000
_cell_angle_beta 90.000000
_cell_angle_gamma 90.000000
_cell_volume 2792.355605
_symmetry_space_group_name_H-M "I 2 2 2"
_symmetry_group_IT_number 23
_symmetry_cell_setting 'orthorhombic'
loop_
_space_group_symop_operation_xyz
x,y,z
-x,-y,z
x,-y,-z
-x,y,-z
1/2+x,1/2+y,1/2+z
1/2-x,1/2-y,1/2+z
1/2+x,1/2-y,1/2-z
1/2-x,1/2+y,1/2-z
loop_
_atom_site_type_symbol
_atom_site_label
_atom_site_fract_x
_atom_site_fract_y
_atom_site_fract_z
Si Si1 0.017848 0.290945 0.280088
Si Si2 0.692989 0.175026 0.209676
Si Si3 0.727554 0.000000 0.000000
Si Si4 0.153804 0.179080 0.575234
Si Si5 0.156207 0.754481 0.290837
Si Si6 0.291364 0.704805 0.079652
Si Si7 0.020337 0.291576 0.418845
O O1 0.932700 0.193516 0.264992
O O2 0.000000 0.500000 0.261594
O O3 0.110035 0.233786 0.264582
O O4 0.019970 0.284512 0.349528
O O5 0.768950 0.182093 0.252239
O O6 0.715723 0.258458 0.147664
O O7 0.665985 0.964779 0.202545
O O8 0.683441 0.134353 0.953982
O O9 0.763359 0.844813 0.957158
O O10 0.158307 0.180620 0.644046
O O11 0.056502 0.169453 0.561485
O O12 0.211045 0.006371 0.562151
O O13 0.387053 0.749114 0.064506
O O14 0.000000 0.500000 0.434775
#
# Coordination Sequence:
#
# PCOD9329595 Si02
#       7
#     8   8   4   8   8   8   8
#     4   7  14  27  47  68  99 137 167 209 264 301
#     4  10  18  33  52  75 104 137 174 219 263 312
#     4  12  22  37  46  66 106 129 180 218 254 295
#     4  11  21  33  49  69  93 136 174 210 259 306
#     4  10  18  33  52  75 104 137 174 219 263 312
#     4  11  21  33  49  69  93 136 174 210 259 306
#     4   9  15  31  46  63  97 130 170 217 249 289
#
# _framework density 18.622268999999999
#
# number of rings (size 3 to 8) (size 9 to 14) (size 15 to 20)
#    0.000    2.154    3.077    3.692    0.000    1.231 
#    0.000    3.846    0.000    0.000    0.000    0.000 
#    0.000    2.462    0.000    8.923    0.000    0.154 
#
# Total GULP energy -144756.427103 kJ/mol
# GULP energy per Si atom -5567.554889 kJ/mol
# Density = 1.857988 g / cm^3
# Si number density = 18.622269 Si / 1000 Ang^3
#
#
#
# Elastic Constant Matrix: (Units=GPa)
#
#
# Indices 1 2 3 4 5 6 
#
# 1 82.4800 -5.0117 38.3563 0.0000 0.0000 0.0000
# 2 -5.0117 69.5220 -4.3003 0.0000 0.0000 0.0000
# 3 38.3563 -4.3003 72.2665 0.0000 0.0000 0.0000
# 4 0.0000 0.0000 0.0000 19.2366 0.0000 0.0000
# 5 0.0000 0.0000 0.0000 0.0000 5.2319 0.0000
# 6 0.0000 0.0000 0.0000 0.0000 0.0000 12.0010
#
#
#
# Elastic Compliance Matrix: (Units=1/GPa)
#
#
# Indices 1 2 3 4 5 6 
#
# 1 0.016125 0.000635 -0.008521 0.000000 0.000000 0.000000
# 2 0.000635 0.014462 0.000523 0.000000 0.000000 0.000000
# 3 -0.008521 0.000523 0.018391 0.000000 0.000000 0.000000
# 4 0.000000 0.000000 0.000000 0.051984 0.000000 0.000000
# 5 0.000000 0.000000 0.000000 0.000000 0.191134 0.000000
# 6 0.000000 0.000000 0.000000 0.000000 0.000000 0.083326
#
#
# Mechanical properties :
#
#
# Convention : Reuss Voigt Hill
#
# Bulk Modulus (GPa) = 29.19325 31.37300 30.28313
# Shear Modulus (GPa) = 12.45125 20.30886 16.38006
#
# Velocity S-wave (km/s) = 2.58858 3.30596 2.96901
# Velocity P-wave (km/s) = 4.96436 5.60857 5.29627
#
# Compressibility (1/GPa) = 0.03425449
#
# Stress axis : x y z
#
# Youngs Moduli (GPa) = 62.01437 69.14615 54.37331
#
# Poissons Ratio (x) = -0.04393 0.46331
# Poissons Ratio (y) = -0.03940 -0.02846
# Poissons Ratio (z) = 0.52842 -0.03619
#
# Static dielectric constant tensor:
#      x y z
#    x 1.667090 0.000000 0.000000 
#    y 0.000000 1.761140 0.000000 
#    z 0.000000 0.000000 1.665570 
# 
# From -- ./inp_files/28507.got.cif
#   From: 2010.05.17/outbox.cif.g08.bks.cpg/sg23_15_cif.got.tgz:28507.got - 2010.06.04 12:02:01.
