data_PCOD9329377
_publ_section_title
;
Structure prediction by ZEFSAII (Michael W. Deem and Ramdas Pophale) SiO2 
 PCOD9329377
Probable space group: I 2 2 2
;
_chemical_formula_sum "Si O2"
_cell_formula_units_Z 38
_cell_length_a 15.812321
_cell_length_b 18.481680
_cell_length_c 6.751741
_cell_angle_alpha 90.000000
_cell_angle_beta 90.000000
_cell_angle_gamma 90.000000
_cell_volume 1973.117020
_symmetry_space_group_name_H-M "I 2 2 2"
_symmetry_group_IT_number 23
_symmetry_cell_setting 'orthorhombic'
loop_
_space_group_symop_operation_xyz
x,y,z
-x,-y,z
x,-y,-z
-x,y,-z
1/2+x,1/2+y,1/2+z
1/2-x,1/2-y,1/2+z
1/2+x,1/2-y,1/2-z
1/2-x,1/2+y,1/2-z
loop_
_atom_site_type_symbol
_atom_site_label
_atom_site_fract_x
_atom_site_fract_y
_atom_site_fract_z
Si Si1 0.388434 0.623628 0.687734
Si Si2 0.755523 0.914237 0.510143
Si Si3 0.500000 0.500000 0.500000
Si Si4 0.756408 0.673184 0.612410
Si Si5 0.350900 0.188122 0.745626
Si Si6 0.500000 0.745076 0.500000
O O1 0.344200 0.615290 0.899918
O O2 0.441379 0.552387 0.631590
O O3 0.312502 0.635330 0.530489
O O4 0.447727 0.692350 0.647160
O O5 0.735033 0.876607 0.302886
O O6 0.682802 0.886992 0.658109
O O7 0.760160 0.000000 0.500000
O O8 0.716945 0.749867 0.679125
O O9 0.840538 0.685035 0.482356
O O10 0.436857 0.209830 0.638111
#
# Coordination Sequence:
#
# PCOD9329377 Si02
#       6
#     8   8   2   8   8   4
#     4   9  20  35  57  86 129 160 200 253 312 385
#     4  11  22  37  61  91 122 168 213 263 316 383
#     4  10  16  36  54  84 134 170 188 252 320 384
#     4  10  19  37  62  86 120 165 214 251 303 382
#     4  10  20  37  62  88 124 163 213 262 307 377
#     4   9  20  39  61  94 123 162 214 276 315 370
#
# _framework density 19.258866000000001
#
# number of rings (size 3 to 8) (size 9 to 14) (size 15 to 20)
#    0.000    2.105    2.105    1.263    0.000    2.526 
#    0.000   23.158    0.000    0.000    0.000    8.842 
#    0.000    0.000    0.000    0.000    0.000    0.000 
#
# Total GULP energy -106051.730001 kJ/mol
# GULP energy per Si atom -5581.670000 kJ/mol
# Density = 1.921503 g / cm^3
# Si number density = 19.258866 Si / 1000 Ang^3
#
#
#
# Elastic Constant Matrix: (Units=GPa)
#
#
# Indices 1 2 3 4 5 6 
#
# 1 78.1716 34.3156 38.5373 0.0000 0.0000 0.0000
# 2 34.3156 75.1871 37.8728 0.0000 0.0000 0.0000
# 3 38.5373 37.8728 117.2589 0.0000 0.0000 0.0000
# 4 0.0000 0.0000 0.0000 21.2036 0.0000 0.0000
# 5 0.0000 0.0000 0.0000 0.0000 28.1478 0.0000
# 6 0.0000 0.0000 0.0000 0.0000 0.0000 18.7005
#
#
#
# Elastic Compliance Matrix: (Units=1/GPa)
#
#
# Indices 1 2 3 4 5 6 
#
# 1 0.017268 -0.005998 -0.003738 0.000000 0.000000 0.000000
# 2 -0.005998 0.017968 -0.003832 0.000000 0.000000 0.000000
# 3 -0.003738 -0.003832 0.010994 0.000000 0.000000 0.000000
# 4 0.000000 0.000000 0.000000 0.047162 0.000000 0.000000
# 5 0.000000 0.000000 0.000000 0.000000 0.035527 0.000000
# 6 0.000000 0.000000 0.000000 0.000000 0.000000 0.053475
#
#
# Mechanical properties :
#
#
# Convention : Reuss Voigt Hill
#
# Bulk Modulus (GPa) = 52.37249 54.67434 53.52341
# Shear Modulus (GPa) = 23.15942 24.26985 23.71463
#
# Velocity S-wave (km/s) = 3.47152 3.55377 3.51288
# Velocity P-wave (km/s) = 6.58191 6.72977 6.65625
#
# Compressibility (1/GPa) = 0.01909400
#
# Stress axis : x y z
#
# Youngs Moduli (GPa) = 57.90976 55.65414 90.95653
#
# Poissons Ratio (x) = 0.33384 0.33998
# Poissons Ratio (y) = 0.34737 0.34855
# Poissons Ratio (z) = 0.21646 0.21327
#
# Static dielectric constant tensor:
#      x y z
#    x 1.692550 0.000000 0.000000 
#    y 0.000000 1.657530 0.000000 
#    z 0.000000 0.000000 1.715250 
# 
# From -- ./inp_files/3129.got.cif
#   From: 2010.05.17/outbox.cif.g08.bks.cpg/sg23_2_cif.got.tgz:3129.got - 2010.06.04 12:02:01.
