data_PCOD9329996
_publ_section_title
;
Structure prediction by ZEFSAII (Michael W. Deem and Ramdas Pophale) SiO2 
 PCOD9329996
Probable space group: I 2 2 2
;
_chemical_formula_sum "Si O2"
_cell_formula_units_Z 40
_cell_length_a 13.777583
_cell_length_b 11.308966
_cell_length_c 9.549357
_cell_angle_alpha 90.000000
_cell_angle_beta 90.000000
_cell_angle_gamma 90.000000
_cell_volume 1487.887393
_symmetry_space_group_name_H-M "I 2 2 2"
_symmetry_group_IT_number 23
_symmetry_cell_setting 'orthorhombic'
loop_
_space_group_symop_operation_xyz
x,y,z
-x,-y,z
x,-y,-z
-x,y,-z
1/2+x,1/2+y,1/2+z
1/2-x,1/2-y,1/2+z
1/2+x,1/2-y,1/2-z
1/2-x,1/2+y,1/2-z
loop_
_atom_site_type_symbol
_atom_site_label
_atom_site_fract_x
_atom_site_fract_y
_atom_site_fract_z
Si Si1 0.108391 0.549378 0.849944
Si Si2 0.891951 0.206599 0.998546
Si Si3 0.409430 0.677046 0.789916
Si Si4 0.619222 0.369660 0.073523
Si Si5 0.219987 0.040096 0.185001
O O1 0.177225 0.519044 0.719034
O O2 0.000000 0.500000 0.829635
O O3 0.146801 0.500000 0.000000
O O4 0.106634 0.688045 0.886696
O O5 0.891631 0.258471 0.156458
O O6 0.810672 0.113244 0.951458
O O7 0.000000 0.148745 0.000000
O O8 0.519450 0.659205 0.844657
O O9 0.362390 0.557509 0.725679
O O10 0.360054 0.710189 0.937248
O O11 0.702195 0.368785 0.186662
O O12 0.611370 0.500000 0.000000
#
# Coordination Sequence:
#
# PCOD9329996 Si02
#       5
#     8   8   8   8   8
#     4  11  25  49  70 101 160 220 260 330 425 512
#     4  12  24  41  73 112 146 198 266 336 412 485
#     4  10  19  35  64 109 151 183 253 345 402 462
#     4   9  17  32  60 103 148 189 233 331 409 459
#     4  11  22  40  70 107 150 199 270 331 401 493
#
# _framework density 26.883754
#
# number of rings (size 3 to 8) (size 9 to 14) (size 15 to 20)
#    0.000    1.400    4.000    6.600    0.000    2.400 
#    0.000    0.000    0.000    4.800    5.200    9.800 
#    0.000    0.000    0.000    0.000    0.000    0.000 
#
# Total GULP energy -111749.722301 kJ/mol
# GULP energy per Si atom -5587.486115 kJ/mol
# Density = 2.682257 g / cm^3
# Si number density = 26.883754 Si / 1000 Ang^3
#
#
#
# Elastic Constant Matrix: (Units=GPa)
#
#
# Indices 1 2 3 4 5 6 
#
# 1 139.5900 55.7662 56.9984 0.0000 0.0000 0.0000
# 2 55.7662 97.4767 26.9544 0.0000 0.0000 0.0000
# 3 56.9984 26.9544 194.6030 0.0000 0.0000 0.0000
# 4 0.0000 0.0000 0.0000 24.3358 0.0000 0.0000
# 5 0.0000 0.0000 0.0000 0.0000 44.5933 0.0000
# 6 0.0000 0.0000 0.0000 0.0000 0.0000 37.6724
#
#
#
# Elastic Compliance Matrix: (Units=1/GPa)
#
#
# Indices 1 2 3 4 5 6 
#
# 1 0.010158 -0.005187 -0.002257 0.000000 0.000000 0.000000
# 2 -0.005187 0.013316 -0.000325 0.000000 0.000000 0.000000
# 3 -0.002257 -0.000325 0.005845 0.000000 0.000000 0.000000
# 4 0.000000 0.000000 0.000000 0.041092 0.000000 0.000000
# 5 0.000000 0.000000 0.000000 0.000000 0.022425 0.000000
# 6 0.000000 0.000000 0.000000 0.000000 0.000000 0.026545
#
#
# Mechanical properties :
#
#
# Convention : Reuss Voigt Hill
#
# Bulk Modulus (GPa) = 72.56519 79.01200 75.78860
# Shear Modulus (GPa) = 35.83944 40.78368 38.31156
#
# Velocity S-wave (km/s) = 3.65516 3.89914 3.77912
# Velocity P-wave (km/s) = 6.69809 7.05160 6.87712
#
# Compressibility (1/GPa) = 0.01378071
#
# Stress axis : x y z
#
# Youngs Moduli (GPa) = 98.44921 75.09597 171.09628
#
# Poissons Ratio (x) = 0.38953 0.38610
# Poissons Ratio (y) = 0.51066 0.05563
# Poissons Ratio (z) = 0.22216 0.02442
#
# Static dielectric constant tensor:
#      x y z
#    x 2.107080 0.000000 0.000000 
#    y 0.000000 2.265170 0.000000 
#    z 0.000000 0.000000 2.344300 
# 
# From -- ./inp_files/16520.got.cif
#   From: 2010.05.17/outbox.cif.g08.bks.cpg/sg23_9_cif.got.tgz:16520.got - 2010.06.04 12:02:01.
