data_PCOD9329329
_publ_section_title
;
Structure prediction by ZEFSAII (Michael W. Deem and Ramdas Pophale) SiO2 
 PCOD9329329
Probable space group: I 2 2 2
;
_chemical_formula_sum "Si O2"
_cell_formula_units_Z 56
_cell_length_a 14.010020
_cell_length_b 11.832427
_cell_length_c 14.865051
_cell_angle_alpha 90.000000
_cell_angle_beta 90.000000
_cell_angle_gamma 90.000000
_cell_volume 2464.217245
_symmetry_space_group_name_H-M "I 2 2 2"
_symmetry_group_IT_number 23
_symmetry_cell_setting 'orthorhombic'
loop_
_space_group_symop_operation_xyz
x,y,z
-x,-y,z
x,-y,-z
-x,y,-z
1/2+x,1/2+y,1/2+z
1/2-x,1/2-y,1/2+z
1/2+x,1/2-y,1/2-z
1/2-x,1/2+y,1/2-z
loop_
_atom_site_type_symbol
_atom_site_label
_atom_site_fract_x
_atom_site_fract_y
_atom_site_fract_z
Si Si1 0.071425 0.102820 0.210479
Si Si2 0.899469 0.731437 0.755868
Si Si3 0.287631 0.090270 0.920170
Si Si4 0.776384 0.950101 0.729073
Si Si5 0.008598 0.634549 0.598593
Si Si6 0.389885 0.029615 0.392986
Si Si7 0.892895 0.864876 0.017963
O O1 0.124410 0.150441 0.122981
O O2 0.998401 0.199654 0.235866
O O3 0.140550 0.044934 0.283472
O O4 0.000000 0.000000 0.180632
O O5 0.820155 0.825109 0.735901
O O6 0.880719 0.652305 0.842453
O O7 0.924363 0.664030 0.665995
O O8 0.253904 0.026004 0.831522
O O9 0.379610 0.156623 0.883357
O O10 0.199595 0.164728 0.958826
O O11 0.310797 0.000000 0.000000
O O12 0.689973 0.959250 0.660568
O O13 0.000000 0.500000 0.593883
O O14 0.000000 0.686793 0.500000
O O15 0.500000 0.000000 0.372441
O O16 0.377832 0.000000 0.500000
O O17 0.000000 0.817188 0.000000
O O18 0.898466 0.000000 0.000000
#
# Coordination Sequence:
#
# PCOD9329329 Si02
#       7
#     8   8   8   8   8   8   8
#     4  10  19  37  66 104 143 182 234 301 363 423
#     4  11  25  46  73 105 144 197 247 300 385 451
#     4  11  19  35  65 104 132 180 228 300 376 412
#     4  11  23  44  75 106 146 189 246 317 363 438
#     4  11  23  43  68  96 135 181 239 310 368 435
#     4  11  27  54  71  99 150 203 248 301 375 461
#     4  10  15  29  55  95 139 171 217 290 358 409
#
# _framework density 22.725269000000001
#
# number of rings (size 3 to 8) (size 9 to 14) (size 15 to 20)
#    0.000    1.286    5.714    3.000    0.000    2.286 
#   12.857    0.000    0.000    0.000    0.000    0.000 
#    0.000    0.000    0.000    0.000    0.000    0.000 
#
# Total GULP energy -156040.534147 kJ/mol
# GULP energy per Si atom -5572.876220 kJ/mol
# Density = 2.267355 g / cm^3
# Si number density = 22.725269 Si / 1000 Ang^3
#
#
#
# Elastic Constant Matrix: (Units=GPa)
#
#
# Indices 1 2 3 4 5 6 
#
# 1 161.1713 44.9454 61.5951 0.0000 0.0000 0.0000
# 2 44.9454 86.3397 51.1211 0.0000 0.0000 0.0000
# 3 61.5951 51.1211 116.2944 0.0000 0.0000 0.0000
# 4 0.0000 0.0000 0.0000 9.7292 0.0000 0.0000
# 5 0.0000 0.0000 0.0000 0.0000 18.9563 0.0000
# 6 0.0000 0.0000 0.0000 0.0000 0.0000 22.9465
#
#
#
# Elastic Compliance Matrix: (Units=1/GPa)
#
#
# Indices 1 2 3 4 5 6 
#
# 1 0.008094 -0.002265 -0.003292 0.000000 0.000000 0.000000
# 2 -0.002265 0.016291 -0.005962 0.000000 0.000000 0.000000
# 3 -0.003292 -0.005962 0.012963 0.000000 0.000000 0.000000
# 4 0.000000 0.000000 0.000000 0.102783 0.000000 0.000000
# 5 0.000000 0.000000 0.000000 0.000000 0.052753 0.000000
# 6 0.000000 0.000000 0.000000 0.000000 0.000000 0.043580
#
#
# Mechanical properties :
#
#
# Convention : Reuss Voigt Hill
#
# Bulk Modulus (GPa) = 69.87094 75.45873 72.66484
# Shear Modulus (GPa) = 18.92002 24.06932 21.49467
#
# Velocity S-wave (km/s) = 2.88853 3.25798 3.07880
# Velocity P-wave (km/s) = 6.47592 6.88690 6.68457
#
# Compressibility (1/GPa) = 0.01431210
#
# Stress axis : x y z
#
# Youngs Moduli (GPa) = 123.54805 61.38372 77.14310
#
# Poissons Ratio (x) = 0.13901 0.25392
# Poissons Ratio (y) = 0.27978 0.45991
# Poissons Ratio (z) = 0.40666 0.36596
#
# Static dielectric constant tensor:
#      x y z
#    x 2.025130 0.000000 0.000000 
#    y 0.000000 2.444280 0.000000 
#    z 0.000000 0.000000 1.919120 
# 
# From -- ./inp_files/21597.got.cif
#   From: 2010.05.17/outbox.cif.g08.bks.cpg/sg23_11_cif.got.tgz:21597.got - 2010.06.04 12:02:01.
