data_PCOD9329403
_publ_section_title
;
Structure prediction by ZEFSAII (Michael W. Deem and Ramdas Pophale) SiO2 
 PCOD9329403
Probable space group: I 2 2 2
;
_chemical_formula_sum "Si O2"
_cell_formula_units_Z 54
_cell_length_a 5.603537
_cell_length_b 29.423493
_cell_length_c 19.393954
_cell_angle_alpha 90.000000
_cell_angle_beta 90.000000
_cell_angle_gamma 90.000000
_cell_volume 3197.590417
_symmetry_space_group_name_H-M "I 2 2 2"
_symmetry_group_IT_number 23
_symmetry_cell_setting 'orthorhombic'
loop_
_space_group_symop_operation_xyz
x,y,z
-x,-y,z
x,-y,-z
-x,y,-z
1/2+x,1/2+y,1/2+z
1/2-x,1/2-y,1/2+z
1/2+x,1/2-y,1/2-z
1/2-x,1/2+y,1/2-z
loop_
_atom_site_type_symbol
_atom_site_label
_atom_site_fract_x
_atom_site_fract_y
_atom_site_fract_z
Si Si1 0.074395 0.601463 0.763483
Si Si2 0.681615 0.536844 0.610533
Si Si3 0.936494 0.860561 0.117874
Si Si4 0.931747 0.753733 0.291895
Si Si5 0.434371 0.838696 0.123182
Si Si6 0.500000 0.000000 0.769590
Si Si7 0.000000 0.500000 0.500000
Si Si8 0.926960 0.853657 0.281517
O O1 0.069072 0.622332 0.684700
O O2 0.322442 0.620678 0.794234
O O3 0.077581 0.546758 0.766588
O O4 0.821614 0.619635 0.793583
O O5 0.500000 0.500000 0.583097
O O6 0.565434 0.585118 0.620857
O O7 0.787693 0.517471 0.681155
O O8 0.881676 0.535378 0.553041
O O9 0.685716 0.845554 0.086067
O O10 0.930929 0.843791 0.198180
O O11 0.183251 0.844665 0.085505
O O12 0.683484 0.749069 0.249321
O O13 0.934749 0.711058 0.342843
O O14 0.924206 0.805274 0.319416
#
# Coordination Sequence:
#
# PCOD9329403 Si02
#       8
#     8   8   8   8   8   4   2   8
#     4  10  18  26  35  53  73  86 124 138 174 212
#     4  11  21  34  46  55  71  92 116 160 198 244
#     4  10  18  28  43  54  73  87 114 142 176 219
#     4  12  16  24  39  51  78  98 110 137 167 203
#     4  10  17  28  37  60  72  92 115 137 168 227
#     4  11  20  27  44  56  68  98 114 160 192 220
#     4  10  26  36  44  62  68  88 134 148 218 252
#     4  10  17  27  36  56  72  95 115 139 166 223
#
# _framework density 16.887715
#
# number of rings (size 3 to 8) (size 9 to 14) (size 15 to 20)
#    0.000    1.481    8.889    2.000    2.074    0.000 
#    0.000    0.000    0.000    0.000    0.000    0.000 
#    0.000    0.000    0.000    0.000    0.000    0.000 
#
# Total GULP energy -150307.937593 kJ/mol
# GULP energy per Si atom -5566.960652 kJ/mol
# Density = 1.684928 g / cm^3
# Si number density = 16.887715 Si / 1000 Ang^3
#
#
#
# Elastic Constant Matrix: (Units=GPa)
#
#
# Indices 1 2 3 4 5 6 
#
# 1 167.1437 54.7434 5.5912 0.0000 0.0000 0.0000
# 2 54.7434 146.2477 13.9052 0.0000 0.0000 0.0000
# 3 5.5912 13.9052 5.3525 0.0000 0.0000 0.0000
# 4 0.0000 0.0000 0.0000 -4.7746 0.0000 0.0000
# 5 0.0000 0.0000 0.0000 0.0000 55.4348 0.0000
# 6 0.0000 0.0000 0.0000 0.0000 0.0000 23.1342
#
#
#
# Elastic Compliance Matrix: (Units=1/GPa)
#
#
# Indices 1 2 3 4 5 6 
#
# 1 0.006821 -0.002491 -0.000654 0.000000 0.000000 0.000000
# 2 -0.002491 0.009990 -0.023352 0.000000 0.000000 0.000000
# 3 -0.000654 -0.023352 0.248174 0.000000 0.000000 0.000000
# 4 0.000000 0.000000 0.000000 -0.209442 0.000000 0.000000
# 5 0.000000 0.000000 0.000000 0.000000 0.018039 0.000000
# 6 0.000000 0.000000 0.000000 0.000000 0.000000 0.043226
#
#
# Mechanical properties :
#
#
# Convention : Reuss Voigt Hill
#
# Bulk Modulus (GPa) = 4.71714 51.91373 28.31544
# Shear Modulus (GPa) = 20.79309 31.05916 25.92613
#
# Velocity S-wave (km/s) = 3.51273 4.29319 3.92242
# Velocity P-wave (km/s) = 4.38767 7.44195 6.10878
#
# Compressibility (1/GPa) = 0.21199280
#
# Stress axis : x y z
#
# Youngs Moduli (GPa) = 146.61514 100.09625 4.02943
#
# Poissons Ratio (x) = 0.24933 0.00263
# Poissons Ratio (y) = 0.36521 0.09409
# Poissons Ratio (z) = 0.09583 2.33741
#
# Static dielectric constant tensor:
#      x y z
#    x 1.666480 0.000000 0.000000 
#    y 0.000000 1.526990 0.000000 
#    z 0.000000 0.000000 1.533180 
# 
# From -- ./inp_files/4086.got.cif
#   From: 2010.05.17/outbox.cif.g08.bks.cpg/sg23_3_cif.got.tgz:4086.got - 2010.06.04 12:02:01.
