data_PCOD9329578
_publ_section_title
;
Structure prediction by ZEFSAII (Michael W. Deem and Ramdas Pophale) SiO2 
 PCOD9329578
Probable space group: I 2 2 2
;
_chemical_formula_sum "Si O2"
_cell_formula_units_Z 54
_cell_length_a 19.263197
_cell_length_b 7.725112
_cell_length_c 19.011169
_cell_angle_alpha 90.000000
_cell_angle_beta 90.000000
_cell_angle_gamma 90.000000
_cell_volume 2829.058795
_symmetry_space_group_name_H-M "I 2 2 2"
_symmetry_group_IT_number 23
_symmetry_cell_setting 'orthorhombic'
loop_
_space_group_symop_operation_xyz
x,y,z
-x,-y,z
x,-y,-z
-x,y,-z
1/2+x,1/2+y,1/2+z
1/2-x,1/2-y,1/2+z
1/2+x,1/2-y,1/2-z
1/2-x,1/2+y,1/2-z
loop_
_atom_site_type_symbol
_atom_site_label
_atom_site_fract_x
_atom_site_fract_y
_atom_site_fract_z
Si Si1 0.500000 0.500000 0.000000
Si Si2 0.137040 0.025744 0.264979
Si Si3 0.565381 0.722912 0.881477
Si Si4 0.791340 0.360403 0.563370
Si Si5 0.760569 0.483475 0.119264
Si Si6 0.636292 0.136461 0.734601
Si Si7 0.735310 0.643395 0.654833
Si Si8 0.000000 0.500000 0.697212
O O1 0.547406 0.385528 0.050324
O O2 0.078780 0.105467 0.313615
O O3 0.200559 0.015317 0.320817
O O4 0.167753 0.147461 0.204156
O O5 0.117701 0.839822 0.234069
O O6 0.633481 0.835522 0.899970
O O7 0.502795 0.840651 0.856426
O O8 0.799673 0.500000 0.500000
O O9 0.762171 0.161633 0.562286
O O10 0.738891 0.463221 0.614097
O O11 0.829100 0.424540 0.161746
O O12 0.764254 0.689117 0.104306
O O13 0.697192 0.132536 0.794150
O O14 0.569883 0.023559 0.757605
#
# Coordination Sequence:
#
# PCOD9329578 Si02
#       8
#     2   8   8   8   8   8   8   4
#     4  12  28  42  56  72 124 182 210 230 270 352
#     4   9  18  35  59  78 105 144 207 253 295 333
#     4  11  25  39  54  79 112 167 211 239 278 347
#     4  11  23  37  56  84 117 155 203 238 298 355
#     4   9  19  33  56  83 108 146 192 248 304 345
#     4  10  18  32  55  82 111 144 191 248 302 344
#     4  10  18  35  58  81 111 148 192 257 304 339
#     4  12  22  33  56  80 116 153 202 246 288 350
#
# _framework density 19.087620999999999
#
# number of rings (size 3 to 8) (size 9 to 14) (size 15 to 20)
#    0.000    1.778    2.963    1.778    6.222    4.148 
#    0.000    0.000    0.000    0.000    0.000    0.000 
#    0.000   14.222    0.000    0.296    0.000    0.000 
#
# Total GULP energy -150381.453639 kJ/mol
# GULP energy per Si atom -5569.683468 kJ/mol
# Density = 1.904418 g / cm^3
# Si number density = 19.087621 Si / 1000 Ang^3
#
#
#
# Elastic Constant Matrix: (Units=GPa)
#
#
# Indices 1 2 3 4 5 6 
#
# 1 42.7429 17.0277 15.9052 0.0000 0.0000 0.0000
# 2 17.0277 94.1327 11.2597 0.0000 0.0000 0.0000
# 3 15.9052 11.2597 30.0268 0.0000 0.0000 0.0000
# 4 0.0000 0.0000 0.0000 31.5843 0.0000 0.0000
# 5 0.0000 0.0000 0.0000 0.0000 14.7124 0.0000
# 6 0.0000 0.0000 0.0000 0.0000 0.0000 23.9222
#
#
#
# Elastic Compliance Matrix: (Units=1/GPa)
#
#
# Indices 1 2 3 4 5 6 
#
# 1 0.030343 -0.003734 -0.014673 0.000000 0.000000 0.000000
# 2 -0.003734 0.011582 -0.002365 0.000000 0.000000 0.000000
# 3 -0.014673 -0.002365 0.041963 0.000000 0.000000 0.000000
# 4 0.000000 0.000000 0.000000 0.031661 0.000000 0.000000
# 5 0.000000 0.000000 0.000000 0.000000 0.067970 0.000000
# 6 0.000000 0.000000 0.000000 0.000000 0.000000 0.041802
#
#
# Mechanical properties :
#
#
# Convention : Reuss Voigt Hill
#
# Bulk Modulus (GPa) = 23.61602 28.36530 25.99066
# Shear Modulus (GPa) = 17.79497 22.22444 20.00971
#
# Velocity S-wave (km/s) = 3.05664 3.41594 3.24127
# Velocity P-wave (km/s) = 4.98564 5.51825 5.25869
#
# Compressibility (1/GPa) = 0.04234414
#
# Stress axis : x y z
#
# Youngs Moduli (GPa) = 32.95658 86.34383 23.83073
#
# Poissons Ratio (x) = 0.32238 0.34966
# Poissons Ratio (y) = 0.12305 0.05637
# Poissons Ratio (z) = 0.48356 0.20422
#
# Static dielectric constant tensor:
#      x y z
#    x 1.735150 0.000000 0.000000 
#    y 0.000000 1.746810 0.000000 
#    z 0.000000 0.000000 1.683340 
# 
# From -- ./inp_files/25250.got.cif
#   From: 2010.05.17/outbox.cif.g08.bks.cpg/sg23_13_cif.got.tgz:25250.got - 2010.06.04 12:02:01.
