data_PCOD9329857
_publ_section_title
;
Structure prediction by ZEFSAII (Michael W. Deem and Ramdas Pophale) SiO2 
 PCOD9329857
Probable space group: I 2 2 2
;
_chemical_formula_sum "Si O2"
_cell_formula_units_Z 58
_cell_length_a 5.156862
_cell_length_b 31.303746
_cell_length_c 22.167518
_cell_angle_alpha 90.000000
_cell_angle_beta 90.000000
_cell_angle_gamma 90.000000
_cell_volume 3578.482440
_symmetry_space_group_name_H-M "I 2 2 2"
_symmetry_group_IT_number 23
_symmetry_cell_setting 'orthorhombic'
loop_
_space_group_symop_operation_xyz
x,y,z
-x,-y,z
x,-y,-z
-x,y,-z
1/2+x,1/2+y,1/2+z
1/2-x,1/2-y,1/2+z
1/2+x,1/2-y,1/2-z
1/2-x,1/2+y,1/2-z
loop_
_atom_site_type_symbol
_atom_site_label
_atom_site_fract_x
_atom_site_fract_y
_atom_site_fract_z
Si Si1 0.500000 0.000000 0.500000
Si Si2 0.150762 0.566133 0.910416
Si Si3 0.628534 0.046210 0.271529
Si Si4 0.685687 0.756664 0.831781
Si Si5 0.634141 0.381057 0.099312
Si Si6 0.318503 0.696152 0.281751
Si Si7 0.253627 0.710543 0.042199
Si Si8 0.377303 0.397698 0.759373
O O1 0.325456 0.971040 0.457804
O O2 0.185867 0.547079 0.843404
O O3 0.358757 0.602649 0.924680
O O4 0.862048 0.585200 0.913020
O O5 0.397509 0.078866 0.258089
O O6 0.893074 0.067912 0.245289
O O7 0.500000 0.000000 0.255883
O O8 0.685603 0.715866 0.786258
O O9 0.432569 0.784794 0.815785
O O10 0.721298 0.741666 0.900252
O O11 0.932411 0.784014 0.813099
O O12 0.723283 0.336694 0.071173
O O13 0.590339 0.381030 0.171628
O O14 0.353537 0.645271 0.279569
O O15 0.500000 0.717328 0.000000
O O16 0.000000 0.714735 0.000000
#
# Coordination Sequence:
#
# PCOD9329857 Si02
#       8
#     2   8   8   8   8   8   8   8
#     4  12  24  38  48  62  84 122 188 214 288 302
#     4  10  23  34  49  61  87 121 165 223 264 312
#     4  10  19  34  47  71  96 129 161 210 264 321
#     4  10  21  35  53  78 104 129 169 219 269 309
#     4  10  22  38  48  69  92 122 168 217 267 313
#     4  10  19  35  56  77 100 128 171 225 268 306
#     4  12  24  37  54  74 104 139 171 207 266 332
#     4  10  19  33  56  71  97 126 172 212 270 315
#
# _framework density 16.207989000000001
#
# number of rings (size 3 to 8) (size 9 to 14) (size 15 to 20)
#    0.000    1.655    2.069    2.897    2.897    1.103 
#    0.000    0.000    0.000    0.000    0.000    0.000 
#    0.000    0.000    0.000    0.000    0.000  144.828 
#
# Total GULP energy -161775.342785 kJ/mol
# GULP energy per Si atom -5578.460096 kJ/mol
# Density = 1.617110 g / cm^3
# Si number density = 16.207989 Si / 1000 Ang^3
#
#
#
# Elastic Constant Matrix: (Units=GPa)
#
#
# Indices 1 2 3 4 5 6 
#
# 1 106.4679 20.2810 25.3132 0.0000 0.0000 0.0000
# 2 20.2810 82.0550 27.0549 0.0000 0.0000 0.0000
# 3 25.3132 27.0549 62.8627 0.0000 0.0000 0.0000
# 4 0.0000 0.0000 0.0000 23.2086 0.0000 0.0000
# 5 0.0000 0.0000 0.0000 0.0000 4.4432 0.0000
# 6 0.0000 0.0000 0.0000 0.0000 0.0000 3.4496
#
#
#
# Elastic Compliance Matrix: (Units=1/GPa)
#
#
# Indices 1 2 3 4 5 6 
#
# 1 0.010524 -0.001403 -0.003634 0.000000 0.000000 0.000000
# 2 -0.001403 0.014389 -0.005628 0.000000 0.000000 0.000000
# 3 -0.003634 -0.005628 0.019793 0.000000 0.000000 0.000000
# 4 0.000000 0.000000 0.000000 0.043087 0.000000 0.000000
# 5 0.000000 0.000000 0.000000 0.000000 0.225062 0.000000
# 6 0.000000 0.000000 0.000000 0.000000 0.000000 0.289890
#
#
# Mechanical properties :
#
#
# Convention : Reuss Voigt Hill
#
# Bulk Modulus (GPa) = 42.77770 44.07599 43.42685
# Shear Modulus (GPa) = 7.91306 18.13606 13.02456
#
# Velocity S-wave (km/s) = 2.21197 3.34871 2.83784
# Velocity P-wave (km/s) = 5.74230 6.49653 6.13102
#
# Compressibility (1/GPa) = 0.02337667
#
# Stress axis : x y z
#
# Youngs Moduli (GPa) = 95.02361 69.49589 50.52264
#
# Poissons Ratio (x) = 0.09750 0.18359
# Poissons Ratio (y) = 0.13331 0.28434
# Poissons Ratio (z) = 0.34530 0.39112
#
# Static dielectric constant tensor:
#      x y z
#    x 1.641820 0.000000 0.000000 
#    y 0.000000 1.539510 0.000000 
#    z 0.000000 0.000000 1.533120 
# 
# From -- ./inp_files/23279.got.cif
#   From: 2010.05.17/outbox.cif.g08.bks.cpg/sg23_12_cif.got.tgz:23279.got - 2010.06.04 12:02:01.
