data_PCOD9329853
_publ_section_title
;
Structure prediction by ZEFSAII (Michael W. Deem and Ramdas Pophale) SiO2 
 PCOD9329853
Probable space group: I 2 2 2
;
_chemical_formula_sum "Si O2"
_cell_formula_units_Z 52
_cell_length_a 7.176136
_cell_length_b 14.744849
_cell_length_c 20.555516
_cell_angle_alpha 90.000000
_cell_angle_beta 90.000000
_cell_angle_gamma 90.000000
_cell_volume 2175.000561
_symmetry_space_group_name_H-M "I 2 2 2"
_symmetry_group_IT_number 23
_symmetry_cell_setting 'orthorhombic'
loop_
_space_group_symop_operation_xyz
x,y,z
-x,-y,z
x,-y,-z
-x,y,-z
1/2+x,1/2+y,1/2+z
1/2-x,1/2-y,1/2+z
1/2+x,1/2-y,1/2-z
1/2-x,1/2+y,1/2-z
loop_
_atom_site_type_symbol
_atom_site_label
_atom_site_fract_x
_atom_site_fract_y
_atom_site_fract_z
Si Si1 0.347405 0.313090 0.432832
Si Si2 0.000000 0.000000 0.918833
Si Si3 0.718643 0.751123 0.059913
Si Si4 0.864148 0.727380 0.803279
Si Si5 0.359600 0.923817 0.861010
Si Si6 0.188709 0.460247 0.789125
Si Si7 0.786820 0.846881 0.682053
O O1 0.352821 0.551096 0.374936
O O2 0.206631 0.262537 0.482002
O O3 0.555847 0.269930 0.436014
O O4 0.300707 0.300361 0.357073
O O5 0.124013 0.080635 0.951280
O O6 0.618530 0.832329 0.098879
O O7 0.670416 0.665709 0.105301
O O8 0.741258 0.636110 0.815357
O O9 0.872188 0.776915 0.734057
O O10 0.071139 0.687594 0.813524
O O11 0.371709 0.927334 0.783259
O O12 0.500000 0.000000 0.886059
O O13 0.311167 0.550717 0.792161
O O14 0.000000 0.500000 0.822193
#
# Coordination Sequence:
#
# PCOD9329853 Si02
#       7
#     8   4   8   8   8   8   8
#     4   9  19  33  54  80 110 151 186 237 294 349
#     4  10  20  35  54  80 112 148 191 232 290 359
#     4   9  18  34  53  77 112 148 187 233 293 354
#     4  10  19  35  55  80 111 147 190 241 295 353
#     4  10  19  33  55  81 112 148 186 237 290 347
#     4   9  18  32  53  81 112 144 187 242 295 346
#     4  10  19  34  56  78 109 151 188 240 298 348
#
# _framework density 23.908038999999999
#
# number of rings (size 3 to 8) (size 9 to 14) (size 15 to 20)
#    0.000    2.462    1.538    0.923    0.000    4.923 
#    0.000    2.308    0.000    5.538    0.000    0.000 
#    0.000    2.462    0.000    0.000    0.000    0.000 
#
# Total GULP energy -144829.099446 kJ/mol
# GULP energy per Si atom -5570.349979 kJ/mol
# Density = 2.385362 g / cm^3
# Si number density = 23.908039 Si / 1000 Ang^3
#
#
#
# Elastic Constant Matrix: (Units=GPa)
#
#
# Indices 1 2 3 4 5 6 
#
# 1 51.7081 10.5434 6.8434 0.0000 0.0000 0.0000
# 2 10.5434 135.9132 42.9424 0.0000 0.0000 0.0000
# 3 6.8434 42.9424 125.3321 0.0000 0.0000 0.0000
# 4 0.0000 0.0000 0.0000 24.7743 0.0000 0.0000
# 5 0.0000 0.0000 0.0000 0.0000 14.9479 0.0000
# 6 0.0000 0.0000 0.0000 0.0000 0.0000 21.9904
#
#
#
# Elastic Compliance Matrix: (Units=1/GPa)
#
#
# Indices 1 2 3 4 5 6 
#
# 1 0.019693 -0.001332 -0.000619 0.000000 0.000000 0.000000
# 2 -0.001332 0.008341 -0.002785 0.000000 0.000000 0.000000
# 3 -0.000619 -0.002785 0.008967 0.000000 0.000000 0.000000
# 4 0.000000 0.000000 0.000000 0.040364 0.000000 0.000000
# 5 0.000000 0.000000 0.000000 0.000000 0.066899 0.000000
# 6 0.000000 0.000000 0.000000 0.000000 0.000000 0.045474
#
#
# Mechanical properties :
#
#
# Convention : Reuss Voigt Hill
#
# Bulk Modulus (GPa) = 36.32601 48.17909 42.25255
# Shear Modulus (GPa) = 23.99386 29.18414 26.58900
#
# Velocity S-wave (km/s) = 3.17138 3.49762 3.33849
# Velocity P-wave (km/s) = 5.35138 6.04208 5.70719
#
# Compressibility (1/GPa) = 0.02752848
#
# Stress axis : x y z
#
# Youngs Moduli (GPa) = 50.77982 119.89048 111.52185
#
# Poissons Ratio (x) = 0.15971 0.06901
# Poissons Ratio (y) = 0.06765 0.31060
# Poissons Ratio (z) = 0.03142 0.33391
#
# Static dielectric constant tensor:
#      x y z
#    x 2.081150 0.000000 0.000000 
#    y 0.000000 2.045870 0.000000 
#    z 0.000000 0.000000 2.000530 
# 
# From -- ./inp_files/26222.got.cif
#   From: 2010.05.17/outbox.cif.g08.bks.cpg/sg23_14_cif.got.tgz:26222.got - 2010.06.04 12:02:01.
