data_PCOD9329258
_publ_section_title
;
Structure prediction by ZEFSAII (Michael W. Deem and Ramdas Pophale) SiO2 
 PCOD9329258
Probable space group: F 2 2 2
;
_chemical_formula_sum "Si O2"
_cell_formula_units_Z 56
_cell_length_a 14.303418
_cell_length_b 30.971065
_cell_length_c 5.578896
_cell_angle_alpha 90.000000
_cell_angle_beta 90.000000
_cell_angle_gamma 90.000000
_cell_volume 2471.406791
_symmetry_space_group_name_H-M "F 2 2 2"
_symmetry_group_IT_number 22
_symmetry_cell_setting 'orthorhombic'
loop_
_space_group_symop_operation_xyz
x,y,z
-x,-y,z
x,-y,-z
-x,y,-z
x,1/2+y,1/2+z
-x,1/2-y,1/2+z
x,1/2-y,1/2-z
-x,1/2+y,1/2-z
1/2+x,y,1/2+z
1/2-x,-y,1/2+z
1/2+x,-y,1/2-z
1/2-x,y,1/2-z
1/2+x,1/2+y,z
1/2-x,1/2-y,z
1/2+x,1/2-y,-z
1/2-x,1/2+y,-z
loop_
_atom_site_type_symbol
_atom_site_label
_atom_site_fract_x
_atom_site_fract_y
_atom_site_fract_z
Si Si1 0.250000 0.250000 0.750000
Si Si2 0.855310 0.043035 0.842787
Si Si3 0.653001 0.171552 0.012108
Si Si4 0.000000 0.000000 0.500000
Si Si5 0.363458 0.862275 0.506681
O O1 0.313294 0.219785 0.920386
O O2 0.750000 0.049376 0.750000
O O3 0.931300 0.031349 0.644814
O O4 0.883181 0.087205 0.971443
O O5 0.853424 0.000000 0.000000
O O6 0.601178 0.155216 0.251375
O O7 0.609590 0.163118 0.751191
O O8 0.750951 0.145014 0.003277
#
# Coordination Sequence:
#
# PCOD9329258 Si02
#       5
#     4  16  16   4  16
#     4   8  16  26  48  78 140 154 204 286 318 382
#     4  12  25  42  67  90 132 183 219 295 336 393
#     4   9  17  29  49  86 116 175 209 257 335 403
#     4  12  30  44  64 104 120 176 254 268 342 418
#     4   9  19  32  53  81 118 168 220 249 336 395
#
# _framework density 22.659158999999999
#
# number of rings (size 3 to 8) (size 9 to 14) (size 15 to 20)
#    0.000    2.286    4.286    0.429    8.000    9.143 
#    0.000    0.000    0.000    0.000    0.000    0.000 
#    0.000    9.143    0.000    0.000    0.000    0.000 
#
# Total GULP energy -78129.768083 kJ/mol
# GULP energy per Si atom -5580.697720 kJ/mol
# Density = 2.260759 g / cm^3
# Si number density = 22.659159 Si / 1000 Ang^3
#
#
#
# Elastic Constant Matrix: (Units=GPa)
#
#
# Indices 1 2 3 4 5 6 
#
# 1 117.3861 13.2173 28.6461 -0.0010 -0.0032 0.0003
# 2 13.2173 188.2735 74.3353 0.0000 0.0001 0.0001
# 3 28.6461 74.3353 208.9087 -0.0080 -0.0044 0.0000
# 4 -0.0010 0.0000 -0.0080 68.6676 0.0015 0.0005
# 5 -0.0032 0.0001 -0.0044 0.0015 -33.4168 -0.0003
# 6 0.0003 0.0001 0.0000 0.0005 -0.0003 -27.1587
#
#
#
# Elastic Compliance Matrix: (Units=1/GPa)
#
#
# Indices 1 2 3 4 5 6 
#
# 1 0.008818 -0.000165 -0.001151 0.000000 -0.000001 0.000000
# 2 -0.000165 0.006183 -0.002177 0.000000 0.000000 0.000000
# 3 -0.001151 -0.002177 0.005719 0.000001 -0.000001 0.000000
# 4 0.000000 0.000000 0.000001 0.014563 0.000001 0.000000
# 5 -0.000001 0.000000 -0.000001 0.000001 -0.029925 0.000000
# 6 0.000000 0.000000 0.000000 0.000000 0.000000 -0.036821
#
#
# Mechanical properties :
#
#
# Convention : Reuss Voigt Hill
#
# Bulk Modulus (GPa) = 72.80776 82.99620 77.90198
# Shear Modulus (GPa) = -251.27003 28.17639 -111.54682
#
# Velocity S-wave (km/s) = -10.54191 3.53014 -7.02389
# Velocity P-wave (km/s) = 10.76914 7.30229 5.59692
#
# Compressibility (1/GPa) = 0.01373480
#
# Stress axis : x y z
#
# Youngs Moduli (GPa) = 113.40158 161.74243 174.84635
#
# Poissons Ratio (x) = 0.02666 0.20117
# Poissons Ratio (y) = 0.01869 0.38070
# Poissons Ratio (z) = 0.13047 0.35217
#
# Static dielectric constant tensor:
#      x y z
#    x 1.743170 0.000000 0.000000 
#    y 0.000000 1.819320 0.000000 
#    z 0.000000 0.000000 1.931250 
# 
# From -- ./inp_files/1936.got.cif
#   From: 2010.05.17/outbox.cif.g08.bks.cpg/sg22_1_cif.got.tgz:1936.got - 2010.06.03 23:40:54.
