data_PCOD9329584
_publ_section_title
;
Structure prediction by ZEFSAII (Michael W. Deem and Ramdas Pophale) SiO2 
 PCOD9329584
Probable space group: I 2 2 2
;
_chemical_formula_sum "Si O2"
_cell_formula_units_Z 34
_cell_length_a 14.778266
_cell_length_b 10.888565
_cell_length_c 9.603161
_cell_angle_alpha 90.000000
_cell_angle_beta 90.000000
_cell_angle_gamma 90.000000
_cell_volume 1545.284105
_symmetry_space_group_name_H-M "I 2 2 2"
_symmetry_group_IT_number 23
_symmetry_cell_setting 'orthorhombic'
loop_
_space_group_symop_operation_xyz
x,y,z
-x,-y,z
x,-y,-z
-x,y,-z
1/2+x,1/2+y,1/2+z
1/2-x,1/2-y,1/2+z
1/2+x,1/2-y,1/2-z
1/2-x,1/2+y,1/2-z
loop_
_atom_site_type_symbol
_atom_site_label
_atom_site_fract_x
_atom_site_fract_y
_atom_site_fract_z
Si Si1 0.862453 0.619873 0.575950
Si Si2 0.500000 0.500000 0.000000
Si Si3 0.638504 0.335428 0.132747
Si Si4 0.646942 0.883441 0.398862
Si Si5 0.143602 0.136583 0.051439
O O1 0.896668 0.500000 0.500000
O O2 0.889713 0.735991 0.483188
O O3 0.884504 0.608880 0.738716
O O4 0.752922 0.623323 0.558976
O O5 0.570756 0.556794 0.894207
O O6 0.742823 0.373861 0.107971
O O7 0.624038 0.309003 0.294995
O O8 0.616928 0.748762 0.451531
O O9 0.624245 0.000000 0.500000
O O10 0.111698 0.000000 0.000000
#
# Coordination Sequence:
#
# PCOD9329584 Si02
#       5
#     8   2   8   8   8
#     4   9  18  32  56  85 111 141 188 244 292 327
#     4  12  24  36  56  76 120 168 190 212 264 364
#     4  10  21  35  53  79 116 154 195 221 279 344
#     4  10  18  32  58  86 114 143 184 247 295 326
#     4   9  19  32  54  84 116 144 185 245 292 327
#
# _framework density 22.002427000000001
#
# number of rings (size 3 to 8) (size 9 to 14) (size 15 to 20)
#    0.000    2.353    1.176    1.412    3.294    5.647 
#    0.000    1.176    0.000    0.000    0.000    0.000 
#    0.000    0.000    0.000    0.000    0.000    0.000 
#
# Total GULP energy -94664.343951 kJ/mol
# GULP energy per Si atom -5568.490821 kJ/mol
# Density = 2.195235 g / cm^3
# Si number density = 22.002427 Si / 1000 Ang^3
#
#
#
# Elastic Constant Matrix: (Units=GPa)
#
#
# Indices 1 2 3 4 5 6 
#
# 1 31.4878 -13.1642 1.1959 0.0000 0.0000 0.0000
# 2 -13.1642 92.1819 68.6361 0.0000 0.0000 0.0000
# 3 1.1959 68.6361 189.1404 0.0000 0.0000 0.0000
# 4 0.0000 0.0000 0.0000 43.9965 0.0000 0.0000
# 5 0.0000 0.0000 0.0000 0.0000 -12.6862 0.0000
# 6 0.0000 0.0000 0.0000 0.0000 0.0000 8.7113
#
#
#
# Elastic Compliance Matrix: (Units=1/GPa)
#
#
# Indices 1 2 3 4 5 6 
#
# 1 0.034805 0.007035 -0.002773 0.000000 0.000000 0.000000
# 2 0.007035 0.016286 -0.005955 0.000000 0.000000 0.000000
# 3 -0.002773 -0.005955 0.007465 0.000000 0.000000 0.000000
# 4 0.000000 0.000000 0.000000 0.022729 0.000000 0.000000
# 5 0.000000 0.000000 0.000000 0.000000 -0.078826 0.000000
# 6 0.000000 0.000000 0.000000 0.000000 0.000000 0.114793
#
#
# Mechanical properties :
#
#
# Convention : Reuss Voigt Hill
#
# Bulk Modulus (GPa) = 18.12524 47.34951 32.73738
# Shear Modulus (GPa) = 35.96393 25.08049 30.52221
#
# Velocity S-wave (km/s) = 4.04734 3.37990 3.72858
# Velocity P-wave (km/s) = 5.48607 6.06617 5.78340
#
# Compressibility (1/GPa) = 0.05517167
#
# Stress axis : x y z
#
# Youngs Moduli (GPa) = 28.73166 61.40104 133.95088
#
# Poissons Ratio (x) = -0.43196 0.37144
# Poissons Ratio (y) = -0.20213 0.79762
# Poissons Ratio (z) = 0.07967 0.36562
#
# Static dielectric constant tensor:
#      x y z
#    x 1.789730 0.000000 0.000000 
#    y 0.000000 1.883120 0.000000 
#    z 0.000000 0.000000 1.543700 
# 
# From -- ./inp_files/7977.got.cif
#   From: 2010.05.17/outbox.cif.g08.bks.cpg/sg23_4_cif.got.tgz:7977.got - 2010.06.04 12:02:01.
