data_PCOD9329196
_publ_section_title
;
Structure prediction by ZEFSAII (Michael W. Deem and Ramdas Pophale) SiO2 
 PCOD9329196
Probable space group: F 2 2 2
;
_chemical_formula_sum "Si O2"
_cell_formula_units_Z 72
_cell_length_a 8.719679
_cell_length_b 20.936499
_cell_length_c 15.461210
_cell_angle_alpha 90.000000
_cell_angle_beta 90.000000
_cell_angle_gamma 90.000000
_cell_volume 2822.591550
_symmetry_space_group_name_H-M "F 2 2 2"
_symmetry_group_IT_number 22
_symmetry_cell_setting 'orthorhombic'
loop_
_space_group_symop_operation_xyz
x,y,z
-x,-y,z
x,-y,-z
-x,y,-z
x,1/2+y,1/2+z
-x,1/2-y,1/2+z
x,1/2-y,1/2-z
-x,1/2+y,1/2-z
1/2+x,y,1/2+z
1/2-x,-y,1/2+z
1/2+x,-y,1/2-z
1/2-x,y,1/2-z
1/2+x,1/2+y,z
1/2-x,1/2-y,z
1/2+x,1/2-y,-z
1/2-x,1/2+y,-z
loop_
_atom_site_type_symbol
_atom_site_label
_atom_site_fract_x
_atom_site_fract_y
_atom_site_fract_z
Si Si1 0.750000 0.750000 0.880973
Si Si2 0.000000 0.000000 0.000000
Si Si3 0.226873 0.583960 0.613173
Si Si4 0.562339 0.632868 0.792231
Si Si5 0.250000 0.750000 0.750000
Si Si6 0.471122 0.823178 0.885667
Si Si7 0.750000 0.483848 0.250000
O O1 0.655571 0.693873 0.829633
O O2 0.607975 0.783345 0.929682
O O3 0.884799 0.046338 0.949335
O O4 0.354956 0.627993 0.569583
O O5 0.308195 0.533373 0.677322
O O6 0.108075 0.628003 0.668449
O O7 0.559241 0.637171 0.688757
O O8 0.638009 0.563120 0.802956
O O9 0.366818 0.781606 0.819757
#
# Coordination Sequence:
#
# PCOD9329196 Si02
#       7
#     8   4  16  16   4  16   8
#     4  12  23  34  62 109 153 182 230 313 394 437
#     4  12  28  48  68 106 152 214 252 310 394 458
#     4  12  25  42  69 100 148 198 254 310 380 452
#     4  12  20  35  65 102 141 182 233 307 376 437
#     4  12  18  30  60 106 152 170 240 308 376 418
#     4  12  20  35  60 105 149 184 235 311 377 444
#     4  12  21  37  64 105 137 190 246 310 368 442
#
# _framework density 25.508474
#
# number of rings (size 3 to 8) (size 9 to 14) (size 15 to 20)
#    0.000    0.000   11.111    0.667    0.000    0.000 
#    0.000    0.000    0.000   14.667    0.000    0.000 
#    0.000    0.000    0.000    0.000    0.000    0.000 
#
# Total GULP energy -100400.489348 kJ/mol
# GULP energy per Si atom -5577.804964 kJ/mol
# Density = 2.545042 g / cm^3
# Si number density = 25.508474 Si / 1000 Ang^3
#
#
#
# Elastic Constant Matrix: (Units=GPa)
#
#
# Indices 1 2 3 4 5 6 
#
# 1 194.3336 91.5549 27.3538 0.0000 0.0000 0.0000
# 2 91.5549 151.3809 33.5378 0.0000 0.0000 0.0000
# 3 27.3538 33.5378 41.2617 0.0000 0.0000 0.0000
# 4 0.0000 0.0000 0.0000 35.3863 0.0000 0.0000
# 5 0.0000 0.0000 0.0000 0.0000 30.7447 0.0000
# 6 0.0000 0.0000 0.0000 0.0000 0.0000 67.3198
#
#
#
# Elastic Compliance Matrix: (Units=1/GPa)
#
#
# Indices 1 2 3 4 5 6 
#
# 1 0.007274 -0.004062 -0.001520 0.000000 0.000000 0.000000
# 2 -0.004062 0.010325 -0.005700 0.000000 0.000000 0.000000
# 3 -0.001520 -0.005700 0.029876 0.000000 0.000000 0.000000
# 4 0.000000 0.000000 0.000000 0.028260 0.000000 0.000000
# 5 0.000000 0.000000 0.000000 0.000000 0.032526 0.000000
# 6 0.000000 0.000000 0.000000 0.000000 0.000000 0.014854
#
#
# Mechanical properties :
#
#
# Convention : Reuss Voigt Hill
#
# Bulk Modulus (GPa) = 40.14276 76.87436 58.50856
# Shear Modulus (GPa) = 32.47127 42.32548 37.39838
#
# Velocity S-wave (km/s) = 3.57173 4.07783 3.83314
# Velocity P-wave (km/s) = 5.72546 7.23698 6.52513
#
# Compressibility (1/GPa) = 0.02491109
#
# Stress axis : x y z
#
# Youngs Moduli (GPa) = 137.48385 96.84823 33.47185
#
# Poissons Ratio (x) = 0.39343 0.05088
# Poissons Ratio (y) = 0.55850 0.19077
# Poissons Ratio (z) = 0.20898 0.55199
#
# Static dielectric constant tensor:
#      x y z
#    x 2.127210 0.000000 0.000000 
#    y 0.000000 2.180930 0.000000 
#    z 0.000000 0.000000 1.997190 
# 
# From -- ./inp_files/47189.got.cif
#   From: 2010.05.17/outbox.cif.g08.bks.cpg/sg22_24_cif.got.tgz:47189.got - 2010.06.03 23:40:54.
