data_PCOD9329193
_publ_section_title
;
Structure prediction by ZEFSAII (Michael W. Deem and Ramdas Pophale) SiO2 
 PCOD9329193
Probable space group: F 2 2 2
;
_chemical_formula_sum "Si O2"
_cell_formula_units_Z 40
_cell_length_a 12.910424
_cell_length_b 8.445337
_cell_length_c 12.910438
_cell_angle_alpha 90.000000
_cell_angle_beta 90.000000
_cell_angle_gamma 90.000000
_cell_volume 1407.662256
_symmetry_space_group_name_H-M "F 2 2 2"
_symmetry_group_IT_number 22
_symmetry_cell_setting 'orthorhombic'
loop_
_space_group_symop_operation_xyz
x,y,z
-x,-y,z
x,-y,-z
-x,y,-z
x,1/2+y,1/2+z
-x,1/2-y,1/2+z
x,1/2-y,1/2-z
-x,1/2+y,1/2-z
1/2+x,y,1/2+z
1/2-x,-y,1/2+z
1/2+x,-y,1/2-z
1/2-x,y,1/2-z
1/2+x,1/2+y,z
1/2-x,1/2-y,z
1/2+x,1/2-y,-z
1/2-x,1/2+y,-z
loop_
_atom_site_type_symbol
_atom_site_label
_atom_site_fract_x
_atom_site_fract_y
_atom_site_fract_z
Si Si1 0.750000 1.000000 0.750000
Si Si2 0.613261 0.349057 0.575808
Si Si3 0.924192 0.349057 0.386740
O O1 0.691982 0.104966 0.835330
O O2 0.835330 0.895033 0.808018
O O3 0.610375 0.500000 0.500000
O O4 0.629756 0.202901 0.495556
O O5 0.504445 0.297099 0.629755
O O6 0.000000 0.500000 0.389625
#
# Coordination Sequence:
#
# PCOD9329193 Si02
#       3
#     8  16  16
#     4  12  32  58  96 130 168 238 300 354 436 522
#     4  11  28  56  90 130 179 230 289 363 439 519
#     4  11  28  56  90 130 179 230 289 363 439 519
#
# _framework density 28.415908000000002
#
# number of rings (size 3 to 8) (size 9 to 14) (size 15 to 20)
#    0.000    0.800    0.000    4.800    0.000   28.800 
#    0.000   16.000    0.000    4.800    0.000    0.000 
#    0.000    0.000    0.000    0.000    0.000    0.000 
#
# Total GULP energy -56111.156164 kJ/mol
# GULP energy per Si atom -5611.115616 kJ/mol
# Density = 2.835123 g / cm^3
# Si number density = 28.415908 Si / 1000 Ang^3
#
#
#
# Elastic Constant Matrix: (Units=GPa)
#
#
# Indices 1 2 3 4 5 6 
#
# 1 255.2858 139.1396 180.9419 0.0000 0.0000 0.0000
# 2 139.1396 195.3559 139.1403 0.0000 0.0000 0.0000
# 3 180.9419 139.1403 255.2868 0.0000 0.0000 0.0000
# 4 0.0000 0.0000 0.0000 62.4604 0.0000 0.0000
# 5 0.0000 0.0000 0.0000 0.0000 70.1685 0.0000
# 6 0.0000 0.0000 0.0000 0.0000 0.0000 62.4604
#
#
#
# Elastic Compliance Matrix: (Units=1/GPa)
#
#
# Indices 1 2 3 4 5 6 
#
# 1 0.008826 -0.002992 -0.004625 0.000000 0.000000 0.000000
# 2 -0.002992 0.009381 -0.002992 0.000000 0.000000 0.000000
# 3 -0.004625 -0.002992 0.008826 0.000000 0.000000 0.000000
# 4 0.000000 0.000000 0.000000 0.016010 0.000000 0.000000
# 5 0.000000 0.000000 0.000000 0.000000 0.014251 0.000000
# 6 0.000000 0.000000 0.000000 0.000000 0.000000 0.016010
#
#
# Mechanical properties :
#
#
# Convention : Reuss Voigt Hill
#
# Bulk Modulus (GPa) = 171.97967 180.48577 176.23272
# Shear Modulus (GPa) = 51.83386 55.46498 53.64942
#
# Velocity S-wave (km/s) = 4.27560 4.42282 4.34983
# Velocity P-wave (km/s) = 9.22106 9.47288 9.34782
#
# Compressibility (1/GPa) = 0.00581464
#
# Stress axis : x y z
#
# Youngs Moduli (GPa) = 113.30089 106.59535 113.30087
#
# Poissons Ratio (x) = 0.31896 0.52400
# Poissons Ratio (y) = 0.33902 0.33903
# Poissons Ratio (z) = 0.52400 0.31896
#
# Static dielectric constant tensor:
#      x y z
#    x 2.230780 0.000000 0.000000 
#    y 0.000000 2.198480 0.000000 
#    z 0.000000 0.000000 2.230770 
# 
# From -- ./inp_files/28585.got.cif
#   From: 2010.05.17/outbox.cif.g08.bks.cpg/sg22_15_cif.got.tgz:28585.got - 2010.06.03 23:40:54.
