data_PCOD9329923
_publ_section_title
;
Structure prediction by ZEFSAII (Michael W. Deem and Ramdas Pophale) SiO2 
 PCOD9329923
Probable space group: I 2 2 2
;
_chemical_formula_sum "Si O2"
_cell_formula_units_Z 64
_cell_length_a 11.666800
_cell_length_b 14.503557
_cell_length_c 17.993738
_cell_angle_alpha 90.000000
_cell_angle_beta 90.000000
_cell_angle_gamma 90.000000
_cell_volume 3044.722185
_symmetry_space_group_name_H-M "I 2 2 2"
_symmetry_group_IT_number 23
_symmetry_cell_setting 'orthorhombic'
loop_
_space_group_symop_operation_xyz
x,y,z
-x,-y,z
x,-y,-z
-x,y,-z
1/2+x,1/2+y,1/2+z
1/2-x,1/2-y,1/2+z
1/2+x,1/2-y,1/2-z
1/2-x,1/2+y,1/2-z
loop_
_atom_site_type_symbol
_atom_site_label
_atom_site_fract_x
_atom_site_fract_y
_atom_site_fract_z
Si Si1 0.621009 0.951951 0.670304
Si Si2 0.005565 0.891576 0.780078
Si Si3 0.769600 0.173479 0.864036
Si Si4 0.236314 0.812887 0.229807
Si Si5 0.885496 0.312822 0.966266
Si Si6 0.542642 0.096933 0.914526
Si Si7 0.723519 0.429249 0.064978
Si Si8 0.418069 0.281935 0.864401
O O1 0.680251 0.890990 0.734573
O O2 0.590452 0.882922 0.602039
O O3 0.500000 0.000000 0.690940
O O4 0.720834 0.019276 0.636739
O O5 0.110575 0.868281 0.834813
O O6 0.029382 0.835956 0.704805
O O7 0.880196 0.855451 0.801108
O O8 0.000000 0.000000 0.766751
O O9 0.722399 0.237285 0.796178
O O10 0.798795 0.239748 0.932551
O O11 0.676454 0.102256 0.893829
O O12 0.299545 0.761364 0.163831
O O13 0.827236 0.371081 0.030696
O O14 0.000000 0.270540 0.000000
O O15 0.493537 0.194928 0.886908
O O16 0.500000 0.000000 0.881054
O O17 0.500000 0.095149 0.000000
O O18 0.617851 0.361246 0.078756
O O19 0.691785 0.500000 0.000000
#
# Coordination Sequence:
#
# PCOD9329923 Si02
#       8
#     8   8   8   8   8   8   8   8
#     4  10  19  35  60  97 142 176 225 273 332 406
#     4  11  24  44  66  99 144 176 221 290 339 416
#     4  10  23  44  65  95 133 176 228 281 343 406
#     4  10  23  40  64  97 137 181 224 274 340 407
#     4  10  19  34  63  97 132 175 217 282 339 399
#     4  11  25  48  72  95 128 175 233 291 339 409
#     4  10  21  36  64  97 137 177 225 277 341 407
#     4  11  24  43  69  96 135 180 228 275 345 414
#
# _framework density 21.01998
#
# number of rings (size 3 to 8) (size 9 to 14) (size 15 to 20)
#    0.000    1.625    2.500    1.500    3.500    1.500 
#    2.250    0.000    0.000    0.000    0.000    0.000 
#    0.000    0.000    0.000    0.000    0.000    0.000 
#
# Total GULP energy -178680.255720 kJ/mol
# GULP energy per Si atom -5583.757991 kJ/mol
# Density = 2.097214 g / cm^3
# Si number density = 21.019980 Si / 1000 Ang^3
#
#
#
# Elastic Constant Matrix: (Units=GPa)
#
#
# Indices 1 2 3 4 5 6 
#
# 1 76.8896 22.7470 4.3656 0.0000 0.0000 0.0000
# 2 22.7470 94.6275 8.0669 0.0000 0.0000 0.0000
# 3 4.3656 8.0669 32.5039 0.0000 0.0000 0.0000
# 4 0.0000 0.0000 0.0000 12.1202 0.0000 0.0000
# 5 0.0000 0.0000 0.0000 0.0000 12.3544 0.0000
# 6 0.0000 0.0000 0.0000 0.0000 0.0000 32.3648
#
#
#
# Elastic Compliance Matrix: (Units=1/GPa)
#
#
# Indices 1 2 3 4 5 6 
#
# 1 0.014038 -0.003283 -0.001071 0.000000 0.000000 0.000000
# 2 -0.003283 0.011564 -0.002429 0.000000 0.000000 0.000000
# 3 -0.001071 -0.002429 0.031512 0.000000 0.000000 0.000000
# 4 0.000000 0.000000 0.000000 0.082507 0.000000 0.000000
# 5 0.000000 0.000000 0.000000 0.000000 0.080943 0.000000
# 6 0.000000 0.000000 0.000000 0.000000 0.000000 0.030898
#
#
# Mechanical properties :
#
#
# Convention : Reuss Voigt Hill
#
# Bulk Modulus (GPa) = 22.96300 30.48669 26.72485
# Shear Modulus (GPa) = 17.88634 22.62398 20.25516
#
# Velocity S-wave (km/s) = 2.92022 3.28427 3.10758
# Velocity P-wave (km/s) = 4.72423 5.37746 5.06139
#
# Compressibility (1/GPa) = 0.04354831
#
# Stress axis : x y z
#
# Youngs Moduli (GPa) = 71.23652 86.47488 31.73380
#
# Poissons Ratio (x) = 0.28391 0.03397
# Poissons Ratio (y) = 0.23388 0.07708
# Poissons Ratio (z) = 0.07626 0.21005
#
# Static dielectric constant tensor:
#      x y z
#    x 1.845440 0.000000 0.000000 
#    y 0.000000 1.774850 0.000000 
#    z 0.000000 0.000000 1.749410 
# 
# From -- ./inp_files/24443.got.cif
#   From: 2010.05.17/outbox.cif.g08.bks.cpg/sg23_13_cif.got.tgz:24443.got - 2010.06.04 12:02:01.
