data_PCOD9329191
_publ_section_title
;
Structure prediction by ZEFSAII (Michael W. Deem and Ramdas Pophale) SiO2 
 PCOD9329191
Probable space group: F 2 2 2
;
_chemical_formula_sum "Si O2"
_cell_formula_units_Z 56
_cell_length_a 5.620560
_cell_length_b 18.069934
_cell_length_c 20.966002
_cell_angle_alpha 90.000000
_cell_angle_beta 90.000000
_cell_angle_gamma 90.000000
_cell_volume 2129.373169
_symmetry_space_group_name_H-M "F 2 2 2"
_symmetry_group_IT_number 22
_symmetry_cell_setting 'orthorhombic'
loop_
_space_group_symop_operation_xyz
x,y,z
-x,-y,z
x,-y,-z
-x,y,-z
x,1/2+y,1/2+z
-x,1/2-y,1/2+z
x,1/2-y,1/2-z
-x,1/2+y,1/2-z
1/2+x,y,1/2+z
1/2-x,-y,1/2+z
1/2+x,-y,1/2-z
1/2-x,y,1/2-z
1/2+x,1/2+y,z
1/2-x,1/2-y,z
1/2+x,1/2-y,-z
1/2-x,1/2+y,-z
loop_
_atom_site_type_symbol
_atom_site_label
_atom_site_fract_x
_atom_site_fract_y
_atom_site_fract_z
Si Si1 0.745625 0.515683 0.852105
Si Si2 0.750000 0.750000 0.377214
Si Si3 0.345975 0.326375 0.821652
Si Si4 0.243906 0.606343 0.962772
O O1 0.500000 0.500000 0.815326
O O2 0.731946 0.603560 0.861808
O O3 0.732559 0.461257 0.912412
O O4 0.000000 0.500000 0.821880
O O5 0.619499 0.805929 0.326814
O O6 0.808315 0.815884 0.427327
O O7 0.250000 0.334065 0.750000
O O8 0.250000 0.250000 0.851608
O O9 0.500000 0.611126 0.000000
O O10 0.000000 0.590314 0.000000
#
# Coordination Sequence:
#
# PCOD9329191 Si02
#       4
#    16   8  16  16
#     4  12  26  52  79 123 170 218 281 355 418 527
#     4  12  26  53  84 124 172 218 301 354 418 528
#     4  11  28  53  85 118 164 224 283 357 435 495
#     4  12  28  50  87 125 173 227 280 352 437 510
#
# _framework density 26.298819999999999
#
# number of rings (size 3 to 8) (size 9 to 14) (size 15 to 20)
#    0.000    0.286    2.857    4.286    4.000    6.857 
#    0.000    0.000    0.000    0.000    0.000    0.000 
#    0.000    0.000    0.000    0.000    0.000    0.000 
#
# Total GULP energy -78105.949386 kJ/mol
# GULP energy per Si atom -5578.996385 kJ/mol
# Density = 2.623896 g / cm^3
# Si number density = 26.298820 Si / 1000 Ang^3
#
#
#
# Elastic Constant Matrix: (Units=GPa)
#
#
# Indices 1 2 3 4 5 6 
#
# 1 204.1698 59.2687 89.7396 0.0000 0.0000 0.0000
# 2 59.2687 275.8683 80.9713 0.0000 0.0000 0.0000
# 3 89.7396 80.9713 147.9310 0.0000 0.0000 0.0000
# 4 0.0000 0.0000 0.0000 -124.4772 0.0000 0.0000
# 5 0.0000 0.0000 0.0000 0.0000 11.8989 0.0000
# 6 0.0000 0.0000 0.0000 0.0000 0.0000 46.4326
#
#
#
# Elastic Compliance Matrix: (Units=1/GPa)
#
#
# Indices 1 2 3 4 5 6 
#
# 1 0.006699 -0.000294 -0.003903 0.000000 0.000000 0.000000
# 2 -0.000294 0.004332 -0.002193 0.000000 0.000000 0.000000
# 3 -0.003903 -0.002193 0.010328 0.000000 0.000000 0.000000
# 4 0.000000 0.000000 0.000000 -0.008034 0.000000 0.000000
# 5 0.000000 0.000000 0.000000 0.000000 0.084041 0.000000
# 6 0.000000 0.000000 0.000000 0.000000 0.000000 0.021537
#
#
# Mechanical properties :
#
#
# Convention : Reuss Voigt Hill
#
# Bulk Modulus (GPa) = 116.55880 120.88092 118.71986
# Shear Modulus (GPa) = 37.16356 13.30351 25.23353
#
# Velocity S-wave (km/s) = 3.76324 2.25157 3.10093
# Velocity P-wave (km/s) = 7.95611 7.26799 7.61982
#
# Compressibility (1/GPa) = 0.00857936
#
# Stress axis : x y z
#
# Youngs Moduli (GPa) = 149.28608 230.86011 96.82636
#
# Poissons Ratio (x) = 0.06778 0.37790
# Poissons Ratio (y) = 0.04383 0.21232
# Poissons Ratio (z) = 0.58264 0.50624
#
# Static dielectric constant tensor:
#      x y z
#    x 2.376060 0.000000 0.000000 
#    y 0.000000 1.999420 0.000000 
#    z 0.000000 0.000000 2.045900 
# 
# From -- ./inp_files/51006.got.cif
#   From: 2010.05.17/outbox.cif.g08.bks.cpg/sg22_26_cif.got.tgz:51006.got - 2010.06.03 23:40:54.
