data_PCOD9329269
_publ_section_title
;
Structure prediction by ZEFSAII (Michael W. Deem and Ramdas Pophale) SiO2 
 PCOD9329269
Probable space group: F 2 2 2
;
_chemical_formula_sum "Si O2"
_cell_formula_units_Z 40
_cell_length_a 4.916690
_cell_length_b 38.030704
_cell_length_c 8.897931
_cell_angle_alpha 90.000000
_cell_angle_beta 90.000000
_cell_angle_gamma 90.000000
_cell_volume 1663.781248
_symmetry_space_group_name_H-M "F 2 2 2"
_symmetry_group_IT_number 22
_symmetry_cell_setting 'orthorhombic'
loop_
_space_group_symop_operation_xyz
x,y,z
-x,-y,z
x,-y,-z
-x,y,-z
x,1/2+y,1/2+z
-x,1/2-y,1/2+z
x,1/2-y,1/2-z
-x,1/2+y,1/2-z
1/2+x,y,1/2+z
1/2-x,-y,1/2+z
1/2+x,-y,1/2-z
1/2-x,y,1/2-z
1/2+x,1/2+y,z
1/2-x,1/2-y,z
1/2+x,1/2-y,-z
1/2-x,1/2+y,-z
loop_
_atom_site_type_symbol
_atom_site_label
_atom_site_fract_x
_atom_site_fract_y
_atom_site_fract_z
Si Si1 0.250000 0.049315 0.750000
Si Si2 0.500000 0.000000 0.000000
Si Si3 0.250000 0.401656 0.250000
Si Si4 0.500000 0.149048 0.000000
Si Si5 0.250000 0.750000 0.250000
Si Si6 0.500000 0.702044 0.000000
O O1 0.505083 0.073101 0.698979
O O2 0.168080 0.025027 0.610615
O O3 0.400238 0.376589 0.368471
O O4 0.748796 0.175647 0.016595
O O5 0.447392 0.727131 0.142822
#
# Coordination Sequence:
#
# PCOD9329269 Si02
#       6
#     8   4   8   8   4   8
#     4  12  29  51  80 114 156 203 257 318 383 457
#     4  12  30  52  80 116 156 204 256 318 384 456
#     4  12  27  48  78 113 153 202 255 316 381 454
#     4  12  26  48  76 111 152 200 253 314 379 452
#     4  12  28  50  80 114 154 204 256 318 384 456
#     4  12  27  48  78 113 154 201 255 316 381 455
#
# _framework density 24.041622
#
# number of rings (size 3 to 8) (size 9 to 14) (size 15 to 20)
#    0.000    0.000    0.000    8.400    0.000   19.200 
#    0.000    0.000    0.000    0.000    0.000    0.000 
#    0.000    0.000    0.000    0.000    0.000    0.000 
#
# Total GULP energy -56042.690121 kJ/mol
# GULP energy per Si atom -5604.269012 kJ/mol
# Density = 2.398690 g / cm^3
# Si number density = 24.041622 Si / 1000 Ang^3
#
#
#
# Elastic Constant Matrix: (Units=GPa)
#
#
# Indices 1 2 3 4 5 6 
#
# 1 226.6431 126.7574 96.7224 0.0000 0.0000 0.0000
# 2 126.7574 225.8292 137.2794 0.0000 0.0000 0.0000
# 3 96.7224 137.2794 211.9705 0.0000 0.0000 0.0000
# 4 0.0000 0.0000 0.0000 13.8291 0.0000 0.0000
# 5 0.0000 0.0000 0.0000 0.0000 53.7967 0.0000
# 6 0.0000 0.0000 0.0000 0.0000 0.0000 250.5188
#
#
#
# Elastic Compliance Matrix: (Units=1/GPa)
#
#
# Indices 1 2 3 4 5 6 
#
# 1 0.006558 -0.003071 -0.001004 0.000000 0.000000 0.000000
# 2 -0.003071 0.008741 -0.004260 0.000000 0.000000 0.000000
# 3 -0.001004 -0.004260 0.007934 0.000000 0.000000 0.000000
# 4 0.000000 0.000000 0.000000 0.072311 0.000000 0.000000
# 5 0.000000 0.000000 0.000000 0.000000 0.018588 0.000000
# 6 0.000000 0.000000 0.000000 0.000000 0.000000 0.003992
#
#
# Mechanical properties :
#
#
# Convention : Reuss Voigt Hill
#
# Bulk Modulus (GPa) = 152.32444 153.99569 153.16007
# Shear Modulus (GPa) = 36.50099 83.87451 60.18775
#
# Velocity S-wave (km/s) = 3.90069 5.91295 5.00891
# Velocity P-wave (km/s) = 9.15332 10.52664 9.86391
#
# Compressibility (1/GPa) = 0.00656493
#
# Stress axis : x y z
#
# Youngs Moduli (GPa) = 152.48461 114.39775 126.03206
#
# Poissons Ratio (x) = 0.35131 0.12649
# Poissons Ratio (y) = 0.46827 0.53689
# Poissons Ratio (z) = 0.15303 0.48733
#
# Static dielectric constant tensor:
#      x y z
#    x 1.872440 0.000000 0.000000 
#    y 0.000000 1.917340 0.000000 
#    z 0.000000 0.000000 1.876300 
# 
# From -- ./inp_files/1000.got.cif
#   From: 2010.05.17/outbox.cif.g08.bks.cpg/sg22_1_cif.got.tgz:1000.got - 2010.06.03 23:40:54.
