data_PCOD9329286
_publ_section_title
;
Structure prediction by ZEFSAII (Michael W. Deem and Ramdas Pophale) SiO2 
 PCOD9329286
Probable space group: F 2 2 2
;
_chemical_formula_sum "Si O2"
_cell_formula_units_Z 30
_cell_length_a 21.000000
_cell_length_b 12.000000
_cell_length_c 24.000000
_cell_angle_alpha 90.000000
_cell_angle_beta 90.000000
_cell_angle_gamma 90.000000
_cell_volume 6048.000000
_symmetry_space_group_name_H-M "F 2 2 2"
_symmetry_group_IT_number 22
_symmetry_cell_setting 'orthorhombic'
loop_
_space_group_symop_operation_xyz
x,y,z
-x,-y,z
x,-y,-z
-x,y,-z
x,1/2+y,1/2+z
-x,1/2-y,1/2+z
x,1/2-y,1/2-z
-x,1/2+y,1/2-z
1/2+x,y,1/2+z
1/2-x,-y,1/2+z
1/2+x,-y,1/2-z
1/2-x,y,1/2-z
1/2+x,1/2+y,z
1/2-x,1/2-y,z
1/2+x,1/2-y,-z
1/2-x,1/2+y,-z
loop_
_atom_site_type_symbol
_atom_site_label
_atom_site_fract_x
_atom_site_fract_y
_atom_site_fract_z
Si Si1 0.826639 0.049800 0.246336
Si Si2 0.095606 0.650570 0.782080
Si Si3 0.826539 0.263605 0.619896
Si Si4 0.178643 0.974010 0.942260
Si Si5 0.814474 0.819090 0.864682
Si Si6 0.821194 0.932802 0.448986
Si Si7 0.000000 0.500000 0.850336
Si Si8 0.624213 0.394971 0.368186
O O1 0.750000 0.037493 0.250000
O O2 0.860837 0.930121 0.244555
O O3 0.837798 0.124607 0.192276
O O4 0.856700 0.102510 0.302613
O O5 0.062714 0.750000 0.750000
O O6 0.140930 0.709711 0.826875
O O7 0.043091 0.578705 0.812625
O O8 0.750000 0.250000 0.627669
O O9 0.846934 0.387321 0.603180
O O10 0.846733 0.186545 0.567537
O O11 0.194479 0.086492 0.910136
O O12 0.246133 0.918570 0.959996
O O13 0.143299 0.000000 0.000000
O O14 0.750000 0.750000 0.853428
O O15 0.861964 0.727618 0.888500
O O16 0.850177 0.000000 0.500000
O O17 0.831256 0.011829 0.395775
O O18 0.052599 0.429264 0.881836
#
# Coordination Sequence:
#
# PCOD9329286 Si02
#       8
#    16  16  16  16  16  16   8  16
#     4  11  21  34  55  91 124 154 191 249 313 362
#     4  11  24  38  62  84 122 165 201 252 299 372
#     4  10  21  37  57  90 127 157 198 247 304 372
#     4  10  22  35  56  91 129 158 192 247 322 383
#     4  12  22  34  58  90 126 159 200 250 313 369
#     4  10  19  35  60  87 118 163 199 247 306 366
#     4  10  24  44  57  82 122 160 217 246 298 352
#     4  11  22  39  60  84 122 160 203 254 300 361
#
# _framework density 4.9603169999999999
#
# number of rings (size 3 to 8) (size 9 to 14) (size 15 to 20)
#    0.000    1.333    5.333    1.200    5.600    2.667 
#    0.000    0.333    0.000    0.000    0.000    0.933 
#    0.000    0.000    0.000    0.000    0.000    0.000 
#
# Total GULP energy -167107.705514 kJ/mol
# GULP energy per Si atom -5570.256850 kJ/mol
# Density = 0.494903 g / cm^3
# Si number density = 4.960317 Si / 1000 Ang^3
#
#
#
# Elastic Constant Matrix: (Units=GPa)
#
#
# Indices 1 2 3 4 5 6 
#
# 1 50.6804 25.3532 0.3408 0.0000 0.0000 0.0000
# 2 25.3532 122.3027 22.8188 0.0000 0.0000 0.0000
# 3 0.3408 22.8188 60.4269 0.0000 0.0000 0.0000
# 4 0.0000 0.0000 0.0000 61.4201 0.0000 0.0000
# 5 0.0000 0.0000 0.0000 0.0000 4.0414 0.0000
# 6 0.0000 0.0000 0.0000 0.0000 0.0000 118.5966
#
#
#
# Elastic Compliance Matrix: (Units=1/GPa)
#
#
# Indices 1 2 3 4 5 6 
#
# 1 0.022182 -0.004922 0.001733 0.000000 0.000000 0.000000
# 2 -0.004922 0.009888 -0.003706 0.000000 0.000000 0.000000
# 3 0.001733 -0.003706 0.017939 0.000000 0.000000 0.000000
# 4 0.000000 0.000000 0.000000 0.016281 0.000000 0.000000
# 5 0.000000 0.000000 0.000000 0.000000 0.247440 0.000000
# 6 0.000000 0.000000 0.000000 0.000000 0.000000 0.008432
#
#
# Mechanical properties :
#
#
# Convention : Reuss Voigt Hill
#
# Bulk Modulus (GPa) = 27.60920 36.71507 32.16214
# Shear Modulus (GPa) = 14.36680 49.13809 31.75244
#
# Velocity S-wave (km/s) = 2.69380 4.98190 4.00474
# Velocity P-wave (km/s) = 4.86011 7.18589 6.13424
#
# Compressibility (1/GPa) = 0.03621981
#
# Stress axis : x y z
#
# Youngs Moduli (GPa) = 45.08171 101.13063 55.74529
#
# Poissons Ratio (x) = 0.49774 -0.09663
# Poissons Ratio (y) = 0.22188 0.20661
# Poissons Ratio (z) = -0.07815 0.37482
#
# Static dielectric constant tensor:
#      x y z
#    x 1.711890 0.000000 0.000000 
#    y 0.000000 1.760900 0.000000 
#    z 0.000000 0.000000 1.704900 
# 
# From -- ./inp_files/45403.got.cif
#   From: 2010.05.17/outbox.ucp.g08.bks.cvg/sg22_23_cif.got.tgz:45403.got - 2010.06.11 15:16:44.
