data_PCOD9329313
_publ_section_title
;
Structure prediction by ZEFSAII (Michael W. Deem and Ramdas Pophale) SiO2 
 PCOD9329313
Probable space group: F 2 2 2
;
_chemical_formula_sum "Si O2"
_cell_formula_units_Z 22
_cell_length_a 24.000000
_cell_length_b 6.000000
_cell_length_c 30.000000
_cell_angle_alpha 90.000000
_cell_angle_beta 90.000000
_cell_angle_gamma 90.000000
_cell_volume 4320.000000
_symmetry_space_group_name_H-M "F 2 2 2"
_symmetry_group_IT_number 22
_symmetry_cell_setting 'orthorhombic'
loop_
_space_group_symop_operation_xyz
x,y,z
-x,-y,z
x,-y,-z
-x,y,-z
x,1/2+y,1/2+z
-x,1/2-y,1/2+z
x,1/2-y,1/2-z
-x,1/2+y,1/2-z
1/2+x,y,1/2+z
1/2-x,-y,1/2+z
1/2+x,-y,1/2-z
1/2-x,y,1/2-z
1/2+x,1/2+y,z
1/2-x,1/2-y,z
1/2+x,1/2-y,-z
1/2-x,1/2+y,-z
loop_
_atom_site_type_symbol
_atom_site_label
_atom_site_fract_x
_atom_site_fract_y
_atom_site_fract_z
Si Si1 0.845332 0.000000 0.500000
Si Si2 0.750000 0.250000 0.945108
Si Si3 0.094981 0.836745 0.416808
Si Si4 0.800410 0.416862 0.373670
Si Si5 0.395284 0.769271 0.853176
Si Si6 0.933163 0.999499 0.729051
Si Si7 0.500000 0.000000 0.619926
O O1 0.802510 0.837334 0.473609
O O2 0.885542 0.857850 0.532221
O O3 0.730313 0.451618 0.913423
O O4 0.148616 0.728916 0.392308
O O5 0.039024 0.687082 0.406316
O O6 0.094800 0.092663 0.398884
O O7 0.750000 0.250000 0.354824
O O8 0.838640 0.618381 0.350040
O O9 0.399787 0.966181 0.816797
O O10 0.451732 0.618590 0.850409
O O11 0.921090 0.250000 0.750000
O O12 0.920114 0.750000 0.750000
O O13 0.000000 0.000000 0.722417
#
# Coordination Sequence:
#
# PCOD9329313 Si02
#       7
#     8   8  16  16  16  16   8
#     4  12  22  38  65  88 134 169 230 306 366 412
#     4  12  22  42  62  96 129 158 231 306 366 414
#     4  11  23  40  62  91 129 180 233 284 357 423
#     4  11  21  40  65  98 130 175 229 291 359 424
#     4  11  23  42  68  95 142 184 229 286 358 439
#     4  10  23  39  67 106 145 184 231 290 353 426
#     4  10  24  40  65  88 132 196 238 276 352 441
#
# _framework density 5.0925929999999999
#
# number of rings (size 3 to 8) (size 9 to 14) (size 15 to 20)
#    0.000    1.091    3.636    2.727    8.909    0.000 
#    0.000    2.727    0.000    0.000    0.000    9.545 
#    0.000    0.000    0.000    0.000    0.000    0.000 
#
# Total GULP energy -122519.239131 kJ/mol
# GULP energy per Si atom -5569.056324 kJ/mol
# Density = 0.508100 g / cm^3
# Si number density = 5.092593 Si / 1000 Ang^3
#
#
#
# Elastic Constant Matrix: (Units=GPa)
#
#
# Indices 1 2 3 4 5 6 
#
# 1 129.1664 41.8297 30.6753 -0.0009 0.0011 0.0008
# 2 41.8297 122.3874 31.6737 -0.0017 0.0034 0.0113
# 3 30.6753 31.6737 64.8870 0.0002 0.0002 0.0001
# 4 -0.0009 -0.0017 0.0002 29.1731 0.0004 -0.0001
# 5 0.0011 0.0034 0.0002 0.0004 23.5817 -0.0012
# 6 0.0008 0.0113 0.0001 -0.0001 -0.0012 59.8808
#
#
#
# Elastic Compliance Matrix: (Units=1/GPa)
#
#
# Indices 1 2 3 4 5 6 
#
# 1 0.009266 -0.002327 -0.003245 0.000000 0.000000 0.000000
# 2 -0.002327 0.009937 -0.003750 0.000001 -0.000001 -0.000002
# 3 -0.003245 -0.003750 0.018776 0.000000 0.000001 0.000001
# 4 0.000000 0.000001 0.000000 0.034278 -0.000001 0.000000
# 5 0.000000 -0.000001 0.000001 -0.000001 0.042406 0.000001
# 6 0.000000 -0.000002 0.000001 0.000000 0.000001 0.016700
#
#
# Mechanical properties :
#
#
# Convention : Reuss Voigt Hill
#
# Bulk Modulus (GPa) = 51.72072 58.31093 55.01583
# Shear Modulus (GPa) = 31.95876 36.67794 34.31835
#
# Velocity S-wave (km/s) = 3.96521 4.24790 4.10899
# Velocity P-wave (km/s) = 6.81243 7.26271 7.04117
#
# Compressibility (1/GPa) = 0.01933461
#
# Stress axis : x y z
#
# Youngs Moduli (GPa) = 107.91943 100.63630 53.25980
#
# Poissons Ratio (x) = 0.23421 0.17280
# Poissons Ratio (y) = 0.25116 0.19974
# Poissons Ratio (z) = 0.35015 0.37741
#
# Static dielectric constant tensor:
#      x y z
#    x 1.697640 0.000000 0.000000 
#    y 0.000000 1.829010 0.000000 
#    z 0.000000 0.000000 1.849740 
# 
# From -- ./inp_files/57123.got.cif
#   From: 2010.05.17/outbox.ucp.g08.bks.cvg/sg22_29_cif.got.tgz:57123.got - 2010.06.11 15:16:44.
