data_PCOD9329741
_publ_section_title
;
Structure prediction by ZEFSAII (Michael W. Deem and Ramdas Pophale) SiO2 
 PCOD9329741
Probable space group: I 2 2 2
;
_chemical_formula_sum "Si O2"
_cell_formula_units_Z 38
_cell_length_a 21.200583
_cell_length_b 5.385818
_cell_length_c 18.934849
_cell_angle_alpha 90.000000
_cell_angle_beta 90.000000
_cell_angle_gamma 90.000000
_cell_volume 2162.028046
_symmetry_space_group_name_H-M "I 2 2 2"
_symmetry_group_IT_number 23
_symmetry_cell_setting 'orthorhombic'
loop_
_space_group_symop_operation_xyz
x,y,z
-x,-y,z
x,-y,-z
-x,y,-z
1/2+x,1/2+y,1/2+z
1/2-x,1/2-y,1/2+z
1/2+x,1/2-y,1/2-z
1/2-x,1/2+y,1/2-z
loop_
_atom_site_type_symbol
_atom_site_label
_atom_site_fract_x
_atom_site_fract_y
_atom_site_fract_z
Si Si1 0.526451 0.252222 0.815268
Si Si2 0.900597 0.143864 0.928970
Si Si3 0.500000 0.000000 0.500000
Si Si4 0.306286 0.806408 0.317098
Si Si5 0.668275 0.695762 0.229537
Si Si6 0.000000 0.000000 0.822349
O O1 0.500000 0.500000 0.851421
O O2 0.601467 0.270667 0.808314
O O3 0.438586 0.519557 0.628754
O O4 0.500000 0.000000 0.846174
O O5 0.842051 0.269151 0.890547
O O6 0.001519 0.777288 0.765461
O O7 0.954317 0.336408 0.952217
O O8 0.882868 0.000000 0.000000
O O9 0.327914 0.572324 0.268277
O O10 0.230458 0.792883 0.319443
O O11 0.324492 0.070984 0.282981
#
# Coordination Sequence:
#
# PCOD9329741 Si02
#       6
#     8   8   2   8   8   4
#     4  10  19  28  51  73 100 124 163 214 259 304
#     4  12  23  35  45  74 101 149 182 215 250 296
#     4  12  26  32  52  70 108 148 188 220 244 296
#     4  10  22  34  55  67 101 137 181 221 255 314
#     4  10  19  37  51  76  94 135 177 219 273 307
#     4  10  19  30  46  64  98 134 176 207 240 292
#
# _framework density 17.576091999999999
#
# number of rings (size 3 to 8) (size 9 to 14) (size 15 to 20)
#    0.632    0.842    4.211    2.526    7.368    0.000 
#    0.000    0.000    0.000    0.000    0.000    0.000 
#    0.000    0.842    0.000    0.000    0.000    0.000 
#
# Total GULP energy -105888.607805 kJ/mol
# GULP energy per Si atom -5573.084621 kJ/mol
# Density = 1.753609 g / cm^3
# Si number density = 17.576092 Si / 1000 Ang^3
#
#
#
# Elastic Constant Matrix: (Units=GPa)
#
#
# Indices 1 2 3 4 5 6 
#
# 1 129.8230 22.4617 16.2481 0.0000 0.0000 0.0000
# 2 22.4617 105.3296 1.4976 0.0000 0.0000 0.0000
# 3 16.2481 1.4976 35.3826 0.0000 0.0000 0.0000
# 4 0.0000 0.0000 0.0000 3.4177 0.0000 0.0000
# 5 0.0000 0.0000 0.0000 0.0000 30.7508 0.0000
# 6 0.0000 0.0000 0.0000 0.0000 0.0000 17.9844
#
#
#
# Elastic Compliance Matrix: (Units=1/GPa)
#
#
# Indices 1 2 3 4 5 6 
#
# 1 0.008485 -0.001755 -0.003822 0.000000 0.000000 0.000000
# 2 -0.001755 0.009863 0.000389 0.000000 0.000000 0.000000
# 3 -0.003822 0.000389 0.030001 0.000000 0.000000 0.000000
# 4 0.000000 0.000000 0.000000 0.292592 0.000000 0.000000
# 5 0.000000 0.000000 0.000000 0.000000 0.032520 0.000000
# 6 0.000000 0.000000 0.000000 0.000000 0.000000 0.055604
#
#
# Mechanical properties :
#
#
# Convention : Reuss Voigt Hill
#
# Bulk Modulus (GPa) = 26.33551 38.99442 32.66496
# Shear Modulus (GPa) = 11.05955 25.78577 18.42266
#
# Velocity S-wave (km/s) = 2.51118 3.83442 3.24105
# Velocity P-wave (km/s) = 4.83987 6.46823 5.71237
#
# Compressibility (1/GPa) = 0.03797155
#
# Stress axis : x y z
#
# Youngs Moduli (GPa) = 117.85776 101.39156 33.33203
#
# Poissons Ratio (x) = 0.17795 0.12740
# Poissons Ratio (y) = 0.20685 -0.01295
# Poissons Ratio (z) = 0.45046 -0.03939
#
# Static dielectric constant tensor:
#      x y z
#    x 1.608750 0.000000 0.000000 
#    y 0.000000 1.767070 0.000000 
#    z 0.000000 0.000000 1.622190 
# 
# From -- ./inp_files/25174.got.cif
#   From: 2010.05.17/outbox.cif.g08.bks.cpg/sg23_13_cif.got.tgz:25174.got - 2010.06.04 12:02:01.
