data_PCOD9329840
_publ_section_title
;
Structure prediction by ZEFSAII (Michael W. Deem and Ramdas Pophale) SiO2 
 PCOD9329840
Probable space group: I 2 2 2
;
_chemical_formula_sum "Si O2"
_cell_formula_units_Z 36
_cell_length_a 21.854435
_cell_length_b 18.110945
_cell_length_c 5.785061
_cell_angle_alpha 90.000000
_cell_angle_beta 90.000000
_cell_angle_gamma 90.000000
_cell_volume 2289.753005
_symmetry_space_group_name_H-M "I 2 2 2"
_symmetry_group_IT_number 23
_symmetry_cell_setting 'orthorhombic'
loop_
_space_group_symop_operation_xyz
x,y,z
-x,-y,z
x,-y,-z
-x,y,-z
1/2+x,1/2+y,1/2+z
1/2-x,1/2-y,1/2+z
1/2+x,1/2-y,1/2-z
1/2-x,1/2+y,1/2-z
loop_
_atom_site_type_symbol
_atom_site_label
_atom_site_fract_x
_atom_site_fract_y
_atom_site_fract_z
Si Si1 0.000000 0.354575 0.500000
Si Si2 0.118575 0.685045 0.747659
Si Si3 0.581170 0.075259 0.634021
Si Si4 0.226385 0.217691 0.216449
Si Si5 0.798510 0.580343 0.559985
O O1 0.060112 0.310361 0.420476
O O2 0.024363 0.406258 0.703751
O O3 0.154924 0.760884 0.778985
O O4 0.169375 0.627248 0.646888
O O5 0.093468 0.646745 0.976841
O O6 0.643167 0.064942 0.778621
O O7 0.571815 0.000000 0.500000
O O8 0.250534 0.242442 0.474284
O O9 0.249612 0.134496 0.177999
O O10 0.772761 0.500000 0.500000
#
# Coordination Sequence:
#
# PCOD9329840 Si02
#       5
#     4   8   8   8   8
#     4  10  24  33  46  72 102 147 186 214 254 313
#     4  10  20  34  49  70 104 143 177 217 260 310
#     4  11  20  34  47  69 108 142 178 215 257 312
#     4  10  20  35  55  75 103 143 177 221 268 312
#     4  10  19  33  51  76 103 139 176 216 268 319
#
# _framework density 15.722219000000001
#
# number of rings (size 3 to 8) (size 9 to 14) (size 15 to 20)
#    0.000    1.778    4.444    0.667    0.000    2.667 
#    0.000    0.000    0.000    0.000    0.000    0.000 
#    0.000    5.333    0.000    0.000    0.000    0.000 
#
# Total GULP energy -100239.737347 kJ/mol
# GULP energy per Si atom -5568.874297 kJ/mol
# Density = 1.568643 g / cm^3
# Si number density = 15.722219 Si / 1000 Ang^3
#
#
#
# Elastic Constant Matrix: (Units=GPa)
#
#
# Indices 1 2 3 4 5 6 
#
# 1 86.1399 51.9118 23.1349 0.0000 0.0000 0.0000
# 2 51.9118 74.2156 12.7104 0.0000 0.0000 0.0000
# 3 23.1349 12.7104 65.9164 0.0000 0.0000 0.0000
# 4 0.0000 0.0000 0.0000 19.0377 0.0000 0.0000
# 5 0.0000 0.0000 0.0000 0.0000 29.9588 0.0000
# 6 0.0000 0.0000 0.0000 0.0000 0.0000 17.2900
#
#
#
# Elastic Compliance Matrix: (Units=1/GPa)
#
#
# Indices 1 2 3 4 5 6 
#
# 1 0.021438 -0.014175 -0.004791 0.000000 0.000000 0.000000
# 2 -0.014175 0.023307 0.000481 0.000000 0.000000 0.000000
# 3 -0.004791 0.000481 0.016759 0.000000 0.000000 0.000000
# 4 0.000000 0.000000 0.000000 0.052527 0.000000 0.000000
# 5 0.000000 0.000000 0.000000 0.000000 0.033379 0.000000
# 6 0.000000 0.000000 0.000000 0.000000 0.000000 0.057837
#
#
# Mechanical properties :
#
#
# Convention : Reuss Voigt Hill
#
# Bulk Modulus (GPa) = 40.75888 44.64293 42.70091
# Shear Modulus (GPa) = 19.96834 22.49162 21.22998
#
# Velocity S-wave (km/s) = 3.56767 3.78638 3.67865
# Velocity P-wave (km/s) = 6.55376 6.89725 6.72769
#
# Compressibility (1/GPa) = 0.02453453
#
# Stress axis : x y z
#
# Youngs Moduli (GPa) = 46.64565 42.90570 59.66766
#
# Poissons Ratio (x) = 0.60819 0.28586
# Poissons Ratio (y) = 0.66120 -0.02869
# Poissons Ratio (z) = 0.22348 -0.02063
#
# Static dielectric constant tensor:
#      x y z
#    x 1.530240 0.000000 0.000000 
#    y 0.000000 1.512730 0.000000 
#    z 0.000000 0.000000 1.620820 
# 
# From -- ./inp_files/2385.got.cif
#   From: 2010.05.17/outbox.cif.g08.bks.cpg/sg23_2_cif.got.tgz:2385.got - 2010.06.04 12:02:01.
