data_PCOD9329788
_publ_section_title
;
Structure prediction by ZEFSAII (Michael W. Deem and Ramdas Pophale) SiO2 
 PCOD9329788
Probable space group: I 2 2 2
;
_chemical_formula_sum "Si O2"
_cell_formula_units_Z 48
_cell_length_a 23.049158
_cell_length_b 20.612723
_cell_length_c 5.449419
_cell_angle_alpha 90.000000
_cell_angle_beta 90.000000
_cell_angle_gamma 90.000000
_cell_volume 2589.051169
_symmetry_space_group_name_H-M "I 2 2 2"
_symmetry_group_IT_number 23
_symmetry_cell_setting 'orthorhombic'
loop_
_space_group_symop_operation_xyz
x,y,z
-x,-y,z
x,-y,-z
-x,y,-z
1/2+x,1/2+y,1/2+z
1/2-x,1/2-y,1/2+z
1/2+x,1/2-y,1/2-z
1/2-x,1/2+y,1/2-z
loop_
_atom_site_type_symbol
_atom_site_label
_atom_site_fract_x
_atom_site_fract_y
_atom_site_fract_z
Si Si1 0.795549 0.539713 0.756390
Si Si2 0.260112 0.155965 0.981398
Si Si3 0.855258 0.630270 0.096372
Si Si4 0.530148 0.744539 0.245614
Si Si5 0.662682 0.744635 0.286306
Si Si6 0.483137 0.891840 0.248422
O O1 0.805803 0.500000 0.500000
O O2 0.753391 0.599314 0.682216
O O3 0.776148 0.500000 0.000000
O O4 0.850740 0.579395 0.870270
O O5 0.299841 0.124326 0.771249
O O6 0.201051 0.185420 0.880838
O O7 0.298234 0.215482 0.091352
O O8 0.914812 0.622160 0.240423
O O9 0.849578 0.702768 0.997724
O O10 0.500000 0.722296 0.500000
O O11 0.597559 0.727980 0.212120
O O12 0.519533 0.823316 0.248587
O O13 0.500000 0.720092 0.000000
O O14 0.500000 0.925288 0.500000
O O15 0.500000 0.925943 0.000000
#
# Coordination Sequence:
#
# PCOD9329788 Si02
#       6
#     8   8   8   8   8   8
#     4  11  24  43  60  82 113 164 214 249 297 353
#     4  11  22  35  60  90 121 158 187 260 304 367
#     4  11  21  37  59  86 119 158 197 249 299 364
#     4  10  19  33  50  75 120 165 186 222 273 375
#     4  11  21  33  55  93 128 150 197 234 317 370
#     4  10  19  31  51  80 107 152 195 223 282 356
#
# _framework density 18.53961
#
# number of rings (size 3 to 8) (size 9 to 14) (size 15 to 20)
#    0.000    1.333    6.667    2.000    2.333    0.000 
#    0.000    0.000    0.000    0.500    4.333    0.000 
#    0.000    0.667    6.000    0.000    0.000    0.000 
#
# Total GULP energy -133749.212469 kJ/mol
# GULP energy per Si atom -5572.883853 kJ/mol
# Density = 1.849741 g / cm^3
# Si number density = 18.539610 Si / 1000 Ang^3
#
#
#
# Elastic Constant Matrix: (Units=GPa)
#
#
# Indices 1 2 3 4 5 6 
#
# 1 146.5573 52.0905 55.9673 0.0000 0.0000 0.0000
# 2 52.0905 58.6013 40.8203 0.0000 0.0000 0.0000
# 3 55.9673 40.8203 146.5715 0.0000 0.0000 0.0000
# 4 0.0000 0.0000 0.0000 38.0715 0.0000 0.0000
# 5 0.0000 0.0000 0.0000 0.0000 28.5818 0.0000
# 6 0.0000 0.0000 0.0000 0.0000 0.0000 -3.7740
#
#
#
# Elastic Compliance Matrix: (Units=1/GPa)
#
#
# Indices 1 2 3 4 5 6 
#
# 1 0.010312 -0.007970 -0.001718 0.000000 0.000000 0.000000
# 2 -0.007970 0.027331 -0.004569 0.000000 0.000000 0.000000
# 3 -0.001718 -0.004569 0.008751 0.000000 0.000000 0.000000
# 4 0.000000 0.000000 0.000000 0.026266 0.000000 0.000000
# 5 0.000000 0.000000 0.000000 0.000000 0.034987 0.000000
# 6 0.000000 0.000000 0.000000 0.000000 0.000000 -0.264971
#
#
# Mechanical properties :
#
#
# Convention : Reuss Voigt Hill
#
# Bulk Modulus (GPa) = 55.92342 72.16514 64.04428
# Shear Modulus (GPa) = -40.69978 26.09934 -7.30022
#
# Velocity S-wave (km/s) = -4.69047 3.75608 -1.98650
# Velocity P-wave (km/s) = 0.94643 7.60396 5.41830
#
# Compressibility (1/GPa) = 0.01788160
#
# Stress axis : x y z
#
# Youngs Moduli (GPa) = 96.97509 36.58858 114.27292
#
# Poissons Ratio (x) = 0.29159 0.19632
# Poissons Ratio (y) = 0.77284 0.52207
# Poissons Ratio (z) = 0.16661 0.16716
#
# Static dielectric constant tensor:
#      x y z
#    x 1.608440 0.000000 0.000000 
#    y 0.000000 1.651220 0.000000 
#    z 0.000000 0.000000 1.785050 
# 
# From -- ./inp_files/3877.got.cif
#   From: 2010.05.17/outbox.cif.g08.bks.cpg/sg23_2_cif.got.tgz:3877.got - 2010.06.04 12:02:01.
