data_PCOD9329491
_publ_section_title
;
Structure prediction by ZEFSAII (Michael W. Deem and Ramdas Pophale) SiO2 
 PCOD9329491
Probable space group: I 2 2 2
;
_chemical_formula_sum "Si O2"
_cell_formula_units_Z 52
_cell_length_a 30.961294
_cell_length_b 8.410935
_cell_length_c 11.407406
_cell_angle_alpha 90.000000
_cell_angle_beta 90.000000
_cell_angle_gamma 90.000000
_cell_volume 2970.641739
_symmetry_space_group_name_H-M "I 2 2 2"
_symmetry_group_IT_number 23
_symmetry_cell_setting 'orthorhombic'
loop_
_space_group_symop_operation_xyz
x,y,z
-x,-y,z
x,-y,-z
-x,y,-z
1/2+x,1/2+y,1/2+z
1/2-x,1/2-y,1/2+z
1/2+x,1/2-y,1/2-z
1/2-x,1/2+y,1/2-z
loop_
_atom_site_type_symbol
_atom_site_label
_atom_site_fract_x
_atom_site_fract_y
_atom_site_fract_z
Si Si1 0.638577 0.992449 0.857613
Si Si2 0.295418 0.486226 0.637653
Si Si3 0.716556 0.238959 0.821585
Si Si4 0.866338 0.127070 0.710150
Si Si5 0.692491 0.500000 0.000000
Si Si6 0.046881 0.045407 0.636856
Si Si7 0.544307 0.925886 0.132171
O O1 0.641953 0.813054 0.812006
O O2 0.676064 0.116560 0.823579
O O3 0.590552 0.034170 0.813599
O O4 0.638767 0.000000 0.000000
O O5 0.289210 0.500000 0.500000
O O6 0.287548 0.648067 0.709062
O O7 0.260191 0.361129 0.683984
O O8 0.343030 0.426178 0.671235
O O9 0.716968 0.351261 0.939049
O O10 0.838644 0.051292 0.604928
O O11 0.914135 0.051777 0.697608
O O12 0.045743 0.236086 0.633938
O O13 0.049596 0.000000 0.500000
O O14 0.000000 0.000000 0.685287
O O15 0.500000 0.000000 0.183561
O O16 0.545493 0.000000 0.000000
#
# Coordination Sequence:
#
# PCOD9329491 Si02
#       7
#     8   8   8   8   4   8   8
#     4  11  19  33  56  83 115 152 194 246 293 370
#     4  11  26  41  58  85 117 155 198 255 292 366
#     4  11  23  39  61  84 113 154 201 246 308 352
#     4  11  21  37  56  84 116 159 195 243 308 357
#     4  10  20  34  59  82 112 152 190 241 294 370
#     4  11  19  31  53  84 120 156 195 246 303 373
#     4  10  18  27  42  75 115 154 185 232 293 359
#
# _framework density 17.504636000000001
#
# number of rings (size 3 to 8) (size 9 to 14) (size 15 to 20)
#    0.000    1.231    2.308    7.846    4.308    0.000 
#    0.000    0.000    0.000    0.462    0.000    0.000 
#    0.000    1.231    0.000    0.000    0.000    0.000 
#
# Total GULP energy -144866.357822 kJ/mol
# GULP energy per Si atom -5571.782993 kJ/mol
# Density = 1.746479 g / cm^3
# Si number density = 17.504636 Si / 1000 Ang^3
#
#
#
# Elastic Constant Matrix: (Units=GPa)
#
#
# Indices 1 2 3 4 5 6 
#
# 1 130.5014 53.4539 21.6917 0.0000 0.0000 0.0000
# 2 53.4539 134.5499 28.1602 0.0000 0.0000 0.0000
# 3 21.6917 28.1602 50.0969 0.0000 0.0000 0.0000
# 4 0.0000 0.0000 0.0000 19.8849 0.0000 0.0000
# 5 0.0000 0.0000 0.0000 0.0000 18.3980 0.0000
# 6 0.0000 0.0000 0.0000 0.0000 0.0000 46.6783
#
#
#
# Elastic Compliance Matrix: (Units=1/GPa)
#
#
# Indices 1 2 3 4 5 6 
#
# 1 0.009366 -0.003255 -0.002226 0.000000 0.000000 0.000000
# 2 -0.003255 0.009554 -0.003961 0.000000 0.000000 0.000000
# 3 -0.002226 -0.003961 0.023152 0.000000 0.000000 0.000000
# 4 0.000000 0.000000 0.000000 0.050289 0.000000 0.000000
# 5 0.000000 0.000000 0.000000 0.000000 0.054354 0.000000
# 6 0.000000 0.000000 0.000000 0.000000 0.000000 0.021423
#
#
# Mechanical properties :
#
#
# Convention : Reuss Voigt Hill
#
# Bulk Modulus (GPa) = 43.12565 57.97330 50.54948
# Shear Modulus (GPa) = 25.67370 31.11507 28.39438
#
# Velocity S-wave (km/s) = 3.83388 4.22065 4.03191
# Velocity P-wave (km/s) = 6.65495 7.54603 7.11446
#
# Compressibility (1/GPa) = 0.02318806
#
# Stress axis : x y z
#
# Youngs Moduli (GPa) = 106.76910 104.66347 43.19341
#
# Poissons Ratio (x) = 0.34069 0.09613
# Poissons Ratio (y) = 0.34754 0.17110
# Poissons Ratio (z) = 0.23763 0.41460
#
# Static dielectric constant tensor:
#      x y z
#    x 1.644380 0.000000 0.000000 
#    y 0.000000 1.845400 0.000000 
#    z 0.000000 0.000000 1.553790 
# 
# From -- ./inp_files/18759.got.cif
#   From: 2010.05.17/outbox.cif.g08.bks.cpg/sg23_10_cif.got.tgz:18759.got - 2010.06.04 12:02:01.
