data_PCOD9329630
_publ_section_title
;
Structure prediction by ZEFSAII (Michael W. Deem and Ramdas Pophale) SiO2 
 PCOD9329630
Probable space group: I 2 2 2
;
_chemical_formula_sum "Si O2"
_cell_formula_units_Z 58
_cell_length_a 13.797667
_cell_length_b 7.278218
_cell_length_c 25.712154
_cell_angle_alpha 90.000000
_cell_angle_beta 90.000000
_cell_angle_gamma 90.000000
_cell_volume 2582.076942
_symmetry_space_group_name_H-M "I 2 2 2"
_symmetry_group_IT_number 23
_symmetry_cell_setting 'orthorhombic'
loop_
_space_group_symop_operation_xyz
x,y,z
-x,-y,z
x,-y,-z
-x,y,-z
1/2+x,1/2+y,1/2+z
1/2-x,1/2-y,1/2+z
1/2+x,1/2-y,1/2-z
1/2-x,1/2+y,1/2-z
loop_
_atom_site_type_symbol
_atom_site_label
_atom_site_fract_x
_atom_site_fract_y
_atom_site_fract_z
Si Si1 0.620016 0.297131 0.751886
Si Si2 0.098000 0.233569 0.244985
Si Si3 0.881899 0.289397 0.372186
Si Si4 0.476380 0.800243 0.578236
Si Si5 0.674946 0.701776 0.636468
Si Si6 0.798392 0.241418 0.148258
Si Si7 0.500000 0.500000 0.500000
Si Si8 0.405820 0.795014 0.134749
O O1 0.618214 0.517592 0.754275
O O2 0.514654 0.245977 0.729278
O O3 0.629372 0.223734 0.809654
O O4 0.696488 0.225620 0.710170
O O5 0.159223 0.287752 0.194298
O O6 0.098490 0.321018 0.302259
O O7 0.774770 0.229137 0.390045
O O8 0.895499 0.501491 0.388211
O O9 0.990550 0.209908 0.380582
O O10 0.575943 0.731217 0.605067
O O11 0.389775 0.824492 0.619122
O O12 0.444784 0.643480 0.537285
O O13 0.500000 0.000000 0.556175
O O14 0.689484 0.481003 0.643365
O O15 0.695893 0.303770 0.124742
#
# Coordination Sequence:
#
# PCOD9329630 Si02
#       8
#     8   8   8   8   8   8   2   8
#     4   9  16  26  43  66 106 159 203 244 292 328
#     4   9  16  26  43  66 106 159 203 244 292 328
#     4   9  18  29  45  74 114 162 207 243 280 326
#     4  12  25  41  69  96 113 151 188 233 309 380
#     4  10  18  34  53  75 116 157 193 245 298 344
#     4  10  18  34  53  75 116 157 193 245 298 344
#     4  12  26  52  68  90 134 136 178 256 324 364
#     4   9  18  29  45  74 114 162 207 243 280 326
#
# _framework density 22.462537999999999
#
# number of rings (size 3 to 8) (size 9 to 14) (size 15 to 20)
#    0.000    2.207    2.759    1.034    0.000    2.207 
#    0.000    0.000    0.000    0.000    0.000    1.931 
#    0.000    2.207    0.000    0.000    0.000    0.000 
#
# Total GULP energy -161700.442243 kJ/mol
# GULP energy per Si atom -5575.877319 kJ/mol
# Density = 2.241141 g / cm^3
# Si number density = 22.462538 Si / 1000 Ang^3
#
#
#
# Elastic Constant Matrix: (Units=GPa)
#
#
# Indices 1 2 3 4 5 6 
#
# 1 192.0118 0.7239 2.5432 0.0000 0.0000 0.0000
# 2 0.7239 71.4091 1.3888 0.0000 0.0000 0.0000
# 3 2.5432 1.3888 31.1552 0.0000 0.0000 0.0000
# 4 0.0000 0.0000 0.0000 18.5845 0.0000 0.0000
# 5 0.0000 0.0000 0.0000 0.0000 3.2990 0.0000
# 6 0.0000 0.0000 0.0000 0.0000 0.0000 8.3327
#
#
#
# Elastic Compliance Matrix: (Units=1/GPa)
#
#
# Indices 1 2 3 4 5 6 
#
# 1 0.005214 -0.000045 -0.000424 0.000000 0.000000 0.000000
# 2 -0.000045 0.014016 -0.000621 0.000000 0.000000 0.000000
# 3 -0.000424 -0.000621 0.032160 0.000000 0.000000 0.000000
# 4 0.000000 0.000000 0.000000 0.053808 0.000000 0.000000
# 5 0.000000 0.000000 0.000000 0.000000 0.303122 0.000000
# 6 0.000000 0.000000 0.000000 0.000000 0.000000 0.120009
#
#
# Mechanical properties :
#
#
# Convention : Reuss Voigt Hill
#
# Bulk Modulus (GPa) = 20.32065 33.76530 27.04298
# Shear Modulus (GPa) = 9.14224 25.37125 17.25674
#
# Velocity S-wave (km/s) = 2.01961 3.36444 2.77473
# Velocity P-wave (km/s) = 3.80848 5.49154 4.72555
#
# Compressibility (1/GPa) = 0.04921102
#
# Stress axis : x y z
#
# Youngs Moduli (GPa) = 191.79896 71.34522 31.09489
#
# Poissons Ratio (x) = 0.00318 0.01317
# Poissons Ratio (y) = 0.00856 0.01931
# Poissons Ratio (z) = 0.08125 0.04432
#
# Static dielectric constant tensor:
#      x y z
#    x 1.941720 0.000000 0.000000 
#    y 0.000000 1.833740 0.000000 
#    z 0.000000 0.000000 1.791650 
# 
# From -- ./inp_files/29631.got.cif
#   From: 2010.05.17/outbox.cif.g08.bks.cpg/sg23_15_cif.got.tgz:29631.got - 2010.06.04 12:02:01.
