data_PCOD9329208
_publ_section_title
;
Structure prediction by ZEFSAII (Michael W. Deem and Ramdas Pophale) SiO2 
 PCOD9329208
Probable space group: F 2 2 2
;
_chemical_formula_sum "Si O2"
_cell_formula_units_Z 52
_cell_length_a 13.489687
_cell_length_b 30.591392
_cell_length_c 5.967576
_cell_angle_alpha 90.000000
_cell_angle_beta 90.000000
_cell_angle_gamma 90.000000
_cell_volume 2462.629461
_symmetry_space_group_name_H-M "F 2 2 2"
_symmetry_group_IT_number 22
_symmetry_cell_setting 'orthorhombic'
loop_
_space_group_symop_operation_xyz
x,y,z
-x,-y,z
x,-y,-z
-x,y,-z
x,1/2+y,1/2+z
-x,1/2-y,1/2+z
x,1/2-y,1/2-z
-x,1/2+y,1/2-z
1/2+x,y,1/2+z
1/2-x,-y,1/2+z
1/2+x,-y,1/2-z
1/2-x,y,1/2-z
1/2+x,1/2+y,z
1/2-x,1/2-y,z
1/2+x,1/2-y,-z
1/2-x,1/2+y,-z
loop_
_atom_site_type_symbol
_atom_site_label
_atom_site_fract_x
_atom_site_fract_y
_atom_site_fract_z
Si Si1 0.139628 0.574108 0.687526
Si Si2 0.855712 0.341522 0.366200
Si Si3 0.000000 0.372936 0.000000
Si Si4 0.500000 0.000000 0.500000
Si Si5 0.500000 0.773022 0.500000
O O1 0.250000 0.560743 0.750000
O O2 0.145685 0.611936 0.496656
O O3 0.072737 0.532834 0.628343
O O4 0.084234 0.597544 0.890138
O O5 0.750000 0.333597 0.250000
O O6 0.899245 0.302588 0.516566
O O7 0.941583 0.345594 0.181824
O O8 0.507293 0.750000 0.750000
#
# Coordination Sequence:
#
# PCOD9329208 Si02
#       5
#    16  16   8   4   8
#     4  12  26  43  74 104 141 195 251 299 371 446
#     4  12  25  47  77 107 140 198 248 295 367 454
#     4  12  21  45  74 102 138 190 246 306 354 440
#     4  12  26  46  60 112 154 180 242 318 382 420
#     4  12  28  50  78 116 158 191 241 316 387 447
#
# _framework density 21.115642999999999
#
# number of rings (size 3 to 8) (size 9 to 14) (size 15 to 20)
#    0.000    0.000    9.231    0.923    0.000    4.923 
#    0.000    4.615    0.000    0.000    0.000    0.000 
#    0.000    0.000    0.000    0.000    0.000    0.000 
#
# Total GULP energy -72584.819197 kJ/mol
# GULP energy per Si atom -5583.447631 kJ/mol
# Density = 2.106758 g / cm^3
# Si number density = 21.115643 Si / 1000 Ang^3
#
#
#
# Elastic Constant Matrix: (Units=GPa)
#
#
# Indices 1 2 3 4 5 6 
#
# 1 179.0779 52.1351 39.6409 0.0001 -0.0002 0.0003
# 2 52.1351 120.5529 40.3078 0.0000 0.0000 -0.0001
# 3 39.6409 40.3078 80.5493 0.0002 -0.0003 0.0004
# 4 0.0001 0.0000 0.0002 73.6768 -0.0002 -0.0001
# 5 -0.0002 0.0000 -0.0003 -0.0002 51.5841 -0.0002
# 6 0.0003 -0.0001 0.0004 -0.0001 -0.0002 -111.6528
#
#
#
# Elastic Compliance Matrix: (Units=1/GPa)
#
#
# Indices 1 2 3 4 5 6 
#
# 1 0.006703 -0.002157 -0.002220 0.000000 0.000000 0.000000
# 2 -0.002157 0.010656 -0.004271 0.000000 0.000000 0.000000
# 3 -0.002220 -0.004271 0.015644 0.000000 0.000000 0.000000
# 4 0.000000 0.000000 0.000000 0.013573 0.000000 0.000000
# 5 0.000000 0.000000 0.000000 0.000000 0.019386 0.000000
# 6 0.000000 0.000000 0.000000 0.000000 0.000000 -0.008956
#
#
# Mechanical properties :
#
#
# Convention : Reuss Voigt Hill
#
# Bulk Modulus (GPa) = 63.65836 71.59422 67.62629
# Shear Modulus (GPa) = 62.86382 19.26135 41.06258
#
# Velocity S-wave (km/s) = 5.46222 3.02351 4.41461
# Velocity P-wave (km/s) = 8.36624 6.79472 7.62110
#
# Compressibility (1/GPa) = 0.01570886
#
# Stress axis : x y z
#
# Youngs Moduli (GPa) = 149.17725 93.84484 63.92097
#
# Poissons Ratio (x) = 0.20241 0.14188
# Poissons Ratio (y) = 0.32175 0.27300
# Poissons Ratio (z) = 0.33112 0.40080
#
# Static dielectric constant tensor:
#      x y z
#    x 1.674790 0.000000 0.000000 
#    y 0.000000 1.875290 0.000000 
#    z 0.000000 0.000000 2.001980 
# 
# From -- ./inp_files/1924.got.cif
#   From: 2010.05.17/outbox.cif.g08.bks.cpg/sg22_1_cif.got.tgz:1924.got - 2010.06.03 23:40:54.
