data_PCOD9329325
_publ_section_title
;
Structure prediction by ZEFSAII (Michael W. Deem and Ramdas Pophale) SiO2 
 PCOD9329325
Probable space group: I 2 2 2
;
_chemical_formula_sum "Si O2"
_cell_formula_units_Z 56
_cell_length_a 19.536397
_cell_length_b 19.506800
_cell_length_c 6.976035
_cell_angle_alpha 90.000000
_cell_angle_beta 90.000000
_cell_angle_gamma 90.000000
_cell_volume 2658.515239
_symmetry_space_group_name_H-M "I 2 2 2"
_symmetry_group_IT_number 23
_symmetry_cell_setting 'orthorhombic'
loop_
_space_group_symop_operation_xyz
x,y,z
-x,-y,z
x,-y,-z
-x,y,-z
1/2+x,1/2+y,1/2+z
1/2-x,1/2-y,1/2+z
1/2+x,1/2-y,1/2-z
1/2-x,1/2+y,1/2-z
loop_
_atom_site_type_symbol
_atom_site_label
_atom_site_fract_x
_atom_site_fract_y
_atom_site_fract_z
Si Si1 0.873156 0.719973 0.198213
Si Si2 0.021987 0.304343 0.715211
Si Si3 0.777991 0.481433 0.271002
Si Si4 0.433973 0.037309 0.208442
Si Si5 0.344814 0.747800 0.868666
Si Si6 0.279732 0.341057 0.635109
Si Si7 0.745754 0.629663 0.184211
O O1 0.862573 0.717965 0.428728
O O2 0.848607 0.796609 0.146354
O O3 0.817888 0.664572 0.124485
O O4 0.952124 0.701815 0.164444
O O5 0.047110 0.382740 0.701406
O O6 0.088549 0.258414 0.761198
O O7 0.000000 0.282440 0.500000
O O8 0.779209 0.500000 0.500000
O O9 0.857127 0.469014 0.212810
O O10 0.732707 0.412783 0.258749
O O11 0.750039 0.548579 0.166093
O O12 0.500000 0.000000 0.298468
O O13 0.429156 0.000000 0.000000
O O14 0.279302 0.789099 0.791488
O O15 0.317325 0.671563 0.905143
O O16 0.265729 0.355807 0.411444
#
# Coordination Sequence:
#
# PCOD9329325 Si02
#       7
#     8   8   8   8   8   8   8
#     4   9  18  28  45  66  95 121 154 185 230 276
#     4  10  16  26  41  67  97 126 144 185 231 278
#     4   9  16  25  43  67  92 119 150 193 232 268
#     4  10  15  20  38  68 101 119 141 178 240 283
#     4   9  17  29  44  65  94 122 150 187 230 275
#     4   9  16  30  45  65  91 122 154 191 226 273
#     4   9  17  29  46  66  92 119 156 190 229 271
#
# _framework density 21.064391000000001
#
# number of rings (size 3 to 8) (size 9 to 14) (size 15 to 20)
#    0.000    2.714    2.857    0.857    4.000    0.000 
#    0.000    1.429    0.000    0.857    0.000    6.000 
#    0.000    0.000    0.000    0.000    0.000    0.000 
#
# Total GULP energy -156284.390484 kJ/mol
# GULP energy per Si atom -5581.585374 kJ/mol
# Density = 2.101645 g / cm^3
# Si number density = 21.064391 Si / 1000 Ang^3
#
#
#
# Elastic Constant Matrix: (Units=GPa)
#
#
# Indices 1 2 3 4 5 6 
#
# 1 127.0746 77.0660 9.5793 0.0000 0.0000 0.0000
# 2 77.0660 152.7216 7.4075 0.0000 0.0000 0.0000
# 3 9.5793 7.4075 59.0196 0.0000 0.0000 0.0000
# 4 0.0000 0.0000 0.0000 21.9721 0.0000 0.0000
# 5 0.0000 0.0000 0.0000 0.0000 8.6994 0.0000
# 6 0.0000 0.0000 0.0000 0.0000 0.0000 21.2781
#
#
#
# Elastic Compliance Matrix: (Units=1/GPa)
#
#
# Indices 1 2 3 4 5 6 
#
# 1 0.011415 -0.005705 -0.001137 0.000000 0.000000 0.000000
# 2 -0.005705 0.009439 -0.000259 0.000000 0.000000 0.000000
# 3 -0.001137 -0.000259 0.017160 0.000000 0.000000 0.000000
# 4 0.000000 0.000000 0.000000 0.045512 0.000000 0.000000
# 5 0.000000 0.000000 0.000000 0.000000 0.114951 0.000000
# 6 0.000000 0.000000 0.000000 0.000000 0.000000 0.046997
#
#
# Mechanical properties :
#
#
# Convention : Reuss Voigt Hill
#
# Bulk Modulus (GPa) = 41.99256 58.54685 50.26970
# Shear Modulus (GPa) = 18.68366 26.70745 22.69555
#
# Velocity S-wave (km/s) = 2.98145 3.56462 3.28599
# Velocity P-wave (km/s) = 5.64187 6.69302 6.18980
#
# Compressibility (1/GPa) = 0.02381374
#
# Stress axis : x y z
#
# Youngs Moduli (GPa) = 87.60401 105.94014 58.27338
#
# Poissons Ratio (x) = 0.60440 0.06624
# Poissons Ratio (y) = 0.49979 0.01508
# Poissons Ratio (z) = 0.09958 0.02741
#
# Static dielectric constant tensor:
#      x y z
#    x 1.780430 0.000000 0.000000 
#    y 0.000000 1.741860 0.000000 
#    z 0.000000 0.000000 1.950130 
# 
# From -- ./inp_files/11358.got.cif
#   From: 2010.05.17/outbox.cif.g08.bks.cpg/sg23_6_cif.got.tgz:11358.got - 2010.06.04 12:02:01.
