data_PCOD9329633
_publ_section_title
;
Structure prediction by ZEFSAII (Michael W. Deem and Ramdas Pophale) SiO2 
 PCOD9329633
Probable space group: I 2 2 2
;
_chemical_formula_sum "Si O2"
_cell_formula_units_Z 64
_cell_length_a 12.210947
_cell_length_b 29.969321
_cell_length_c 7.785432
_cell_angle_alpha 90.000000
_cell_angle_beta 90.000000
_cell_angle_gamma 90.000000
_cell_volume 2849.108350
_symmetry_space_group_name_H-M "I 2 2 2"
_symmetry_group_IT_number 23
_symmetry_cell_setting 'orthorhombic'
loop_
_space_group_symop_operation_xyz
x,y,z
-x,-y,z
x,-y,-z
-x,y,-z
1/2+x,1/2+y,1/2+z
1/2-x,1/2-y,1/2+z
1/2+x,1/2-y,1/2-z
1/2-x,1/2+y,1/2-z
loop_
_atom_site_type_symbol
_atom_site_label
_atom_site_fract_x
_atom_site_fract_y
_atom_site_fract_z
Si Si1 0.228908 0.465624 0.245162
Si Si2 0.251878 0.058501 0.148595
Si Si3 0.289396 0.370775 0.106897
Si Si4 0.551731 0.145647 0.333968
Si Si5 0.808629 0.843254 0.207262
Si Si6 0.500929 0.059094 0.806961
Si Si7 0.032945 0.190101 0.701623
Si Si8 0.089214 0.287571 0.657604
O O1 0.235676 0.453313 0.447522
O O2 0.286712 0.514257 0.245772
O O3 0.274284 0.423864 0.136157
O O4 0.096638 0.467071 0.209053
O O5 0.191781 0.105945 0.140364
O O6 0.371634 0.064390 0.235833
O O7 0.178411 0.345569 0.157542
O O8 0.388038 0.352106 0.220548
O O9 0.300922 0.355118 0.910624
O O10 0.500000 0.121284 0.500000
O O11 0.541194 0.109777 0.185386
O O12 0.474747 0.186948 0.306692
O O13 0.704340 0.814267 0.140236
O O14 0.922077 0.816036 0.189698
O O15 0.500000 0.042456 0.000000
O O16 0.098829 0.236353 0.715946
O O17 0.000000 0.189878 0.500000
O O18 0.000000 0.289681 0.500000
#
# Coordination Sequence:
#
# PCOD9329633 Si02
#       8
#     8   8   8   8   8   8   8   8
#     4   9  20  32  57  84 125 159 195 252 310 358
#     4  10  18  34  54  89 119 160 204 244 299 375
#     4  10  21  40  60  85 122 159 197 258 307 361
#     4  11  19  32  54  88 118 153 191 243 301 359
#     4  11  22  40  65  86 117 159 213 253 306 382
#     4   9  16  29  50  79 117 155 191 233 297 363
#     4   9  23  44  62  84 119 162 207 259 317 372
#     4  11  23  39  62  90 119 159 200 253 315 376
#
# _framework density 22.463168
#
# number of rings (size 3 to 8) (size 9 to 14) (size 15 to 20)
#    0.000    2.000    2.500    0.750    5.250    2.000 
#    0.000    2.500    0.000    6.000    0.000    0.000 
#    0.000    0.000    0.000    0.000    0.000    0.000 
#
# Total GULP energy -178156.340103 kJ/mol
# GULP energy per Si atom -5567.385628 kJ/mol
# Density = 2.241204 g / cm^3
# Si number density = 22.463168 Si / 1000 Ang^3
#
#
#
# Elastic Constant Matrix: (Units=GPa)
#
#
# Indices 1 2 3 4 5 6 
#
# 1 76.0056 33.1641 18.2345 -0.0008 0.0075 -0.0001
# 2 33.1641 120.6972 11.9056 -0.0013 0.0048 0.0003
# 3 18.2345 11.9056 32.9124 -0.0053 0.0180 -0.0013
# 4 -0.0008 -0.0013 -0.0053 16.2060 0.0005 0.0009
# 5 0.0075 0.0048 0.0180 0.0005 21.6047 0.0000
# 6 -0.0001 0.0003 -0.0013 0.0009 0.0000 16.8110
#
#
#
# Elastic Compliance Matrix: (Units=1/GPa)
#
#
# Indices 1 2 3 4 5 6 
#
# 1 0.016712 -0.003815 -0.007879 -0.000002 0.000002 0.000000
# 2 -0.003815 0.009463 -0.001309 0.000000 0.000000 0.000000
# 3 -0.007879 -0.001309 0.035223 0.000011 -0.000026 0.000003
# 4 -0.000002 0.000000 0.000011 0.061706 -0.000001 -0.000003
# 5 0.000002 0.000000 -0.000026 -0.000001 0.046286 0.000000
# 6 0.000000 0.000000 0.000003 -0.000003 0.000000 0.059485
#
#
# Mechanical properties :
#
#
# Convention : Reuss Voigt Hill
#
# Bulk Modulus (GPa) = 28.25607 39.58041 33.91824
# Shear Modulus (GPa) = 18.74931 22.01173 20.38052
#
# Velocity S-wave (km/s) = 2.89220 3.13374 3.01539
# Velocity P-wave (km/s) = 4.87434 5.54546 5.22070
#
# Compressibility (1/GPa) = 0.03539063
#
# Stress axis : x y z
#
# Youngs Moduli (GPa) = 59.83852 105.67996 28.39089
#
# Poissons Ratio (x) = 0.40314 0.22369
# Poissons Ratio (y) = 0.22827 0.03718
# Poissons Ratio (z) = 0.47146 0.13838
#
# Static dielectric constant tensor:
#      x y z
#    x 1.882100 0.000000 0.000000 
#    y 0.000000 1.876980 0.000000 
#    z 0.000000 0.000000 1.955960 
# 
# From -- ./inp_files/8951.got.cif
#   From: 2010.05.17/outbox.cif.g08.bks.cpg/sg23_5_cif.got.tgz:8951.got - 2010.06.04 12:02:01.
