data_PCOD9329936
_publ_section_title
;
Structure prediction by ZEFSAII (Michael W. Deem and Ramdas Pophale) SiO2 
 PCOD9329936
Probable space group: I 2 2 2
;
_chemical_formula_sum "Si O2"
_cell_formula_units_Z 64
_cell_length_a 18.974858
_cell_length_b 10.500283
_cell_length_c 18.864185
_cell_angle_alpha 90.000000
_cell_angle_beta 90.000000
_cell_angle_gamma 90.000000
_cell_volume 3758.526231
_symmetry_space_group_name_H-M "I 2 2 2"
_symmetry_group_IT_number 23
_symmetry_cell_setting 'orthorhombic'
loop_
_space_group_symop_operation_xyz
x,y,z
-x,-y,z
x,-y,-z
-x,y,-z
1/2+x,1/2+y,1/2+z
1/2-x,1/2-y,1/2+z
1/2+x,1/2-y,1/2-z
1/2-x,1/2+y,1/2-z
loop_
_atom_site_type_symbol
_atom_site_label
_atom_site_fract_x
_atom_site_fract_y
_atom_site_fract_z
Si Si1 0.556755 0.814906 0.060662
Si Si2 0.746272 0.266543 0.851505
Si Si3 0.187781 0.140771 0.512002
Si Si4 0.648248 0.344457 0.255159
Si Si5 0.644588 0.358181 0.724831
Si Si6 0.259030 0.247521 0.869091
Si Si7 0.322470 0.013796 0.084129
Si Si8 0.496163 0.347659 0.193941
O O1 0.595946 0.942600 0.087348
O O2 0.524239 0.733203 0.124738
O O3 0.500000 0.837202 0.000000
O O4 0.621735 0.733340 0.027228
O O5 0.821626 0.248366 0.815435
O O6 0.692605 0.316557 0.791814
O O7 0.720832 0.128101 0.879451
O O8 0.737366 0.355687 0.919147
O O9 0.231815 0.186887 0.444621
O O10 0.159501 0.000000 0.500000
O O11 0.647946 0.489354 0.282480
O O12 0.703307 0.332814 0.190378
O O13 0.571804 0.311761 0.225161
O O14 0.681264 0.289713 0.658151
O O15 0.565035 0.327256 0.747740
O O16 0.302940 0.115818 0.876658
O O17 0.304951 0.000000 0.000000
O O18 0.500000 0.500000 0.177024
#
# Coordination Sequence:
#
# PCOD9329936 Si02
#       8
#     8   8   8   8   8   8   8   8
#     4  11  23  34  52  77 117 153 178 216 275 334
#     4  10  19  35  54  77 104 143 178 228 268 314
#     4  11  22  36  55  81 109 139 186 228 269 323
#     4  10  21  34  55  79 108 139 187 228 269 327
#     4  10  19  36  56  77 107 143 183 229 276 321
#     4  11  21  34  57  82 103 149 189 227 276 328
#     4  11  20  37  51  76 111 141 186 222 270 327
#     4  10  21  35  52  81 111 145 178 224 278 323
#
# _framework density 17.027951000000002
#
# number of rings (size 3 to 8) (size 9 to 14) (size 15 to 20)
#    0.000    1.500    6.250    1.500    3.500    0.250 
#    0.000    0.000    0.000    0.750    0.000    4.375 
#    0.000    0.000    0.000    0.000    0.000    0.000 
#
# Total GULP energy -178525.715703 kJ/mol
# GULP energy per Si atom -5578.928616 kJ/mol
# Density = 1.698919 g / cm^3
# Si number density = 17.027951 Si / 1000 Ang^3
#
#
#
# Elastic Constant Matrix: (Units=GPa)
#
#
# Indices 1 2 3 4 5 6 
#
# 1 72.2044 -3.9129 31.2496 0.0000 0.0000 0.0000
# 2 -3.9129 26.2477 -6.8340 0.0000 0.0000 0.0000
# 3 31.2496 -6.8340 61.1492 0.0000 0.0000 0.0000
# 4 0.0000 0.0000 0.0000 28.0428 0.0000 0.0000
# 5 0.0000 0.0000 0.0000 0.0000 30.8777 0.0000
# 6 0.0000 0.0000 0.0000 0.0000 0.0000 21.8131
#
#
#
# Elastic Compliance Matrix: (Units=1/GPa)
#
#
# Indices 1 2 3 4 5 6 
#
# 1 0.017785 0.000293 -0.009056 0.000000 0.000000 0.000000
# 2 0.000293 0.039245 0.004236 0.000000 0.000000 0.000000
# 3 -0.009056 0.004236 0.021455 0.000000 0.000000 0.000000
# 4 0.000000 0.000000 0.000000 0.035660 0.000000 0.000000
# 5 0.000000 0.000000 0.000000 0.000000 0.032386 0.000000
# 6 0.000000 0.000000 0.000000 0.000000 0.000000 0.045844
#
#
# Mechanical properties :
#
#
# Convention : Reuss Voigt Hill
#
# Bulk Modulus (GPa) = 14.40258 22.28963 18.34610
# Shear Modulus (GPa) = 22.26465 25.41998 23.84232
#
# Velocity S-wave (km/s) = 3.61991 3.86792 3.74597
# Velocity P-wave (km/s) = 5.09394 5.75032 5.43205
#
# Compressibility (1/GPa) = 0.06943203
#
# Stress axis : x y z
#
# Youngs Moduli (GPa) = 56.22771 25.48080 46.60962
#
# Poissons Ratio (x) = -0.00748 0.42209
# Poissons Ratio (y) = -0.01650 -0.19744
# Poissons Ratio (z) = 0.50919 -0.10794
#
# Static dielectric constant tensor:
#      x y z
#    x 1.570100 0.000000 0.000000 
#    y 0.000000 1.603540 0.000000 
#    z 0.000000 0.000000 1.581010 
# 
# From -- ./inp_files/17661.got.cif
#   From: 2010.05.17/outbox.cif.g08.bks.cpg/sg23_9_cif.got.tgz:17661.got - 2010.06.04 12:02:01.
