data_PCOD9329147
_publ_section_title
;
Structure prediction by ZEFSAII (Michael W. Deem and Ramdas Pophale) SiO2 
 PCOD9329147
Probable space group: F 2 2 2
;
_chemical_formula_sum "Si O2"
_cell_formula_units_Z 104
_cell_length_a 22.317398
_cell_length_b 8.089806
_cell_length_c 25.372033
_cell_angle_alpha 90.000000
_cell_angle_beta 90.000000
_cell_angle_gamma 90.000000
_cell_volume 4580.753616
_symmetry_space_group_name_H-M "F 2 2 2"
_symmetry_group_IT_number 22
_symmetry_cell_setting 'orthorhombic'
loop_
_space_group_symop_operation_xyz
x,y,z
-x,-y,z
x,-y,-z
-x,y,-z
x,1/2+y,1/2+z
-x,1/2-y,1/2+z
x,1/2-y,1/2-z
-x,1/2+y,1/2-z
1/2+x,y,1/2+z
1/2-x,-y,1/2+z
1/2+x,-y,1/2-z
1/2-x,y,1/2-z
1/2+x,1/2+y,z
1/2-x,1/2-y,z
1/2+x,1/2-y,-z
1/2-x,1/2+y,-z
loop_
_atom_site_type_symbol
_atom_site_label
_atom_site_fract_x
_atom_site_fract_y
_atom_site_fract_z
Si Si1 0.750000 0.750000 0.453166
Si Si2 0.851419 0.750000 0.750000
Si Si3 0.463383 0.776135 0.880669
Si Si4 0.654002 0.000000 0.500000
Si Si5 0.063306 0.065858 0.268303
Si Si6 0.583392 0.584580 0.895745
Si Si7 0.859851 0.455740 0.937903
Si Si8 0.184902 0.268955 0.862586
O O1 0.798567 0.643014 0.485400
O O2 0.797759 0.861645 0.422494
O O3 0.893849 0.585678 0.752249
O O4 0.812249 0.701459 0.800810
O O5 0.449545 0.891529 0.830314
O O6 0.533402 0.730520 0.891389
O O7 0.440818 0.589039 0.874946
O O8 0.421117 0.856232 0.926069
O O9 0.609051 0.058902 0.454446
O O10 0.081383 0.250000 0.250000
O O11 0.000000 0.000000 0.246148
O O12 0.644182 0.608363 0.863666
O O13 0.853572 0.610429 0.899175
O O14 0.856512 0.500000 0.000000
O O15 0.250000 0.250000 0.886359
#
# Coordination Sequence:
#
# PCOD9329147 Si02
#       8
#     8   8  16   8  16  16  16  16
#     4  12  24  44  68 102 149 201 274 312 376 470
#     4  12  25  50  76 110 156 198 257 330 402 461
#     4  11  26  48  69 113 149 189 256 318 400 466
#     4  12  24  45  70 104 149 210 262 318 390 470
#     4  12  25  45  77 108 146 196 249 312 387 478
#     4  11  26  46  75 106 152 199 254 323 391 473
#     4  12  26  46  74 108 152 205 257 324 387 473
#     4  12  27  48  76 108 147 202 257 319 390 471
#
# _framework density 22.703689000000001
#
# number of rings (size 3 to 8) (size 9 to 14) (size 15 to 20)
#    0.000    0.308    4.615    3.923    4.308    1.231 
#    0.000    2.308    0.000    0.923    0.000    0.000 
#    0.000    0.000    0.000    0.000    0.000    0.000 
#
# Total GULP energy -144853.947373 kJ/mol
# GULP energy per Si atom -5571.305668 kJ/mol
# Density = 2.265201 g / cm^3
# Si number density = 22.703689 Si / 1000 Ang^3
#
#
#
# Elastic Constant Matrix: (Units=GPa)
#
#
# Indices 1 2 3 4 5 6 
#
# 1 152.2835 60.9745 24.7515 0.0000 0.0000 0.0000
# 2 60.9745 119.9277 18.9338 0.0000 0.0000 0.0000
# 3 24.7515 18.9338 89.7597 0.0000 0.0000 0.0000
# 4 0.0000 0.0000 0.0000 12.3946 0.0000 0.0000
# 5 0.0000 0.0000 0.0000 0.0000 28.4174 0.0000
# 6 0.0000 0.0000 0.0000 0.0000 0.0000 22.0869
#
#
#
# Elastic Compliance Matrix: (Units=1/GPa)
#
#
# Indices 1 2 3 4 5 6 
#
# 1 0.008428 -0.004053 -0.001469 0.000000 0.000000 0.000000
# 2 -0.004053 0.010575 -0.001113 0.000000 0.000000 0.000000
# 3 -0.001469 -0.001113 0.011781 0.000000 0.000000 0.000000
# 4 0.000000 0.000000 0.000000 0.080680 0.000000 0.000000
# 5 0.000000 0.000000 0.000000 0.000000 0.035190 0.000000
# 6 0.000000 0.000000 0.000000 0.000000 0.000000 0.045276
#
#
# Mechanical properties :
#
#
# Convention : Reuss Voigt Hill
#
# Bulk Modulus (GPa) = 57.09964 63.47672 60.28818
# Shear Modulus (GPa) = 23.69240 29.73385 26.71312
#
# Velocity S-wave (km/s) = 3.23390 3.62283 3.43388
# Velocity P-wave (km/s) = 6.25689 6.74680 6.50646
#
# Compressibility (1/GPa) = 0.01751324
#
# Stress axis : x y z
#
# Youngs Moduli (GPa) = 118.64591 94.56376 84.88423
#
# Poissons Ratio (x) = 0.38330 0.12471
# Poissons Ratio (y) = 0.48091 0.09447
# Poissons Ratio (z) = 0.17431 0.10524
#
# Static dielectric constant tensor:
#      x y z
#    x 2.088630 0.000000 0.000000 
#    y 0.000000 1.939010 0.000000 
#    z 0.000000 0.000000 2.391400 
# 
# From -- ./inp_files/53970.got.cif
#   From: 2010.05.17/outbox.cif.g08.bks.cpg/sg22_27_cif.got.tgz:53970.got - 2010.06.03 23:40:54.
