data_PCOD9329759
_publ_section_title
;
Structure prediction by ZEFSAII (Michael W. Deem and Ramdas Pophale) SiO2 
 PCOD9329759
Probable space group: I 2 2 2
;
_chemical_formula_sum "Si O2"
_cell_formula_units_Z 32
_cell_length_a 26.500659
_cell_length_b 5.482538
_cell_length_c 8.916177
_cell_angle_alpha 90.000000
_cell_angle_beta 90.000000
_cell_angle_gamma 90.000000
_cell_volume 1295.439113
_symmetry_space_group_name_H-M "I 2 2 2"
_symmetry_group_IT_number 23
_symmetry_cell_setting 'orthorhombic'
loop_
_space_group_symop_operation_xyz
x,y,z
-x,-y,z
x,-y,-z
-x,y,-z
1/2+x,1/2+y,1/2+z
1/2-x,1/2-y,1/2+z
1/2+x,1/2-y,1/2-z
1/2-x,1/2+y,1/2-z
loop_
_atom_site_type_symbol
_atom_site_label
_atom_site_fract_x
_atom_site_fract_y
_atom_site_fract_z
Si Si1 0.941307 0.998965 0.316405
Si Si2 0.603206 0.999142 0.167604
Si Si3 0.307875 0.263707 0.548189
Si Si4 0.699451 0.279467 0.107060
O O1 0.912662 0.243299 0.264972
O O2 0.938482 0.000000 0.500000
O O3 0.916114 0.748911 0.259957
O O4 0.000000 0.000000 0.276100
O O5 0.662294 0.048392 0.137896
O O6 0.579409 0.000000 0.000000
O O7 0.339036 0.500000 0.500000
O O8 0.293723 0.335425 0.718428
O O9 0.254080 0.257643 0.462481
O O10 0.330376 0.000000 0.500000
O O11 0.676958 0.500000 0.000000
#
# Coordination Sequence:
#
# PCOD9329759 Si02
#       4
#     8   8   8   8
#     4   9  17  30  48  73 108 149 185 230 301 376
#     4  10  19  30  49  77 111 150 192 241 297 365
#     4  11  24  41  61  85 119 170 223 271 321 377
#     4  11  23  40  61  88 125 171 222 267 321 379
#
# _framework density 24.702048000000001
#
# number of rings (size 3 to 8) (size 9 to 14) (size 15 to 20)
#    0.000    1.750    0.000    6.750    0.000    9.000 
#    0.000    0.000    0.000    0.000    0.000    0.000 
#    0.000   15.000    0.000   36.000    0.000   34.000 
#
# Total GULP energy -89159.633125 kJ/mol
# GULP energy per Si atom -5572.477070 kJ/mol
# Density = 2.464582 g / cm^3
# Si number density = 24.702048 Si / 1000 Ang^3
#
#
#
# Elastic Constant Matrix: (Units=GPa)
#
#
# Indices 1 2 3 4 5 6 
#
# 1 58.7005 44.4435 -4.8554 0.0000 0.0000 0.0000
# 2 44.4435 248.9168 22.6512 0.0000 0.0000 0.0000
# 3 -4.8554 22.6512 117.8499 0.0000 0.0000 0.0000
# 4 0.0000 0.0000 0.0000 27.4771 0.0000 0.0000
# 5 0.0000 0.0000 0.0000 0.0000 22.9748 0.0000
# 6 0.0000 0.0000 0.0000 0.0000 0.0000 26.3748
#
#
#
# Elastic Compliance Matrix: (Units=1/GPa)
#
#
# Indices 1 2 3 4 5 6 
#
# 1 0.019968 -0.003705 0.001535 0.000000 0.000000 0.000000
# 2 -0.003705 0.004776 -0.001071 0.000000 0.000000 0.000000
# 3 0.001535 -0.001071 0.008754 0.000000 0.000000 0.000000
# 4 0.000000 0.000000 0.000000 0.036394 0.000000 0.000000
# 5 0.000000 0.000000 0.000000 0.000000 0.043526 0.000000
# 6 0.000000 0.000000 0.000000 0.000000 0.000000 0.037915
#
#
# Mechanical properties :
#
#
# Convention : Reuss Voigt Hill
#
# Bulk Modulus (GPa) = 37.01398 61.10509 49.05953
# Shear Modulus (GPa) = 29.97235 39.58051 34.77643
#
# Velocity S-wave (km/s) = 3.48710 4.00724 3.75618
# Velocity P-wave (km/s) = 5.58837 6.79714 6.22218
#
# Compressibility (1/GPa) = 0.02701682
#
# Stress axis : x y z
#
# Youngs Moduli (GPa) = 50.08112 209.36590 114.22840
#
# Poissons Ratio (x) = 0.77567 -0.17531
# Poissons Ratio (y) = 0.18554 0.12230
# Poissons Ratio (z) = -0.07686 0.22416
#
# Static dielectric constant tensor:
#      x y z
#    x 1.967780 0.000000 0.000000 
#    y 0.000000 2.051420 0.000000 
#    z 0.000000 0.000000 2.160630 
# 
# From -- ./inp_files/5748.got.cif
#   From: 2010.05.17/outbox.cif.g08.bks.cpg/sg23_3_cif.got.tgz:5748.got - 2010.06.04 12:02:01.
