data_PCOD9329628
_publ_section_title
;
Structure prediction by ZEFSAII (Michael W. Deem and Ramdas Pophale) SiO2 
 PCOD9329628
Probable space group: I 2 2 2
;
_chemical_formula_sum "Si O2"
_cell_formula_units_Z 52
_cell_length_a 9.660755
_cell_length_b 10.154888
_cell_length_c 21.543241
_cell_angle_alpha 90.000000
_cell_angle_beta 90.000000
_cell_angle_gamma 90.000000
_cell_volume 2113.475638
_symmetry_space_group_name_H-M "I 2 2 2"
_symmetry_group_IT_number 23
_symmetry_cell_setting 'orthorhombic'
loop_
_space_group_symop_operation_xyz
x,y,z
-x,-y,z
x,-y,-z
-x,y,-z
1/2+x,1/2+y,1/2+z
1/2-x,1/2-y,1/2+z
1/2+x,1/2-y,1/2-z
1/2-x,1/2+y,1/2-z
loop_
_atom_site_type_symbol
_atom_site_label
_atom_site_fract_x
_atom_site_fract_y
_atom_site_fract_z
Si Si1 0.573466 0.232094 0.557754
Si Si2 0.333391 0.108492 0.947831
Si Si3 0.836645 0.104939 0.873040
Si Si4 0.500000 0.000000 0.771669
Si Si5 0.563908 0.335890 0.244307
Si Si6 0.059670 0.738562 0.364366
Si Si7 0.849980 0.646187 0.812549
O O1 0.500000 0.165007 0.500000
O O2 0.710712 0.298449 0.529794
O O3 0.468562 0.344437 0.586752
O O4 0.626466 0.143878 0.614585
O O5 0.459233 0.198824 0.921849
O O6 0.251847 0.020716 0.896224
O O7 0.365068 0.000000 0.000000
O O8 0.879509 0.076406 0.801645
O O9 0.722003 0.221902 0.876291
O O10 0.520724 0.118867 0.818293
O O11 0.627424 0.009214 0.723391
O O12 0.471647 0.360497 0.182056
O O13 0.706106 0.294107 0.209988
O O14 0.472368 0.237029 0.285742
#
# Coordination Sequence:
#
# PCOD9329628 Si02
#       7
#     8   8   8   4   8   8   8
#     4  11  23  38  52  78 111 152 183 227 280 343
#     4  12  22  36  53  79 116 151 189 224 278 346
#     4  11  21  34  52  78 110 149 183 227 270 343
#     4  10  18  36  54  82 102 140 180 242 274 326
#     4  10  18  34  52  80 105 148 179 230 281 330
#     4  11  20  34  55  80 114 145 183 230 285 334
#     4  10  20  34  59  74 111 141 188 232 287 334
#
# _framework density 24.604022000000001
#
# number of rings (size 3 to 8) (size 9 to 14) (size 15 to 20)
#    0.000    1.231    7.692    0.462    0.000    1.231 
#    0.000    0.385    0.000    0.000    0.000    0.000 
#    0.000    0.000   12.000    0.000    0.000    0.000 
#
# Total GULP energy -144782.862217 kJ/mol
# GULP energy per Si atom -5568.571624 kJ/mol
# Density = 2.454802 g / cm^3
# Si number density = 24.604022 Si / 1000 Ang^3
#
#
#
# Elastic Constant Matrix: (Units=GPa)
#
#
# Indices 1 2 3 4 5 6 
#
# 1 156.0805 3.1128 39.6725 0.0000 0.0000 0.0000
# 2 3.1128 27.4581 -0.6554 0.0000 0.0000 0.0000
# 3 39.6725 -0.6554 139.2071 0.0000 0.0000 0.0000
# 4 0.0000 0.0000 0.0000 24.5220 0.0000 0.0000
# 5 0.0000 0.0000 0.0000 0.0000 26.2188 0.0000
# 6 0.0000 0.0000 0.0000 0.0000 0.0000 14.4105
#
#
#
# Elastic Compliance Matrix: (Units=1/GPa)
#
#
# Indices 1 2 3 4 5 6 
#
# 1 0.006926 -0.000832 -0.001978 0.000000 0.000000 0.000000
# 2 -0.000832 0.036523 0.000409 0.000000 0.000000 0.000000
# 3 -0.001978 0.000409 0.007749 0.000000 0.000000 0.000000
# 4 0.000000 0.000000 0.000000 0.040780 0.000000 0.000000
# 5 0.000000 0.000000 0.000000 0.000000 0.038141 0.000000
# 6 0.000000 0.000000 0.000000 0.000000 0.000000 0.069394
#
#
# Mechanical properties :
#
#
# Convention : Reuss Voigt Hill
#
# Bulk Modulus (GPa) = 21.55336 45.22285 33.38810
# Shear Modulus (GPa) = 22.75000 31.73798 27.24399
#
# Velocity S-wave (km/s) = 3.04410 3.59548 3.33122
# Velocity P-wave (km/s) = 4.59723 5.97134 5.32876
#
# Compressibility (1/GPa) = 0.04639649
#
# Stress axis : x y z
#
# Youngs Moduli (GPa) = 144.37767 27.37985 129.04678
#
# Poissons Ratio (x) = 0.02279 0.25523
# Poissons Ratio (y) = 0.12018 -0.05280
# Poissons Ratio (z) = 0.28556 -0.01120
#
# Static dielectric constant tensor:
#      x y z
#    x 2.006990 0.000000 0.000000 
#    y 0.000000 2.350450 0.000000 
#    z 0.000000 0.000000 2.027430 
# 
# From -- ./inp_files/10162.got.cif
#   From: 2010.05.17/outbox.cif.g08.bks.cpg/sg23_6_cif.got.tgz:10162.got - 2010.06.04 12:02:01.
