data_PCOD9329091
_publ_section_title
;
Structure prediction by ZEFSAII (Michael W. Deem and Ramdas Pophale) SiO2 
 PCOD9329091
Probable space group: F 2 2 2
;
_chemical_formula_sum "Si O2"
_cell_formula_units_Z 92
_cell_length_a 17.386747
_cell_length_b 21.323365
_cell_length_c 11.973601
_cell_angle_alpha 90.000000
_cell_angle_beta 90.000000
_cell_angle_gamma 90.000000
_cell_volume 4439.140160
_symmetry_space_group_name_H-M "F 2 2 2"
_symmetry_group_IT_number 22
_symmetry_cell_setting 'orthorhombic'
loop_
_space_group_symop_operation_xyz
x,y,z
-x,-y,z
x,-y,-z
-x,y,-z
x,1/2+y,1/2+z
-x,1/2-y,1/2+z
x,1/2-y,1/2-z
-x,1/2+y,1/2-z
1/2+x,y,1/2+z
1/2-x,-y,1/2+z
1/2+x,-y,1/2-z
1/2-x,y,1/2-z
1/2+x,1/2+y,z
1/2-x,1/2-y,z
1/2+x,1/2-y,-z
1/2-x,1/2+y,-z
loop_
_atom_site_type_symbol
_atom_site_label
_atom_site_fract_x
_atom_site_fract_y
_atom_site_fract_z
Si Si1 0.000000 0.706567 0.000000
Si Si2 0.940411 0.419992 0.599158
Si Si3 0.250000 0.750000 0.750000
Si Si4 0.853755 0.795727 0.053550
Si Si5 0.687990 0.840805 0.659938
Si Si6 0.978479 0.176996 0.260580
Si Si7 0.298179 0.509776 0.133199
O O1 0.075743 0.748406 0.971161
O O2 0.978837 0.666617 0.892144
O O3 0.890128 0.364235 0.549481
O O4 0.881113 0.474292 0.634951
O O5 0.000000 0.435837 0.500000
O O6 0.979416 0.381086 0.700511
O O7 0.192521 0.786268 0.832705
O O8 0.796124 0.803032 0.951877
O O9 0.750000 0.823834 0.750000
O O10 0.604479 0.821871 0.704715
O O11 0.691715 0.915857 0.644802
O O12 0.008855 0.250000 0.250000
O O13 0.250000 0.491090 0.250000
O O14 0.270106 0.500000 0.000000
#
# Coordination Sequence:
#
# PCOD9329091 Si02
#       7
#     8  16   4  16  16  16  16
#     4  12  24  44  64  92 146 182 220 276 352 414
#     4  12  22  44  73 100 130 179 237 286 341 416
#     4  12  32  36  66 116 144 174 248 290 346 432
#     4  12  22  45  63  99 138 182 224 284 341 421
#     4  11  25  43  68  99 133 179 232 276 350 424
#     4  12  22  41  67  99 136 173 224 282 338 423
#     4  11  25  47  72 104 139 182 237 301 355 418
#
# _framework density 20.724733000000001
#
# number of rings (size 3 to 8) (size 9 to 14) (size 15 to 20)
#    0.000    0.348    7.826    1.043    3.652    2.783 
#    7.826    0.000    0.000    1.043    0.000    0.000 
#    0.000    0.000    0.000    0.000    0.000    0.000 
#
# Total GULP energy -128167.029957 kJ/mol
# GULP energy per Si atom -5572.479563 kJ/mol
# Density = 2.067756 g / cm^3
# Si number density = 20.724733 Si / 1000 Ang^3
#
#
#
# Elastic Constant Matrix: (Units=GPa)
#
#
# Indices 1 2 3 4 5 6 
#
# 1 85.6944 56.8891 62.7171 0.0000 0.0000 0.0000
# 2 56.8891 102.4131 61.6118 0.0000 0.0000 0.0000
# 3 62.7171 61.6118 205.9854 0.0000 0.0000 0.0000
# 4 0.0000 0.0000 0.0000 30.4391 0.0000 0.0000
# 5 0.0000 0.0000 0.0000 0.0000 51.4683 0.0000
# 6 0.0000 0.0000 0.0000 0.0000 0.0000 282.2401
#
#
#
# Elastic Compliance Matrix: (Units=1/GPa)
#
#
# Indices 1 2 3 4 5 6 
#
# 1 0.020289 -0.009212 -0.003422 0.000000 0.000000 0.000000
# 2 -0.009212 0.016089 -0.002008 0.000000 0.000000 0.000000
# 3 -0.003422 -0.002008 0.006497 0.000000 0.000000 0.000000
# 4 0.000000 0.000000 0.000000 0.032853 0.000000 0.000000
# 5 0.000000 0.000000 0.000000 0.000000 0.019429 0.000000
# 6 0.000000 0.000000 0.000000 0.000000 0.000000 0.003543
#
#
# Mechanical properties :
#
#
# Convention : Reuss Voigt Hill
#
# Bulk Modulus (GPa) = 73.57009 84.05878 78.81444
# Shear Modulus (GPa) = 37.73174 87.02116 62.37645
#
# Velocity S-wave (km/s) = 4.27149 6.48692 5.49208
# Velocity P-wave (km/s) = 7.73972 9.83639 8.85037
#
# Compressibility (1/GPa) = 0.01359248
#
# Stress axis : x y z
#
# Youngs Moduli (GPa) = 49.28728 62.15389 153.91180
#
# Poissons Ratio (x) = 0.57253 0.52673
# Poissons Ratio (y) = 0.45401 0.30901
# Poissons Ratio (z) = 0.16868 0.12479
#
# Static dielectric constant tensor:
#      x y z
#    x 1.986000 0.000000 0.000000 
#    y 0.000000 1.725690 0.000000 
#    z 0.000000 0.000000 1.666780 
# 
# From -- ./inp_files/21460.got.cif
#   From: 2010.05.17/outbox.cif.g08.bks.cpg/sg22_11_cif.got.tgz:21460.got - 2010.06.03 23:40:54.
