data_PCOD9329830
_publ_section_title
;
Structure prediction by ZEFSAII (Michael W. Deem and Ramdas Pophale) SiO2 
 PCOD9329830
Probable space group: I 2 2 2
;
_chemical_formula_sum "Si O2"
_cell_formula_units_Z 64
_cell_length_a 17.774491
_cell_length_b 19.872149
_cell_length_c 8.954977
_cell_angle_alpha 90.000000
_cell_angle_beta 90.000000
_cell_angle_gamma 90.000000
_cell_volume 3163.053098
_symmetry_space_group_name_H-M "I 2 2 2"
_symmetry_group_IT_number 23
_symmetry_cell_setting 'orthorhombic'
loop_
_space_group_symop_operation_xyz
x,y,z
-x,-y,z
x,-y,-z
-x,y,-z
1/2+x,1/2+y,1/2+z
1/2-x,1/2-y,1/2+z
1/2+x,1/2-y,1/2-z
1/2-x,1/2+y,1/2-z
loop_
_atom_site_type_symbol
_atom_site_label
_atom_site_fract_x
_atom_site_fract_y
_atom_site_fract_z
Si Si1 0.863662 0.202129 0.631981
Si Si2 0.736484 0.698899 0.368050
Si Si3 0.476619 0.180567 0.833675
Si Si4 0.271157 0.619653 0.351207
Si Si5 0.133685 0.322004 0.832881
Si Si6 0.415731 0.577694 0.951111
Si Si7 0.715014 0.518215 0.178351
Si Si8 0.837626 0.623938 0.160725
O O1 0.801703 0.252573 0.564554
O O2 0.939021 0.245120 0.653134
O O3 0.831249 0.173243 0.786441
O O4 0.869632 0.135604 0.533903
O O5 0.729360 0.633978 0.473290
O O6 0.664134 0.745686 0.352299
O O7 0.774558 0.677563 0.213148
O O8 0.550058 0.179451 0.730978
O O9 0.410830 0.135735 0.761681
O O10 0.500000 0.159497 0.000000
O O11 0.191430 0.641480 0.279893
O O12 0.289994 0.546198 0.285989
O O13 0.141253 0.360839 0.990246
O O14 0.360997 0.564472 0.806706
O O15 0.421605 0.500000 0.000000
O O16 0.500000 0.601132 0.000000
O O17 0.794608 0.555138 0.194971
O O18 0.717609 0.500000 0.000000
#
# Coordination Sequence:
#
# PCOD9329830 Si02
#       8
#     8   8   8   8   8   8   8   8
#     4  10  19  36  59  89 125 161 205 256 327 394
#     4  10  22  36  59  96 125 163 209 267 330 390
#     4  11  24  39  60  96 132 164 209 277 342 389
#     4  11  21  38  64  89 124 161 214 268 316 384
#     4  11  20  38  64  89 126 167 208 269 320 393
#     4  10  19  32  57  94 126 158 204 262 313 382
#     4  11  20  41  64  90 120 169 222 267 313 380
#     4  11  23  39  63  90 124 169 223 262 323 401
#
# _framework density 20.233615
#
# number of rings (size 3 to 8) (size 9 to 14) (size 15 to 20)
#    0.000    1.375    3.750    5.250    0.000    3.500 
#    0.000    0.625    0.000    2.250    0.000    0.000 
#    0.000    0.000    0.000    0.000    0.000    0.000 
#
# Total GULP energy -178163.916953 kJ/mol
# GULP energy per Si atom -5567.622405 kJ/mol
# Density = 2.018756 g / cm^3
# Si number density = 20.233615 Si / 1000 Ang^3
#
#
#
# Elastic Constant Matrix: (Units=GPa)
#
#
# Indices 1 2 3 4 5 6 
#
# 1 124.0150 26.9805 47.3003 0.0000 0.0000 0.0000
# 2 26.9805 58.5234 20.8467 0.0000 0.0000 0.0000
# 3 47.3003 20.8467 86.9594 0.0000 0.0000 0.0000
# 4 0.0000 0.0000 0.0000 20.8217 0.0000 0.0000
# 5 0.0000 0.0000 0.0000 0.0000 29.9231 0.0000
# 6 0.0000 0.0000 0.0000 0.0000 0.0000 17.2746
#
#
#
# Elastic Compliance Matrix: (Units=1/GPa)
#
#
# Indices 1 2 3 4 5 6 
#
# 1 0.010671 -0.003118 -0.005057 0.000000 0.000000 0.000000
# 2 -0.003118 0.019594 -0.003001 0.000000 0.000000 0.000000
# 3 -0.005057 -0.003001 0.014970 0.000000 0.000000 0.000000
# 4 0.000000 0.000000 0.000000 0.048027 0.000000 0.000000
# 5 0.000000 0.000000 0.000000 0.000000 0.033419 0.000000
# 6 0.000000 0.000000 0.000000 0.000000 0.000000 0.057888
#
#
# Mechanical properties :
#
#
# Convention : Reuss Voigt Hill
#
# Bulk Modulus (GPa) = 43.70221 51.08365 47.39293
# Shear Modulus (GPa) = 23.30491 25.22857 24.26674
#
# Velocity S-wave (km/s) = 3.39749 3.53493 3.46689
# Velocity P-wave (km/s) = 6.08574 6.47786 6.28486
#
# Compressibility (1/GPa) = 0.02288214
#
# Stress axis : x y z
#
# Youngs Moduli (GPa) = 93.71601 51.03670 66.80239
#
# Poissons Ratio (x) = 0.15914 0.33779
# Poissons Ratio (y) = 0.29222 0.20048
# Poissons Ratio (z) = 0.47388 0.15317
#
# Static dielectric constant tensor:
#      x y z
#    x 1.788360 0.000000 0.000000 
#    y 0.000000 1.754840 0.000000 
#    z 0.000000 0.000000 1.777420 
# 
# From -- ./inp_files/11406.got.cif
#   From: 2010.05.17/outbox.cif.g08.bks.cpg/sg23_6_cif.got.tgz:11406.got - 2010.06.04 12:02:01.
