data_PCOD9329833
_publ_section_title
;
Structure prediction by ZEFSAII (Michael W. Deem and Ramdas Pophale) SiO2 
 PCOD9329833
Probable space group: I 2 2 2
;
_chemical_formula_sum "Si O2"
_cell_formula_units_Z 46
_cell_length_a 18.922426
_cell_length_b 11.764396
_cell_length_c 11.448469
_cell_angle_alpha 90.000000
_cell_angle_beta 90.000000
_cell_angle_gamma 90.000000
_cell_volume 2548.554134
_symmetry_space_group_name_H-M "I 2 2 2"
_symmetry_group_IT_number 23
_symmetry_cell_setting 'orthorhombic'
loop_
_space_group_symop_operation_xyz
x,y,z
-x,-y,z
x,-y,-z
-x,y,-z
1/2+x,1/2+y,1/2+z
1/2-x,1/2-y,1/2+z
1/2+x,1/2-y,1/2-z
1/2-x,1/2+y,1/2-z
loop_
_atom_site_type_symbol
_atom_site_label
_atom_site_fract_x
_atom_site_fract_y
_atom_site_fract_z
Si Si1 0.279444 0.126373 0.963188
Si Si2 0.500000 0.836518 0.000000
Si Si3 0.880023 0.167314 0.096650
Si Si4 0.920569 0.383996 0.953086
Si Si5 0.000000 0.000000 0.000000
Si Si6 0.604898 0.065761 0.190845
Si Si7 0.875315 0.296563 0.341343
O O1 0.197408 0.121128 0.934920
O O2 0.325927 0.138387 0.846175
O O3 0.308022 0.204670 0.069490
O O4 0.302269 0.000000 0.000000
O O5 0.451296 0.906498 0.089897
O O6 0.556169 0.770099 0.079452
O O7 0.875818 0.217561 0.227864
O O8 0.887773 0.272321 0.007559
O O9 0.945617 0.080963 0.073573
O O10 0.921790 0.390159 0.814425
O O11 0.885295 0.500000 0.000000
O O12 0.000000 0.383384 0.000000
O O13 0.616718 0.929492 0.198561
#
# Coordination Sequence:
#
# PCOD9329833 Si02
#       7
#     8   4   8   8   2   8   8
#     4   9  21  39  59  85 120 161 208 249 306 377
#     4  10  19  32  60  91 124 143 184 236 321 380
#     4  12  23  41  60  87 124 167 214 251 311 379
#     4  11  22  34  56  93 123 145 193 259 320 357
#     4  12  28  44  58  90 120 190 216 246 306 392
#     4  10  19  35  57  92 122 152 187 252 317 368
#     4  10  20  36  60  89 117 155 195 257 309 364
#
# _framework density 18.049451000000001
#
# number of rings (size 3 to 8) (size 9 to 14) (size 15 to 20)
#    0.000    1.565    3.478    3.652    4.870    0.000 
#    0.000    0.000    0.000    0.522    0.000    0.000 
#    0.000    0.000    0.000    0.000    0.000    0.000 
#
# Total GULP energy -128114.877659 kJ/mol
# GULP energy per Si atom -5570.212072 kJ/mol
# Density = 1.800837 g / cm^3
# Si number density = 18.049451 Si / 1000 Ang^3
#
#
#
# Elastic Constant Matrix: (Units=GPa)
#
#
# Indices 1 2 3 4 5 6 
#
# 1 120.8470 23.4883 54.1374 0.0000 0.0000 0.0000
# 2 23.4883 55.9739 39.0962 0.0000 0.0000 0.0000
# 3 54.1374 39.0962 156.7372 0.0000 0.0000 0.0000
# 4 0.0000 0.0000 0.0000 78.9975 0.0000 0.0000
# 5 0.0000 0.0000 0.0000 0.0000 20.0932 0.0000
# 6 0.0000 0.0000 0.0000 0.0000 0.0000 9.9364
#
#
#
# Elastic Compliance Matrix: (Units=1/GPa)
#
#
# Indices 1 2 3 4 5 6 
#
# 1 0.010001 -0.002160 -0.002915 0.000000 0.000000 0.000000
# 2 -0.002160 0.022101 -0.004767 0.000000 0.000000 0.000000
# 3 -0.002915 -0.004767 0.008576 0.000000 0.000000 0.000000
# 4 0.000000 0.000000 0.000000 0.012659 0.000000 0.000000
# 5 0.000000 0.000000 0.000000 0.000000 0.049768 0.000000
# 6 0.000000 0.000000 0.000000 0.000000 0.000000 0.100640
#
#
# Mechanical properties :
#
#
# Convention : Reuss Voigt Hill
#
# Bulk Modulus (GPa) = 47.63405 63.00021 55.31713
# Shear Modulus (GPa) = 21.69871 36.26116 28.97994
#
# Velocity S-wave (km/s) = 3.47101 4.48704 4.01132
# Velocity P-wave (km/s) = 6.52013 7.86287 7.22277
#
# Compressibility (1/GPa) = 0.02099338
#
# Stress axis : x y z
#
# Youngs Moduli (GPa) = 99.99106 45.24596 116.60276
#
# Poissons Ratio (x) = 0.09774 0.33995
# Poissons Ratio (y) = 0.21601 0.55582
# Poissons Ratio (z) = 0.29152 0.21568
#
# Static dielectric constant tensor:
#      x y z
#    x -0.914530 0.000000 0.000000 
#    y 0.000000 1.659520 0.000000 
#    z 0.000000 0.000000 1.640760 
# 
# From -- ./inp_files/15789.got.cif
#   From: 2010.05.17/outbox.cif.g08.bks.cpg/sg23_8_cif.got.tgz:15789.got - 2010.06.04 12:02:01.
