data_PCOD9329239
_publ_section_title
;
Structure prediction by ZEFSAII (Michael W. Deem and Ramdas Pophale) SiO2 
 PCOD9329239
Probable space group: F 2 2 2
;
_chemical_formula_sum "Si O2"
_cell_formula_units_Z 52
_cell_length_a 13.005410
_cell_length_b 20.244416
_cell_length_c 6.993816
_cell_angle_alpha 90.000000
_cell_angle_beta 90.000000
_cell_angle_gamma 90.000000
_cell_volume 1841.380346
_symmetry_space_group_name_H-M "F 2 2 2"
_symmetry_group_IT_number 22
_symmetry_cell_setting 'orthorhombic'
loop_
_space_group_symop_operation_xyz
x,y,z
-x,-y,z
x,-y,-z
-x,y,-z
x,1/2+y,1/2+z
-x,1/2-y,1/2+z
x,1/2-y,1/2-z
-x,1/2+y,1/2-z
1/2+x,y,1/2+z
1/2-x,-y,1/2+z
1/2+x,-y,1/2-z
1/2-x,y,1/2-z
1/2+x,1/2+y,z
1/2-x,1/2-y,z
1/2+x,1/2-y,-z
1/2-x,1/2+y,-z
loop_
_atom_site_type_symbol
_atom_site_label
_atom_site_fract_x
_atom_site_fract_y
_atom_site_fract_z
Si Si1 0.387970 0.896376 0.456243
Si Si2 0.153501 0.397520 0.004345
Si Si3 0.627661 0.751589 0.962106
Si Si4 0.500000 0.000000 0.000000
O O1 0.500000 0.926382 0.500000
O O2 0.273582 0.914846 0.533718
O O3 0.368758 0.899133 0.225913
O O4 0.396267 0.820942 0.534250
O O5 0.116560 0.323249 0.055152
O O6 0.079670 0.450708 0.101791
O O7 0.579855 0.750000 0.750000
O O8 0.750000 0.750000 0.941382
#
# Coordination Sequence:
#
# PCOD9329239 Si02
#       4
#    16  16  16   4
#     4   9  17  36  63  89 106 144 199 256 297 332
#     4   9  20  37  53  87 120 152 196 228 296 362
#     4   7  12  27  55  81 111 138 181 245 291 339
#     4  12  24  40  52  72 124 176 172 234 304 352
#
# _framework density 28.239684
#
# number of rings (size 3 to 8) (size 9 to 14) (size 15 to 20)
#    0.000    3.385    0.000    3.692    2.154    0.000 
#   11.077    0.000    0.000    0.000    0.000    0.000 
#    0.000    0.000    0.000    0.000    0.000    0.000 
#
# Total GULP energy -72483.521297 kJ/mol
# GULP energy per Si atom -5575.655484 kJ/mol
# Density = 2.817541 g / cm^3
# Si number density = 28.239684 Si / 1000 Ang^3
#
#
#
# Elastic Constant Matrix: (Units=GPa)
#
#
# Indices 1 2 3 4 5 6 
#
# 1 319.8120 63.9359 39.1063 0.0000 0.0000 0.0000
# 2 63.9359 196.5635 7.6462 0.0000 0.0000 0.0000
# 3 39.1063 7.6462 151.5250 0.0000 0.0000 0.0000
# 4 0.0000 0.0000 0.0000 -11.9369 0.0000 0.0000
# 5 0.0000 0.0000 0.0000 0.0000 26.6343 0.0000
# 6 0.0000 0.0000 0.0000 0.0000 0.0000 41.8583
#
#
#
# Elastic Compliance Matrix: (Units=1/GPa)
#
#
# Indices 1 2 3 4 5 6 
#
# 1 0.003447 -0.001089 -0.000835 0.000000 0.000000 0.000000
# 2 -0.001089 0.005441 0.000006 0.000000 0.000000 0.000000
# 3 -0.000835 0.000006 0.006815 0.000000 0.000000 0.000000
# 4 0.000000 0.000000 0.000000 -0.083774 0.000000 0.000000
# 5 0.000000 0.000000 0.000000 0.000000 0.037546 0.000000
# 6 0.000000 0.000000 0.000000 0.000000 0.000000 0.023890
#
#
# Mechanical properties :
#
#
# Convention : Reuss Voigt Hill
#
# Bulk Modulus (GPa) = 84.25407 98.80858 91.53132
# Shear Modulus (GPa) = 4333.14625 48.45860 2190.80243
#
# Velocity S-wave (km/s) = 39.21414 4.14693 27.88320
# Velocity P-wave (km/s) = 45.60955 7.61542 32.69729
#
# Compressibility (1/GPa) = 0.01186886
#
# Stress axis : x y z
#
# Youngs Moduli (GPa) = 290.14846 183.78138 146.74291
#
# Poissons Ratio (x) = 0.20006 0.12247
# Poissons Ratio (y) = 0.31585 -0.00093
# Poissons Ratio (z) = 0.24215 -0.00117
#
# Static dielectric constant tensor:
#      x y z
#    x 2.078980 0.000000 0.000000 
#    y 0.000000 2.204920 0.000000 
#    z 0.000000 0.000000 2.341650 
# 
# From -- ./inp_files/9448.got.cif
#   From: 2010.05.17/outbox.cif.g08.bks.cpg/sg22_5_cif.got.tgz:9448.got - 2010.06.03 23:40:54.
