data_PCOD9329383
_publ_section_title
;
Structure prediction by ZEFSAII (Michael W. Deem and Ramdas Pophale) SiO2 
 PCOD9329383
Probable space group: I 2 2 2
;
_chemical_formula_sum "Si O2"
_cell_formula_units_Z 52
_cell_length_a 8.608559
_cell_length_b 13.427082
_cell_length_c 20.714018
_cell_angle_alpha 90.000000
_cell_angle_beta 90.000000
_cell_angle_gamma 90.000000
_cell_volume 2394.288341
_symmetry_space_group_name_H-M "I 2 2 2"
_symmetry_group_IT_number 23
_symmetry_cell_setting 'orthorhombic'
loop_
_space_group_symop_operation_xyz
x,y,z
-x,-y,z
x,-y,-z
-x,y,-z
1/2+x,1/2+y,1/2+z
1/2-x,1/2-y,1/2+z
1/2+x,1/2-y,1/2-z
1/2-x,1/2+y,1/2-z
loop_
_atom_site_type_symbol
_atom_site_label
_atom_site_fract_x
_atom_site_fract_y
_atom_site_fract_z
Si Si1 0.233473 0.703843 0.333321
Si Si2 0.234554 0.886462 0.419006
Si Si3 0.271143 0.305244 0.407926
Si Si4 0.313497 0.986249 0.923153
Si Si5 0.500000 0.500000 0.141873
Si Si6 0.083833 0.794549 0.703519
Si Si7 0.500000 0.259785 0.000000
Si Si8 0.500000 0.188736 0.500000
O O1 0.281196 0.811029 0.362380
O O2 0.231556 0.618579 0.389013
O O3 0.348288 0.688253 0.274108
O O4 0.058110 0.716755 0.305517
O O5 0.159856 0.989711 0.398284
O O6 0.089803 0.829024 0.450721
O O7 0.371750 0.881585 0.468822
O O8 0.279382 0.421736 0.391011
O O9 0.217840 0.242383 0.345859
O O10 0.415538 0.258336 0.446501
O O11 0.126600 0.299561 0.459111
O O12 0.500000 0.000000 0.914028
O O13 0.280345 0.000000 0.000000
O O14 0.515083 0.400042 0.181660
#
# Coordination Sequence:
#
# PCOD9329383 Si02
#       8
#     8   8   8   8   4   8   4   4
#     4  11  24  44  68  99 134 188 231 289 354 430
#     4  10  21  42  68  95 130 177 226 283 346 415
#     4  11  21  41  66 101 137 182 224 295 357 428
#     4  11  20  38  72 105 132 173 239 295 354 431
#     4  10  22  47  70  92 127 188 238 270 338 420
#     4  11  25  45  69  94 135 185 240 285 344 431
#     4  10  16  39  71  88 126 176 230 274 350 412
#     4  10  24  40  68 106 148 174 216 300 380 412
#
# _framework density 21.718353
#
# number of rings (size 3 to 8) (size 9 to 14) (size 15 to 20)
#    0.000    1.385    4.615    2.769    2.154    2.769 
#    0.000    4.231    0.000    0.000    0.000    0.000 
#    0.000    0.000    0.000    0.000    0.000    0.000 
#
# Total GULP energy -145229.028639 kJ/mol
# GULP energy per Si atom -5585.731871 kJ/mol
# Density = 2.166892 g / cm^3
# Si number density = 21.718353 Si / 1000 Ang^3
#
#
#
# Elastic Constant Matrix: (Units=GPa)
#
#
# Indices 1 2 3 4 5 6 
#
# 1 78.9354 26.0797 26.1135 0.0000 0.0000 0.0000
# 2 26.0797 91.9104 38.7839 0.0000 0.0000 0.0000
# 3 26.1135 38.7839 84.8406 0.0000 0.0000 0.0000
# 4 0.0000 0.0000 0.0000 -9.5987 0.0000 0.0000
# 5 0.0000 0.0000 0.0000 0.0000 34.4211 0.0000
# 6 0.0000 0.0000 0.0000 0.0000 0.0000 6.8110
#
#
#
# Elastic Compliance Matrix: (Units=1/GPa)
#
#
# Indices 1 2 3 4 5 6 
#
# 1 0.014662 -0.002795 -0.003235 0.000000 0.000000 0.000000
# 2 -0.002795 0.014013 -0.005546 0.000000 0.000000 0.000000
# 3 -0.003235 -0.005546 0.015318 0.000000 0.000000 0.000000
# 4 0.000000 0.000000 0.000000 -0.104180 0.000000 0.000000
# 5 0.000000 0.000000 0.000000 0.000000 0.029052 0.000000
# 6 0.000000 0.000000 0.000000 0.000000 0.000000 0.146822
#
#
# Mechanical properties :
#
#
# Convention : Reuss Voigt Hill
#
# Bulk Modulus (GPa) = 47.98184 48.62675 48.30429
# Shear Modulus (GPa) = 34.29672 17.30728 25.80200
#
# Velocity S-wave (km/s) = 3.97817 2.82600 3.45052
# Velocity P-wave (km/s) = 6.57586 5.75210 6.17772
#
# Compressibility (1/GPa) = 0.02084122
#
# Stress axis : x y z
#
# Youngs Moduli (GPa) = 68.20160 71.35981 65.28380
#
# Poissons Ratio (x) = 0.19947 0.21120
# Poissons Ratio (y) = 0.19065 0.36205
# Poissons Ratio (z) = 0.22064 0.39574
#
# Static dielectric constant tensor:
#      x y z
#    x 1.835140 0.000000 0.000000 
#    y 0.000000 1.844600 0.000000 
#    z 0.000000 0.000000 1.885300 
# 
# From -- ./inp_files/26234.got.cif
#   From: 2010.05.17/outbox.cif.g08.bks.cpg/sg23_14_cif.got.tgz:26234.got - 2010.06.04 12:02:01.
