data_PCOD9329262
_publ_section_title
;
Structure prediction by ZEFSAII (Michael W. Deem and Ramdas Pophale) SiO2 
 PCOD9329262
Probable space group: F 2 2 2
;
_chemical_formula_sum "Si O2"
_cell_formula_units_Z 48
_cell_length_a 13.796605
_cell_length_b 27.044453
_cell_length_c 5.752248
_cell_angle_alpha 90.000000
_cell_angle_beta 90.000000
_cell_angle_gamma 90.000000
_cell_volume 2146.288181
_symmetry_space_group_name_H-M "F 2 2 2"
_symmetry_group_IT_number 22
_symmetry_cell_setting 'orthorhombic'
loop_
_space_group_symop_operation_xyz
x,y,z
-x,-y,z
x,-y,-z
-x,y,-z
x,1/2+y,1/2+z
-x,1/2-y,1/2+z
x,1/2-y,1/2-z
-x,1/2+y,1/2-z
1/2+x,y,1/2+z
1/2-x,-y,1/2+z
1/2+x,-y,1/2-z
1/2-x,y,1/2-z
1/2+x,1/2+y,z
1/2-x,1/2-y,z
1/2+x,1/2-y,-z
1/2-x,1/2+y,-z
loop_
_atom_site_type_symbol
_atom_site_label
_atom_site_fract_x
_atom_site_fract_y
_atom_site_fract_z
Si Si1 0.000000 0.278052 0.500000
Si Si2 0.352884 0.145215 0.350859
Si Si3 0.000000 0.904192 0.500000
Si Si4 0.645475 0.953923 0.649370
O O1 0.905376 0.313196 0.498174
O O2 0.996551 0.250000 0.750000
O O3 0.250000 0.161394 0.250000
O O4 0.338194 0.094975 0.495255
O O5 0.428944 0.129958 0.151196
O O6 0.932057 0.938101 0.659232
O O7 0.750000 0.968216 0.750000
O O8 0.610714 0.000000 0.500000
#
# Coordination Sequence:
#
# PCOD9329262 Si02
#       4
#     8  16   8  16
#     4  12  29  54  84 122 161 207 276 345 416 490
#     4  12  26  50  80 113 153 209 259 333 405 479
#     4  12  25  49  75 106 158 211 262 321 395 470
#     4  12  27  47  74 115 160 209 267 322 391 482
#
# _framework density 22.364193
#
# number of rings (size 3 to 8) (size 9 to 14) (size 15 to 20)
#    0.000    0.000    6.667    2.000    0.000    4.667 
#    0.000    5.000    0.000    0.000    0.000    0.000 
#    0.000    0.000    0.000    0.000    0.000    0.000 
#
# Total GULP energy -67265.327151 kJ/mol
# GULP energy per Si atom -5605.443929 kJ/mol
# Density = 2.231329 g / cm^3
# Si number density = 22.364193 Si / 1000 Ang^3
#
#
#
# Elastic Constant Matrix: (Units=GPa)
#
#
# Indices 1 2 3 4 5 6 
#
# 1 160.2364 16.4504 35.8081 0.0003 -0.0009 0.0005
# 2 16.4504 96.2882 29.0010 0.0000 0.0001 0.0001
# 3 35.8081 29.0010 86.7029 0.0008 -0.0019 0.0010
# 4 0.0003 0.0000 0.0008 70.8134 -0.0005 0.0006
# 5 -0.0009 0.0001 -0.0019 -0.0005 41.1045 -0.0003
# 6 0.0005 0.0001 0.0010 0.0006 -0.0003 92.8259
#
#
#
# Elastic Compliance Matrix: (Units=1/GPa)
#
#
# Indices 1 2 3 4 5 6 
#
# 1 0.006886 -0.000356 -0.002725 0.000000 0.000000 0.000000
# 2 -0.000356 0.011567 -0.003722 0.000000 0.000000 0.000000
# 3 -0.002725 -0.003722 0.013904 0.000000 0.000001 0.000000
# 4 0.000000 0.000000 0.000000 0.014122 0.000000 0.000000
# 5 0.000000 0.000000 0.000001 0.000000 0.024328 0.000000
# 6 0.000000 0.000000 0.000000 0.000000 0.000000 0.010773
#
#
# Mechanical properties :
#
#
# Convention : Reuss Voigt Hill
#
# Bulk Modulus (GPa) = 53.32826 56.19403 54.76115
# Shear Modulus (GPa) = 49.29169 58.41329 53.85249
#
# Velocity S-wave (km/s) = 4.69982 5.11623 4.91244
# Velocity P-wave (km/s) = 7.30399 7.75129 7.53096
#
# Compressibility (1/GPa) = 0.01875178
#
# Stress axis : x y z
#
# Youngs Moduli (GPa) = 145.21671 86.45018 71.92123
#
# Poissons Ratio (x) = 0.03075 0.19599
# Poissons Ratio (y) = 0.05166 0.26771
# Poissons Ratio (z) = 0.39572 0.32179
#
# Static dielectric constant tensor:
#      x y z
#    x 1.724540 0.000000 0.000000 
#    y 0.000000 1.813490 0.000000 
#    z 0.000000 0.000000 1.852120 
# 
# From -- ./inp_files/1625.got.cif
#   From: 2010.05.17/outbox.cif.g08.bks.cpg/sg22_1_cif.got.tgz:1625.got - 2010.06.03 23:40:54.
