data_PCOD9329159
_publ_section_title
;
Structure prediction by ZEFSAII (Michael W. Deem and Ramdas Pophale) SiO2 
 PCOD9329159
Probable space group: F 2 2 2
;
_chemical_formula_sum "Si O2"
_cell_formula_units_Z 52
_cell_length_a 11.236342
_cell_length_b 24.690906
_cell_length_c 7.511746
_cell_angle_alpha 90.000000
_cell_angle_beta 90.000000
_cell_angle_gamma 90.000000
_cell_volume 2084.024738
_symmetry_space_group_name_H-M "F 2 2 2"
_symmetry_group_IT_number 22
_symmetry_cell_setting 'orthorhombic'
loop_
_space_group_symop_operation_xyz
x,y,z
-x,-y,z
x,-y,-z
-x,y,-z
x,1/2+y,1/2+z
-x,1/2-y,1/2+z
x,1/2-y,1/2-z
-x,1/2+y,1/2-z
1/2+x,y,1/2+z
1/2-x,-y,1/2+z
1/2+x,-y,1/2-z
1/2-x,y,1/2-z
1/2+x,1/2+y,z
1/2-x,1/2-y,z
1/2+x,1/2-y,-z
1/2-x,1/2+y,-z
loop_
_atom_site_type_symbol
_atom_site_label
_atom_site_fract_x
_atom_site_fract_y
_atom_site_fract_z
Si Si1 0.871844 0.731102 0.453139
Si Si2 0.116163 0.578612 0.723211
Si Si3 0.630508 0.614888 0.863681
Si Si4 0.000000 0.500000 0.000000
O O1 0.862924 0.750000 0.250000
O O2 0.750000 0.750000 0.542846
O O3 0.872594 0.668886 0.515915
O O4 0.000000 0.754958 0.500000
O O5 0.250000 0.601718 0.750000
O O6 0.123273 0.567395 0.510968
O O7 0.992864 0.613056 0.745920
O O8 0.088042 0.532226 0.865998
O O9 0.750000 0.612125 0.750000
#
# Coordination Sequence:
#
# PCOD9329159 Si02
#       4
#    16  16  16   4
#     4  11  27  47  71 111 154 208 271 331 386 471
#     4  11  26  49  80 114 157 208 262 334 398 489
#     4  11  26  49  75 112 156 213 267 329 405 466
#     4  12  28  50  80 126 160 206 268 332 412 488
#
# _framework density 24.951719000000001
#
# number of rings (size 3 to 8) (size 9 to 14) (size 15 to 20)
#    0.000    0.923    3.077    1.846    8.615    8.615 
#    2.769    0.000    0.000    0.000    0.000    0.000 
#    0.000    0.000    0.000    0.000    0.000    0.000 
#
# Total GULP energy -72369.548789 kJ/mol
# GULP energy per Si atom -5566.888368 kJ/mol
# Density = 2.489493 g / cm^3
# Si number density = 24.951719 Si / 1000 Ang^3
#
#
#
# Elastic Constant Matrix: (Units=GPa)
#
#
# Indices 1 2 3 4 5 6 
#
# 1 333.2925 46.0233 81.6332 0.0000 0.0000 0.0000
# 2 46.0233 88.4735 54.3118 0.0000 0.0000 0.0000
# 3 81.6332 54.3118 149.4122 0.0000 0.0000 0.0000
# 4 0.0000 0.0000 0.0000 54.8544 0.0000 0.0000
# 5 0.0000 0.0000 0.0000 0.0000 54.1009 0.0000
# 6 0.0000 0.0000 0.0000 0.0000 0.0000 22.8252
#
#
#
# Elastic Compliance Matrix: (Units=1/GPa)
#
#
# Indices 1 2 3 4 5 6 
#
# 1 0.003511 -0.000835 -0.001615 0.000000 0.000000 0.000000
# 2 -0.000835 0.014748 -0.004905 0.000000 0.000000 0.000000
# 3 -0.001615 -0.004905 0.009358 0.000000 0.000000 0.000000
# 4 0.000000 0.000000 0.000000 0.018230 0.000000 0.000000
# 5 0.000000 0.000000 0.000000 0.000000 0.018484 0.000000
# 6 0.000000 0.000000 0.000000 0.000000 0.000000 0.043811
#
#
# Mechanical properties :
#
#
# Convention : Reuss Voigt Hill
#
# Bulk Modulus (GPa) = 77.47116 103.90163 90.68640
# Shear Modulus (GPa) = 39.32220 52.30344 45.81282
#
# Velocity S-wave (km/s) = 3.97411 4.58338 4.28957
# Velocity P-wave (km/s) = 7.22315 8.35113 7.80753
#
# Compressibility (1/GPa) = 0.01290803
#
# Stress axis : x y z
#
# Youngs Moduli (GPa) = 284.80213 67.80504 106.86031
#
# Poissons Ratio (x) = 0.05663 0.17256
# Poissons Ratio (y) = 0.23788 0.52411
# Poissons Ratio (z) = 0.45989 0.33256
#
# Static dielectric constant tensor:
#      x y z
#    x 2.103320 0.000000 0.000000 
#    y 0.000000 2.126990 0.000000 
#    z 0.000000 0.000000 1.992160 
# 
# From -- ./inp_files/8265.got.cif
#   From: 2010.05.17/outbox.cif.g08.bks.cpg/sg22_5_cif.got.tgz:8265.got - 2010.06.03 23:40:54.
