data_PCOD9329195
_publ_section_title
;
Structure prediction by ZEFSAII (Michael W. Deem and Ramdas Pophale) SiO2 
 PCOD9329195
Probable space group: F 2 2 2
;
_chemical_formula_sum "Si O2"
_cell_formula_units_Z 40
_cell_length_a 7.326657
_cell_length_b 15.312949
_cell_length_c 12.332337
_cell_angle_alpha 90.000000
_cell_angle_beta 90.000000
_cell_angle_gamma 90.000000
_cell_volume 1383.598493
_symmetry_space_group_name_H-M "F 2 2 2"
_symmetry_group_IT_number 22
_symmetry_cell_setting 'orthorhombic'
loop_
_space_group_symop_operation_xyz
x,y,z
-x,-y,z
x,-y,-z
-x,y,-z
x,1/2+y,1/2+z
-x,1/2-y,1/2+z
x,1/2-y,1/2-z
-x,1/2+y,1/2-z
1/2+x,y,1/2+z
1/2-x,-y,1/2+z
1/2+x,-y,1/2-z
1/2-x,y,1/2-z
1/2+x,1/2+y,z
1/2-x,1/2-y,z
1/2+x,1/2-y,-z
1/2-x,1/2+y,-z
loop_
_atom_site_type_symbol
_atom_site_label
_atom_site_fract_x
_atom_site_fract_y
_atom_site_fract_z
Si Si1 0.540561 0.834914 0.324447
Si Si2 0.703908 0.132124 0.032316
Si Si3 0.500000 0.000000 0.171435
O O1 0.566670 0.750000 0.250000
O O2 0.682249 0.854678 0.421678
O O3 0.342846 0.828510 0.380259
O O4 0.546286 0.918933 0.247122
O O5 0.655590 0.040658 0.093812
O O6 0.500000 0.165101 0.000000
#
# Coordination Sequence:
#
# PCOD9329195 Si02
#       3
#    16  16   8
#     4  11  30  63  97 143 213 270 336 432 511 605
#     4  11  29  56  99 146 191 268 346 414 506 625
#     4  12  29  55 102 142 200 266 331 415 516 602
#
# _framework density 28.910119000000002
#
# number of rings (size 3 to 8) (size 9 to 14) (size 15 to 20)
#    0.000    0.800    0.000    1.800   16.800    6.400 
#   21.600    0.000    8.800    0.000    0.000    0.000 
#    0.000    0.000    0.000    0.000    0.000    0.000 
#
# Total GULP energy -56087.621697 kJ/mol
# GULP energy per Si atom -5608.762170 kJ/mol
# Density = 2.884432 g / cm^3
# Si number density = 28.910119 Si / 1000 Ang^3
#
#
#
# Elastic Constant Matrix: (Units=GPa)
#
#
# Indices 1 2 3 4 5 6 
#
# 1 286.5033 119.8668 145.0794 0.0000 0.0000 0.0000
# 2 119.8668 302.2635 177.8102 0.0000 0.0000 0.0000
# 3 145.0794 177.8102 310.9674 0.0000 0.0000 0.0000
# 4 0.0000 0.0000 0.0000 48.4589 0.0000 0.0000
# 5 0.0000 0.0000 0.0000 0.0000 69.0874 0.0000
# 6 0.0000 0.0000 0.0000 0.0000 0.0000 50.4172
#
#
#
# Elastic Compliance Matrix: (Units=1/GPa)
#
#
# Indices 1 2 3 4 5 6 
#
# 1 0.004716 -0.000868 -0.001704 0.000000 0.000000 0.000000
# 2 -0.000868 0.005145 -0.002537 0.000000 0.000000 0.000000
# 3 -0.001704 -0.002537 0.005461 0.000000 0.000000 0.000000
# 4 0.000000 0.000000 0.000000 0.020636 0.000000 0.000000
# 5 0.000000 0.000000 0.000000 0.000000 0.014474 0.000000
# 6 0.000000 0.000000 0.000000 0.000000 0.000000 0.019834
#
#
# Mechanical properties :
#
#
# Convention : Reuss Voigt Hill
#
# Bulk Modulus (GPa) = 195.89293 198.36077 197.12685
# Shear Modulus (GPa) = 60.83660 64.05788 62.44724
#
# Velocity S-wave (km/s) = 4.59228 4.71229 4.65267
# Velocity P-wave (km/s) = 9.79924 9.91814 9.85887
#
# Compressibility (1/GPa) = 0.00510483
#
# Stress axis : x y z
#
# Youngs Moduli (GPa) = 212.02568 194.36600 183.10111
#
# Poissons Ratio (x) = 0.16868 0.31203
# Poissons Ratio (y) = 0.18401 0.46452
# Poissons Ratio (z) = 0.36133 0.49310
#
# Static dielectric constant tensor:
#      x y z
#    x 2.243180 0.000000 0.000000 
#    y 0.000000 2.294180 0.000000 
#    z 0.000000 0.000000 2.191560 
# 
# From -- ./inp_files/16508.got.cif
#   From: 2010.05.17/outbox.cif.g08.bks.cpg/sg22_9_cif.got.tgz:16508.got - 2010.06.03 23:40:54.
