data_PCOD9329277
_publ_section_title
;
Structure prediction by ZEFSAII (Michael W. Deem and Ramdas Pophale) SiO2 
 PCOD9329277
Probable space group: F 2 2 2
;
_chemical_formula_sum "Si O2"
_cell_formula_units_Z 68
_cell_length_a 7.504335
_cell_length_b 20.087005
_cell_length_c 21.610238
_cell_angle_alpha 90.000000
_cell_angle_beta 90.000000
_cell_angle_gamma 90.000000
_cell_volume 3257.518949
_symmetry_space_group_name_H-M "F 2 2 2"
_symmetry_group_IT_number 22
_symmetry_cell_setting 'orthorhombic'
loop_
_space_group_symop_operation_xyz
x,y,z
-x,-y,z
x,-y,-z
-x,y,-z
x,1/2+y,1/2+z
-x,1/2-y,1/2+z
x,1/2-y,1/2-z
-x,1/2+y,1/2-z
1/2+x,y,1/2+z
1/2-x,-y,1/2+z
1/2+x,-y,1/2-z
1/2-x,y,1/2-z
1/2+x,1/2+y,z
1/2-x,1/2-y,z
1/2+x,1/2-y,-z
1/2-x,1/2+y,-z
loop_
_atom_site_type_symbol
_atom_site_label
_atom_site_fract_x
_atom_site_fract_y
_atom_site_fract_z
Si Si1 0.716631 0.925110 0.681062
Si Si2 0.500000 0.000000 0.500000
Si Si3 0.311293 0.375998 0.942104
Si Si4 0.209656 0.174159 0.071917
Si Si5 0.789156 0.922676 0.180852
O O1 0.750000 0.899228 0.750000
O O2 0.786712 0.882583 0.623201
O O3 0.502793 0.926586 0.674390
O O4 0.781960 0.001598 0.677708
O O5 0.377738 0.950823 0.459937
O O6 0.494858 0.335419 0.932107
O O7 0.222189 0.346613 0.003498
O O8 0.250000 0.250000 0.085906
O O9 0.273809 0.123948 0.125207
O O10 0.750000 0.897159 0.250000
#
# Coordination Sequence:
#
# PCOD9329277 Si02
#       5
#    16   4  16  16  16
#     4   9  16  29  49  73  97 120 150 195 245 282
#     4   8  12  24  48  72  88 110 152 204 240 270
#     4   9  16  28  48  70  91 117 157 199 236 275
#     4   9  17  29  45  65  90 123 160 193 224 267
#     4   9  17  29  48  73  98 122 153 193 236 282
#
# _framework density 20.874782
#
# number of rings (size 3 to 8) (size 9 to 14) (size 15 to 20)
#    0.000    3.294    0.000    4.235    0.000    0.471 
#    0.000    4.706    0.000    3.529    0.000    6.588 
#    0.000    0.000    0.000    0.000    0.000    0.000 
#
# Total GULP energy -94788.049894 kJ/mol
# GULP energy per Si atom -5575.767641 kJ/mol
# Density = 2.082727 g / cm^3
# Si number density = 20.874782 Si / 1000 Ang^3
#
#
#
# Elastic Constant Matrix: (Units=GPa)
#
#
# Indices 1 2 3 4 5 6 
#
# 1 49.5191 14.2742 9.0132 0.0000 0.0000 0.0000
# 2 14.2742 80.4582 50.1660 0.0000 0.0000 0.0000
# 3 9.0132 50.1660 219.8522 0.0000 0.0000 0.0000
# 4 0.0000 0.0000 0.0000 -13.6447 0.0000 0.0000
# 5 0.0000 0.0000 0.0000 0.0000 22.3383 0.0000
# 6 0.0000 0.0000 0.0000 0.0000 0.0000 2.1210
#
#
#
# Elastic Compliance Matrix: (Units=1/GPa)
#
#
# Indices 1 2 3 4 5 6 
#
# 1 0.021283 -0.003768 -0.000013 0.000000 0.000000 0.000000
# 2 -0.003768 0.015157 -0.003304 0.000000 0.000000 0.000000
# 3 -0.000013 -0.003304 0.005303 0.000000 0.000000 0.000000
# 4 0.000000 0.000000 0.000000 -0.073288 0.000000 0.000000
# 5 0.000000 0.000000 0.000000 0.000000 0.044766 0.000000
# 6 0.000000 0.000000 0.000000 0.000000 0.000000 0.471470
#
#
# Mechanical properties :
#
#
# Convention : Reuss Voigt Hill
#
# Bulk Modulus (GPa) = 36.26664 55.19291 45.72978
# Shear Modulus (GPa) = 9.84152 20.58801 15.21477
#
# Velocity S-wave (km/s) = 2.17366 3.14389 2.70267
# Velocity P-wave (km/s) = 4.86938 6.29890 5.62970
#
# Compressibility (1/GPa) = 0.02757355
#
# Stress axis : x y z
#
# Youngs Moduli (GPa) = 46.98668 65.97435 188.57331
#
# Poissons Ratio (x) = 0.24858 0.00241
# Poissons Ratio (y) = 0.17704 0.62308
# Poissons Ratio (z) = 0.00060 0.21799
#
# Static dielectric constant tensor:
#      x y z
#    x 1.810240 0.000000 0.000000 
#    y 0.000000 1.713990 0.000000 
#    z 0.000000 0.000000 1.835630 
# 
# From -- ./inp_files/22360.got.cif
#   From: 2010.05.17/outbox.cif.g08.bks.cpg/sg22_12_cif.got.tgz:22360.got - 2010.06.03 23:40:54.
