data_PCOD9329886
_publ_section_title
;
Structure prediction by ZEFSAII (Michael W. Deem and Ramdas Pophale) SiO2 
 PCOD9329886
Probable space group: I 2 2 2
;
_chemical_formula_sum "Si O2"
_cell_formula_units_Z 56
_cell_length_a 22.202590
_cell_length_b 14.504179
_cell_length_c 9.085573
_cell_angle_alpha 90.000000
_cell_angle_beta 90.000000
_cell_angle_gamma 90.000000
_cell_volume 2925.830159
_symmetry_space_group_name_H-M "I 2 2 2"
_symmetry_group_IT_number 23
_symmetry_cell_setting 'orthorhombic'
loop_
_space_group_symop_operation_xyz
x,y,z
-x,-y,z
x,-y,-z
-x,y,-z
1/2+x,1/2+y,1/2+z
1/2-x,1/2-y,1/2+z
1/2+x,1/2-y,1/2-z
1/2-x,1/2+y,1/2-z
loop_
_atom_site_type_symbol
_atom_site_label
_atom_site_fract_x
_atom_site_fract_y
_atom_site_fract_z
Si Si1 0.055833 0.566507 0.763288
Si Si2 0.256686 0.831066 0.315114
Si Si3 0.063620 0.268134 0.444806
Si Si4 0.858501 0.603361 0.993068
Si Si5 0.812400 0.823905 0.381837
Si Si6 0.232064 0.975778 0.843249
Si Si7 0.636768 0.904444 0.159198
O O1 0.043570 0.659789 0.679568
O O2 0.078911 0.590148 0.924887
O O3 0.106735 0.506093 0.677685
O O4 0.000000 0.500000 0.765440
O O5 0.318686 0.832233 0.406968
O O6 0.207582 0.826933 0.446176
O O7 0.268526 0.751602 0.195977
O O8 0.248581 0.927310 0.231513
O O9 0.117231 0.204041 0.384357
O O10 0.097877 0.335016 0.562253
O O11 0.000000 0.226129 0.500000
O O12 0.829602 0.500000 0.000000
O O13 0.862848 0.632294 0.826388
O O14 0.801193 0.914352 0.280933
O O15 0.293986 0.920875 0.884374
O O16 0.201267 0.000000 0.000000
#
# Coordination Sequence:
#
# PCOD9329886 Si02
#       7
#     8   8   8   8   8   8   8
#     4  11  20  35  56  81 125 177 209 239 300 379
#     4  12  21  41  62  94 131 166 206 265 316 376
#     4  12  24  39  55  88 129 165 213 261 305 378
#     4  10  19  34  54  83 125 161 212 248 292 367
#     4  12  25  39  65  95 128 172 208 266 321 376
#     4  12  23  41  65  95 126 166 213 264 322 380
#     4  11  20  34  57  89 123 170 205 248 310 377
#
# _framework density 19.139866999999999
#
# number of rings (size 3 to 8) (size 9 to 14) (size 15 to 20)
#    0.000    0.571    7.143    4.286    0.000    2.571 
#    0.000    0.000    0.000    1.714    0.000    1.000 
#    0.000    0.000    0.000    0.000    0.000    0.000 
#
# Total GULP energy -156270.821778 kJ/mol
# GULP energy per Si atom -5581.100778 kJ/mol
# Density = 1.909630 g / cm^3
# Si number density = 19.139867 Si / 1000 Ang^3
#
#
#
# Elastic Constant Matrix: (Units=GPa)
#
#
# Indices 1 2 3 4 5 6 
#
# 1 98.2009 25.1547 19.0493 0.0000 0.0000 0.0000
# 2 25.1547 61.5590 29.3679 0.0000 0.0000 0.0000
# 3 19.0493 29.3679 108.2252 0.0000 0.0000 0.0000
# 4 0.0000 0.0000 0.0000 29.5027 0.0000 0.0000
# 5 0.0000 0.0000 0.0000 0.0000 22.7783 0.0000
# 6 0.0000 0.0000 0.0000 0.0000 0.0000 30.7443
#
#
#
# Elastic Compliance Matrix: (Units=1/GPa)
#
#
# Indices 1 2 3 4 5 6 
#
# 1 0.011442 -0.004267 -0.000856 0.000000 0.000000 0.000000
# 2 -0.004267 0.020252 -0.004744 0.000000 0.000000 0.000000
# 3 -0.000856 -0.004744 0.010678 0.000000 0.000000 0.000000
# 4 0.000000 0.000000 0.000000 0.033895 0.000000 0.000000
# 5 0.000000 0.000000 0.000000 0.000000 0.043902 0.000000
# 6 0.000000 0.000000 0.000000 0.000000 0.000000 0.032526
#
#
# Mechanical properties :
#
#
# Convention : Reuss Voigt Hill
#
# Bulk Modulus (GPa) = 44.17598 46.12544 45.15071
# Shear Modulus (GPa) = 27.78147 29.56595 28.67371
#
# Velocity S-wave (km/s) = 3.81399 3.93457 3.87475
# Velocity P-wave (km/s) = 6.52120 6.69273 6.60752
#
# Compressibility (1/GPa) = 0.02263674
#
# Stress axis : x y z
#
# Youngs Moduli (GPa) = 87.39468 49.37862 93.64960
#
# Poissons Ratio (x) = 0.21071 0.08017
# Poissons Ratio (y) = 0.37293 0.44431
# Poissons Ratio (z) = 0.07482 0.23427
#
# Static dielectric constant tensor:
#      x y z
#    x 1.709240 0.000000 0.000000 
#    y 0.000000 1.695250 0.000000 
#    z 0.000000 0.000000 1.734100 
# 
# From -- ./inp_files/12037.got.cif
#   From: 2010.05.17/outbox.cif.g08.bks.cpg/sg23_7_cif.got.tgz:12037.got - 2010.06.04 12:02:01.
