data_PCOD9329510
_publ_section_title
;
Structure prediction by ZEFSAII (Michael W. Deem and Ramdas Pophale) SiO2 
 PCOD9329510
Probable space group: I 2 2 2
;
_chemical_formula_sum "Si O2"
_cell_formula_units_Z 40
_cell_length_a 26.373611
_cell_length_b 7.737201
_cell_length_c 7.398188
_cell_angle_alpha 90.000000
_cell_angle_beta 90.000000
_cell_angle_gamma 90.000000
_cell_volume 1509.658925
_symmetry_space_group_name_H-M "I 2 2 2"
_symmetry_group_IT_number 23
_symmetry_cell_setting 'orthorhombic'
loop_
_space_group_symop_operation_xyz
x,y,z
-x,-y,z
x,-y,-z
-x,y,-z
1/2+x,1/2+y,1/2+z
1/2-x,1/2-y,1/2+z
1/2+x,1/2-y,1/2-z
1/2-x,1/2+y,1/2-z
loop_
_atom_site_type_symbol
_atom_site_label
_atom_site_fract_x
_atom_site_fract_y
_atom_site_fract_z
Si Si1 0.556160 0.301528 0.274106
Si Si2 0.153226 0.668099 0.124492
Si Si3 0.834507 0.208073 0.754666
Si Si4 0.735670 0.412107 0.695923
Si Si5 0.946919 0.216562 0.207152
O O1 0.609424 0.250068 0.182143
O O2 0.552752 0.256594 0.488560
O O3 0.501266 0.233475 0.210569
O O4 0.557060 0.510690 0.260898
O O5 0.206732 0.725641 0.207255
O O6 0.105583 0.690052 0.255424
O O7 0.147641 0.500000 0.000000
O O8 0.151969 0.814470 0.966580
O O9 0.792889 0.359773 0.746377
O O10 0.803259 0.038307 0.697765
O O11 0.741037 0.500000 0.500000
#
# Coordination Sequence:
#
# PCOD9329510 Si02
#       5
#     8   8   8   8   8
#     4   8  13  24  44  64  92 131 166 196 246 307
#     4  10  18  29  46  72 104 134 165 211 258 310
#     4  10  18  31  46  66  96 141 173 209 258 308
#     4  10  20  32  48  71 102 143 178 213 257 314
#     4   8  13  24  42  67  93 128 163 197 250 304
#
# _framework density 26.49605
#
# number of rings (size 3 to 8) (size 9 to 14) (size 15 to 20)
#    0.000    2.800    2.000    2.400    0.000    0.000 
#    0.000    8.000    0.000    0.000    0.000    0.000 
#    0.000   27.200   28.800    0.000    0.000    0.000 
#
# Total GULP energy -111341.009416 kJ/mol
# GULP energy per Si atom -5567.050471 kJ/mol
# Density = 2.643574 g / cm^3
# Si number density = 26.496050 Si / 1000 Ang^3
#
#
#
# Elastic Constant Matrix: (Units=GPa)
#
#
# Indices 1 2 3 4 5 6 
#
# 1 349.0056 55.9154 30.9317 0.0000 0.0000 0.0000
# 2 55.9154 117.8841 11.9670 0.0000 0.0000 0.0000
# 3 30.9317 11.9670 71.9209 0.0000 0.0000 0.0000
# 4 0.0000 0.0000 0.0000 2.0081 0.0000 0.0000
# 5 0.0000 0.0000 0.0000 0.0000 11.6646 0.0000
# 6 0.0000 0.0000 0.0000 0.0000 0.0000 22.8497
#
#
#
# Elastic Compliance Matrix: (Units=1/GPa)
#
#
# Indices 1 2 3 4 5 6 
#
# 1 0.003190 -0.001398 -0.001139 0.000000 0.000000 0.000000
# 2 -0.001398 0.009241 -0.000937 0.000000 0.000000 0.000000
# 3 -0.001139 -0.000937 0.014550 0.000000 0.000000 0.000000
# 4 0.000000 0.000000 0.000000 0.497990 0.000000 0.000000
# 5 0.000000 0.000000 0.000000 0.000000 0.085730 0.000000
# 6 0.000000 0.000000 0.000000 0.000000 0.000000 0.043764
#
#
# Mechanical properties :
#
#
# Convention : Reuss Voigt Hill
#
# Bulk Modulus (GPa) = 49.91517 81.82654 65.87085
# Shear Modulus (GPa) = 7.48402 36.63757 22.06079
#
# Velocity S-wave (km/s) = 1.68247 3.72258 2.88862
# Velocity P-wave (km/s) = 4.75961 7.03039 6.00334
#
# Compressibility (1/GPa) = 0.02003399
#
# Stress axis : x y z
#
# Youngs Moduli (GPa) = 313.46253 108.21507 68.72818
#
# Poissons Ratio (x) = 0.15123 0.07832
# Poissons Ratio (y) = 0.43807 0.06437
# Poissons Ratio (z) = 0.35719 0.10135
#
# Static dielectric constant tensor:
#      x y z
#    x 2.359390 0.000000 0.000000 
#    y 0.000000 2.218320 0.000000 
#    z 0.000000 0.000000 2.227030 
# 
# From -- ./inp_files/17866.got.cif
#   From: 2010.05.17/outbox.cif.g08.bks.cpg/sg23_9_cif.got.tgz:17866.got - 2010.06.04 12:02:01.
