data_PCOD9329755
_publ_section_title
;
Structure prediction by ZEFSAII (Michael W. Deem and Ramdas Pophale) SiO2 
 PCOD9329755
Probable space group: I 2 2 2
;
_chemical_formula_sum "Si O2"
_cell_formula_units_Z 40
_cell_length_a 7.923027
_cell_length_b 21.477358
_cell_length_c 9.038246
_cell_angle_alpha 90.000000
_cell_angle_beta 90.000000
_cell_angle_gamma 90.000000
_cell_volume 1537.999343
_symmetry_space_group_name_H-M "I 2 2 2"
_symmetry_group_IT_number 23
_symmetry_cell_setting 'orthorhombic'
loop_
_space_group_symop_operation_xyz
x,y,z
-x,-y,z
x,-y,-z
-x,y,-z
1/2+x,1/2+y,1/2+z
1/2-x,1/2-y,1/2+z
1/2+x,1/2-y,1/2-z
1/2-x,1/2+y,1/2-z
loop_
_atom_site_type_symbol
_atom_site_label
_atom_site_fract_x
_atom_site_fract_y
_atom_site_fract_z
Si Si1 0.827158 0.681691 0.344840
Si Si2 0.004553 0.140961 0.666841
Si Si3 0.178098 0.305140 0.817759
Si Si4 0.000000 0.591009 0.000000
Si Si5 0.000000 0.000000 0.250772
Si Si6 0.354891 0.953530 0.185794
O O1 0.684711 0.662398 0.225491
O O2 0.733813 0.743008 0.406419
O O3 0.853644 0.611681 0.403194
O O4 0.012175 0.701833 0.284517
O O5 0.850856 0.171713 0.759160
O O6 0.000000 0.163265 0.500000
O O7 0.980555 0.066410 0.668427
O O8 0.130555 0.362986 0.920572
O O9 0.900731 0.558142 0.136323
O O10 0.824378 0.013082 0.169458
O O11 0.500000 0.000000 0.143831
#
# Coordination Sequence:
#
# PCOD9329755 Si02
#       6
#     8   8   8   4   4   8
#     4  10  21  32  51  71 103 150 175 220 259 308
#     4  11  21  32  51  77 105 140 176 208 260 322
#     4  11  19  36  48  72 106 144 185 217 260 307
#     4  10  21  32  54  72 108 151 172 218 260 323
#     4  10  19  30  48  74 104 135 168 201 242 314
#     4  10  20  34  49  77 106 144 175 208 266 319
#
# _framework density 26.007812999999999
#
# number of rings (size 3 to 8) (size 9 to 14) (size 15 to 20)
#    0.000    1.600    2.000    6.600    0.000    3.200 
#    0.000    0.000    0.000    0.000    0.000    0.000 
#    0.000   26.400    0.000    0.000    0.000    0.000 
#
# Total GULP energy -111554.046204 kJ/mol
# GULP energy per Si atom -5577.702310 kJ/mol
# Density = 2.594862 g / cm^3
# Si number density = 26.007813 Si / 1000 Ang^3
#
#
#
# Elastic Constant Matrix: (Units=GPa)
#
#
# Indices 1 2 3 4 5 6 
#
# 1 228.6910 61.3099 19.3166 -0.0001 0.0003 -0.0001
# 2 61.3099 138.3155 7.5005 0.0000 0.0002 0.0000
# 3 19.3166 7.5005 55.2419 -0.0007 -0.0026 0.0004
# 4 -0.0001 0.0000 -0.0007 14.1500 -0.0002 0.0000
# 5 0.0003 0.0002 -0.0026 -0.0002 30.9006 0.0000
# 6 -0.0001 0.0000 0.0004 0.0000 0.0000 66.5102
#
#
#
# Elastic Compliance Matrix: (Units=1/GPa)
#
#
# Indices 1 2 3 4 5 6 
#
# 1 0.005080 -0.002171 -0.001482 0.000000 0.000000 0.000000
# 2 -0.002171 0.008212 -0.000356 0.000000 0.000000 0.000000
# 3 -0.001482 -0.000356 0.018669 0.000001 0.000002 0.000000
# 4 0.000000 0.000000 0.000001 0.070671 0.000000 0.000000
# 5 0.000000 0.000000 0.000002 0.000000 0.032362 0.000000
# 6 0.000000 0.000000 0.000000 0.000000 0.000000 0.015035
#
#
# Mechanical properties :
#
#
# Convention : Reuss Voigt Hill
#
# Bulk Modulus (GPa) = 41.76585 66.50026 54.13306
# Shear Modulus (GPa) = 30.11561 44.58693 37.35127
#
# Velocity S-wave (km/s) = 3.40655 4.14498 3.79378
# Velocity P-wave (km/s) = 5.61842 6.96654 6.32848
#
# Compressibility (1/GPa) = 0.02394300
#
# Stress axis : x y z
#
# Youngs Moduli (GPa) = 196.85091 121.77835 53.56607
#
# Poissons Ratio (x) = 0.26443 0.07936
# Poissons Ratio (y) = 0.42745 0.01905
# Poissons Ratio (z) = 0.29164 0.04331
#
# Static dielectric constant tensor:
#      x y z
#    x 2.113750 0.000000 0.000000 
#    y 0.000000 2.135030 0.000000 
#    z 0.000000 0.000000 2.153660 
# 
# From -- ./inp_files/20077.got.cif
#   From: 2010.05.17/outbox.cif.g08.bks.cpg/sg23_11_cif.got.tgz:20077.got - 2010.06.04 12:02:01.
