data_PCOD9329290
_publ_section_title
;
Structure prediction by ZEFSAII (Michael W. Deem and Ramdas Pophale) SiO2 
 PCOD9329290
Probable space group: F 2 2 2
;
_chemical_formula_sum "Si O2"
_cell_formula_units_Z 16
_cell_length_a 9.000000
_cell_length_b 12.000000
_cell_length_c 30.000000
_cell_angle_alpha 90.000000
_cell_angle_beta 90.000000
_cell_angle_gamma 90.000000
_cell_volume 3240.000000
_symmetry_space_group_name_H-M "F 2 2 2"
_symmetry_group_IT_number 22
_symmetry_cell_setting 'orthorhombic'
loop_
_space_group_symop_operation_xyz
x,y,z
-x,-y,z
x,-y,-z
-x,y,-z
x,1/2+y,1/2+z
-x,1/2-y,1/2+z
x,1/2-y,1/2-z
-x,1/2+y,1/2-z
1/2+x,y,1/2+z
1/2-x,-y,1/2+z
1/2+x,-y,1/2-z
1/2-x,y,1/2-z
1/2+x,1/2+y,z
1/2-x,1/2-y,z
1/2+x,1/2-y,-z
1/2-x,1/2+y,-z
loop_
_atom_site_type_symbol
_atom_site_label
_atom_site_fract_x
_atom_site_fract_y
_atom_site_fract_z
Si Si1 0.920606 0.399183 0.765717
Si Si2 0.250000 0.750000 0.110971
Si Si3 0.012583 0.685198 0.674617
Si Si4 0.504995 0.633059 0.552136
Si Si5 0.250000 0.250000 0.109977
O O1 0.750000 0.407710 0.750000
O O2 0.009698 0.386319 0.719028
O O3 0.942569 0.299044 0.799892
O O4 0.000000 0.500000 0.789862
O O5 0.367543 0.690648 0.144026
O O6 0.348609 0.826823 0.078571
O O7 0.152036 0.667711 0.641525
O O8 0.500000 0.500000 0.553029
O O9 0.500000 0.668792 0.500000
O O10 0.366592 0.684446 0.579300
#
# Coordination Sequence:
#
# PCOD9329290 Si02
#       5
#    16   8  16  16   8
#     4  11  23  37  58  83 120 166 202 248 304 349
#     4  10  23  37  64  92 118 160 202 255 303 360
#     4  10  21  40  56  81 122 154 205 247 293 355
#     4  10  22  41  65  92 122 156 199 250 312 375
#     4  10  19  39  64  82 122 162 190 259 303 356
#
# _framework density 4.9382720000000004
#
# number of rings (size 3 to 8) (size 9 to 14) (size 15 to 20)
#    0.000    1.750    2.500    1.500    3.500    7.000 
#    0.000    3.750    0.000   13.500    0.000    0.000 
#    0.000    0.000    0.000    0.000    0.000    0.000 
#
# Total GULP energy -89148.711840 kJ/mol
# GULP energy per Si atom -5571.794490 kJ/mol
# Density = 0.492703 g / cm^3
# Si number density = 4.938272 Si / 1000 Ang^3
#
#
#
# Elastic Constant Matrix: (Units=GPa)
#
#
# Indices 1 2 3 4 5 6 
#
# 1 121.6215 25.6093 53.2281 0.0000 0.0000 0.0000
# 2 25.6093 74.4794 15.1253 0.0000 0.0000 0.0000
# 3 53.2281 15.1253 135.5732 0.0000 0.0000 0.0000
# 4 0.0000 0.0000 0.0000 261.3965 0.0000 0.0000
# 5 0.0000 0.0000 0.0000 0.0000 38.1555 0.0000
# 6 0.0000 0.0000 0.0000 0.0000 0.0000 12.9625
#
#
#
# Elastic Compliance Matrix: (Units=1/GPa)
#
#
# Indices 1 2 3 4 5 6 
#
# 1 0.010481 -0.002832 -0.003799 0.000000 0.000000 0.000000
# 2 -0.002832 0.014503 -0.000506 0.000000 0.000000 0.000000
# 3 -0.003799 -0.000506 0.008924 0.000000 0.000000 0.000000
# 4 0.000000 0.000000 0.000000 0.003826 0.000000 0.000000
# 5 0.000000 0.000000 0.000000 0.000000 0.026209 0.000000
# 6 0.000000 0.000000 0.000000 0.000000 0.000000 0.077146
#
#
# Mechanical properties :
#
#
# Convention : Reuss Voigt Hill
#
# Bulk Modulus (GPa) = 50.93320 57.73329 54.33325
# Shear Modulus (GPa) = 30.88174 78.35032 54.61603
#
# Velocity S-wave (km/s) = 3.95826 6.30484 5.26397
# Velocity P-wave (km/s) = 6.83603 9.07151 8.03192
#
# Compressibility (1/GPa) = 0.01963356
#
# Stress axis : x y z
#
# Youngs Moduli (GPa) = 95.40759 68.95033 112.05554
#
# Poissons Ratio (x) = 0.19530 0.42571
# Poissons Ratio (y) = 0.27023 0.05670
# Poissons Ratio (z) = 0.36247 0.03489
#
# Static dielectric constant tensor:
#      x y z
#    x 1.642600 0.000000 0.000000 
#    y 0.000000 1.520360 0.000000 
#    z 0.000000 0.000000 1.668970 
# 
# From -- ./inp_files/8554.got.cif
#   From: 2010.05.17/outbox.ucp.g08.bks.cvg/sg22_5_cif.got.tgz:8554.got - 2010.06.11 15:16:44.
