data_PCOD9329699
_publ_section_title
;
Structure prediction by ZEFSAII (Michael W. Deem and Ramdas Pophale) SiO2 
 PCOD9329699
Probable space group: I 2 2 2
;
_chemical_formula_sum "Si O2"
_cell_formula_units_Z 58
_cell_length_a 13.388698
_cell_length_b 18.164886
_cell_length_c 11.343344
_cell_angle_alpha 90.000000
_cell_angle_beta 90.000000
_cell_angle_gamma 90.000000
_cell_volume 2758.748595
_symmetry_space_group_name_H-M "I 2 2 2"
_symmetry_group_IT_number 23
_symmetry_cell_setting 'orthorhombic'
loop_
_space_group_symop_operation_xyz
x,y,z
-x,-y,z
x,-y,-z
-x,y,-z
1/2+x,1/2+y,1/2+z
1/2-x,1/2-y,1/2+z
1/2+x,1/2-y,1/2-z
1/2-x,1/2+y,1/2-z
loop_
_atom_site_type_symbol
_atom_site_label
_atom_site_fract_x
_atom_site_fract_y
_atom_site_fract_z
Si Si1 0.798812 0.621872 0.464044
Si Si2 0.072201 0.847113 0.108596
Si Si3 0.000000 0.000000 0.500000
Si Si4 0.288431 0.930112 0.775160
Si Si5 0.588262 0.943087 0.739897
Si Si6 0.047914 0.681978 0.199371
Si Si7 0.422075 0.599859 0.204019
Si Si8 0.573934 0.253850 0.093026
O O1 0.683891 0.628497 0.423757
O O2 0.814478 0.578189 0.585572
O O3 0.863254 0.588498 0.358200
O O4 0.844016 0.704409 0.470713
O O5 0.064718 0.758391 0.131008
O O6 0.023478 0.887666 0.221974
O O7 0.000000 0.864381 0.000000
O O8 0.938147 0.051564 0.588534
O O9 0.349043 0.861784 0.717819
O O10 0.169413 0.932157 0.776492
O O11 0.325647 0.000845 0.700325
O O12 0.537290 0.878684 0.661703
O O13 0.500000 0.000000 0.770023
O O14 0.999720 0.706380 0.324310
O O15 0.383247 0.681628 0.171862
O O16 0.500000 0.290544 0.000000
#
# Coordination Sequence:
#
# PCOD9329699 Si02
#       8
#     8   8   2   8   8   8   8   8
#     4  11  21  35  62  99 126 168 213 270 331 383
#     4  11  23  43  63  95 131 165 211 276 338 384
#     4  12  28  48  62  80 118 172 226 250 304 392
#     4  11  20  37  61  95 129 165 217 264 322 396
#     4   9  21  37  60  94 134 174 213 263 321 389
#     4   9  20  37  63  92 127 165 212 261 325 387
#     4  11  25  43  64  87 126 172 215 264 319 388
#     4  10  18  37  62  90 120 162 214 267 313 370
#
# _framework density 21.024025000000002
#
# number of rings (size 3 to 8) (size 9 to 14) (size 15 to 20)
#    0.000    1.655    3.448    1.241    1.931    1.655 
#    0.000    3.103    0.000    2.897    0.000    0.000 
#    0.000    0.000    0.000    0.000    0.000    0.000 
#
# Total GULP energy -161499.191357 kJ/mol
# GULP energy per Si atom -5568.937633 kJ/mol
# Density = 2.097617 g / cm^3
# Si number density = 21.024025 Si / 1000 Ang^3
#
#
#
# Elastic Constant Matrix: (Units=GPa)
#
#
# Indices 1 2 3 4 5 6 
#
# 1 57.3607 14.9353 -9.6592 0.0000 0.0000 0.0000
# 2 14.9353 56.6846 2.2469 0.0000 0.0000 0.0000
# 3 -9.6592 2.2469 31.4630 0.0000 0.0000 0.0000
# 4 0.0000 0.0000 0.0000 7.5112 0.0000 0.0000
# 5 0.0000 0.0000 0.0000 0.0000 24.6662 0.0000
# 6 0.0000 0.0000 0.0000 0.0000 0.0000 10.1378
#
#
#
# Elastic Compliance Matrix: (Units=1/GPa)
#
#
# Indices 1 2 3 4 5 6 
#
# 1 0.019970 -0.005520 0.006525 0.000000 0.000000 0.000000
# 2 -0.005520 0.019218 -0.003067 0.000000 0.000000 0.000000
# 3 0.006525 -0.003067 0.034006 0.000000 0.000000 0.000000
# 4 0.000000 0.000000 0.000000 0.133135 0.000000 0.000000
# 5 0.000000 0.000000 0.000000 0.000000 0.040541 0.000000
# 6 0.000000 0.000000 0.000000 0.000000 0.000000 0.098641
#
#
# Mechanical properties :
#
#
# Convention : Reuss Voigt Hill
#
# Bulk Modulus (GPa) = 14.47851 17.83935 16.15893
# Shear Modulus (GPa) = 13.41715 17.66205 15.53960
#
# Velocity S-wave (km/s) = 2.52897 2.90157 2.72165
# Velocity P-wave (km/s) = 3.92800 4.44175 4.19275
#
# Compressibility (1/GPa) = 0.06906788
#
# Stress axis : x y z
#
# Youngs Moduli (GPa) = 50.07602 52.03586 29.40696
#
# Poissons Ratio (x) = 0.28725 -0.19188
# Poissons Ratio (y) = 0.27643 0.09019
# Poissons Ratio (z) = -0.32674 0.15960
#
# Static dielectric constant tensor:
#      x y z
#    x 1.775490 0.000000 0.000000 
#    y 0.000000 1.861240 0.000000 
#    z 0.000000 0.000000 1.750250 
# 
# From -- ./inp_files/16941.got.cif
#   From: 2010.05.17/outbox.cif.g08.bks.cpg/sg23_9_cif.got.tgz:16941.got - 2010.06.04 12:02:01.
