data_PCOD9329312
_publ_section_title
;
Structure prediction by ZEFSAII (Michael W. Deem and Ramdas Pophale) SiO2 
 PCOD9329312
Probable space group: F 2 2 2
;
_chemical_formula_sum "Si O2"
_cell_formula_units_Z 22
_cell_length_a 30.000000
_cell_length_b 24.000000
_cell_length_c 6.000000
_cell_angle_alpha 90.000000
_cell_angle_beta 90.000000
_cell_angle_gamma 90.000000
_cell_volume 4320.000000
_symmetry_space_group_name_H-M "F 2 2 2"
_symmetry_group_IT_number 22
_symmetry_cell_setting 'orthorhombic'
loop_
_space_group_symop_operation_xyz
x,y,z
-x,-y,z
x,-y,-z
-x,y,-z
x,1/2+y,1/2+z
-x,1/2-y,1/2+z
x,1/2-y,1/2-z
-x,1/2+y,1/2-z
1/2+x,y,1/2+z
1/2-x,-y,1/2+z
1/2+x,-y,1/2-z
1/2-x,y,1/2-z
1/2+x,1/2+y,z
1/2-x,1/2-y,z
1/2+x,1/2-y,-z
1/2-x,1/2+y,-z
loop_
_atom_site_type_symbol
_atom_site_label
_atom_site_fract_x
_atom_site_fract_y
_atom_site_fract_z
Si Si1 0.000000 0.175885 0.000000
Si Si2 0.039102 0.085578 0.331499
Si Si3 0.197948 0.093209 0.298440
Si Si4 0.413135 0.500000 0.000000
Si Si5 0.122453 0.652696 0.026914
Si Si6 0.927328 0.250000 0.250000
Si Si7 0.664230 0.568560 0.799243
O O1 0.982032 0.136704 0.804258
O O2 0.040056 0.212089 0.899544
O O3 0.082209 0.110973 0.458189
O O4 0.000000 0.065755 0.500000
O O5 0.056796 0.041274 0.148820
O O6 0.250000 0.106819 0.250000
O O7 0.161892 0.142603 0.344720
O O8 0.185341 0.065995 0.052519
O O9 0.190885 0.062594 0.552593
O O10 0.379134 0.529460 0.175116
O O11 0.102138 0.712206 0.083966
O O12 0.144461 0.629980 0.256234
#
# Coordination Sequence:
#
# PCOD9329312 Si02
#       7
#     8  16  16   8  16   8  16
#     4  12  26  45  64 104 142 187 254 304 360 450
#     4  12  26  49  65 102 147 199 252 312 364 454
#     4  10  22  45  75 105 144 194 233 312 384 450
#     4  12  24  47  70 100 150 200 256 308 387 446
#     4  10  24  43  70 103 145 183 250 302 377 441
#     4  12  22  42  72 105 140 198 243 314 374 446
#     4  10  23  44  71 105 145 187 247 304 373 455
#
# _framework density 5.0925929999999999
#
# number of rings (size 3 to 8) (size 9 to 14) (size 15 to 20)
#    1.091    0.000    3.636    2.727    0.000    3.273 
#    3.273    1.818    0.000    3.273    0.000    0.000 
#    0.000    0.000    0.000    0.000    0.000    0.000 
#
# Total GULP energy -122477.285041 kJ/mol
# GULP energy per Si atom -5567.149320 kJ/mol
# Density = 0.508100 g / cm^3
# Si number density = 5.092593 Si / 1000 Ang^3
#
#
#
# Elastic Constant Matrix: (Units=GPa)
#
#
# Indices 1 2 3 4 5 6 
#
# 1 163.5547 64.5703 56.6947 -0.0106 0.0007 0.0103
# 2 64.5703 99.4190 43.7362 0.0442 0.0031 -0.0396
# 3 56.6947 43.7362 146.9942 0.0115 0.0003 -0.0593
# 4 -0.0106 0.0442 0.0115 28.8267 -0.0066 -0.0528
# 5 0.0007 0.0031 0.0003 -0.0066 53.7792 -0.0138
# 6 0.0103 -0.0396 -0.0593 -0.0528 -0.0138 23.2744
#
#
#
# Elastic Compliance Matrix: (Units=1/GPa)
#
#
# Indices 1 2 3 4 5 6 
#
# 1 0.008669 -0.004786 -0.001920 0.000011 0.000000 -0.000017
# 2 -0.004786 0.014215 -0.002384 -0.000023 -0.000001 0.000020
# 3 -0.001920 -0.002384 0.008253 0.000000 0.000000 0.000018
# 4 0.000011 -0.000023 0.000000 0.034690 0.000004 0.000079
# 5 0.000000 -0.000001 0.000000 0.000004 0.018595 0.000011
# 6 -0.000017 0.000020 0.000018 0.000079 0.000011 0.042966
#
#
# Mechanical properties :
#
#
# Convention : Reuss Voigt Hill
#
# Bulk Modulus (GPa) = 77.16858 82.21892 79.69375
# Shear Modulus (GPa) = 33.35873 37.50716 35.43295
#
# Velocity S-wave (km/s) = 4.05113 4.29565 4.17518
# Velocity P-wave (km/s) = 7.73610 8.06555 7.90254
#
# Compressibility (1/GPa) = 0.01295864
#
# Stress axis : x y z
#
# Youngs Moduli (GPa) = 115.35356 70.34623 121.17356
#
# Poissons Ratio (x) = 0.33667 0.23261
# Poissons Ratio (y) = 0.55206 0.28884
# Poissons Ratio (z) = 0.22143 0.16769
#
# Static dielectric constant tensor:
#      x y z
#    x 1.745290 -0.000010 0.000010 
#    y -0.000010 1.764040 -0.000040 
#    z 0.000010 -0.000040 1.737730 
# 
# From -- ./inp_files/6474.got.cif
#   From: 2010.05.17/outbox.ucp.g08.bks.cvg/sg22_4_cif.got.tgz:6474.got - 2010.06.11 15:16:44.
