data_PCOD9329550
_publ_section_title
;
Structure prediction by ZEFSAII (Michael W. Deem and Ramdas Pophale) SiO2 
 PCOD9329550
Probable space group: I 2 2 2
;
_chemical_formula_sum "Si O2"
_cell_formula_units_Z 58
_cell_length_a 8.028121
_cell_length_b 12.182781
_cell_length_c 27.127990
_cell_angle_alpha 90.000000
_cell_angle_beta 90.000000
_cell_angle_gamma 90.000000
_cell_volume 2653.248721
_symmetry_space_group_name_H-M "I 2 2 2"
_symmetry_group_IT_number 23
_symmetry_cell_setting 'orthorhombic'
loop_
_space_group_symop_operation_xyz
x,y,z
-x,-y,z
x,-y,-z
-x,y,-z
1/2+x,1/2+y,1/2+z
1/2-x,1/2-y,1/2+z
1/2+x,1/2-y,1/2-z
1/2-x,1/2+y,1/2-z
loop_
_atom_site_type_symbol
_atom_site_label
_atom_site_fract_x
_atom_site_fract_y
_atom_site_fract_z
Si Si1 0.822660 0.133622 0.417247
Si Si2 0.500000 0.500000 0.000000
Si Si3 0.491747 0.744432 0.259384
Si Si4 0.779359 0.573148 0.252638
Si Si5 0.889651 0.237202 0.647357
Si Si6 0.312464 0.040672 0.345931
Si Si7 0.730096 0.458661 0.639610
Si Si8 0.392243 0.320124 0.629651
O O1 0.881161 0.084501 0.469412
O O2 0.783466 0.023550 0.387715
O O3 0.669072 0.218362 0.404411
O O4 0.979535 0.189803 0.390771
O O5 0.669468 0.684080 0.261209
O O6 0.464664 0.876265 0.255111
O O7 0.446237 0.712784 0.203140
O O8 0.399624 0.716240 0.311820
O O9 0.736712 0.503475 0.205265
O O10 0.733468 0.511310 0.302157
O O11 0.870700 0.366126 0.637234
O O12 0.716796 0.168943 0.645119
O O13 0.500000 0.000000 0.348831
O O14 0.566789 0.387614 0.624318
O O15 0.733550 0.578812 0.616789
#
# Coordination Sequence:
#
# PCOD9329550 Si02
#       8
#     8   2   8   8   8   8   8   8
#     4  12  24  45  70  95 131 177 239 301 375 407
#     4  12  28  52  74 102 136 180 246 328 382 418
#     4  10  18  31  56  85 131 178 228 262 334 406
#     4  10  20  33  51  89 134 187 226 272 319 412
#     4  11  21  36  59  89 132 179 227 287 342 424
#     4  12  23  37  60  90 132 180 233 289 352 412
#     4   9  21  36  59  95 140 185 222 262 331 423
#     4  10  19  38  62  93 138 182 221 280 338 425
#
# _framework density 21.859992999999999
#
# number of rings (size 3 to 8) (size 9 to 14) (size 15 to 20)
#    0.000    1.379    4.138    1.655    3.862    1.655 
#    4.966    0.345    0.000    1.655    0.000    1.931 
#    0.000    0.000    0.000    0.000    0.000    0.000 
#
# Total GULP energy -161476.500459 kJ/mol
# GULP energy per Si atom -5568.155188 kJ/mol
# Density = 2.181024 g / cm^3
# Si number density = 21.859993 Si / 1000 Ang^3
#
#
#
# Elastic Constant Matrix: (Units=GPa)
#
#
# Indices 1 2 3 4 5 6 
#
# 1 57.8821 7.0197 21.8750 0.0000 0.0000 0.0000
# 2 7.0197 102.1359 33.8705 0.0000 0.0000 0.0000
# 3 21.8750 33.8705 76.8892 0.0000 0.0000 0.0000
# 4 0.0000 0.0000 0.0000 15.7021 0.0000 0.0000
# 5 0.0000 0.0000 0.0000 0.0000 53.3206 0.0000
# 6 0.0000 0.0000 0.0000 0.0000 0.0000 27.6874
#
#
#
# Elastic Compliance Matrix: (Units=1/GPa)
#
#
# Indices 1 2 3 4 5 6 
#
# 1 0.019387 0.000582 -0.005772 0.000000 0.000000 0.000000
# 2 0.000582 0.011483 -0.005224 0.000000 0.000000 0.000000
# 3 -0.005772 -0.005224 0.016949 0.000000 0.000000 0.000000
# 4 0.000000 0.000000 0.000000 0.063686 0.000000 0.000000
# 5 0.000000 0.000000 0.000000 0.000000 0.018754 0.000000
# 6 0.000000 0.000000 0.000000 0.000000 0.000000 0.036117
#
#
# Mechanical properties :
#
#
# Convention : Reuss Voigt Hill
#
# Bulk Modulus (GPa) = 37.04925 40.27086 38.66006
# Shear Modulus (GPa) = 25.48382 30.95148 28.21765
#
# Velocity S-wave (km/s) = 3.41805 3.76692 3.59672
# Velocity P-wave (km/s) = 5.70637 6.11406 5.91373
#
# Compressibility (1/GPa) = 0.02699110
#
# Stress axis : x y z
#
# Youngs Moduli (GPa) = 51.58018 87.08307 59.00039
#
# Poissons Ratio (x) = -0.05065 0.34054
# Poissons Ratio (y) = -0.03000 0.30822
# Poissons Ratio (z) = 0.29772 0.45492
#
# Static dielectric constant tensor:
#      x y z
#    x 2.022660 0.000000 0.000000 
#    y 0.000000 1.792500 0.000000 
#    z 0.000000 0.000000 1.790600 
# 
# From -- ./inp_files/29288.got.cif
#   From: 2010.05.17/outbox.cif.g08.bks.cpg/sg23_15_cif.got.tgz:29288.got - 2010.06.04 12:02:01.
