data_PCOD9329670
_publ_section_title
;
Structure prediction by ZEFSAII (Michael W. Deem and Ramdas Pophale) SiO2 
 PCOD9329670
Probable space group: I 2 2 2
;
_chemical_formula_sum "Si O2"
_cell_formula_units_Z 58
_cell_length_a 8.251252
_cell_length_b 25.453531
_cell_length_c 12.853252
_cell_angle_alpha 90.000000
_cell_angle_beta 90.000000
_cell_angle_gamma 90.000000
_cell_volume 2699.484953
_symmetry_space_group_name_H-M "I 2 2 2"
_symmetry_group_IT_number 23
_symmetry_cell_setting 'orthorhombic'
loop_
_space_group_symop_operation_xyz
x,y,z
-x,-y,z
x,-y,-z
-x,y,-z
1/2+x,1/2+y,1/2+z
1/2-x,1/2-y,1/2+z
1/2+x,1/2-y,1/2-z
1/2-x,1/2+y,1/2-z
loop_
_atom_site_type_symbol
_atom_site_label
_atom_site_fract_x
_atom_site_fract_y
_atom_site_fract_z
Si Si1 0.851400 0.801333 0.297791
Si Si2 0.766316 0.636567 0.438635
Si Si3 0.924577 0.765678 0.891908
Si Si4 0.412474 0.864741 0.833648
Si Si5 0.625792 0.541425 0.346767
Si Si6 0.000000 0.000000 0.500000
Si Si7 0.649014 0.031444 0.708905
Si Si8 0.961568 0.912567 0.349889
O O1 0.747861 0.762647 0.370712
O O2 0.704406 0.830820 0.238354
O O3 0.946772 0.849144 0.357987
O O4 0.961535 0.770587 0.211634
O O5 0.618912 0.674507 0.417623
O O6 0.838083 0.642577 0.552384
O O7 0.712609 0.576821 0.429600
O O8 0.899989 0.648793 0.350243
O O9 0.000000 0.743322 0.000000
O O10 0.410595 0.923234 0.787342
O O11 0.500000 0.500000 0.388663
O O12 0.754755 0.510287 0.278088
O O13 0.524369 0.577977 0.266911
O O14 0.933561 0.954097 0.580357
O O15 0.782275 0.061386 0.638492
O O16 0.500000 0.000000 0.658113
#
# Coordination Sequence:
#
# PCOD9329670 Si02
#       8
#     8   8   8   8   8   2   8   8
#     4  11  24  47  66  99 133 177 225 300 347 423
#     4  11  21  39  63  95 128 176 220 268 340 421
#     4  12  25  46  73  97 136 180 234 291 363 424
#     4  10  22  37  62  94 135 166 211 273 339 404
#     4  10  19  36  60  90 128 174 214 259 329 407
#     4  12  20  44  66  92 130 172 226 292 336 450
#     4  10  18  35  58  89 130 166 203 255 326 395
#     4  10  22  40  66  90 125 173 224 272 351 411
#
# _framework density 21.485579999999999
#
# number of rings (size 3 to 8) (size 9 to 14) (size 15 to 20)
#    0.000    1.379    6.207    0.828    0.000    0.552 
#    2.483    6.552    0.000    0.000    0.000    0.000 
#    0.000    0.000    0.000    0.000    0.000    0.000 
#
# Total GULP energy -161498.507480 kJ/mol
# GULP energy per Si atom -5568.914051 kJ/mol
# Density = 2.143668 g / cm^3
# Si number density = 21.485580 Si / 1000 Ang^3
#
#
#
# Elastic Constant Matrix: (Units=GPa)
#
#
# Indices 1 2 3 4 5 6 
#
# 1 57.3691 6.2932 7.7980 0.0000 0.0000 0.0000
# 2 6.2932 84.1108 18.9364 -0.0001 0.0000 0.0000
# 3 7.7980 18.9364 53.4562 -0.0004 0.0000 0.0000
# 4 0.0000 -0.0001 -0.0004 13.9477 0.0000 0.0000
# 5 0.0000 0.0000 0.0000 0.0000 25.7375 0.0000
# 6 0.0000 0.0000 0.0000 0.0000 0.0000 41.3958
#
#
#
# Elastic Compliance Matrix: (Units=1/GPa)
#
#
# Indices 1 2 3 4 5 6 
#
# 1 0.017835 -0.000814 -0.002313 0.000000 0.000000 0.000000
# 2 -0.000814 0.012957 -0.004471 0.000000 0.000000 0.000000
# 3 -0.002313 -0.004471 0.020628 0.000001 0.000000 0.000000
# 4 0.000000 0.000000 0.000001 0.071697 0.000000 0.000000
# 5 0.000000 0.000000 0.000000 0.000000 0.038854 0.000000
# 6 0.000000 0.000000 0.000000 0.000000 0.000000 0.024157
#
#
# Mechanical properties :
#
#
# Convention : Reuss Voigt Hill
#
# Bulk Modulus (GPa) = 27.60656 28.99904 28.30280
# Shear Modulus (GPa) = 23.43044 27.01009 25.22027
#
# Velocity S-wave (km/s) = 3.30588 3.54944 3.42983
# Velocity P-wave (km/s) = 5.23914 5.50676 5.37461
#
# Compressibility (1/GPa) = 0.03622328
#
# Stress axis : x y z
#
# Youngs Moduli (GPa) = 56.07052 77.18099 48.47723
#
# Poissons Ratio (x) = 0.06279 0.11215
# Poissons Ratio (y) = 0.04562 0.21675
# Poissons Ratio (z) = 0.12972 0.34508
#
# Static dielectric constant tensor:
#      x y z
#    x 1.835980 0.000000 0.000000 
#    y 0.000000 1.804210 0.000000 
#    z 0.000000 0.000000 1.808950 
# 
# From -- ./inp_files/20312.got.cif
#   From: 2010.05.17/outbox.cif.g08.bks.cpg/sg23_11_cif.got.tgz:20312.got - 2010.06.04 12:02:01.
