data_PCOD9329343
_publ_section_title
;
Structure prediction by ZEFSAII (Michael W. Deem and Ramdas Pophale) SiO2 
 PCOD9329343
Probable space group: I 2 2 2
;
_chemical_formula_sum "Si O2"
_cell_formula_units_Z 56
_cell_length_a 16.892512
_cell_length_b 24.647637
_cell_length_c 8.737440
_cell_angle_alpha 90.000000
_cell_angle_beta 90.000000
_cell_angle_gamma 90.000000
_cell_volume 3637.924920
_symmetry_space_group_name_H-M "I 2 2 2"
_symmetry_group_IT_number 23
_symmetry_cell_setting 'orthorhombic'
loop_
_space_group_symop_operation_xyz
x,y,z
-x,-y,z
x,-y,-z
-x,y,-z
1/2+x,1/2+y,1/2+z
1/2-x,1/2-y,1/2+z
1/2+x,1/2-y,1/2-z
1/2-x,1/2+y,1/2-z
loop_
_atom_site_type_symbol
_atom_site_label
_atom_site_fract_x
_atom_site_fract_y
_atom_site_fract_z
Si Si1 0.703245 0.315666 0.808404
Si Si2 0.847962 0.633511 0.318770
Si Si3 0.889886 0.655754 0.669569
Si Si4 0.011594 0.560277 0.683872
Si Si5 0.784632 0.285708 0.106598
Si Si6 0.071015 0.275459 0.109301
Si Si7 0.033871 0.222956 0.665701
O O1 0.758361 0.363465 0.743165
O O2 0.737722 0.262970 0.718379
O O3 0.609060 0.313568 0.788829
O O4 0.719685 0.305594 0.987657
O O5 0.856032 0.643731 0.500474
O O6 0.899557 0.580370 0.284657
O O7 0.895542 0.680360 0.227246
O O8 0.820851 0.666297 0.791471
O O9 0.934188 0.714228 0.657581
O O10 0.948831 0.607963 0.723746
O O11 0.000000 0.500000 0.747676
O O12 0.000000 0.557390 0.500000
O O13 0.856704 0.262957 0.002856
O O14 0.034006 0.226430 0.206290
O O15 0.000000 0.296367 0.000000
O O16 0.000000 0.208759 0.500000
#
# Coordination Sequence:
#
# PCOD9329343 Si02
#       7
#     8   8   8   8   8   8   8
#     4  10  20  28  40  61  82 116 154 186 228 268
#     4  10  18  29  43  59  89 115 149 191 223 263
#     4  10  16  29  44  61  85 118 150 193 222 267
#     4   9  16  27  47  69  86 116 158 188 223 265
#     4  10  20  27  42  60  84 113 158 185 224 266
#     4  11  17  27  42  58  79 116 148 191 210 264
#     4  11  18  29  42  59  84 119 159 182 225 264
#
# _framework density 15.39339
#
# number of rings (size 3 to 8) (size 9 to 14) (size 15 to 20)
#    0.000    1.857    5.714    2.143    2.000    0.000 
#    0.000    0.000    0.000   10.714    0.000    0.000 
#    0.000    0.000    0.000    2.571   18.286    0.571 
#
# Total GULP energy -155921.337804 kJ/mol
# GULP energy per Si atom -5568.619207 kJ/mol
# Density = 1.535835 g / cm^3
# Si number density = 15.393390 Si / 1000 Ang^3
#
#
#
# Elastic Constant Matrix: (Units=GPa)
#
#
# Indices 1 2 3 4 5 6 
#
# 1 64.7361 27.4358 19.7612 0.0000 0.0000 0.0000
# 2 27.4358 52.0371 11.0877 0.0000 0.0000 0.0000
# 3 19.7612 11.0877 75.8624 0.0000 0.0000 0.0000
# 4 0.0000 0.0000 0.0000 6.0009 0.0000 0.0000
# 5 0.0000 0.0000 0.0000 0.0000 34.1088 0.0000
# 6 0.0000 0.0000 0.0000 0.0000 0.0000 13.7123
#
#
#
# Elastic Compliance Matrix: (Units=1/GPa)
#
#
# Indices 1 2 3 4 5 6 
#
# 1 0.020992 -0.010221 -0.003974 0.000000 0.000000 0.000000
# 2 -0.010221 0.024811 -0.000964 0.000000 0.000000 0.000000
# 3 -0.003974 -0.000964 0.014358 0.000000 0.000000 0.000000
# 4 0.000000 0.000000 0.000000 0.166640 0.000000 0.000000
# 5 0.000000 0.000000 0.000000 0.000000 0.029318 0.000000
# 6 0.000000 0.000000 0.000000 0.000000 0.000000 0.072927
#
#
# Mechanical properties :
#
#
# Convention : Reuss Voigt Hill
#
# Bulk Modulus (GPa) = 33.50868 34.35609 33.93239
# Shear Modulus (GPa) = 13.53863 19.72113 16.62988
#
# Velocity S-wave (km/s) = 2.96887 3.58319 3.29040
# Velocity P-wave (km/s) = 5.79377 6.28380 6.04375
#
# Compressibility (1/GPa) = 0.02984301
#
# Stress axis : x y z
#
# Youngs Moduli (GPa) = 47.63647 40.30412 69.64804
#
# Poissons Ratio (x) = 0.41195 0.27681
# Poissons Ratio (y) = 0.48690 0.06713
# Poissons Ratio (z) = 0.18932 0.03885
#
# Static dielectric constant tensor:
#      x y z
#    x 1.567420 0.000000 0.000000 
#    y 0.000000 1.496480 0.000000 
#    z 0.000000 0.000000 1.561240 
# 
# From -- ./inp_files/11447.got.cif
#   From: 2010.05.17/outbox.cif.g08.bks.cpg/sg23_6_cif.got.tgz:11447.got - 2010.06.04 12:02:01.
