data_PCOD9329634
_publ_section_title
;
Structure prediction by ZEFSAII (Michael W. Deem and Ramdas Pophale) SiO2 
 PCOD9329634
Probable space group: I 2 2 2
;
_chemical_formula_sum "Si O2"
_cell_formula_units_Z 60
_cell_length_a 6.279216
_cell_length_b 17.982317
_cell_length_c 28.029092
_cell_angle_alpha 90.000000
_cell_angle_beta 90.000000
_cell_angle_gamma 90.000000
_cell_volume 3164.900792
_symmetry_space_group_name_H-M "I 2 2 2"
_symmetry_group_IT_number 23
_symmetry_cell_setting 'orthorhombic'
loop_
_space_group_symop_operation_xyz
x,y,z
-x,-y,z
x,-y,-z
-x,y,-z
1/2+x,1/2+y,1/2+z
1/2-x,1/2-y,1/2+z
1/2+x,1/2-y,1/2-z
1/2-x,1/2+y,1/2-z
loop_
_atom_site_type_symbol
_atom_site_label
_atom_site_fract_x
_atom_site_fract_y
_atom_site_fract_z
Si Si1 0.562596 0.823512 0.792785
Si Si2 0.072694 0.580649 0.054727
Si Si3 0.338937 0.180249 0.307064
Si Si4 0.428499 0.584346 0.124423
Si Si5 0.772295 0.360557 0.384611
Si Si6 0.000000 0.500000 0.607227
Si Si7 0.118985 0.931498 0.169996
Si Si8 0.315560 0.197867 0.614346
O O1 0.433757 0.835371 0.744657
O O2 0.652502 0.740834 0.800207
O O3 0.415304 0.845916 0.837375
O O4 0.772028 0.874816 0.794290
O O5 0.316320 0.587565 0.072084
O O6 0.000000 0.500000 0.074784
O O7 0.953882 0.649761 0.078087
O O8 0.000000 0.580139 0.000000
O O9 0.243185 0.111020 0.336286
O O10 0.533565 0.211047 0.339543
O O11 0.500000 0.500000 0.132793
O O12 0.617607 0.644428 0.126287
O O13 0.545475 0.390819 0.365614
O O14 0.748302 0.278410 0.406018
O O15 0.892096 0.425452 0.414764
O O16 0.192932 0.531311 0.639199
O O17 0.000000 0.000000 0.194641
#
# Coordination Sequence:
#
# PCOD9329634 Si02
#       8
#     8   8   8   8   8   4   8   8
#     4  11  21  35  54  76 104 152 206 243 294 353
#     4  10  22  40  63  91 118 151 199 252 307 391
#     4  11  24  35  57  78 109 155 208 254 295 372
#     4  11  23  42  61  84 121 157 200 255 319 371
#     4  10  18  34  55  80 111 152 196 248 298 350
#     4   8  18  30  52  78 110 137 186 236 287 342
#     4   9  18  34  52  73 104 138 186 245 289 338
#     4  11  21  38  59  84 114 156 195 249 309 366
#
# _framework density 18.957940000000001
#
# number of rings (size 3 to 8) (size 9 to 14) (size 15 to 20)
#    0.000    1.733    4.000    0.800    0.000    0.533 
#    0.000   12.000    0.000    0.000    0.000    0.000 
#    0.000   21.867    0.000    0.000    0.000    0.000 
#
# Total GULP energy -167170.351246 kJ/mol
# GULP energy per Si atom -5572.345042 kJ/mol
# Density = 1.891479 g / cm^3
# Si number density = 18.957940 Si / 1000 Ang^3
#
#
#
# Elastic Constant Matrix: (Units=GPa)
#
#
# Indices 1 2 3 4 5 6 
#
# 1 91.0574 42.1027 9.7282 0.0000 0.0000 0.0000
# 2 42.1027 153.5864 17.4810 0.0000 0.0000 0.0000
# 3 9.7282 17.4810 33.8375 0.0000 0.0000 0.0000
# 4 0.0000 0.0000 0.0000 11.6767 0.0000 0.0000
# 5 0.0000 0.0000 0.0000 0.0000 7.6933 0.0000
# 6 0.0000 0.0000 0.0000 0.0000 0.0000 51.6269
#
#
#
# Elastic Compliance Matrix: (Units=1/GPa)
#
#
# Indices 1 2 3 4 5 6 
#
# 1 0.012698 -0.003257 -0.001968 0.000000 0.000000 0.000000
# 2 -0.003257 0.007753 -0.003069 0.000000 0.000000 0.000000
# 3 -0.001968 -0.003069 0.031704 0.000000 0.000000 0.000000
# 4 0.000000 0.000000 0.000000 0.085641 0.000000 0.000000
# 5 0.000000 0.000000 0.000000 0.000000 0.129983 0.000000
# 6 0.000000 0.000000 0.000000 0.000000 0.000000 0.019370
#
#
# Mechanical properties :
#
#
# Convention : Reuss Voigt Hill
#
# Bulk Modulus (GPa) = 28.11556 46.34501 37.23029
# Shear Modulus (GPa) = 15.84314 28.14400 21.99357
#
# Velocity S-wave (km/s) = 2.89398 3.85717 3.40976
# Velocity P-wave (km/s) = 5.10192 6.65855 5.93152
#
# Compressibility (1/GPa) = 0.03556749
#
# Stress axis : x y z
#
# Youngs Moduli (GPa) = 78.75075 128.97999 31.54147
#
# Poissons Ratio (x) = 0.42008 0.06208
# Poissons Ratio (y) = 0.25649 0.09680
# Poissons Ratio (z) = 0.15499 0.39584
#
# Static dielectric constant tensor:
#      x y z
#    x 1.700080 0.000000 0.000000 
#    y 0.000000 1.720700 0.000000 
#    z 0.000000 0.000000 1.629560 
# 
# From -- ./inp_files/29014.got.cif
#   From: 2010.05.17/outbox.cif.g08.bks.cpg/sg23_15_cif.got.tgz:29014.got - 2010.06.04 12:02:01.
