data_PCOD9329220
_publ_section_title
;
Structure prediction by ZEFSAII (Michael W. Deem and Ramdas Pophale) SiO2 
 PCOD9329220
Probable space group: F 2 2 2
;
_chemical_formula_sum "Si O2"
_cell_formula_units_Z 52
_cell_length_a 26.874360
_cell_length_b 4.968057
_cell_length_c 16.574803
_cell_angle_alpha 90.000000
_cell_angle_beta 90.000000
_cell_angle_gamma 90.000000
_cell_volume 2212.957513
_symmetry_space_group_name_H-M "F 2 2 2"
_symmetry_group_IT_number 22
_symmetry_cell_setting 'orthorhombic'
loop_
_space_group_symop_operation_xyz
x,y,z
-x,-y,z
x,-y,-z
-x,y,-z
x,1/2+y,1/2+z
-x,1/2-y,1/2+z
x,1/2-y,1/2-z
-x,1/2+y,1/2-z
1/2+x,y,1/2+z
1/2-x,-y,1/2+z
1/2+x,-y,1/2-z
1/2-x,y,1/2-z
1/2+x,1/2+y,z
1/2-x,1/2-y,z
1/2+x,1/2-y,-z
1/2-x,1/2+y,-z
loop_
_atom_site_type_symbol
_atom_site_label
_atom_site_fract_x
_atom_site_fract_y
_atom_site_fract_z
Si Si1 0.663591 0.944273 0.856963
Si Si2 0.500000 0.000000 0.308764
Si Si3 0.250000 0.750000 0.250000
Si Si4 0.100715 0.533567 0.598434
Si Si5 0.275574 0.500000 0.500000
O O1 0.709478 0.935556 0.795786
O O2 0.620512 0.724432 0.851362
O O3 0.637743 0.226102 0.875731
O O4 0.691317 0.841745 0.937350
O O5 0.511844 0.250000 0.250000
O O6 0.454133 0.082763 0.366480
O O7 0.099812 0.500000 0.500000
O O8 0.250000 0.250000 0.455343
#
# Coordination Sequence:
#
# PCOD9329220 Si02
#       5
#    16   8   4  16   8
#     4  12  27  45  74 108 149 200 254 307 380 442
#     4  12  29  50  77 118 152 190 242 324 399 454
#     4  12  32  46  72 118 164 204 248 330 380 460
#     4  12  26  51  79 108 146 202 258 311 370 460
#     4  12  22  44  68  99 144 195 256 310 356 442
#
# _framework density 23.497968
#
# number of rings (size 3 to 8) (size 9 to 14) (size 15 to 20)
#    0.000    0.000    4.615    4.154    6.462    1.231 
#    0.000    4.615    0.000    0.000    0.000    0.000 
#    0.000    0.000    0.000    0.000    0.000    0.000 
#
# Total GULP energy -72542.056163 kJ/mol
# GULP energy per Si atom -5580.158166 kJ/mol
# Density = 2.344449 g / cm^3
# Si number density = 23.497968 Si / 1000 Ang^3
#
#
#
# Elastic Constant Matrix: (Units=GPa)
#
#
# Indices 1 2 3 4 5 6 
#
# 1 157.1912 30.1301 85.3548 0.0006 -0.0002 -0.0011
# 2 30.1301 123.9685 40.6842 0.0010 -0.0003 -0.0020
# 3 85.3548 40.6842 123.7582 0.0009 -0.0008 -0.0007
# 4 0.0006 0.0010 0.0009 20.0225 -0.0010 -0.0003
# 5 -0.0002 -0.0003 -0.0008 -0.0010 30.6978 0.0010
# 6 -0.0011 -0.0020 -0.0007 -0.0003 0.0010 21.0659
#
#
#
# Elastic Compliance Matrix: (Units=1/GPa)
#
#
# Indices 1 2 3 4 5 6 
#
# 1 0.010175 -0.000190 -0.006955 0.000000 0.000000 0.000000
# 2 -0.000190 0.009046 -0.002842 0.000000 0.000000 0.000001
# 3 -0.006955 -0.002842 0.013811 0.000000 0.000000 0.000000
# 4 0.000000 0.000000 0.000000 0.049944 0.000002 0.000001
# 5 0.000000 0.000000 0.000000 0.000002 0.032576 -0.000002
# 6 0.000000 0.000001 0.000000 0.000001 -0.000002 0.047470
#
#
# Mechanical properties :
#
#
# Convention : Reuss Voigt Hill
#
# Bulk Modulus (GPa) = 76.59000 79.69511 78.14255
# Shear Modulus (GPa) = 26.68829 30.94049 28.81439
#
# Velocity S-wave (km/s) = 3.37377 3.63261 3.50558
# Velocity P-wave (km/s) = 6.91676 7.18219 7.05072
#
# Compressibility (1/GPa) = 0.01305654
#
# Stress axis : x y z
#
# Youngs Moduli (GPa) = 98.28415 110.55039 72.40489
#
# Poissons Ratio (x) = 0.02106 0.50355
# Poissons Ratio (y) = 0.01872 0.20580
# Poissons Ratio (z) = 0.68354 0.31422
#
# Static dielectric constant tensor:
#      x y z
#    x 1.933840 0.000000 0.000000 
#    y 0.000000 1.883010 0.000000 
#    z 0.000000 0.000000 1.956120 
# 
# From -- ./inp_files/34067.got.cif
#   From: 2010.05.17/outbox.cif.g08.bks.cpg/sg22_18_cif.got.tgz:34067.got - 2010.06.03 23:40:54.
