data_PCOD9329405
_publ_section_title
;
Structure prediction by ZEFSAII (Michael W. Deem and Ramdas Pophale) SiO2 
 PCOD9329405
Probable space group: I 2 2 2
;
_chemical_formula_sum "Si O2"
_cell_formula_units_Z 64
_cell_length_a 20.160063
_cell_length_b 5.443764
_cell_length_c 30.780822
_cell_angle_alpha 90.000000
_cell_angle_beta 90.000000
_cell_angle_gamma 90.000000
_cell_volume 3378.091335
_symmetry_space_group_name_H-M "I 2 2 2"
_symmetry_group_IT_number 23
_symmetry_cell_setting 'orthorhombic'
loop_
_space_group_symop_operation_xyz
x,y,z
-x,-y,z
x,-y,-z
-x,y,-z
1/2+x,1/2+y,1/2+z
1/2-x,1/2-y,1/2+z
1/2+x,1/2-y,1/2-z
1/2-x,1/2+y,1/2-z
loop_
_atom_site_type_symbol
_atom_site_label
_atom_site_fract_x
_atom_site_fract_y
_atom_site_fract_z
Si Si1 0.371913 0.975018 0.177821
Si Si2 0.344877 0.570688 0.250841
Si Si3 0.238989 0.987568 0.050749
Si Si4 0.254393 0.179390 0.689486
Si Si5 0.112424 0.972847 0.450303
Si Si6 0.393840 0.037702 0.923469
Si Si7 0.255287 0.010348 0.594457
Si Si8 0.459969 0.755797 0.759902
O O1 0.372850 0.750772 0.212575
O O2 0.386255 0.923514 0.127916
O O3 0.300231 0.108023 0.179804
O O4 0.429352 0.159482 0.194124
O O5 0.323515 0.717037 0.293341
O O6 0.277926 0.470007 0.228986
O O7 0.392467 0.342751 0.262746
O O8 0.319294 0.977981 0.055948
O O9 0.215710 0.736289 0.073456
O O10 0.216626 0.235789 0.074877
O O11 0.222978 0.000000 0.000000
O O12 0.260080 0.019552 0.646209
O O13 0.077379 0.721394 0.437892
O O14 0.177433 0.982573 0.419178
O O15 0.135728 0.000000 0.500000
O O16 0.072814 0.220419 0.441847
O O17 0.500000 0.500000 0.761706
O O18 0.500000 0.000000 0.743734
#
# Coordination Sequence:
#
# PCOD9329405 Si02
#       8
#     8   8   8   8   8   8   8   8
#     4  11  21  36  55  79 108 142 174 229 285 329
#     4  11  22  35  58  80 112 147 178 229 279 360
#     4  10  17  28  43  63  96 142 177 216 255 312
#     4  11  21  32  50  83 114 144 177 215 296 336
#     4  10  17  27  41  63  98 140 168 208 253 310
#     4  10  18  27  44  67  95 129 163 215 265 304
#     4  10  18  28  42  63 100 136 169 221 248 318
#     4  11  24  43  59  76 101 142 192 241 281 329
#
# _framework density 18.945611
#
# number of rings (size 3 to 8) (size 9 to 14) (size 15 to 20)
#    0.000    1.500    5.000    5.250    1.750    0.000 
#    0.000    0.000    0.000    0.000    0.000    0.000 
#    0.000   12.000    0.000    0.000    0.000    0.625 
#
# Total GULP energy -178372.461150 kJ/mol
# GULP energy per Si atom -5574.139411 kJ/mol
# Density = 1.890249 g / cm^3
# Si number density = 18.945611 Si / 1000 Ang^3
#
#
#
# Elastic Constant Matrix: (Units=GPa)
#
#
# Indices 1 2 3 4 5 6 
#
# 1 23.4019 19.3501 30.6246 0.0000 0.0000 0.0000
# 2 19.3501 161.1843 27.7850 0.0000 0.0000 0.0000
# 3 30.6246 27.7850 84.3989 0.0000 0.0000 0.0000
# 4 0.0000 0.0000 0.0000 20.1193 0.0000 0.0000
# 5 0.0000 0.0000 0.0000 0.0000 -6.2573 0.0000
# 6 0.0000 0.0000 0.0000 0.0000 0.0000 -21.0215
#
#
#
# Elastic Compliance Matrix: (Units=1/GPa)
#
#
# Indices 1 2 3 4 5 6 
#
# 1 0.085291 -0.005199 -0.029237 0.000000 0.000000 0.000000
# 2 -0.005199 0.006894 -0.000383 0.000000 0.000000 0.000000
# 3 -0.029237 -0.000383 0.022583 0.000000 0.000000 0.000000
# 4 0.000000 0.000000 0.000000 0.049703 0.000000 0.000000
# 5 0.000000 0.000000 0.000000 0.000000 -0.159814 0.000000
# 6 0.000000 0.000000 0.000000 0.000000 0.000000 -0.047570
#
#
# Mechanical properties :
#
#
# Convention : Reuss Voigt Hill
#
# Bulk Modulus (GPa) = 22.15800 47.16718 34.66259
# Shear Modulus (GPa) = 119.70463 11.31647 65.51055
#
# Velocity S-wave (km/s) = 7.95742 2.44665 5.88670
# Velocity P-wave (km/s) = 9.80552 5.73861 8.03368
#
# Compressibility (1/GPa) = 0.04513043
#
# Stress axis : x y z
#
# Youngs Moduli (GPa) = 11.72458 145.04757 44.28055
#
# Poissons Ratio (x) = 0.75415 1.29461
# Poissons Ratio (y) = 0.06096 0.01696
# Poissons Ratio (z) = 0.34279 0.05556
#
# Static dielectric constant tensor:
#      x y z
#    x 1.679420 0.000000 0.000000 
#    y 0.000000 1.829160 0.000000 
#    z 0.000000 0.000000 1.651140 
# 
# From -- ./inp_files/29730.got.cif
#   From: 2010.05.17/outbox.cif.g08.bks.cpg/sg23_15_cif.got.tgz:29730.got - 2010.06.04 12:02:01.
