data_PCOD9329027
_publ_section_title
;
Structure prediction by ZEFSAII (Michael W. Deem and Ramdas Pophale) SiO2 
 PCOD9329027
Probable space group: F 2 2 2
;
_chemical_formula_sum "Si O2"
_cell_formula_units_Z 96
_cell_length_a 22.049498
_cell_length_b 13.581061
_cell_length_c 14.683904
_cell_angle_alpha 90.000000
_cell_angle_beta 90.000000
_cell_angle_gamma 90.000000
_cell_volume 4397.176950
_symmetry_space_group_name_H-M "F 2 2 2"
_symmetry_group_IT_number 22
_symmetry_cell_setting 'orthorhombic'
loop_
_space_group_symop_operation_xyz
x,y,z
-x,-y,z
x,-y,-z
-x,y,-z
x,1/2+y,1/2+z
-x,1/2-y,1/2+z
x,1/2-y,1/2-z
-x,1/2+y,1/2-z
1/2+x,y,1/2+z
1/2-x,-y,1/2+z
1/2+x,-y,1/2-z
1/2-x,y,1/2-z
1/2+x,1/2+y,z
1/2-x,1/2-y,z
1/2+x,1/2-y,-z
1/2-x,1/2+y,-z
loop_
_atom_site_type_symbol
_atom_site_label
_atom_site_fract_x
_atom_site_fract_y
_atom_site_fract_z
Si Si1 0.315647 0.485372 0.275362
Si Si2 0.435912 0.725571 0.142476
Si Si3 0.811572 0.306368 0.896899
Si Si4 0.806437 0.820687 0.602980
Si Si5 0.566419 0.710450 0.146274
Si Si6 0.598525 0.504935 0.893568
O O1 0.250000 0.449093 0.250000
O O2 0.338208 0.395825 0.337060
O O3 0.310199 0.584764 0.332962
O O4 0.348349 0.504029 0.180642
O O5 0.435582 0.750000 0.250000
O O6 0.372987 0.771114 0.107270
O O7 0.503391 0.756932 0.109464
O O8 0.432114 0.609974 0.122078
O O9 0.750000 0.250000 0.865099
O O10 0.869202 0.233720 0.900570
O O11 0.795499 0.346030 0.997243
O O12 0.750000 0.750000 0.630527
O O13 0.571494 0.750000 0.250000
O O14 0.561422 0.592571 0.134517
O O15 0.615909 0.500000 0.000000
#
# Coordination Sequence:
#
# PCOD9329027 Si02
#       6
#    16  16  16  16  16  16
#     4  12  25  42  69  97 141 183 228 287 353 401
#     4  11  24  44  71 101 138 183 231 284 347 411
#     4  11  25  45  71 102 136 180 233 284 348 421
#     4  11  25  45  71 102 136 180 233 284 348 421
#     4  11  24  44  71 101 138 183 231 284 347 411
#     4  12  25  43  70 103 138 184 238 284 339 413
#
# _framework density 21.832187999999999
#
# number of rings (size 3 to 8) (size 9 to 14) (size 15 to 20)
#    0.000    0.667    3.333    4.000    0.000    7.333 
#    0.000    0.833    0.000    3.000    0.000    0.000 
#    0.000    0.000    0.000    0.000    0.000    0.000 
#
# Total GULP energy -133955.550360 kJ/mol
# GULP energy per Si atom -5581.481265 kJ/mol
# Density = 2.178250 g / cm^3
# Si number density = 21.832188 Si / 1000 Ang^3
#
#
#
# Elastic Constant Matrix: (Units=GPa)
#
#
# Indices 1 2 3 4 5 6 
#
# 1 117.2375 9.9786 17.1180 0.0000 0.0000 0.0000
# 2 9.9786 108.9032 48.5207 0.0000 0.0000 0.0000
# 3 17.1180 48.5207 153.7925 0.0000 0.0000 0.0000
# 4 0.0000 0.0000 0.0000 19.9937 0.0000 0.0000
# 5 0.0000 0.0000 0.0000 0.0000 -218.3841 0.0000
# 6 0.0000 0.0000 0.0000 0.0000 0.0000 22.7514
#
#
#
# Elastic Compliance Matrix: (Units=1/GPa)
#
#
# Indices 1 2 3 4 5 6 
#
# 1 0.008687 -0.000425 -0.000833 0.000000 0.000000 0.000000
# 2 -0.000425 0.010705 -0.003330 0.000000 0.000000 0.000000
# 3 -0.000833 -0.003330 0.007646 0.000000 0.000000 0.000000
# 4 0.000000 0.000000 0.000000 0.050016 0.000000 0.000000
# 5 0.000000 0.000000 0.000000 0.000000 -0.004579 0.000000
# 6 0.000000 0.000000 0.000000 0.000000 0.000000 0.043953
#
#
# Mechanical properties :
#
#
# Convention : Reuss Voigt Hill
#
# Bulk Modulus (GPa) = 55.98378 59.01862 57.50120
# Shear Modulus (GPa) = 38.00602 -14.84006 11.58298
#
# Velocity S-wave (km/s) = 4.17685 -2.61000 2.30586
# Velocity P-wave (km/s) = 6.99713 4.24367 5.78656
#
# Compressibility (1/GPa) = 0.01786232
#
# Stress axis : x y z
#
# Youngs Moduli (GPa) = 115.10827 93.41346 130.79418
#
# Poissons Ratio (x) = 0.03969 0.10894
# Poissons Ratio (y) = 0.04891 0.43556
# Poissons Ratio (z) = 0.09587 0.31108
#
# Static dielectric constant tensor:
#      x y z
#    x 1.889220 0.000000 0.000000 
#    y 0.000000 1.838000 0.000000 
#    z 0.000000 0.000000 1.941330 
# 
# From -- ./inp_files/31528.got.cif
#   From: 2010.05.17/outbox.cif.g08.bks.cpg/sg22_16_cif.got.tgz:31528.got - 2010.06.03 23:40:54.
