data_PCOD9329590
_publ_section_title
;
Structure prediction by ZEFSAII (Michael W. Deem and Ramdas Pophale) SiO2 
 PCOD9329590
Probable space group: I 2 2 2
;
_chemical_formula_sum "Si O2"
_cell_formula_units_Z 48
_cell_length_a 7.344594
_cell_length_b 21.470567
_cell_length_c 12.487789
_cell_angle_alpha 90.000000
_cell_angle_beta 90.000000
_cell_angle_gamma 90.000000
_cell_volume 1969.231885
_symmetry_space_group_name_H-M "I 2 2 2"
_symmetry_group_IT_number 23
_symmetry_cell_setting 'orthorhombic'
loop_
_space_group_symop_operation_xyz
x,y,z
-x,-y,z
x,-y,-z
-x,y,-z
1/2+x,1/2+y,1/2+z
1/2-x,1/2-y,1/2+z
1/2+x,1/2-y,1/2-z
1/2-x,1/2+y,1/2-z
loop_
_atom_site_type_symbol
_atom_site_label
_atom_site_fract_x
_atom_site_fract_y
_atom_site_fract_z
Si Si1 0.000000 0.000000 0.691046
Si Si2 0.131678 0.421972 0.596182
Si Si3 0.753701 0.187457 0.659437
Si Si4 0.040721 0.698511 0.674553
Si Si5 0.105421 0.869473 0.220001
Si Si6 0.637706 0.945713 0.350978
Si Si7 0.500000 0.400908 0.500000
O O1 0.161273 0.970173 0.624426
O O2 0.904421 0.943608 0.756399
O O3 0.116351 0.443166 0.719840
O O4 0.334431 0.435802 0.556686
O O5 0.000000 0.441378 0.500000
O O6 0.082321 0.349046 0.607728
O O7 0.860223 0.246309 0.609594
O O8 0.604084 0.220058 0.735823
O O9 0.648492 0.127000 0.611180
O O10 0.924677 0.156669 0.723528
O O11 0.196090 0.659116 0.739268
O O12 0.086164 0.860725 0.093462
O O13 0.500000 0.000000 0.386019
#
# Coordination Sequence:
#
# PCOD9329590 Si02
#       7
#     4   8   8   8   8   8   4
#     4  10  18  33  44  64  94 132 169 210 246 290
#     4  11  22  33  47  71 101 137 178 217 258 299
#     4  10  20  33  50  73  92 130 179 223 265 306
#     4  11  19  33  52  69  93 131 177 221 264 307
#     4  11  21  32  49  69  99 135 174 216 258 305
#     4  10  21  35  46  70 100 133 178 216 259 296
#     4  12  20  35  46  68 100 134 181 210 262 294
#
# _framework density 24.374986
#
# number of rings (size 3 to 8) (size 9 to 14) (size 15 to 20)
#    0.000    1.333    8.333    2.000    0.000    0.667 
#    0.000    0.000    0.000    0.000    0.000    0.000 
#    0.000    0.000    0.000   24.750   11.667    0.000 
#
# Total GULP energy -133662.367992 kJ/mol
# GULP energy per Si atom -5569.265333 kJ/mol
# Density = 2.431951 g / cm^3
# Si number density = 24.374986 Si / 1000 Ang^3
#
#
#
# Elastic Constant Matrix: (Units=GPa)
#
#
# Indices 1 2 3 4 5 6 
#
# 1 127.3712 43.0912 6.3919 0.0000 0.0000 0.0000
# 2 43.0912 167.0488 3.7076 0.0000 0.0000 0.0000
# 3 6.3919 3.7076 46.8342 -0.0004 0.0000 0.0000
# 4 0.0000 0.0000 -0.0004 25.7975 0.0000 0.0000
# 5 0.0000 0.0000 0.0000 0.0000 9.7999 0.0000
# 6 0.0000 0.0000 0.0000 0.0000 0.0000 60.5156
#
#
#
# Elastic Compliance Matrix: (Units=1/GPa)
#
#
# Indices 1 2 3 4 5 6 
#
# 1 0.008649 -0.002209 -0.001006 0.000000 0.000000 0.000000
# 2 -0.002209 0.006561 -0.000218 0.000000 0.000000 0.000000
# 3 -0.001006 -0.000218 0.021506 0.000000 0.000000 0.000000
# 4 0.000000 0.000000 0.000000 0.038764 0.000000 0.000000
# 5 0.000000 0.000000 0.000000 0.000000 0.102042 0.000000
# 6 0.000000 0.000000 0.000000 0.000000 0.000000 0.016525
#
#
# Mechanical properties :
#
#
# Convention : Reuss Voigt Hill
#
# Bulk Modulus (GPa) = 33.49892 49.73728 41.61810
# Shear Modulus (GPa) = 23.71231 38.42682 31.06956
#
# Velocity S-wave (km/s) = 3.12238 3.97481 3.57410
# Velocity P-wave (km/s) = 5.17417 6.44320 5.84323
#
# Compressibility (1/GPa) = 0.02985170
#
# Stress axis : x y z
#
# Youngs Moduli (GPa) = 115.62361 152.41926 46.49778
#
# Poissons Ratio (x) = 0.33664 0.04675
# Poissons Ratio (y) = 0.25538 0.01013
# Poissons Ratio (z) = 0.11626 0.03322
#
# Static dielectric constant tensor:
#      x y z
#    x 1.890190 0.000000 0.000000 
#    y 0.000000 2.050990 0.000000 
#    z 0.000000 0.000000 1.689020 
# 
# From -- ./inp_files/26390.got.cif
#   From: 2010.05.17/outbox.cif.g08.bks.cpg/sg23_14_cif.got.tgz:26390.got - 2010.06.04 12:02:01.
