data_PCOD9329725
_publ_section_title
;
Structure prediction by ZEFSAII (Michael W. Deem and Ramdas Pophale) SiO2 
 PCOD9329725
Probable space group: I 2 2 2
;
_chemical_formula_sum "Si O2"
_cell_formula_units_Z 34
_cell_length_a 8.723447
_cell_length_b 8.771296
_cell_length_c 21.379396
_cell_angle_alpha 90.000000
_cell_angle_beta 90.000000
_cell_angle_gamma 90.000000
_cell_volume 1635.864491
_symmetry_space_group_name_H-M "I 2 2 2"
_symmetry_group_IT_number 23
_symmetry_cell_setting 'orthorhombic'
loop_
_space_group_symop_operation_xyz
x,y,z
-x,-y,z
x,-y,-z
-x,y,-z
1/2+x,1/2+y,1/2+z
1/2-x,1/2-y,1/2+z
1/2+x,1/2-y,1/2-z
1/2-x,1/2+y,1/2-z
loop_
_atom_site_type_symbol
_atom_site_label
_atom_site_fract_x
_atom_site_fract_y
_atom_site_fract_z
Si Si1 0.456930 0.746036 0.931264
Si Si2 0.742836 0.554159 0.904428
Si Si3 0.667201 0.435893 0.777939
Si Si4 0.150295 0.409324 0.683994
Si Si5 0.000000 0.500000 0.000000
O O1 0.619292 0.690431 0.902525
O O2 0.348703 0.594891 0.931775
O O3 0.372389 0.869124 0.888563
O O4 0.500000 0.797089 0.000000
O O5 0.776075 0.505031 0.832772
O O6 0.884911 0.584040 0.950871
O O7 0.500000 0.500000 0.793590
O O8 0.711861 0.490569 0.709376
O O9 0.665046 0.255365 0.784102
O O10 0.000000 0.500000 0.704415
#
# Coordination Sequence:
#
# PCOD9329725 Si02
#       5
#     8   8   8   8   2
#     4  10  18  40  64  87 136 178 233 273 351 412
#     4  10  19  35  60  97 131 182 228 293 331 412
#     4  11  22  42  63  95 138 177 225 290 346 416
#     4  11  24  40  66  99 127 176 229 282 352 424
#     4  12  20  30  60 104 126 166 250 284 330 390
#
# _framework density 20.784116000000001
#
# number of rings (size 3 to 8) (size 9 to 14) (size 15 to 20)
#    0.000    1.412    7.059    2.118    1.647    0.471 
#    0.000    0.000    0.000    0.000    0.000    0.000 
#    0.000    0.000    0.000    0.000    0.000    0.000 
#
# Total GULP energy -94802.940817 kJ/mol
# GULP energy per Si atom -5576.643577 kJ/mol
# Density = 2.073681 g / cm^3
# Si number density = 20.784116 Si / 1000 Ang^3
#
#
#
# Elastic Constant Matrix: (Units=GPa)
#
#
# Indices 1 2 3 4 5 6 
#
# 1 47.3954 -10.2246 33.8430 0.0000 0.0000 0.0000
# 2 -10.2246 46.9828 44.0216 0.0000 0.0000 0.0000
# 3 33.8430 44.0216 146.3854 0.0000 0.0000 0.0000
# 4 0.0000 0.0000 0.0000 48.8616 0.0000 0.0000
# 5 0.0000 0.0000 0.0000 0.0000 38.3328 0.0000
# 6 0.0000 0.0000 0.0000 0.0000 0.0000 27.5303
#
#
#
# Elastic Compliance Matrix: (Units=1/GPa)
#
#
# Indices 1 2 3 4 5 6 
#
# 1 0.036716 0.022199 -0.015164 0.000000 0.000000 0.000000
# 2 0.022199 0.043056 -0.018080 0.000000 0.000000 0.000000
# 3 -0.015164 -0.018080 0.015774 0.000000 0.000000 0.000000
# 4 0.000000 0.000000 0.000000 0.020466 0.000000 0.000000
# 5 0.000000 0.000000 0.000000 0.000000 0.026087 0.000000
# 6 0.000000 0.000000 0.000000 0.000000 0.000000 0.036324
#
#
# Mechanical properties :
#
#
# Convention : Reuss Voigt Hill
#
# Bulk Modulus (GPa) = 13.61381 41.78265 27.69823
# Shear Modulus (GPa) = 22.22233 34.48649 28.35441
#
# Velocity S-wave (km/s) = 3.27341 4.07783 3.69756
# Velocity P-wave (km/s) = 4.56632 6.50526 5.62004
#
# Compressibility (1/GPa) = 0.07345481
#
# Stress axis : x y z
#
# Youngs Moduli (GPa) = 27.23614 23.22568 63.39473
#
# Poissons Ratio (x) = -0.51558 0.96132
# Poissons Ratio (y) = -0.60460 1.14618
# Poissons Ratio (z) = 0.41301 0.41992
#
# Static dielectric constant tensor:
#      x y z
#    x 1.167970 0.000000 0.000000 
#    y 0.000000 1.752850 0.000000 
#    z 0.000000 0.000000 1.797390 
# 
# From -- ./inp_files/6707.got.cif
#   From: 2010.05.17/outbox.cif.g08.bks.cpg/sg23_4_cif.got.tgz:6707.got - 2010.06.04 12:02:01.
