data_PCOD9329854
_publ_section_title
;
Structure prediction by ZEFSAII (Michael W. Deem and Ramdas Pophale) SiO2 
 PCOD9329854
Probable space group: I 2 2 2
;
_chemical_formula_sum "Si O2"
_cell_formula_units_Z 48
_cell_length_a 18.205956
_cell_length_b 12.615785
_cell_length_c 9.041771
_cell_angle_alpha 90.000000
_cell_angle_beta 90.000000
_cell_angle_gamma 90.000000
_cell_volume 2076.735904
_symmetry_space_group_name_H-M "I 2 2 2"
_symmetry_group_IT_number 23
_symmetry_cell_setting 'orthorhombic'
loop_
_space_group_symop_operation_xyz
x,y,z
-x,-y,z
x,-y,-z
-x,y,-z
1/2+x,1/2+y,1/2+z
1/2-x,1/2-y,1/2+z
1/2+x,1/2-y,1/2-z
1/2-x,1/2+y,1/2-z
loop_
_atom_site_type_symbol
_atom_site_label
_atom_site_fract_x
_atom_site_fract_y
_atom_site_fract_z
Si Si1 0.188927 0.751658 0.459996
Si Si2 0.650838 0.479250 0.329017
Si Si3 0.063510 0.828636 0.253922
Si Si4 0.721387 0.101129 0.682796
Si Si5 0.598660 0.752115 0.771690
Si Si6 0.583704 0.859236 0.474350
O O1 0.125153 0.816999 0.378577
O O2 0.246307 0.825351 0.549259
O O3 0.216459 0.671955 0.333341
O O4 0.143011 0.699183 0.592561
O O5 0.670019 0.500000 0.500000
O O6 0.579786 0.552032 0.297352
O O7 0.723306 0.493831 0.225607
O O8 0.630658 0.359747 0.285736
O O9 0.985285 0.782963 0.305576
O O10 0.081302 0.752729 0.114976
O O11 0.639793 0.073859 0.625587
O O12 0.608024 0.831770 0.637892
O O13 0.500000 0.893186 0.500000
#
# Coordination Sequence:
#
# PCOD9329854 Si02
#       6
#     8   8   8   8   8   8
#     4  10  21  34  54  77 117 155 201 245 282 347
#     4  11  21  33  53  83 124 164 190 231 299 364
#     4  10  20  33  54  83 119 152 193 235 295 355
#     4  10  21  35  53  81 113 158 205 237 294 346
#     4  10  19  33  55  83 115 159 198 236 292 352
#     4   9  18  35  57  81 112 146 199 249 289 345
#
# _framework density 23.113192999999999
#
# number of rings (size 3 to 8) (size 9 to 14) (size 15 to 20)
#    0.000    2.000    1.667    3.000    2.333    3.333 
#    0.000    3.333    0.000    0.000    0.000    2.333 
#    0.000    0.000    0.000    0.000    0.000    0.000 
#
# Total GULP energy -133839.220410 kJ/mol
# GULP energy per Si atom -5576.634184 kJ/mol
# Density = 2.306059 g / cm^3
# Si number density = 23.113193 Si / 1000 Ang^3
#
#
#
# Elastic Constant Matrix: (Units=GPa)
#
#
# Indices 1 2 3 4 5 6 
#
# 1 134.9493 13.3735 53.2681 0.0000 0.0000 0.0000
# 2 13.3735 63.4107 29.7700 0.0000 0.0000 0.0000
# 3 53.2681 29.7700 150.5238 0.0000 0.0000 0.0000
# 4 0.0000 0.0000 0.0000 6.2880 0.0000 0.0000
# 5 0.0000 0.0000 0.0000 0.0000 51.3120 0.0000
# 6 0.0000 0.0000 0.0000 0.0000 0.0000 13.5538
#
#
#
# Elastic Compliance Matrix: (Units=1/GPa)
#
#
# Indices 1 2 3 4 5 6 
#
# 1 0.008624 -0.000426 -0.002968 0.000000 0.000000 0.000000
# 2 -0.000426 0.017405 -0.003292 0.000000 0.000000 0.000000
# 3 -0.002968 -0.003292 0.008345 0.000000 0.000000 0.000000
# 4 0.000000 0.000000 0.000000 0.159033 0.000000 0.000000
# 5 0.000000 0.000000 0.000000 0.000000 0.019489 0.000000
# 6 0.000000 0.000000 0.000000 0.000000 0.000000 0.073780
#
#
# Mechanical properties :
#
#
# Convention : Reuss Voigt Hill
#
# Bulk Modulus (GPa) = 47.61016 60.18968 53.89992
# Shear Modulus (GPa) = 16.28415 31.06225 23.67320
#
# Velocity S-wave (km/s) = 2.65720 3.66993 3.20383
# Velocity P-wave (km/s) = 5.48249 6.63744 6.08742
#
# Compressibility (1/GPa) = 0.02100392
#
# Stress axis : x y z
#
# Youngs Moduli (GPa) = 115.95845 57.45355 119.83632
#
# Poissons Ratio (x) = 0.02445 0.35563
# Poissons Ratio (y) = 0.04934 0.39448
# Poissons Ratio (z) = 0.34413 0.18912
#
# Static dielectric constant tensor:
#      x y z
#    x 2.074680 0.000000 0.000000 
#    y 0.000000 1.888410 0.000000 
#    z 0.000000 0.000000 1.877240 
# 
# From -- ./inp_files/11050.got.cif
#   From: 2010.05.17/outbox.cif.g08.bks.cpg/sg23_6_cif.got.tgz:11050.got - 2010.06.04 12:02:01.
