data_PCOD9329168
_publ_section_title
;
Structure prediction by ZEFSAII (Michael W. Deem and Ramdas Pophale) SiO2 
 PCOD9329168
Probable space group: F 2 2 2
;
_chemical_formula_sum "Si O2"
_cell_formula_units_Z 64
_cell_length_a 10.371083
_cell_length_b 23.295246
_cell_length_c 10.222414
_cell_angle_alpha 90.000000
_cell_angle_beta 90.000000
_cell_angle_gamma 90.000000
_cell_volume 2469.703837
_symmetry_space_group_name_H-M "F 2 2 2"
_symmetry_group_IT_number 22
_symmetry_cell_setting 'orthorhombic'
loop_
_space_group_symop_operation_xyz
x,y,z
-x,-y,z
x,-y,-z
-x,y,-z
x,1/2+y,1/2+z
-x,1/2-y,1/2+z
x,1/2-y,1/2-z
-x,1/2+y,1/2-z
1/2+x,y,1/2+z
1/2-x,-y,1/2+z
1/2+x,-y,1/2-z
1/2-x,y,1/2-z
1/2+x,1/2+y,z
1/2-x,1/2-y,z
1/2+x,1/2-y,-z
1/2-x,1/2+y,-z
loop_
_atom_site_type_symbol
_atom_site_label
_atom_site_fract_x
_atom_site_fract_y
_atom_site_fract_z
Si Si1 0.750000 0.960918 0.250000
Si Si2 0.012565 0.250000 0.250000
Si Si3 0.677550 0.322710 0.112820
Si Si4 0.500000 0.000000 0.717682
Si Si5 0.622656 0.853285 0.094779
Si Si6 0.500000 0.416815 0.000000
O O1 0.634561 0.010032 0.213827
O O2 0.682386 0.911534 0.153132
O O3 0.919734 0.270196 0.367695
O O4 0.084378 0.192347 0.292891
O O5 0.750000 0.328294 0.250000
O O6 0.772448 0.320685 0.992347
O O7 0.595263 0.378722 0.082054
O O8 0.564596 0.044590 0.612410
O O9 0.500000 0.865084 0.000000
#
# Coordination Sequence:
#
# PCOD9329168 Si02
#       6
#     8   8  16   8  16   8
#     4  12  28  55  80 124 156 209 280 340 410 478
#     4  12  29  45  76 120 160 220 262 316 396 482
#     4  12  27  48  75 113 164 205 261 327 388 481
#     4  11  26  50  87 110 154 213 264 345 410 474
#     4  12  29  49  80 117 163 211 266 331 393 490
#     4  11  26  50  78 110 152 206 264 327 408 472
#
# _framework density 25.914038000000001
#
# number of rings (size 3 to 8) (size 9 to 14) (size 15 to 20)
#    0.000    0.250    5.000    1.875    3.500    2.500 
#    0.000    0.000    0.000    0.000    0.000    0.000 
#    0.000    0.000    0.000    0.000    0.000    0.000 
#
# Total GULP energy -89196.806671 kJ/mol
# GULP energy per Si atom -5574.800417 kJ/mol
# Density = 2.585506 g / cm^3
# Si number density = 25.914038 Si / 1000 Ang^3
#
#
#
# Elastic Constant Matrix: (Units=GPa)
#
#
# Indices 1 2 3 4 5 6 
#
# 1 121.2631 28.9919 18.3858 0.0000 0.0000 0.0000
# 2 28.9919 84.2039 17.9104 0.0000 0.0000 0.0000
# 3 18.3858 17.9104 81.2429 0.0000 0.0000 0.0000
# 4 0.0000 0.0000 0.0000 20.5059 0.0000 0.0000
# 5 0.0000 0.0000 0.0000 0.0000 44.2664 0.0000
# 6 0.0000 0.0000 0.0000 0.0000 0.0000 61.5753
#
#
#
# Elastic Compliance Matrix: (Units=1/GPa)
#
#
# Indices 1 2 3 4 5 6 
#
# 1 0.009145 -0.002842 -0.001443 0.000000 0.000000 0.000000
# 2 -0.002842 0.013343 -0.002298 0.000000 0.000000 0.000000
# 3 -0.001443 -0.002298 0.013142 0.000000 0.000000 0.000000
# 4 0.000000 0.000000 0.000000 0.048767 0.000000 0.000000
# 5 0.000000 0.000000 0.000000 0.000000 0.022591 0.000000
# 6 0.000000 0.000000 0.000000 0.000000 0.000000 0.016240
#
#
# Mechanical properties :
#
#
# Convention : Reuss Voigt Hill
#
# Bulk Modulus (GPa) = 44.51642 46.36511 45.44077
# Shear Modulus (GPa) = 34.75081 40.03097 37.39089
#
# Velocity S-wave (km/s) = 3.66594 3.93461 3.80265
# Velocity P-wave (km/s) = 5.92745 6.21066 6.07070
#
# Compressibility (1/GPa) = 0.02246362
#
# Stress axis : x y z
#
# Youngs Moduli (GPa) = 109.35286 74.94444 76.09158
#
# Poissons Ratio (x) = 0.21296 0.10980
# Poissons Ratio (y) = 0.31074 0.17490
# Poissons Ratio (z) = 0.15780 0.17226
#
# Static dielectric constant tensor:
#      x y z
#    x 1.733220 0.000000 0.000000 
#    y 0.000000 2.149940 0.000000 
#    z 0.000000 0.000000 2.181530 
# 
# From -- ./inp_files/17988.got.cif
#   From: 2010.05.17/outbox.cif.g08.bks.cpg/sg22_9_cif.got.tgz:17988.got - 2010.06.03 23:40:54.
