data_PCOD9329028
_publ_section_title
;
Structure prediction by ZEFSAII (Michael W. Deem and Ramdas Pophale) SiO2 
 PCOD9329028
Probable space group: F 2 2 2
;
_chemical_formula_sum "Si O2"
_cell_formula_units_Z 116
_cell_length_a 28.854006
_cell_length_b 21.452694
_cell_length_c 9.078816
_cell_angle_alpha 90.000000
_cell_angle_beta 90.000000
_cell_angle_gamma 90.000000
_cell_volume 5619.752254
_symmetry_space_group_name_H-M "F 2 2 2"
_symmetry_group_IT_number 22
_symmetry_cell_setting 'orthorhombic'
loop_
_space_group_symop_operation_xyz
x,y,z
-x,-y,z
x,-y,-z
-x,y,-z
x,1/2+y,1/2+z
-x,1/2-y,1/2+z
x,1/2-y,1/2-z
-x,1/2+y,1/2-z
1/2+x,y,1/2+z
1/2-x,-y,1/2+z
1/2+x,-y,1/2-z
1/2-x,y,1/2-z
1/2+x,1/2+y,z
1/2-x,1/2-y,z
1/2+x,1/2-y,-z
1/2-x,1/2+y,-z
loop_
_atom_site_type_symbol
_atom_site_label
_atom_site_fract_x
_atom_site_fract_y
_atom_site_fract_z
Si Si1 0.952740 0.748906 0.426016
Si Si2 0.902481 0.141349 0.083474
Si Si3 0.325879 0.349386 0.670020
Si Si4 0.115457 0.557131 0.683571
Si Si5 0.545453 0.455018 0.261907
Si Si6 0.910574 0.878663 0.476675
Si Si7 0.750000 0.250000 0.250000
Si Si8 0.797164 0.009546 0.324760
O O1 0.954810 0.750000 0.250000
O O2 0.915537 0.700799 0.487421
O O3 0.941625 0.817620 0.485385
O O4 0.000000 0.728124 0.500000
O O5 0.880290 0.092660 0.968855
O O6 0.864635 0.161525 0.203936
O O7 0.947426 0.108582 0.163873
O O8 0.358784 0.360349 0.528646
O O9 0.285968 0.296770 0.665584
O O10 0.304265 0.416980 0.703095
O O11 0.080768 0.499660 0.677822
O O12 0.092625 0.600374 0.808834
O O13 0.162188 0.529498 0.749918
O O14 0.500000 0.500000 0.276670
O O15 0.567119 0.432137 0.418494
O O16 0.750000 0.988866 0.250000
O O17 0.797595 0.000000 0.500000
#
# Coordination Sequence:
#
# PCOD9329028 Si02
#       8
#    16  16  16  16  16  16   4  16
#     4  12  29  47  67  97 134 187 246 284 337 406
#     4  11  26  45  70 100 142 184 225 292 347 400
#     4  11  24  44  71 102 133 180 229 280 350 417
#     4  12  23  44  68 101 143 178 223 286 346 419
#     4  11  26  40  70 107 141 182 232 281 345 417
#     4  11  24  47  70  95 143 185 227 286 344 407
#     4  12  24  44  76  98 128 176 244 284 336 420
#     4  12  25  43  69 104 141 176 226 280 355 426
#
# _framework density 20.641477999999999
#
# number of rings (size 3 to 8) (size 9 to 14) (size 15 to 20)
#    0.000    0.552    6.207    1.655    9.655    1.103 
#    0.000    0.000    0.000    0.828    0.000    0.000 
#    0.000    0.000    0.000    0.000    0.000    0.000 
#
# Total GULP energy -161936.004346 kJ/mol
# GULP energy per Si atom -5584.000150 kJ/mol
# Density = 2.059450 g / cm^3
# Si number density = 20.641478 Si / 1000 Ang^3
#
#
#
# Elastic Constant Matrix: (Units=GPa)
#
#
# Indices 1 2 3 4 5 6 
#
# 1 94.8880 30.3300 10.8142 0.0001 -0.0001 0.0001
# 2 30.3300 90.0247 21.5538 0.0000 0.0000 -0.0002
# 3 10.8142 21.5538 68.5727 0.0000 0.0000 -0.0003
# 4 0.0001 0.0000 0.0000 16.5962 0.0001 -0.0004
# 5 -0.0001 0.0000 0.0000 0.0001 21.3729 0.0004
# 6 0.0001 -0.0002 -0.0003 -0.0004 0.0004 29.3567
#
#
#
# Elastic Compliance Matrix: (Units=1/GPa)
#
#
# Indices 1 2 3 4 5 6 
#
# 1 0.011838 -0.003830 -0.000663 0.000000 0.000000 0.000000
# 2 -0.003830 0.013251 -0.003561 0.000000 0.000000 0.000000
# 3 -0.000663 -0.003561 0.015807 0.000000 0.000000 0.000000
# 4 0.000000 0.000000 0.000000 0.060255 0.000000 0.000001
# 5 0.000000 0.000000 0.000000 0.000000 0.046788 -0.000001
# 6 0.000000 0.000000 0.000000 0.000001 -0.000001 0.034064
#
#
# Mechanical properties :
#
#
# Convention : Reuss Voigt Hill
#
# Bulk Modulus (GPa) = 40.34147 42.09792 41.21970
# Shear Modulus (GPa) = 24.22787 26.18431 25.20609
#
# Velocity S-wave (km/s) = 3.42972 3.56551 3.49827
# Velocity P-wave (km/s) = 5.93888 6.11470 6.02743
#
# Compressibility (1/GPa) = 0.02478839
#
# Stress axis : x y z
#
# Youngs Moduli (GPa) = 84.47058 75.46650 63.26318
#
# Poissons Ratio (x) = 0.28901 0.04196
# Poissons Ratio (y) = 0.32349 0.22529
# Poissons Ratio (z) = 0.05602 0.26874
#
# Static dielectric constant tensor:
#      x y z
#    x 1.711230 0.000000 0.000000 
#    y 0.000000 1.758710 0.000000 
#    z 0.000000 0.000000 1.784580 
# 
# From -- ./inp_files/14979.got.cif
#   From: 2010.05.17/outbox.cif.g08.bks.cpg/sg22_8_cif.got.tgz:14979.got - 2010.06.03 23:40:54.
