data_PCOD9329212
_publ_section_title
;
Structure prediction by ZEFSAII (Michael W. Deem and Ramdas Pophale) SiO2 
 PCOD9329212
Probable space group: F 2 2 2
;
_chemical_formula_sum "Si O2"
_cell_formula_units_Z 88
_cell_length_a 5.685107
_cell_length_b 26.261364
_cell_length_c 24.155961
_cell_angle_alpha 90.000000
_cell_angle_beta 90.000000
_cell_angle_gamma 90.000000
_cell_volume 3606.452712
_symmetry_space_group_name_H-M "F 2 2 2"
_symmetry_group_IT_number 22
_symmetry_cell_setting 'orthorhombic'
loop_
_space_group_symop_operation_xyz
x,y,z
-x,-y,z
x,-y,-z
-x,y,-z
x,1/2+y,1/2+z
-x,1/2-y,1/2+z
x,1/2-y,1/2-z
-x,1/2+y,1/2-z
1/2+x,y,1/2+z
1/2-x,-y,1/2+z
1/2+x,-y,1/2-z
1/2-x,y,1/2-z
1/2+x,1/2+y,z
1/2-x,1/2-y,z
1/2+x,1/2-y,-z
1/2-x,1/2+y,-z
loop_
_atom_site_type_symbol
_atom_site_label
_atom_site_fract_x
_atom_site_fract_y
_atom_site_fract_z
Si Si1 0.250000 0.750000 0.250000
Si Si2 0.750000 0.642629 0.250000
Si Si3 0.500000 0.000000 0.000000
Si Si4 0.834749 0.583394 0.446074
Si Si5 0.250000 0.525417 0.250000
Si Si6 0.128565 0.303890 0.056457
Si Si7 0.088940 0.410998 0.660886
Si Si8 0.366229 0.684836 0.336572
O O1 0.165678 0.711361 0.298112
O O2 0.592782 0.608417 0.208260
O O3 0.575441 0.673463 0.292055
O O4 0.352013 0.960019 0.962706
O O5 0.755835 0.641782 0.430541
O O6 0.000000 0.588204 0.500000
O O7 0.964711 0.564374 0.390921
O O8 0.500000 0.500000 0.240195
O O9 0.280046 0.557071 0.305859
O O10 0.250000 0.250000 0.043350
O O11 0.975436 0.289336 0.110241
O O12 0.000000 0.317897 0.000000
O O13 0.239036 0.363842 0.639125
#
# Coordination Sequence:
#
# PCOD9329212 Si02
#       8
#     4   8   4  16   8  16  16  16
#     4  12  26  42  72 118 158 208 270 328 414 510
#     4  12  21  49  74 108 154 220 254 338 418 502
#     4  12  30  60  80 126 156 216 306 346 440 504
#     4  12  28  55  84 115 158 215 277 354 426 503
#     4  12  28  50  78 124 168 219 281 352 442 518
#     4  12  28  49  79 117 162 212 272 342 426 514
#     4  12  26  51  76 112 162 208 272 343 425 504
#     4  12  27  45  77 111 160 210 268 335 409 517
#
# _framework density 24.400708000000002
#
# number of rings (size 3 to 8) (size 9 to 14) (size 15 to 20)
#    0.000    0.000    6.364    2.455    6.364    1.455 
#    6.545    0.000    0.000    0.000    0.000    0.000 
#    0.000    0.000    0.000    0.000    0.000    0.000 
#
# Total GULP energy -122659.212004 kJ/mol
# GULP energy per Si atom -5575.418727 kJ/mol
# Density = 2.434517 g / cm^3
# Si number density = 24.400708 Si / 1000 Ang^3
#
#
#
# Elastic Constant Matrix: (Units=GPa)
#
#
# Indices 1 2 3 4 5 6 
#
# 1 52.7123 8.2978 20.6233 0.0000 0.0000 0.0000
# 2 8.2978 87.5806 -4.8570 0.0000 0.0000 0.0000
# 3 20.6233 -4.8570 157.4285 0.0000 0.0000 0.0000
# 4 0.0000 0.0000 0.0000 -189.1215 0.0000 0.0000
# 5 0.0000 0.0000 0.0000 0.0000 50.8067 0.0000
# 6 0.0000 0.0000 0.0000 0.0000 0.0000 233.0602
#
#
#
# Elastic Compliance Matrix: (Units=1/GPa)
#
#
# Indices 1 2 3 4 5 6 
#
# 1 0.020368 -0.002081 -0.002732 0.000000 0.000000 0.000000
# 2 -0.002081 0.011650 0.000632 0.000000 0.000000 0.000000
# 3 -0.002732 0.000632 0.006730 0.000000 0.000000 0.000000
# 4 0.000000 0.000000 0.000000 -0.005288 0.000000 0.000000
# 5 0.000000 0.000000 0.000000 0.000000 0.019682 0.000000
# 6 0.000000 0.000000 0.000000 0.000000 0.000000 0.004291
#
#
# Mechanical properties :
#
#
# Convention : Reuss Voigt Hill
#
# Bulk Modulus (GPa) = 32.91175 38.42773 35.66974
# Shear Modulus (GPa) = 65.85516 37.19289 51.52403
#
# Velocity S-wave (km/s) = 5.20073 3.90841 4.60018
# Velocity P-wave (km/s) = 7.04136 6.01251 6.54718
#
# Compressibility (1/GPa) = 0.03038429
#
# Stress axis : x y z
#
# Youngs Moduli (GPa) = 49.09765 85.83477 148.59858
#
# Poissons Ratio (x) = 0.17864 0.40603
# Poissons Ratio (y) = 0.10218 -0.09393
# Poissons Ratio (z) = 0.13415 -0.05425
#
# Static dielectric constant tensor:
#      x y z
#    x 2.296230 0.000000 0.000000 
#    y 0.000000 2.132790 0.000000 
#    z 0.000000 0.000000 1.772900 
# 
# From -- ./inp_files/46744.got.cif
#   From: 2010.05.17/outbox.cif.g08.bks.cpg/sg22_24_cif.got.tgz:46744.got - 2010.06.03 23:40:54.
