data_PCOD9329331
_publ_section_title
;
Structure prediction by ZEFSAII (Michael W. Deem and Ramdas Pophale) SiO2 
 PCOD9329331
Probable space group: I 2 2 2
;
_chemical_formula_sum "Si O2"
_cell_formula_units_Z 60
_cell_length_a 11.033791
_cell_length_b 32.396005
_cell_length_c 7.536534
_cell_angle_alpha 90.000000
_cell_angle_beta 90.000000
_cell_angle_gamma 90.000000
_cell_volume 2693.939719
_symmetry_space_group_name_H-M "I 2 2 2"
_symmetry_group_IT_number 23
_symmetry_cell_setting 'orthorhombic'
loop_
_space_group_symop_operation_xyz
x,y,z
-x,-y,z
x,-y,-z
-x,y,-z
1/2+x,1/2+y,1/2+z
1/2-x,1/2-y,1/2+z
1/2+x,1/2-y,1/2-z
1/2-x,1/2+y,1/2-z
loop_
_atom_site_type_symbol
_atom_site_label
_atom_site_fract_x
_atom_site_fract_y
_atom_site_fract_z
Si Si1 0.881637 0.478549 0.200178
Si Si2 0.664664 0.116577 0.692493
Si Si3 0.196827 0.814157 0.843237
Si Si4 0.000000 0.318345 0.000000
Si Si5 0.631586 0.488834 0.789221
Si Si6 0.559271 0.316218 0.803965
Si Si7 0.129043 0.100540 0.603480
Si Si8 0.735651 0.769117 0.525945
O O1 0.892570 0.428929 0.209639
O O2 0.749938 0.488238 0.281788
O O3 0.000000 0.500000 0.280886
O O4 0.875574 0.500000 0.000000
O O5 0.741059 0.141021 0.844171
O O6 0.563500 0.149933 0.636130
O O7 0.766094 0.109439 0.539218
O O8 0.234944 0.792435 0.656721
O O9 0.234279 0.780174 0.985231
O O10 0.052382 0.813409 0.826912
O O11 0.105326 0.288684 0.078561
O O12 0.500000 0.500000 0.713902
O O13 0.653280 0.440265 0.786361
O O14 0.625310 0.500000 0.000000
O O15 0.623640 0.359642 0.772811
O O16 0.656210 0.281005 0.840066
O O17 0.500000 0.321391 0.000000
O O18 0.000000 0.093853 0.500000
#
# Coordination Sequence:
#
# PCOD9329331 Si02
#       8
#     8   8   8   4   8   8   8   8
#     4  10  18  25  37  61  92 128 162 191 241 304
#     4  11  18  28  43  65  94 133 167 200 249 304
#     4  10  21  34  53  70  99 135 176 213 258 305
#     4  10  20  30  45  68  96 128 168 213 244 304
#     4  10  16  21  35  55  80 118 158 193 222 285
#     4   9  17  30  47  64  89 126 167 208 245 298
#     4  11  14  26  39  57  84 118 163 194 233 285
#     4  10  21  35  49  73  95 131 175 215 262 302
#
# _framework density 22.272214999999999
#
# number of rings (size 3 to 8) (size 9 to 14) (size 15 to 20)
#    0.000    1.867    9.333    0.800    3.733    0.000 
#    0.000    0.000    0.000    0.000    0.000    0.000 
#    0.000    0.000    0.000   32.400   10.933    1.067 
#
# Total GULP energy -167202.561843 kJ/mol
# GULP energy per Si atom -5573.418728 kJ/mol
# Density = 2.222152 g / cm^3
# Si number density = 22.272215 Si / 1000 Ang^3
#
#
#
# Elastic Constant Matrix: (Units=GPa)
#
#
# Indices 1 2 3 4 5 6 
#
# 1 125.8222 23.5563 5.4023 -0.0017 -0.0039 -0.0005
# 2 23.5563 145.7662 8.5841 -0.0045 -0.0057 0.0004
# 3 5.4023 8.5841 41.6579 0.0037 0.0107 -0.0012
# 4 -0.0017 -0.0045 0.0037 8.1320 0.0006 -0.0002
# 5 -0.0039 -0.0057 0.0107 0.0006 -1.3628 -0.0033
# 6 -0.0005 0.0004 -0.0012 -0.0002 -0.0033 33.8762
#
#
#
# Elastic Compliance Matrix: (Units=1/GPa)
#
#
# Indices 1 2 3 4 5 6 
#
# 1 0.008222 -0.001281 -0.000802 0.000001 -0.000024 0.000000
# 2 -0.001281 0.007144 -0.001306 0.000004 -0.000036 0.000000
# 3 -0.000802 -0.001306 0.024378 -0.000012 0.000199 0.000001
# 4 0.000001 0.000004 -0.000012 0.122971 0.000052 0.000001
# 5 -0.000024 -0.000036 0.000199 0.000052 -0.733806 -0.000072
# 6 0.000000 0.000000 0.000001 0.000001 -0.000072 0.029519
#
#
# Mechanical properties :
#
#
# Convention : Reuss Voigt Hill
#
# Bulk Modulus (GPa) = 30.33495 43.14796 36.74145
# Shear Modulus (GPa) = -9.54556 26.50933 8.48189
#
# Velocity S-wave (km/s) = -2.07248 3.45373 1.95360
# Velocity P-wave (km/s) = 2.81474 5.94301 4.64985
#
# Compressibility (1/GPa) = 0.03296527
#
# Stress axis : x y z
#
# Youngs Moduli (GPa) = 121.62373 139.97182 41.02032
#
# Poissons Ratio (x) = 0.17937 0.03291
# Poissons Ratio (y) = 0.15586 0.05357
# Poissons Ratio (z) = 0.09757 0.18280
#
# Static dielectric constant tensor:
#      x y z
#    x 1.882960 0.000000 0.000000 
#    y 0.000000 1.882090 0.000000 
#    z 0.000000 0.000000 1.865460 
# 
# From -- ./inp_files/16165.got.cif
#   From: 2010.05.17/outbox.cif.g08.bks.cpg/sg23_9_cif.got.tgz:16165.got - 2010.06.04 12:02:01.
