data_PCOD9329970
_publ_section_title
;
Structure prediction by ZEFSAII (Michael W. Deem and Ramdas Pophale) SiO2 
 PCOD9329970
Probable space group: I 2 2 2
;
_chemical_formula_sum "Si O2"
_cell_formula_units_Z 64
_cell_length_a 9.582480
_cell_length_b 15.732353
_cell_length_c 21.543706
_cell_angle_alpha 90.000000
_cell_angle_beta 90.000000
_cell_angle_gamma 90.000000
_cell_volume 3247.820493
_symmetry_space_group_name_H-M "I 2 2 2"
_symmetry_group_IT_number 23
_symmetry_cell_setting 'orthorhombic'
loop_
_space_group_symop_operation_xyz
x,y,z
-x,-y,z
x,-y,-z
-x,y,-z
1/2+x,1/2+y,1/2+z
1/2-x,1/2-y,1/2+z
1/2+x,1/2-y,1/2-z
1/2-x,1/2+y,1/2-z
loop_
_atom_site_type_symbol
_atom_site_label
_atom_site_fract_x
_atom_site_fract_y
_atom_site_fract_z
Si Si1 0.825120 0.826040 0.242923
Si Si2 0.364776 0.328588 0.261897
Si Si3 0.161502 0.466422 0.932164
Si Si4 0.668803 0.503693 0.191765
Si Si5 0.161831 0.282187 0.982504
Si Si6 0.348432 0.016495 0.072662
Si Si7 0.307508 0.320315 0.595442
Si Si8 0.616122 0.377880 0.596703
O O1 0.721418 0.756858 0.270006
O O2 0.818387 0.807650 0.168956
O O3 0.982653 0.808826 0.265330
O O4 0.793707 0.923208 0.263430
O O5 0.297525 0.405175 0.222702
O O6 0.391193 0.364473 0.330153
O O7 0.251136 0.495237 0.873267
O O8 0.186166 0.365550 0.941643
O O9 0.000000 0.500000 0.924316
O O10 0.205861 0.500000 0.000000
O O11 0.500000 0.500000 0.184232
O O12 0.188036 0.199140 0.940744
O O13 0.220956 0.260818 0.051279
O O14 0.000000 0.291235 0.000000
O O15 0.313686 0.113525 0.084282
O O16 0.500000 0.000000 0.102478
O O17 0.213553 0.959981 0.090302
O O18 0.360353 0.000000 0.000000
O O19 0.453659 0.367903 0.575406
#
# Coordination Sequence:
#
# PCOD9329970 Si02
#       8
#     8   8   8   8   8   8   8   8
#     4  10  22  41  62  93 124 161 206 258 298 366
#     4  10  22  39  64  90 124 163 208 252 304 360
#     4  11  23  40  67  92 121 149 209 267 310 349
#     4  10  23  42  62  88 131 171 203 245 314 383
#     4  10  19  35  59  93 117 152 198 261 306 350
#     4  11  22  36  54  85 126 157 192 243 302 355
#     4  10  21  36  63  87 121 162 210 244 300 364
#     4  10  20  36  62  86 120 160 208 243 295 363
#
# _framework density 19.705521999999998
#
# number of rings (size 3 to 8) (size 9 to 14) (size 15 to 20)
#    0.000    1.750    2.500    1.875    1.750    5.750 
#    0.000    1.250    2.750    0.000    0.000    0.000 
#    0.000    0.000    0.000    0.000    0.000    0.000 
#
# Total GULP energy -178174.882798 kJ/mol
# GULP energy per Si atom -5567.965087 kJ/mol
# Density = 1.966067 g / cm^3
# Si number density = 19.705522 Si / 1000 Ang^3
#
#
#
# Elastic Constant Matrix: (Units=GPa)
#
#
# Indices 1 2 3 4 5 6 
#
# 1 42.0152 18.8561 2.5476 0.0000 0.0000 0.0000
# 2 18.8561 80.0927 7.8708 0.0000 0.0000 0.0000
# 3 2.5476 7.8708 69.0890 0.0000 0.0000 0.0000
# 4 0.0000 0.0000 0.0000 8.7470 0.0000 0.0000
# 5 0.0000 0.0000 0.0000 0.0000 26.3778 0.0000
# 6 0.0000 0.0000 0.0000 0.0000 0.0000 20.2086
#
#
#
# Elastic Compliance Matrix: (Units=1/GPa)
#
#
# Indices 1 2 3 4 5 6 
#
# 1 0.026618 -0.006240 -0.000271 0.000000 0.000000 0.000000
# 2 -0.006240 0.014090 -0.001375 0.000000 0.000000 0.000000
# 3 -0.000271 -0.001375 0.014641 0.000000 0.000000 0.000000
# 4 0.000000 0.000000 0.000000 0.114325 0.000000 0.000000
# 5 0.000000 0.000000 0.000000 0.000000 0.037911 0.000000
# 6 0.000000 0.000000 0.000000 0.000000 0.000000 0.049484
#
#
# Mechanical properties :
#
#
# Convention : Reuss Voigt Hill
#
# Bulk Modulus (GPa) = 25.26727 27.74953 26.50840
# Shear Modulus (GPa) = 17.48061 21.86151 19.67106
#
# Velocity S-wave (km/s) = 2.98164 3.33439 3.16294
# Velocity P-wave (km/s) = 4.97030 5.37931 5.17884
#
# Compressibility (1/GPa) = 0.03957689
#
# Stress axis : x y z
#
# Youngs Moduli (GPa) = 37.56892 70.97369 68.30269
#
# Poissons Ratio (x) = 0.44287 0.01849
# Poissons Ratio (y) = 0.23443 0.09392
# Poissons Ratio (z) = 0.01017 0.09759
#
# Static dielectric constant tensor:
#      x y z
#    x 1.740940 0.000000 0.000000 
#    y 0.000000 1.744430 0.000000 
#    z 0.000000 0.000000 1.708390 
# 
# From -- ./inp_files/28106.got.cif
#   From: 2010.05.17/outbox.cif.g08.bks.cpg/sg23_15_cif.got.tgz:28106.got - 2010.06.04 12:02:01.
