data_PCOD9329951
_publ_section_title
;
Structure prediction by ZEFSAII (Michael W. Deem and Ramdas Pophale) SiO2 
 PCOD9329951
Probable space group: I 2 2 2
;
_chemical_formula_sum "Si O2"
_cell_formula_units_Z 52
_cell_length_a 7.108845
_cell_length_b 24.709667
_cell_length_c 15.114342
_cell_angle_alpha 90.000000
_cell_angle_beta 90.000000
_cell_angle_gamma 90.000000
_cell_volume 2654.942885
_symmetry_space_group_name_H-M "I 2 2 2"
_symmetry_group_IT_number 23
_symmetry_cell_setting 'orthorhombic'
loop_
_space_group_symop_operation_xyz
x,y,z
-x,-y,z
x,-y,-z
-x,y,-z
1/2+x,1/2+y,1/2+z
1/2-x,1/2-y,1/2+z
1/2+x,1/2-y,1/2-z
1/2-x,1/2+y,1/2-z
loop_
_atom_site_type_symbol
_atom_site_label
_atom_site_fract_x
_atom_site_fract_y
_atom_site_fract_z
Si Si1 0.160160 0.788026 0.882563
Si Si2 0.298506 0.026208 0.410411
Si Si3 0.227075 0.260396 0.431278
Si Si4 0.286535 0.145966 0.368928
Si Si5 0.504488 0.619185 0.278996
Si Si6 0.868079 0.692043 0.250773
Si Si7 0.500000 0.500000 0.760167
O O1 0.204678 0.743960 0.806045
O O2 0.944167 0.773152 0.906555
O O3 0.128928 0.848896 0.848218
O O4 0.287782 0.781999 0.969263
O O5 0.331014 0.090514 0.418808
O O6 0.500000 0.000000 0.396680
O O7 0.218757 0.000000 0.500000
O O8 0.173333 0.010814 0.326293
O O9 0.224497 0.195527 0.430273
O O10 0.104991 0.284627 0.350386
O O11 0.456459 0.166259 0.303546
O O12 0.107046 0.130074 0.311029
O O13 0.705300 0.647820 0.265488
O O14 0.525329 0.555380 0.294035
#
# Coordination Sequence:
#
# PCOD9329951 Si02
#       7
#     8   8   8   8   8   8   4
#     4   9  18  32  54  79 110 145 183 230 277 339
#     4  10  21  35  53  77 111 147 195 230 271 331
#     4   9  18  32  54  82 110 144 181 226 289 332
#     4  10  20  34  54  78 111 147 180 228 275 339
#     4  10  20  35  54  77 110 146 187 227 277 333
#     4  10  19  35  57  77 113 146 181 231 286 335
#     4  10  21  36  54  77 108 154 188 234 276 328
#
# _framework density 19.586109
#
# number of rings (size 3 to 8) (size 9 to 14) (size 15 to 20)
#    0.000    2.308    1.538    1.154    0.000    6.154 
#    0.000    4.615    0.000    7.385    0.000    0.000 
#    0.000   11.077    0.000    0.000    0.000    0.000 
#
# Total GULP energy -144944.846147 kJ/mol
# GULP energy per Si atom -5574.801775 kJ/mol
# Density = 1.954153 g / cm^3
# Si number density = 19.586109 Si / 1000 Ang^3
#
#
#
# Elastic Constant Matrix: (Units=GPa)
#
#
# Indices 1 2 3 4 5 6 
#
# 1 58.9342 25.4659 18.3254 0.0000 0.0000 0.0000
# 2 25.4659 192.2290 57.3214 0.0000 0.0000 0.0000
# 3 18.3254 57.3214 101.3094 0.0001 0.0000 0.0000
# 4 0.0000 0.0000 0.0001 2.8220 0.0000 0.0000
# 5 0.0000 0.0000 0.0000 0.0000 25.2793 0.0000
# 6 0.0000 0.0000 0.0000 0.0000 0.0000 10.3318
#
#
#
# Elastic Compliance Matrix: (Units=1/GPa)
#
#
# Indices 1 2 3 4 5 6 
#
# 1 0.018453 -0.001743 -0.002351 0.000000 0.000000 0.000000
# 2 -0.001743 0.006423 -0.003319 0.000000 0.000000 0.000000
# 3 -0.002351 -0.003319 0.012174 0.000000 0.000000 0.000000
# 4 0.000000 0.000000 0.000000 0.354355 0.000000 0.000000
# 5 0.000000 0.000000 0.000000 0.000000 0.039558 0.000000
# 6 0.000000 0.000000 0.000000 0.000000 0.000000 0.096788
#
#
# Mechanical properties :
#
#
# Convention : Reuss Voigt Hill
#
# Bulk Modulus (GPa) = 44.99998 61.63312 53.31655
# Shear Modulus (GPa) = 9.09117 24.44395 16.76756
#
# Velocity S-wave (km/s) = 2.15678 3.53657 2.92908
# Velocity P-wave (km/s) = 5.40626 6.94353 6.22255
#
# Compressibility (1/GPa) = 0.02222223
#
# Stress axis : x y z
#
# Youngs Moduli (GPa) = 54.19303 155.69817 82.14367
#
# Poissons Ratio (x) = 0.27144 0.19315
# Poissons Ratio (y) = 0.09448 0.27261
# Poissons Ratio (z) = 0.12743 0.51671
#
# Static dielectric constant tensor:
#      x y z
#    x 1.726560 0.000000 0.000000 
#    y 0.000000 1.715730 0.000000 
#    z 0.000000 0.000000 1.737410 
# 
# From -- ./inp_files/20281.got.cif
#   From: 2010.05.17/outbox.cif.g08.bks.cpg/sg23_11_cif.got.tgz:20281.got - 2010.06.04 12:02:01.
