data_PCOD9329904
_publ_section_title
;
Structure prediction by ZEFSAII (Michael W. Deem and Ramdas Pophale) SiO2 
 PCOD9329904
Probable space group: I 2 2 2
;
_chemical_formula_sum "Si O2"
_cell_formula_units_Z 64
_cell_length_a 14.487022
_cell_length_b 8.633290
_cell_length_c 24.133063
_cell_angle_alpha 90.000000
_cell_angle_beta 90.000000
_cell_angle_gamma 90.000000
_cell_volume 3018.338169
_symmetry_space_group_name_H-M "I 2 2 2"
_symmetry_group_IT_number 23
_symmetry_cell_setting 'orthorhombic'
loop_
_space_group_symop_operation_xyz
x,y,z
-x,-y,z
x,-y,-z
-x,y,-z
1/2+x,1/2+y,1/2+z
1/2-x,1/2-y,1/2+z
1/2+x,1/2-y,1/2-z
1/2-x,1/2+y,1/2-z
loop_
_atom_site_type_symbol
_atom_site_label
_atom_site_fract_x
_atom_site_fract_y
_atom_site_fract_z
Si Si1 0.535457 0.161146 0.856152
Si Si2 0.035231 0.325931 0.887891
Si Si3 0.158066 0.064639 0.265437
Si Si4 0.035386 0.229844 0.761184
Si Si5 0.194319 0.220435 0.959297
Si Si6 0.343539 0.262492 0.872998
Si Si7 0.636928 0.369210 0.426005
Si Si8 0.778462 0.419043 0.335388
O O1 0.539407 0.149356 0.789065
O O2 0.454961 0.275614 0.874149
O O3 0.642873 0.182438 0.865974
O O4 0.500000 0.000000 0.880724
O O5 0.963641 0.203545 0.915812
O O6 0.000000 0.500000 0.886181
O O7 0.052252 0.275107 0.824400
O O8 0.125431 0.328420 0.925634
O O9 0.183335 0.106983 0.328471
O O10 0.248059 0.092143 0.228119
O O11 0.069907 0.167634 0.245642
O O12 0.112829 0.896485 0.256014
O O13 0.293600 0.253144 0.932089
O O14 0.154152 0.048353 0.943922
O O15 0.185299 0.228498 0.025110
O O16 0.312148 0.096564 0.845876
O O17 0.686348 0.371221 0.367189
#
# Coordination Sequence:
#
# PCOD9329904 Si02
#       8
#     8   8   8   8   8   8   8   8
#     4   9  19  35  55  79 120 153 189 248 303 357
#     4  12  24  37  58  90 127 162 203 264 326 382
#     4  10  20  33  57  82 119 159 203 247 297 382
#     4  10  20  36  53  82 119 161 199 239 301 381
#     4  10  22  39  65  83 120 167 210 262 309 389
#     4   9  20  38  54  86 117 154 201 250 306 362
#     4  10  21  41  61  89 117 163 218 255 315 381
#     4  10  19  34  58  83 117 153 201 251 304 369
#
# _framework density 21.203719
#
# number of rings (size 3 to 8) (size 9 to 14) (size 15 to 20)
#    0.000    2.000    1.250    2.625    5.250    2.000 
#    2.250    0.625    0.000    3.750    0.000    0.000 
#    0.000    0.000    0.000    0.000    0.000    0.000 
#
# Total GULP energy -178188.107774 kJ/mol
# GULP energy per Si atom -5568.378368 kJ/mol
# Density = 2.115546 g / cm^3
# Si number density = 21.203719 Si / 1000 Ang^3
#
#
#
# Elastic Constant Matrix: (Units=GPa)
#
#
# Indices 1 2 3 4 5 6 
#
# 1 72.7452 -0.4272 -14.8938 0.0000 0.0000 0.0000
# 2 -0.4272 29.7769 9.5548 0.0000 0.0000 0.0000
# 3 -14.8938 9.5548 60.8546 0.0000 0.0000 0.0000
# 4 0.0000 0.0000 0.0000 16.9757 0.0000 0.0000
# 5 0.0000 0.0000 0.0000 0.0000 14.5797 0.0000
# 6 0.0000 0.0000 0.0000 0.0000 0.0000 18.0973
#
#
#
# Elastic Compliance Matrix: (Units=1/GPa)
#
#
# Indices 1 2 3 4 5 6 
#
# 1 0.014499 -0.000980 0.003702 0.000000 0.000000 0.000000
# 2 -0.000980 0.035431 -0.005803 0.000000 0.000000 0.000000
# 3 0.003702 -0.005803 0.018250 0.000000 0.000000 0.000000
# 4 0.000000 0.000000 0.000000 0.058908 0.000000 0.000000
# 5 0.000000 0.000000 0.000000 0.000000 0.068588 0.000000
# 6 0.000000 0.000000 0.000000 0.000000 0.000000 0.055257
#
#
# Mechanical properties :
#
#
# Convention : Reuss Voigt Hill
#
# Bulk Modulus (GPa) = 16.12416 16.87159 16.49787
# Shear Modulus (GPa) = 18.00073 21.20675 19.60374
#
# Velocity S-wave (km/s) = 2.91682 3.16593 3.04393
# Velocity P-wave (km/s) = 4.35485 4.61935 4.48905
#
# Compressibility (1/GPa) = 0.06201874
#
# Stress axis : x y z
#
# Youngs Moduli (GPa) = 68.97085 28.22389 54.79495
#
# Poissons Ratio (x) = 0.02766 -0.20287
# Poissons Ratio (y) = 0.06759 0.31797
# Poissons Ratio (z) = -0.25536 0.16378
#
# Static dielectric constant tensor:
#      x y z
#    x 1.836760 0.000000 0.000000 
#    y 0.000000 1.842080 0.000000 
#    z 0.000000 0.000000 1.744110 
# 
# From -- ./inp_files/28558.got.cif
#   From: 2010.05.17/outbox.cif.g08.bks.cpg/sg23_15_cif.got.tgz:28558.got - 2010.06.04 12:02:01.
