data_PCOD9329419
_publ_section_title
;
Structure prediction by ZEFSAII (Michael W. Deem and Ramdas Pophale) SiO2 
 PCOD9329419
Probable space group: I 2 2 2
;
_chemical_formula_sum "Si O2"
_cell_formula_units_Z 64
_cell_length_a 16.125116
_cell_length_b 9.604416
_cell_length_c 26.375408
_cell_angle_alpha 90.000000
_cell_angle_beta 90.000000
_cell_angle_gamma 90.000000
_cell_volume 4084.820684
_symmetry_space_group_name_H-M "I 2 2 2"
_symmetry_group_IT_number 23
_symmetry_cell_setting 'orthorhombic'
loop_
_space_group_symop_operation_xyz
x,y,z
-x,-y,z
x,-y,-z
-x,y,-z
1/2+x,1/2+y,1/2+z
1/2-x,1/2-y,1/2+z
1/2+x,1/2-y,1/2-z
1/2-x,1/2+y,1/2-z
loop_
_atom_site_type_symbol
_atom_site_label
_atom_site_fract_x
_atom_site_fract_y
_atom_site_fract_z
Si Si1 0.691951 0.532031 0.795519
Si Si2 0.072607 0.177946 0.103193
Si Si3 0.116690 0.133913 0.921513
Si Si4 0.109609 0.214346 0.742608
Si Si5 0.926969 0.205591 0.778438
Si Si6 0.755827 0.796909 0.834705
Si Si7 0.900665 0.344134 0.989769
Si Si8 0.644187 0.025505 0.232470
O O1 0.640929 0.389904 0.801287
O O2 0.638506 0.616178 0.753608
O O3 0.712512 0.645382 0.838203
O O4 0.779827 0.492176 0.771608
O O5 0.092736 0.185658 0.162426
O O6 0.109817 0.299301 0.068491
O O7 0.972380 0.186482 0.099881
O O8 0.101566 0.032459 0.077662
O O9 0.191326 0.163595 0.883298
O O10 0.130655 0.221705 0.972852
O O11 0.177833 0.207618 0.787909
O O12 0.106916 0.373411 0.724408
O O13 0.021563 0.167531 0.765279
O O14 0.915376 0.363585 0.759261
O O15 0.685766 0.906374 0.817292
O O16 0.868826 0.500000 0.000000
O O17 0.000000 0.346769 0.000000
#
# Coordination Sequence:
#
# PCOD9329419 Si02
#       8
#     8   8   8   8   8   8   8   8
#     4   9  19  29  43  58  90 117 150 195 237 277
#     4  10  19  29  46  66  84 113 163 204 231 274
#     4  10  18  30  48  63  83 119 158 198 234 288
#     4  10  17  29  43  62  84 115 155 196 229 275
#     4  11  19  29  45  66  85 119 164 200 227 273
#     4   9  17  31  43  62  86 117 151 190 240 281
#     4   9  19  33  42  60  89 115 146 204 256 269
#     4   9  19  30  40  60  91 116 148 197 239 272
#
# _framework density 15.667763000000001
#
# number of rings (size 3 to 8) (size 9 to 14) (size 15 to 20)
#    0.000    2.375    1.250    3.375    1.750    3.500 
#    4.500    0.000    0.000    0.000    0.000    0.000 
#    0.000    0.000    0.000    0.000    0.000  667.500 
#
# Total GULP energy -178165.708893 kJ/mol
# GULP energy per Si atom -5567.678403 kJ/mol
# Density = 1.563210 g / cm^3
# Si number density = 15.667763 Si / 1000 Ang^3
#
#
#
# Elastic Constant Matrix: (Units=GPa)
#
#
# Indices 1 2 3 4 5 6 
#
# 1 40.4291 17.8432 14.7617 0.0000 0.0000 0.0000
# 2 17.8432 86.9631 18.3034 0.0000 0.0000 0.0000
# 3 14.7617 18.3034 38.0435 0.0000 0.0000 0.0000
# 4 0.0000 0.0000 0.0000 9.1529 0.0000 0.0000
# 5 0.0000 0.0000 0.0000 0.0000 12.1747 0.0000
# 6 0.0000 0.0000 0.0000 0.0000 0.0000 21.7592
#
#
#
# Elastic Compliance Matrix: (Units=1/GPa)
#
#
# Indices 1 2 3 4 5 6 
#
# 1 0.030098 -0.004136 -0.009689 0.000000 0.000000 0.000000
# 2 -0.004136 0.013363 -0.004824 0.000000 0.000000 0.000000
# 3 -0.009689 -0.004824 0.032366 0.000000 0.000000 0.000000
# 4 0.000000 0.000000 0.000000 0.109254 0.000000 0.000000
# 5 0.000000 0.000000 0.000000 0.000000 0.082137 0.000000
# 6 0.000000 0.000000 0.000000 0.000000 0.000000 0.045958
#
#
# Mechanical properties :
#
#
# Convention : Reuss Voigt Hill
#
# Bulk Modulus (GPa) = 25.95463 29.69470 27.82467
# Shear Modulus (GPa) = 13.76205 16.25253 15.00729
#
# Velocity S-wave (km/s) = 2.96694 3.22424 3.09826
# Velocity P-wave (km/s) = 5.32340 5.73192 5.53143
#
# Compressibility (1/GPa) = 0.03852877
#
# Stress axis : x y z
#
# Youngs Moduli (GPa) = 33.22503 74.83234 30.89653
#
# Poissons Ratio (x) = 0.30953 0.29934
# Poissons Ratio (y) = 0.13743 0.14905
# Poissons Ratio (z) = 0.32190 0.36101
#
# Static dielectric constant tensor:
#      x y z
#    x 1.506430 0.000000 0.000000 
#    y 0.000000 1.600730 0.000000 
#    z 0.000000 0.000000 1.501140 
# 
# From -- ./inp_files/22806.got.cif
#   From: 2010.05.17/outbox.cif.g08.bks.cpg/sg23_12_cif.got.tgz:22806.got - 2010.06.04 12:02:01.
