data_PCOD9329627
_publ_section_title
;
Structure prediction by ZEFSAII (Michael W. Deem and Ramdas Pophale) SiO2 
 PCOD9329627
Probable space group: I 2 2 2
;
_chemical_formula_sum "Si O2"
_cell_formula_units_Z 44
_cell_length_a 5.396285
_cell_length_b 21.184225
_cell_length_c 15.653774
_cell_angle_alpha 90.000000
_cell_angle_beta 90.000000
_cell_angle_gamma 90.000000
_cell_volume 1789.478638
_symmetry_space_group_name_H-M "I 2 2 2"
_symmetry_group_IT_number 23
_symmetry_cell_setting 'orthorhombic'
loop_
_space_group_symop_operation_xyz
x,y,z
-x,-y,z
x,-y,-z
-x,y,-z
1/2+x,1/2+y,1/2+z
1/2-x,1/2-y,1/2+z
1/2+x,1/2-y,1/2-z
1/2-x,1/2+y,1/2-z
loop_
_atom_site_type_symbol
_atom_site_label
_atom_site_fract_x
_atom_site_fract_y
_atom_site_fract_z
Si Si1 0.248997 0.070347 0.537112
Si Si2 0.797522 0.319349 0.212026
Si Si3 0.500000 0.802920 0.000000
Si Si4 0.875330 0.766194 0.124053
Si Si5 0.295182 0.599632 0.771678
Si Si6 0.123028 0.103929 0.913600
O O1 0.500000 0.100803 0.500000
O O2 0.241457 0.063063 0.639482
O O3 0.000000 0.101266 0.500000
O O4 0.249813 0.000000 0.500000
O O5 0.761707 0.266807 0.285531
O O6 0.544556 0.359265 0.208412
O O7 0.890777 0.279033 0.131125
O O8 0.036245 0.362095 0.234774
O O9 0.313091 0.757182 0.951288
O O10 0.640025 0.853413 0.938896
O O11 0.938940 0.839546 0.110941
O O12 0.332211 0.568925 0.676906
O O13 0.000000 0.074385 0.000000
#
# Coordination Sequence:
#
# PCOD9329627 Si02
#       6
#     8   8   4   8   8   8
#     4  10  22  44  71  95 123 155 203 260 333 420
#     4  11  22  34  58  80 120 165 221 263 314 365
#     4  10  18  34  52  74 112 161 223 254 306 368
#     4  10  20  34  52  76 111 172 214 260 304 366
#     4  11  22  39  61  90 121 160 207 278 327 373
#     4   9  19  33  53  83 120 160 214 257 301 375
#
# _framework density 24.588166999999999
#
# number of rings (size 3 to 8) (size 9 to 14) (size 15 to 20)
#    0.000    1.818    1.818    3.273    2.545    0.000 
#    1.636    2.727    0.000    0.000    0.000    2.545 
#    0.000    0.000    0.000    0.000    0.000    0.000 
#
# Total GULP energy -122664.644107 kJ/mol
# GULP energy per Si atom -5575.665641 kJ/mol
# Density = 2.453220 g / cm^3
# Si number density = 24.588167 Si / 1000 Ang^3
#
#
#
# Elastic Constant Matrix: (Units=GPa)
#
#
# Indices 1 2 3 4 5 6 
#
# 1 164.0811 17.8421 48.2157 0.0000 0.0000 0.0000
# 2 17.8421 38.3889 35.8245 0.0000 0.0000 0.0000
# 3 48.2157 35.8245 223.6082 0.0000 0.0000 0.0000
# 4 0.0000 0.0000 0.0000 23.4260 0.0000 0.0000
# 5 0.0000 0.0000 0.0000 0.0000 158.2871 0.0000
# 6 0.0000 0.0000 0.0000 0.0000 0.0000 2.5252
#
#
#
# Elastic Compliance Matrix: (Units=1/GPa)
#
#
# Indices 1 2 3 4 5 6 
#
# 1 0.006642 -0.002058 -0.001102 0.000000 0.000000 0.000000
# 2 -0.002058 0.031266 -0.004565 0.000000 0.000000 0.000000
# 3 -0.001102 -0.004565 0.005441 0.000000 0.000000 0.000000
# 4 0.000000 0.000000 0.000000 0.042688 0.000000 0.000000
# 5 0.000000 0.000000 0.000000 0.000000 0.006318 0.000000
# 6 0.000000 0.000000 0.000000 0.000000 0.000000 0.396006
#
#
# Mechanical properties :
#
#
# Convention : Reuss Voigt Hill
#
# Bulk Modulus (GPa) = 35.84555 69.98252 52.91404
# Shear Modulus (GPa) = 9.74446 58.46073 34.10260
#
# Velocity S-wave (km/s) = 1.99291 4.88135 3.72822
# Velocity P-wave (km/s) = 4.46157 7.76491 6.33243
#
# Compressibility (1/GPa) = 0.02789747
#
# Stress axis : x y z
#
# Youngs Moduli (GPa) = 150.54936 31.98339 183.78109
#
# Poissons Ratio (x) = 0.06583 0.20262
# Poissons Ratio (y) = 0.30988 0.83903
# Poissons Ratio (z) = 0.16598 0.14602
#
# Static dielectric constant tensor:
#      x y z
#    x 2.145370 0.000000 0.000000 
#    y 0.000000 0.855470 0.000000 
#    z 0.000000 0.000000 2.120400 
# 
# From -- ./inp_files/2667.got.cif
#   From: 2010.05.17/outbox.cif.g08.bks.cpg/sg23_2_cif.got.tgz:2667.got - 2010.06.04 12:02:01.
