data_PCOD9329249
_publ_section_title
;
Structure prediction by ZEFSAII (Michael W. Deem and Ramdas Pophale) SiO2 
 PCOD9329249
Probable space group: F 2 2 2
;
_chemical_formula_sum "Si O2"
_cell_formula_units_Z 48
_cell_length_a 26.098776
_cell_length_b 13.114046
_cell_length_c 5.887935
_cell_angle_alpha 90.000000
_cell_angle_beta 90.000000
_cell_angle_gamma 90.000000
_cell_volume 2015.207866
_symmetry_space_group_name_H-M "F 2 2 2"
_symmetry_group_IT_number 22
_symmetry_cell_setting 'orthorhombic'
loop_
_space_group_symop_operation_xyz
x,y,z
-x,-y,z
x,-y,-z
-x,y,-z
x,1/2+y,1/2+z
-x,1/2-y,1/2+z
x,1/2-y,1/2-z
-x,1/2+y,1/2-z
1/2+x,y,1/2+z
1/2-x,-y,1/2+z
1/2+x,-y,1/2-z
1/2-x,y,1/2-z
1/2+x,1/2+y,z
1/2-x,1/2-y,z
1/2+x,1/2-y,-z
1/2-x,1/2+y,-z
loop_
_atom_site_type_symbol
_atom_site_label
_atom_site_fract_x
_atom_site_fract_y
_atom_site_fract_z
Si Si1 0.587434 0.867807 0.298175
Si Si2 0.679906 0.855419 0.616658
Si Si3 0.500000 0.500000 0.000000
Si Si4 0.250000 0.750000 0.750000
Si Si5 0.660880 0.000000 0.000000
O O1 0.576944 0.750000 0.250000
O O2 0.623551 0.876672 0.519758
O O3 0.536398 0.930496 0.344378
O O4 0.623168 0.914225 0.101707
O O5 0.679923 0.750000 0.750000
O O6 0.716353 0.825633 0.406306
O O7 0.691351 0.945872 0.794634
#
# Coordination Sequence:
#
# PCOD9329249 Si02
#       5
#    16  16   4   4   8
#     4  12  26  48  79 115 160 214 277 347 407 493
#     4  12  24  49  87 115 163 221 278 349 410 504
#     4  12  28  46  76 124 166 222 272 334 440 478
#     4  12  26  48  92 122 168 228 272 344 450 486
#     4  12  24  47  88 111 162 219 276 347 414 488
#
# _framework density 23.818881000000001
#
# number of rings (size 3 to 8) (size 9 to 14) (size 15 to 20)
#    0.000    0.000    8.333    0.500    0.000    4.667 
#    0.000    0.000  102.667    0.000    0.000    0.000 
#    0.000    0.000    0.000    0.000    0.000    0.000 
#
# Total GULP energy -67262.262975 kJ/mol
# GULP energy per Si atom -5605.188581 kJ/mol
# Density = 2.376467 g / cm^3
# Si number density = 23.818881 Si / 1000 Ang^3
#
#
#
# Elastic Constant Matrix: (Units=GPa)
#
#
# Indices 1 2 3 4 5 6 
#
# 1 151.4554 75.5337 71.9780 0.0000 0.0000 0.0000
# 2 75.5337 205.2584 75.8473 0.0000 0.0000 0.0000
# 3 71.9780 75.8473 140.9898 0.0000 0.0000 0.0000
# 4 0.0000 0.0000 0.0000 57.5838 0.0000 0.0000
# 5 0.0000 0.0000 0.0000 0.0000 20.0896 0.0000
# 6 0.0000 0.0000 0.0000 0.0000 0.0000 32.7843
#
#
#
# Elastic Compliance Matrix: (Units=1/GPa)
#
#
# Indices 1 2 3 4 5 6 
#
# 1 0.009392 -0.002102 -0.003664 0.000000 0.000000 0.000000
# 2 -0.002102 0.006551 -0.002451 0.000000 0.000000 0.000000
# 3 -0.003664 -0.002451 0.010282 0.000000 0.000000 0.000000
# 4 0.000000 0.000000 0.000000 0.017366 0.000000 0.000000
# 5 0.000000 0.000000 0.000000 0.000000 0.049777 0.000000
# 6 0.000000 0.000000 0.000000 0.000000 0.000000 0.030502
#
#
# Mechanical properties :
#
#
# Convention : Reuss Voigt Hill
#
# Bulk Modulus (GPa) = 102.13832 104.93576 103.53704
# Shear Modulus (GPa) = 34.82636 40.38116 37.60376
#
# Velocity S-wave (km/s) = 3.82793 4.12192 3.97764
# Velocity P-wave (km/s) = 7.90644 8.17343 8.04104
#
# Compressibility (1/GPa) = 0.00979064
#
# Stress axis : x y z
#
# Youngs Moduli (GPa) = 106.46909 152.64170 97.25927
#
# Poissons Ratio (x) = 0.32092 0.35636
# Poissons Ratio (y) = 0.22384 0.23838
# Poissons Ratio (z) = 0.39010 0.37413
#
# Static dielectric constant tensor:
#      x y z
#    x 1.860830 0.000000 0.000000 
#    y 0.000000 1.890160 0.000000 
#    z 0.000000 0.000000 1.970960 
# 
# From -- ./inp_files/1671.got.cif
#   From: 2010.05.17/outbox.cif.g08.bks.cpg/sg22_1_cif.got.tgz:1671.got - 2010.06.03 23:40:54.
