data_PCOD9329051
_publ_section_title
;
Structure prediction by ZEFSAII (Michael W. Deem and Ramdas Pophale) SiO2 
 PCOD9329051
Probable space group: F 2 2 2
;
_chemical_formula_sum "Si O2"
_cell_formula_units_Z 88
_cell_length_a 24.149788
_cell_length_b 11.531454
_cell_length_c 14.533511
_cell_angle_alpha 90.000000
_cell_angle_beta 90.000000
_cell_angle_gamma 90.000000
_cell_volume 4047.323673
_symmetry_space_group_name_H-M "F 2 2 2"
_symmetry_group_IT_number 22
_symmetry_cell_setting 'orthorhombic'
loop_
_space_group_symop_operation_xyz
x,y,z
-x,-y,z
x,-y,-z
-x,y,-z
x,1/2+y,1/2+z
-x,1/2-y,1/2+z
x,1/2-y,1/2-z
-x,1/2+y,1/2-z
1/2+x,y,1/2+z
1/2-x,-y,1/2+z
1/2+x,-y,1/2-z
1/2-x,y,1/2-z
1/2+x,1/2+y,z
1/2-x,1/2-y,z
1/2+x,1/2-y,-z
1/2-x,1/2+y,-z
loop_
_atom_site_type_symbol
_atom_site_label
_atom_site_fract_x
_atom_site_fract_y
_atom_site_fract_z
Si Si1 0.810150 0.057918 0.098027
Si Si2 0.662420 0.883932 0.246108
Si Si3 0.000000 0.194273 0.500000
Si Si4 0.534318 0.879597 0.200731
Si Si5 0.599252 0.750149 0.860144
Si Si6 0.188175 0.055744 0.597784
O O1 0.858850 0.146434 0.119814
O O2 0.748831 0.113004 0.104535
O O3 0.817877 0.951974 0.166206
O O4 0.815672 0.000000 0.000000
O O5 0.674301 0.750000 0.250000
O O6 0.596885 0.901393 0.230993
O O7 0.691845 0.945926 0.163017
O O8 0.970535 0.132004 0.588439
O O9 0.950702 0.253189 0.436535
O O10 0.523268 0.750000 0.250000
O O11 0.500000 0.000000 0.224750
O O12 0.585641 0.750000 0.750000
O O13 0.636701 0.864105 0.876048
O O14 0.178577 0.000000 0.500000
#
# Coordination Sequence:
#
# PCOD9329051 Si02
#       6
#    16  16   8  16  16  16
#     4  11  27  45  72 110 149 195 242 307 383 447
#     4  11  25  45  70 105 150 190 241 305 371 455
#     4  12  27  46  75 106 143 202 251 316 377 458
#     4  11  26  47  73 106 144 198 257 314 382 453
#     4  12  26  49  76 109 148 191 259 314 375 447
#     4  11  24  45  76 109 148 196 244 305 373 452
#
# _framework density 21.742763
#
# number of rings (size 3 to 8) (size 9 to 14) (size 15 to 20)
#    0.000    0.727    1.818    4.091   10.182    2.182 
#    0.000    0.909    0.000    0.000    0.000    0.000 
#    0.000    0.000    0.000    0.000    0.000    0.000 
#
# Total GULP energy -122640.557770 kJ/mol
# GULP energy per Si atom -5574.570808 kJ/mol
# Density = 2.169328 g / cm^3
# Si number density = 21.742763 Si / 1000 Ang^3
#
#
#
# Elastic Constant Matrix: (Units=GPa)
#
#
# Indices 1 2 3 4 5 6 
#
# 1 147.5372 52.3652 55.2875 0.0000 0.0000 0.0000
# 2 52.3652 150.4563 65.8412 0.0000 0.0000 0.0000
# 3 55.2875 65.8412 193.7319 0.0000 0.0000 0.0000
# 4 0.0000 0.0000 0.0000 -64.2869 0.0000 0.0000
# 5 0.0000 0.0000 0.0000 0.0000 40.0930 0.0000
# 6 0.0000 0.0000 0.0000 0.0000 0.0000 357.9950
#
#
#
# Elastic Compliance Matrix: (Units=1/GPa)
#
#
# Indices 1 2 3 4 5 6 
#
# 1 0.008133 -0.002132 -0.001596 0.000000 0.000000 0.000000
# 2 -0.002132 0.008367 -0.002235 0.000000 0.000000 0.000000
# 3 -0.001596 -0.002235 0.006377 0.000000 0.000000 0.000000
# 4 0.000000 0.000000 0.000000 -0.015555 0.000000 0.000000
# 5 0.000000 0.000000 0.000000 0.000000 0.024942 0.000000
# 6 0.000000 0.000000 0.000000 0.000000 0.000000 0.002793
#
#
# Mechanical properties :
#
#
# Convention : Reuss Voigt Hill
#
# Bulk Modulus (GPa) = 91.32775 93.19036 92.25906
# Shear Modulus (GPa) = 98.74982 87.97567 93.36275
#
# Velocity S-wave (km/s) = 6.74655 6.36788 6.55995
# Velocity P-wave (km/s) = 10.13819 9.84987 9.99507
#
# Compressibility (1/GPa) = 0.01094957
#
# Stress axis : x y z
#
# Youngs Moduli (GPa) = 122.95763 119.52398 156.81512
#
# Poissons Ratio (x) = 0.25482 0.25034
# Poissons Ratio (y) = 0.26214 0.35048
# Poissons Ratio (z) = 0.19629 0.26714
#
# Static dielectric constant tensor:
#      x y z
#    x 1.843780 0.000000 0.000000 
#    y 0.000000 1.797300 0.000000 
#    z 0.000000 0.000000 1.727930 
# 
# From -- ./inp_files/32339.got.cif
#   From: 2010.05.17/outbox.cif.g08.bks.cpg/sg22_17_cif.got.tgz:32339.got - 2010.06.03 23:40:54.
