data_PCOD9329223
_publ_section_title
;
Structure prediction by ZEFSAII (Michael W. Deem and Ramdas Pophale) SiO2 
 PCOD9329223
Probable space group: F 2 2 2
;
_chemical_formula_sum "Si O2"
_cell_formula_units_Z 64
_cell_length_a 30.615547
_cell_length_b 5.098254
_cell_length_c 16.180738
_cell_angle_alpha 90.000000
_cell_angle_beta 90.000000
_cell_angle_gamma 90.000000
_cell_volume 2525.584001
_symmetry_space_group_name_H-M "F 2 2 2"
_symmetry_group_IT_number 22
_symmetry_cell_setting 'orthorhombic'
loop_
_space_group_symop_operation_xyz
x,y,z
-x,-y,z
x,-y,-z
-x,y,-z
x,1/2+y,1/2+z
-x,1/2-y,1/2+z
x,1/2-y,1/2-z
-x,1/2+y,1/2-z
1/2+x,y,1/2+z
1/2-x,-y,1/2+z
1/2+x,-y,1/2-z
1/2-x,y,1/2-z
1/2+x,1/2+y,z
1/2-x,1/2-y,z
1/2+x,1/2-y,-z
1/2-x,1/2+y,-z
loop_
_atom_site_type_symbol
_atom_site_label
_atom_site_fract_x
_atom_site_fract_y
_atom_site_fract_z
Si Si1 0.860335 0.500000 0.000000
Si Si2 0.935037 0.848033 0.079278
Si Si3 0.132578 0.500800 0.694989
Si Si4 0.500000 0.500000 0.690500
Si Si5 0.706148 0.868186 0.587584
O O1 0.892860 0.695383 0.045323
O O2 0.828934 0.352615 0.063327
O O3 0.965765 0.647447 0.128862
O O4 0.910709 0.050107 0.140315
O O5 0.953949 0.000000 0.000000
O O6 0.141445 0.250000 0.750000
O O7 0.177348 0.554567 0.644930
O O8 0.121454 0.750000 0.750000
O O9 0.487064 0.250000 0.750000
O O10 0.750000 0.750000 0.624969
O O11 0.718401 0.000000 0.500000
#
# Coordination Sequence:
#
# PCOD9329223 Si02
#       5
#     8  16  16   8  16
#     4  12  22  47  84 116 148 210 284 329 398 466
#     4  12  28  54  91 118 162 218 289 337 410 507
#     4  12  27  49  82 119 166 220 268 334 420 493
#     4  12  34  61  83 128 178 216 268 360 445 500
#     4  12  25  45  76 119 159 215 277 339 393 486
#
# _framework density 25.340674
#
# number of rings (size 3 to 8) (size 9 to 14) (size 15 to 20)
#    0.000    0.000    6.250    2.250    3.500    5.000 
#    0.000    3.750    0.000    0.000    0.000    0.000 
#    0.000    0.000    0.000    0.000    0.000    0.000 
#
# Total GULP energy -89627.415531 kJ/mol
# GULP energy per Si atom -5601.713471 kJ/mol
# Density = 2.528300 g / cm^3
# Si number density = 25.340674 Si / 1000 Ang^3
#
#
#
# Elastic Constant Matrix: (Units=GPa)
#
#
# Indices 1 2 3 4 5 6 
#
# 1 185.5439 41.7439 65.6594 0.0014 0.0019 -0.0006
# 2 41.7439 98.9541 39.0946 0.0036 0.0028 -0.0012
# 3 65.6594 39.0946 115.5987 0.0014 0.0012 -0.0002
# 4 0.0014 0.0036 0.0014 56.4267 0.0004 -0.0003
# 5 0.0019 0.0028 0.0012 0.0004 2.5623 0.0030
# 6 -0.0006 -0.0012 -0.0002 -0.0003 0.0030 79.0346
#
#
#
# Elastic Compliance Matrix: (Units=1/GPa)
#
#
# Indices 1 2 3 4 5 6 
#
# 1 0.006954 -0.001585 -0.003414 0.000000 -0.000002 0.000000
# 2 -0.001585 0.012025 -0.003167 -0.000001 -0.000010 0.000000
# 3 -0.003414 -0.003167 0.011661 0.000000 0.000001 0.000000
# 4 0.000000 -0.000001 0.000000 0.017722 -0.000003 0.000000
# 5 -0.000002 -0.000010 0.000001 -0.000003 0.390278 -0.000015
# 6 0.000000 0.000000 0.000000 0.000000 -0.000015 0.012653
#
#
# Mechanical properties :
#
#
# Convention : Reuss Voigt Hill
#
# Bulk Modulus (GPa) = 69.88501 77.01027 73.44764
# Shear Modulus (GPa) = 10.58439 44.51130 27.54785
#
# Velocity S-wave (km/s) = 2.04595 4.19563 3.30070
# Velocity P-wave (km/s) = 5.76362 7.34350 6.60100
#
# Compressibility (1/GPa) = 0.01430922
#
# Stress axis : x y z
#
# Youngs Moduli (GPa) = 143.79690 83.15762 85.75822
#
# Poissons Ratio (x) = 0.13179 0.29278
# Poissons Ratio (y) = 0.22790 0.27157
# Poissons Ratio (z) = 0.49092 0.26333
#
# Static dielectric constant tensor:
#      x y z
#    x 1.931690 0.000000 0.000000 
#    y 0.000000 2.362040 -0.000060 
#    z 0.000000 -0.000060 2.117310 
# 
# From -- ./inp_files/2906.got.cif
#   From: 2010.05.17/outbox.cif.g08.bks.cpg/sg22_2_cif.got.tgz:2906.got - 2010.06.03 23:40:54.
