data_PCOD9329033
_publ_section_title
;
Structure prediction by ZEFSAII (Michael W. Deem and Ramdas Pophale) SiO2 
 PCOD9329033
Probable space group: F 2 2 2
;
_chemical_formula_sum "Si O2"
_cell_formula_units_Z 108
_cell_length_a 13.514558
_cell_length_b 13.159832
_cell_length_c 29.365784
_cell_angle_alpha 90.000000
_cell_angle_beta 90.000000
_cell_angle_gamma 90.000000
_cell_volume 5222.684505
_symmetry_space_group_name_H-M "F 2 2 2"
_symmetry_group_IT_number 22
_symmetry_cell_setting 'orthorhombic'
loop_
_space_group_symop_operation_xyz
x,y,z
-x,-y,z
x,-y,-z
-x,y,-z
x,1/2+y,1/2+z
-x,1/2-y,1/2+z
x,1/2-y,1/2-z
-x,1/2+y,1/2-z
1/2+x,y,1/2+z
1/2-x,-y,1/2+z
1/2+x,-y,1/2-z
1/2-x,y,1/2-z
1/2+x,1/2+y,z
1/2-x,1/2-y,z
1/2+x,1/2-y,-z
1/2-x,1/2+y,-z
loop_
_atom_site_type_symbol
_atom_site_label
_atom_site_fract_x
_atom_site_fract_y
_atom_site_fract_z
Si Si1 0.083765 0.886397 0.415506
Si Si2 0.500000 0.000000 0.000000
Si Si3 0.107368 0.745669 0.601490
Si Si4 0.402182 0.058168 0.335814
Si Si5 0.883347 0.382641 0.509710
Si Si6 0.750000 0.250000 0.443382
Si Si7 0.822171 0.059823 0.642799
Si Si8 0.367648 0.636460 0.741273
O O1 0.182947 0.822479 0.414000
O O2 0.993066 0.810766 0.406244
O O3 0.107669 0.980191 0.382534
O O4 0.065238 0.931747 0.466114
O O5 0.094748 0.672177 0.644493
O O6 0.128202 0.670955 0.558951
O O7 0.182944 0.837032 0.612745
O O8 0.290963 0.021455 0.349423
O O9 0.406558 0.064697 0.281255
O O10 0.500000 0.000000 0.353457
O O11 0.853071 0.500000 0.500000
O O12 0.822466 0.314768 0.474948
O O13 0.000000 0.377997 0.500000
O O14 0.872650 0.093550 0.690361
O O15 0.408519 0.750000 0.750000
O O16 0.250000 0.643396 0.750000
#
# Coordination Sequence:
#
# PCOD9329033 Si02
#       8
#    16   4  16  16  16   8  16  16
#     4  12  27  43  68  99 136 179 227 286 340 409
#     4  12  24  48  64  96 128 172 240 280 328 392
#     4  12  24  44  66 101 132 178 228 282 338 407
#     4  11  26  40  70 102 139 175 222 279 338 414
#     4  11  27  46  66  94 135 178 226 280 341 410
#     4  12  28  44  64  96 135 181 220 286 346 400
#     4  11  24  44  73 100 135 179 228 284 337 408
#     4   9  18  42  67  99 132 173 223 275 337 400
#
# _framework density 20.679019
#
# number of rings (size 3 to 8) (size 9 to 14) (size 15 to 20)
#    0.000    0.889    4.444    1.333    9.333    1.185 
#    0.000    0.000    0.000    0.000    0.000    0.000 
#    0.000    0.000    0.000    0.000    0.000    0.000 
#
# Total GULP energy -150778.312395 kJ/mol
# GULP energy per Si atom -5584.381941 kJ/mol
# Density = 2.063195 g / cm^3
# Si number density = 20.679019 Si / 1000 Ang^3
#
#
#
# Elastic Constant Matrix: (Units=GPa)
#
#
# Indices 1 2 3 4 5 6 
#
# 1 95.3018 46.3538 24.9035 0.0000 0.0000 0.0000
# 2 46.3538 120.0100 51.8909 0.0000 0.0000 0.0000
# 3 24.9035 51.8909 114.8199 0.0000 0.0000 0.0000
# 4 0.0000 0.0000 0.0000 25.3440 0.0000 0.0000
# 5 0.0000 0.0000 0.0000 0.0000 62.2270 0.0000
# 6 0.0000 0.0000 0.0000 0.0000 0.0000 32.8339
#
#
#
# Elastic Compliance Matrix: (Units=1/GPa)
#
#
# Indices 1 2 3 4 5 6 
#
# 1 0.012963 -0.004712 -0.000682 0.000000 0.000000 0.000000
# 2 -0.004712 0.012069 -0.004432 0.000000 0.000000 0.000000
# 3 -0.000682 -0.004432 0.010860 0.000000 0.000000 0.000000
# 4 0.000000 0.000000 0.000000 0.039457 0.000000 0.000000
# 5 0.000000 0.000000 0.000000 0.000000 0.016070 0.000000
# 6 0.000000 0.000000 0.000000 0.000000 0.000000 0.030456
#
#
# Mechanical properties :
#
#
# Convention : Reuss Voigt Hill
#
# Bulk Modulus (GPa) = 61.57810 64.04756 62.81283
# Shear Modulus (GPa) = 34.02687 37.87988 35.95338
#
# Velocity S-wave (km/s) = 4.06085 4.28460 4.17422
# Velocity P-wave (km/s) = 7.19931 7.45094 7.32621
#
# Compressibility (1/GPa) = 0.01623954
#
# Stress axis : x y z
#
# Youngs Moduli (GPa) = 77.14198 82.85541 92.07763
#
# Poissons Ratio (x) = 0.39042 0.06280
# Poissons Ratio (y) = 0.36350 0.40813
# Poissons Ratio (z) = 0.05261 0.36725
#
# Static dielectric constant tensor:
#      x y z
#    x 1.734160 0.000000 0.000000 
#    y 0.000000 1.764430 0.000000 
#    z 0.000000 0.000000 1.762640 
# 
# From -- ./inp_files/56504.got.cif
#   From: 2010.05.17/outbox.cif.g08.bks.cpg/sg22_29_cif.got.tgz:56504.got - 2010.06.03 23:40:54.
