data_PCOD9329174
_publ_section_title
;
Structure prediction by ZEFSAII (Michael W. Deem and Ramdas Pophale) SiO2 
 PCOD9329174
Probable space group: F 2 2 2
;
_chemical_formula_sum "Si O2"
_cell_formula_units_Z 28
_cell_length_a 14.584426
_cell_length_b 13.481422
_cell_length_c 4.965105
_cell_angle_alpha 90.000000
_cell_angle_beta 90.000000
_cell_angle_gamma 90.000000
_cell_volume 976.232995
_symmetry_space_group_name_H-M "F 2 2 2"
_symmetry_group_IT_number 22
_symmetry_cell_setting 'orthorhombic'
loop_
_space_group_symop_operation_xyz
x,y,z
-x,-y,z
x,-y,-z
-x,y,-z
x,1/2+y,1/2+z
-x,1/2-y,1/2+z
x,1/2-y,1/2-z
-x,1/2+y,1/2-z
1/2+x,y,1/2+z
1/2-x,-y,1/2+z
1/2+x,-y,1/2-z
1/2-x,y,1/2-z
1/2+x,1/2+y,z
1/2-x,1/2-y,z
1/2+x,1/2-y,-z
1/2-x,1/2+y,-z
loop_
_atom_site_type_symbol
_atom_site_label
_atom_site_fract_x
_atom_site_fract_y
_atom_site_fract_z
Si Si1 0.594020 0.886015 0.609910
Si Si2 0.250000 0.250000 0.750000
Si Si3 0.180943 0.000000 0.500000
O O1 0.500000 0.841402 0.500000
O O2 0.681985 0.816392 0.566878
O O3 0.592713 0.000000 0.500000
O O4 0.613086 0.909509 0.927491
O O5 0.250000 0.012057 0.250000
#
# Coordination Sequence:
#
# PCOD9329174 Si02
#       3
#    16   4   8
#     4  11  26  53  85 134 179 235 303 375 452 539
#     4  12  24  56  86 128 182 244 294 380 450 552
#     4  12  22  51  87 128 174 238 292 373 449 528
#
# _framework density 28.681678000000002
#
# number of rings (size 3 to 8) (size 9 to 14) (size 15 to 20)
#    0.000    0.571    5.714    0.000    0.000    4.571 
#   20.571   10.000    0.000    0.000    0.000    0.000 
#    0.000    0.000    0.000    0.000    0.000    0.000 
#
# Total GULP energy -39001.453561 kJ/mol
# GULP energy per Si atom -5571.636223 kJ/mol
# Density = 2.861640 g / cm^3
# Si number density = 28.681678 Si / 1000 Ang^3
#
#
#
# Elastic Constant Matrix: (Units=GPa)
#
#
# Indices 1 2 3 4 5 6 
#
# 1 359.3507 84.3676 90.6053 0.0002 -0.0003 -0.0002
# 2 84.3676 161.3779 33.1587 0.0008 -0.0003 -0.0002
# 3 90.6053 33.1587 134.0042 0.0048 -0.0034 -0.0011
# 4 0.0002 0.0008 0.0048 43.4590 -0.0008 -0.0004
# 5 -0.0003 -0.0003 -0.0034 -0.0008 35.7680 0.0006
# 6 -0.0002 -0.0002 -0.0011 -0.0004 0.0006 57.4074
#
#
#
# Elastic Compliance Matrix: (Units=1/GPa)
#
#
# Indices 1 2 3 4 5 6 
#
# 1 0.003663 -0.001481 -0.002110 0.000000 0.000000 0.000000
# 2 -0.001481 0.007128 -0.000762 0.000000 0.000000 0.000000
# 3 -0.002110 -0.000762 0.009078 -0.000001 0.000001 0.000000
# 4 0.000000 0.000000 -0.000001 0.023010 0.000000 0.000000
# 5 0.000000 0.000000 0.000001 0.000000 0.027958 0.000000
# 6 0.000000 0.000000 0.000000 0.000000 0.000000 0.017419
#
#
# Mechanical properties :
#
#
# Convention : Reuss Voigt Hill
#
# Bulk Modulus (GPa) = 89.59589 118.99957 104.29773
# Shear Modulus (GPa) = 49.66123 57.10030 53.38077
#
# Velocity S-wave (km/s) = 4.16560 4.46671 4.31878
# Velocity P-wave (km/s) = 7.37849 8.25723 7.83020
#
# Compressibility (1/GPa) = 0.01116123
#
# Stress axis : x y z
#
# Youngs Moduli (GPa) = 273.03541 140.29917 110.16128
#
# Poissons Ratio (x) = 0.20782 0.23242
# Poissons Ratio (y) = 0.40443 0.08396
# Poissons Ratio (z) = 0.57606 0.10693
#
# Static dielectric constant tensor:
#      x y z
#    x 2.384690 0.000000 0.000000 
#    y 0.000000 2.467700 0.000000 
#    z 0.000000 0.000000 2.686910 
# 
# From -- ./inp_files/1114.got.cif
#   From: 2010.05.17/outbox.cif.g08.bks.cpg/sg22_1_cif.got.tgz:1114.got - 2010.06.03 23:40:54.
