data_PCOD9329250
_publ_section_title
;
Structure prediction by ZEFSAII (Michael W. Deem and Ramdas Pophale) SiO2 
 PCOD9329250
Probable space group: F 2 2 2
;
_chemical_formula_sum "Si O2"
_cell_formula_units_Z 60
_cell_length_a 19.683552
_cell_length_b 24.714549
_cell_length_c 5.041787
_cell_angle_alpha 90.000000
_cell_angle_beta 90.000000
_cell_angle_gamma 90.000000
_cell_volume 2452.678678
_symmetry_space_group_name_H-M "F 2 2 2"
_symmetry_group_IT_number 22
_symmetry_cell_setting 'orthorhombic'
loop_
_space_group_symop_operation_xyz
x,y,z
-x,-y,z
x,-y,-z
-x,y,-z
x,1/2+y,1/2+z
-x,1/2-y,1/2+z
x,1/2-y,1/2-z
-x,1/2+y,1/2-z
1/2+x,y,1/2+z
1/2-x,-y,1/2+z
1/2+x,-y,1/2-z
1/2-x,y,1/2-z
1/2+x,1/2+y,z
1/2-x,1/2-y,z
1/2+x,1/2-y,-z
1/2-x,1/2+y,-z
loop_
_atom_site_type_symbol
_atom_site_label
_atom_site_fract_x
_atom_site_fract_y
_atom_site_fract_z
Si Si1 0.706580 0.653423 0.507676
Si Si2 0.500000 0.616452 0.500000
Si Si3 0.000000 0.311002 0.500000
Si Si4 0.000000 0.000000 0.000000
Si Si5 0.119443 0.750000 0.750000
Si Si6 0.885833 0.445752 0.116775
O O1 0.750000 0.676989 0.750000
O O2 0.661456 0.701802 0.385642
O O3 0.667757 0.602450 0.647156
O O4 0.750000 0.634001 0.250000
O O5 0.482591 0.653405 0.254028
O O6 0.563672 0.581471 0.404608
O O7 0.066990 0.276602 0.453095
O O8 0.055688 0.035267 0.827618
O O9 0.853446 0.500000 0.000000
#
# Coordination Sequence:
#
# PCOD9329250 Si02
#       6
#    16   8   8   4   8  16
#     4  12  33  56  83 116 170 237 279 328 397 511
#     4  12  24  48  78 122 169 195 262 346 434 476
#     4  12  28  46  84 124 156 204 263 367 414 484
#     4  12  24  48  94 126 168 204 264 378 440 468
#     4  12  29  56  86 124 167 212 286 348 424 486
#     4  12  27  50  84 124 164 214 271 346 425 501
#
# _framework density 24.463048000000001
#
# number of rings (size 3 to 8) (size 9 to 14) (size 15 to 20)
#    0.000    0.000    5.333    2.000    7.467    5.333 
#    0.000    0.000    0.000    0.000    0.000    0.000 
#    0.000    0.000    0.000    0.000    0.000    0.000 
#
# Total GULP energy -83782.144645 kJ/mol
# GULP energy per Si atom -5585.476310 kJ/mol
# Density = 2.440737 g / cm^3
# Si number density = 24.463048 Si / 1000 Ang^3
#
#
#
# Elastic Constant Matrix: (Units=GPa)
#
#
# Indices 1 2 3 4 5 6 
#
# 1 113.1301 71.5249 48.2319 0.0360 -0.0487 -0.0651
# 2 71.5249 184.8838 59.1239 0.0020 -0.0122 -0.0389
# 3 48.2319 59.1239 135.1069 0.0350 -0.0522 -0.0779
# 4 0.0360 0.0020 0.0350 62.0621 -0.0172 -0.0636
# 5 -0.0487 -0.0122 -0.0522 -0.0172 43.2500 0.0715
# 6 -0.0651 -0.0389 -0.0779 -0.0636 0.0715 13.7397
#
#
#
# Elastic Compliance Matrix: (Units=1/GPa)
#
#
# Indices 1 2 3 4 5 6 
#
# 1 0.012512 -0.003967 -0.002730 -0.000006 0.000010 0.000032
# 2 -0.003967 0.007547 -0.001886 0.000003 -0.000005 -0.000008
# 3 -0.002730 -0.001886 0.009202 -0.000004 0.000007 0.000034
# 4 -0.000006 0.000003 -0.000004 0.016113 0.000006 0.000075
# 5 0.000010 -0.000005 0.000007 0.000006 0.023122 -0.000120
# 6 0.000032 -0.000008 0.000034 0.000075 -0.000120 0.072783
#
#
# Mechanical properties :
#
#
# Convention : Reuss Voigt Hill
#
# Bulk Modulus (GPa) = 82.69658 87.87580 85.28619
# Shear Modulus (GPa) = 30.77369 40.75972 35.76670
#
# Velocity S-wave (km/s) = 3.55063 4.08631 3.82785
# Velocity P-wave (km/s) = 7.11951 7.63307 7.38076
#
# Compressibility (1/GPa) = 0.01209240
#
# Stress axis : x y z
#
# Youngs Moduli (GPa) = 79.92538 132.50722 108.67455
#
# Poissons Ratio (x) = 0.52567 0.29673
# Poissons Ratio (y) = 0.31707 0.20499
# Poissons Ratio (z) = 0.21823 0.24995
#
# Static dielectric constant tensor:
#      x y z
#    x 2.012570 0.000030 -0.000060 
#    y 0.000030 2.079060 -0.000020 
#    z -0.000060 -0.000020 2.198400 
# 
# From -- ./inp_files/3584.got.cif
#   From: 2010.05.17/outbox.cif.g08.bks.cpg/sg22_2_cif.got.tgz:3584.got - 2010.06.03 23:40:54.
