data_PCOD9329100
_publ_section_title
;
Structure prediction by ZEFSAII (Michael W. Deem and Ramdas Pophale) SiO2 
 PCOD9329100
Probable space group: F 2 2 2
;
_chemical_formula_sum "Si O2"
_cell_formula_units_Z 64
_cell_length_a 4.979768
_cell_length_b 26.700067
_cell_length_c 20.757880
_cell_angle_alpha 90.000000
_cell_angle_beta 90.000000
_cell_angle_gamma 90.000000
_cell_volume 2759.970615
_symmetry_space_group_name_H-M "F 2 2 2"
_symmetry_group_IT_number 22
_symmetry_cell_setting 'orthorhombic'
loop_
_space_group_symop_operation_xyz
x,y,z
-x,-y,z
x,-y,-z
-x,y,-z
x,1/2+y,1/2+z
-x,1/2-y,1/2+z
x,1/2-y,1/2-z
-x,1/2+y,1/2-z
1/2+x,y,1/2+z
1/2-x,-y,1/2+z
1/2+x,-y,1/2-z
1/2-x,y,1/2-z
1/2+x,1/2+y,z
1/2-x,1/2-y,z
1/2+x,1/2-y,-z
1/2-x,1/2+y,-z
loop_
_atom_site_type_symbol
_atom_site_label
_atom_site_fract_x
_atom_site_fract_y
_atom_site_fract_z
Si Si1 0.000000 0.500000 0.911411
Si Si2 0.750000 0.586726 0.250000
Si Si3 0.000000 0.345074 0.500000
Si Si4 0.502088 0.784328 0.629287
Si Si5 0.500000 0.000000 0.664482
Si Si6 0.750000 0.346244 0.250000
Si Si7 0.500000 0.412514 0.500000
O O1 0.752019 0.521187 0.873143
O O2 0.115790 0.547332 0.949458
O O3 0.617679 0.547612 0.201176
O O4 0.503044 0.620621 0.274658
O O5 0.921551 0.315107 0.565059
O O6 0.254667 0.378260 0.520678
O O7 0.750000 0.750000 0.607726
O O8 0.619009 0.815206 0.690596
O O9 0.250000 0.750000 0.649709
#
# Coordination Sequence:
#
# PCOD9329100 Si02
#       7
#     8   8   8  16   8   8   8
#     4  11  25  44  73 100 155 196 243 307 370 443
#     4  12  27  46  67 117 142 207 251 300 371 438
#     4  12  26  46  82 109 146 193 254 316 366 472
#     4  12  27  51  77 110 149 194 246 319 394 449
#     4  12  25  45  73  98 159 197 243 308 362 446
#     4  12  28  46  80 107 156 195 256 308 370 474
#     4  11  26  45  68 115 142 193 252 305 374 433
#
# _framework density 23.188654
#
# number of rings (size 3 to 8) (size 9 to 14) (size 15 to 20)
#    0.000    0.250    0.000    8.625   10.500    3.000 
#    0.000    0.000    0.000    0.000    0.000    0.000 
#    0.000    0.000    0.000    0.000    0.000    0.000 
#
# Total GULP energy -89434.256365 kJ/mol
# GULP energy per Si atom -5589.641023 kJ/mol
# Density = 2.313588 g / cm^3
# Si number density = 23.188654 Si / 1000 Ang^3
#
#
#
# Elastic Constant Matrix: (Units=GPa)
#
#
# Indices 1 2 3 4 5 6 
#
# 1 146.2205 49.1204 22.1487 0.0000 0.0000 0.0000
# 2 49.1204 111.8587 49.8050 0.0000 0.0000 0.0000
# 3 22.1487 49.8050 103.6394 0.0000 0.0000 0.0000
# 4 0.0000 0.0000 0.0000 27.8034 0.0000 0.0000
# 5 0.0000 0.0000 0.0000 0.0000 35.7561 0.0000
# 6 0.0000 0.0000 0.0000 0.0000 0.0000 69.6760
#
#
#
# Elastic Compliance Matrix: (Units=1/GPa)
#
#
# Indices 1 2 3 4 5 6 
#
# 1 0.008023 -0.003511 -0.000027 0.000000 0.000000 0.000000
# 2 -0.003511 0.012910 -0.005454 0.000000 0.000000 0.000000
# 3 -0.000027 -0.005454 0.012275 0.000000 0.000000 0.000000
# 4 0.000000 0.000000 0.000000 0.035967 0.000000 0.000000
# 5 0.000000 0.000000 0.000000 0.000000 0.027967 0.000000
# 6 0.000000 0.000000 0.000000 0.000000 0.000000 0.014352
#
#
# Mechanical properties :
#
#
# Convention : Reuss Voigt Hill
#
# Bulk Modulus (GPa) = 65.68457 67.09630 66.39043
# Shear Modulus (GPa) = 37.16028 42.69006 39.92517
#
# Velocity S-wave (km/s) = 4.00749 4.29533 4.15390
# Velocity P-wave (km/s) = 7.05698 7.32104 7.19022
#
# Compressibility (1/GPa) = 0.01522428
#
# Stress axis : x y z
#
# Youngs Moduli (GPa) = 124.64936 77.46083 81.46309
#
# Poissons Ratio (x) = 0.27194 0.00223
# Poissons Ratio (y) = 0.43761 0.44427
# Poissons Ratio (z) = 0.00341 0.42244
#
# Static dielectric constant tensor:
#      x y z
#    x 1.795460 0.000000 0.000000 
#    y 0.000000 1.886840 0.000000 
#    z 0.000000 0.000000 1.978460 
# 
# From -- ./inp_files/40994.got.cif
#   From: 2010.05.17/outbox.cif.g08.bks.cpg/sg22_21_cif.got.tgz:40994.got - 2010.06.03 23:40:54.
