data_PCOD9329451
_publ_section_title
;
Structure prediction by ZEFSAII (Michael W. Deem and Ramdas Pophale) SiO2 
 PCOD9329451
Probable space group: I 2 2 2
;
_chemical_formula_sum "Si O2"
_cell_formula_units_Z 58
_cell_length_a 28.119965
_cell_length_b 8.679059
_cell_length_c 11.219365
_cell_angle_alpha 90.000000
_cell_angle_beta 90.000000
_cell_angle_gamma 90.000000
_cell_volume 2738.140277
_symmetry_space_group_name_H-M "I 2 2 2"
_symmetry_group_IT_number 23
_symmetry_cell_setting 'orthorhombic'
loop_
_space_group_symop_operation_xyz
x,y,z
-x,-y,z
x,-y,-z
-x,y,-z
1/2+x,1/2+y,1/2+z
1/2-x,1/2-y,1/2+z
1/2+x,1/2-y,1/2-z
1/2-x,1/2+y,1/2-z
loop_
_atom_site_type_symbol
_atom_site_label
_atom_site_fract_x
_atom_site_fract_y
_atom_site_fract_z
Si Si1 0.900471 0.116976 0.781327
Si Si2 0.175811 0.262900 0.068690
Si Si3 0.998528 0.732676 0.129802
Si Si4 0.221446 0.357724 0.586093
Si Si5 0.336405 0.907124 0.680479
Si Si6 0.423146 0.735980 0.799381
Si Si7 0.000000 0.000000 0.000000
Si Si8 0.869011 0.181676 0.523808
O O1 0.859067 0.131885 0.879982
O O2 0.880941 0.201360 0.662200
O O3 0.946729 0.206902 0.832747
O O4 0.912628 0.943532 0.736604
O O5 0.230328 0.236368 0.103110
O O6 0.158281 0.423367 0.126325
O O7 0.175037 0.290706 0.927340
O O8 0.027640 0.694786 0.247586
O O9 0.027641 0.884747 0.083126
O O10 0.000000 0.649773 0.000000
O O11 0.232816 0.500000 0.500000
O O12 0.202470 0.407609 0.715286
O O13 0.178572 0.265698 0.521533
O O14 0.384104 0.843705 0.738737
O O15 0.412697 0.737772 0.940424
O O16 0.862087 0.000000 0.500000
#
# Coordination Sequence:
#
# PCOD9329451 Si02
#       8
#     8   8   8   8   8   8   2   8
#     4  11  20  36  61  90 122 161 209 256 297 368
#     4  11  26  39  61  87 118 153 201 252 305 359
#     4  10  17  31  56  89 123 156 204 257 302 352
#     4  11  25  42  64  85 116 165 199 247 313 374
#     4  10  25  42  58  87 122 152 197 254 302 365
#     4  10  19  38  60  86 124 164 202 250 309 365
#     4   8  16  28  48  82 118 148 192 256 288 344
#     4   9  22  37  58  88 125 161 205 254 305 362
#
# _framework density 21.182258999999998
#
# number of rings (size 3 to 8) (size 9 to 14) (size 15 to 20)
#    0.414    1.379    1.379    1.655    7.724    2.759 
#    0.000    2.759    0.000    2.483    0.000    2.897 
#    0.000    0.000    0.000    0.000    0.000    0.000 
#
# Total GULP energy -161497.744812 kJ/mol
# GULP energy per Si atom -5568.887752 kJ/mol
# Density = 2.113405 g / cm^3
# Si number density = 21.182259 Si / 1000 Ang^3
#
#
#
# Elastic Constant Matrix: (Units=GPa)
#
#
# Indices 1 2 3 4 5 6 
#
# 1 77.3832 6.1776 27.2218 0.0000 0.0000 0.0000
# 2 6.1776 48.2590 18.5469 0.0000 0.0000 0.0000
# 3 27.2218 18.5469 111.4059 0.0000 0.0000 0.0000
# 4 0.0000 0.0000 0.0000 13.1967 0.0000 0.0000
# 5 0.0000 0.0000 0.0000 0.0000 18.7520 0.0000
# 6 0.0000 0.0000 0.0000 0.0000 0.0000 -32.7321
#
#
#
# Elastic Compliance Matrix: (Units=1/GPa)
#
#
# Indices 1 2 3 4 5 6 
#
# 1 0.014150 -0.000516 -0.003372 0.000000 0.000000 0.000000
# 2 -0.000516 0.022157 -0.003563 0.000000 0.000000 0.000000
# 3 -0.003372 -0.003563 0.010393 0.000000 0.000000 0.000000
# 4 0.000000 0.000000 0.000000 0.075776 0.000000 0.000000
# 5 0.000000 0.000000 0.000000 0.000000 0.053328 0.000000
# 6 0.000000 0.000000 0.000000 0.000000 0.000000 -0.030551
#
#
# Mechanical properties :
#
#
# Convention : Reuss Voigt Hill
#
# Bulk Modulus (GPa) = 31.44650 37.88231 34.66441
# Shear Modulus (GPa) = 29.28211 12.18344 20.73278
#
# Velocity S-wave (km/s) = 3.72208 2.40088 3.13194
# Velocity P-wave (km/s) = 5.77493 5.06048 5.42947
#
# Compressibility (1/GPa) = 0.03180004
#
# Stress axis : x y z
#
# Youngs Moduli (GPa) = 70.67168 45.13298 96.21703
#
# Poissons Ratio (x) = 0.02327 0.32441
# Poissons Ratio (y) = 0.03643 0.34279
# Poissons Ratio (z) = 0.23828 0.16080
#
# Static dielectric constant tensor:
#      x y z
#    x 1.759070 0.000000 0.000000 
#    y 0.000000 1.817960 0.000000 
#    z 0.000000 0.000000 1.837500 
# 
# From -- ./inp_files/18613.got.cif
#   From: 2010.05.17/outbox.cif.g08.bks.cpg/sg23_10_cif.got.tgz:18613.got - 2010.06.04 12:02:01.
