data_PCOD9329702
_publ_section_title
;
Structure prediction by ZEFSAII (Michael W. Deem and Ramdas Pophale) SiO2 
 PCOD9329702
Probable space group: I 2 2 2
;
_chemical_formula_sum "Si O2"
_cell_formula_units_Z 60
_cell_length_a 13.074577
_cell_length_b 10.168859
_cell_length_c 22.068800
_cell_angle_alpha 90.000000
_cell_angle_beta 90.000000
_cell_angle_gamma 90.000000
_cell_volume 2934.124863
_symmetry_space_group_name_H-M "I 2 2 2"
_symmetry_group_IT_number 23
_symmetry_cell_setting 'orthorhombic'
loop_
_space_group_symop_operation_xyz
x,y,z
-x,-y,z
x,-y,-z
-x,y,-z
1/2+x,1/2+y,1/2+z
1/2-x,1/2-y,1/2+z
1/2+x,1/2-y,1/2-z
1/2-x,1/2+y,1/2-z
loop_
_atom_site_type_symbol
_atom_site_label
_atom_site_fract_x
_atom_site_fract_y
_atom_site_fract_z
Si Si1 0.934977 0.123033 0.364974
Si Si2 0.578446 0.200717 0.052530
Si Si3 0.299485 0.021615 0.872730
Si Si4 0.214618 0.946438 0.560204
Si Si5 0.698564 0.788789 0.326753
Si Si6 0.975155 0.353363 0.815366
Si Si7 0.744612 0.725848 0.688230
Si Si8 0.000000 0.500000 0.700489
O O1 0.845052 0.186225 0.325050
O O2 0.011841 0.234939 0.391553
O O3 0.871421 0.051128 0.418843
O O4 0.000000 0.000000 0.337476
O O5 0.655483 0.317550 0.037554
O O6 0.649221 0.075728 0.066614
O O7 0.500000 0.173280 0.000000
O O8 0.248804 0.150227 0.843826
O O9 0.483157 0.123762 0.756528
O O10 0.399798 0.981741 0.836367
O O11 0.234523 0.892450 0.860750
O O12 0.270273 0.896392 0.621877
O O13 0.271943 0.000000 0.500000
O O14 0.575905 0.771373 0.330732
O O15 0.739111 0.822787 0.258481
O O16 0.860117 0.305903 0.823093
O O17 0.000000 0.500000 0.840719
#
# Coordination Sequence:
#
# PCOD9329702 Si02
#       8
#     8   8   8   8   8   8   8   4
#     4  10  22  36  65  97 130 176 221 272 337 396
#     4  10  20  38  63  95 139 176 215 272 332 402
#     4  11  23  38  60  92 133 176 215 265 341 413
#     4  10  20  37  66  96 127 170 232 284 326 380
#     4  11  23  39  63  91 131 179 222 283 340 400
#     4  10  21  38  63  85 127 175 224 273 336 389
#     4  12  23  41  61  95 139 177 223 273 343 420
#     4  10  18  38  55  84 129 166 214 266 314 406
#
# _framework density 20.449027999999998
#
# number of rings (size 3 to 8) (size 9 to 14) (size 15 to 20)
#    0.400    1.067    4.000    1.600    1.867    1.600 
#    0.000    3.000    0.000    3.600    0.000    0.000 
#    4.000    0.000    0.000    0.000    0.000    0.000 
#
# Total GULP energy -167066.447678 kJ/mol
# GULP energy per Si atom -5568.881589 kJ/mol
# Density = 2.040249 g / cm^3
# Si number density = 20.449028 Si / 1000 Ang^3
#
#
#
# Elastic Constant Matrix: (Units=GPa)
#
#
# Indices 1 2 3 4 5 6 
#
# 1 108.7654 52.6796 26.7086 0.0000 0.0000 0.0000
# 2 52.6796 92.0298 55.9116 0.0000 0.0000 0.0000
# 3 26.7086 55.9116 80.2437 0.0000 0.0000 0.0000
# 4 0.0000 0.0000 0.0000 25.8082 0.0000 0.0000
# 5 0.0000 0.0000 0.0000 0.0000 34.9566 0.0000
# 6 0.0000 0.0000 0.0000 0.0000 0.0000 41.1067
#
#
#
# Elastic Compliance Matrix: (Units=1/GPa)
#
#
# Indices 1 2 3 4 5 6 
#
# 1 0.012820 -0.008230 0.001467 0.000000 0.000000 0.000000
# 2 -0.008230 0.024125 -0.014071 0.000000 0.000000 0.000000
# 3 0.001467 -0.014071 0.021778 0.000000 0.000000 0.000000
# 4 0.000000 0.000000 0.000000 0.038747 0.000000 0.000000
# 5 0.000000 0.000000 0.000000 0.000000 0.028607 0.000000
# 6 0.000000 0.000000 0.000000 0.000000 0.000000 0.024327
#
#
# Mechanical properties :
#
#
# Convention : Reuss Voigt Hill
#
# Bulk Modulus (GPa) = 58.62831 61.29316 59.96073
# Shear Modulus (GPa) = 25.28371 30.09024 27.68697
#
# Velocity S-wave (km/s) = 3.52010 3.84014 3.68360
# Velocity P-wave (km/s) = 6.72712 7.04989 6.89040
#
# Compressibility (1/GPa) = 0.01705661
#
# Stress axis : x y z
#
# Youngs Moduli (GPa) = 78.00442 41.45019 45.91846
#
# Poissons Ratio (x) = 0.34112 -0.06737
# Poissons Ratio (y) = 0.64195 0.64610
# Poissons Ratio (z) = -0.11445 0.58323
#
# Static dielectric constant tensor:
#      x y z
#    x 1.749180 0.000000 0.000000 
#    y 0.000000 1.809600 0.000000 
#    z 0.000000 0.000000 1.822990 
# 
# From -- ./inp_files/26756.got.cif
#   From: 2010.05.17/outbox.cif.g08.bks.cpg/sg23_14_cif.got.tgz:26756.got - 2010.06.04 12:02:01.
