data_PCOD9329182
_publ_section_title
;
Structure prediction by ZEFSAII (Michael W. Deem and Ramdas Pophale) SiO2 
 PCOD9329182
Probable space group: F 2 2 2
;
_chemical_formula_sum "Si O2"
_cell_formula_units_Z 56
_cell_length_a 11.174258
_cell_length_b 22.812125
_cell_length_c 9.528055
_cell_angle_alpha 90.000000
_cell_angle_beta 90.000000
_cell_angle_gamma 90.000000
_cell_volume 2428.782878
_symmetry_space_group_name_H-M "F 2 2 2"
_symmetry_group_IT_number 22
_symmetry_cell_setting 'orthorhombic'
loop_
_space_group_symop_operation_xyz
x,y,z
-x,-y,z
x,-y,-z
-x,y,-z
x,1/2+y,1/2+z
-x,1/2-y,1/2+z
x,1/2-y,1/2-z
-x,1/2+y,1/2-z
1/2+x,y,1/2+z
1/2-x,-y,1/2+z
1/2+x,-y,1/2-z
1/2-x,y,1/2-z
1/2+x,1/2+y,z
1/2-x,1/2-y,z
1/2+x,1/2-y,-z
1/2-x,1/2+y,-z
loop_
_atom_site_type_symbol
_atom_site_label
_atom_site_fract_x
_atom_site_fract_y
_atom_site_fract_z
Si Si1 0.500000 0.000000 0.813884
Si Si2 0.677775 0.099612 0.895684
Si Si3 0.885703 0.269282 0.911116
Si Si4 0.666340 0.449942 0.117012
O O1 0.405682 0.958661 0.897316
O O2 0.544221 0.949609 0.702664
O O3 0.750000 0.099042 0.750000
O O4 0.609198 0.160203 0.907969
O O5 0.770264 0.099666 0.026850
O O6 0.897043 0.250000 0.750000
O O7 0.750000 0.250000 0.957323
O O8 0.000000 0.247007 0.000000
O O9 0.750000 0.463928 0.250000
O O10 0.657229 0.500000 0.000000
#
# Coordination Sequence:
#
# PCOD9329182 Si02
#       4
#     8  16  16  16
#     4  12  25  43  72 104 158 202 240 300 398 458
#     4  12  26  47  72 109 154 199 257 321 390 466
#     4  11  27  54  81 111 149 206 270 338 396 455
#     4  12  24  41  64 103 149 197 249 298 369 467
#
# _framework density 23.056816000000001
#
# number of rings (size 3 to 8) (size 9 to 14) (size 15 to 20)
#    0.000    0.286    8.571    0.429    4.000    4.000 
#    0.000    0.000    0.000    0.000    0.000    0.000 
#    0.000    0.000    0.000    0.000    0.000    0.000 
#
# Total GULP energy -77986.187939 kJ/mol
# GULP energy per Si atom -5570.441996 kJ/mol
# Density = 2.300434 g / cm^3
# Si number density = 23.056816 Si / 1000 Ang^3
#
#
#
# Elastic Constant Matrix: (Units=GPa)
#
#
# Indices 1 2 3 4 5 6 
#
# 1 139.2958 30.2584 64.3849 0.0000 0.0000 0.0000
# 2 30.2584 97.3464 25.4778 0.0000 0.0000 0.0000
# 3 64.3849 25.4778 91.7132 0.0000 0.0000 0.0000
# 4 0.0000 0.0000 0.0000 21.0602 0.0000 0.0000
# 5 0.0000 0.0000 0.0000 0.0000 53.5150 0.0000
# 6 0.0000 0.0000 0.0000 0.0000 0.0000 -13.6093
#
#
#
# Elastic Compliance Matrix: (Units=1/GPa)
#
#
# Indices 1 2 3 4 5 6 
#
# 1 0.010822 -0.001483 -0.007186 0.000000 0.000000 0.000000
# 2 -0.001483 0.011281 -0.002093 0.000000 0.000000 0.000000
# 3 -0.007186 -0.002093 0.016529 0.000000 0.000000 0.000000
# 4 0.000000 0.000000 0.000000 0.047483 0.000000 0.000000
# 5 0.000000 0.000000 0.000000 0.000000 0.018686 0.000000
# 6 0.000000 0.000000 0.000000 0.000000 0.000000 -0.073479
#
#
# Mechanical properties :
#
#
# Convention : Reuss Voigt Hill
#
# Bulk Modulus (GPa) = 58.44493 63.17750 60.81122
# Shear Modulus (GPa) = 85.39773 26.07548 55.73660
#
# Velocity S-wave (km/s) = 6.09248 3.36657 4.92200
# Velocity P-wave (km/s) = 8.65415 6.52472 7.66376
#
# Compressibility (1/GPa) = 0.01711012
#
# Stress axis : x y z
#
# Youngs Moduli (GPa) = 92.40028 88.64194 60.49850
#
# Poissons Ratio (x) = 0.13149 0.43472
# Poissons Ratio (y) = 0.13706 0.12660
# Poissons Ratio (z) = 0.66395 0.18549
#
# Static dielectric constant tensor:
#      x y z
#    x 2.146360 0.000000 0.000000 
#    y 0.000000 1.846370 0.000000 
#    z 0.000000 0.000000 1.725840 
# 
# From -- ./inp_files/8370.got.cif
#   From: 2010.05.17/outbox.cif.g08.bks.cpg/sg22_5_cif.got.tgz:8370.got - 2010.06.03 23:40:54.
