data_PCOD9329526
_publ_section_title
;
Structure prediction by ZEFSAII (Michael W. Deem and Ramdas Pophale) SiO2 
 PCOD9329526
Probable space group: I 2 2 2
;
_chemical_formula_sum "Si O2"
_cell_formula_units_Z 60
_cell_length_a 5.346966
_cell_length_b 33.260317
_cell_length_c 13.948283
_cell_angle_alpha 90.000000
_cell_angle_beta 90.000000
_cell_angle_gamma 90.000000
_cell_volume 2480.587535
_symmetry_space_group_name_H-M "I 2 2 2"
_symmetry_group_IT_number 23
_symmetry_cell_setting 'orthorhombic'
loop_
_space_group_symop_operation_xyz
x,y,z
-x,-y,z
x,-y,-z
-x,y,-z
1/2+x,1/2+y,1/2+z
1/2-x,1/2-y,1/2+z
1/2+x,1/2-y,1/2-z
1/2-x,1/2+y,1/2-z
loop_
_atom_site_type_symbol
_atom_site_label
_atom_site_fract_x
_atom_site_fract_y
_atom_site_fract_z
Si Si1 0.752582 0.832636 0.136894
Si Si2 0.716103 0.113096 0.368188
Si Si3 0.802669 0.748325 0.185703
Si Si4 0.250065 0.975394 0.132010
Si Si5 0.500000 0.327292 0.000000
Si Si6 0.249722 0.977069 0.365227
Si Si7 0.748249 0.882123 0.863711
Si Si8 0.370540 0.822240 0.640474
O O1 0.770200 0.785304 0.111709
O O2 0.500142 0.856632 0.109539
O O3 0.735871 0.827411 0.253100
O O4 0.998501 0.858066 0.111226
O O5 0.743952 0.068054 0.401660
O O6 0.743605 0.115174 0.252802
O O7 0.449905 0.133213 0.391049
O O8 0.907614 0.142095 0.418915
O O9 0.549462 0.743788 0.247533
O O10 0.882179 0.705190 0.145781
O O11 0.249241 0.974470 0.248508
O O12 0.252885 0.928483 0.100244
O O13 0.500000 0.000000 0.104907
O O14 0.000000 0.000000 0.104638
O O15 0.699310 0.302470 0.060247
O O16 0.500000 0.000000 0.392304
O O17 0.000000 0.000000 0.392856
#
# Coordination Sequence:
#
# PCOD9329526 Si02
#       8
#     8   8   8   8   4   8   8   8
#     4  10  18  32  49  72  89 116 148 196 245 296
#     4  10  21  34  50  66  89 116 157 197 249 302
#     4  10  20  34  54  74  96 116 150 197 253 308
#     4   9  16  26  41  66  89 115 148 189 234 284
#     4  12  22  36  51  68  94 126 158 196 249 314
#     4   9  19  32  51  64  80 110 151 199 247 296
#     4  10  18  30  49  69  92 118 154 192 245 292
#     4  10  22  34  52  71  94 121 154 196 254 309
#
# _framework density 24.187819000000001
#
# number of rings (size 3 to 8) (size 9 to 14) (size 15 to 20)
#    0.000    2.133    1.333    3.600    3.733    3.200 
#    0.000    0.333    0.000    0.000    0.000    0.000 
#    0.000    0.000    0.000    0.000    0.000    0.000 
#
# Total GULP energy -167666.316434 kJ/mol
# GULP energy per Si atom -5588.877214 kJ/mol
# Density = 2.413277 g / cm^3
# Si number density = 24.187819 Si / 1000 Ang^3
#
#
#
# Elastic Constant Matrix: (Units=GPa)
#
#
# Indices 1 2 3 4 5 6 
#
# 1 198.7739 97.2254 8.2007 0.0000 0.0000 0.0000
# 2 97.2254 202.1147 11.3093 0.0000 0.0000 0.0000
# 3 8.2007 11.3093 80.6336 0.0000 0.0000 0.0000
# 4 0.0000 0.0000 0.0000 1.4221 0.0000 0.0000
# 5 0.0000 0.0000 0.0000 0.0000 -29.2337 0.0000
# 6 0.0000 0.0000 0.0000 0.0000 0.0000 40.6080
#
#
#
# Elastic Compliance Matrix: (Units=1/GPa)
#
#
# Indices 1 2 3 4 5 6 
#
# 1 0.006583 -0.003154 -0.000227 0.000000 0.000000 0.000000
# 2 -0.003154 0.006498 -0.000591 0.000000 0.000000 0.000000
# 3 -0.000227 -0.000591 0.012508 0.000000 0.000000 0.000000
# 4 0.000000 0.000000 0.000000 0.703186 0.000000 0.000000
# 5 0.000000 0.000000 0.000000 0.000000 -0.034207 0.000000
# 6 0.000000 0.000000 0.000000 0.000000 0.000000 0.024626
#
#
# Mechanical properties :
#
#
# Convention : Reuss Voigt Hill
#
# Bulk Modulus (GPa) = 56.67278 79.44365 68.05821
# Shear Modulus (GPa) = 6.82111 26.87841 16.84976
#
# Velocity S-wave (km/s) = 1.68113 3.33714 2.64222
# Velocity P-wave (km/s) = 5.22010 6.91118 6.12429
#
# Compressibility (1/GPa) = 0.01764516
#
# Stress axis : x y z
#
# Youngs Moduli (GPa) = 151.90926 153.89590 79.95067
#
# Poissons Ratio (x) = 0.48538 0.01816
# Poissons Ratio (y) = 0.47911 0.04722
# Poissons Ratio (z) = 0.03451 0.09089
#
# Static dielectric constant tensor:
#      x y z
#    x 1.983740 0.000000 0.000000 
#    y 0.000000 1.912790 0.000000 
#    z 0.000000 0.000000 1.981740 
# 
# From -- ./inp_files/25863.got.cif
#   From: 2010.05.17/outbox.cif.g08.bks.cpg/sg23_13_cif.got.tgz:25863.got - 2010.06.04 12:02:01.
