data_PCOD9329228
_publ_section_title
;
Structure prediction by ZEFSAII (Michael W. Deem and Ramdas Pophale) SiO2 
 PCOD9329228
Probable space group: F 2 2 2
;
_chemical_formula_sum "Si O2"
_cell_formula_units_Z 64
_cell_length_a 4.767708
_cell_length_b 17.841475
_cell_length_c 27.416426
_cell_angle_alpha 90.000000
_cell_angle_beta 90.000000
_cell_angle_gamma 90.000000
_cell_volume 2332.121885
_symmetry_space_group_name_H-M "F 2 2 2"
_symmetry_group_IT_number 22
_symmetry_cell_setting 'orthorhombic'
loop_
_space_group_symop_operation_xyz
x,y,z
-x,-y,z
x,-y,-z
-x,y,-z
x,1/2+y,1/2+z
-x,1/2-y,1/2+z
x,1/2-y,1/2-z
-x,1/2+y,1/2-z
1/2+x,y,1/2+z
1/2-x,-y,1/2+z
1/2+x,-y,1/2-z
1/2-x,y,1/2-z
1/2+x,1/2+y,z
1/2-x,1/2-y,z
1/2+x,1/2-y,-z
1/2-x,1/2+y,-z
loop_
_atom_site_type_symbol
_atom_site_label
_atom_site_fract_x
_atom_site_fract_y
_atom_site_fract_z
Si Si1 0.146950 0.135509 0.824544
Si Si2 0.250000 0.547953 0.750000
Si Si3 0.250000 0.250000 0.750000
Si Si4 0.750000 0.750000 0.381271
Si Si5 0.884702 0.882307 0.577196
Si Si6 0.500000 0.500000 0.500000
Si Si7 0.000000 0.191992 0.000000
O O1 0.932823 0.090183 0.790613
O O2 0.351887 0.185878 0.789307
O O3 0.287282 0.090619 0.869149
O O4 0.952347 0.196578 0.850755
O O5 0.500000 0.500000 0.725220
O O6 0.549112 0.692760 0.409390
O O7 0.617825 0.859424 0.543889
O O8 0.063851 0.937250 0.542574
O O9 0.750000 0.250000 0.991394
#
# Coordination Sequence:
#
# PCOD9329228 Si02
#       7
#    16   8   4   8  16   4   8
#     4  12  27  52  88 131 185 238 312 388 456 551
#     4  12  31  55  82 131 189 256 296 366 476 576
#     4  12  22  54  86 138 174 220 312 400 460 534
#     4  12  26  55  93 134 172 241 312 395 446 546
#     4  12  31  55  88 135 188 242 312 392 470 557
#     4  12  34  62  88 140 192 256 308 390 494 580
#     4  12  29  53  90 128 166 226 308 378 451 539
#
# _framework density 27.442822
#
# number of rings (size 3 to 8) (size 9 to 14) (size 15 to 20)
#    0.000    0.000    2.500    4.500   17.500    2.500 
#    0.000    0.000    0.000    0.000    0.000    0.000 
#    0.000    0.000    0.000    0.000    0.000    0.000 
#
# Total GULP energy -89201.858428 kJ/mol
# GULP energy per Si atom -5575.116152 kJ/mol
# Density = 2.738036 g / cm^3
# Si number density = 27.442822 Si / 1000 Ang^3
#
#
#
# Elastic Constant Matrix: (Units=GPa)
#
#
# Indices 1 2 3 4 5 6 
#
# 1 133.7156 33.2539 38.8723 0.0000 0.0000 0.0000
# 2 33.2539 105.4336 61.1763 0.0000 0.0000 0.0000
# 3 38.8723 61.1763 217.1679 0.0000 0.0000 0.0000
# 4 0.0000 0.0000 0.0000 61.0753 0.0000 0.0000
# 5 0.0000 0.0000 0.0000 0.0000 53.9031 0.0000
# 6 0.0000 0.0000 0.0000 0.0000 0.0000 22.6136
#
#
#
# Elastic Compliance Matrix: (Units=1/GPa)
#
#
# Indices 1 2 3 4 5 6 
#
# 1 0.008256 -0.002088 -0.000890 0.000000 0.000000 0.000000
# 2 -0.002088 0.011866 -0.002969 0.000000 0.000000 0.000000
# 3 -0.000890 -0.002969 0.005600 0.000000 0.000000 0.000000
# 4 0.000000 0.000000 0.000000 0.016373 0.000000 0.000000
# 5 0.000000 0.000000 0.000000 0.000000 0.018552 0.000000
# 6 0.000000 0.000000 0.000000 0.000000 0.000000 0.044221
#
#
# Mechanical properties :
#
#
# Convention : Reuss Voigt Hill
#
# Bulk Modulus (GPa) = 72.30838 80.32470 76.31654
# Shear Modulus (GPa) = 41.19583 49.05271 45.12427
#
# Velocity S-wave (km/s) = 3.87867 4.23241 4.05940
# Velocity P-wave (km/s) = 6.81651 7.29505 7.05984
#
# Compressibility (1/GPa) = 0.01382966
#
# Stress axis : x y z
#
# Youngs Moduli (GPa) = 121.11766 84.27584 178.56099
#
# Poissons Ratio (x) = 0.17595 0.15887
# Poissons Ratio (y) = 0.25287 0.53013
# Poissons Ratio (z) = 0.10776 0.25021
#
# Static dielectric constant tensor:
#      x y z
#    x 2.264110 0.000000 0.000000 
#    y 0.000000 2.179870 0.000000 
#    z 0.000000 0.000000 2.288900 
# 
# From -- ./inp_files/34239.got.cif
#   From: 2010.05.17/outbox.cif.g08.bks.cpg/sg22_18_cif.got.tgz:34239.got - 2010.06.03 23:40:54.
