data_PCOD9329412
_publ_section_title
;
Structure prediction by ZEFSAII (Michael W. Deem and Ramdas Pophale) SiO2 
 PCOD9329412
Probable space group: I 2 2 2
;
_chemical_formula_sum "Si O2"
_cell_formula_units_Z 56
_cell_length_a 21.011324
_cell_length_b 29.346518
_cell_length_c 5.492506
_cell_angle_alpha 90.000000
_cell_angle_beta 90.000000
_cell_angle_gamma 90.000000
_cell_volume 3386.729720
_symmetry_space_group_name_H-M "I 2 2 2"
_symmetry_group_IT_number 23
_symmetry_cell_setting 'orthorhombic'
loop_
_space_group_symop_operation_xyz
x,y,z
-x,-y,z
x,-y,-z
-x,y,-z
1/2+x,1/2+y,1/2+z
1/2-x,1/2-y,1/2+z
1/2+x,1/2-y,1/2-z
1/2-x,1/2+y,1/2-z
loop_
_atom_site_type_symbol
_atom_site_label
_atom_site_fract_x
_atom_site_fract_y
_atom_site_fract_z
Si Si1 0.460460 0.442451 0.250001
Si Si2 0.301174 0.392039 0.750015
Si Si3 0.736657 0.363499 0.749985
Si Si4 0.285143 0.766095 0.249991
Si Si5 0.587817 0.661616 0.250018
Si Si6 0.393150 0.304300 0.750019
Si Si7 0.160135 0.011089 0.250001
O O1 0.500000 0.448701 0.500000
O O2 0.436231 0.390327 0.250008
O O3 0.401698 0.478162 0.249998
O O4 0.500000 0.448700 0.000000
O O5 0.261544 0.391597 0.500458
O O6 0.341264 0.345584 0.750020
O O7 0.349740 0.434609 0.750005
O O8 0.261545 0.391598 0.999576
O O9 0.783613 0.320734 0.749991
O O10 0.665133 0.341838 0.749981
O O11 0.250000 0.750000 0.499991
O O12 0.353678 0.742179 0.249987
O O13 0.570621 0.687079 0.498652
O O14 0.570621 0.687080 0.001389
O O15 0.194977 0.000000 0.500000
O O16 0.194976 0.000000 0.000000
#
# Coordination Sequence:
#
# PCOD9329412 Si02
#       7
#     8   8   8   8   8   8   8
#     4  12  26  40  51  62  77 102 147 204 244 270
#     4  10  18  29  43  57  77 101 122 150 198 245
#     4  10  18  29  44  63  84 102 116 144 187 256
#     4  12  16  27  43  71  89 100 120 136 172 243
#     4  10  18  32  46  60  78 102 128 161 218 262
#     4  10  17  28  46  63  83 103 116 144 186 257
#     4  12  23  37  49  60  74  98 137 183 227 271
#
# _framework density 16.535126000000002
#
# number of rings (size 3 to 8) (size 9 to 14) (size 15 to 20)
#    0.000    1.143    5.714    6.000    0.000    1.714 
#    0.000    0.000    0.000    0.000    0.000    0.000 
#    0.000    0.000    0.000    0.000    0.000    0.000 
#
# Total GULP energy -156214.315334 kJ/mol
# GULP energy per Si atom -5579.082691 kJ/mol
# Density = 1.649749 g / cm^3
# Si number density = 16.535126 Si / 1000 Ang^3
#
#
#
# Elastic Constant Matrix: (Units=GPa)
#
#
# Indices 1 2 3 4 5 6 
#
# 1 30.2260 42.9844 21.0780 0.0000 0.0000 0.0000
# 2 42.9844 96.8366 42.5557 0.0000 0.0000 0.0000
# 3 21.0780 42.5557 204.7785 0.0000 0.0000 0.0000
# 4 0.0000 0.0000 0.0000 23.7749 0.0000 0.0000
# 5 0.0000 0.0000 0.0000 0.0000 24.1536 0.0000
# 6 0.0000 0.0000 0.0000 0.0000 0.0000 -25.7949
#
#
#
# Elastic Compliance Matrix: (Units=1/GPa)
#
#
# Indices 1 2 3 4 5 6 
#
# 1 0.089927 -0.039453 -0.001058 0.000000 0.000000 0.000000
# 2 -0.039453 0.028673 -0.001898 0.000000 0.000000 0.000000
# 3 -0.001058 -0.001898 0.005387 0.000000 0.000000 0.000000
# 4 0.000000 0.000000 0.000000 0.042061 0.000000 0.000000
# 5 0.000000 0.000000 0.000000 0.000000 0.041402 0.000000
# 6 0.000000 0.000000 0.000000 0.000000 0.000000 -0.038767
#
#
# Mechanical properties :
#
#
# Convention : Reuss Voigt Hill
#
# Bulk Modulus (GPa) = 25.52904 60.56414 43.04659
# Shear Modulus (GPa) = 18.75783 19.44159 19.09971
#
# Velocity S-wave (km/s) = 3.37177 3.43268 3.40236
# Velocity P-wave (km/s) = 5.53455 7.24004 6.44397
#
# Compressibility (1/GPa) = 0.03917108
#
# Stress axis : x y z
#
# Youngs Moduli (GPa) = 11.12010 34.87588 185.64742
#
# Poissons Ratio (x) = 1.37595 0.19632
# Poissons Ratio (y) = 0.43872 0.35231
# Poissons Ratio (z) = 0.01176 0.06619
#
# Static dielectric constant tensor:
#      x y z
#    x 1.485420 0.000000 0.000000 
#    y 0.000000 1.574260 0.000000 
#    z 0.000000 0.000000 2.122790 
# 
# From -- ./inp_files/4084.got.cif
#   From: 2010.05.17/outbox.cif.g08.bks.cpg/sg23_3_cif.got.tgz:4084.got - 2010.06.04 12:02:01.
