data_PCOD9329572
_publ_section_title
;
Structure prediction by ZEFSAII (Michael W. Deem and Ramdas Pophale) SiO2 
 PCOD9329572
Probable space group: I 2 2 2
;
_chemical_formula_sum "Si O2"
_cell_formula_units_Z 64
_cell_length_a 18.301636
_cell_length_b 12.730971
_cell_length_c 16.527035
_cell_angle_alpha 90.000000
_cell_angle_beta 90.000000
_cell_angle_gamma 90.000000
_cell_volume 3850.759443
_symmetry_space_group_name_H-M "I 2 2 2"
_symmetry_group_IT_number 23
_symmetry_cell_setting 'orthorhombic'
loop_
_space_group_symop_operation_xyz
x,y,z
-x,-y,z
x,-y,-z
-x,y,-z
1/2+x,1/2+y,1/2+z
1/2-x,1/2-y,1/2+z
1/2+x,1/2-y,1/2-z
1/2-x,1/2+y,1/2-z
loop_
_atom_site_type_symbol
_atom_site_label
_atom_site_fract_x
_atom_site_fract_y
_atom_site_fract_z
Si Si1 0.822090 0.701529 0.595767
Si Si2 0.917625 0.500000 0.597920
Si Si3 0.913679 0.875730 0.675236
Si Si4 0.417819 0.372816 0.500000
Si Si5 0.826387 0.874042 0.841956
Si Si6 0.177910 0.701529 0.595767
Si Si7 0.826387 0.125958 0.841956
Si Si8 0.413679 0.375730 0.824764
O O1 0.873509 0.603923 0.620037
O O2 0.868537 0.805701 0.612453
O O3 0.804167 0.691468 0.500000
O O4 0.748595 0.689692 0.648092
O O5 0.921428 0.500000 0.500000
O O6 0.873509 0.396077 0.620037
O O7 0.000000 0.500000 0.629636
O O8 0.873648 0.857673 0.761383
O O9 1.000000 0.848326 0.678029
O O10 0.908933 0.000000 0.657534
O O11 0.421318 0.500000 0.500000
O O12 0.500000 0.331893 0.500000
O O13 0.375150 0.344075 0.419198
O O14 0.375150 0.344075 0.580802
O O15 0.751405 0.810308 0.851908
O O16 0.809826 0.000000 0.847411
O O17 0.131462 0.805701 0.612453
O O18 0.873648 0.142327 0.761383
#
# Coordination Sequence:
#
# PCOD9329572 Si02
#       8
#     8   8   8   8   8   8   8   8
#     4  11  20  33  54  77 106 138 174 216 261 308
#     4   9  18  30  48  74 102 133 169 210 257 306
#     4  10  22  37  52  74 107 143 178 213 255 308
#     4   9  16  26  48  78 107 136 165 205 262 318
#     4  10  18  32  53  77 107 135 169 215 263 312
#     4  11  20  33  54  77 106 138 174 216 261 308
#     4  10  18  32  53  77 107 135 169 215 263 312
#     4  10  22  37  52  74 107 143 178 213 255 308
#
# _framework density 16.620097999999999
#
# number of rings (size 3 to 8) (size 9 to 14) (size 15 to 20)
#    0.000    2.000    2.500    2.250    0.000    5.000 
#    0.000    1.250    0.000    0.000    0.000    0.000 
#    0.000    1.000    0.000    0.000    0.000    0.000 
#
# Total GULP energy -178414.367870 kJ/mol
# GULP energy per Si atom -5575.448996 kJ/mol
# Density = 1.658227 g / cm^3
# Si number density = 16.620098 Si / 1000 Ang^3
#
#
#
# Elastic Constant Matrix: (Units=GPa)
#
#
# Indices 1 2 3 4 5 6 
#
# 1 130.8481 33.6360 8.7867 0.0000 0.0000 0.0000
# 2 33.6360 39.3291 8.7192 0.0000 0.0000 0.0000
# 3 8.7867 8.7192 21.7298 0.0000 0.0000 0.0000
# 4 0.0000 0.0000 0.0000 21.1845 0.0000 0.0000
# 5 0.0000 0.0000 0.0000 0.0000 21.4782 0.0000
# 6 0.0000 0.0000 0.0000 0.0000 0.0000 25.6842
#
#
#
# Elastic Compliance Matrix: (Units=1/GPa)
#
#
# Indices 1 2 3 4 5 6 
#
# 1 0.009805 -0.008239 -0.000659 0.000000 0.000000 0.000000
# 2 -0.008239 0.034833 -0.010645 0.000000 0.000000 0.000000
# 3 -0.000659 -0.010645 0.050558 0.000000 0.000000 0.000000
# 4 0.000000 0.000000 0.000000 0.047204 0.000000 0.000000
# 5 0.000000 0.000000 0.000000 0.000000 0.046559 0.000000
# 6 0.000000 0.000000 0.000000 0.000000 0.000000 0.038935
#
#
# Mechanical properties :
#
#
# Convention : Reuss Voigt Hill
#
# Bulk Modulus (GPa) = 17.82249 32.68788 25.25519
# Shear Modulus (GPa) = 17.50192 23.05370 20.27781
#
# Velocity S-wave (km/s) = 3.24861 3.72842 3.49675
# Velocity P-wave (km/s) = 4.98177 6.18427 5.61530
#
# Compressibility (1/GPa) = 0.05610887
#
# Stress axis : x y z
#
# Youngs Moduli (GPa) = 101.99185 28.70825 19.77942
#
# Poissons Ratio (x) = 0.23654 0.01303
# Poissons Ratio (y) = 0.84035 0.21056
# Poissons Ratio (z) = 0.06717 0.30561
#
# Static dielectric constant tensor:
#      x y z
#    x 1.564380 0.000000 0.000000 
#    y 0.000000 1.548140 0.000000 
#    z 0.000000 0.000000 1.551190 
# 
# From -- ./inp_files/22222.got.cif
#   From: 2010.05.17/outbox.cif.g08.bks.cpg/sg23_12_cif.got.tgz:22222.got - 2010.06.04 12:02:01.
