data_PCOD9329113
_publ_section_title
;
Structure prediction by ZEFSAII (Michael W. Deem and Ramdas Pophale) SiO2 
 PCOD9329113
Probable space group: F 2 2 2
;
_chemical_formula_sum "Si O2"
_cell_formula_units_Z 52
_cell_length_a 8.280387
_cell_length_b 16.670608
_cell_length_c 16.373629
_cell_angle_alpha 90.000000
_cell_angle_beta 90.000000
_cell_angle_gamma 90.000000
_cell_volume 2260.200778
_symmetry_space_group_name_H-M "F 2 2 2"
_symmetry_group_IT_number 22
_symmetry_cell_setting 'orthorhombic'
loop_
_space_group_symop_operation_xyz
x,y,z
-x,-y,z
x,-y,-z
-x,y,-z
x,1/2+y,1/2+z
-x,1/2-y,1/2+z
x,1/2-y,1/2-z
-x,1/2+y,1/2-z
1/2+x,y,1/2+z
1/2-x,-y,1/2+z
1/2+x,-y,1/2-z
1/2-x,y,1/2-z
1/2+x,1/2+y,z
1/2-x,1/2-y,z
1/2+x,1/2-y,-z
1/2-x,1/2+y,-z
loop_
_atom_site_type_symbol
_atom_site_label
_atom_site_fract_x
_atom_site_fract_y
_atom_site_fract_z
Si Si1 0.618831 0.870371 0.874762
Si Si2 0.000000 0.500000 0.000000
Si Si3 0.475271 0.806420 0.406230
Si Si4 0.422888 0.077669 0.284805
O O1 0.523790 0.789368 0.899670
O O2 0.803700 0.840731 0.873944
O O3 0.541709 0.898565 0.789530
O O4 0.599323 0.941048 0.940524
O O5 0.500000 0.828770 0.500000
O O6 0.600450 0.849385 0.346918
O O7 0.250000 0.054844 0.250000
O O8 0.500000 0.000000 0.327441
#
# Coordination Sequence:
#
# PCOD9329113 Si02
#       4
#    16   4  16  16
#     4  11  25  46  73 105 145 186 239 295 360 422
#     4  12  24  44  78 104 136 188 238 296 340 424
#     4  11  26  45  72 107 145 186 236 296 360 428
#     4  12  27  45  71 103 144 192 243 298 360 427
#
# _framework density 23.006806000000001
#
# number of rings (size 3 to 8) (size 9 to 14) (size 15 to 20)
#    0.000    0.615    3.077    3.692    4.308    5.538 
#    0.000    0.000    0.000    0.000    0.000    0.000 
#    0.000    0.000    0.000    0.000    0.000    0.000 
#
# Total GULP energy -72789.179374 kJ/mol
# GULP energy per Si atom -5599.167644 kJ/mol
# Density = 2.295444 g / cm^3
# Si number density = 23.006806 Si / 1000 Ang^3
#
#
#
# Elastic Constant Matrix: (Units=GPa)
#
#
# Indices 1 2 3 4 5 6 
#
# 1 57.0351 24.2941 4.3603 0.0000 0.0000 0.0000
# 2 24.2941 147.9174 38.3512 0.0000 0.0000 0.0000
# 3 4.3603 38.3512 112.1125 0.0000 0.0000 0.0000
# 4 0.0000 0.0000 0.0000 46.7740 0.0000 0.0000
# 5 0.0000 0.0000 0.0000 0.0000 25.5455 0.0000
# 6 0.0000 0.0000 0.0000 0.0000 0.0000 35.0545
#
#
#
# Elastic Compliance Matrix: (Units=1/GPa)
#
#
# Indices 1 2 3 4 5 6 
#
# 1 0.018865 -0.003191 0.000358 0.000000 0.000000 0.000000
# 2 -0.003191 0.007958 -0.002598 0.000000 0.000000 0.000000
# 3 0.000358 -0.002598 0.009794 0.000000 0.000000 0.000000
# 4 0.000000 0.000000 0.000000 0.021379 0.000000 0.000000
# 5 0.000000 0.000000 0.000000 0.000000 0.039146 0.000000
# 6 0.000000 0.000000 0.000000 0.000000 0.000000 0.028527
#
#
# Mechanical properties :
#
#
# Convention : Reuss Voigt Hill
#
# Bulk Modulus (GPa) = 38.82774 50.11958 44.47366
# Shear Modulus (GPa) = 34.45472 38.14543 36.30008
#
# Velocity S-wave (km/s) = 3.87407 4.07628 3.97646
# Velocity P-wave (km/s) = 6.07655 6.63225 6.36047
#
# Compressibility (1/GPa) = 0.02575478
#
# Stress axis : x y z
#
# Youngs Moduli (GPa) = 53.00819 125.65464 102.09816
#
# Poissons Ratio (x) = 0.40099 -0.03655
# Poissons Ratio (y) = 0.16916 0.26528
# Poissons Ratio (z) = -0.01897 0.32648
#
# Static dielectric constant tensor:
#      x y z
#    x 1.895930 0.000000 0.000000 
#    y 0.000000 1.857040 0.000000 
#    z 0.000000 0.000000 1.827800 
# 
# From -- ./inp_files/10852.got.cif
#   From: 2010.05.17/outbox.cif.g08.bks.cpg/sg22_6_cif.got.tgz:10852.got - 2010.06.03 23:40:54.
