data_PCOD9329521
_publ_section_title
;
Structure prediction by ZEFSAII (Michael W. Deem and Ramdas Pophale) SiO2 
 PCOD9329521
Probable space group: I 2 2 2
;
_chemical_formula_sum "Si O2"
_cell_formula_units_Z 48
_cell_length_a 8.651636
_cell_length_b 17.305719
_cell_length_c 11.905498
_cell_angle_alpha 90.000000
_cell_angle_beta 90.000000
_cell_angle_gamma 90.000000
_cell_volume 1782.524276
_symmetry_space_group_name_H-M "I 2 2 2"
_symmetry_group_IT_number 23
_symmetry_cell_setting 'orthorhombic'
loop_
_space_group_symop_operation_xyz
x,y,z
-x,-y,z
x,-y,-z
-x,y,-z
1/2+x,1/2+y,1/2+z
1/2-x,1/2-y,1/2+z
1/2+x,1/2-y,1/2-z
1/2-x,1/2+y,1/2-z
loop_
_atom_site_type_symbol
_atom_site_label
_atom_site_fract_x
_atom_site_fract_y
_atom_site_fract_z
Si Si1 0.939397 0.672067 0.686112
Si Si2 0.676114 0.988908 0.155402
Si Si3 0.677417 0.191880 0.567068
Si Si4 0.200012 0.858710 0.115099
Si Si5 0.777057 0.560202 0.095694
Si Si6 0.517502 0.659545 0.161137
O O1 0.820898 0.604272 0.649226
O O2 0.920837 0.678223 0.819569
O O3 0.907584 0.756390 0.634980
O O4 0.121371 0.656211 0.659427
O O5 0.785450 0.049973 0.091462
O O6 0.681799 0.019461 0.285837
O O7 0.500000 0.000000 0.118208
O O8 0.671364 0.283280 0.540515
O O9 0.652664 0.138411 0.458972
O O10 0.845454 0.168078 0.618117
O O11 0.066125 0.852034 0.209350
O O12 0.600383 0.586460 0.107567
O O13 0.808673 0.500000 0.000000
#
# Coordination Sequence:
#
# PCOD9329521 Si02
#       6
#     8   8   8   8   8   8
#     4   9  16  32  50  66  87 128 171 201 235 286
#     4   9  17  32  50  72  96 126 165 207 242 287
#     4  10  18  30  46  66  97 129 159 195 247 299
#     4   8  17  32  48  65  90 127 167 201 235 286
#     4  11  20  31  44  75 104 131 154 200 256 304
#     4   9  19  31  45  65  98 130 159 195 244 300
#
# _framework density 26.928104000000001
#
# number of rings (size 3 to 8) (size 9 to 14) (size 15 to 20)
#    0.000    2.667    1.667    0.500    0.000    1.667 
#    3.000    0.000    0.000    1.000    0.000    5.833 
#    0.000    0.000    0.000   28.500    0.000   20.333 
#
# Total GULP energy -133866.414191 kJ/mol
# GULP energy per Si atom -5577.767258 kJ/mol
# Density = 2.686681 g / cm^3
# Si number density = 26.928104 Si / 1000 Ang^3
#
#
#
# Elastic Constant Matrix: (Units=GPa)
#
#
# Indices 1 2 3 4 5 6 
#
# 1 101.5602 34.9616 39.2497 0.0000 0.0000 0.0000
# 2 34.9616 179.7294 48.3513 0.0000 0.0000 0.0000
# 3 39.2497 48.3513 104.8952 -0.0001 0.0000 0.0000
# 4 0.0000 0.0000 -0.0001 19.7597 0.0000 0.0000
# 5 0.0000 0.0000 0.0000 0.0000 14.7899 0.0000
# 6 0.0000 0.0000 0.0000 0.0000 0.0000 -7.4867
#
#
#
# Elastic Compliance Matrix: (Units=1/GPa)
#
#
# Indices 1 2 3 4 5 6 
#
# 1 0.011756 -0.001260 -0.003818 0.000000 0.000000 0.000000
# 2 -0.001260 0.006487 -0.002519 0.000000 0.000000 0.000000
# 3 -0.003818 -0.002519 0.012123 0.000000 0.000000 0.000000
# 4 0.000000 0.000000 0.000000 0.050608 0.000000 0.000000
# 5 0.000000 0.000000 0.000000 0.000000 0.067614 0.000000
# 6 0.000000 0.000000 0.000000 0.000000 0.000000 -0.133570
#
#
# Mechanical properties :
#
#
# Convention : Reuss Voigt Hill
#
# Bulk Modulus (GPa) = 65.90924 70.14556 68.02740
# Shear Modulus (GPa) = 141.77838 22.98741 82.38289
#
# Velocity S-wave (km/s) = 7.26395 2.92491 5.53715
# Velocity P-wave (km/s) = 9.74076 6.12475 8.13619
#
# Compressibility (1/GPa) = 0.01517238
#
# Stress axis : x y z
#
# Youngs Moduli (GPa) = 85.06621 154.16616 82.48825
#
# Poissons Ratio (x) = 0.19418 0.31495
# Poissons Ratio (y) = 0.10715 0.20776
# Poissons Ratio (z) = 0.32479 0.38829
#
# Static dielectric constant tensor:
#      x y z
#    x 2.133330 0.000000 0.000000 
#    y 0.000000 2.151260 0.000000 
#    z 0.000000 0.000000 2.135610 
# 
# From -- ./inp_files/17451.got.cif
#   From: 2010.05.17/outbox.cif.g08.bks.cpg/sg23_9_cif.got.tgz:17451.got - 2010.06.04 12:02:01.
