data_PCOD9329775
_publ_section_title
;
Structure prediction by ZEFSAII (Michael W. Deem and Ramdas Pophale) SiO2 
 PCOD9329775
Probable space group: I 2 2 2
;
_chemical_formula_sum "Si O2"
_cell_formula_units_Z 44
_cell_length_a 5.217202
_cell_length_b 24.362748
_cell_length_c 18.440747
_cell_angle_alpha 90.000000
_cell_angle_beta 90.000000
_cell_angle_gamma 90.000000
_cell_volume 2343.918110
_symmetry_space_group_name_H-M "I 2 2 2"
_symmetry_group_IT_number 23
_symmetry_cell_setting 'orthorhombic'
loop_
_space_group_symop_operation_xyz
x,y,z
-x,-y,z
x,-y,-z
-x,y,-z
1/2+x,1/2+y,1/2+z
1/2-x,1/2-y,1/2+z
1/2+x,1/2-y,1/2-z
1/2-x,1/2+y,1/2-z
loop_
_atom_site_type_symbol
_atom_site_label
_atom_site_fract_x
_atom_site_fract_y
_atom_site_fract_z
Si Si1 0.000000 0.500000 0.308275
Si Si2 0.749503 0.423934 0.954962
Si Si3 0.750525 0.264757 0.297284
Si Si4 0.667851 0.110864 0.780597
Si Si5 0.814996 0.928760 0.708525
Si Si6 0.748851 0.208432 0.453698
O O1 0.896230 0.440469 0.335769
O O2 0.767050 0.520293 0.258276
O O3 0.721136 0.445778 0.874027
O O4 0.754321 0.357652 0.946551
O O5 0.500000 0.438259 0.000000
O O6 0.000000 0.439433 0.000000
O O7 0.491101 0.254015 0.251970
O O8 0.779891 0.329840 0.312860
O O9 0.749266 0.233681 0.373806
O O10 0.413303 0.113483 0.730458
O O11 0.911307 0.095232 0.730570
O O12 0.500000 0.224824 0.500000
O O13 0.000000 0.223485 0.500000
#
# Coordination Sequence:
#
# PCOD9329775 Si02
#       6
#     4   8   8   8   8   8
#     4   8  22  34  59  72 107 144 176 234 298 326
#     4  10  19  31  49  70  99 146 185 217 264 328
#     4  12  23  36  59  93 118 149 196 248 286 340
#     4  10  20  35  56  77 108 136 179 229 291 329
#     4  10  19  35  54  75 102 140 181 231 284 325
#     4  10  21  36  53  79 120 158 186 222 291 358
#
# _framework density 18.771988
#
# number of rings (size 3 to 8) (size 9 to 14) (size 15 to 20)
#    1.091    0.727    0.000    6.000    0.000    2.909 
#    0.000    0.455    0.000    0.000    0.000    0.636 
#    0.000    0.000    0.000    0.000    0.000    0.000 
#
# Total GULP energy -122578.329196 kJ/mol
# GULP energy per Si atom -5571.742236 kJ/mol
# Density = 1.872926 g / cm^3
# Si number density = 18.771988 Si / 1000 Ang^3
#
#
#
# Elastic Constant Matrix: (Units=GPa)
#
#
# Indices 1 2 3 4 5 6 
#
# 1 149.6140 20.2198 36.8555 0.0000 0.0000 0.0000
# 2 20.2198 116.9470 26.4306 0.0000 0.0000 0.0000
# 3 36.8555 26.4306 73.4735 0.0000 0.0000 0.0000
# 4 0.0000 0.0000 0.0000 -49.2062 0.0000 0.0000
# 5 0.0000 0.0000 0.0000 0.0000 18.2782 0.0000
# 6 0.0000 0.0000 0.0000 0.0000 0.0000 15.9796
#
#
#
# Elastic Compliance Matrix: (Units=1/GPa)
#
#
# Indices 1 2 3 4 5 6 
#
# 1 0.007653 -0.000496 -0.003660 0.000000 0.000000 0.000000
# 2 -0.000496 0.009340 -0.003111 0.000000 0.000000 0.000000
# 3 -0.003660 -0.003111 0.016566 0.000000 0.000000 0.000000
# 4 0.000000 0.000000 0.000000 -0.020323 0.000000 0.000000
# 5 0.000000 0.000000 0.000000 0.000000 0.054710 0.000000
# 6 0.000000 0.000000 0.000000 0.000000 0.000000 0.062580
#
#
# Mechanical properties :
#
#
# Convention : Reuss Voigt Hill
#
# Bulk Modulus (GPa) = 52.56666 56.33847 54.45257
# Shear Modulus (GPa) = 33.02503 14.11224 23.56863
#
# Velocity S-wave (km/s) = 4.19892 2.74482 3.54718
# Velocity P-wave (km/s) = 7.18132 6.33423 6.77104
#
# Compressibility (1/GPa) = 0.01902346
#
# Stress axis : x y z
#
# Youngs Moduli (GPa) = 130.67558 107.06949 60.36629
#
# Poissons Ratio (x) = 0.05309 0.22096
# Poissons Ratio (y) = 0.06480 0.18780
# Poissons Ratio (z) = 0.47831 0.33310
#
# Static dielectric constant tensor:
#      x y z
#    x 1.671890 0.000000 0.000000 
#    y 0.000000 1.741920 0.000000 
#    z 0.000000 0.000000 1.597980 
# 
# From -- ./inp_files/19185.got.cif
#   From: 2010.05.17/outbox.cif.g08.bks.cpg/sg23_10_cif.got.tgz:19185.got - 2010.06.04 12:02:01.
