data_PCOD9329764
_publ_section_title
;
Structure prediction by ZEFSAII (Michael W. Deem and Ramdas Pophale) SiO2 
 PCOD9329764
Probable space group: I 2 2 2
;
_chemical_formula_sum "Si O2"
_cell_formula_units_Z 56
_cell_length_a 22.256970
_cell_length_b 21.084867
_cell_length_c 5.428806
_cell_angle_alpha 90.000000
_cell_angle_beta 90.000000
_cell_angle_gamma 90.000000
_cell_volume 2547.658593
_symmetry_space_group_name_H-M "I 2 2 2"
_symmetry_group_IT_number 23
_symmetry_cell_setting 'orthorhombic'
loop_
_space_group_symop_operation_xyz
x,y,z
-x,-y,z
x,-y,-z
-x,y,-z
1/2+x,1/2+y,1/2+z
1/2-x,1/2-y,1/2+z
1/2+x,1/2-y,1/2-z
1/2-x,1/2+y,1/2-z
loop_
_atom_site_type_symbol
_atom_site_label
_atom_site_fract_x
_atom_site_fract_y
_atom_site_fract_z
Si Si1 0.830985 0.231003 0.872086
Si Si2 0.861264 0.577037 0.006599
Si Si3 0.840745 0.086248 0.869976
Si Si4 0.190880 0.252925 0.629332
Si Si5 0.723655 0.397217 0.876049
Si Si6 0.569507 0.922795 0.999216
Si Si7 0.474865 0.429277 0.745305
O O1 0.857367 0.161402 0.877351
O O2 0.842973 0.266895 0.620747
O O3 0.757923 0.218863 0.872045
O O4 0.842585 0.268246 0.120627
O O5 0.794935 0.600257 0.088850
O O6 0.903214 0.595486 0.235415
O O7 0.856866 0.500000 0.000000
O O8 0.889797 0.595214 0.739263
O O9 0.800411 0.074232 0.631077
O O10 0.904787 0.058400 0.800823
O O11 0.805840 0.073096 0.127077
O O12 0.202113 0.176553 0.629850
O O13 0.500000 0.901466 0.000000
O O14 0.568819 0.000000 0.000000
O O15 0.500000 0.500000 0.750854
O O16 0.500000 0.395850 0.500000
O O17 0.500000 0.399311 0.000000
#
# Coordination Sequence:
#
# PCOD9329764 Si02
#       7
#     8   8   8   8   8   8   8
#     4   8  14  25  44  68  90 116 144 190 229 290
#     4  10  19  31  43  67 100 123 157 195 230 285
#     4  10  19  33  51  70  94 123 165 203 255 312
#     4   8  14  25  42  66  97 119 145 176 232 296
#     4  10  19  31  47  73 102 131 152 193 258 314
#     4   9  17  30  49  65  85 121 165 200 221 248
#     4  10  21  38  53  68  91 123 175 230 256 292
#
# _framework density 21.980967
#
# number of rings (size 3 to 8) (size 9 to 14) (size 15 to 20)
#    0.000    2.714    0.000    2.143    0.000    1.714 
#    7.714    0.000    0.000    0.000    0.000    3.000 
#    0.000    0.000    0.000    0.000    0.000    0.000 
#
# Total GULP energy -156086.572926 kJ/mol
# GULP energy per Si atom -5574.520462 kJ/mol
# Density = 2.193094 g / cm^3
# Si number density = 21.980967 Si / 1000 Ang^3
#
#
#
# Elastic Constant Matrix: (Units=GPa)
#
#
# Indices 1 2 3 4 5 6 
#
# 1 137.0738 10.1351 70.8562 0.0000 0.0000 0.0000
# 2 10.1351 46.7655 12.1122 0.0000 0.0000 0.0000
# 3 70.8562 12.1122 253.9935 0.0000 0.0000 0.0000
# 4 0.0000 0.0000 0.0000 6.4064 0.0000 0.0000
# 5 0.0000 0.0000 0.0000 0.0000 30.6729 0.0000
# 6 0.0000 0.0000 0.0000 0.0000 0.0000 -56.5379
#
#
#
# Elastic Compliance Matrix: (Units=1/GPa)
#
#
# Indices 1 2 3 4 5 6 
#
# 1 0.008597 -0.001258 -0.002338 0.000000 0.000000 0.000000
# 2 -0.001258 0.021835 -0.000690 0.000000 0.000000 0.000000
# 3 -0.002338 -0.000690 0.004622 0.000000 0.000000 0.000000
# 4 0.000000 0.000000 0.000000 0.156093 0.000000 0.000000
# 5 0.000000 0.000000 0.000000 0.000000 0.032602 0.000000
# 6 0.000000 0.000000 0.000000 0.000000 0.000000 -0.017687
#
#
# Mechanical properties :
#
#
# Convention : Reuss Voigt Hill
#
# Bulk Modulus (GPa) = 37.76228 69.33775 53.55002
# Shear Modulus (GPa) = 22.37516 19.09023 20.73270
#
# Velocity S-wave (km/s) = 3.19397 2.95021 3.07451
# Velocity P-wave (km/s) = 5.55146 6.57403 6.08427
#
# Compressibility (1/GPa) = 0.02648145
#
# Stress axis : x y z
#
# Youngs Moduli (GPa) = 116.31886 45.79880 216.33991
#
# Poissons Ratio (x) = 0.05759 0.50588
# Poissons Ratio (y) = 0.14628 0.14936
# Poissons Ratio (z) = 0.27199 0.03162
#
# Static dielectric constant tensor:
#      x y z
#    x 1.802360 0.000000 0.000000 
#    y 0.000000 1.866500 0.000000 
#    z 0.000000 0.000000 1.916150 
# 
# From -- ./inp_files/2732.got.cif
#   From: 2010.05.17/outbox.cif.g08.bks.cpg/sg23_2_cif.got.tgz:2732.got - 2010.06.04 12:02:01.
