data_PCOD9329507
_publ_section_title
;
Structure prediction by ZEFSAII (Michael W. Deem and Ramdas Pophale) SiO2 
 PCOD9329507
Probable space group: I 2 2 2
;
_chemical_formula_sum "Si O2"
_cell_formula_units_Z 56
_cell_length_a 19.790047
_cell_length_b 8.015483
_cell_length_c 19.529126
_cell_angle_alpha 90.000000
_cell_angle_beta 90.000000
_cell_angle_gamma 90.000000
_cell_volume 3097.842477
_symmetry_space_group_name_H-M "I 2 2 2"
_symmetry_group_IT_number 23
_symmetry_cell_setting 'orthorhombic'
loop_
_space_group_symop_operation_xyz
x,y,z
-x,-y,z
x,-y,-z
-x,y,-z
1/2+x,1/2+y,1/2+z
1/2-x,1/2-y,1/2+z
1/2+x,1/2-y,1/2-z
1/2-x,1/2+y,1/2-z
loop_
_atom_site_type_symbol
_atom_site_label
_atom_site_fract_x
_atom_site_fract_y
_atom_site_fract_z
Si Si1 0.284743 0.911572 0.572306
Si Si2 0.739078 0.153066 0.305335
Si Si3 0.341337 0.928391 0.791555
Si Si4 0.976716 0.806277 0.072987
Si Si5 0.406743 0.217887 0.336396
Si Si6 0.792012 0.565595 0.425606
Si Si7 0.653869 0.577314 0.636440
O O1 0.355398 0.849632 0.605250
O O2 0.231645 0.758173 0.570918
O O3 0.293556 0.000000 0.500000
O O4 0.259748 0.047615 0.626080
O O5 0.809225 0.246298 0.299770
O O6 0.679471 0.289726 0.308748
O O7 0.718411 0.035527 0.243648
O O8 0.396560 0.892710 0.732199
O O9 0.345831 0.015108 0.866052
O O10 0.897585 0.823483 0.086919
O O11 0.017930 0.719083 0.133692
O O12 0.000000 0.000000 0.072743
O O13 0.000000 0.735370 0.000000
O O14 0.382104 0.412979 0.332234
O O15 0.813012 0.500000 0.500000
O O16 0.721352 0.474470 0.404528
#
# Coordination Sequence:
#
# PCOD9329507 Si02
#       7
#     8   8   8   8   8   8   8
#     4  10  19  29  44  66  95 124 167 212 252 305
#     4  10  18  29  46  65  90 124 162 207 248 301
#     4  10  18  32  46  66  92 126 165 210 256 303
#     4   9  18  29  47  70  98 138 179 213 237 289
#     4   9  19  31  47  66  95 133 176 209 247 290
#     4  10  20  31  50  69  93 129 167 211 262 307
#     4   9  18  30  48  69  95 131 175 206 248 294
#
# _framework density 18.077097999999999
#
# number of rings (size 3 to 8) (size 9 to 14) (size 15 to 20)
#    0.000    2.429    0.000    5.143    8.000    0.000 
#    0.000    2.857    0.000    0.000    0.000    0.000 
#    0.000    2.286    0.000    8.000    0.000    5.429 
#
# Total GULP energy -155977.841993 kJ/mol
# GULP energy per Si atom -5570.637214 kJ/mol
# Density = 1.803595 g / cm^3
# Si number density = 18.077098 Si / 1000 Ang^3
#
#
#
# Elastic Constant Matrix: (Units=GPa)
#
#
# Indices 1 2 3 4 5 6 
#
# 1 30.6850 10.8797 19.5200 0.0000 0.0000 0.0000
# 2 10.8797 75.0251 36.7422 0.0000 0.0000 0.0000
# 3 19.5200 36.7422 124.6884 0.0000 0.0000 0.0000
# 4 0.0000 0.0000 0.0000 23.1599 0.0000 0.0000
# 5 0.0000 0.0000 0.0000 0.0000 8.5178 0.0000
# 6 0.0000 0.0000 0.0000 0.0000 0.0000 10.0864
#
#
#
# Elastic Compliance Matrix: (Units=1/GPa)
#
#
# Indices 1 2 3 4 5 6 
#
# 1 0.036738 -0.002934 -0.004887 0.000000 0.000000 0.000000
# 2 -0.002934 0.015811 -0.004200 0.000000 0.000000 0.000000
# 3 -0.004887 -0.004200 0.010023 0.000000 0.000000 0.000000
# 4 0.000000 0.000000 0.000000 0.043178 0.000000 0.000000
# 5 0.000000 0.000000 0.000000 0.000000 0.117401 0.000000
# 6 0.000000 0.000000 0.000000 0.000000 0.000000 0.099143
#
#
# Mechanical properties :
#
#
# Convention : Reuss Voigt Hill
#
# Bulk Modulus (GPa) = 25.95359 40.52026 33.23692
# Shear Modulus (GPa) = 13.92063 19.23660 16.57862
#
# Velocity S-wave (km/s) = 2.77802 3.26566 3.03166
# Velocity P-wave (km/s) = 4.96772 6.05667 5.53902
#
# Compressibility (1/GPa) = 0.03853032
#
# Stress axis : x y z
#
# Youngs Moduli (GPa) = 27.21955 63.24651 99.77504
#
# Poissons Ratio (x) = 0.18559 0.48757
# Poissons Ratio (y) = 0.07987 0.41903
# Poissons Ratio (z) = 0.13301 0.26562
#
# Static dielectric constant tensor:
#      x y z
#    x 1.635070 0.000000 0.000000 
#    y 0.000000 1.702170 0.000000 
#    z 0.000000 0.000000 1.670510 
# 
# From -- ./inp_files/25372.got.cif
#   From: 2010.05.17/outbox.cif.g08.bks.cpg/sg23_13_cif.got.tgz:25372.got - 2010.06.04 12:02:01.
