data_PCOD9329940
_publ_section_title
;
Structure prediction by ZEFSAII (Michael W. Deem and Ramdas Pophale) SiO2 
 PCOD9329940
Probable space group: I 2 2 2
;
_chemical_formula_sum "Si O2"
_cell_formula_units_Z 44
_cell_length_a 5.704562
_cell_length_b 29.103716
_cell_length_c 11.758253
_cell_angle_alpha 90.000000
_cell_angle_beta 90.000000
_cell_angle_gamma 90.000000
_cell_volume 1952.151636
_symmetry_space_group_name_H-M "I 2 2 2"
_symmetry_group_IT_number 23
_symmetry_cell_setting 'orthorhombic'
loop_
_space_group_symop_operation_xyz
x,y,z
-x,-y,z
x,-y,-z
-x,y,-z
1/2+x,1/2+y,1/2+z
1/2-x,1/2-y,1/2+z
1/2+x,1/2-y,1/2-z
1/2-x,1/2+y,1/2-z
loop_
_atom_site_type_symbol
_atom_site_label
_atom_site_fract_x
_atom_site_fract_y
_atom_site_fract_z
Si Si1 0.494061 0.583403 0.247457
Si Si2 0.000000 0.618569 0.500000
Si Si3 0.326510 0.680682 0.810674
Si Si4 0.000000 0.888247 0.000000
Si Si5 0.374321 0.232815 0.881601
Si Si6 0.005813 0.552918 0.722138
Si Si7 0.000000 0.292529 0.000000
O O1 0.515591 0.636710 0.212491
O O2 0.497915 0.581742 0.385735
O O3 0.745732 0.561565 0.213657
O O4 0.240597 0.563536 0.213577
O O5 0.259833 0.640293 0.495303
O O6 0.007261 0.586597 0.612846
O O7 0.473097 0.727253 0.823381
O O8 0.157896 0.690594 0.703631
O O9 0.178558 0.677412 0.926296
O O10 0.500000 0.221924 0.000000
O O11 0.135594 0.258498 0.915517
O O12 0.000000 0.500000 0.685901
#
# Coordination Sequence:
#
# PCOD9329940 Si02
#       7
#     8   4   8   4   8   8   4
#     4  10  22  34  57  86 123 164 212 265 315 383
#     4   8  15  28  50  70 108 160 200 240 292 372
#     4  11  22  40  63  90 129 165 221 266 322 388
#     4   8  16  33  43  80 115 152 202 247 302 356
#     4  10  22  40  63  90 123 171 212 266 327 388
#     4  10  19  35  54  82 120 163 210 259 321 385
#     4  10  22  41  62  88 122 168 217 257 324 392
#
# _framework density 22.539231000000001
#
# number of rings (size 3 to 8) (size 9 to 14) (size 15 to 20)
#    0.000    2.182    1.818    0.818    2.545    0.727 
#    9.818    5.455    0.000    0.000    0.000    0.636 
#    0.000    0.000    0.000    0.000    0.000    0.182 
#
# Total GULP energy -122765.836352 kJ/mol
# GULP energy per Si atom -5580.265289 kJ/mol
# Density = 2.248793 g / cm^3
# Si number density = 22.539231 Si / 1000 Ang^3
#
#
#
# Elastic Constant Matrix: (Units=GPa)
#
#
# Indices 1 2 3 4 5 6 
#
# 1 193.5608 32.8364 14.5976 0.0000 0.0000 0.0000
# 2 32.8364 80.0361 17.7912 0.0000 0.0000 0.0000
# 3 14.5976 17.7912 57.2276 0.0000 0.0000 0.0000
# 4 0.0000 0.0000 0.0000 -8.8089 0.0000 0.0000
# 5 0.0000 0.0000 0.0000 0.0000 2.9258 0.0000
# 6 0.0000 0.0000 0.0000 0.0000 0.0000 32.5996
#
#
#
# Elastic Compliance Matrix: (Units=1/GPa)
#
#
# Indices 1 2 3 4 5 6 
#
# 1 0.005584 -0.002121 -0.000765 0.000000 0.000000 0.000000
# 2 -0.002121 0.014227 -0.003882 0.000000 0.000000 0.000000
# 3 -0.000765 -0.003882 0.018876 0.000000 0.000000 0.000000
# 4 0.000000 0.000000 0.000000 -0.113522 0.000000 0.000000
# 5 0.000000 0.000000 0.000000 0.000000 0.341786 0.000000
# 6 0.000000 0.000000 0.000000 0.000000 0.000000 0.030675
#
#
# Mechanical properties :
#
#
# Convention : Reuss Voigt Hill
#
# Bulk Modulus (GPa) = 39.75905 51.25276 45.50591
# Shear Modulus (GPa) = 15.64721 23.04992 19.34856
#
# Velocity S-wave (km/s) = 2.63767 3.20137 2.93309
# Velocity P-wave (km/s) = 5.19178 6.03770 5.63065
#
# Compressibility (1/GPa) = 0.02515151
#
# Stress axis : x y z
#
# Youngs Moduli (GPa) = 179.08907 70.28679 52.97707
#
# Poissons Ratio (x) = 0.14907 0.04053
# Poissons Ratio (y) = 0.37982 0.20566
# Poissons Ratio (z) = 0.13700 0.27286
#
# Static dielectric constant tensor:
#      x y z
#    x 1.955920 0.000000 0.000000 
#    y 0.000000 1.814440 0.000000 
#    z 0.000000 0.000000 1.911750 
# 
# From -- ./inp_files/19193.got.cif
#   From: 2010.05.17/outbox.cif.g08.bks.cpg/sg23_10_cif.got.tgz:19193.got - 2010.06.04 12:02:01.
