data_PCOD9329469
_publ_section_title
;
Structure prediction by ZEFSAII (Michael W. Deem and Ramdas Pophale) SiO2 
 PCOD9329469
Probable space group: I 2 2 2
;
_chemical_formula_sum "Si O2"
_cell_formula_units_Z 44
_cell_length_a 12.655552
_cell_length_b 23.157612
_cell_length_c 8.663570
_cell_angle_alpha 90.000000
_cell_angle_beta 90.000000
_cell_angle_gamma 90.000000
_cell_volume 2539.052931
_symmetry_space_group_name_H-M "I 2 2 2"
_symmetry_group_IT_number 23
_symmetry_cell_setting 'orthorhombic'
loop_
_space_group_symop_operation_xyz
x,y,z
-x,-y,z
x,-y,-z
-x,y,-z
1/2+x,1/2+y,1/2+z
1/2-x,1/2-y,1/2+z
1/2+x,1/2-y,1/2-z
1/2-x,1/2+y,1/2-z
loop_
_atom_site_type_symbol
_atom_site_label
_atom_site_fract_x
_atom_site_fract_y
_atom_site_fract_z
Si Si1 0.000000 0.500000 0.000000
Si Si2 0.956352 0.321970 0.676304
Si Si3 0.897659 0.579779 0.754317
Si Si4 0.714830 0.671717 0.710044
Si Si5 0.008089 0.191101 0.685139
Si Si6 0.277797 0.294249 0.352339
Si Si7 0.000000 0.500000 0.500000
O O1 0.920759 0.461992 0.103805
O O2 0.831289 0.326058 0.688321
O O3 0.000000 0.326841 0.500000
O O4 0.013876 0.370856 0.769301
O O5 0.987383 0.258061 0.728159
O O6 0.790297 0.616391 0.733153
O O7 0.927048 0.541155 0.605093
O O8 0.593711 0.657788 0.751754
O O9 0.712963 0.695598 0.535142
O O10 0.758028 0.726340 0.811445
O O11 0.122747 0.180526 0.758283
O O12 0.000000 0.187086 0.500000
#
# Coordination Sequence:
#
# PCOD9329469 Si02
#       7
#     2   8   8   8   8   8   2
#     4  10  28  34  56  82 114 134 224 242 312 322
#     4  10  17  33  56  78 117 151 184 226 288 341
#     4  11  20  40  53  87 107 156 183 262 282 344
#     4  11  21  33  57  76 124 149 190 229 293 347
#     4  10  21  34  50  86 121 157 192 218 275 380
#     4  11  19  33  53  89 116 162 183 221 285 377
#     4  10  20  34  64  74 110 142 216 230 306 328
#
# _framework density 17.329294999999998
#
# number of rings (size 3 to 8) (size 9 to 14) (size 15 to 20)
#    0.000    1.455    4.545    2.727    0.000    4.364 
#    0.000    0.000    0.000    0.000    0.000   31.182 
#    0.000    0.000    0.000    0.000    0.000    0.000 
#
# Total GULP energy -122642.404350 kJ/mol
# GULP energy per Si atom -5574.654743 kJ/mol
# Density = 1.728985 g / cm^3
# Si number density = 17.329295 Si / 1000 Ang^3
#
#
#
# Elastic Constant Matrix: (Units=GPa)
#
#
# Indices 1 2 3 4 5 6 
#
# 1 183.1468 52.0354 53.8868 0.0000 0.0001 0.0000
# 2 52.0354 75.0524 42.0435 0.0002 -0.0001 0.0000
# 3 53.8868 42.0435 82.1887 0.0003 -0.0008 -0.0005
# 4 0.0000 0.0002 0.0003 9.0394 -0.0003 0.0001
# 5 0.0001 -0.0001 -0.0008 -0.0003 22.8578 0.0001
# 6 0.0000 0.0000 -0.0005 0.0001 0.0001 17.3951
#
#
#
# Elastic Compliance Matrix: (Units=1/GPa)
#
#
# Indices 1 2 3 4 5 6 
#
# 1 0.007319 -0.003345 -0.003088 0.000000 0.000000 0.000000
# 2 -0.003345 0.020204 -0.008143 0.000000 0.000000 0.000000
# 3 -0.003088 -0.008143 0.018357 0.000000 0.000001 0.000001
# 4 0.000000 0.000000 0.000000 0.110627 0.000002 0.000000
# 5 0.000000 0.000000 0.000001 0.000002 0.043749 0.000000
# 6 0.000000 0.000000 0.000001 0.000000 0.000000 0.057487
#
#
# Mechanical properties :
#
#
# Convention : Reuss Voigt Hill
#
# Bulk Modulus (GPa) = 59.77183 70.70215 65.23699
# Shear Modulus (GPa) = 17.09577 22.68660 19.89118
#
# Velocity S-wave (km/s) = 3.14431 3.62214 3.39165
# Velocity P-wave (km/s) = 6.91006 7.64074 7.28457
#
# Compressibility (1/GPa) = 0.01673029
#
# Stress axis : x y z
#
# Youngs Moduli (GPa) = 136.63362 49.49431 54.47560
#
# Poissons Ratio (x) = 0.16554 0.16820
# Poissons Ratio (y) = 0.45699 0.44357
# Poissons Ratio (z) = 0.42187 0.40301
#
# Static dielectric constant tensor:
#      x y z
#    x 1.617660 0.000000 0.000000 
#    y 0.000000 1.578840 0.000000 
#    z 0.000000 0.000000 1.698430 
# 
# From -- ./inp_files/8630.got.cif
#   From: 2010.05.17/outbox.cif.g08.bks.cpg/sg23_5_cif.got.tgz:8630.got - 2010.06.04 12:02:01.
