data_PCOD9329062
_publ_section_title
;
Structure prediction by ZEFSAII (Michael W. Deem and Ramdas Pophale) SiO2 
 PCOD9329062
Probable space group: F 2 2 2
;
_chemical_formula_sum "Si O2"
_cell_formula_units_Z 52
_cell_length_a 17.211638
_cell_length_b 9.919460
_cell_length_c 12.592543
_cell_angle_alpha 90.000000
_cell_angle_beta 90.000000
_cell_angle_gamma 90.000000
_cell_volume 2149.926814
_symmetry_space_group_name_H-M "F 2 2 2"
_symmetry_group_IT_number 22
_symmetry_cell_setting 'orthorhombic'
loop_
_space_group_symop_operation_xyz
x,y,z
-x,-y,z
x,-y,-z
-x,y,-z
x,1/2+y,1/2+z
-x,1/2-y,1/2+z
x,1/2-y,1/2-z
-x,1/2+y,1/2-z
1/2+x,y,1/2+z
1/2-x,-y,1/2+z
1/2+x,-y,1/2-z
1/2-x,y,1/2-z
1/2+x,1/2+y,z
1/2-x,1/2-y,z
1/2+x,1/2-y,-z
1/2-x,1/2+y,-z
loop_
_atom_site_type_symbol
_atom_site_label
_atom_site_fract_x
_atom_site_fract_y
_atom_site_fract_z
Si Si1 0.949610 0.117708 0.319700
Si Si2 0.300562 0.865727 0.045888
Si Si3 0.500000 0.000000 0.500000
Si Si4 0.590668 0.731577 0.122068
O O1 0.932128 0.250000 0.250000
O O2 0.870470 0.082619 0.378687
O O3 0.017574 0.170228 0.395091
O O4 0.000000 0.000000 0.264480
O O5 0.250000 0.750000 0.101915
O O6 0.338754 0.784250 0.948058
O O7 0.260149 0.000000 0.000000
O O8 0.441888 0.906846 0.570848
O O9 0.606882 0.750000 0.250000
#
# Coordination Sequence:
#
# PCOD9329062 Si02
#       4
#    16  16   4  16
#     4  11  24  46  80 112 145 197 266 331 391 470
#     4  12  27  48  70 105 160 203 250 321 404 470
#     4  12  24  44  74 122 156 184 264 344 396 458
#     4  11  26  43  76 110 147 198 264 324 385 470
#
# _framework density 24.186871
#
# number of rings (size 3 to 8) (size 9 to 14) (size 15 to 20)
#    0.000    0.615    6.154    0.000   10.769    1.231 
#    0.000    3.077    0.000    0.000    0.000    0.000 
#    0.000    0.000    0.000    0.000    0.000    0.000 
#
# Total GULP energy -72430.075706 kJ/mol
# GULP energy per Si atom -5571.544285 kJ/mol
# Density = 2.413182 g / cm^3
# Si number density = 24.186871 Si / 1000 Ang^3
#
#
#
# Elastic Constant Matrix: (Units=GPa)
#
#
# Indices 1 2 3 4 5 6 
#
# 1 71.3349 32.8656 5.7126 0.0000 0.0000 0.0000
# 2 32.8656 176.0535 31.6071 0.0000 0.0000 0.0000
# 3 5.7126 31.6071 116.8053 0.0000 0.0000 0.0000
# 4 0.0000 0.0000 0.0000 38.0980 0.0000 0.0000
# 5 0.0000 0.0000 0.0000 0.0000 12.7723 0.0000
# 6 0.0000 0.0000 0.0000 0.0000 0.0000 64.3798
#
#
#
# Elastic Compliance Matrix: (Units=1/GPa)
#
#
# Indices 1 2 3 4 5 6 
#
# 1 0.015338 -0.002868 0.000026 0.000000 0.000000 0.000000
# 2 -0.002868 0.006506 -0.001620 0.000000 0.000000 0.000000
# 3 0.000026 -0.001620 0.008998 0.000000 0.000000 0.000000
# 4 0.000000 0.000000 0.000000 0.026248 0.000000 0.000000
# 5 0.000000 0.000000 0.000000 0.000000 0.078294 0.000000
# 6 0.000000 0.000000 0.000000 0.000000 0.000000 0.015533
#
#
# Mechanical properties :
#
#
# Convention : Reuss Voigt Hill
#
# Bulk Modulus (GPa) = 45.62494 56.06269 50.84382
# Shear Modulus (GPa) = 29.91358 42.65060 36.28209
#
# Velocity S-wave (km/s) = 3.52059 4.20382 3.87728
# Velocity P-wave (km/s) = 5.95235 6.84047 6.41181
#
# Compressibility (1/GPa) = 0.02191784
#
# Stress axis : x y z
#
# Youngs Moduli (GPa) = 65.19924 153.69562 111.13033
#
# Poissons Ratio (x) = 0.44078 -0.00288
# Poissons Ratio (y) = 0.18698 0.18007
# Poissons Ratio (z) = -0.00169 0.24904
#
# Static dielectric constant tensor:
#      x y z
#    x 1.907640 0.000000 0.000000 
#    y 0.000000 1.993910 0.000000 
#    z 0.000000 0.000000 1.964830 
# 
# From -- ./inp_files/12056.got.cif
#   From: 2010.05.17/outbox.cif.g08.bks.cpg/sg22_7_cif.got.tgz:12056.got - 2010.06.03 23:40:54.
