data_PCOD9329402
_publ_section_title
;
Structure prediction by ZEFSAII (Michael W. Deem and Ramdas Pophale) SiO2 
 PCOD9329402
Probable space group: I 2 2 2
;
_chemical_formula_sum "Si O2"
_cell_formula_units_Z 64
_cell_length_a 14.365651
_cell_length_b 12.470107
_cell_length_c 20.775514
_cell_angle_alpha 90.000000
_cell_angle_beta 90.000000
_cell_angle_gamma 90.000000
_cell_volume 3721.750614
_symmetry_space_group_name_H-M "I 2 2 2"
_symmetry_group_IT_number 23
_symmetry_cell_setting 'orthorhombic'
loop_
_space_group_symop_operation_xyz
x,y,z
-x,-y,z
x,-y,-z
-x,y,-z
1/2+x,1/2+y,1/2+z
1/2-x,1/2-y,1/2+z
1/2+x,1/2-y,1/2-z
1/2-x,1/2+y,1/2-z
loop_
_atom_site_type_symbol
_atom_site_label
_atom_site_fract_x
_atom_site_fract_y
_atom_site_fract_z
Si Si1 0.744239 0.650244 0.805861
Si Si2 0.742295 0.604660 0.346420
Si Si3 0.229047 0.426691 0.946712
Si Si4 0.591903 0.550409 0.716359
Si Si5 0.049152 0.183924 0.090815
Si Si6 0.088715 0.574757 0.874437
Si Si7 0.843319 0.184918 0.030666
Si Si8 0.611215 0.995298 0.758204
O O1 0.756850 0.775243 0.818447
O O2 0.728009 0.597903 0.876479
O O3 0.656414 0.620098 0.762683
O O4 0.836631 0.601303 0.770624
O O5 0.657759 0.540947 0.313675
O O6 0.725458 0.618642 0.422966
O O7 0.834525 0.544608 0.321192
O O8 0.147794 0.508902 0.925879
O O9 0.191699 0.309613 0.969647
O O10 0.281688 0.500000 0.000000
O O11 0.500000 0.500000 0.747950
O O12 0.557804 0.621352 0.656718
O O13 0.063940 0.309713 0.100567
O O14 0.944809 0.174785 0.063997
O O15 0.130201 0.147522 0.041141
O O16 0.130962 0.584101 0.802608
O O17 0.000000 0.500000 0.864029
O O18 0.500000 0.000000 0.769480
#
# Coordination Sequence:
#
# PCOD9329402 Si02
#       8
#     8   8   8   8   8   8   8   8
#     4   9  21  35  53  80 110 141 188 229 280 330
#     4  10  20  37  50  75 111 143 185 231 268 334
#     4  10  17  30  50  78 112 145 180 229 275 321
#     4  11  22  37  55  77 112 149 185 226 281 337
#     4  11  20  30  47  77 111 152 186 207 274 334
#     4  10  17  26  47  77 108 141 184 221 267 329
#     4  10  20  30  48  77 114 152 179 217 265 338
#     4   9  19  32  53  77 104 143 183 231 276 317
#
# _framework density 17.196209
#
# number of rings (size 3 to 8) (size 9 to 14) (size 15 to 20)
#    0.000    2.000    3.750    0.750    1.750    1.750 
#    0.000    0.000    0.000    0.375    0.000    7.000 
#    3.750    0.000    0.000    0.000    0.000    0.000 
#
# Total GULP energy -178159.880268 kJ/mol
# GULP energy per Si atom -5567.496258 kJ/mol
# Density = 1.715707 g / cm^3
# Si number density = 17.196209 Si / 1000 Ang^3
#
#
#
# Elastic Constant Matrix: (Units=GPa)
#
#
# Indices 1 2 3 4 5 6 
#
# 1 50.9718 0.6187 4.7160 0.0000 0.0000 0.0000
# 2 0.6187 41.5737 7.0416 0.0000 0.0000 0.0000
# 3 4.7160 7.0416 56.9650 0.0000 0.0000 0.0000
# 4 0.0000 0.0000 0.0000 34.2154 0.0000 0.0000
# 5 0.0000 0.0000 0.0000 0.0000 25.7591 0.0000
# 6 0.0000 0.0000 0.0000 0.0000 0.0000 15.0452
#
#
#
# Elastic Compliance Matrix: (Units=1/GPa)
#
#
# Indices 1 2 3 4 5 6 
#
# 1 0.019770 -0.000017 -0.001635 0.000000 0.000000 0.000000
# 2 -0.000017 0.024568 -0.003035 0.000000 0.000000 0.000000
# 3 -0.001635 -0.003035 0.018065 0.000000 0.000000 0.000000
# 4 0.000000 0.000000 0.000000 0.029227 0.000000 0.000000
# 5 0.000000 0.000000 0.000000 0.000000 0.038821 0.000000
# 6 0.000000 0.000000 0.000000 0.000000 0.000000 0.066467
#
#
# Mechanical properties :
#
#
# Convention : Reuss Voigt Hill
#
# Bulk Modulus (GPa) = 18.85776 19.36256 19.11016
# Shear Modulus (GPa) = 22.32453 24.14620 23.23537
#
# Velocity S-wave (km/s) = 3.60700 3.75128 3.67984
# Velocity P-wave (km/s) = 5.32328 5.48151 5.40297
#
# Compressibility (1/GPa) = 0.05302856
#
# Stress axis : x y z
#
# Youngs Moduli (GPa) = 50.58137 40.70322 55.35507
#
# Poissons Ratio (x) = 0.00071 0.09048
# Poissons Ratio (y) = 0.00088 0.16803
# Poissons Ratio (z) = 0.08268 0.12355
#
# Static dielectric constant tensor:
#      x y z
#    x 1.561690 0.000000 0.000000 
#    y 0.000000 1.591370 0.000000 
#    z 0.000000 0.000000 1.663660 
# 
# From -- ./inp_files/24920.got.cif
#   From: 2010.05.17/outbox.cif.g08.bks.cpg/sg23_13_cif.got.tgz:24920.got - 2010.06.04 12:02:01.
