data_PCOD9329112
_publ_section_title
;
Structure prediction by ZEFSAII (Michael W. Deem and Ramdas Pophale) SiO2 
 PCOD9329112
Probable space group: F 2 2 2
;
_chemical_formula_sum "Si O2"
_cell_formula_units_Z 88
_cell_length_a 12.459915
_cell_length_b 17.082741
_cell_length_c 21.016707
_cell_angle_alpha 90.000000
_cell_angle_beta 90.000000
_cell_angle_gamma 90.000000
_cell_volume 4473.395594
_symmetry_space_group_name_H-M "F 2 2 2"
_symmetry_group_IT_number 22
_symmetry_cell_setting 'orthorhombic'
loop_
_space_group_symop_operation_xyz
x,y,z
-x,-y,z
x,-y,-z
-x,y,-z
x,1/2+y,1/2+z
-x,1/2-y,1/2+z
x,1/2-y,1/2-z
-x,1/2+y,1/2-z
1/2+x,y,1/2+z
1/2-x,-y,1/2+z
1/2+x,-y,1/2-z
1/2-x,y,1/2-z
1/2+x,1/2+y,z
1/2-x,1/2-y,z
1/2+x,1/2-y,-z
1/2-x,1/2+y,-z
loop_
_atom_site_type_symbol
_atom_site_label
_atom_site_fract_x
_atom_site_fract_y
_atom_site_fract_z
Si Si1 0.750000 0.446183 0.250000
Si Si2 0.372409 0.906755 0.492227
Si Si3 0.673174 0.326165 0.142618
Si Si4 0.582893 0.557677 0.319493
Si Si5 0.952429 0.173541 0.786722
Si Si6 0.234045 0.342744 0.382036
O O1 0.716945 0.389658 0.192427
O O2 0.658731 0.502983 0.276868
O O3 0.500000 0.893594 0.500000
O O4 0.338250 0.869253 0.425143
O O5 0.308378 0.866281 0.549113
O O6 0.354286 0.000000 0.500000
O O7 0.750000 0.250000 0.139969
O O8 0.555240 0.305087 0.170555
O O9 0.500000 0.500000 0.354120
O O10 0.521059 0.613165 0.269487
O O11 0.658798 0.610736 0.363141
O O12 0.910824 0.250000 0.750000
O O13 0.859433 0.138672 0.830975
O O14 0.250000 0.250000 0.379136
#
# Coordination Sequence:
#
# PCOD9329112 Si02
#       6
#     8  16  16  16  16  16
#     4  12  23  40  67 100 134 180 224 290 357 410
#     4  11  25  46  72  98 132 181 240 294 350 429
#     4  12  26  44  68  98 143 181 229 293 366 430
#     4  12  25  39  67 106 146 181 234 296 358 418
#     4  12  23  41  67 107 140 185 233 290 354 430
#     4  12  24  44  72 100 143 192 238 291 356 435
#
# _framework density 19.671856999999999
#
# number of rings (size 3 to 8) (size 9 to 14) (size 15 to 20)
#    0.000    0.182    7.273    3.000    0.000    0.000 
#    0.000    0.000    0.000    1.091    0.000    0.000 
#    0.000    0.000    0.000    0.000    0.000    0.000 
#
# Total GULP energy -123007.087341 kJ/mol
# GULP energy per Si atom -5591.231243 kJ/mol
# Density = 1.962708 g / cm^3
# Si number density = 19.671857 Si / 1000 Ang^3
#
#
#
# Elastic Constant Matrix: (Units=GPa)
#
#
# Indices 1 2 3 4 5 6 
#
# 1 101.1877 51.4869 48.2937 0.0000 0.0000 0.0000
# 2 51.4869 116.1456 56.5721 0.0000 0.0000 0.0000
# 3 48.2937 56.5721 151.3308 0.0000 0.0000 0.0000
# 4 0.0000 0.0000 0.0000 26.0714 0.0000 0.0000
# 5 0.0000 0.0000 0.0000 0.0000 30.4902 0.0000
# 6 0.0000 0.0000 0.0000 0.0000 0.0000 36.4655
#
#
#
# Elastic Compliance Matrix: (Units=1/GPa)
#
#
# Indices 1 2 3 4 5 6 
#
# 1 0.013512 -0.004755 -0.002534 0.000000 0.000000 0.000000
# 2 -0.004755 0.012200 -0.003043 0.000000 0.000000 0.000000
# 3 -0.002534 -0.003043 0.008554 0.000000 0.000000 0.000000
# 4 0.000000 0.000000 0.000000 0.038356 0.000000 0.000000
# 5 0.000000 0.000000 0.000000 0.000000 0.032797 0.000000
# 6 0.000000 0.000000 0.000000 0.000000 0.000000 0.027423
#
#
# Mechanical properties :
#
#
# Convention : Reuss Voigt Hill
#
# Bulk Modulus (GPa) = 73.52555 75.70773 74.61664
# Shear Modulus (GPa) = 31.63703 32.75951 32.19827
#
# Velocity S-wave (km/s) = 4.01464 4.08523 4.05009
# Velocity P-wave (km/s) = 7.67769 7.79878 7.73847
#
# Compressibility (1/GPa) = 0.01360071
#
# Stress axis : x y z
#
# Youngs Moduli (GPa) = 74.00938 81.96573 116.89804
#
# Poissons Ratio (x) = 0.38977 0.29625
# Poissons Ratio (y) = 0.35194 0.35575
# Poissons Ratio (z) = 0.18756 0.24944
#
# Static dielectric constant tensor:
#      x y z
#    x 1.715140 0.000000 0.000000 
#    y 0.000000 1.703100 0.000000 
#    z 0.000000 0.000000 1.642700 
# 
# From -- ./inp_files/21388.got.cif
#   From: 2010.05.17/outbox.cif.g08.bks.cpg/sg22_11_cif.got.tgz:21388.got - 2010.06.03 23:40:54.
