data_PCOD9329661
_publ_section_title
;
Structure prediction by ZEFSAII (Michael W. Deem and Ramdas Pophale) SiO2 
 PCOD9329661
Probable space group: I 2 2 2
;
_chemical_formula_sum "Si O2"
_cell_formula_units_Z 40
_cell_length_a 5.362608
_cell_length_b 14.723886
_cell_length_c 22.547879
_cell_angle_alpha 90.000000
_cell_angle_beta 90.000000
_cell_angle_gamma 90.000000
_cell_volume 1780.345100
_symmetry_space_group_name_H-M "I 2 2 2"
_symmetry_group_IT_number 23
_symmetry_cell_setting 'orthorhombic'
loop_
_space_group_symop_operation_xyz
x,y,z
-x,-y,z
x,-y,-z
-x,y,-z
1/2+x,1/2+y,1/2+z
1/2-x,1/2-y,1/2+z
1/2+x,1/2-y,1/2-z
1/2-x,1/2+y,1/2-z
loop_
_atom_site_type_symbol
_atom_site_label
_atom_site_fract_x
_atom_site_fract_y
_atom_site_fract_z
Si Si1 0.506653 0.108621 0.188055
Si Si2 0.995836 0.111076 0.745693
Si Si3 0.391749 0.129201 0.435510
Si Si4 0.613311 0.373804 0.888323
Si Si5 0.560523 0.200134 0.064226
O O1 0.251685 0.141014 0.219299
O O2 0.536962 0.134309 0.119441
O O3 0.753660 0.142026 0.221450
O O4 0.500000 0.000000 0.192917
O O5 0.013145 0.141824 0.677739
O O6 0.000000 0.000000 0.743725
O O7 0.500000 0.107777 0.500000
O O8 0.601473 0.096300 0.389288
O O9 0.308276 0.236185 0.433101
O O10 0.124978 0.082939 0.421538
O O11 0.641067 0.279392 0.924170
O O12 0.500000 0.160123 0.000000
#
# Coordination Sequence:
#
# PCOD9329661 Si02
#       5
#     8   8   8   8   8
#     4  10  23  39  58  84 117 154 195 235 283 341
#     4  10  22  41  59  83 119 154 189 238 287 340
#     4  10  18  35  54  85 115 147 183 233 283 333
#     4  10  20  34  61  85 110 151 190 231 287 344
#     4  10  22  36  61  82 118 149 190 238 286 334
#
# _framework density 22.467552999999999
#
# number of rings (size 3 to 8) (size 9 to 14) (size 15 to 20)
#    1.200    0.800    2.000    1.800    2.800    2.000 
#    0.000    0.000    0.000   10.200    0.000    0.000 
#    0.000    0.000    0.000    0.000    0.000    0.000 
#
# Total GULP energy -111476.865984 kJ/mol
# GULP energy per Si atom -5573.843299 kJ/mol
# Density = 2.241642 g / cm^3
# Si number density = 22.467553 Si / 1000 Ang^3
#
#
#
# Elastic Constant Matrix: (Units=GPa)
#
#
# Indices 1 2 3 4 5 6 
#
# 1 210.0420 28.7911 87.1446 0.0000 0.0000 0.0000
# 2 28.7911 20.2208 6.9712 0.0000 0.0000 0.0000
# 3 87.1446 6.9712 180.1393 0.0000 0.0000 0.0000
# 4 0.0000 0.0000 0.0000 72.6239 0.0000 0.0000
# 5 0.0000 0.0000 0.0000 0.0000 3.2807 0.0000
# 6 0.0000 0.0000 0.0000 0.0000 0.0000 7.5712
#
#
#
# Elastic Compliance Matrix: (Units=1/GPa)
#
#
# Indices 1 2 3 4 5 6 
#
# 1 0.007380 -0.009403 -0.003206 0.000000 0.000000 0.000000
# 2 -0.009403 0.062102 0.002145 0.000000 0.000000 0.000000
# 3 -0.003206 0.002145 0.007019 0.000000 0.000000 0.000000
# 4 0.000000 0.000000 0.000000 0.013770 0.000000 0.000000
# 5 0.000000 0.000000 0.000000 0.000000 0.304815 0.000000
# 6 0.000000 0.000000 0.000000 0.000000 0.000000 0.132080
#
#
# Mechanical properties :
#
#
# Convention : Reuss Voigt Hill
#
# Bulk Modulus (GPa) = 17.99392 72.91290 45.45341
# Shear Modulus (GPa) = 8.82428 35.86149 22.34288
#
# Velocity S-wave (km/s) = 1.98396 3.99951 3.15691
# Velocity P-wave (km/s) = 3.64340 7.33833 5.79334
#
# Compressibility (1/GPa) = 0.05557432
#
# Stress axis : x y z
#
# Youngs Moduli (GPa) = 135.49998 16.10251 142.46359
#
# Poissons Ratio (x) = 0.15141 0.45679
# Poissons Ratio (y) = 1.27405 -0.30563
# Poissons Ratio (z) = 0.43446 -0.03455
#
# Static dielectric constant tensor:
#      x y z
#    x 1.904810 0.000000 0.000000 
#    y 0.000000 1.916530 0.000000 
#    z 0.000000 0.000000 1.807780 
# 
# From -- ./inp_files/22513.got.cif
#   From: 2010.05.17/outbox.cif.g08.bks.cpg/sg23_12_cif.got.tgz:22513.got - 2010.06.04 12:02:01.
