data_PCOD9329367
_publ_section_title
;
Structure prediction by ZEFSAII (Michael W. Deem and Ramdas Pophale) SiO2 
 PCOD9329367
Probable space group: I 2 2 2
;
_chemical_formula_sum "Si O2"
_cell_formula_units_Z 44
_cell_length_a 9.475372
_cell_length_b 17.280531
_cell_length_c 14.140703
_cell_angle_alpha 90.000000
_cell_angle_beta 90.000000
_cell_angle_gamma 90.000000
_cell_volume 2315.391067
_symmetry_space_group_name_H-M "I 2 2 2"
_symmetry_group_IT_number 23
_symmetry_cell_setting 'orthorhombic'
loop_
_space_group_symop_operation_xyz
x,y,z
-x,-y,z
x,-y,-z
-x,y,-z
1/2+x,1/2+y,1/2+z
1/2-x,1/2-y,1/2+z
1/2+x,1/2-y,1/2-z
1/2-x,1/2+y,1/2-z
loop_
_atom_site_type_symbol
_atom_site_label
_atom_site_fract_x
_atom_site_fract_y
_atom_site_fract_z
Si Si1 0.678397 0.649828 0.748923
Si Si2 0.983162 0.285301 0.298094
Si Si3 0.624710 0.942465 0.743205
Si Si4 0.252588 0.040635 0.086990
Si Si5 0.000000 0.648873 0.500000
Si Si6 0.833053 0.012339 0.608612
O O1 0.545988 0.705083 0.762994
O O2 0.663967 0.593195 0.658613
O O3 0.700081 0.594517 0.840427
O O4 0.819095 0.699925 0.726249
O O5 0.064193 0.357475 0.251135
O O6 0.020499 0.296756 0.408873
O O7 0.500000 0.000000 0.710427
O O8 0.673342 0.977758 0.844155
O O9 0.753417 0.949721 0.672251
O O10 0.373616 0.093458 0.037361
O O11 0.176038 0.000000 0.000000
O O12 0.789858 0.000000 0.500000
O O13 0.000000 0.000000 0.614231
#
# Coordination Sequence:
#
# PCOD9329367 Si02
#       6
#     8   8   8   8   4   8
#     4  10  24  39  60  95 126 163 200 255 322 362
#     4  11  22  39  60  93 131 161 201 258 318 375
#     4  11  18  36  65  92 120 157 209 268 302 359
#     4  10  16  33  63  94 114 149 216 251 299 364
#     4  10  17  30  66  88 113 158 208 250 293 368
#     4  10  23  42  63  87 118 169 222 253 299 379
#
# _framework density 19.003270000000001
#
# number of rings (size 3 to 8) (size 9 to 14) (size 15 to 20)
#    0.000    1.636    7.273    0.273    2.545    1.818 
#    3.273    0.000    0.000   21.818    0.000    0.000 
#    0.000    0.000    0.000    0.000    0.000    0.000 
#
# Total GULP energy -122708.591065 kJ/mol
# GULP energy per Si atom -5577.663230 kJ/mol
# Density = 1.896002 g / cm^3
# Si number density = 19.003270 Si / 1000 Ang^3
#
#
#
# Elastic Constant Matrix: (Units=GPa)
#
#
# Indices 1 2 3 4 5 6 
#
# 1 35.9867 7.4241 37.5416 0.0000 0.0000 0.0000
# 2 7.4241 64.9033 32.2199 0.0000 0.0000 0.0000
# 3 37.5416 32.2199 132.0247 0.0000 0.0000 0.0000
# 4 0.0000 0.0000 0.0000 19.1939 0.0000 0.0000
# 5 0.0000 0.0000 0.0000 0.0000 19.4294 0.0000
# 6 0.0000 0.0000 0.0000 0.0000 0.0000 26.2859
#
#
#
# Elastic Compliance Matrix: (Units=1/GPa)
#
#
# Indices 1 2 3 4 5 6 
#
# 1 0.039590 0.001206 -0.011552 0.000000 0.000000 0.000000
# 2 0.001206 0.017568 -0.004630 0.000000 0.000000 0.000000
# 3 -0.011552 -0.004630 0.011989 0.000000 0.000000 0.000000
# 4 0.000000 0.000000 0.000000 0.052100 0.000000 0.000000
# 5 0.000000 0.000000 0.000000 0.000000 0.051468 0.000000
# 6 0.000000 0.000000 0.000000 0.000000 0.000000 0.038043
#
#
# Mechanical properties :
#
#
# Convention : Reuss Voigt Hill
#
# Bulk Modulus (GPa) = 25.51326 43.03175 34.27251
# Shear Modulus (GPa) = 19.70235 23.36378 21.53307
#
# Velocity S-wave (km/s) = 3.22341 3.51017 3.36984
# Velocity P-wave (km/s) = 5.22577 6.25475 5.76327
#
# Compressibility (1/GPa) = 0.03919530
#
# Stress axis : x y z
#
# Youngs Moduli (GPa) = 25.25869 56.92088 83.40847
#
# Poissons Ratio (x) = -0.06865 0.96353
# Poissons Ratio (y) = -0.03046 0.38621
# Poissons Ratio (z) = 0.29179 0.26357
#
# Static dielectric constant tensor:
#      x y z
#    x 1.668110 0.000000 0.000000 
#    y 0.000000 1.668170 0.000000 
#    z 0.000000 0.000000 1.671690 
# 
# From -- ./inp_files/19930.got.cif
#   From: 2010.05.17/outbox.cif.g08.bks.cpg/sg23_10_cif.got.tgz:19930.got - 2010.06.04 12:02:01.
