data_PCOD9329791
_publ_section_title
;
Structure prediction by ZEFSAII (Michael W. Deem and Ramdas Pophale) SiO2 
 PCOD9329791
Probable space group: I 2 2 2
;
_chemical_formula_sum "Si O2"
_cell_formula_units_Z 48
_cell_length_a 12.778241
_cell_length_b 17.607046
_cell_length_c 8.026444
_cell_angle_alpha 90.000000
_cell_angle_beta 90.000000
_cell_angle_gamma 90.000000
_cell_volume 1805.846175
_symmetry_space_group_name_H-M "I 2 2 2"
_symmetry_group_IT_number 23
_symmetry_cell_setting 'orthorhombic'
loop_
_space_group_symop_operation_xyz
x,y,z
-x,-y,z
x,-y,-z
-x,y,-z
1/2+x,1/2+y,1/2+z
1/2-x,1/2-y,1/2+z
1/2+x,1/2-y,1/2-z
1/2-x,1/2+y,1/2-z
loop_
_atom_site_type_symbol
_atom_site_label
_atom_site_fract_x
_atom_site_fract_y
_atom_site_fract_z
Si Si1 0.102057 0.874593 0.424172
Si Si2 0.178201 0.386125 0.205092
Si Si3 0.311656 0.716928 0.214317
Si Si4 0.255108 0.577293 0.429515
Si Si5 0.464495 0.904413 0.811886
Si Si6 0.425222 0.254022 0.340599
O O1 0.218317 0.911156 0.398617
O O2 0.120802 0.806180 0.555442
O O3 0.074372 0.835639 0.248857
O O4 0.000000 0.915866 0.500000
O O5 0.166216 0.295089 0.191662
O O6 0.207529 0.391880 0.399597
O O7 0.062687 0.423392 0.189622
O O8 0.195821 0.730892 0.143917
O O9 0.456797 0.814420 0.783374
O O10 0.307295 0.500000 0.500000
O O11 0.154046 0.562769 0.308212
O O12 0.316352 0.643763 0.336249
O O13 0.500000 0.920465 0.000000
O O14 0.500000 0.255088 0.500000
#
# Coordination Sequence:
#
# PCOD9329791 Si02
#       6
#     8   8   8   8   8   8
#     4  11  22  34  53  84 124 174 226 288 351 406
#     4  10  19  34  59  94 128 172 228 284 352 424
#     4  10  20  36  59  91 132 176 231 297 357 424
#     4  10  22  40  65  98 135 176 226 294 374 448
#     4   9  17  32  57  90 129 166 212 273 353 436
#     4  10  19  31  53  87 127 167 218 289 359 425
#
# _framework density 26.580335999999999
#
# number of rings (size 3 to 8) (size 9 to 14) (size 15 to 20)
#    0.000    2.000    0.000    6.500    0.000    8.333 
#    0.000    0.833    0.000    3.000    0.000   11.667 
#    0.000    0.000    0.000    0.000    0.000    0.000 
#
# Total GULP energy -133897.367659 kJ/mol
# GULP energy per Si atom -5579.056986 kJ/mol
# Density = 2.651984 g / cm^3
# Si number density = 26.580336 Si / 1000 Ang^3
#
#
#
# Elastic Constant Matrix: (Units=GPa)
#
#
# Indices 1 2 3 4 5 6 
#
# 1 168.5603 8.6153 33.6413 0.0000 0.0000 0.0000
# 2 8.6153 109.2780 24.7275 0.0000 0.0000 0.0000
# 3 33.6413 24.7275 81.3137 0.0000 0.0000 0.0000
# 4 0.0000 0.0000 0.0000 14.8475 0.0000 0.0000
# 5 0.0000 0.0000 0.0000 0.0000 56.0993 0.0000
# 6 0.0000 0.0000 0.0000 0.0000 0.0000 16.1705
#
#
#
# Elastic Compliance Matrix: (Units=1/GPa)
#
#
# Indices 1 2 3 4 5 6 
#
# 1 0.006468 0.000103 -0.002707 0.000000 0.000000 0.000000
# 2 0.000103 0.009829 -0.003031 0.000000 0.000000 0.000000
# 3 -0.002707 -0.003031 0.014340 0.000000 0.000000 0.000000
# 4 0.000000 0.000000 0.000000 0.067351 0.000000 0.000000
# 5 0.000000 0.000000 0.000000 0.000000 0.017826 0.000000
# 6 0.000000 0.000000 0.000000 0.000000 0.000000 0.061841
#
#
# Mechanical properties :
#
#
# Convention : Reuss Voigt Hill
#
# Bulk Modulus (GPa) = 51.64022 54.79111 53.21566
# Shear Modulus (GPa) = 25.59105 36.90133 31.24619
#
# Velocity S-wave (km/s) = 3.10624 3.73002 3.43233
# Velocity P-wave (km/s) = 5.68640 6.26170 5.98097
#
# Compressibility (1/GPa) = 0.01936475
#
# Stress axis : x y z
#
# Youngs Moduli (GPa) = 154.61656 101.74152 69.73569
#
# Poissons Ratio (x) = -0.01044 0.18878
# Poissons Ratio (y) = -0.01587 0.21140
# Poissons Ratio (z) = 0.41855 0.30842
#
# Static dielectric constant tensor:
#      x y z
#    x 2.237550 0.000000 0.000000 
#    y 0.000000 2.118180 0.000000 
#    z 0.000000 0.000000 2.090990 
# 
# From -- ./inp_files/8764.got.cif
#   From: 2010.05.17/outbox.cif.g08.bks.cpg/sg23_5_cif.got.tgz:8764.got - 2010.06.04 12:02:01.
