data_PCOD9329806
_publ_section_title
;
Structure prediction by ZEFSAII (Michael W. Deem and Ramdas Pophale) SiO2 
 PCOD9329806
Probable space group: I 2 2 2
;
_chemical_formula_sum "Si O2"
_cell_formula_units_Z 24
_cell_length_a 13.888809
_cell_length_b 18.756315
_cell_length_c 5.028222
_cell_angle_alpha 90.000000
_cell_angle_beta 90.000000
_cell_angle_gamma 90.000000
_cell_volume 1309.866295
_symmetry_space_group_name_H-M "I 2 2 2"
_symmetry_group_IT_number 23
_symmetry_cell_setting 'orthorhombic'
loop_
_space_group_symop_operation_xyz
x,y,z
-x,-y,z
x,-y,-z
-x,y,-z
1/2+x,1/2+y,1/2+z
1/2-x,1/2-y,1/2+z
1/2+x,1/2-y,1/2-z
1/2-x,1/2+y,1/2-z
loop_
_atom_site_type_symbol
_atom_site_label
_atom_site_fract_x
_atom_site_fract_y
_atom_site_fract_z
Si Si1 0.000000 0.403178 0.000000
Si Si2 0.802528 0.546609 0.236250
Si Si3 0.706581 0.213231 0.207864
Si Si4 0.000000 0.687029 0.500000
O O1 0.041481 0.357537 0.752779
O O2 0.913826 0.442604 0.851240
O O3 0.796646 0.500000 0.500000
O O4 0.770894 0.628451 0.275463
O O5 0.755882 0.500000 0.000000
O O6 0.727866 0.249118 0.488606
O O7 0.594671 0.223460 0.122492
#
# Coordination Sequence:
#
# PCOD9329806 Si02
#       4
#     4   8   8   4
#     4  10  19  32  50  78 114 144 167 206 267 346
#     4  11  21  33  51  79 111 145 177 216 269 331
#     4  11  22  37  55  80 113 147 182 223 266 320
#     4  10  20  36  55  80 111 146 182 216 266 326
#
# _framework density 18.322481
#
# number of rings (size 3 to 8) (size 9 to 14) (size 15 to 20)
#    0.000    1.333    0.000   10.500    0.000    6.667 
#    0.000    0.000    0.000    0.000    0.000   17.500 
#    0.000    0.000    0.000    0.000    0.000    0.000 
#
# Total GULP energy -66887.935212 kJ/mol
# GULP energy per Si atom -5573.994601 kJ/mol
# Density = 1.828078 g / cm^3
# Si number density = 18.322481 Si / 1000 Ang^3
#
#
#
# Elastic Constant Matrix: (Units=GPa)
#
#
# Indices 1 2 3 4 5 6 
#
# 1 28.9019 20.1226 -0.4064 0.0000 0.0000 0.0000
# 2 20.1226 140.4194 56.5099 0.0000 0.0000 0.0000
# 3 -0.4064 56.5099 132.2127 0.0000 0.0000 0.0000
# 4 0.0000 0.0000 0.0000 51.2940 0.0000 0.0000
# 5 0.0000 0.0000 0.0000 0.0000 28.3078 0.0000
# 6 0.0000 0.0000 0.0000 0.0000 0.0000 20.7773
#
#
#
# Elastic Compliance Matrix: (Units=1/GPa)
#
#
# Indices 1 2 3 4 5 6 
#
# 1 0.039436 -0.006884 0.003064 0.000000 0.000000 0.000000
# 2 -0.006884 0.009803 -0.004211 0.000000 0.000000 0.000000
# 3 0.003064 -0.004211 0.009373 0.000000 0.000000 0.000000
# 4 0.000000 0.000000 0.000000 0.019495 0.000000 0.000000
# 5 0.000000 0.000000 0.000000 0.000000 0.035326 0.000000
# 6 0.000000 0.000000 0.000000 0.000000 0.000000 0.048129
#
#
# Mechanical properties :
#
#
# Convention : Reuss Voigt Hill
#
# Bulk Modulus (GPa) = 23.50267 50.44292 36.97279
# Shear Modulus (GPa) = 26.06769 35.09635 30.58202
#
# Velocity S-wave (km/s) = 3.77598 4.38137 4.08989
# Velocity P-wave (km/s) = 5.64498 7.29284 6.52117
#
# Compressibility (1/GPa) = 0.04254836
#
# Stress axis : x y z
#
# Youngs Moduli (GPa) = 25.35755 102.01252 106.69128
#
# Poissons Ratio (x) = 0.70228 -0.32686
# Poissons Ratio (y) = 0.17457 0.44928
# Poissons Ratio (z) = -0.07769 0.42958
#
# Static dielectric constant tensor:
#      x y z
#    x 1.626350 0.000000 0.000000 
#    y 0.000000 1.756950 0.000000 
#    z 0.000000 0.000000 1.667990 
# 
# From -- ./inp_files/1160.got.cif
#   From: 2010.05.17/outbox.cif.g08.bks.cpg/sg23_1_cif.got.tgz:1160.got - 2010.06.04 12:02:01.
