data_PCOD9329370
_publ_section_title
;
Structure prediction by ZEFSAII (Michael W. Deem and Ramdas Pophale) SiO2 
 PCOD9329370
Probable space group: I 2 2 2
;
_chemical_formula_sum "Si O2"
_cell_formula_units_Z 48
_cell_length_a 13.989124
_cell_length_b 5.552585
_cell_length_c 24.908495
_cell_angle_alpha 90.000000
_cell_angle_beta 90.000000
_cell_angle_gamma 90.000000
_cell_volume 1934.787278
_symmetry_space_group_name_H-M "I 2 2 2"
_symmetry_group_IT_number 23
_symmetry_cell_setting 'orthorhombic'
loop_
_space_group_symop_operation_xyz
x,y,z
-x,-y,z
x,-y,-z
-x,y,-z
1/2+x,1/2+y,1/2+z
1/2-x,1/2-y,1/2+z
1/2+x,1/2-y,1/2-z
1/2-x,1/2+y,1/2-z
loop_
_atom_site_type_symbol
_atom_site_label
_atom_site_fract_x
_atom_site_fract_y
_atom_site_fract_z
Si Si1 0.726915 0.496580 0.122732
Si Si2 0.000000 0.500000 0.191264
Si Si3 0.228963 0.889935 0.942050
Si Si4 0.500000 0.000000 0.500000
Si Si5 0.088093 0.208667 0.900537
Si Si6 0.000000 0.000000 0.500000
Si Si7 0.792487 0.344843 0.772821
Si Si8 0.416436 0.825294 0.093226
O O1 0.741010 0.615092 0.064540
O O2 0.812467 0.309263 0.123310
O O3 0.754693 0.692070 0.166472
O O4 0.624085 0.382130 0.131790
O O5 0.978671 0.281191 0.149243
O O6 0.905103 0.579995 0.224363
O O7 0.123998 0.941917 0.916478
O O8 0.323522 0.017214 0.918562
O O9 0.220934 0.000000 0.000000
O O10 0.441202 0.162615 0.456710
O O11 0.053879 0.816927 0.539699
O O12 0.735889 0.591520 0.755083
O O13 0.500000 0.000000 0.111751
#
# Coordination Sequence:
#
# PCOD9329370 Si02
#       8
#     8   4   8   2   8   2   8   8
#     4  10  23  42  66  97 137 187 239 303 371 449
#     4   9  22  49  72 108 140 194 237 308 381 456
#     4  11  21  36  62  98 142 190 238 293 357 436
#     4  10  16  34  58  96 144 180 240 280 344 428
#     4   9  20  37  62  94 141 184 229 287 357 434
#     4  12  22  38  52  94 132 190 246 296 372 452
#     4  11  27  51  81 112 147 191 250 318 387 459
#     4  11  22  37  61  90 135 189 239 300 364 442
#
# _framework density 24.808928999999999
#
# number of rings (size 3 to 8) (size 9 to 14) (size 15 to 20)
#    0.000    1.667    0.000    4.250    7.000    3.333 
#    4.500   10.417    0.000    0.000    0.000    0.000 
#    0.000    0.000    0.000    0.000    0.000    0.000 
#
# Total GULP energy -133825.890098 kJ/mol
# GULP energy per Si atom -5576.078754 kJ/mol
# Density = 2.475246 g / cm^3
# Si number density = 24.808929 Si / 1000 Ang^3
#
#
#
# Elastic Constant Matrix: (Units=GPa)
#
#
# Indices 1 2 3 4 5 6 
#
# 1 140.1472 61.6850 33.5247 0.0000 0.0000 0.0000
# 2 61.6850 93.5401 19.7878 0.0000 0.0000 0.0000
# 3 33.5247 19.7878 57.7001 0.0000 0.0000 0.0000
# 4 0.0000 0.0000 0.0000 8.6454 0.0000 0.0000
# 5 0.0000 0.0000 0.0000 0.0000 52.0052 0.0000
# 6 0.0000 0.0000 0.0000 0.0000 0.0000 52.1595
#
#
#
# Elastic Compliance Matrix: (Units=1/GPa)
#
#
# Indices 1 2 3 4 5 6 
#
# 1 0.010913 -0.006313 -0.004175 0.000000 0.000000 0.000000
# 2 -0.006313 0.015179 -0.001537 0.000000 0.000000 0.000000
# 3 -0.004175 -0.001537 0.020284 0.000000 0.000000 0.000000
# 4 0.000000 0.000000 0.000000 0.115669 0.000000 0.000000
# 5 0.000000 0.000000 0.000000 0.000000 0.019229 0.000000
# 6 0.000000 0.000000 0.000000 0.000000 0.000000 0.019172
#
#
# Mechanical properties :
#
#
# Convention : Reuss Voigt Hill
#
# Bulk Modulus (GPa) = 44.79504 57.93139 51.36322
# Shear Modulus (GPa) = 21.55734 34.32133 27.93934
#
# Velocity S-wave (km/s) = 2.95097 3.72348 3.35950
# Velocity P-wave (km/s) = 5.45034 6.47205 5.98304
#
# Compressibility (1/GPa) = 0.02232390
#
# Stress axis : x y z
#
# Youngs Moduli (GPa) = 91.63468 65.88009 49.29923
#
# Poissons Ratio (x) = 0.41591 0.20585
# Poissons Ratio (y) = 0.57851 0.07580
# Poissons Ratio (z) = 0.38262 0.10129
#
# Static dielectric constant tensor:
#      x y z
#    x 2.006210 0.000000 0.000000 
#    y 0.000000 1.100040 0.000000 
#    z 0.000000 0.000000 2.265450 
# 
# From -- ./inp_files/29597.got.cif
#   From: 2010.05.17/outbox.cif.g08.bks.cpg/sg23_15_cif.got.tgz:29597.got - 2010.06.04 12:02:01.
