data_PCOD9329154
_publ_section_title
;
Structure prediction by ZEFSAII (Michael W. Deem and Ramdas Pophale) SiO2 
 PCOD9329154
Probable space group: F 2 2 2
;
_chemical_formula_sum "Si O2"
_cell_formula_units_Z 100
_cell_length_a 11.158486
_cell_length_b 15.007922
_cell_length_c 27.454371
_cell_angle_alpha 90.000000
_cell_angle_beta 90.000000
_cell_angle_gamma 90.000000
_cell_volume 4597.665115
_symmetry_space_group_name_H-M "F 2 2 2"
_symmetry_group_IT_number 22
_symmetry_cell_setting 'orthorhombic'
loop_
_space_group_symop_operation_xyz
x,y,z
-x,-y,z
x,-y,-z
-x,y,-z
x,1/2+y,1/2+z
-x,1/2-y,1/2+z
x,1/2-y,1/2-z
-x,1/2+y,1/2-z
1/2+x,y,1/2+z
1/2-x,-y,1/2+z
1/2+x,-y,1/2-z
1/2-x,y,1/2-z
1/2+x,1/2+y,z
1/2-x,1/2-y,z
1/2+x,1/2-y,-z
1/2-x,1/2+y,-z
loop_
_atom_site_type_symbol
_atom_site_label
_atom_site_fract_x
_atom_site_fract_y
_atom_site_fract_z
Si Si1 0.901330 0.345506 0.119739
Si Si2 0.388370 0.653418 0.265597
Si Si3 0.250000 0.250000 0.022544
Si Si4 0.859543 0.889787 0.422328
Si Si5 0.826182 0.977098 0.889000
Si Si6 0.000000 0.000000 0.500000
Si Si7 0.910694 0.327823 0.453317
Si Si8 0.000000 0.000000 0.798177
O O1 0.885186 0.333379 0.176679
O O2 0.791693 0.412661 0.108720
O O3 0.902597 0.256704 0.084836
O O4 0.032217 0.390576 0.115477
O O5 0.430445 0.750000 0.250000
O O6 0.250000 0.636659 0.250000
O O7 0.472648 0.581590 0.238730
O O8 0.154081 0.289721 0.058873
O O9 0.210670 0.173380 0.985582
O O10 0.914755 0.942029 0.467086
O O11 0.732104 0.930648 0.407498
O O12 0.917268 0.918586 0.922302
O O13 0.887866 0.995494 0.836639
O O14 0.000000 0.320655 0.500000
#
# Coordination Sequence:
#
# PCOD9329154 Si02
#       8
#    16  16   8  16  16   4  16   8
#     4  12  23  47  77 105 139 201 254 303 364 455
#     4  11  26  47  79 109 144 192 253 312 386 459
#     4  12  24  42  64 104 150 196 244 300 354 430
#     4  12  26  42  70 102 144 194 252 295 360 437
#     4  12  26  46  70 106 151 190 246 311 380 445
#     4  12  20  42  68  98 128 190 258 292 326 440
#     4  12  25  45  72 109 153 200 247 306 366 451
#     4  12  28  47  75 116 151 186 251 332 392 454
#
# _framework density 21.750169
#
# number of rings (size 3 to 8) (size 9 to 14) (size 15 to 20)
#    0.000    0.160    6.400    2.880    6.720    1.280 
#    0.000    0.000    0.000    1.440    0.000    0.000 
#    0.000    0.000    0.000    0.000    0.000    0.000 
#
# Total GULP energy -139248.069706 kJ/mol
# GULP energy per Si atom -5569.922788 kJ/mol
# Density = 2.170066 g / cm^3
# Si number density = 21.750169 Si / 1000 Ang^3
#
#
#
# Elastic Constant Matrix: (Units=GPa)
#
#
# Indices 1 2 3 4 5 6 
#
# 1 72.2702 36.8529 38.3902 0.0000 0.0000 0.0000
# 2 36.8529 113.4913 45.1313 0.0000 0.0000 0.0000
# 3 38.3902 45.1313 136.7683 0.0000 0.0000 0.0000
# 4 0.0000 0.0000 0.0000 16.7373 0.0000 0.0000
# 5 0.0000 0.0000 0.0000 0.0000 -162.9352 0.0000
# 6 0.0000 0.0000 0.0000 0.0000 0.0000 35.0363
#
#
#
# Elastic Compliance Matrix: (Units=1/GPa)
#
#
# Indices 1 2 3 4 5 6 
#
# 1 0.017998 -0.004415 -0.003595 0.000000 0.000000 0.000000
# 2 -0.004415 0.011225 -0.002465 0.000000 0.000000 0.000000
# 3 -0.003595 -0.002465 0.009134 0.000000 0.000000 0.000000
# 4 0.000000 0.000000 0.000000 0.059747 0.000000 0.000000
# 5 0.000000 0.000000 0.000000 0.000000 -0.006137 0.000000
# 6 0.000000 0.000000 0.000000 0.000000 0.000000 0.028542
#
#
# Mechanical properties :
#
#
# Convention : Reuss Voigt Hill
#
# Bulk Modulus (GPa) = 57.44598 62.58651 60.01624
# Shear Modulus (GPa) = 33.95349 -8.75531 12.59909
#
# Velocity S-wave (km/s) = 3.95532 -2.00852 2.40940
# Velocity P-wave (km/s) = 6.87957 4.84343 5.94926
#
# Compressibility (1/GPa) = 0.01740766
#
# Stress axis : x y z
#
# Youngs Moduli (GPa) = 55.56206 89.08717 109.47925
#
# Poissons Ratio (x) = 0.39329 0.39360
# Poissons Ratio (y) = 0.24529 0.26985
# Poissons Ratio (z) = 0.19975 0.21959
#
# Static dielectric constant tensor:
#      x y z
#    x 1.915120 0.000000 0.000000 
#    y 0.000000 1.880650 0.000000 
#    z 0.000000 0.000000 1.870820 
# 
# From -- ./inp_files/56076.got.cif
#   From: 2010.05.17/outbox.cif.g08.bks.cpg/sg22_29_cif.got.tgz:56076.got - 2010.06.03 23:40:54.
