data_PCOD9329682
_publ_section_title
;
Structure prediction by ZEFSAII (Michael W. Deem and Ramdas Pophale) SiO2 
 PCOD9329682
Probable space group: I 2 2 2
;
_chemical_formula_sum "Si O2"
_cell_formula_units_Z 50
_cell_length_a 31.028956
_cell_length_b 8.843347
_cell_length_c 9.276146
_cell_angle_alpha 90.000000
_cell_angle_beta 90.000000
_cell_angle_gamma 90.000000
_cell_volume 2545.372839
_symmetry_space_group_name_H-M "I 2 2 2"
_symmetry_group_IT_number 23
_symmetry_cell_setting 'orthorhombic'
loop_
_space_group_symop_operation_xyz
x,y,z
-x,-y,z
x,-y,-z
-x,y,-z
1/2+x,1/2+y,1/2+z
1/2-x,1/2-y,1/2+z
1/2+x,1/2-y,1/2-z
1/2-x,1/2+y,1/2-z
loop_
_atom_site_type_symbol
_atom_site_label
_atom_site_fract_x
_atom_site_fract_y
_atom_site_fract_z
Si Si1 0.000000 0.500000 0.500000
Si Si2 0.432093 0.000000 0.500000
Si Si3 0.717500 0.485278 0.164388
Si Si4 0.358760 0.000000 0.000000
Si Si5 0.869235 0.762138 0.915782
Si Si6 0.431409 0.850377 0.199994
Si Si7 0.627834 0.415381 0.277012
Si Si8 0.299346 0.170087 0.217713
O O1 0.030341 0.610883 0.591977
O O2 0.406979 0.857846 0.568439
O O3 0.448217 0.918069 0.353152
O O4 0.670733 0.405867 0.179184
O O5 0.710848 0.654693 0.213795
O O6 0.754642 0.414211 0.261063
O O7 0.731519 0.500000 0.000000
O O8 0.327206 0.117124 0.080937
O O9 0.389720 0.932917 0.125677
O O10 0.830072 0.661997 0.856550
O O11 0.879741 0.906606 0.812927
O O12 0.860392 0.834439 0.071705
O O13 0.413215 0.679362 0.219919
#
# Coordination Sequence:
#
# PCOD9329682 Si02
#       8
#     2   4   8   4   8   8   8   8
#     4  10  24  42  64 110 128 162 212 282 340 416
#     4  10  18  35  68  98 120 172 204 266 308 403
#     4  11  26  37  54  84 122 171 225 277 327 384
#     4  11  22  39  62  88 122 178 210 274 335 399
#     4   9  19  36  59  92 118 162 219 255 321 379
#     4  10  21  39  69  92 133 159 217 267 337 405
#     4   9  20  39  60  85 123 168 208 270 325 393
#     4  11  25  36  56  84 124 167 220 276 320 388
#
# _framework density 19.643488999999999
#
# number of rings (size 3 to 8) (size 9 to 14) (size 15 to 20)
#    0.000    1.920    1.600    0.960    7.840    1.600 
#    0.000    0.000    0.000    1.920    0.000    4.480 
#    0.000    0.000    0.000    0.000    0.000    0.000 
#
# Total GULP energy -139195.107235 kJ/mol
# GULP energy per Si atom -5567.804289 kJ/mol
# Density = 1.959878 g / cm^3
# Si number density = 19.643489 Si / 1000 Ang^3
#
#
#
# Elastic Constant Matrix: (Units=GPa)
#
#
# Indices 1 2 3 4 5 6 
#
# 1 100.0595 46.1195 42.1270 0.0000 0.0000 0.0000
# 2 46.1195 79.0904 19.8414 0.0000 0.0000 0.0000
# 3 42.1270 19.8414 66.6396 0.0000 0.0000 0.0000
# 4 0.0000 0.0000 0.0000 21.3037 0.0000 0.0000
# 5 0.0000 0.0000 0.0000 0.0000 14.7006 0.0000
# 6 0.0000 0.0000 0.0000 0.0000 0.0000 11.8148
#
#
#
# Elastic Compliance Matrix: (Units=1/GPa)
#
#
# Indices 1 2 3 4 5 6 
#
# 1 0.017234 -0.007907 -0.008541 0.000000 0.000000 0.000000
# 2 -0.007907 0.017292 -0.000150 0.000000 0.000000 0.000000
# 3 -0.008541 -0.000150 0.020450 0.000000 0.000000 0.000000
# 4 0.000000 0.000000 0.000000 0.046940 0.000000 0.000000
# 5 0.000000 0.000000 0.000000 0.000000 0.068024 0.000000
# 6 0.000000 0.000000 0.000000 0.000000 0.000000 0.084639
#
#
# Mechanical properties :
#
#
# Convention : Reuss Voigt Hill
#
# Bulk Modulus (GPa) = 45.91195 51.32949 48.62072
# Shear Modulus (GPa) = 16.94706 18.74394 17.84550
#
# Velocity S-wave (km/s) = 2.94042 3.09237 3.01735
# Velocity P-wave (km/s) = 5.91197 6.24000 6.07820
#
# Compressibility (1/GPa) = 0.02178082
#
# Stress axis : x y z
#
# Youngs Moduli (GPa) = 58.02340 57.82927 48.90019
#
# Poissons Ratio (x) = 0.45727 0.41764
# Poissons Ratio (y) = 0.45880 0.00733
# Poissons Ratio (z) = 0.49556 0.00867
#
# Static dielectric constant tensor:
#      x y z
#    x 1.707460 0.000000 0.000000 
#    y 0.000000 1.673360 0.000000 
#    z 0.000000 0.000000 1.725420 
# 
# From -- ./inp_files/13425.got.cif
#   From: 2010.05.17/outbox.cif.g08.bks.cpg/sg23_7_cif.got.tgz:13425.got - 2010.06.04 12:02:01.
