data_PCOD9329895
_publ_section_title
;
Structure prediction by ZEFSAII (Michael W. Deem and Ramdas Pophale) SiO2 
 PCOD9329895
Probable space group: I 2 2 2
;
_chemical_formula_sum "Si O2"
_cell_formula_units_Z 64
_cell_length_a 7.957626
_cell_length_b 19.046949
_cell_length_c 18.858083
_cell_angle_alpha 90.000000
_cell_angle_beta 90.000000
_cell_angle_gamma 90.000000
_cell_volume 2858.291289
_symmetry_space_group_name_H-M "I 2 2 2"
_symmetry_group_IT_number 23
_symmetry_cell_setting 'orthorhombic'
loop_
_space_group_symop_operation_xyz
x,y,z
-x,-y,z
x,-y,-z
-x,y,-z
1/2+x,1/2+y,1/2+z
1/2-x,1/2-y,1/2+z
1/2+x,1/2-y,1/2-z
1/2-x,1/2+y,1/2-z
loop_
_atom_site_type_symbol
_atom_site_label
_atom_site_fract_x
_atom_site_fract_y
_atom_site_fract_z
Si Si1 0.327928 0.385340 0.907560
Si Si2 0.820641 0.282673 0.458763
Si Si3 0.478963 0.417104 0.220482
Si Si4 0.824963 0.371085 0.954773
Si Si5 0.841187 0.190263 0.821898
Si Si6 0.163649 0.329449 0.265089
Si Si7 0.979239 0.425162 0.179002
Si Si8 0.695124 0.724437 0.398229
O O1 0.494732 0.395024 0.861966
O O2 0.261225 0.304727 0.903127
O O3 0.196442 0.428347 0.860883
O O4 0.301794 0.406625 0.988963
O O5 0.761153 0.203577 0.438910
O O6 0.788342 0.323726 0.385945
O O7 0.697605 0.305049 0.522609
O O8 0.000000 0.281466 0.500000
O O9 0.500000 0.500000 0.228135
O O10 0.608548 0.373460 0.270213
O O11 0.300043 0.388523 0.246149
O O12 0.887938 0.410162 0.884776
O O13 0.000000 0.360130 0.000000
O O14 0.789773 0.256925 0.773965
O O15 0.015329 0.214956 0.861174
O O16 0.994330 0.360621 0.232664
O O17 0.173136 0.314422 0.347579
O O18 0.000000 0.500000 0.214892
#
# Coordination Sequence:
#
# PCOD9329895 Si02
#       8
#     8   8   8   8   8   8   8   8
#     4  10  19  34  56  80 121 166 207 259 308 373
#     4  11  22  34  60  96 122 152 204 276 321 370
#     4  11  25  41  60  93 135 166 205 267 330 383
#     4   9  19  34  52  79 122 169 210 251 312 371
#     4  11  21  40  65  89 122 169 214 258 326 388
#     4  11  22  38  63  91 116 167 215 259 315 383
#     4  11  21  35  56  84 123 172 220 257 307 375
#     4  10  21  37  60  87 124 159 206 268 320 372
#
# _framework density 22.390999999999998
#
# number of rings (size 3 to 8) (size 9 to 14) (size 15 to 20)
#    0.000    1.500    3.750    2.625    3.500    3.250 
#    0.000    0.000    0.000    6.750    0.000    3.500 
#    0.000    0.000    0.000    0.000    0.000    0.000 
#
# Total GULP energy -178834.532054 kJ/mol
# GULP energy per Si atom -5588.579127 kJ/mol
# Density = 2.234004 g / cm^3
# Si number density = 22.391000 Si / 1000 Ang^3
#
#
#
# Elastic Constant Matrix: (Units=GPa)
#
#
# Indices 1 2 3 4 5 6 
#
# 1 78.2991 14.1929 15.4299 0.0000 0.0000 0.0000
# 2 14.1929 95.4615 40.0821 0.0000 0.0000 0.0000
# 3 15.4299 40.0821 125.5786 0.0000 0.0000 0.0000
# 4 0.0000 0.0000 0.0000 17.1384 0.0000 0.0000
# 5 0.0000 0.0000 0.0000 0.0000 36.0420 0.0000
# 6 0.0000 0.0000 0.0000 0.0000 0.0000 16.2372
#
#
#
# Elastic Compliance Matrix: (Units=1/GPa)
#
#
# Indices 1 2 3 4 5 6 
#
# 1 0.013269 -0.001488 -0.001156 0.000000 0.000000 0.000000
# 2 -0.001488 0.012263 -0.003731 0.000000 0.000000 0.000000
# 3 -0.001156 -0.003731 0.009296 0.000000 0.000000 0.000000
# 4 0.000000 0.000000 0.000000 0.058349 0.000000 0.000000
# 5 0.000000 0.000000 0.000000 0.000000 0.027745 0.000000
# 6 0.000000 0.000000 0.000000 0.000000 0.000000 0.061587
#
#
# Mechanical properties :
#
#
# Convention : Reuss Voigt Hill
#
# Bulk Modulus (GPa) = 45.29145 48.74991 47.02068
# Shear Modulus (GPa) = 24.67694 29.19246 26.93470
#
# Velocity S-wave (km/s) = 3.32338 3.61468 3.47208
# Velocity P-wave (km/s) = 5.91590 6.26423 6.09255
#
# Compressibility (1/GPa) = 0.02207922
#
# Stress axis : x y z
#
# Youngs Moduli (GPa) = 75.36422 81.54388 107.57177
#
# Poissons Ratio (x) = 0.12130 0.12430
# Poissons Ratio (y) = 0.11211 0.40140
# Poissons Ratio (z) = 0.08709 0.30427
#
# Static dielectric constant tensor:
#      x y z
#    x 2.007370 0.000000 0.000000 
#    y 0.000000 1.796890 0.000000 
#    z 0.000000 0.000000 1.866410 
# 
# From -- ./inp_files/26350.got.cif
#   From: 2010.05.17/outbox.cif.g08.bks.cpg/sg23_14_cif.got.tgz:26350.got - 2010.06.04 12:02:01.
