data_PCOD9329422
_publ_section_title
;
Structure prediction by ZEFSAII (Michael W. Deem and Ramdas Pophale) SiO2 
 PCOD9329422
Probable space group: I 2 2 2
;
_chemical_formula_sum "Si O2"
_cell_formula_units_Z 60
_cell_length_a 19.304603
_cell_length_b 5.395307
_cell_length_c 29.629742
_cell_angle_alpha 90.000000
_cell_angle_beta 90.000000
_cell_angle_gamma 90.000000
_cell_volume 3086.063843
_symmetry_space_group_name_H-M "I 2 2 2"
_symmetry_group_IT_number 23
_symmetry_cell_setting 'orthorhombic'
loop_
_space_group_symop_operation_xyz
x,y,z
-x,-y,z
x,-y,-z
-x,y,-z
1/2+x,1/2+y,1/2+z
1/2-x,1/2-y,1/2+z
1/2+x,1/2-y,1/2-z
1/2-x,1/2+y,1/2-z
loop_
_atom_site_type_symbol
_atom_site_label
_atom_site_fract_x
_atom_site_fract_y
_atom_site_fract_z
Si Si1 0.801878 0.750430 0.901606
Si Si2 0.422307 0.603478 0.136804
Si Si3 0.247245 0.755658 0.944572
Si Si4 0.310726 0.409569 0.205435
Si Si5 0.613830 0.249393 0.513057
Si Si6 0.599084 0.364608 0.955113
Si Si7 0.000000 0.500000 0.401215
Si Si8 0.219545 0.094523 0.804840
O O1 0.768061 0.478802 0.910918
O O2 0.867145 0.749417 0.934734
O O3 0.818734 0.838916 0.851245
O O4 0.756052 0.979360 0.920061
O O5 0.500000 0.500000 0.140450
O O6 0.375652 0.468246 0.173528
O O7 0.392225 0.546823 0.087423
O O8 0.440060 0.893809 0.132197
O O9 0.323944 0.736581 0.964568
O O10 0.186240 0.747947 0.982592
O O11 0.267488 0.662819 0.199827
O O12 0.325574 0.404086 0.259158
O O13 0.265874 0.160251 0.193622
O O14 0.577932 0.500000 0.500000
O O15 0.577311 0.000000 0.500000
O O16 0.541960 0.178367 0.935195
O O17 0.575960 0.500000 0.000000
#
# Coordination Sequence:
#
# PCOD9329422 Si02
#       8
#     8   8   8   8   8   8   4   8
#     4  10  17  29  47  69  96 117 154 192 240 296
#     4  10  23  39  55  72  93 131 173 214 268 316
#     4  10  20  30  49  72  92 125 161 199 244 297
#     4  10  22  36  54  76 100 124 162 209 265 327
#     4   8  15  26  38  60  88 112 148 182 216 270
#     4  11  23  37  53  66  89 121 166 218 270 309
#     4  10  26  41  52  66  88 128 166 218 272 313
#     4  10  20  34  53  79 101 125 155 209 272 312
#
# _framework density 19.442240999999999
#
# number of rings (size 3 to 8) (size 9 to 14) (size 15 to 20)
#    0.000    2.133    0.000    3.600    7.467    3.467 
#    0.000    0.000    5.867    0.000    0.000    0.000 
#    0.000    0.000    0.000    0.000    0.000    6.000 
#
# Total GULP energy -167004.432399 kJ/mol
# GULP energy per Si atom -5566.814413 kJ/mol
# Density = 1.939799 g / cm^3
# Si number density = 19.442241 Si / 1000 Ang^3
#
#
#
# Elastic Constant Matrix: (Units=GPa)
#
#
# Indices 1 2 3 4 5 6 
#
# 1 63.4299 16.6176 38.4953 0.0000 0.0000 0.0000
# 2 16.6176 143.5935 40.0488 0.0000 0.0000 0.0000
# 3 38.4953 40.0488 155.3408 0.0000 0.0000 0.0000
# 4 0.0000 0.0000 0.0000 28.4598 0.0000 0.0000
# 5 0.0000 0.0000 0.0000 0.0000 -7.6889 0.0000
# 6 0.0000 0.0000 0.0000 0.0000 0.0000 -16.0300
#
#
#
# Elastic Compliance Matrix: (Units=1/GPa)
#
#
# Indices 1 2 3 4 5 6 
#
# 1 0.018673 -0.000938 -0.004386 0.000000 0.000000 0.000000
# 2 -0.000938 0.007551 -0.001714 0.000000 0.000000 0.000000
# 3 -0.004386 -0.001714 0.007966 0.000000 0.000000 0.000000
# 4 0.000000 0.000000 0.000000 0.035137 0.000000 0.000000
# 5 0.000000 0.000000 0.000000 0.000000 -0.130058 0.000000
# 6 0.000000 0.000000 0.000000 0.000000 0.000000 -0.062383
#
#
# Mechanical properties :
#
#
# Convention : Reuss Voigt Hill
#
# Bulk Modulus (GPa) = 49.71554 61.40973 55.56264
# Shear Modulus (GPa) = -48.85958 18.76169 -15.04895
#
# Velocity S-wave (km/s) = -5.01848 3.10981 -2.78516
# Velocity P-wave (km/s) = 2.82026 6.67449 4.27756
#
# Compressibility (1/GPa) = 0.02011443
#
# Stress axis : x y z
#
# Youngs Moduli (GPa) = 53.55415 132.43714 125.53020
#
# Poissons Ratio (x) = 0.12420 0.55052
# Poissons Ratio (y) = 0.05022 0.21519
# Poissons Ratio (z) = 0.23486 0.22704
#
# Static dielectric constant tensor:
#      x y z
#    x 1.688330 0.000000 0.000000 
#    y 0.000000 1.857460 0.000000 
#    z 0.000000 0.000000 1.739500 
# 
# From -- ./inp_files/30667.got.cif
#   From: 2010.05.17/outbox.cif.g08.bks.cpg/sg23_16_cif.got.tgz:30667.got - 2010.06.04 12:02:01.
