data_PCOD9329679
_publ_section_title
;
Structure prediction by ZEFSAII (Michael W. Deem and Ramdas Pophale) SiO2 
 PCOD9329679
Probable space group: I 2 2 2
;
_chemical_formula_sum "Si O2"
_cell_formula_units_Z 58
_cell_length_a 13.922163
_cell_length_b 16.608311
_cell_length_c 10.946717
_cell_angle_alpha 90.000000
_cell_angle_beta 90.000000
_cell_angle_gamma 90.000000
_cell_volume 2531.139454
_symmetry_space_group_name_H-M "I 2 2 2"
_symmetry_group_IT_number 23
_symmetry_cell_setting 'orthorhombic'
loop_
_space_group_symop_operation_xyz
x,y,z
-x,-y,z
x,-y,-z
-x,y,-z
1/2+x,1/2+y,1/2+z
1/2-x,1/2-y,1/2+z
1/2+x,1/2-y,1/2-z
1/2-x,1/2+y,1/2-z
loop_
_atom_site_type_symbol
_atom_site_label
_atom_site_fract_x
_atom_site_fract_y
_atom_site_fract_z
Si Si1 0.500000 0.500000 0.000000
Si Si2 0.505599 0.385234 0.785349
Si Si3 0.657522 0.080683 0.045885
Si Si4 0.021812 0.300940 0.319645
Si Si5 0.212793 0.141254 0.766362
Si Si6 0.181372 0.881871 0.846265
Si Si7 0.850355 0.695752 0.087806
Si Si8 0.671186 0.181678 0.682354
O O1 0.540293 0.562514 0.099579
O O2 0.473282 0.296068 0.830745
O O3 0.602437 0.375553 0.709586
O O4 0.419345 0.418360 0.700527
O O5 0.418434 0.151857 0.923733
O O6 0.744639 0.089799 0.949253
O O7 0.718273 0.077075 0.171477
O O8 0.607265 0.000000 0.000000
O O9 0.909893 0.318351 0.288669
O O10 0.074391 0.326370 0.193131
O O11 0.248845 0.156585 0.628822
O O12 0.223898 0.231047 0.822793
O O13 0.156450 0.792130 0.896323
O O14 0.245902 0.877787 0.723925
O O15 0.872847 0.670507 0.950814
#
# Coordination Sequence:
#
# PCOD9329679 Si02
#       8
#     2   8   8   8   8   8   8   8
#     4  12  28  40  64  94 134 170 224 268 334 408
#     4  10  24  41  60  95 133 174 217 276 340 412
#     4  11  23  41  65  94 135 177 224 279 330 405
#     4   9  21  40  64  98 128 170 226 277 335 402
#     4   9  20  37  60  94 130 176 218 273 340 404
#     4  10  22  36  58  91 130 173 216 270 336 407
#     4   9  17  34  63  92 128 163 224 275 331 398
#     4  10  18  35  64  93 125 169 222 275 334 396
#
# _framework density 22.914580999999998
#
# number of rings (size 3 to 8) (size 9 to 14) (size 15 to 20)
#    0.000    2.207    1.379    1.241    3.862    3.310 
#    0.000    2.069    0.000    0.000    0.000    3.862 
#    0.000    0.000    0.000    0.000    0.000    0.000 
#
# Total GULP energy -161461.099347 kJ/mol
# GULP energy per Si atom -5567.624115 kJ/mol
# Density = 2.286243 g / cm^3
# Si number density = 22.914581 Si / 1000 Ang^3
#
#
#
# Elastic Constant Matrix: (Units=GPa)
#
#
# Indices 1 2 3 4 5 6 
#
# 1 105.6736 28.9794 15.5277 0.0000 0.0000 0.0000
# 2 28.9794 63.3570 17.4233 0.0000 0.0000 0.0000
# 3 15.5277 17.4233 90.2703 0.0000 0.0000 0.0000
# 4 0.0000 0.0000 0.0000 23.7327 0.0000 0.0000
# 5 0.0000 0.0000 0.0000 0.0000 26.5826 0.0000
# 6 0.0000 0.0000 0.0000 0.0000 0.0000 -6.6408
#
#
#
# Elastic Compliance Matrix: (Units=1/GPa)
#
#
# Indices 1 2 3 4 5 6 
#
# 1 0.010899 -0.004720 -0.000964 0.000000 0.000000 0.000000
# 2 -0.004720 0.018713 -0.002800 0.000000 0.000000 0.000000
# 3 -0.000964 -0.002800 0.011784 0.000000 0.000000 0.000000
# 4 0.000000 0.000000 0.000000 0.042136 0.000000 0.000000
# 5 0.000000 0.000000 0.000000 0.000000 0.037619 0.000000
# 6 0.000000 0.000000 0.000000 0.000000 0.000000 -0.150585
#
#
# Mechanical properties :
#
#
# Convention : Reuss Voigt Hill
#
# Bulk Modulus (GPa) = 40.93637 42.57355 41.75496
# Shear Modulus (GPa) = -1156.33556 21.89292 -567.22132
#
# Velocity S-wave (km/s) = -22.48831 3.09433 -15.75039
# Velocity P-wave (km/s) = 25.62021 5.60233 17.67780
#
# Compressibility (1/GPa) = 0.02442815
#
# Stress axis : x y z
#
# Youngs Moduli (GPa) = 91.75011 53.43999 84.86069
#
# Poissons Ratio (x) = 0.25225 0.08178
# Poissons Ratio (y) = 0.43308 0.23760
# Poissons Ratio (z) = 0.08842 0.14962
#
# Static dielectric constant tensor:
#      x y z
#    x 1.910510 0.000000 0.000000 
#    y 0.000000 1.916040 0.000000 
#    z 0.000000 0.000000 1.922070 
# 
# From -- ./inp_files/16931.got.cif
#   From: 2010.05.17/outbox.cif.g08.bks.cpg/sg23_9_cif.got.tgz:16931.got - 2010.06.04 12:02:01.
