data_PCOD9329999
_publ_section_title
;
Structure prediction by ZEFSAII (Michael W. Deem and Ramdas Pophale) SiO2 
 PCOD9329999
Probable space group: I 2 2 2
;
_chemical_formula_sum "Si O2"
_cell_formula_units_Z 64
_cell_length_a 17.792910
_cell_length_b 5.309852
_cell_length_c 32.630331
_cell_angle_alpha 90.000000
_cell_angle_beta 90.000000
_cell_angle_gamma 90.000000
_cell_volume 3082.839235
_symmetry_space_group_name_H-M "I 2 2 2"
_symmetry_group_IT_number 23
_symmetry_cell_setting 'orthorhombic'
loop_
_space_group_symop_operation_xyz
x,y,z
-x,-y,z
x,-y,-z
-x,y,-z
1/2+x,1/2+y,1/2+z
1/2-x,1/2-y,1/2+z
1/2+x,1/2-y,1/2-z
1/2-x,1/2+y,1/2-z
loop_
_atom_site_type_symbol
_atom_site_label
_atom_site_fract_x
_atom_site_fract_y
_atom_site_fract_z
Si Si1 0.710266 0.246732 0.237920
Si Si2 0.032519 0.753683 0.453510
Si Si3 0.410813 0.482318 0.547969
Si Si4 0.082379 0.935290 0.792981
Si Si5 0.917803 0.371249 0.876679
Si Si6 0.207966 0.126660 0.543841
Si Si7 0.272177 0.638307 0.581307
Si Si8 0.200598 0.729641 0.164891
O O1 0.762574 0.456538 0.260709
O O2 0.630509 0.272420 0.260562
O O3 0.726113 0.335693 0.191297
O O4 0.121205 0.788066 0.456737
O O5 0.000000 0.500000 0.434307
O O6 0.000000 0.752049 0.500000
O O7 0.000000 0.000000 0.432214
O O8 0.500000 0.500000 0.550075
O O9 0.392217 0.500000 0.500000
O O10 0.397787 0.255309 0.579951
O O11 0.357815 0.694449 0.567288
O O12 0.069659 0.814899 0.837939
O O13 0.137446 0.166625 0.803943
O O14 0.000000 0.000000 0.776774
O O15 0.845511 0.521874 0.860011
O O16 0.000000 0.500000 0.881439
O O17 0.248506 0.389531 0.555654
O O18 0.228529 0.000000 0.500000
O O19 0.222933 0.887373 0.573395
O O20 0.274527 0.577637 0.629437
#
# Coordination Sequence:
#
# PCOD9329999 Si02
#       8
#     8   8   8   8   8   8   8   8
#     4  10  22  39  65 101 138 172 212 276 349 429
#     4  10  19  35  64  93 120 151 196 275 360 400
#     4  11  24  44  61  86 131 189 248 300 362 416
#     4  11  21  39  67 103 135 171 235 292 348 416
#     4  12  21  38  67  96 129 181 244 314 354 416
#     4  12  24  41  63  97 134 169 227 296 351 409
#     4  12  26  40  63  92 134 187 230 289 348 418
#     4  11  23  40  62  96 140 179 230 280 357 422
#
# _framework density 20.760083000000002
#
# number of rings (size 3 to 8) (size 9 to 14) (size 15 to 20)
#    0.000    0.875    5.000    3.750    1.750    0.000 
#    0.000    6.250    0.000    2.250    0.000    3.500 
#    0.000    0.000    0.000    0.000    0.000    0.000 
#
# Total GULP energy -178202.586176 kJ/mol
# GULP energy per Si atom -5568.830818 kJ/mol
# Density = 2.071283 g / cm^3
# Si number density = 20.760083 Si / 1000 Ang^3
#
#
#
# Elastic Constant Matrix: (Units=GPa)
#
#
# Indices 1 2 3 4 5 6 
#
# 1 111.6609 30.8279 43.8930 0.0000 0.0000 0.0000
# 2 30.8279 101.2525 23.2533 0.0000 0.0000 0.0000
# 3 43.8930 23.2533 102.8238 0.0000 0.0000 0.0000
# 4 0.0000 0.0000 0.0000 12.4857 0.0000 0.0000
# 5 0.0000 0.0000 0.0000 0.0000 -130.1896 0.0000
# 6 0.0000 0.0000 0.0000 0.0000 0.0000 40.4902
#
#
#
# Elastic Compliance Matrix: (Units=1/GPa)
#
#
# Indices 1 2 3 4 5 6 
#
# 1 0.011316 -0.002464 -0.004273 0.000000 0.000000 0.000000
# 2 -0.002464 0.010954 -0.001425 0.000000 0.000000 0.000000
# 3 -0.004273 -0.001425 0.011872 0.000000 0.000000 0.000000
# 4 0.000000 0.000000 0.000000 0.080092 0.000000 0.000000
# 5 0.000000 0.000000 0.000000 0.000000 -0.007681 0.000000
# 6 0.000000 0.000000 0.000000 0.000000 0.000000 0.024697
#
#
# Mechanical properties :
#
#
# Convention : Reuss Voigt Hill
#
# Bulk Modulus (GPa) = 56.12804 56.85396 56.49100
# Shear Modulus (GPa) = 32.57054 -0.92520 15.82267
#
# Velocity S-wave (km/s) = 3.96523 -0.66831 2.76373
# Velocity P-wave (km/s) = 6.93248 5.18171 6.12003
#
# Compressibility (1/GPa) = 0.01781641
#
# Stress axis : x y z
#
# Youngs Moduli (GPa) = 88.37297 91.29242 84.23289
#
# Poissons Ratio (x) = 0.22493 0.35994
# Poissons Ratio (y) = 0.21774 0.12007
# Poissons Ratio (z) = 0.37763 0.13013
#
# Static dielectric constant tensor:
#      x y z
#    x 1.810790 0.000000 0.000000 
#    y 0.000000 1.928570 0.000000 
#    z 0.000000 0.000000 1.798400 
# 
# From -- ./inp_files/30652.got.cif
#   From: 2010.05.17/outbox.cif.g08.bks.cpg/sg23_16_cif.got.tgz:30652.got - 2010.06.04 12:02:01.
