data_PCOD9329930
_publ_section_title
;
Structure prediction by ZEFSAII (Michael W. Deem and Ramdas Pophale) SiO2 
 PCOD9329930
Probable space group: I 2 2 2
;
_chemical_formula_sum "Si O2"
_cell_formula_units_Z 64
_cell_length_a 21.661263
_cell_length_b 26.439911
_cell_length_c 5.578524
_cell_angle_alpha 90.000000
_cell_angle_beta 90.000000
_cell_angle_gamma 90.000000
_cell_volume 3194.942674
_symmetry_space_group_name_H-M "I 2 2 2"
_symmetry_group_IT_number 23
_symmetry_cell_setting 'orthorhombic'
loop_
_space_group_symop_operation_xyz
x,y,z
-x,-y,z
x,-y,-z
-x,y,-z
1/2+x,1/2+y,1/2+z
1/2-x,1/2-y,1/2+z
1/2+x,1/2-y,1/2-z
1/2-x,1/2+y,1/2-z
loop_
_atom_site_type_symbol
_atom_site_label
_atom_site_fract_x
_atom_site_fract_y
_atom_site_fract_z
Si Si1 0.631315 0.101831 0.494394
Si Si2 0.425606 0.940016 0.997656
Si Si3 0.804626 0.309638 0.775182
Si Si4 0.777291 0.868179 0.066722
Si Si5 0.182134 0.209156 0.456958
Si Si6 0.765137 0.057349 0.557930
Si Si7 0.069440 0.020871 0.750726
Si Si8 0.626456 0.621978 0.196853
O O1 0.595995 0.085275 0.250288
O O2 0.652562 0.160931 0.465274
O O3 0.696382 0.072769 0.489227
O O4 0.599283 0.086418 0.749226
O O5 0.500000 0.937872 0.000000
O O6 0.407327 0.000000 0.000000
O O7 0.780300 0.352911 0.595049
O O8 0.837275 0.262744 0.647014
O O9 0.737751 0.285733 0.850976
O O10 0.844431 0.864240 0.949682
O O11 0.781516 0.826086 0.269596
O O12 0.770833 0.924242 0.168836
O O13 0.125984 0.174287 0.552540
O O14 0.816934 0.090026 0.420824
O O15 0.773566 0.000000 0.500000
O O16 0.072523 0.081610 0.729477
O O17 0.095800 0.000000 0.500000
O O18 0.000000 0.000000 0.755751
O O19 0.098457 0.000000 0.000000
#
# Coordination Sequence:
#
# PCOD9329930 Si02
#       8
#     8   8   8   8   8   8   8   8
#     4  12  23  39  62  94 126 164 219 269 320 394
#     4  11  25  45  66  89 122 170 220 268 318 384
#     4  11  20  34  58  86 128 174 216 261 327 400
#     4  10  19  35  49  80 126 171 214 252 312 403
#     4  10  20  34  55  85 130 173 211 261 320 404
#     4  11  22  32  50  86 131 169 193 251 326 393
#     4  10  23  42  65  91 121 171 227 278 329 387
#     4  10  22  35  55  87 126 167 216 264 320 395
#
# _framework density 20.031661
#
# number of rings (size 3 to 8) (size 9 to 14) (size 15 to 20)
#    0.000    1.375    5.000    2.625    5.250    1.000 
#    0.000    0.000    0.000    0.000    3.250    0.000 
#    0.000    0.000    0.000    0.000    0.000    0.000 
#
# Total GULP energy -178183.306335 kJ/mol
# GULP energy per Si atom -5568.228323 kJ/mol
# Density = 1.998607 g / cm^3
# Si number density = 20.031661 Si / 1000 Ang^3
#
#
#
# Elastic Constant Matrix: (Units=GPa)
#
#
# Indices 1 2 3 4 5 6 
#
# 1 68.3860 27.8293 16.3445 0.0000 0.0000 0.0000
# 2 27.8293 138.7747 40.8594 0.0000 0.0000 0.0000
# 3 16.3445 40.8594 105.6620 0.0000 0.0000 0.0000
# 4 0.0000 0.0000 0.0000 26.5926 0.0000 0.0000
# 5 0.0000 0.0000 0.0000 0.0000 9.3024 0.0000
# 6 0.0000 0.0000 0.0000 0.0000 0.0000 29.2738
#
#
#
# Elastic Compliance Matrix: (Units=1/GPa)
#
#
# Indices 1 2 3 4 5 6 
#
# 1 0.016104 -0.002817 -0.001402 0.000000 0.000000 0.000000
# 2 -0.002817 0.008624 -0.002899 0.000000 0.000000 0.000000
# 3 -0.001402 -0.002899 0.010802 0.000000 0.000000 0.000000
# 4 0.000000 0.000000 0.000000 0.037604 0.000000 0.000000
# 5 0.000000 0.000000 0.000000 0.000000 0.107499 0.000000
# 6 0.000000 0.000000 0.000000 0.000000 0.000000 0.034160
#
#
# Mechanical properties :
#
#
# Convention : Reuss Voigt Hill
#
# Bulk Modulus (GPa) = 46.95961 53.65433 50.30697
# Shear Modulus (GPa) = 21.17492 28.21974 24.69733
#
# Velocity S-wave (km/s) = 3.25479 3.75741 3.51510
# Velocity P-wave (km/s) = 6.13339 6.75774 6.45312
#
# Compressibility (1/GPa) = 0.02129490
#
# Stress axis : x y z
#
# Youngs Moduli (GPa) = 62.09571 115.94969 92.57404
#
# Poissons Ratio (x) = 0.32660 0.12978
# Poissons Ratio (y) = 0.17491 0.26840
# Poissons Ratio (z) = 0.08705 0.33618
#
# Static dielectric constant tensor:
#      x y z
#    x 1.740500 0.000000 0.000000 
#    y 0.000000 1.754580 0.000000 
#    z 0.000000 0.000000 1.877890 
# 
# From -- ./inp_files/4100.got.cif
#   From: 2010.05.17/outbox.cif.g08.bks.cpg/sg23_3_cif.got.tgz:4100.got - 2010.06.04 12:02:01.
