data_PCOD9329949
_publ_section_title
;
Structure prediction by ZEFSAII (Michael W. Deem and Ramdas Pophale) SiO2 
 PCOD9329949
Probable space group: I 2 2 2
;
_chemical_formula_sum "Si O2"
_cell_formula_units_Z 58
_cell_length_a 10.114442
_cell_length_b 12.564434
_cell_length_c 20.548792
_cell_angle_alpha 90.000000
_cell_angle_beta 90.000000
_cell_angle_gamma 90.000000
_cell_volume 2611.386495
_symmetry_space_group_name_H-M "I 2 2 2"
_symmetry_group_IT_number 23
_symmetry_cell_setting 'orthorhombic'
loop_
_space_group_symop_operation_xyz
x,y,z
-x,-y,z
x,-y,-z
-x,y,-z
1/2+x,1/2+y,1/2+z
1/2-x,1/2-y,1/2+z
1/2+x,1/2-y,1/2-z
1/2-x,1/2+y,1/2-z
loop_
_atom_site_type_symbol
_atom_site_label
_atom_site_fract_x
_atom_site_fract_y
_atom_site_fract_z
Si Si1 0.610875 0.257361 0.052185
Si Si2 0.563779 0.887090 0.146743
Si Si3 0.276329 0.159219 0.333014
Si Si4 0.500000 0.500000 0.500000
Si Si5 0.701537 0.339053 0.445550
Si Si6 0.924594 0.691584 0.150535
Si Si7 0.176736 0.188925 0.725637
Si Si8 0.931068 0.092057 0.765697
O O1 0.536340 0.173871 0.098859
O O2 0.689051 0.335437 0.101443
O O3 0.500000 0.299441 0.000000
O O4 0.717195 0.194595 0.008937
O O5 0.697304 0.895464 0.104437
O O6 0.610781 0.799802 0.199611
O O7 0.500000 0.000000 0.167438
O O8 0.431530 0.138498 0.347941
O O9 0.200724 0.090684 0.277451
O O10 0.278151 0.277473 0.298247
O O11 0.590447 0.423017 0.458874
O O12 0.633708 0.231806 0.417631
O O13 0.801006 0.640182 0.187798
O O14 0.929198 0.802417 0.191120
O O15 0.055227 0.109994 0.717900
O O16 0.000000 0.000000 0.807814
#
# Coordination Sequence:
#
# PCOD9329949 Si02
#       8
#     8   8   8   2   8   8   8   8
#     4  10  20  35  58  82 114 159 200 237 282 349
#     4  10  19  35  56  83 118 157 201 236 287 358
#     4  10  19  37  57  81 116 150 197 242 292 347
#     4  12  20  28  42  72 124 152 190 226 278 336
#     4  10  21  32  48  81 119 159 198 231 282 358
#     4   9  20  36  55  82 124 152 187 237 305 357
#     4   9  19  38  56  85 120 155 193 247 295 356
#     4  10  20  37  61  86 114 154 202 247 297 354
#
# _framework density 22.210422999999999
#
# number of rings (size 3 to 8) (size 9 to 14) (size 15 to 20)
#    0.000    2.207    1.379    1.655    0.966    1.931 
#   12.414    0.690    0.000    0.414    0.000    0.000 
#    8.276    0.000    0.000    0.000    0.000    0.000 
#
# Total GULP energy -161482.702829 kJ/mol
# GULP energy per Si atom -5568.369063 kJ/mol
# Density = 2.215987 g / cm^3
# Si number density = 22.210423 Si / 1000 Ang^3
#
#
#
# Elastic Constant Matrix: (Units=GPa)
#
#
# Indices 1 2 3 4 5 6 
#
# 1 143.7683 13.9466 35.8714 0.0000 0.0000 0.0000
# 2 13.9466 24.7871 2.3614 0.0000 0.0000 0.0000
# 3 35.8714 2.3614 74.9495 0.0000 0.0000 0.0000
# 4 0.0000 0.0000 0.0000 2.6908 0.0000 0.0000
# 5 0.0000 0.0000 0.0000 0.0000 53.9505 0.0000
# 6 0.0000 0.0000 0.0000 0.0000 0.0000 33.1084
#
#
#
# Elastic Compliance Matrix: (Units=1/GPa)
#
#
# Indices 1 2 3 4 5 6 
#
# 1 0.008337 -0.004323 -0.003854 0.000000 0.000000 0.000000
# 2 -0.004323 0.042707 0.000724 0.000000 0.000000 0.000000
# 3 -0.003854 0.000724 0.015164 0.000000 0.000000 0.000000
# 4 0.000000 0.000000 0.000000 0.371636 0.000000 0.000000
# 5 0.000000 0.000000 0.000000 0.000000 0.018535 0.000000
# 6 0.000000 0.000000 0.000000 0.000000 0.000000 0.030204
#
#
# Mechanical properties :
#
#
# Convention : Reuss Voigt Hill
#
# Bulk Modulus (GPa) = 19.49292 38.65154 29.07223
# Shear Modulus (GPa) = 9.64152 30.70498 20.17325
#
# Velocity S-wave (km/s) = 2.08576 3.72218 3.01704
# Velocity P-wave (km/s) = 3.82048 5.99275 5.02539
#
# Compressibility (1/GPa) = 0.05130068
#
# Stress axis : x y z
#
# Youngs Moduli (GPa) = 119.95320 23.41522 65.94591
#
# Poissons Ratio (x) = 0.10124 0.25414
# Poissons Ratio (y) = 0.51862 -0.04772
# Poissons Ratio (z) = 0.46227 -0.01694
#
# Static dielectric constant tensor:
#      x y z
#    x 1.945260 0.000000 0.000000 
#    y 0.000000 2.149750 0.000000 
#    z 0.000000 0.000000 1.867800 
# 
# From -- ./inp_files/28072.got.cif
#   From: 2010.05.17/outbox.cif.g08.bks.cpg/sg23_15_cif.got.tgz:28072.got - 2010.06.04 12:02:01.
