data_PCOD9329783
_publ_section_title
;
Structure prediction by ZEFSAII (Michael W. Deem and Ramdas Pophale) SiO2 
 PCOD9329783
Probable space group: I 2 2 2
;
_chemical_formula_sum "Si O2"
_cell_formula_units_Z 64
_cell_length_a 10.164612
_cell_length_b 30.645166
_cell_length_c 8.975505
_cell_angle_alpha 90.000000
_cell_angle_beta 90.000000
_cell_angle_gamma 90.000000
_cell_volume 2795.835899
_symmetry_space_group_name_H-M "I 2 2 2"
_symmetry_group_IT_number 23
_symmetry_cell_setting 'orthorhombic'
loop_
_space_group_symop_operation_xyz
x,y,z
-x,-y,z
x,-y,-z
-x,y,-z
1/2+x,1/2+y,1/2+z
1/2-x,1/2-y,1/2+z
1/2+x,1/2-y,1/2-z
1/2-x,1/2+y,1/2-z
loop_
_atom_site_type_symbol
_atom_site_label
_atom_site_fract_x
_atom_site_fract_y
_atom_site_fract_z
Si Si1 0.645742 0.044596 0.926612
Si Si2 0.278430 0.385451 0.119378
Si Si3 0.031585 0.335602 0.171401
Si Si4 0.365643 0.306192 0.916917
Si Si5 0.857495 0.640562 0.579227
Si Si6 0.270894 0.785784 0.134165
Si Si7 0.031424 0.845840 0.171719
Si Si8 0.361404 0.047451 0.431519
O O1 0.707116 0.093216 0.949893
O O2 0.634911 0.042494 0.746821
O O3 0.500000 0.046403 0.000000
O O4 0.704883 0.000000 0.000000
O O5 0.139191 0.374262 0.195877
O O6 0.393942 0.385253 0.241748
O O7 0.307766 0.342840 0.022548
O O8 0.254434 0.423938 0.003669
O O9 0.107486 0.295962 0.253269
O O10 0.898143 0.350695 0.251045
O O11 0.000000 0.327790 0.000000
O O12 0.272812 0.264956 0.897335
O O13 0.406329 0.330429 0.765251
O O14 0.500000 0.290537 0.000000
O O15 0.794829 0.683334 0.508315
O O16 0.000000 0.638665 0.500000
O O17 0.132682 0.805007 0.187208
O O18 0.000000 0.854190 0.000000
O O19 0.500000 0.064694 0.500000
O O20 0.347098 0.000000 0.500000
#
# Coordination Sequence:
#
# PCOD9329783 Si02
#       8
#     8   8   8   8   8   8   8   8
#     4  10  19  31  50  84 126 167 202 242 300 371
#     4  10  22  40  60  85 123 170 213 253 320 392
#     4  10  19  32  55  88 119 155 206 256 303 376
#     4  10  22  42  60  82 120 163 209 263 317 383
#     4   9  18  33  54  83 123 160 195 244 302 369
#     4  10  22  39  59  85 119 162 206 258 326 383
#     4  10  24  41  61  89 121 160 216 276 321 370
#     4  11  22  38  63  96 134 169 200 251 319 394
#
# _framework density 22.891186999999999
#
# number of rings (size 3 to 8) (size 9 to 14) (size 15 to 20)
#    0.000    2.000    0.000    4.500    0.000   10.500 
#    0.000    0.625    0.000    3.375    0.000    4.375 
#    0.000    0.000    0.000    0.000    0.000    0.000 
#
# Total GULP energy -178801.990865 kJ/mol
# GULP energy per Si atom -5587.562215 kJ/mol
# Density = 2.283909 g / cm^3
# Si number density = 22.891187 Si / 1000 Ang^3
#
#
#
# Elastic Constant Matrix: (Units=GPa)
#
#
# Indices 1 2 3 4 5 6 
#
# 1 65.8202 22.0883 40.0239 -0.0029 0.0005 -0.0010
# 2 22.0883 110.0890 55.5057 -0.0039 -0.0032 -0.0011
# 3 40.0239 55.5057 202.2444 0.0069 -0.0380 0.0022
# 4 -0.0029 -0.0039 0.0069 19.8054 0.0029 -0.0005
# 5 0.0005 -0.0032 -0.0380 0.0029 41.9351 -0.0007
# 6 -0.0010 -0.0011 0.0022 -0.0005 -0.0007 16.5974
#
#
#
# Elastic Compliance Matrix: (Units=1/GPa)
#
#
# Indices 1 2 3 4 5 6 
#
# 1 0.017668 -0.002068 -0.002929 0.000003 -0.000003 0.000001
# 2 -0.002068 0.010784 -0.002550 0.000003 -0.000001 0.000001
# 3 -0.002929 -0.002550 0.006224 -0.000003 0.000005 -0.000001
# 4 0.000003 0.000003 -0.000003 0.050491 -0.000003 0.000002
# 5 -0.000003 -0.000001 0.000005 -0.000003 0.023846 0.000001
# 6 0.000001 0.000001 -0.000001 0.000002 0.000001 0.060251
#
#
# Mechanical properties :
#
#
# Convention : Reuss Voigt Hill
#
# Bulk Modulus (GPa) = 51.06882 68.15439 59.61160
# Shear Modulus (GPa) = 26.19351 33.03661 29.61506
#
# Velocity S-wave (km/s) = 3.38636 3.80307 3.60075
# Velocity P-wave (km/s) = 6.13578 7.00873 6.58673
#
# Compressibility (1/GPa) = 0.01958142
#
# Stress axis : x y z
#
# Youngs Moduli (GPa) = 56.59968 92.72606 160.66574
#
# Poissons Ratio (x) = 0.19178 0.47056
# Poissons Ratio (y) = 0.11706 0.40978
# Poissons Ratio (z) = 0.16577 0.23650
#
# Static dielectric constant tensor:
#      x y z
#    x 1.944940 0.000000 0.000000 
#    y 0.000000 1.855790 0.000000 
#    z 0.000000 0.000000 1.931070 
# 
# From -- ./inp_files/8957.got.cif
#   From: 2010.05.17/outbox.cif.g08.bks.cpg/sg23_5_cif.got.tgz:8957.got - 2010.06.04 12:02:01.
