data_PCOD9329379
_publ_section_title
;
Structure prediction by ZEFSAII (Michael W. Deem and Ramdas Pophale) SiO2 
 PCOD9329379
Probable space group: I 2 2 2
;
_chemical_formula_sum "Si O2"
_cell_formula_units_Z 46
_cell_length_a 12.628288
_cell_length_b 11.242553
_cell_length_c 16.041145
_cell_angle_alpha 90.000000
_cell_angle_beta 90.000000
_cell_angle_gamma 90.000000
_cell_volume 2277.428683
_symmetry_space_group_name_H-M "I 2 2 2"
_symmetry_group_IT_number 23
_symmetry_cell_setting 'orthorhombic'
loop_
_space_group_symop_operation_xyz
x,y,z
-x,-y,z
x,-y,-z
-x,y,-z
1/2+x,1/2+y,1/2+z
1/2-x,1/2-y,1/2+z
1/2+x,1/2-y,1/2-z
1/2-x,1/2+y,1/2-z
loop_
_atom_site_type_symbol
_atom_site_label
_atom_site_fract_x
_atom_site_fract_y
_atom_site_fract_z
Si Si1 0.810167 0.500000 0.500000
Si Si2 0.400921 0.334099 0.137008
Si Si3 0.500000 0.000000 0.500000
Si Si4 0.182089 0.000000 0.500000
Si Si5 0.500000 0.818657 0.000000
Si Si6 0.695047 0.324243 0.389574
Si Si7 0.649588 0.807112 0.440964
Si Si8 0.977153 0.866939 0.822006
O O1 0.892962 0.606447 0.483606
O O2 0.740770 0.451937 0.422097
O O3 0.481766 0.255107 0.083642
O O4 0.293120 0.255256 0.141571
O O5 0.438657 0.371178 0.227363
O O6 0.379287 0.443854 0.076482
O O7 0.565452 0.913138 0.441788
O O8 0.245682 0.111091 0.456510
O O9 0.648085 0.268202 0.474241
O O10 0.597048 0.317359 0.326990
O O11 0.609078 0.714187 0.371215
O O12 0.000000 0.000000 0.856898
#
# Coordination Sequence:
#
# PCOD9329379 Si02
#       8
#     4   8   2   4   4   8   8   8
#     4   9  18  38  71  92 118 174 215 272 329 402
#     4  10  24  42  64  94 129 177 224 271 318 396
#     4  10  16  36  66  86 124 164 210 250 332 398
#     4   9  22  42  74  91 126 188 231 264 328 403
#     4   9  20  41  68  88 126 173 228 265 328 394
#     4  10  20  42  62  95 130 164 223 264 339 399
#     4  10  20  39  68  95 126 173 216 273 334 393
#     4  12  25  39  62 100 138 168 216 281 334 382
#
# _framework density 20.198218000000001
#
# number of rings (size 3 to 8) (size 9 to 14) (size 15 to 20)
#    0.000    1.913    1.739    1.043    2.435    2.087 
#    9.391    3.478    0.000    0.000    0.000    0.000 
#    0.000    0.000    0.000    0.000    0.000    0.000 
#
# Total GULP energy -128049.816978 kJ/mol
# GULP energy per Si atom -5567.383347 kJ/mol
# Density = 2.015225 g / cm^3
# Si number density = 20.198218 Si / 1000 Ang^3
#
#
#
# Elastic Constant Matrix: (Units=GPa)
#
#
# Indices 1 2 3 4 5 6 
#
# 1 91.8353 33.8757 56.9685 0.0000 0.0000 0.0000
# 2 33.8757 110.4147 51.6734 0.0000 0.0000 0.0000
# 3 56.9685 51.6734 105.2428 0.0000 0.0000 0.0000
# 4 0.0000 0.0000 0.0000 10.5996 0.0000 0.0000
# 5 0.0000 0.0000 0.0000 0.0000 23.3913 0.0000
# 6 0.0000 0.0000 0.0000 0.0000 0.0000 14.2933
#
#
#
# Elastic Compliance Matrix: (Units=1/GPa)
#
#
# Indices 1 2 3 4 5 6 
#
# 1 0.016505 -0.001146 -0.008372 0.000000 0.000000 0.000000
# 2 -0.001146 0.011838 -0.005192 0.000000 0.000000 0.000000
# 3 -0.008372 -0.005192 0.016583 0.000000 0.000000 0.000000
# 4 0.000000 0.000000 0.000000 0.094343 0.000000 0.000000
# 5 0.000000 0.000000 0.000000 0.000000 0.042751 0.000000
# 6 0.000000 0.000000 0.000000 0.000000 0.000000 0.069963
#
#
# Mechanical properties :
#
#
# Convention : Reuss Voigt Hill
#
# Bulk Modulus (GPa) = 64.48892 65.83644 65.16268
# Shear Modulus (GPa) = 17.44770 20.65520 19.05145
#
# Velocity S-wave (km/s) = 2.94228 3.20132 3.07453
# Velocity P-wave (km/s) = 6.59848 6.80665 6.70338
#
# Compressibility (1/GPa) = 0.01550654
#
# Stress axis : x y z
#
# Youngs Moduli (GPa) = 60.58796 84.47183 60.30362
#
# Poissons Ratio (x) = 0.09680 0.50484
# Poissons Ratio (y) = 0.06943 0.31311
# Poissons Ratio (z) = 0.50722 0.43859
#
# Static dielectric constant tensor:
#      x y z
#    x 1.804760 0.000000 0.000000 
#    y 0.000000 1.790040 0.000000 
#    z 0.000000 0.000000 1.644680 
# 
# From -- ./inp_files/24342.got.cif
#   From: 2010.05.17/outbox.cif.g08.bks.cpg/sg23_13_cif.got.tgz:24342.got - 2010.06.04 12:02:01.
