data_PCOD9329284
_publ_section_title
;
Structure prediction by ZEFSAII (Michael W. Deem and Ramdas Pophale) SiO2 
 PCOD9329284
Probable space group: F 2 2 2
;
_chemical_formula_sum "Si O2"
_cell_formula_units_Z 32
_cell_length_a 12.806367
_cell_length_b 7.272741
_cell_length_c 12.806380
_cell_angle_alpha 90.000000
_cell_angle_beta 90.000000
_cell_angle_gamma 90.000000
_cell_volume 1192.752813
_symmetry_space_group_name_H-M "F 2 2 2"
_symmetry_group_IT_number 22
_symmetry_cell_setting 'orthorhombic'
loop_
_space_group_symop_operation_xyz
x,y,z
-x,-y,z
x,-y,-z
-x,y,-z
x,1/2+y,1/2+z
-x,1/2-y,1/2+z
x,1/2-y,1/2-z
-x,1/2+y,1/2-z
1/2+x,y,1/2+z
1/2-x,-y,1/2+z
1/2+x,-y,1/2-z
1/2-x,y,1/2-z
1/2+x,1/2+y,z
1/2-x,1/2-y,z
1/2+x,1/2-y,-z
1/2-x,1/2+y,-z
loop_
_atom_site_type_symbol
_atom_site_label
_atom_site_fract_x
_atom_site_fract_y
_atom_site_fract_z
Si Si1 0.885153 0.966518 0.344007
Si Si2 0.844007 0.533482 0.385153
O O1 0.861042 0.750000 0.361042
O O2 0.888510 0.040326 0.224249
O O3 0.775751 0.040327 0.388510
O O4 0.000000 0.000000 0.387621
O O5 0.887621 0.500000 0.500000
#
# Coordination Sequence:
#
# PCOD9329284 Si02
#       2
#    16  16
#     4   9  19  39  64  97 136 171 217 271 321 385
#     4   9  19  39  64  97 136 171 217 271 321 385
#
# _framework density 26.828693000000001
#
# number of rings (size 3 to 8) (size 9 to 14) (size 15 to 20)
#    0.000    3.000    0.000    3.000    0.000    2.000 
#    0.000   50.000    0.000   24.000    0.000    0.000 
#    0.000    0.000    0.000    0.000    0.000    0.000 
#
# Total GULP energy -44548.539578 kJ/mol
# GULP energy per Si atom -5568.567447 kJ/mol
# Density = 2.676763 g / cm^3
# Si number density = 26.828693 Si / 1000 Ang^3
#
#
#
# Elastic Constant Matrix: (Units=GPa)
#
#
# Indices 1 2 3 4 5 6 
#
# 1 290.8349 24.3082 42.5287 0.0000 0.0000 0.0000
# 2 24.3082 107.6122 24.3083 0.0000 0.0000 0.0000
# 3 42.5287 24.3083 290.8353 0.0000 0.0000 0.0000
# 4 0.0000 0.0000 0.0000 20.9313 0.0000 0.0000
# 5 0.0000 0.0000 0.0000 0.0000 -40.6447 0.0000
# 6 0.0000 0.0000 0.0000 0.0000 0.0000 20.9316
#
#
#
# Elastic Compliance Matrix: (Units=1/GPa)
#
#
# Indices 1 2 3 4 5 6 
#
# 1 0.003565 -0.000701 -0.000463 0.000000 0.000000 0.000000
# 2 -0.000701 0.009609 -0.000701 0.000000 0.000000 0.000000
# 3 -0.000463 -0.000701 0.003565 0.000000 0.000000 0.000000
# 4 0.000000 0.000000 0.000000 0.047775 0.000000 0.000000
# 5 0.000000 0.000000 0.000000 0.000000 -0.024603 0.000000
# 6 0.000000 0.000000 0.000000 0.000000 0.000000 0.047775
#
#
# Mechanical properties :
#
#
# Convention : Reuss Voigt Hill
#
# Bulk Modulus (GPa) = 76.86238 96.84142 86.85190
# Shear Modulus (GPa) = 52.21945 40.11946 46.16945
#
# Velocity S-wave (km/s) = 4.41659 3.87123 4.15287
# Velocity P-wave (km/s) = 7.39729 7.49376 7.44568
#
# Compressibility (1/GPa) = 0.01301027
#
# Stress axis : x y z
#
# Youngs Moduli (GPa) = 280.53648 104.06721 280.53689
#
# Poissons Ratio (x) = 0.07292 0.12980
# Poissons Ratio (y) = 0.19657 0.19657
# Poissons Ratio (z) = 0.12980 0.07292
#
# Static dielectric constant tensor:
#      x y z
#    x 2.130370 0.000000 0.000000 
#    y 0.000000 2.138460 0.000000 
#    z 0.000000 0.000000 2.130360 
# 
# From -- ./inp_files/7651.got.cif
#   From: 2010.05.17/outbox.cif.g08.bks.cpg/sg22_4_cif.got.tgz:7651.got - 2010.06.03 23:40:54.
