data_PCOD9329453
_publ_section_title
;
Structure prediction by ZEFSAII (Michael W. Deem and Ramdas Pophale) SiO2 
 PCOD9329453
Probable space group: I 2 2 2
;
_chemical_formula_sum "Si O2"
_cell_formula_units_Z 64
_cell_length_a 14.719805
_cell_length_b 8.447555
_cell_length_c 25.466580
_cell_angle_alpha 90.000000
_cell_angle_beta 90.000000
_cell_angle_gamma 90.000000
_cell_volume 3166.676584
_symmetry_space_group_name_H-M "I 2 2 2"
_symmetry_group_IT_number 23
_symmetry_cell_setting 'orthorhombic'
loop_
_space_group_symop_operation_xyz
x,y,z
-x,-y,z
x,-y,-z
-x,y,-z
1/2+x,1/2+y,1/2+z
1/2-x,1/2-y,1/2+z
1/2+x,1/2-y,1/2-z
1/2-x,1/2+y,1/2-z
loop_
_atom_site_type_symbol
_atom_site_label
_atom_site_fract_x
_atom_site_fract_y
_atom_site_fract_z
Si Si1 0.794180 0.683920 0.305658
Si Si2 0.807353 0.308487 0.295841
Si Si3 0.263132 0.821619 0.002796
Si Si4 0.494249 0.805957 0.168315
Si Si5 0.206269 0.686611 0.897774
Si Si6 0.678350 0.814136 0.400399
Si Si7 0.539660 0.178760 0.051143
Si Si8 0.491289 0.807367 0.439369
O O1 0.804173 0.497418 0.297827
O O2 0.734201 0.752871 0.258876
O O3 0.742559 0.720438 0.360290
O O4 0.898608 0.744651 0.306117
O O5 0.911353 0.253010 0.305823
O O6 0.745110 0.251343 0.343835
O O7 0.201213 0.712242 0.038491
O O8 0.355264 0.834773 0.036443
O O9 0.271177 0.745557 0.945359
O O10 0.226274 0.000000 0.000000
O O11 0.484871 0.753032 0.107534
O O12 0.500000 0.000000 0.168380
O O13 0.196633 0.498551 0.890995
O O14 0.105851 0.740832 0.915874
O O15 0.573133 0.762444 0.399953
O O16 0.500000 0.000000 0.052646
O O17 0.500000 0.264384 0.000000
O O18 0.500000 0.751411 0.500000
O O19 0.500000 0.000000 0.441459
#
# Coordination Sequence:
#
# PCOD9329453 Si02
#       8
#     8   8   8   8   8   8   8   8
#     4  11  23  44  67  92 122 159 210 254 308 365
#     4  11  24  43  67  94 119 161 208 256 307 366
#     4  12  21  34  60  93 125 162 203 254 304 361
#     4   9  20  38  63  88 121 163 205 241 296 383
#     4  11  23  39  62  92 126 164 212 255 307 364
#     4  11  22  40  63  89 125 165 209 256 307 363
#     4  10  17  31  57  88 117 162 210 236 279 369
#     4   9  18  37  60  84 121 172 210 242 298 380
#
# _framework density 20.210463000000001
#
# number of rings (size 3 to 8) (size 9 to 14) (size 15 to 20)
#    0.000    1.500    3.750    2.625    1.750    1.000 
#    0.000   10.625    0.000    0.750    0.000    0.000 
#    0.000    0.000    0.000    0.000    0.000    0.000 
#
# Total GULP energy -178510.661756 kJ/mol
# GULP energy per Si atom -5578.458180 kJ/mol
# Density = 2.016446 g / cm^3
# Si number density = 20.210463 Si / 1000 Ang^3
#
#
#
# Elastic Constant Matrix: (Units=GPa)
#
#
# Indices 1 2 3 4 5 6 
#
# 1 114.5798 14.3896 26.5642 0.0000 0.0000 0.0000
# 2 14.3896 26.8549 7.2403 0.0000 0.0000 0.0000
# 3 26.5642 7.2403 92.5324 0.0000 0.0000 0.0000
# 4 0.0000 0.0000 0.0000 72.2937 0.0000 0.0000
# 5 0.0000 0.0000 0.0000 0.0000 16.3972 0.0000
# 6 0.0000 0.0000 0.0000 0.0000 0.0000 16.7723
#
#
#
# Elastic Compliance Matrix: (Units=1/GPa)
#
#
# Indices 1 2 3 4 5 6 
#
# 1 0.009883 -0.004628 -0.002475 0.000000 0.000000 0.000000
# 2 -0.004628 0.040207 -0.001817 0.000000 0.000000 0.000000
# 3 -0.002475 -0.001817 0.011660 0.000000 0.000000 0.000000
# 4 0.000000 0.000000 0.000000 0.013832 0.000000 0.000000
# 5 0.000000 0.000000 0.000000 0.000000 0.060986 0.000000
# 6 0.000000 0.000000 0.000000 0.000000 0.000000 0.059622
#
#
# Mechanical properties :
#
#
# Convention : Reuss Voigt Hill
#
# Bulk Modulus (GPa) = 22.77466 36.70615 29.74041
# Shear Modulus (GPa) = 21.86587 33.47752 27.67169
#
# Velocity S-wave (km/s) = 3.29281 4.07436 3.70425
# Velocity P-wave (km/s) = 5.07444 6.35100 5.74827
#
# Compressibility (1/GPa) = 0.04390845
#
# Stress axis : x y z
#
# Youngs Moduli (GPa) = 101.18839 24.87125 85.76521
#
# Poissons Ratio (x) = 0.11511 0.21227
# Poissons Ratio (y) = 0.46831 0.15587
# Poissons Ratio (z) = 0.25044 0.04520
#
# Static dielectric constant tensor:
#      x y z
#    x 1.789550 0.000000 0.000000 
#    y 0.000000 1.707820 0.000000 
#    z 0.000000 0.000000 1.690810 
# 
# From -- ./inp_files/28561.got.cif
#   From: 2010.05.17/outbox.cif.g08.bks.cpg/sg23_15_cif.got.tgz:28561.got - 2010.06.04 12:02:01.
