data_PCOD9329522
_publ_section_title
;
Structure prediction by ZEFSAII (Michael W. Deem and Ramdas Pophale) SiO2 
 PCOD9329522
Probable space group: I 2 2 2
;
_chemical_formula_sum "Si O2"
_cell_formula_units_Z 48
_cell_length_a 10.783391
_cell_length_b 29.184714
_cell_length_c 7.314069
_cell_angle_alpha 90.000000
_cell_angle_beta 90.000000
_cell_angle_gamma 90.000000
_cell_volume 2301.811988
_symmetry_space_group_name_H-M "I 2 2 2"
_symmetry_group_IT_number 23
_symmetry_cell_setting 'orthorhombic'
loop_
_space_group_symop_operation_xyz
x,y,z
-x,-y,z
x,-y,-z
-x,y,-z
1/2+x,1/2+y,1/2+z
1/2-x,1/2-y,1/2+z
1/2+x,1/2-y,1/2-z
1/2-x,1/2+y,1/2-z
loop_
_atom_site_type_symbol
_atom_site_label
_atom_site_fract_x
_atom_site_fract_y
_atom_site_fract_z
Si Si1 0.246374 0.853291 0.776306
Si Si2 0.246374 0.853291 0.223688
Si Si3 0.143989 0.051042 0.777870
Si Si4 0.500000 0.193173 0.780885
Si Si5 1.000000 0.801380 0.216084
Si Si6 0.356013 0.551042 0.277873
O O1 0.374310 0.830762 0.714080
O O2 0.126440 0.824360 0.714491
O O3 0.225430 0.905887 0.719867
O O4 0.247529 0.852450 0.999997
O O5 0.225433 0.905887 0.280133
O O6 0.374308 0.830761 0.285916
O O7 0.126438 0.824361 0.285504
O O8 0.000001 0.058363 0.724835
O O9 0.181712 1.000000 0.718448
O O10 0.145020 0.050854 0.999999
O O11 0.500001 0.247100 0.741662
O O12 0.500000 0.188449 0.000000
O O13 0.000000 0.810910 0.000000
#
# Coordination Sequence:
#
# PCOD9329522 Si02
#       6
#     8   8   8   8   8   8
#     4   9  16  27  41  60  85 112 139 171 211 248
#     4   9  16  27  41  60  85 112 139 171 211 248
#     4   8  12  20  37  59  81 107 139 169 199 245
#     4  10  20  30  41  61  91 115 134 172 219 248
#     4  10  18  30  47  61  79 113 152 176 195 242
#     4   8  12  20  37  59  81 107 139 169 199 245
#
# _framework density 20.853138000000001
#
# number of rings (size 3 to 8) (size 9 to 14) (size 15 to 20)
#    0.000    3.000    1.667    2.000    0.000    0.000 
#    0.000    0.833    0.000    5.000    0.000    0.000 
#    0.000    8.000    0.000    0.000    0.000    0.000 
#
# Total GULP energy -133984.909031 kJ/mol
# GULP energy per Si atom -5582.704543 kJ/mol
# Density = 2.080568 g / cm^3
# Si number density = 20.853138 Si / 1000 Ang^3
#
#
#
# Elastic Constant Matrix: (Units=GPa)
#
#
# Indices 1 2 3 4 5 6 
#
# 1 180.8003 114.2665 7.1161 -0.0005 -0.0002 0.0013
# 2 114.2665 193.7414 -10.3346 -0.0018 0.0006 0.0009
# 3 7.1161 -10.3346 81.9450 -0.0019 -0.0081 0.0016
# 4 -0.0005 -0.0018 -0.0019 10.9727 0.0005 0.0005
# 5 -0.0002 0.0006 -0.0081 0.0005 -15.3296 -0.0024
# 6 0.0013 0.0009 0.0016 0.0005 -0.0024 -4.4135
#
#
#
# Elastic Compliance Matrix: (Units=1/GPa)
#
#
# Indices 1 2 3 4 5 6 
#
# 1 0.008988 -0.005379 -0.001459 -0.000001 0.000000 0.000001
# 2 -0.005379 0.008415 0.001528 0.000001 0.000000 0.000001
# 3 -0.001459 0.001528 0.012523 0.000002 -0.000007 0.000004
# 4 -0.000001 0.000001 0.000002 0.091136 0.000003 0.000010
# 5 0.000000 0.000000 -0.000007 0.000003 -0.065233 0.000036
# 6 0.000001 0.000001 0.000004 0.000010 0.000036 -0.226579
#
#
# Mechanical properties :
#
#
# Convention : Reuss Voigt Hill
#
# Bulk Modulus (GPa) = 51.79316 75.39808 63.59562
# Shear Modulus (GPa) = -32.53157 21.27517 -5.62820
#
# Velocity S-wave (km/s) = -3.95401 3.19758 -1.64464
# Velocity P-wave (km/s) = 2.01133 7.06172 5.19198
#
# Compressibility (1/GPa) = 0.01930757
#
# Stress axis : x y z
#
# Youngs Moduli (GPa) = 111.26279 118.83075 79.85471
#
# Poissons Ratio (x) = 0.63915 0.11650
# Poissons Ratio (y) = 0.59845 -0.12205
# Poissons Ratio (z) = 0.16231 -0.18162
#
# Static dielectric constant tensor:
#      x y z
#    x 1.700960 0.000000 0.000000 
#    y 0.000000 1.723160 0.000000 
#    z 0.000000 0.000000 1.862520 
# 
# From -- ./inp_files/14824.got.cif
#   From: 2010.05.17/outbox.cif.g08.bks.cpg/sg23_8_cif.got.tgz:14824.got - 2010.06.04 12:02:01.
