data_PCOD9329056
_publ_section_title
;
Structure prediction by ZEFSAII (Michael W. Deem and Ramdas Pophale) SiO2 
 PCOD9329056
Probable space group: F 2 2 2
;
_chemical_formula_sum "Si O2"
_cell_formula_units_Z 64
_cell_length_a 26.858818
_cell_length_b 8.315072
_cell_length_c 11.278650
_cell_angle_alpha 90.000000
_cell_angle_beta 90.000000
_cell_angle_gamma 90.000000
_cell_volume 2518.894803
_symmetry_space_group_name_H-M "F 2 2 2"
_symmetry_group_IT_number 22
_symmetry_cell_setting 'orthorhombic'
loop_
_space_group_symop_operation_xyz
x,y,z
-x,-y,z
x,-y,-z
-x,y,-z
x,1/2+y,1/2+z
-x,1/2-y,1/2+z
x,1/2-y,1/2-z
-x,1/2+y,1/2-z
1/2+x,y,1/2+z
1/2-x,-y,1/2+z
1/2+x,-y,1/2-z
1/2-x,y,1/2-z
1/2+x,1/2+y,z
1/2-x,1/2-y,z
1/2+x,1/2-y,-z
1/2-x,1/2+y,-z
loop_
_atom_site_type_symbol
_atom_site_label
_atom_site_fract_x
_atom_site_fract_y
_atom_site_fract_z
Si Si1 0.807393 0.715371 0.609722
Si Si2 0.886006 0.358693 0.930275
Si Si3 0.021171 0.677534 0.376364
Si Si4 0.883184 0.515769 0.334897
O O1 0.815078 0.750000 0.750000
O O2 0.750000 0.750000 0.583984
O O3 0.839245 0.820052 0.516160
O O4 0.829763 0.534907 0.614290
O O5 0.877758 0.438902 0.802162
O O6 0.903582 0.178389 0.896123
O O7 0.915493 0.500000 0.000000
O O8 0.005365 0.750000 0.250000
O O9 0.080191 0.635353 0.360815
O O10 0.000000 0.500000 0.376454
O O11 0.000000 0.752118 0.500000
#
# Coordination Sequence:
#
# PCOD9329056 Si02
#       4
#    16  16  16  16
#     4  11  24  46  72 108 158 211 270 336 406 483
#     4  11  25  44  79 110 149 214 270 326 408 484
#     4  11  29  50  81 119 159 208 273 340 423 505
#     4  11  26  50  76 108 160 211 265 336 415 484
#
# _framework density 25.407966999999999
#
# number of rings (size 3 to 8) (size 9 to 14) (size 15 to 20)
#    0.000    1.000    2.500    1.500   10.500    2.500 
#    0.000    1.250    0.000    0.000    0.000    0.000 
#    0.000    0.000    0.000    0.000    0.000    0.000 
#
# Total GULP energy -89246.201723 kJ/mol
# GULP energy per Si atom -5577.887608 kJ/mol
# Density = 2.535014 g / cm^3
# Si number density = 25.407967 Si / 1000 Ang^3
#
#
#
# Elastic Constant Matrix: (Units=GPa)
#
#
# Indices 1 2 3 4 5 6 
#
# 1 136.2693 41.9654 67.5090 0.0000 0.0000 0.0000
# 2 41.9654 134.3410 62.8513 0.0000 0.0000 0.0000
# 3 67.5090 62.8513 280.9112 0.0000 0.0000 0.0000
# 4 0.0000 0.0000 0.0000 59.8362 0.0000 0.0000
# 5 0.0000 0.0000 0.0000 0.0000 30.8836 0.0000
# 6 0.0000 0.0000 0.0000 0.0000 0.0000 20.6580
#
#
#
# Elastic Compliance Matrix: (Units=1/GPa)
#
#
# Indices 1 2 3 4 5 6 
#
# 1 0.008768 -0.001958 -0.001669 0.000000 0.000000 0.000000
# 2 -0.001958 0.008751 -0.001487 0.000000 0.000000 0.000000
# 3 -0.001669 -0.001487 0.004294 0.000000 0.000000 0.000000
# 4 0.000000 0.000000 0.000000 0.016712 0.000000 0.000000
# 5 0.000000 0.000000 0.000000 0.000000 0.032380 0.000000
# 6 0.000000 0.000000 0.000000 0.000000 0.000000 0.048407
#
#
# Mechanical properties :
#
#
# Convention : Reuss Voigt Hill
#
# Bulk Modulus (GPa) = 86.32582 99.57478 92.95030
# Shear Modulus (GPa) = 37.48030 47.55528 42.51779
#
# Velocity S-wave (km/s) = 3.84492 4.33097 4.09516
# Velocity P-wave (km/s) = 7.33218 8.01781 7.68265
#
# Compressibility (1/GPa) = 0.01158402
#
# Stress axis : x y z
#
# Youngs Moduli (GPa) = 114.04680 114.26831 232.89580
#
# Poissons Ratio (x) = 0.22376 0.38873
# Poissons Ratio (y) = 0.22332 0.34642
# Poissons Ratio (z) = 0.19036 0.16997
#
# Static dielectric constant tensor:
#      x y z
#    x 2.082860 0.000000 0.000000 
#    y 0.000000 2.106610 0.000000 
#    z 0.000000 0.000000 2.124490 
# 
# From -- ./inp_files/25026.got.cif
#   From: 2010.05.17/outbox.cif.g08.bks.cpg/sg22_13_cif.got.tgz:25026.got - 2010.06.03 23:40:54.
