data_PCOD9329506
_publ_section_title
;
Structure prediction by ZEFSAII (Michael W. Deem and Ramdas Pophale) SiO2 
 PCOD9329506
Probable space group: I 2 2 2
;
_chemical_formula_sum "Si O2"
_cell_formula_units_Z 42
_cell_length_a 25.162452
_cell_length_b 5.006392
_cell_length_c 22.886973
_cell_angle_alpha 90.000000
_cell_angle_beta 90.000000
_cell_angle_gamma 90.000000
_cell_volume 2883.142902
_symmetry_space_group_name_H-M "I 2 2 2"
_symmetry_group_IT_number 23
_symmetry_cell_setting 'orthorhombic'
loop_
_space_group_symop_operation_xyz
x,y,z
-x,-y,z
x,-y,-z
-x,y,-z
1/2+x,1/2+y,1/2+z
1/2-x,1/2-y,1/2+z
1/2+x,1/2-y,1/2-z
1/2-x,1/2+y,1/2-z
loop_
_atom_site_type_symbol
_atom_site_label
_atom_site_fract_x
_atom_site_fract_y
_atom_site_fract_z
Si Si1 0.721971 0.780079 0.378068
Si Si2 0.000000 0.500000 0.000000
Si Si3 0.624291 0.500000 0.500000
Si Si4 0.302799 0.000000 0.500000
Si Si5 0.156443 0.224411 0.165221
Si Si6 0.781031 0.890832 0.270756
Si Si7 0.945673 0.879998 0.095430
O O1 0.728135 0.876718 0.444681
O O2 0.694360 0.493296 0.368024
O O3 0.774541 0.811347 0.338304
O O4 0.680241 0.988101 0.349898
O O5 0.964842 0.325392 0.954964
O O6 0.659464 0.753146 0.518200
O O7 0.588742 0.416985 0.555489
O O8 0.166021 0.161618 0.233696
O O9 0.096122 0.213939 0.143299
O O10 0.738040 0.693747 0.239270
O O11 0.000000 0.000000 0.119812
#
# Coordination Sequence:
#
# PCOD9329506 Si02
#       7
#     8   2   4   4   8   8   8
#     4  10  18  29  45  61  80 100 132 170 208 249
#     4  12  24  32  40  54  88 106 152 174 224 222
#     4  12  21  32  40  54  86 110 140 168 205 234
#     4  12  19  28  45  64  80 106 133 170 209 244
#     4  10  20  31  44  57  77 106 140 171 205 237
#     4   8  16  30  44  59  74  98 131 170 204 243
#     4  12  23  31  41  57  80 118 144 184 203 240
#
# _framework density 14.567437
#
# number of rings (size 3 to 8) (size 9 to 14) (size 15 to 20)
#    0.000    1.524    5.714    0.571    2.667    0.000 
#    0.000    0.000    0.000    0.000    0.000    0.000 
#    0.000    0.000    0.000    0.857    0.000    0.000 
#
# Total GULP energy -116926.831421 kJ/mol
# GULP energy per Si atom -5567.944353 kJ/mol
# Density = 1.453428 g / cm^3
# Si number density = 14.567437 Si / 1000 Ang^3
#
#
#
# Elastic Constant Matrix: (Units=GPa)
#
#
# Indices 1 2 3 4 5 6 
#
# 1 61.0975 5.8959 45.9286 0.0000 0.0000 0.0000
# 2 5.8959 62.5125 -0.0550 0.0000 0.0000 0.0000
# 3 45.9286 -0.0550 81.7065 0.0000 0.0000 0.0000
# 4 0.0000 0.0000 0.0000 18.2819 0.0000 0.0000
# 5 0.0000 0.0000 0.0000 0.0000 38.1404 0.0000
# 6 0.0000 0.0000 0.0000 0.0000 0.0000 11.1915
#
#
#
# Elastic Compliance Matrix: (Units=1/GPa)
#
#
# Indices 1 2 3 4 5 6 
#
# 1 0.028803 -0.002731 -0.016193 0.000000 0.000000 0.000000
# 2 -0.002731 0.016256 0.001546 0.000000 0.000000 0.000000
# 3 -0.016193 0.001546 0.021342 0.000000 0.000000 0.000000
# 4 0.000000 0.000000 0.000000 0.054699 0.000000 0.000000
# 5 0.000000 0.000000 0.000000 0.000000 0.026219 0.000000
# 6 0.000000 0.000000 0.000000 0.000000 0.000000 0.089354
#
#
# Mechanical properties :
#
#
# Convention : Reuss Voigt Hill
#
# Bulk Modulus (GPa) = 31.59943 34.31727 32.95835
# Shear Modulus (GPa) = 17.73197 23.75922 20.74560
#
# Velocity S-wave (km/s) = 3.49267 4.04292 3.77783
# Velocity P-wave (km/s) = 6.16473 6.73812 6.45779
#
# Compressibility (1/GPa) = 0.03164614
#
# Stress axis : x y z
#
# Youngs Moduli (GPa) = 34.71832 61.51677 46.85574
#
# Poissons Ratio (x) = 0.16799 0.75872
# Poissons Ratio (y) = 0.09481 -0.07244
# Poissons Ratio (z) = 0.56218 -0.09511
#
# Static dielectric constant tensor:
#      x y z
#    x 1.507660 0.000000 0.000000 
#    y 0.000000 1.537860 0.000000 
#    z 0.000000 0.000000 1.549840 
# 
# From -- ./inp_files/3971.got.cif
#   From: 2010.05.17/outbox.cif.g08.bks.cpg/sg23_2_cif.got.tgz:3971.got - 2010.06.04 12:02:01.
