data_PCOD9329495
_publ_section_title
;
Structure prediction by ZEFSAII (Michael W. Deem and Ramdas Pophale) SiO2 
 PCOD9329495
Probable space group: I 2 2 2
;
_chemical_formula_sum "Si O2"
_cell_formula_units_Z 42
_cell_length_a 5.688739
_cell_length_b 12.294965
_cell_length_c 25.394516
_cell_angle_alpha 90.000000
_cell_angle_beta 90.000000
_cell_angle_gamma 90.000000
_cell_volume 1776.164745
_symmetry_space_group_name_H-M "I 2 2 2"
_symmetry_group_IT_number 23
_symmetry_cell_setting 'orthorhombic'
loop_
_space_group_symop_operation_xyz
x,y,z
-x,-y,z
x,-y,-z
-x,y,-z
1/2+x,1/2+y,1/2+z
1/2-x,1/2-y,1/2+z
1/2+x,1/2-y,1/2-z
1/2-x,1/2+y,1/2-z
loop_
_atom_site_type_symbol
_atom_site_label
_atom_site_fract_x
_atom_site_fract_y
_atom_site_fract_z
Si Si1 0.093730 0.153129 0.150917
Si Si2 0.389161 0.615823 0.056974
Si Si3 0.595286 0.102510 0.326959
Si Si4 0.096981 0.853756 0.723500
Si Si5 0.094012 0.319197 0.364051
Si Si6 0.500000 0.000000 0.500000
O O1 0.098891 0.284228 0.142528
O O2 0.080114 0.139995 0.213975
O O3 0.348818 0.117757 0.130726
O O4 0.840445 0.118158 0.129190
O O5 0.500000 0.500000 0.076442
O O6 0.405776 0.713678 0.097592
O O7 0.500000 0.644509 0.000000
O O8 0.136285 0.580964 0.037907
O O9 0.364279 0.109217 0.289182
O O10 0.853595 0.095001 0.300150
O O11 0.500000 0.000000 0.359295
O O12 0.092868 0.735140 0.694849
#
# Coordination Sequence:
#
# PCOD9329495 Si02
#       6
#     8   8   8   8   8   2
#     4  10  20  32  48  65  94 124 158 198 250 297
#     4   9  20  33  47  64  92 128 160 211 256 282
#     4  10  18  28  44  64  88 117 157 195 229 266
#     4  10  19  34  45  64  96 126 154 197 252 295
#     4  10  19  29  48  67  80 117 167 195 231 288
#     4   8  18  36  48  54  96 128 158 196 280 284
#
# _framework density 23.646453000000001
#
# number of rings (size 3 to 8) (size 9 to 14) (size 15 to 20)
#    0.000    2.476    0.000    6.286    5.333    6.095 
#    1.714    0.000    0.000    0.000    0.000    0.000 
#    0.000    0.000    0.000    0.000    0.000  185.714 
#
# Total GULP energy -117050.457792 kJ/mol
# GULP energy per Si atom -5573.831323 kJ/mol
# Density = 2.359263 g / cm^3
# Si number density = 23.646453 Si / 1000 Ang^3
#
#
#
# Elastic Constant Matrix: (Units=GPa)
#
#
# Indices 1 2 3 4 5 6 
#
# 1 275.5111 49.1988 45.5177 0.0000 0.0000 0.0000
# 2 49.1988 43.5216 18.2029 0.0000 0.0000 0.0000
# 3 45.5177 18.2029 91.7920 0.0000 0.0000 0.0000
# 4 0.0000 0.0000 0.0000 -23.5688 0.0000 0.0000
# 5 0.0000 0.0000 0.0000 0.0000 63.0036 0.0000
# 6 0.0000 0.0000 0.0000 0.0000 0.0000 163.7514
#
#
#
# Elastic Compliance Matrix: (Units=1/GPa)
#
#
# Indices 1 2 3 4 5 6 
#
# 1 0.004706 -0.004736 -0.001394 0.000000 0.000000 0.000000
# 2 -0.004736 0.029823 -0.003565 0.000000 0.000000 0.000000
# 3 -0.001394 -0.003565 0.012293 0.000000 0.000000 0.000000
# 4 0.000000 0.000000 0.000000 -0.042429 0.000000 0.000000
# 5 0.000000 0.000000 0.000000 0.000000 0.015872 0.000000
# 6 0.000000 0.000000 0.000000 0.000000 0.000000 0.006107
#
#
# Mechanical properties :
#
#
# Convention : Reuss Voigt Hill
#
# Bulk Modulus (GPa) = 36.45778 70.74039 53.59909
# Shear Modulus (GPa) = 91.06504 60.49759 75.78132
#
# Velocity S-wave (km/s) = 6.21246 5.06357 5.66721
# Velocity P-wave (km/s) = 8.17991 8.01044 8.09562
#
# Compressibility (1/GPa) = 0.02742899
#
# Stress axis : x y z
#
# Youngs Moduli (GPa) = 212.50535 33.53166 81.35000
#
# Poissons Ratio (x) = 0.15882 0.11342
# Poissons Ratio (y) = 1.00653 0.29003
# Poissons Ratio (z) = 0.29628 0.11955
#
# Static dielectric constant tensor:
#      x y z
#    x 2.063210 0.000000 0.000000 
#    y 0.000000 2.070790 0.000000 
#    z 0.000000 0.000000 1.855380 
# 
# From -- ./inp_files/3335.got.cif
#   From: 2010.05.17/outbox.cif.g08.bks.cpg/sg23_2_cif.got.tgz:3335.got - 2010.06.04 12:02:01.
