data_PCOD9329694
_publ_section_title
;
Structure prediction by ZEFSAII (Michael W. Deem and Ramdas Pophale) SiO2 
 PCOD9329694
Probable space group: I 2 2 2
;
_chemical_formula_sum "Si O2"
_cell_formula_units_Z 44
_cell_length_a 5.536009
_cell_length_b 27.277850
_cell_length_c 12.006892
_cell_angle_alpha 90.000000
_cell_angle_beta 90.000000
_cell_angle_gamma 90.000000
_cell_volume 1813.165841
_symmetry_space_group_name_H-M "I 2 2 2"
_symmetry_group_IT_number 23
_symmetry_cell_setting 'orthorhombic'
loop_
_space_group_symop_operation_xyz
x,y,z
-x,-y,z
x,-y,-z
-x,y,-z
1/2+x,1/2+y,1/2+z
1/2-x,1/2-y,1/2+z
1/2+x,1/2-y,1/2-z
1/2-x,1/2+y,1/2-z
loop_
_atom_site_type_symbol
_atom_site_label
_atom_site_fract_x
_atom_site_fract_y
_atom_site_fract_z
Si Si1 0.622558 0.950137 0.827013
Si Si2 0.212600 0.826982 0.734906
Si Si3 0.832350 0.582319 0.892626
Si Si4 0.213620 0.654334 0.632233
Si Si5 0.747918 0.743763 0.946722
Si Si6 0.000000 0.000000 0.670911
O O1 0.456609 0.930727 0.725747
O O2 0.689348 0.902998 0.901464
O O3 0.853404 0.966341 0.756745
O O4 0.500000 0.000000 0.873349
O O5 0.219720 0.864915 0.631118
O O6 0.460598 0.834068 0.804356
O O7 0.230714 0.773173 0.681279
O O8 0.960935 0.838928 0.796336
O O9 0.655626 0.536731 0.901900
O O10 0.000000 0.583976 0.000000
O O11 0.243430 0.697271 0.542896
O O12 0.500000 0.725287 0.000000
O O13 0.000000 0.726279 0.000000
#
# Coordination Sequence:
#
# PCOD9329694 Si02
#       6
#     8   8   8   8   8   4
#     4   9  20  35  57  86 114 160 208 253 303 366
#     4  11  22  41  63  92 124 168 215 249 306 372
#     4  10  21  33  52  81 122 164 203 250 296 357
#     4  11  22  42  66  94 121 167 211 256 306 380
#     4  12  25  42  65  96 128 162 204 267 324 371
#     4  10  18  37  50  78 117 156 214 242 305 348
#
# _framework density 24.266949
#
# number of rings (size 3 to 8) (size 9 to 14) (size 15 to 20)
#    0.000    1.455    1.818    3.818    0.000    6.182 
#    0.000    0.000    0.000    0.545    0.000    0.000 
#    0.000    0.000    0.000    0.000    0.000    0.000 
#
# Total GULP energy -122852.891560 kJ/mol
# GULP energy per Si atom -5584.222344 kJ/mol
# Density = 2.421172 g / cm^3
# Si number density = 24.266949 Si / 1000 Ang^3
#
#
#
# Elastic Constant Matrix: (Units=GPa)
#
#
# Indices 1 2 3 4 5 6 
#
# 1 180.0004 32.8999 45.4917 0.0000 0.0000 0.0000
# 2 32.8999 114.6133 9.4081 0.0000 0.0000 0.0000
# 3 45.4917 9.4081 41.1775 0.0000 0.0000 0.0000
# 4 0.0000 0.0000 0.0000 29.6574 0.0000 0.0000
# 5 0.0000 0.0000 0.0000 0.0000 26.4816 0.0000
# 6 0.0000 0.0000 0.0000 0.0000 0.0000 38.0320
#
#
#
# Elastic Compliance Matrix: (Units=1/GPa)
#
#
# Indices 1 2 3 4 5 6 
#
# 1 0.007985 -0.001598 -0.008456 0.000000 0.000000 0.000000
# 2 -0.001598 0.009212 -0.000339 0.000000 0.000000 0.000000
# 3 -0.008456 -0.000339 0.033705 0.000000 0.000000 0.000000
# 4 0.000000 0.000000 0.000000 0.033718 0.000000 0.000000
# 5 0.000000 0.000000 0.000000 0.000000 0.037762 0.000000
# 6 0.000000 0.000000 0.000000 0.000000 0.000000 0.026294
#
#
# Mechanical properties :
#
#
# Convention : Reuss Voigt Hill
#
# Bulk Modulus (GPa) = 33.20693 56.82119 45.01406
# Shear Modulus (GPa) = 27.85512 35.36696 31.61104
#
# Velocity S-wave (km/s) = 3.39169 3.82175 3.61312
# Velocity P-wave (km/s) = 5.38997 6.55288 5.99967
#
# Compressibility (1/GPa) = 0.03011419
#
# Stress axis : x y z
#
# Youngs Moduli (GPa) = 125.23856 108.55971 29.66935
#
# Poissons Ratio (x) = 0.17347 0.25089
# Poissons Ratio (y) = 0.20012 0.01007
# Poissons Ratio (z) = 1.05905 0.03684
#
# Static dielectric constant tensor:
#      x y z
#    x 1.904160 0.000000 0.000000 
#    y 0.000000 1.983720 0.000000 
#    z 0.000000 0.000000 1.777440 
# 
# From -- ./inp_files/4859.got.cif
#   From: 2010.05.17/outbox.cif.g08.bks.cpg/sg23_3_cif.got.tgz:4859.got - 2010.06.04 12:02:01.
