data_PCOD9329267
_publ_section_title
;
Structure prediction by ZEFSAII (Michael W. Deem and Ramdas Pophale) SiO2 
 PCOD9329267
Probable space group: F 2 2 2
;
_chemical_formula_sum "Si O2"
_cell_formula_units_Z 64
_cell_length_a 23.266007
_cell_length_b 4.552518
_cell_length_c 22.799951
_cell_angle_alpha 90.000000
_cell_angle_beta 90.000000
_cell_angle_gamma 90.000000
_cell_volume 2414.946087
_symmetry_space_group_name_H-M "F 2 2 2"
_symmetry_group_IT_number 22
_symmetry_cell_setting 'orthorhombic'
loop_
_space_group_symop_operation_xyz
x,y,z
-x,-y,z
x,-y,-z
-x,y,-z
x,1/2+y,1/2+z
-x,1/2-y,1/2+z
x,1/2-y,1/2-z
-x,1/2+y,1/2-z
1/2+x,y,1/2+z
1/2-x,-y,1/2+z
1/2+x,-y,1/2-z
1/2-x,y,1/2-z
1/2+x,1/2+y,z
1/2-x,1/2-y,z
1/2+x,1/2-y,-z
1/2-x,1/2+y,-z
loop_
_atom_site_type_symbol
_atom_site_label
_atom_site_fract_x
_atom_site_fract_y
_atom_site_fract_z
Si Si1 0.959456 0.748824 0.593740
Si Si2 0.097429 0.026971 0.707893
Si Si3 0.863977 0.715843 0.459748
Si Si4 0.708983 0.005200 0.854536
O O1 0.913388 0.522709 0.561877
O O2 0.000000 0.500000 0.620583
O O3 0.931530 0.944264 0.644619
O O4 0.000000 0.000000 0.562810
O O5 0.101063 0.750000 0.750000
O O6 0.162408 0.115692 0.690794
O O7 0.065337 0.250000 0.750000
O O8 0.826349 0.500000 0.500000
O O9 0.827509 0.839184 0.406050
O O10 0.881787 0.000000 0.500000
O O11 0.750000 0.250000 0.827245
O O12 0.750000 0.750000 0.877167
#
# Coordination Sequence:
#
# PCOD9329267 Si02
#       4
#    16  16  16  16
#     4  12  26  49  77 110 154 202 259 325 393 471
#     4  12  26  47  74 108 149 194 249 311 377 455
#     4  12  26  49  77 110 154 202 259 325 393 471
#     4  12  26  47  74 108 149 194 249 311 377 455
#
# _framework density 26.501628
#
# number of rings (size 3 to 8) (size 9 to 14) (size 15 to 20)
#    0.000    0.000    0.000   12.000    0.000    7.500 
#    0.000   12.500    0.000    0.000    0.000    0.000 
#    0.000    0.000    0.000    0.000    0.000    0.000 
#
# Total GULP energy -89214.828438 kJ/mol
# GULP energy per Si atom -5575.926777 kJ/mol
# Density = 2.644131 g / cm^3
# Si number density = 26.501628 Si / 1000 Ang^3
#
#
#
# Elastic Constant Matrix: (Units=GPa)
#
#
# Indices 1 2 3 4 5 6 
#
# 1 93.4867 57.6372 53.4882 -0.0043 0.0022 0.0008
# 2 57.6372 172.9859 60.1651 0.0064 -0.0034 -0.0502
# 3 53.4882 60.1651 154.6067 0.0000 0.0013 -0.0004
# 4 -0.0043 0.0064 0.0000 64.0524 0.0017 -0.0061
# 5 0.0022 -0.0034 0.0013 0.0017 10.9279 -0.0001
# 6 0.0008 -0.0502 -0.0004 -0.0061 -0.0001 85.1124
#
#
#
# Elastic Compliance Matrix: (Units=1/GPa)
#
#
# Indices 1 2 3 4 5 6 
#
# 1 0.015171 -0.003735 -0.003795 0.000001 -0.000004 -0.000002
# 2 -0.003735 0.007605 -0.001667 -0.000001 0.000003 0.000005
# 3 -0.003795 -0.001667 0.008430 0.000000 -0.000001 -0.000001
# 4 0.000001 -0.000001 0.000000 0.015612 -0.000002 0.000001
# 5 -0.000004 0.000003 -0.000001 -0.000002 0.091509 0.000000
# 6 -0.000002 0.000005 -0.000001 0.000001 0.000000 0.011749
#
#
# Mechanical properties :
#
#
# Convention : Reuss Voigt Hill
#
# Bulk Modulus (GPa) = 78.05762 84.85115 81.45438
# Shear Modulus (GPa) = 28.94507 48.67113 38.80810
#
# Velocity S-wave (km/s) = 3.30843 4.29013 3.83086
# Velocity P-wave (km/s) = 6.64170 7.52510 7.09716
#
# Compressibility (1/GPa) = 0.01281105
#
# Stress axis : x y z
#
# Youngs Moduli (GPa) = 65.91670 131.48988 118.62570
#
# Poissons Ratio (x) = 0.49108 0.45020
# Poissons Ratio (y) = 0.24618 0.19780
# Poissons Ratio (z) = 0.25016 0.21925
#
# Static dielectric constant tensor:
#      x y z
#    x 2.170810 0.000000 -0.000010 
#    y 0.000000 2.110160 0.000050 
#    z -0.000010 0.000050 1.694840 
# 
# From -- ./inp_files/45070.got.cif
#   From: 2010.05.17/outbox.cif.g08.bks.cpg/sg22_23_cif.got.tgz:45070.got - 2010.06.03 23:40:54.
