data_PCOD9329327
_publ_section_title
;
Structure prediction by ZEFSAII (Michael W. Deem and Ramdas Pophale) SiO2 
 PCOD9329327
Probable space group: I 2 2 2
;
_chemical_formula_sum "Si O2"
_cell_formula_units_Z 40
_cell_length_a 7.834406
_cell_length_b 32.105018
_cell_length_c 7.682707
_cell_angle_alpha 90.000000
_cell_angle_beta 90.000000
_cell_angle_gamma 90.000000
_cell_volume 1932.383241
_symmetry_space_group_name_H-M "I 2 2 2"
_symmetry_group_IT_number 23
_symmetry_cell_setting 'orthorhombic'
loop_
_space_group_symop_operation_xyz
x,y,z
-x,-y,z
x,-y,-z
-x,y,-z
1/2+x,1/2+y,1/2+z
1/2-x,1/2-y,1/2+z
1/2+x,1/2-y,1/2-z
1/2-x,1/2+y,1/2-z
loop_
_atom_site_type_symbol
_atom_site_label
_atom_site_fract_x
_atom_site_fract_y
_atom_site_fract_z
Si Si1 0.176485 0.748902 0.541540
Si Si2 0.808454 0.048585 0.212132
Si Si3 0.500421 0.106931 0.787106
Si Si4 0.051748 0.298506 0.773591
Si Si5 0.303757 0.546247 0.287956
O O1 0.172161 0.712789 0.395523
O O2 0.338688 0.776759 0.576735
O O3 0.000000 0.773928 0.500000
O O4 0.123358 0.724040 0.716536
O O5 0.671652 0.082879 0.265835
O O6 0.003261 0.056837 0.267028
O O7 0.764299 0.001266 0.266173
O O8 0.804899 0.047304 0.000063
O O9 0.521382 0.152940 0.712381
O O10 0.659840 0.078362 0.733097
O O11 0.500000 0.110460 0.000000
#
# Coordination Sequence:
#
# PCOD9329327 Si02
#       5
#     8   8   8   8   8
#     4   8  19  35  51  72  95 133 170 221 275 317
#     4   8  14  23  35  59  94 130 172 191 243 313
#     4  10  15  26  43  65  94 129 172 213 247 307
#     4   9  18  35  49  72  99 129 182 215 270 317
#     4   8  14  23  36  59  92 135 163 195 247 307
#
# _framework density 20.699828
#
# number of rings (size 3 to 8) (size 9 to 14) (size 15 to 20)
#    1.200    2.000    2.000    1.800    0.000    3.200 
#    3.600    2.000    0.000    0.000    0.000    0.000 
#    0.000    0.000    0.000   54.000    0.800    1.200 
#
# Total GULP energy -111348.495755 kJ/mol
# GULP energy per Si atom -5567.424788 kJ/mol
# Density = 2.065271 g / cm^3
# Si number density = 20.699828 Si / 1000 Ang^3
#
#
#
# Elastic Constant Matrix: (Units=GPa)
#
#
# Indices 1 2 3 4 5 6 
#
# 1 133.5098 115.7506 7.5472 -0.0008 0.0000 0.0001
# 2 115.7506 175.0145 11.1776 -0.0015 0.0000 0.0006
# 3 7.5472 11.1776 67.3488 -0.0017 0.0000 0.0003
# 4 -0.0008 -0.0015 -0.0017 10.1194 0.0000 0.0004
# 5 0.0000 0.0000 0.0000 0.0000 10.9076 -0.0004
# 6 0.0001 0.0006 0.0003 0.0004 -0.0004 5.2250
#
#
#
# Elastic Compliance Matrix: (Units=1/GPa)
#
#
# Indices 1 2 3 4 5 6 
#
# 1 0.017558 -0.011610 -0.000041 0.000000 0.000000 0.000001
# 2 -0.011610 0.013452 -0.000932 0.000001 0.000000 -0.000001
# 3 -0.000041 -0.000932 0.015007 0.000002 0.000000 -0.000001
# 4 0.000000 0.000001 0.000002 0.098820 0.000000 -0.000008
# 5 0.000000 0.000000 0.000000 0.000000 0.091679 0.000006
# 6 0.000001 -0.000001 -0.000001 -0.000008 0.000006 0.191389
#
#
# Mechanical properties :
#
#
# Convention : Reuss Voigt Hill
#
# Bulk Modulus (GPa) = 47.95523 71.64710 59.80117
# Shear Modulus (GPa) = 10.86910 21.34358 16.10634
#
# Velocity S-wave (km/s) = 2.29395 3.21456 2.79245
# Velocity P-wave (km/s) = 5.49850 6.96171 6.27292
#
# Compressibility (1/GPa) = 0.02085278
#
# Stress axis : x y z
#
# Youngs Moduli (GPa) = 56.95461 74.33987 66.63454
#
# Poissons Ratio (x) = 0.86307 0.00272
# Poissons Ratio (y) = 0.66123 0.06207
# Poissons Ratio (z) = 0.00232 0.06925
#
# Static dielectric constant tensor:
#      x y z
#    x 1.731290 0.000000 0.000000 
#    y 0.000000 1.667090 0.000000 
#    z 0.000000 0.000000 2.019250 
# 
# From -- ./inp_files/7204.got.cif
#   From: 2010.05.17/outbox.cif.g08.bks.cpg/sg23_4_cif.got.tgz:7204.got - 2010.06.04 12:02:01.
