data_PCOD9329167
_publ_section_title
;
Structure prediction by ZEFSAII (Michael W. Deem and Ramdas Pophale) SiO2 
 PCOD9329167
Probable space group: F 2 2 2
;
_chemical_formula_sum "Si O2"
_cell_formula_units_Z 60
_cell_length_a 18.705475
_cell_length_b 5.323201
_cell_length_c 27.104308
_cell_angle_alpha 90.000000
_cell_angle_beta 90.000000
_cell_angle_gamma 90.000000
_cell_volume 2698.857348
_symmetry_space_group_name_H-M "F 2 2 2"
_symmetry_group_IT_number 22
_symmetry_cell_setting 'orthorhombic'
loop_
_space_group_symop_operation_xyz
x,y,z
-x,-y,z
x,-y,-z
-x,y,-z
x,1/2+y,1/2+z
-x,1/2-y,1/2+z
x,1/2-y,1/2-z
-x,1/2+y,1/2-z
1/2+x,y,1/2+z
1/2-x,-y,1/2+z
1/2+x,-y,1/2-z
1/2-x,y,1/2-z
1/2+x,1/2+y,z
1/2-x,1/2-y,z
1/2+x,1/2-y,-z
1/2-x,1/2+y,-z
loop_
_atom_site_type_symbol
_atom_site_label
_atom_site_fract_x
_atom_site_fract_y
_atom_site_fract_z
Si Si1 0.374889 0.500000 0.000000
Si Si2 0.641716 0.383710 0.698497
Si Si3 0.750000 0.250000 0.446375
Si Si4 0.750000 0.250000 0.250000
Si Si5 0.500000 0.000000 0.142040
Si Si6 0.000000 0.000000 0.922362
Si Si7 0.750000 0.750000 0.120190
O O1 0.320068 0.710984 0.019719
O O2 0.429720 0.447739 0.044425
O O3 0.625432 0.250000 0.750000
O O4 0.699631 0.588514 0.714771
O O5 0.569881 0.484491 0.675488
O O6 0.681577 0.223266 0.656263
O O7 0.743132 0.500120 0.412955
O O8 0.508721 0.250035 0.109614
#
# Coordination Sequence:
#
# PCOD9329167 Si02
#       7
#     8  16   8   4   8   8   8
#     4  11  26  50  78 109 156 190 258 301 410 432
#     4  12  27  46  74 109 153 205 246 312 372 452
#     4  12  26  42  77 111 142 191 243 318 357 463
#     4  12  24  48  72 108 148 212 242 314 380 436
#     4  12  30  48  78 109 150 195 266 298 380 440
#     4  11  28  53  74 109 150 205 238 327 368 469
#     4  12  24  46  70 110 150 187 251 298 376 434
#
# _framework density 22.231632000000001
#
# number of rings (size 3 to 8) (size 9 to 14) (size 15 to 20)
#    0.000    0.267    2.667    4.800    5.600    6.400 
#    0.000    0.000    0.000    0.000    0.000    0.000 
#    0.000    0.000    0.000    0.000    0.000    0.000 
#
# Total GULP energy -84003.061501 kJ/mol
# GULP energy per Si atom -5600.204100 kJ/mol
# Density = 2.218103 g / cm^3
# Si number density = 22.231632 Si / 1000 Ang^3
#
#
#
# Elastic Constant Matrix: (Units=GPa)
#
#
# Indices 1 2 3 4 5 6 
#
# 1 213.2027 65.8275 115.9226 0.0000 0.0001 0.0017
# 2 65.8275 162.7831 116.0754 -0.0007 0.0000 0.0029
# 3 115.9226 116.0754 182.7002 0.0001 -0.0001 0.0001
# 4 0.0000 -0.0007 0.0001 25.5908 0.0003 -0.0001
# 5 0.0001 0.0000 -0.0001 0.0003 150.3032 -0.0005
# 6 0.0017 0.0029 0.0001 -0.0001 -0.0005 31.0499
#
#
#
# Elastic Compliance Matrix: (Units=1/GPa)
#
#
# Indices 1 2 3 4 5 6 
#
# 1 0.007196 0.000632 -0.004968 0.000000 0.000000 0.000000
# 2 0.000632 0.011287 -0.007572 0.000000 0.000000 -0.000001
# 3 -0.004968 -0.007572 0.013436 0.000000 0.000000 0.000001
# 4 0.000000 0.000000 0.000000 0.039077 0.000000 0.000000
# 5 0.000000 0.000000 0.000000 0.000000 0.006653 0.000000
# 6 0.000000 -0.000001 0.000001 0.000000 0.000000 0.032206
#
#
# Mechanical properties :
#
#
# Convention : Reuss Voigt Hill
#
# Bulk Modulus (GPa) = 123.39155 128.25968 125.82562
# Shear Modulus (GPa) = 36.66456 58.77948 47.72202
#
# Velocity S-wave (km/s) = 4.06545 5.14752 4.63815
# Velocity P-wave (km/s) = 8.81251 9.65127 9.24141
#
# Compressibility (1/GPa) = 0.00810428
#
# Stress axis : x y z
#
# Youngs Moduli (GPa) = 138.96307 88.59840 74.42615
#
# Poissons Ratio (x) = -0.05601 0.36972
# Poissons Ratio (y) = -0.08785 0.56356
# Poissons Ratio (z) = 0.69031 0.67087
#
# Static dielectric constant tensor:
#      x y z
#    x 1.763470 0.000000 0.000000 
#    y 0.000000 1.804610 0.000000 
#    z 0.000000 0.000000 1.838630 
# 
# From -- ./inp_files/2696.got.cif
#   From: 2010.05.17/outbox.cif.g08.bks.cpg/sg22_2_cif.got.tgz:2696.got - 2010.06.03 23:40:54.
