data_PCOD9329882
_publ_section_title
;
Structure prediction by ZEFSAII (Michael W. Deem and Ramdas Pophale) SiO2 
 PCOD9329882
Probable space group: I 2 2 2
;
_chemical_formula_sum "Si O2"
_cell_formula_units_Z 56
_cell_length_a 11.828330
_cell_length_b 20.764673
_cell_length_c 8.790710
_cell_angle_alpha 90.000000
_cell_angle_beta 90.000000
_cell_angle_gamma 90.000000
_cell_volume 2159.098630
_symmetry_space_group_name_H-M "I 2 2 2"
_symmetry_group_IT_number 23
_symmetry_cell_setting 'orthorhombic'
loop_
_space_group_symop_operation_xyz
x,y,z
-x,-y,z
x,-y,-z
-x,y,-z
1/2+x,1/2+y,1/2+z
1/2-x,1/2-y,1/2+z
1/2+x,1/2-y,1/2-z
1/2-x,1/2+y,1/2-z
loop_
_atom_site_type_symbol
_atom_site_label
_atom_site_fract_x
_atom_site_fract_y
_atom_site_fract_z
Si Si1 0.688520 0.538833 0.876325
Si Si2 0.902927 0.782321 0.690636
Si Si3 0.457586 0.139568 0.167905
Si Si4 0.197876 0.261854 0.997357
Si Si5 0.334623 0.411031 0.308591
Si Si6 0.631112 0.106608 0.398963
Si Si7 0.685846 0.366836 0.358236
O O1 0.682036 0.485573 0.741157
O O2 0.798584 0.561574 0.981151
O O3 0.646082 0.602355 0.797226
O O4 0.618972 0.500000 0.000000
O O5 0.979756 0.717282 0.685947
O O6 0.820148 0.764137 0.830552
O O7 0.826768 0.777545 0.539277
O O8 0.919534 0.858703 0.728073
O O9 0.513630 0.097963 0.306763
O O10 0.322363 0.130558 0.159768
O O11 0.500000 0.119901 0.000000
O O12 0.127761 0.325728 0.018133
O O13 0.153045 0.205967 0.107755
O O14 0.348273 0.404165 0.488410
O O15 0.214806 0.385306 0.245023
#
# Coordination Sequence:
#
# PCOD9329882 Si02
#       7
#     8   8   8   8   8   8   8
#     4  10  21  35  54  80 110 153 196 241 280 338
#     4   9  19  32  55  81 110 145 194 248 298 344
#     4  11  21  35  55  83 119 158 191 249 312 362
#     4   9  18  32  54  84 107 144 188 247 305 342
#     4   9  18  36  55  79 110 153 203 243 275 353
#     4  10  19  34  53  80 119 143 194 241 296 365
#     4  10  19  35  57  78 115 150 197 243 291 354
#
# _framework density 25.93675
#
# number of rings (size 3 to 8) (size 9 to 14) (size 15 to 20)
#    0.000    2.286    1.429    2.143    2.000    2.286 
#    0.000    5.000    0.000    0.000    0.000    1.000 
#    4.286    4.571    1.143    0.000    0.000    0.000 
#
# Total GULP energy -155885.338801 kJ/mol
# GULP energy per Si atom -5567.333529 kJ/mol
# Density = 2.587772 g / cm^3
# Si number density = 25.936750 Si / 1000 Ang^3
#
#
#
# Elastic Constant Matrix: (Units=GPa)
#
#
# Indices 1 2 3 4 5 6 
#
# 1 91.8317 25.4947 31.5486 0.0000 0.0000 0.0000
# 2 25.4947 121.2842 74.4826 -0.0001 0.0003 -0.0002
# 3 31.5486 74.4826 135.1436 -0.0009 0.0014 -0.0011
# 4 0.0000 -0.0001 -0.0009 66.0464 0.0005 -0.0004
# 5 0.0000 0.0003 0.0014 0.0005 -11.5948 0.0003
# 6 0.0000 -0.0002 -0.0011 -0.0004 0.0003 -30.4056
#
#
#
# Elastic Compliance Matrix: (Units=1/GPa)
#
#
# Indices 1 2 3 4 5 6 
#
# 1 0.011955 -0.001208 -0.002125 0.000000 0.000000 0.000000
# 2 -0.001208 0.012586 -0.006654 0.000000 -0.000001 0.000000
# 3 -0.002125 -0.006654 0.011563 0.000000 0.000001 0.000000
# 4 0.000000 0.000000 0.000000 0.015141 0.000001 0.000000
# 5 0.000000 -0.000001 0.000001 0.000001 -0.086245 -0.000001
# 6 0.000000 0.000000 0.000000 0.000000 -0.000001 -0.032889
#
#
# Mechanical properties :
#
#
# Convention : Reuss Voigt Hill
#
# Bulk Modulus (GPa) = 62.00102 67.92349 64.96225
# Shear Modulus (GPa) = -117.54077 19.25810 -49.14133
#
# Velocity S-wave (km/s) = -6.73919 2.72785 -4.35749
# Velocity P-wave (km/s) = 6.04970 6.01386 0.46497
#
# Compressibility (1/GPa) = 0.01612877
#
# Stress axis : x y z
#
# Youngs Moduli (GPa) = 83.64767 79.45602 86.48207
#
# Poissons Ratio (x) = 0.09598 0.18378
# Poissons Ratio (y) = 0.10104 0.57548
# Poissons Ratio (z) = 0.17776 0.52873
#
# Static dielectric constant tensor:
#      x y z
#    x 2.109580 0.000000 0.000000 
#    y 0.000000 2.151580 0.000000 
#    z 0.000000 0.000000 2.066160 
# 
# From -- ./inp_files/11372.got.cif
#   From: 2010.05.17/outbox.cif.g08.bks.cpg/sg23_6_cif.got.tgz:11372.got - 2010.06.04 12:02:01.
