data_PCOD9329035
_publ_section_title
;
Structure prediction by ZEFSAII (Michael W. Deem and Ramdas Pophale) SiO2 
 PCOD9329035
Probable space group: F 2 2 2
;
_chemical_formula_sum "Si O2"
_cell_formula_units_Z 64
_cell_length_a 10.105527
_cell_length_b 15.920658
_cell_length_c 16.731725
_cell_angle_alpha 90.000000
_cell_angle_beta 90.000000
_cell_angle_gamma 90.000000
_cell_volume 2691.911005
_symmetry_space_group_name_H-M "F 2 2 2"
_symmetry_group_IT_number 22
_symmetry_cell_setting 'orthorhombic'
loop_
_space_group_symop_operation_xyz
x,y,z
-x,-y,z
x,-y,-z
-x,y,-z
x,1/2+y,1/2+z
-x,1/2-y,1/2+z
x,1/2-y,1/2-z
-x,1/2+y,1/2-z
1/2+x,y,1/2+z
1/2-x,-y,1/2+z
1/2+x,-y,1/2-z
1/2-x,y,1/2-z
1/2+x,1/2+y,z
1/2-x,1/2-y,z
1/2+x,1/2-y,-z
1/2-x,1/2+y,-z
loop_
_atom_site_type_symbol
_atom_site_label
_atom_site_fract_x
_atom_site_fract_y
_atom_site_fract_z
Si Si1 0.813246 0.423617 0.643689
Si Si2 0.280958 0.114313 0.839633
Si Si3 0.942465 0.344060 0.784114
Si Si4 0.352456 0.181742 0.503671
O O1 0.756793 0.516589 0.653246
O O2 0.931980 0.404262 0.705661
O O3 0.694653 0.361861 0.670897
O O4 0.851566 0.398922 0.554321
O O5 0.250000 0.144012 0.750000
O O6 0.437860 0.131111 0.842504
O O7 0.197741 0.159422 0.908081
O O8 0.953768 0.250000 0.750000
O O9 0.500000 0.216495 0.500000
O O10 0.250000 0.250000 0.472149
#
# Coordination Sequence:
#
# PCOD9329035 Si02
#       4
#    16  16  16  16
#     4  11  24  48  76 108 153 207 257 314 391 466
#     4  12  27  44  76 114 152 200 258 320 381 462
#     4  11  24  44  76 111 155 205 257 313 382 463
#     4  12  30  50  75 110 155 208 259 321 394 471
#
# _framework density 23.774932
#
# number of rings (size 3 to 8) (size 9 to 14) (size 15 to 20)
#    0.000    0.500    2.500    6.000   10.500    4.000 
#    0.000    2.500    0.000    0.000    0.000    0.000 
#    0.000    0.000    0.000    0.000    0.000    0.000 
#
# Total GULP energy -89641.484386 kJ/mol
# GULP energy per Si atom -5602.592774 kJ/mol
# Density = 2.372082 g / cm^3
# Si number density = 23.774932 Si / 1000 Ang^3
#
#
#
# Elastic Constant Matrix: (Units=GPa)
#
#
# Indices 1 2 3 4 5 6 
#
# 1 157.1030 38.7652 35.6981 0.0000 0.0000 0.0000
# 2 38.7652 142.8480 19.4076 0.0000 0.0000 0.0000
# 3 35.6981 19.4076 145.1556 0.0000 0.0000 0.0000
# 4 0.0000 0.0000 0.0000 17.3573 0.0000 0.0000
# 5 0.0000 0.0000 0.0000 0.0000 40.8709 0.0000
# 6 0.0000 0.0000 0.0000 0.0000 0.0000 27.1566
#
#
#
# Elastic Compliance Matrix: (Units=1/GPa)
#
#
# Indices 1 2 3 4 5 6 
#
# 1 0.007139 -0.001730 -0.001524 0.000000 0.000000 0.000000
# 2 -0.001730 0.007549 -0.000584 0.000000 0.000000 0.000000
# 3 -0.001524 -0.000584 0.007342 0.000000 0.000000 0.000000
# 4 0.000000 0.000000 0.000000 0.057613 0.000000 0.000000
# 5 0.000000 0.000000 0.000000 0.000000 0.024467 0.000000
# 6 0.000000 0.000000 0.000000 0.000000 0.000000 0.036824
#
#
# Mechanical properties :
#
#
# Convention : Reuss Voigt Hill
#
# Bulk Modulus (GPa) = 69.66988 70.31647 69.99318
# Shear Modulus (GPa) = 32.59577 40.49267 36.54422
#
# Velocity S-wave (km/s) = 3.70674 4.13142 3.92483
# Velocity P-wave (km/s) = 6.90561 7.23867 7.07410
#
# Compressibility (1/GPa) = 0.01435340
#
# Stress axis : x y z
#
# Youngs Moduli (GPa) = 140.08524 132.46291 136.20116
#
# Poissons Ratio (x) = 0.22918 0.20760
# Poissons Ratio (y) = 0.24236 0.07952
# Poissons Ratio (z) = 0.21353 0.07734
#
# Static dielectric constant tensor:
#      x y z
#    x 1.972270 0.000000 0.000000 
#    y 0.000000 1.893220 0.000000 
#    z 0.000000 0.000000 1.921800 
# 
# From -- ./inp_files/35697.got.cif
#   From: 2010.05.17/outbox.cif.g08.bks.cpg/sg22_18_cif.got.tgz:35697.got - 2010.06.03 23:40:54.
