data_PCOD9329152
_publ_section_title
;
Structure prediction by ZEFSAII (Michael W. Deem and Ramdas Pophale) SiO2 
 PCOD9329152
Probable space group: F 2 2 2
;
_chemical_formula_sum "Si O2"
_cell_formula_units_Z 72
_cell_length_a 14.688857
_cell_length_b 13.966768
_cell_length_c 13.827191
_cell_angle_alpha 90.000000
_cell_angle_beta 90.000000
_cell_angle_gamma 90.000000
_cell_volume 2836.729232
_symmetry_space_group_name_H-M "F 2 2 2"
_symmetry_group_IT_number 22
_symmetry_cell_setting 'orthorhombic'
loop_
_space_group_symop_operation_xyz
x,y,z
-x,-y,z
x,-y,-z
-x,y,-z
x,1/2+y,1/2+z
-x,1/2-y,1/2+z
x,1/2-y,1/2-z
-x,1/2+y,1/2-z
1/2+x,y,1/2+z
1/2-x,-y,1/2+z
1/2+x,-y,1/2-z
1/2-x,y,1/2-z
1/2+x,1/2+y,z
1/2-x,1/2-y,z
1/2+x,1/2-y,-z
1/2-x,1/2+y,-z
loop_
_atom_site_type_symbol
_atom_site_label
_atom_site_fract_x
_atom_site_fract_y
_atom_site_fract_z
Si Si1 0.250000 0.750000 0.003381
Si Si2 0.457403 0.606445 0.681715
Si Si3 0.284322 0.893680 0.357958
Si Si4 0.014126 0.686440 0.385326
Si Si5 0.749586 0.608722 0.361759
O O1 0.197018 0.814247 0.925833
O O2 0.217418 0.666285 0.073147
O O3 0.500000 0.500000 0.672126
O O4 0.458304 0.631491 0.798271
O O5 0.504928 0.700035 0.636079
O O6 0.359882 0.603469 0.627011
O O7 0.250000 0.886506 0.250000
O O8 0.382274 0.846586 0.366545
O O9 0.287692 0.004552 0.382333
O O10 0.000000 0.666841 0.500000
O O11 0.750000 0.634477 0.250000
#
# Coordination Sequence:
#
# PCOD9329152 Si02
#       5
#     8  16  16  16  16
#     4  12  26  42  80 106 146 192 264 308 372 458
#     4  11  26  49  75 109 156 199 251 320 394 459
#     4  11  26  49  76 110 156 202 257 317 388 467
#     4  11  27  50  78 113 154 204 260 320 391 465
#     4  11  26  47  75 108 152 199 254 315 387 460
#
# _framework density 25.381342
#
# number of rings (size 3 to 8) (size 9 to 14) (size 15 to 20)
#    0.000    0.889    0.000    5.333   18.667    0.889 
#    8.000    0.000    0.000    0.000    0.000    0.000 
#    0.000    0.000    0.000    0.000    0.000    0.000 
#
# Total GULP energy -100555.198278 kJ/mol
# GULP energy per Si atom -5586.399904 kJ/mol
# Density = 2.532357 g / cm^3
# Si number density = 25.381342 Si / 1000 Ang^3
#
#
#
# Elastic Constant Matrix: (Units=GPa)
#
#
# Indices 1 2 3 4 5 6 
#
# 1 85.7311 15.6990 -18.5583 0.0000 0.0000 0.0000
# 2 15.6990 171.2165 11.4476 0.0000 0.0000 0.0000
# 3 -18.5583 11.4476 107.5905 0.0000 0.0000 0.0000
# 4 0.0000 0.0000 0.0000 94.2530 0.0000 0.0000
# 5 0.0000 0.0000 0.0000 0.0000 34.7089 0.0000
# 6 0.0000 0.0000 0.0000 0.0000 0.0000 31.2896
#
#
#
# Elastic Compliance Matrix: (Units=1/GPa)
#
#
# Indices 1 2 3 4 5 6 
#
# 1 0.012393 -0.001288 0.002275 0.000000 0.000000 0.000000
# 2 -0.001288 0.006016 -0.000862 0.000000 0.000000 0.000000
# 3 0.002275 -0.000862 0.009779 0.000000 0.000000 0.000000
# 4 0.000000 0.000000 0.000000 0.010610 0.000000 0.000000
# 5 0.000000 0.000000 0.000000 0.000000 0.028811 0.000000
# 6 0.000000 0.000000 0.000000 0.000000 0.000000 0.031959
#
#
# Mechanical properties :
#
#
# Convention : Reuss Voigt Hill
#
# Bulk Modulus (GPa) = 35.16721 42.41275 38.78998
# Shear Modulus (GPa) = 45.95650 55.78031 50.86840
#
# Velocity S-wave (km/s) = 4.25978 4.69304 4.48165
# Velocity P-wave (km/s) = 6.17089 6.79063 6.48816
#
# Compressibility (1/GPa) = 0.02843558
#
# Stress axis : x y z
#
# Youngs Moduli (GPa) = 80.69253 166.21374 102.26389
#
# Poissons Ratio (x) = 0.21415 -0.23262
# Poissons Ratio (y) = 0.10396 0.08819
# Poissons Ratio (z) = -0.18355 0.14334
#
# Static dielectric constant tensor:
#      x y z
#    x 2.055320 0.000000 0.000000 
#    y 0.000000 1.932490 0.000000 
#    z 0.000000 0.000000 2.044540 
# 
# From -- ./inp_files/30408.got.cif
#   From: 2010.05.17/outbox.cif.g08.bks.cpg/sg22_16_cif.got.tgz:30408.got - 2010.06.03 23:40:54.
