data_PCOD9329926
_publ_section_title
;
Structure prediction by ZEFSAII (Michael W. Deem and Ramdas Pophale) SiO2 
 PCOD9329926
Probable space group: I 2 2 2
;
_chemical_formula_sum "Si O2"
_cell_formula_units_Z 58
_cell_length_a 8.416556
_cell_length_b 18.517015
_cell_length_c 15.868191
_cell_angle_alpha 90.000000
_cell_angle_beta 90.000000
_cell_angle_gamma 90.000000
_cell_volume 2473.049533
_symmetry_space_group_name_H-M "I 2 2 2"
_symmetry_group_IT_number 23
_symmetry_cell_setting 'orthorhombic'
loop_
_space_group_symop_operation_xyz
x,y,z
-x,-y,z
x,-y,-z
-x,y,-z
1/2+x,1/2+y,1/2+z
1/2-x,1/2-y,1/2+z
1/2+x,1/2-y,1/2-z
1/2-x,1/2+y,1/2-z
loop_
_atom_site_type_symbol
_atom_site_label
_atom_site_fract_x
_atom_site_fract_y
_atom_site_fract_z
Si Si1 0.500000 0.000000 0.000000
Si Si2 0.706110 0.556144 0.117173
Si Si3 0.991451 0.621314 0.201653
Si Si4 0.042785 0.085810 0.778053
Si Si5 0.377278 0.108178 0.871753
Si Si6 0.923108 0.774813 0.132915
Si Si7 0.735317 0.759158 0.964313
Si Si8 0.222268 0.103878 0.428593
O O1 0.392772 0.954096 0.061431
O O2 0.866565 0.561451 0.170719
O O3 0.580671 0.595884 0.178344
O O4 0.657519 0.474197 0.097944
O O5 0.755916 0.590175 0.028074
O O6 0.013106 0.608637 0.300547
O O7 0.917769 0.702223 0.189911
O O8 0.137838 0.614822 0.138901
O O9 0.209558 0.099378 0.824690
O O10 0.929466 0.149247 0.815370
O O11 0.000000 0.000000 0.789121
O O12 0.373912 0.180059 0.925722
O O13 0.092635 0.766879 0.083606
O O14 0.785813 0.769501 0.061906
O O15 0.654380 0.683841 0.938360
#
# Coordination Sequence:
#
# PCOD9329926 Si02
#       8
#     2   8   8   8   8   8   8   8
#     4  12  28  48  58  92 130 174 208 294 340 384
#     4  10  20  34  58 101 128 162 210 269 327 395
#     4  10  19  36  62  95 128 164 216 270 325 395
#     4  10  23  41  63  93 128 174 222 269 321 399
#     4  10  25  42  62  90 132 163 223 274 330 393
#     4   9  18  36  63  91 123 166 220 270 313 391
#     4   9  18  38  59  91 123 167 217 266 322 393
#     4  10  19  34  64  93 131 168 206 266 340 400
#
# _framework density 23.452826000000002
#
# number of rings (size 3 to 8) (size 9 to 14) (size 15 to 20)
#    0.000    2.207    1.379    0.828    5.793    2.207 
#    2.483    2.759    0.000    0.000    0.000    0.000 
#    0.000    0.000    0.000    0.000    0.000    0.000 
#
# Total GULP energy -161731.276020 kJ/mol
# GULP energy per Si atom -5576.940552 kJ/mol
# Density = 2.339945 g / cm^3
# Si number density = 23.452826 Si / 1000 Ang^3
#
#
#
# Elastic Constant Matrix: (Units=GPa)
#
#
# Indices 1 2 3 4 5 6 
#
# 1 40.6214 17.3085 31.1079 0.0000 0.0000 0.0000
# 2 17.3085 149.2365 70.0130 0.0000 0.0000 0.0000
# 3 31.1079 70.0130 166.5575 0.0000 0.0000 0.0000
# 4 0.0000 0.0000 0.0000 -29.8825 0.0000 0.0000
# 5 0.0000 0.0000 0.0000 0.0000 20.7279 0.0000
# 6 0.0000 0.0000 0.0000 0.0000 0.0000 44.4082
#
#
#
# Elastic Compliance Matrix: (Units=1/GPa)
#
#
# Indices 1 2 3 4 5 6 
#
# 1 0.028850 -0.001019 -0.004960 0.000000 0.000000 0.000000
# 2 -0.001019 0.008383 -0.003333 0.000000 0.000000 0.000000
# 3 -0.004960 -0.003333 0.008332 0.000000 0.000000 0.000000
# 4 0.000000 0.000000 0.000000 -0.033464 0.000000 0.000000
# 5 0.000000 0.000000 0.000000 0.000000 0.048244 0.000000
# 6 0.000000 0.000000 0.000000 0.000000 0.000000 0.022518
#
#
# Mechanical properties :
#
#
# Convention : Reuss Voigt Hill
#
# Bulk Modulus (GPa) = 37.12024 65.91936 51.51980
# Shear Modulus (GPa) = 45.26230 22.91646 34.08938
#
# Velocity S-wave (km/s) = 4.39786 3.12930 3.81665
# Velocity P-wave (km/s) = 6.45370 6.42066 6.43720
#
# Compressibility (1/GPa) = 0.02693948
#
# Stress axis : x y z
#
# Youngs Moduli (GPa) = 34.66193 119.29176 120.02640
#
# Poissons Ratio (x) = 0.12157 0.59532
# Poissons Ratio (y) = 0.03533 0.40010
# Poissons Ratio (z) = 0.17192 0.39765
#
# Static dielectric constant tensor:
#      x y z
#    x 2.015240 0.000000 0.000000 
#    y 0.000000 1.928970 0.000000 
#    z 0.000000 0.000000 1.848070 
# 
# From -- ./inp_files/21010.got.cif
#   From: 2010.05.17/outbox.cif.g08.bks.cpg/sg23_11_cif.got.tgz:21010.got - 2010.06.04 12:02:01.
