data_PCOD9329004
_publ_section_title
;
Structure prediction by ZEFSAII (Michael W. Deem and Ramdas Pophale) SiO2 
 PCOD9329004
Probable space group: F 2 2 2
;
_chemical_formula_sum "Si O2"
_cell_formula_units_Z 80
_cell_length_a 8.472027
_cell_length_b 16.180003
_cell_length_c 27.125376
_cell_angle_alpha 90.000000
_cell_angle_beta 90.000000
_cell_angle_gamma 90.000000
_cell_volume 3718.276620
_symmetry_space_group_name_H-M "F 2 2 2"
_symmetry_group_IT_number 22
_symmetry_cell_setting 'orthorhombic'
loop_
_space_group_symop_operation_xyz
x,y,z
-x,-y,z
x,-y,-z
-x,y,-z
x,1/2+y,1/2+z
-x,1/2-y,1/2+z
x,1/2-y,1/2-z
-x,1/2+y,1/2-z
1/2+x,y,1/2+z
1/2-x,-y,1/2+z
1/2+x,-y,1/2-z
1/2-x,y,1/2-z
1/2+x,1/2+y,z
1/2-x,1/2-y,z
1/2+x,1/2-y,-z
1/2-x,1/2+y,-z
loop_
_atom_site_type_symbol
_atom_site_label
_atom_site_fract_x
_atom_site_fract_y
_atom_site_fract_z
Si Si1 0.927377 0.647775 0.854348
Si Si2 0.570400 0.154415 0.357410
Si Si3 0.943057 0.845256 0.751260
Si Si4 0.374269 0.328255 0.043642
Si Si5 0.421861 0.089108 0.047480
O O1 0.747579 0.620109 0.865806
O O2 0.915733 0.746696 0.848754
O O3 0.986608 0.615065 0.801306
O O4 0.037961 0.629718 0.900334
O O5 0.510111 0.119589 0.304716
O O6 0.463113 0.152290 0.405365
O O7 0.000347 0.750000 0.750000
O O8 0.750000 0.843746 0.750000
O O9 0.250000 0.250000 0.046215
O O10 0.261368 0.406777 0.035948
O O11 0.500000 0.317848 0.000000
O O12 0.500000 0.000000 0.050632
O O13 0.500000 0.132195 0.000000
#
# Coordination Sequence:
#
# PCOD9329004 Si02
#       5
#    16  16  16  16  16
#     4   9  16  32  58  83 117 159 201 248 302 361
#     4   9  17  30  57  89 117 148 199 258 307 354
#     4   7  12  25  49  83 114 151 192 240 301 356
#     4  12  24  37  61  93 124 158 211 269 320 371
#     4  11  24  42  58  80 121 169 207 250 316 382
#
# _framework density 21.515343999999999
#
# number of rings (size 3 to 8) (size 9 to 14) (size 15 to 20)
#    0.000    2.400    2.000    4.200    2.800    0.000 
#    0.000    8.000    0.000    7.200    0.000    0.000 
#    0.000    0.000    0.000    0.000    0.000    0.000 
#
# Total GULP energy -111342.032871 kJ/mol
# GULP energy per Si atom -5567.101644 kJ/mol
# Density = 2.146637 g / cm^3
# Si number density = 21.515344 Si / 1000 Ang^3
#
#
#
# Elastic Constant Matrix: (Units=GPa)
#
#
# Indices 1 2 3 4 5 6 
#
# 1 95.4229 17.1862 79.0536 0.0000 0.0000 0.0000
# 2 17.1862 34.4237 9.2926 0.0000 0.0000 0.0000
# 3 79.0536 9.2926 223.2890 0.0000 0.0000 0.0000
# 4 0.0000 0.0000 0.0000 -23.6312 0.0000 0.0000
# 5 0.0000 0.0000 0.0000 0.0000 32.9420 0.0000
# 6 0.0000 0.0000 0.0000 0.0000 0.0000 14.7259
#
#
#
# Elastic Compliance Matrix: (Units=1/GPa)
#
#
# Indices 1 2 3 4 5 6 
#
# 1 0.016191 -0.006610 -0.005457 0.000000 0.000000 0.000000
# 2 -0.006610 0.032079 0.001005 0.000000 0.000000 0.000000
# 3 -0.005457 0.001005 0.006369 0.000000 0.000000 0.000000
# 4 0.000000 0.000000 0.000000 -0.042317 0.000000 0.000000
# 5 0.000000 0.000000 0.000000 0.000000 0.030356 0.000000
# 6 0.000000 0.000000 0.000000 0.000000 0.000000 0.067907
#
#
# Mechanical properties :
#
#
# Convention : Reuss Voigt Hill
#
# Bulk Modulus (GPa) = 30.75597 62.68893 46.72245
# Shear Modulus (GPa) = 34.83142 21.31423 28.07282
#
# Velocity S-wave (km/s) = 4.02793 3.15088 3.61609
# Velocity P-wave (km/s) = 5.99652 6.51441 6.26082
#
# Compressibility (1/GPa) = 0.03251402
#
# Stress axis : x y z
#
# Youngs Moduli (GPa) = 61.76125 31.17336 157.01597
#
# Poissons Ratio (x) = 0.20607 0.85689
# Poissons Ratio (y) = 0.40827 -0.15786
# Poissons Ratio (z) = 0.33705 -0.03134
#
# Static dielectric constant tensor:
#      x y z
#    x 1.825710 0.000000 0.000000 
#    y 0.000000 1.855150 0.000000 
#    z 0.000000 0.000000 1.885840 
# 
# From -- ./inp_files/51797.got.cif
#   From: 2010.05.17/outbox.cif.g08.bks.cpg/sg22_26_cif.got.tgz:51797.got - 2010.06.03 23:40:54.
