data_PCOD9329227
_publ_section_title
;
Structure prediction by ZEFSAII (Michael W. Deem and Ramdas Pophale) SiO2 
 PCOD9329227
Probable space group: F 2 2 2
;
_chemical_formula_sum "Si O2"
_cell_formula_units_Z 60
_cell_length_a 8.327485
_cell_length_b 16.633044
_cell_length_c 17.781675
_cell_angle_alpha 90.000000
_cell_angle_beta 90.000000
_cell_angle_gamma 90.000000
_cell_volume 2462.965133
_symmetry_space_group_name_H-M "F 2 2 2"
_symmetry_group_IT_number 22
_symmetry_cell_setting 'orthorhombic'
loop_
_space_group_symop_operation_xyz
x,y,z
-x,-y,z
x,-y,-z
-x,y,-z
x,1/2+y,1/2+z
-x,1/2-y,1/2+z
x,1/2-y,1/2-z
-x,1/2+y,1/2-z
1/2+x,y,1/2+z
1/2-x,-y,1/2+z
1/2+x,-y,1/2-z
1/2-x,y,1/2-z
1/2+x,1/2+y,z
1/2-x,1/2-y,z
1/2+x,1/2-y,-z
1/2-x,1/2+y,-z
loop_
_atom_site_type_symbol
_atom_site_label
_atom_site_fract_x
_atom_site_fract_y
_atom_site_fract_z
Si Si1 0.000000 0.500000 0.500000
Si Si2 0.750000 0.464014 0.750000
Si Si3 0.500000 0.178720 0.000000
Si Si4 0.750000 0.250000 0.389429
Si Si5 0.901946 0.092184 0.138640
Si Si6 0.731522 0.846396 0.131373
O O1 0.889627 0.553134 0.555378
O O2 0.846539 0.524543 0.696542
O O3 0.651884 0.401050 0.696893
O O4 0.600393 0.233012 0.056831
O O5 0.368757 0.137787 0.054992
O O6 0.790593 0.331102 0.347058
O O7 0.085668 0.122471 0.135434
O O8 0.750000 0.750000 0.143075
#
# Coordination Sequence:
#
# PCOD9329227 Si02
#       6
#     4   8   8   8  16  16
#     4  12  22  52  84 108 164 220 268 364 404 496
#     4  12  29  53  80 120 174 224 276 353 437 496
#     4  12  23  44  87 120 160 212 286 343 412 503
#     4  12  24  45  76 125 156 218 282 344 418 503
#     4  12  27  51  84 117 167 219 283 350 424 506
#     4  12  25  53  83 123 170 218 283 354 423 515
#
# _framework density 24.360880000000002
#
# number of rings (size 3 to 8) (size 9 to 14) (size 15 to 20)
#    0.000    0.000    6.667    2.800    0.000    4.800 
#    4.800    1.333    0.000    0.000    0.000    0.000 
#    0.000    0.000    0.000    0.000    0.000    0.000 
#
# Total GULP energy -83765.746778 kJ/mol
# GULP energy per Si atom -5584.383119 kJ/mol
# Density = 2.430543 g / cm^3
# Si number density = 24.360880 Si / 1000 Ang^3
#
#
#
# Elastic Constant Matrix: (Units=GPa)
#
#
# Indices 1 2 3 4 5 6 
#
# 1 100.7342 68.6341 51.1654 0.0000 0.0000 0.0000
# 2 68.6341 221.0487 98.3482 0.0000 0.0000 0.0000
# 3 51.1654 98.3482 165.7122 0.0000 0.0000 0.0000
# 4 0.0000 0.0000 0.0000 554.5645 0.0000 0.0000
# 5 0.0000 0.0000 0.0000 0.0000 34.5720 0.0000
# 6 0.0000 0.0000 0.0000 0.0000 0.0000 39.8071
#
#
#
# Elastic Compliance Matrix: (Units=1/GPa)
#
#
# Indices 1 2 3 4 5 6 
#
# 1 0.013169 -0.003098 -0.002228 0.000000 0.000000 0.000000
# 2 -0.003098 0.006876 -0.003124 0.000000 0.000000 0.000000
# 3 -0.002228 -0.003124 0.008577 0.000000 0.000000 0.000000
# 4 0.000000 0.000000 0.000000 0.001803 0.000000 0.000000
# 5 0.000000 0.000000 0.000000 0.000000 0.028925 0.000000
# 6 0.000000 0.000000 0.000000 0.000000 0.000000 0.025121
#
#
# Mechanical properties :
#
#
# Convention : Reuss Voigt Hill
#
# Bulk Modulus (GPa) = 85.30796 102.64340 93.97568
# Shear Modulus (GPa) = 47.49342 143.74521 95.61932
#
# Velocity S-wave (km/s) = 4.42019 7.68991 6.27187
# Velocity P-wave (km/s) = 7.81954 11.00328 9.54509
#
# Compressibility (1/GPa) = 0.01172224
#
# Stress axis : x y z
#
# Youngs Moduli (GPa) = 75.93439 145.43856 116.59750
#
# Poissons Ratio (x) = 0.45055 0.25973
# Poissons Ratio (y) = 0.23524 0.36427
# Poissons Ratio (z) = 0.16915 0.45438
#
# Static dielectric constant tensor:
#      x y z
#    x 2.010740 0.000000 0.000000 
#    y 0.000000 1.964410 0.000000 
#    z 0.000000 0.000000 2.025940 
# 
# From -- ./inp_files/11009.got.cif
#   From: 2010.05.17/outbox.cif.g08.bks.cpg/sg22_6_cif.got.tgz:11009.got - 2010.06.03 23:40:54.
