data_PCOD9329209
_publ_section_title
;
Structure prediction by ZEFSAII (Michael W. Deem and Ramdas Pophale) SiO2 
 PCOD9329209
Probable space group: F 2 2 2
;
_chemical_formula_sum "Si O2"
_cell_formula_units_Z 88
_cell_length_a 21.219295
_cell_length_b 13.641904
_cell_length_c 15.537989
_cell_angle_alpha 90.000000
_cell_angle_beta 90.000000
_cell_angle_gamma 90.000000
_cell_volume 4497.806309
_symmetry_space_group_name_H-M "F 2 2 2"
_symmetry_group_IT_number 22
_symmetry_cell_setting 'orthorhombic'
loop_
_space_group_symop_operation_xyz
x,y,z
-x,-y,z
x,-y,-z
-x,y,-z
x,1/2+y,1/2+z
-x,1/2-y,1/2+z
x,1/2-y,1/2-z
-x,1/2+y,1/2-z
1/2+x,y,1/2+z
1/2-x,-y,1/2+z
1/2+x,-y,1/2-z
1/2-x,y,1/2-z
1/2+x,1/2+y,z
1/2-x,1/2-y,z
1/2+x,1/2-y,-z
1/2-x,1/2+y,-z
loop_
_atom_site_type_symbol
_atom_site_label
_atom_site_fract_x
_atom_site_fract_y
_atom_site_fract_z
Si Si1 0.849830 0.500000 0.000000
Si Si2 0.549263 0.585610 0.633830
Si Si3 0.750000 0.508404 0.250000
Si Si4 0.254941 0.634550 0.922637
Si Si5 0.611970 0.110406 0.481373
Si Si6 0.000000 0.756775 0.500000
Si Si7 0.361055 0.856707 0.279432
O O1 0.894988 0.461470 0.075771
O O2 0.803671 0.589562 0.024549
O O3 0.500000 0.500000 0.649717
O O4 0.516904 0.671905 0.579087
O O5 0.577349 0.625235 0.722102
O O6 0.746827 0.575658 0.166167
O O7 0.689574 0.438252 0.246864
O O8 0.250000 0.750000 0.908999
O O9 0.320557 0.617140 0.971781
O O10 0.560737 0.188142 0.515059
O O11 0.623956 0.133022 0.380423
O O12 0.588708 0.000000 0.500000
O O13 0.336872 0.750000 0.250000
#
# Coordination Sequence:
#
# PCOD9329209 Si02
#       7
#     8  16   8  16  16   8  16
#     4  12  21  46  74 101 140 184 242 312 356 443
#     4  12  25  44  74 104 139 187 250 307 368 438
#     4  12  24  48  70 104 150 182 246 320 358 444
#     4  12  26  43  74 106 144 194 241 300 384 442
#     4  12  26  48  71 105 149 195 243 306 383 443
#     4  12  24  46  74 102 144 196 248 300 370 458
#     4  12  26  46  72 108 141 190 252 308 370 455
#
# _framework density 19.565093999999998
#
# number of rings (size 3 to 8) (size 9 to 14) (size 15 to 20)
#    0.000    0.000    8.182    1.909    0.000    1.455 
#    0.000    0.000    4.000    0.000    0.000    0.000 
#    0.000    0.000    0.000    0.000    0.000    0.000 
#
# Total GULP energy -123100.601123 kJ/mol
# GULP energy per Si atom -5595.481869 kJ/mol
# Density = 1.952056 g / cm^3
# Si number density = 19.565094 Si / 1000 Ang^3
#
#
#
# Elastic Constant Matrix: (Units=GPa)
#
#
# Indices 1 2 3 4 5 6 
#
# 1 107.8565 46.3169 57.5938 0.0000 0.0000 0.0000
# 2 46.3169 157.9403 29.1001 0.0000 0.0000 0.0000
# 3 57.5938 29.1001 75.2603 0.0000 0.0000 0.0000
# 4 0.0000 0.0000 0.0000 78.3826 0.0000 0.0000
# 5 0.0000 0.0000 0.0000 0.0000 38.7794 0.0000
# 6 0.0000 0.0000 0.0000 0.0000 0.0000 32.1406
#
#
#
# Elastic Compliance Matrix: (Units=1/GPa)
#
#
# Indices 1 2 3 4 5 6 
#
# 1 0.016711 -0.002740 -0.011729 0.000000 0.000000 0.000000
# 2 -0.002740 0.007266 -0.000713 0.000000 0.000000 0.000000
# 3 -0.011729 -0.000713 0.022539 0.000000 0.000000 0.000000
# 4 0.000000 0.000000 0.000000 0.012758 0.000000 0.000000
# 5 0.000000 0.000000 0.000000 0.000000 0.025787 0.000000
# 6 0.000000 0.000000 0.000000 0.000000 0.000000 0.031113
#
#
# Mechanical properties :
#
#
# Convention : Reuss Voigt Hill
#
# Bulk Modulus (GPa) = 61.90930 67.45319 64.68124
# Shear Modulus (GPa) = 32.91153 43.73027 38.32090
#
# Velocity S-wave (km/s) = 4.10586 4.73283 4.43045
# Velocity P-wave (km/s) = 7.36131 8.02604 7.70085
#
# Compressibility (1/GPa) = 0.01615266
#
# Stress axis : x y z
#
# Youngs Moduli (GPa) = 59.83988 137.62173 44.36788
#
# Poissons Ratio (x) = 0.37703 0.52040
# Poissons Ratio (y) = 0.16394 0.03164
# Poissons Ratio (z) = 0.70187 0.09813
#
# Static dielectric constant tensor:
#      x y z
#    x 1.560710 0.000000 0.000000 
#    y 0.000000 1.688320 0.000000 
#    z 0.000000 0.000000 1.666840 
# 
# From -- ./inp_files/29310.got.cif
#   From: 2010.05.17/outbox.cif.g08.bks.cpg/sg22_15_cif.got.tgz:29310.got - 2010.06.03 23:40:54.
