data_PCOD9329289
_publ_section_title
;
Structure prediction by ZEFSAII (Michael W. Deem and Ramdas Pophale) SiO2 
 PCOD9329289
Probable space group: F 2 2 2
;
_chemical_formula_sum "Si O2"
_cell_formula_units_Z 30
_cell_length_a 24.000000
_cell_length_b 21.000000
_cell_length_c 12.000000
_cell_angle_alpha 90.000000
_cell_angle_beta 90.000000
_cell_angle_gamma 90.000000
_cell_volume 6048.000000
_symmetry_space_group_name_H-M "F 2 2 2"
_symmetry_group_IT_number 22
_symmetry_cell_setting 'orthorhombic'
loop_
_space_group_symop_operation_xyz
x,y,z
-x,-y,z
x,-y,-z
-x,y,-z
x,1/2+y,1/2+z
-x,1/2-y,1/2+z
x,1/2-y,1/2-z
-x,1/2+y,1/2-z
1/2+x,y,1/2+z
1/2-x,-y,1/2+z
1/2+x,-y,1/2-z
1/2-x,y,1/2-z
1/2+x,1/2+y,z
1/2-x,1/2-y,z
1/2+x,1/2-y,-z
1/2-x,1/2+y,-z
loop_
_atom_site_type_symbol
_atom_site_label
_atom_site_fract_x
_atom_site_fract_y
_atom_site_fract_z
Si Si1 0.185516 0.476270 0.252608
Si Si2 0.906424 0.435127 0.926163
Si Si3 0.890823 0.250000 0.250000
Si Si4 0.491231 0.428328 0.740287
Si Si5 0.636652 0.605949 0.778573
Si Si6 0.622957 0.434936 0.971088
Si Si7 0.542565 0.173305 0.603438
Si Si8 0.435050 0.201741 0.991249
O O1 0.250000 0.458348 0.250000
O O2 0.143108 0.442113 0.165894
O O3 0.178102 0.552444 0.229940
O O4 0.166011 0.459414 0.378477
O O5 0.966606 0.434729 0.863800
O O6 0.904030 0.500000 0.000000
O O7 0.903097 0.365453 0.987394
O O8 0.858824 0.317976 0.261599
O O9 0.922512 0.235517 0.369835
O O10 0.500000 0.500000 0.794334
O O11 0.424675 0.417583 0.735374
O O12 0.509595 0.359977 0.795015
O O13 0.640930 0.594109 0.911272
O O14 0.588811 0.379633 0.914613
O O15 0.589741 0.500000 0.000000
O O16 0.500000 0.170466 0.500000
O O17 0.569737 0.243560 0.588661
O O18 0.500000 0.184746 0.000000
#
# Coordination Sequence:
#
# PCOD9329289 Si02
#       8
#    16  16   8  16  16  16  16  16
#     4  11  25  46  70  95 123 168 232 296 343 386
#     4  12  27  42  65  97 136 185 224 271 337 412
#     4  12  22  42  61  94 138 176 219 252 334 408
#     4  12  22  37  64  99 138 175 216 268 332 407
#     4  11  21  39  66  97 132 171 212 274 331 407
#     4  10  19  37  63  94 123 166 213 276 323 380
#     4  11  20  35  59 101 136 172 214 255 326 390
#     4  11  25  39  61  96 145 185 212 263 320 408
#
# _framework density 4.9603169999999999
#
# number of rings (size 3 to 8) (size 9 to 14) (size 15 to 20)
#    0.000    0.800    5.333    3.200    1.867    2.133 
#    0.000    0.333    0.000    1.600    0.000    0.000 
#    0.000    0.000    0.000    0.000    0.000    0.000 
#
# Total GULP energy -167106.672962 kJ/mol
# GULP energy per Si atom -5570.222432 kJ/mol
# Density = 0.494903 g / cm^3
# Si number density = 4.960317 Si / 1000 Ang^3
#
#
#
# Elastic Constant Matrix: (Units=GPa)
#
#
# Indices 1 2 3 4 5 6 
#
# 1 69.8371 23.5246 25.9042 0.0000 0.0000 0.0000
# 2 23.5246 170.5521 27.9429 0.0000 0.0000 0.0000
# 3 25.9042 27.9429 86.8736 0.0000 0.0000 0.0000
# 4 0.0000 0.0000 0.0000 43.9623 0.0000 0.0000
# 5 0.0000 0.0000 0.0000 0.0000 14.7157 0.0000
# 6 0.0000 0.0000 0.0000 0.0000 0.0000 18.7316
#
#
#
# Elastic Compliance Matrix: (Units=1/GPa)
#
#
# Indices 1 2 3 4 5 6 
#
# 1 0.016479 -0.001550 -0.004415 0.000000 0.000000 0.000000
# 2 -0.001550 0.006335 -0.001576 0.000000 0.000000 0.000000
# 3 -0.004415 -0.001576 0.013334 0.000000 0.000000 0.000000
# 4 0.000000 0.000000 0.000000 0.022747 0.000000 0.000000
# 5 0.000000 0.000000 0.000000 0.000000 0.067954 0.000000
# 6 0.000000 0.000000 0.000000 0.000000 0.000000 0.053386
#
#
# Mechanical properties :
#
#
# Convention : Reuss Voigt Hill
#
# Bulk Modulus (GPa) = 47.46691 53.55626 50.51159
# Shear Modulus (GPa) = 24.71104 32.14133 28.42619
#
# Velocity S-wave (km/s) = 3.53290 4.02919 3.78918
# Velocity P-wave (km/s) = 6.37316 6.97831 6.68259
#
# Compressibility (1/GPa) = 0.02106731
#
# Stress axis : x y z
#
# Youngs Moduli (GPa) = 60.68426 157.84828 74.99431
#
# Poissons Ratio (x) = 0.24460 0.33112
# Poissons Ratio (y) = 0.09403 0.11817
# Poissons Ratio (z) = 0.26794 0.24872
#
# Static dielectric constant tensor:
#      x y z
#    x 1.688170 0.000000 0.000000 
#    y 0.000000 1.759990 0.000000 
#    z 0.000000 0.000000 1.826670 
# 
# From -- ./inp_files/24002.got.cif
#   From: 2010.05.17/outbox.ucp.g08.bks.cvg/sg22_13_cif.got.tgz:24002.got - 2010.06.11 15:16:44.
