data_PCOD9329029
_publ_section_title
;
Structure prediction by ZEFSAII (Michael W. Deem and Ramdas Pophale) SiO2 
 PCOD9329029
Probable space group: F 2 2 2
;
_chemical_formula_sum "Si O2"
_cell_formula_units_Z 68
_cell_length_a 9.330938
_cell_length_b 22.018167
_cell_length_c 16.089334
_cell_angle_alpha 90.000000
_cell_angle_beta 90.000000
_cell_angle_gamma 90.000000
_cell_volume 3305.556102
_symmetry_space_group_name_H-M "F 2 2 2"
_symmetry_group_IT_number 22
_symmetry_cell_setting 'orthorhombic'
loop_
_space_group_symop_operation_xyz
x,y,z
-x,-y,z
x,-y,-z
-x,y,-z
x,1/2+y,1/2+z
-x,1/2-y,1/2+z
x,1/2-y,1/2-z
-x,1/2+y,1/2-z
1/2+x,y,1/2+z
1/2-x,-y,1/2+z
1/2+x,-y,1/2-z
1/2-x,y,1/2-z
1/2+x,1/2+y,z
1/2-x,1/2-y,z
1/2+x,1/2-y,-z
1/2-x,1/2+y,-z
loop_
_atom_site_type_symbol
_atom_site_label
_atom_site_fract_x
_atom_site_fract_y
_atom_site_fract_z
Si Si1 0.795044 0.817247 0.070769
Si Si2 0.207140 0.040954 0.658205
Si Si3 0.750000 0.250000 0.250000
Si Si4 0.115037 0.659252 0.382846
Si Si5 0.579426 0.423873 0.588789
O O1 0.750000 0.750000 0.096320
O O2 0.668840 0.863086 0.092849
O O3 0.944050 0.839222 0.109944
O O4 0.821480 0.818504 0.971226
O O5 0.250000 0.021267 0.750000
O O6 0.319271 0.092108 0.630086
O O7 0.049156 0.071635 0.655207
O O8 0.184107 0.981245 0.602312
O O9 0.837939 0.295068 0.310143
O O10 0.500000 0.426954 0.500000
#
# Coordination Sequence:
#
# PCOD9329029 Si02
#       5
#    16  16   4  16  16
#     4  11  26  43  70 109 137 182 239 298 347 426
#     4  11  24  44  71 102 139 190 232 290 361 417
#     4  12  24  48  70 104 148 190 228 288 376 424
#     4  11  25  42  72 104 139 186 234 294 351 425
#     4  11  25  46  74 100 140 189 240 292 352 426
#
# _framework density 20.571425000000001
#
# number of rings (size 3 to 8) (size 9 to 14) (size 15 to 20)
#    0.000    0.941    4.706    1.412    6.588    4.706 
#    0.000    5.294    0.000    0.000    0.000    0.000 
#    0.000    0.000    0.000    0.000    0.000    0.000 
#
# Total GULP energy -95045.371925 kJ/mol
# GULP energy per Si atom -5590.904231 kJ/mol
# Density = 2.052460 g / cm^3
# Si number density = 20.571425 Si / 1000 Ang^3
#
#
#
# Elastic Constant Matrix: (Units=GPa)
#
#
# Indices 1 2 3 4 5 6 
#
# 1 96.9610 95.4029 48.3612 0.0000 0.0000 0.0000
# 2 95.4029 200.9068 39.8279 0.0000 0.0000 0.0000
# 3 48.3612 39.8279 81.0261 0.0000 0.0000 0.0000
# 4 0.0000 0.0000 0.0000 24.2214 0.0000 0.0000
# 5 0.0000 0.0000 0.0000 0.0000 31.0796 0.0000
# 6 0.0000 0.0000 0.0000 0.0000 0.0000 31.0908
#
#
#
# Elastic Compliance Matrix: (Units=1/GPa)
#
#
# Indices 1 2 3 4 5 6 
#
# 1 0.025126 -0.009926 -0.010118 0.000000 0.000000 0.000000
# 2 -0.009926 0.009436 0.001286 0.000000 0.000000 0.000000
# 3 -0.010118 0.001286 0.017748 0.000000 0.000000 0.000000
# 4 0.000000 0.000000 0.000000 0.041286 0.000000 0.000000
# 5 0.000000 0.000000 0.000000 0.000000 0.032175 0.000000
# 6 0.000000 0.000000 0.000000 0.000000 0.000000 0.032164
#
#
# Mechanical properties :
#
#
# Convention : Reuss Voigt Hill
#
# Bulk Modulus (GPa) = 67.58786 82.89755 75.24271
# Shear Modulus (GPa) = 24.95237 30.29848 27.62543
#
# Velocity S-wave (km/s) = 3.48654 3.84193 3.66854
# Velocity P-wave (km/s) = 7.00960 7.75019 7.38918
#
# Compressibility (1/GPa) = 0.01479556
#
# Stress axis : x y z
#
# Youngs Moduli (GPa) = 39.79945 105.97984 56.34295
#
# Poissons Ratio (x) = 1.05191 0.57007
# Poissons Ratio (y) = 0.39503 -0.07246
# Poissons Ratio (z) = 0.40268 -0.13630
#
# Static dielectric constant tensor:
#      x y z
#    x 1.711260 0.000000 0.000000 
#    y 0.000000 1.717420 0.000000 
#    z 0.000000 0.000000 1.744370 
# 
# From -- ./inp_files/34859.got.cif
#   From: 2010.05.17/outbox.cif.g08.bks.cpg/sg22_18_cif.got.tgz:34859.got - 2010.06.03 23:40:54.
