data_PCOD9329020
_publ_section_title
;
Structure prediction by ZEFSAII (Michael W. Deem and Ramdas Pophale) SiO2 
 PCOD9329020
Probable space group: F 2 2 2
;
_chemical_formula_sum "Si O2"
_cell_formula_units_Z 52
_cell_length_a 7.160569
_cell_length_b 14.450072
_cell_length_c 18.016965
_cell_angle_alpha 90.000000
_cell_angle_beta 90.000000
_cell_angle_gamma 90.000000
_cell_volume 1864.228658
_symmetry_space_group_name_H-M "F 2 2 2"
_symmetry_group_IT_number 22
_symmetry_cell_setting 'orthorhombic'
loop_
_space_group_symop_operation_xyz
x,y,z
-x,-y,z
x,-y,-z
-x,y,-z
x,1/2+y,1/2+z
-x,1/2-y,1/2+z
x,1/2-y,1/2-z
-x,1/2+y,1/2-z
1/2+x,y,1/2+z
1/2-x,-y,1/2+z
1/2+x,-y,1/2-z
1/2-x,y,1/2-z
1/2+x,1/2+y,z
1/2-x,1/2-y,z
1/2+x,1/2-y,-z
1/2-x,1/2+y,-z
loop_
_atom_site_type_symbol
_atom_site_label
_atom_site_fract_x
_atom_site_fract_y
_atom_site_fract_z
Si Si1 0.339457 0.654085 0.134616
Si Si2 0.995883 0.397994 0.782136
Si Si3 0.500000 0.000000 0.000000
Si Si4 0.768478 0.359340 0.587695
O O1 0.250000 0.750000 0.107763
O O2 0.437061 0.666161 0.215190
O O3 0.340495 0.905523 0.155140
O O4 0.510646 0.619421 0.086292
O O5 0.815313 0.370364 0.828457
O O6 0.000000 0.500000 0.747666
O O7 0.357263 0.071696 0.040126
O O8 0.750000 0.250000 0.569028
#
# Coordination Sequence:
#
# PCOD9329020 Si02
#       4
#    16  16   4  16
#     4  11  25  45  80 125 167 213 263 343 447 531
#     4  11  24  43  75 127 174 208 266 341 442 532
#     4  12  32  64  82 126 162 240 328 348 412 498
#     4  12  27  54  85 113 170 225 293 364 422 498
#
# _framework density 27.893575999999999
#
# number of rings (size 3 to 8) (size 9 to 14) (size 15 to 20)
#    0.000    0.615    4.615    2.769    8.615    1.231 
#    5.538    1.538    0.000    0.000    0.000    0.000 
#    0.000    0.000    0.000    0.000    0.000    0.000 
#
# Total GULP energy -72817.427778 kJ/mol
# GULP energy per Si atom -5601.340598 kJ/mol
# Density = 2.783009 g / cm^3
# Si number density = 27.893576 Si / 1000 Ang^3
#
#
#
# Elastic Constant Matrix: (Units=GPa)
#
#
# Indices 1 2 3 4 5 6 
#
# 1 247.1998 24.1544 40.6672 0.0000 0.0000 0.0000
# 2 24.1544 136.0807 38.8939 0.0000 0.0000 0.0000
# 3 40.6672 38.8939 116.4081 0.0000 0.0000 0.0000
# 4 0.0000 0.0000 0.0000 8.2600 0.0000 0.0000
# 5 0.0000 0.0000 0.0000 0.0000 27.7208 0.0000
# 6 0.0000 0.0000 0.0000 0.0000 0.0000 45.1662
#
#
#
# Elastic Compliance Matrix: (Units=1/GPa)
#
#
# Indices 1 2 3 4 5 6 
#
# 1 0.004309 -0.000370 -0.001382 0.000000 0.000000 0.000000
# 2 -0.000370 0.008156 -0.002596 0.000000 0.000000 0.000000
# 3 -0.001382 -0.002596 0.009940 0.000000 0.000000 0.000000
# 4 0.000000 0.000000 0.000000 0.121065 0.000000 0.000000
# 5 0.000000 0.000000 0.000000 0.000000 0.036074 0.000000
# 6 0.000000 0.000000 0.000000 0.000000 0.000000 0.022140
#
#
# Mechanical properties :
#
#
# Convention : Reuss Voigt Hill
#
# Bulk Modulus (GPa) = 72.93685 78.56883 75.75284
# Shear Modulus (GPa) = 23.26119 42.62761 32.94440
#
# Velocity S-wave (km/s) = 2.89091 3.91349 3.44041
# Velocity P-wave (km/s) = 6.11132 6.97489 6.55733
#
# Compressibility (1/GPa) = 0.01371049
#
# Stress axis : x y z
#
# Youngs Moduli (GPa) = 232.08552 122.60635 100.59866
#
# Poissons Ratio (x) = 0.04535 0.13899
# Poissons Ratio (y) = 0.08585 0.26114
# Poissons Ratio (z) = 0.32067 0.31827
#
# Static dielectric constant tensor:
#      x y z
#    x 2.185750 0.000000 0.000000 
#    y 0.000000 2.121390 0.000000 
#    z 0.000000 0.000000 2.259010 
# 
# From -- ./inp_files/12061.got.cif
#   From: 2010.05.17/outbox.cif.g08.bks.cpg/sg22_7_cif.got.tgz:12061.got - 2010.06.03 23:40:54.
