data_PCOD9329736
_publ_section_title
;
Structure prediction by ZEFSAII (Michael W. Deem and Ramdas Pophale) SiO2 
 PCOD9329736
Probable space group: I 2 2 2
;
_chemical_formula_sum "Si O2"
_cell_formula_units_Z 22
_cell_length_a 5.294567
_cell_length_b 12.215084
_cell_length_c 14.037247
_cell_angle_alpha 90.000000
_cell_angle_beta 90.000000
_cell_angle_gamma 90.000000
_cell_volume 907.839026
_symmetry_space_group_name_H-M "I 2 2 2"
_symmetry_group_IT_number 23
_symmetry_cell_setting 'orthorhombic'
loop_
_space_group_symop_operation_xyz
x,y,z
-x,-y,z
x,-y,-z
-x,y,-z
1/2+x,1/2+y,1/2+z
1/2-x,1/2-y,1/2+z
1/2+x,1/2-y,1/2-z
1/2-x,1/2+y,1/2-z
loop_
_atom_site_type_symbol
_atom_site_label
_atom_site_fract_x
_atom_site_fract_y
_atom_site_fract_z
Si Si1 0.500000 0.500000 0.500000
Si Si2 0.294269 0.099074 0.826965
Si Si3 0.000000 0.000000 0.341540
Si Si4 0.256244 0.306571 0.936799
O O1 0.662117 0.570525 0.427661
O O2 0.300452 0.229175 0.844255
O O3 0.500000 0.000000 0.821899
O O4 0.142414 0.080754 0.730443
O O5 0.197819 0.069331 0.402472
O O6 0.500000 0.277831 0.000000
O O7 0.000000 0.296759 0.000000
#
# Coordination Sequence:
#
# PCOD9329736 Si02
#       4
#     2   8   4   8
#     4  10  18  44  70 122 136 212 256 336 386 476
#     4  11  25  45  81 113 162 204 278 334 408 476
#     4  11  31  47  79 118 160 208 275 339 403 483
#     4  12  29  53  81 113 163 219 271 329 414 491
#
# _framework density 24.233369
#
# number of rings (size 3 to 8) (size 9 to 14) (size 15 to 20)
#    0.000    0.727    1.818    3.273   15.273    1.455 
#    0.000    0.000    0.000    0.000    0.000    0.000 
#    0.000    0.000    0.000    0.000    0.000    0.000 
#
# Total GULP energy -61325.029474 kJ/mol
# GULP energy per Si atom -5575.002679 kJ/mol
# Density = 2.417821 g / cm^3
# Si number density = 24.233369 Si / 1000 Ang^3
#
#
#
# Elastic Constant Matrix: (Units=GPa)
#
#
# Indices 1 2 3 4 5 6 
#
# 1 149.2783 59.0722 58.6376 0.0000 0.0000 0.0000
# 2 59.0722 154.5299 59.1073 0.0000 0.0000 0.0000
# 3 58.6376 59.1073 58.6345 0.0000 0.0000 0.0000
# 4 0.0000 0.0000 0.0000 -44.2632 0.0000 0.0000
# 5 0.0000 0.0000 0.0000 0.0000 61.7075 0.0000
# 6 0.0000 0.0000 0.0000 0.0000 0.0000 30.0325
#
#
#
# Elastic Compliance Matrix: (Units=1/GPa)
#
#
# Indices 1 2 3 4 5 6 
#
# 1 0.011033 0.000004 -0.011038 0.000000 0.000000 0.000000
# 2 0.000004 0.010532 -0.010622 0.000000 0.000000 0.000000
# 3 -0.011038 -0.010622 0.038801 0.000000 0.000000 0.000000
# 4 0.000000 0.000000 0.000000 -0.022592 0.000000 0.000000
# 5 0.000000 0.000000 0.000000 0.000000 0.016205 0.000000
# 6 0.000000 0.000000 0.000000 0.000000 0.000000 0.033297
#
#
# Mechanical properties :
#
#
# Convention : Reuss Voigt Hill
#
# Bulk Modulus (GPa) = 58.63215 79.56408 69.09812
# Shear Modulus (GPa) = 36.69130 21.87041 29.28085
#
# Velocity S-wave (km/s) = 3.89534 3.00741 3.47981
# Velocity P-wave (km/s) = 6.66925 6.70545 6.68738
#
# Compressibility (1/GPa) = 0.01705549
#
# Stress axis : x y z
#
# Youngs Moduli (GPa) = 90.63768 94.94604 25.77276
#
# Poissons Ratio (x) = -0.00042 0.28448
# Poissons Ratio (y) = -0.00040 0.27375
# Poissons Ratio (z) = 1.00046 1.00848
#
# Static dielectric constant tensor:
#      x y z
#    x 1.978160 0.000000 0.000000 
#    y 0.000000 2.278240 0.000000 
#    z 0.000000 0.000000 1.880430 
# 
# From -- ./inp_files/1062.got.cif
#   From: 2010.05.17/outbox.cif.g08.bks.cpg/sg23_1_cif.got.tgz:1062.got - 2010.06.04 12:02:01.
