data_PCOD9329883
_publ_section_title
;
Structure prediction by ZEFSAII (Michael W. Deem and Ramdas Pophale) SiO2 
 PCOD9329883
Probable space group: I 2 2 2
;
_chemical_formula_sum "Si O2"
_cell_formula_units_Z 48
_cell_length_a 7.360960
_cell_length_b 21.079596
_cell_length_c 14.642366
_cell_angle_alpha 90.000000
_cell_angle_beta 90.000000
_cell_angle_gamma 90.000000
_cell_volume 2271.998285
_symmetry_space_group_name_H-M "I 2 2 2"
_symmetry_group_IT_number 23
_symmetry_cell_setting 'orthorhombic'
loop_
_space_group_symop_operation_xyz
x,y,z
-x,-y,z
x,-y,-z
-x,y,-z
1/2+x,1/2+y,1/2+z
1/2-x,1/2-y,1/2+z
1/2+x,1/2-y,1/2-z
1/2-x,1/2+y,1/2-z
loop_
_atom_site_type_symbol
_atom_site_label
_atom_site_fract_x
_atom_site_fract_y
_atom_site_fract_z
Si Si1 0.343875 0.300750 0.711734
Si Si2 0.784347 0.378744 0.988318
Si Si3 0.736269 0.560814 0.210174
Si Si4 0.186970 0.076652 0.316677
Si Si5 0.270442 0.176778 0.825110
Si Si6 0.220585 0.232612 0.013983
O O1 0.256937 0.356090 0.773332
O O2 0.347511 0.234144 0.764433
O O3 0.552562 0.317373 0.690036
O O4 0.244662 0.293326 0.615025
O O5 0.761697 0.411130 0.890923
O O6 0.718721 0.305912 0.989490
O O7 0.697284 0.415378 0.073877
O O8 0.000000 0.376938 0.000000
O O9 0.790854 0.487121 0.211909
O O10 0.517579 0.565373 0.217760
O O11 0.821656 0.608416 0.284222
O O12 0.302453 0.192192 0.931149
O O13 0.000000 0.232815 0.000000
#
# Coordination Sequence:
#
# PCOD9329883 Si02
#       6
#     8   8   8   8   8   8
#     4  10  19  34  54  74 101 134 169 210 253 299
#     4  11  20  32  53  79 106 135 169 212 259 303
#     4  10  21  35  51  75 107 139 170 207 256 310
#     4  10  21  35  51  75 107 139 170 207 256 310
#     4  10  19  34  54  74 101 134 169 210 253 299
#     4   9  18  32  51  77 103 125 164 215 253 291
#
# _framework density 21.126776
#
# number of rings (size 3 to 8) (size 9 to 14) (size 15 to 20)
#    0.000    2.000    3.333    1.000    0.000    2.667 
#    0.000    1.667    0.000    5.000    0.000    0.000 
#    0.000    5.333    0.000    0.000    0.000    0.000 
#
# Total GULP energy -134066.772279 kJ/mol
# GULP energy per Si atom -5586.115512 kJ/mol
# Density = 2.107869 g / cm^3
# Si number density = 21.126776 Si / 1000 Ang^3
#
#
#
# Elastic Constant Matrix: (Units=GPa)
#
#
# Indices 1 2 3 4 5 6 
#
# 1 40.4208 -13.4929 -20.3204 0.0000 0.0000 0.0000
# 2 -13.4929 136.3972 38.6633 0.0000 0.0000 0.0000
# 3 -20.3204 38.6633 103.2657 0.0000 0.0000 0.0000
# 4 0.0000 0.0000 0.0000 37.4706 0.0000 0.0000
# 5 0.0000 0.0000 0.0000 0.0000 9.9761 0.0000
# 6 0.0000 0.0000 0.0000 0.0000 0.0000 6.0577
#
#
#
# Elastic Compliance Matrix: (Units=1/GPa)
#
#
# Indices 1 2 3 4 5 6 
#
# 1 0.027672 0.001336 0.004945 0.000000 0.000000 0.000000
# 2 0.001336 0.008266 -0.002832 0.000000 0.000000 0.000000
# 3 0.004945 -0.002832 0.011717 0.000000 0.000000 0.000000
# 4 0.000000 0.000000 0.000000 0.026688 0.000000 0.000000
# 5 0.000000 0.000000 0.000000 0.000000 0.100239 0.000000
# 6 0.000000 0.000000 0.000000 0.000000 0.000000 0.165079
#
#
# Mechanical properties :
#
#
# Convention : Reuss Voigt Hill
#
# Bulk Modulus (GPa) = 18.33103 32.19819 25.26461
# Shear Modulus (GPa) = 14.24713 29.04979 21.64846
#
# Velocity S-wave (km/s) = 2.59967 3.71215 3.20456
# Velocity P-wave (km/s) = 4.20792 5.80060 5.06723
#
# Compressibility (1/GPa) = 0.05455232
#
# Stress axis : x y z
#
# Youngs Moduli (GPa) = 36.13816 120.97055 85.34442
#
# Poissons Ratio (x) = -0.16157 -0.42203
# Poissons Ratio (y) = -0.04827 0.24171
# Poissons Ratio (z) = -0.17871 0.34261
#
# Static dielectric constant tensor:
#      x y z
#    x 1.839370 0.000000 0.000000 
#    y 0.000000 1.770700 0.000000 
#    z 0.000000 0.000000 1.742710 
# 
# From -- ./inp_files/9910.got.cif
#   From: 2010.05.17/outbox.cif.g08.bks.cpg/sg23_5_cif.got.tgz:9910.got - 2010.06.04 12:02:01.
