data_PCOD9329186
_publ_section_title
;
Structure prediction by ZEFSAII (Michael W. Deem and Ramdas Pophale) SiO2 
 PCOD9329186
Probable space group: F 2 2 2
;
_chemical_formula_sum "Si O2"
_cell_formula_units_Z 28
_cell_length_a 12.945047
_cell_length_b 14.498453
_cell_length_c 4.877353
_cell_angle_alpha 90.000000
_cell_angle_beta 90.000000
_cell_angle_gamma 90.000000
_cell_volume 915.397002
_symmetry_space_group_name_H-M "F 2 2 2"
_symmetry_group_IT_number 22
_symmetry_cell_setting 'orthorhombic'
loop_
_space_group_symop_operation_xyz
x,y,z
-x,-y,z
x,-y,-z
-x,y,-z
x,1/2+y,1/2+z
-x,1/2-y,1/2+z
x,1/2-y,1/2-z
-x,1/2+y,1/2-z
1/2+x,y,1/2+z
1/2-x,-y,1/2+z
1/2+x,-y,1/2-z
1/2-x,y,1/2-z
1/2+x,1/2+y,z
1/2-x,1/2-y,z
1/2+x,1/2-y,-z
1/2-x,1/2+y,-z
loop_
_atom_site_type_symbol
_atom_site_label
_atom_site_fract_x
_atom_site_fract_y
_atom_site_fract_z
Si Si1 0.250000 0.250000 0.250000
Si Si2 0.621320 0.098137 0.089156
Si Si3 0.000000 0.320785 0.500000
O O1 0.315229 0.318666 0.451018
O O2 0.598843 0.117762 0.412858
O O3 0.500000 0.092223 0.000000
O O4 0.666582 0.000000 0.000000
O O5 0.992864 0.250000 0.750000
#
# Coordination Sequence:
#
# PCOD9329186 Si02
#       3
#     4  16   8
#     4  12  28  68 100 148 194 264 338 408 498 608
#     4  11  27  58  98 145 199 256 332 408 501 582
#     4  12  24  55  97 142 190 262 313 408 499 576
#
# _framework density 30.587824999999999
#
# number of rings (size 3 to 8) (size 9 to 14) (size 15 to 20)
#    0.000    0.571    2.857    3.429    0.000    4.571 
#   36.000    4.286    0.000   13.714    0.000    0.000 
#    0.000    0.000    0.000    0.000    0.000    0.000 
#
# Total GULP energy -39141.073507 kJ/mol
# GULP energy per Si atom -5591.581930 kJ/mol
# Density = 3.051821 g / cm^3
# Si number density = 30.587825 Si / 1000 Ang^3
#
#
#
# Elastic Constant Matrix: (Units=GPa)
#
#
# Indices 1 2 3 4 5 6 
#
# 1 196.4680 77.8192 72.0831 0.0010 -0.0014 -0.0005
# 2 77.8192 347.1733 101.2588 0.0013 -0.0013 -0.0004
# 3 72.0831 101.2588 223.6667 0.0090 -0.0095 -0.0026
# 4 0.0010 0.0013 0.0090 26.4517 -0.0024 -0.0011
# 5 -0.0014 -0.0013 -0.0095 -0.0024 70.8978 0.0012
# 6 -0.0005 -0.0004 -0.0026 -0.0011 0.0012 49.3943
#
#
#
# Elastic Compliance Matrix: (Units=1/GPa)
#
#
# Indices 1 2 3 4 5 6 
#
# 1 0.006007 -0.000901 -0.001528 0.000000 0.000000 0.000000
# 2 -0.000901 0.003454 -0.001273 0.000000 0.000000 0.000000
# 3 -0.001528 -0.001273 0.005540 -0.000002 0.000001 0.000000
# 4 0.000000 0.000000 -0.000002 0.037805 0.000001 0.000001
# 5 0.000000 0.000000 0.000001 0.000001 0.014105 0.000000
# 6 0.000000 0.000000 0.000000 0.000001 0.000000 0.020245
#
#
# Mechanical properties :
#
#
# Convention : Reuss Voigt Hill
#
# Bulk Modulus (GPa) = 131.64202 141.07002 136.35602
# Shear Modulus (GPa) = 51.49725 63.75855 57.62790
#
# Velocity S-wave (km/s) = 4.10760 4.57052 4.34523
# Velocity P-wave (km/s) = 8.10107 8.60655 8.35763
#
# Compressibility (1/GPa) = 0.00759636
#
# Stress axis : x y z
#
# Youngs Moduli (GPa) = 166.46138 289.54546 180.50925
#
# Poissons Ratio (x) = 0.26083 0.27586
# Poissons Ratio (y) = 0.14995 0.22983
# Poissons Ratio (z) = 0.25439 0.36866
#
# Static dielectric constant tensor:
#      x y z
#    x 2.735810 0.000000 0.000000 
#    y 0.000000 2.449300 0.000000 
#    z 0.000000 0.000000 3.447990 
# 
# From -- ./inp_files/1116.got.cif
#   From: 2010.05.17/outbox.cif.g08.bks.cpg/sg22_1_cif.got.tgz:1116.got - 2010.06.03 23:40:54.
