data_PCOD9329981
_publ_section_title
;
Structure prediction by ZEFSAII (Michael W. Deem and Ramdas Pophale) SiO2 
 PCOD9329981
Probable space group: I 2 2 2
;
_chemical_formula_sum "Si O2"
_cell_formula_units_Z 48
_cell_length_a 11.404441
_cell_length_b 23.184489
_cell_length_c 9.120552
_cell_angle_alpha 90.000000
_cell_angle_beta 90.000000
_cell_angle_gamma 90.000000
_cell_volume 2411.529921
_symmetry_space_group_name_H-M "I 2 2 2"
_symmetry_group_IT_number 23
_symmetry_cell_setting 'orthorhombic'
loop_
_space_group_symop_operation_xyz
x,y,z
-x,-y,z
x,-y,-z
-x,y,-z
1/2+x,1/2+y,1/2+z
1/2-x,1/2-y,1/2+z
1/2+x,1/2-y,1/2-z
1/2-x,1/2+y,1/2-z
loop_
_atom_site_type_symbol
_atom_site_label
_atom_site_fract_x
_atom_site_fract_y
_atom_site_fract_z
Si Si1 0.215896 0.585778 0.600938
Si Si2 0.887176 0.633187 0.893421
Si Si3 0.869552 0.526851 0.698309
Si Si4 0.454657 0.812061 0.161785
Si Si5 0.767181 0.219820 0.709229
Si Si6 0.137269 0.813540 0.025665
O O1 0.217084 0.527822 0.696490
O O2 0.158553 0.564441 0.447006
O O3 0.133372 0.633500 0.677005
O O4 0.333796 0.620345 0.566804
O O5 0.864061 0.569207 0.835954
O O6 0.764870 0.668292 0.907097
O O7 0.937253 0.672886 0.763103
O O8 0.000000 0.633338 0.000000
O O9 0.000000 0.500000 0.688382
O O10 0.392132 0.751851 0.188448
O O11 0.500000 0.813011 0.000000
O O12 0.783898 0.199982 0.879437
O O13 0.682387 0.272047 0.655700
O O14 0.000000 0.803920 0.000000
#
# Coordination Sequence:
#
# PCOD9329981 Si02
#       6
#     8   8   8   8   8   8
#     4  10  19  35  61  85 114 156 205 256 299 371
#     4  12  23  36  56  92 125 155 198 263 329 376
#     4  11  19  35  62  87 116 154 209 261 316 374
#     4  11  19  35  57  82 114 165 206 237 303 381
#     4  11  22  37  58  88 128 163 205 262 310 385
#     4  11  23  40  62  93 130 171 214 262 321 391
#
# _framework density 19.904375000000002
#
# number of rings (size 3 to 8) (size 9 to 14) (size 15 to 20)
#    0.000    1.000    5.000    4.500    0.000    0.333 
#    0.000    1.667    0.000    0.000    0.000    0.000 
#    0.000    0.000    0.000    0.000    0.000    0.000 
#
# Total GULP energy -133685.302030 kJ/mol
# GULP energy per Si atom -5570.220918 kJ/mol
# Density = 1.985907 g / cm^3
# Si number density = 19.904375 Si / 1000 Ang^3
#
#
#
# Elastic Constant Matrix: (Units=GPa)
#
#
# Indices 1 2 3 4 5 6 
#
# 1 72.4059 30.8618 14.6184 0.0001 0.0000 0.0000
# 2 30.8618 138.1638 36.9128 -0.0002 -0.0001 0.0000
# 3 14.6184 36.9128 51.5753 -0.0030 -0.0005 -0.0002
# 4 0.0001 -0.0002 -0.0030 107.7127 0.0012 -0.0002
# 5 0.0000 -0.0001 -0.0005 0.0012 4.9687 0.0000
# 6 0.0000 0.0000 -0.0002 -0.0002 0.0000 35.9712
#
#
#
# Elastic Compliance Matrix: (Units=1/GPa)
#
#
# Indices 1 2 3 4 5 6 
#
# 1 0.015495 -0.002829 -0.002367 0.000000 0.000000 0.000000
# 2 -0.002829 0.009465 -0.005973 0.000000 0.000000 0.000000
# 3 -0.002367 -0.005973 0.024335 0.000001 0.000002 0.000000
# 4 0.000000 0.000000 0.000001 0.009284 -0.000002 0.000000
# 5 0.000000 0.000000 0.000002 -0.000002 0.201261 0.000000
# 6 0.000000 0.000000 0.000000 0.000000 0.000000 0.027800
#
#
# Mechanical properties :
#
#
# Convention : Reuss Voigt Hill
#
# Bulk Modulus (GPa) = 37.09534 47.43679 42.26607
# Shear Modulus (GPa) = 15.67583 41.71397 28.69490
#
# Velocity S-wave (km/s) = 2.80939 4.58287 3.80101
# Velocity P-wave (km/s) = 5.40378 7.20331 6.36743
#
# Compressibility (1/GPa) = 0.02695756
#
# Stress axis : x y z
#
# Youngs Moduli (GPa) = 64.53854 105.64908 41.09345
#
# Poissons Ratio (x) = 0.29884 0.09728
# Poissons Ratio (y) = 0.18255 0.24544
# Poissons Ratio (z) = 0.15279 0.63100
#
# Static dielectric constant tensor:
#      x y z
#    x 1.704580 0.000000 0.000000 
#    y 0.000000 1.763050 0.000000 
#    z 0.000000 0.000000 1.769770 
# 
# From -- ./inp_files/8658.got.cif
#   From: 2010.05.17/outbox.cif.g08.bks.cpg/sg23_5_cif.got.tgz:8658.got - 2010.06.04 12:02:01.
