data_PCOD9329650
_publ_section_title
;
Structure prediction by ZEFSAII (Michael W. Deem and Ramdas Pophale) SiO2 
 PCOD9329650
Probable space group: I 2 2 2
;
_chemical_formula_sum "Si O2"
_cell_formula_units_Z 48
_cell_length_a 8.357741
_cell_length_b 9.237504
_cell_length_c 30.414081
_cell_angle_alpha 90.000000
_cell_angle_beta 90.000000
_cell_angle_gamma 90.000000
_cell_volume 2348.108963
_symmetry_space_group_name_H-M "I 2 2 2"
_symmetry_group_IT_number 23
_symmetry_cell_setting 'orthorhombic'
loop_
_space_group_symop_operation_xyz
x,y,z
-x,-y,z
x,-y,-z
-x,y,-z
1/2+x,1/2+y,1/2+z
1/2-x,1/2-y,1/2+z
1/2+x,1/2-y,1/2-z
1/2-x,1/2+y,1/2-z
loop_
_atom_site_type_symbol
_atom_site_label
_atom_site_fract_x
_atom_site_fract_y
_atom_site_fract_z
Si Si1 0.168117 0.090298 0.660069
Si Si2 0.332174 0.186748 0.087683
Si Si3 0.317187 0.324592 0.496196
Si Si4 0.820877 0.305872 0.185321
Si Si5 0.992456 0.172908 0.741788
Si Si6 0.789245 0.357378 0.599278
O O1 0.222537 0.187012 0.619766
O O2 0.120898 0.187731 0.702024
O O3 0.299482 0.972104 0.672192
O O4 0.000000 0.000000 0.650472
O O5 0.519652 0.166593 0.098813
O O6 0.255794 0.029693 0.097615
O O7 0.293059 0.223783 0.036968
O O8 0.313058 0.500000 0.500000
O O9 0.500000 0.276262 0.500000
O O10 0.263200 0.289385 0.447079
O O11 0.970349 0.259925 0.214398
O O12 0.671848 0.281936 0.218797
O O13 0.792051 0.212839 0.141571
O O14 0.000000 0.000000 0.751638
#
# Coordination Sequence:
#
# PCOD9329650 Si02
#       6
#     8   8   8   8   8   8
#     4   9  18  37  58  82 120 153 191 245 295 349
#     4  10  18  34  62  86 117 151 201 242 286 356
#     4   9  19  36  56  87 123 149 187 247 301 342
#     4  10  20  40  61  84 120 156 200 245 302 354
#     4   9  20  39  58  84 120 154 199 254 294 357
#     4  10  19  34  60  89 113 154 202 246 279 352
#
# _framework density 20.441981999999999
#
# number of rings (size 3 to 8) (size 9 to 14) (size 15 to 20)
#    0.000    2.833    3.333    0.500    0.000    4.667 
#    9.000    0.833    0.000    1.000    0.000    0.000 
#    0.000    0.000    0.000    0.000    0.000    0.000 
#
# Total GULP energy -133866.599323 kJ/mol
# GULP energy per Si atom -5577.774972 kJ/mol
# Density = 2.039546 g / cm^3
# Si number density = 20.441982 Si / 1000 Ang^3
#
#
#
# Elastic Constant Matrix: (Units=GPa)
#
#
# Indices 1 2 3 4 5 6 
#
# 1 21.8333 12.8501 31.5969 0.0000 0.0000 0.0000
# 2 12.8501 39.2484 62.1241 0.0000 0.0000 0.0000
# 3 31.5969 62.1241 165.3268 0.0000 0.0000 0.0000
# 4 0.0000 0.0000 0.0000 24.8255 0.0000 0.0000
# 5 0.0000 0.0000 0.0000 0.0000 24.7489 0.0000
# 6 0.0000 0.0000 0.0000 0.0000 0.0000 13.2820
#
#
#
# Elastic Compliance Matrix: (Units=1/GPa)
#
#
# Indices 1 2 3 4 5 6 
#
# 1 0.063554 -0.003905 -0.010679 0.000000 0.000000 0.000000
# 2 -0.003905 0.063116 -0.022971 0.000000 0.000000 0.000000
# 3 -0.010679 -0.022971 0.016721 0.000000 0.000000 0.000000
# 4 0.000000 0.000000 0.000000 0.040281 0.000000 0.000000
# 5 0.000000 0.000000 0.000000 0.000000 0.040406 0.000000
# 6 0.000000 0.000000 0.000000 0.000000 0.000000 0.075290
#
#
# Mechanical properties :
#
#
# Convention : Reuss Voigt Hill
#
# Bulk Modulus (GPa) = 14.64496 48.83896 31.74196
# Shear Modulus (GPa) = 12.58691 20.56043 16.57367
#
# Velocity S-wave (km/s) = 2.48410 3.17487 2.85048
# Velocity P-wave (km/s) = 3.92522 6.11417 5.13763
#
# Compressibility (1/GPa) = 0.06828288
#
# Stress axis : x y z
#
# Youngs Moduli (GPa) = 15.73455 15.84386 59.80458
#
# Poissons Ratio (x) = 0.06186 0.63866
# Poissons Ratio (y) = 0.06144 1.37374
# Poissons Ratio (z) = 0.16803 0.36394
#
# Static dielectric constant tensor:
#      x y z
#    x 1.809870 0.000000 0.000000 
#    y 0.000000 1.731900 0.000000 
#    z 0.000000 0.000000 1.719190 
# 
# From -- ./inp_files/30251.got.cif
#   From: 2010.05.17/outbox.cif.g08.bks.cpg/sg23_16_cif.got.tgz:30251.got - 2010.06.04 12:02:01.
