data_PCOD9329501
_publ_section_title
;
Structure prediction by ZEFSAII (Michael W. Deem and Ramdas Pophale) SiO2 
 PCOD9329501
Probable space group: I 2 2 2
;
_chemical_formula_sum "Si O2"
_cell_formula_units_Z 52
_cell_length_a 11.573036
_cell_length_b 8.311483
_cell_length_c 31.491907
_cell_angle_alpha 90.000000
_cell_angle_beta 90.000000
_cell_angle_gamma 90.000000
_cell_volume 3029.177939
_symmetry_space_group_name_H-M "I 2 2 2"
_symmetry_group_IT_number 23
_symmetry_cell_setting 'orthorhombic'
loop_
_space_group_symop_operation_xyz
x,y,z
-x,-y,z
x,-y,-z
-x,y,-z
1/2+x,1/2+y,1/2+z
1/2-x,1/2-y,1/2+z
1/2+x,1/2-y,1/2-z
1/2-x,1/2+y,1/2-z
loop_
_atom_site_type_symbol
_atom_site_label
_atom_site_fract_x
_atom_site_fract_y
_atom_site_fract_z
Si Si1 0.208968 0.633975 0.363771
Si Si2 0.365930 0.453989 0.043727
Si Si3 0.363317 0.488553 0.706948
Si Si4 0.319479 0.262458 0.785892
Si Si5 0.130672 0.431702 0.546136
Si Si6 0.359615 0.506439 0.134437
Si Si7 0.500000 0.000000 0.807571
O O1 0.321333 0.583696 0.337718
O O2 0.200999 0.547723 0.409858
O O3 0.192379 0.826846 0.361885
O O4 0.098909 0.572604 0.337280
O O5 0.500000 0.500000 0.041722
O O6 0.369126 0.261604 0.044869
O O7 0.323391 0.545191 0.085886
O O8 0.305555 0.500000 0.000000
O O9 0.500000 0.500000 0.709725
O O10 0.320342 0.374982 0.745034
O O11 0.295611 0.655826 0.712531
O O12 0.326147 0.370992 0.828511
O O13 0.430859 0.142194 0.783613
O O14 0.170011 0.500000 0.500000
O O15 0.000000 0.500000 0.551939
O O16 0.500000 0.500000 0.135556
#
# Coordination Sequence:
#
# PCOD9329501 Si02
#       7
#     8   8   8   8   8   8   4
#     4  10  20  36  53  82 113 153 189 234 291 344
#     4   9  17  25  40  70 111 147 175 219 282 342
#     4  11  26  40  56  82 114 146 192 245 283 352
#     4  11  23  38  60  81 108 149 192 236 298 336
#     4  10  18  28  51  81 115 147 188 236 288 355
#     4  10  18  32  55  79 112 147 188 234 280 355
#     4  10  20  32  59  80 106 150 182 231 288 352
#
# _framework density 17.166374000000001
#
# number of rings (size 3 to 8) (size 9 to 14) (size 15 to 20)
#    0.000    1.846    2.308    3.231    4.308    2.462 
#    0.000    0.000    0.000    0.462    0.000    0.000 
#    0.000    1.231    0.000    0.000    0.000    0.000 
#
# Total GULP energy -144761.802619 kJ/mol
# GULP energy per Si atom -5567.761639 kJ/mol
# Density = 1.712730 g / cm^3
# Si number density = 17.166374 Si / 1000 Ang^3
#
#
#
# Elastic Constant Matrix: (Units=GPa)
#
#
# Indices 1 2 3 4 5 6 
#
# 1 59.6035 28.6940 31.6769 0.0000 0.0000 0.0000
# 2 28.6940 74.6901 58.3831 0.0000 0.0000 0.0000
# 3 31.6769 58.3831 152.3871 0.0000 0.0000 0.0000
# 4 0.0000 0.0000 0.0000 26.8782 0.0000 0.0000
# 5 0.0000 0.0000 0.0000 0.0000 6.9255 0.0000
# 6 0.0000 0.0000 0.0000 0.0000 0.0000 20.4494
#
#
#
# Elastic Compliance Matrix: (Units=1/GPa)
#
#
# Indices 1 2 3 4 5 6 
#
# 1 0.020930 -0.006623 -0.001813 0.000000 0.000000 0.000000
# 2 -0.006623 0.021208 -0.006749 0.000000 0.000000 0.000000
# 3 -0.001813 -0.006749 0.009525 0.000000 0.000000 0.000000
# 4 0.000000 0.000000 0.000000 0.037205 0.000000 0.000000
# 5 0.000000 0.000000 0.000000 0.000000 0.144393 0.000000
# 6 0.000000 0.000000 0.000000 0.000000 0.000000 0.048901
#
#
# Mechanical properties :
#
#
# Convention : Reuss Voigt Hill
#
# Bulk Modulus (GPa) = 46.96478 58.24318 52.60398
# Shear Modulus (GPa) = 15.64309 22.04573 18.84441
#
# Velocity S-wave (km/s) = 3.02199 3.58752 3.31683
# Velocity P-wave (km/s) = 6.29242 7.15281 6.73636
#
# Compressibility (1/GPa) = 0.02129255
#
# Stress axis : x y z
#
# Youngs Moduli (GPa) = 47.77885 47.15102 104.99027
#
# Poissons Ratio (x) = 0.31230 0.19036
# Poissons Ratio (y) = 0.31646 0.70854
# Poissons Ratio (z) = 0.08663 0.31821
#
# Static dielectric constant tensor:
#      x y z
#    x 1.542880 0.000000 0.000000 
#    y 0.000000 1.633110 0.000000 
#    z 0.000000 0.000000 1.666940 
# 
# From -- ./inp_files/30438.got.cif
#   From: 2010.05.17/outbox.cif.g08.bks.cpg/sg23_16_cif.got.tgz:30438.got - 2010.06.04 12:02:01.
