data_PCOD9329540
_publ_section_title
;
Structure prediction by ZEFSAII (Michael W. Deem and Ramdas Pophale) SiO2 
 PCOD9329540
Probable space group: I 2 2 2
;
_chemical_formula_sum "Si O2"
_cell_formula_units_Z 46
_cell_length_a 7.981755
_cell_length_b 15.833701
_cell_length_c 19.973187
_cell_angle_alpha 90.000000
_cell_angle_beta 90.000000
_cell_angle_gamma 90.000000
_cell_volume 2524.225796
_symmetry_space_group_name_H-M "I 2 2 2"
_symmetry_group_IT_number 23
_symmetry_cell_setting 'orthorhombic'
loop_
_space_group_symop_operation_xyz
x,y,z
-x,-y,z
x,-y,-z
-x,y,-z
1/2+x,1/2+y,1/2+z
1/2-x,1/2-y,1/2+z
1/2+x,1/2-y,1/2-z
1/2-x,1/2+y,1/2-z
loop_
_atom_site_type_symbol
_atom_site_label
_atom_site_fract_x
_atom_site_fract_y
_atom_site_fract_z
Si Si1 0.261046 0.557661 0.888990
Si Si2 0.643112 0.343283 0.294705
Si Si3 0.273155 0.277526 0.321892
Si Si4 0.000000 0.000000 0.500000
Si Si5 0.978600 0.401309 0.308805
Si Si6 0.424579 0.883563 0.646037
Si Si7 0.000000 0.000000 0.720245
O O1 0.378777 0.555010 0.953088
O O2 0.169918 0.466646 0.879838
O O3 0.383840 0.560100 0.825383
O O4 0.108077 0.622356 0.886834
O O5 0.458597 0.317037 0.317672
O O6 0.704011 0.268367 0.245411
O O7 0.807566 0.361684 0.338580
O O8 0.613448 0.435171 0.260719
O O9 0.305135 0.195628 0.367793
O O10 0.136736 0.348696 0.334964
O O11 0.961656 0.391738 0.226598
O O12 0.000000 0.500000 0.322128
#
# Coordination Sequence:
#
# PCOD9329540 Si02
#       7
#     8   8   8   2   8   8   4
#     4  10  19  33  50  66  96 121 184 216 263 311
#     4  11  19  27  43  65  94 128 171 216 230 284
#     4  11  20  28  43  69  96 126 177 212 240 279
#     4  10  24  34  48  80  84 130 170 240 276 296
#     4  11  19  32  45  69  99 135 177 209 240 280
#     4  10  18  31  47  67  89 140 167 218 249 302
#     4  11  18  29  48  66  94 138 174 211 244 301
#
# _framework density 18.223409
#
# number of rings (size 3 to 8) (size 9 to 14) (size 15 to 20)
#    0.000    1.391    8.696    2.087    0.000    1.391 
#    0.000    0.000    0.000    0.000    0.000    0.000 
#    0.000    0.000    0.000    0.783    9.739    1.043 
#
# Total GULP energy -128052.997488 kJ/mol
# GULP energy per Si atom -5567.521630 kJ/mol
# Density = 1.818193 g / cm^3
# Si number density = 18.223409 Si / 1000 Ang^3
#
#
#
# Elastic Constant Matrix: (Units=GPa)
#
#
# Indices 1 2 3 4 5 6 
#
# 1 163.9270 44.4271 9.3128 0.0000 0.0000 0.0000
# 2 44.4271 92.4197 -1.3830 0.0000 0.0000 0.0000
# 3 9.3128 -1.3830 13.8985 0.0000 0.0000 0.0000
# 4 0.0000 0.0000 0.0000 3.2665 0.0000 0.0000
# 5 0.0000 0.0000 0.0000 0.0000 16.1491 0.0000
# 6 0.0000 0.0000 0.0000 0.0000 0.0000 49.8432
#
#
#
# Elastic Compliance Matrix: (Units=1/GPa)
#
#
# Indices 1 2 3 4 5 6 
#
# 1 0.007386 -0.003630 -0.005310 0.000000 0.000000 0.000000
# 2 -0.003630 0.012620 0.003688 0.000000 0.000000 0.000000
# 3 -0.005310 0.003688 0.075875 0.000000 0.000000 0.000000
# 4 0.000000 0.000000 0.000000 0.306137 0.000000 0.000000
# 5 0.000000 0.000000 0.000000 0.000000 0.061923 0.000000
# 6 0.000000 0.000000 0.000000 0.000000 0.000000 0.020063
#
#
# Mechanical properties :
#
#
# Convention : Reuss Voigt Hill
#
# Bulk Modulus (GPa) = 11.71269 41.66212 26.68740
# Shear Modulus (GPa) = 9.56082 28.37763 18.96923
#
# Velocity S-wave (km/s) = 2.29300 3.95043 3.22984
# Velocity P-wave (km/s) = 3.66765 6.61206 5.34654
#
# Compressibility (1/GPa) = 0.08537749
#
# Stress axis : x y z
#
# Youngs Moduli (GPa) = 135.39698 79.23748 13.17953
#
# Poissons Ratio (x) = 0.28762 0.06998
# Poissons Ratio (y) = 0.49147 -0.04861
# Poissons Ratio (z) = 0.71896 -0.29223
#
# Static dielectric constant tensor:
#      x y z
#    x 1.729390 0.000000 0.000000 
#    y 0.000000 1.679080 0.000000 
#    z 0.000000 0.000000 1.629150 
# 
# From -- ./inp_files/28031.got.cif
#   From: 2010.05.17/outbox.cif.g08.bks.cpg/sg23_15_cif.got.tgz:28031.got - 2010.06.04 12:02:01.
