data_PCOD9329688
_publ_section_title
;
Structure prediction by ZEFSAII (Michael W. Deem and Ramdas Pophale) SiO2 
 PCOD9329688
Probable space group: I 2 2 2
;
_chemical_formula_sum "Si O2"
_cell_formula_units_Z 52
_cell_length_a 7.979473
_cell_length_b 27.212252
_cell_length_c 11.633379
_cell_angle_alpha 90.000000
_cell_angle_beta 90.000000
_cell_angle_gamma 90.000000
_cell_volume 2526.065286
_symmetry_space_group_name_H-M "I 2 2 2"
_symmetry_group_IT_number 23
_symmetry_cell_setting 'orthorhombic'
loop_
_space_group_symop_operation_xyz
x,y,z
-x,-y,z
x,-y,-z
-x,y,-z
1/2+x,1/2+y,1/2+z
1/2-x,1/2-y,1/2+z
1/2+x,1/2-y,1/2-z
1/2-x,1/2+y,1/2-z
loop_
_atom_site_type_symbol
_atom_site_label
_atom_site_fract_x
_atom_site_fract_y
_atom_site_fract_z
Si Si1 0.758522 0.309159 0.289691
Si Si2 0.859864 0.137156 0.416603
Si Si3 0.104237 0.083347 0.246160
Si Si4 0.000000 0.084368 0.000000
Si Si5 0.878488 0.704566 0.230252
Si Si6 0.320486 0.846329 0.028041
Si Si7 0.809720 0.550378 0.950679
O O1 0.679416 0.362515 0.277397
O O2 0.643550 0.262939 0.263764
O O3 0.802299 0.307256 0.425042
O O4 0.925806 0.306594 0.213896
O O5 0.743482 0.177925 0.359430
O O6 0.758526 0.100625 0.497590
O O7 0.000000 0.160231 0.500000
O O8 0.946453 0.099291 0.325520
O O9 0.245848 0.053716 0.318171
O O10 0.050128 0.060484 0.123196
O O11 0.162258 0.117771 0.971244
O O12 0.830197 0.680529 0.351416
O O13 0.500000 0.871841 0.000000
O O14 0.732221 0.500000 0.000000
O O15 0.000000 0.549469 0.000000
#
# Coordination Sequence:
#
# PCOD9329688 Si02
#       7
#     8   8   8   4   8   8   8
#     4  10  22  33  53  81 116 161 211 262 316 381
#     4  10  21  35  58  85 119 157 206 260 314 384
#     4  10  20  37  59  91 120 164 212 258 325 390
#     4  10  18  36  62  83 122 158 210 256 311 398
#     4  11  20  36  53  78 120 162 208 266 316 375
#     4   9  20  34  51  76 109 160 210 251 314 376
#     4  10  22  41  66  94 127 165 210 272 337 397
#
# _framework density 20.585374999999999
#
# number of rings (size 3 to 8) (size 9 to 14) (size 15 to 20)
#    0.000    2.000    1.538    1.846    2.154    7.077 
#    0.000    3.077    0.000    1.846    0.000    2.154 
#    0.000    0.000    0.000    0.000    0.000    0.000 
#
# Total GULP energy -144882.185480 kJ/mol
# GULP energy per Si atom -5572.391749 kJ/mol
# Density = 2.053852 g / cm^3
# Si number density = 20.585375 Si / 1000 Ang^3
#
#
#
# Elastic Constant Matrix: (Units=GPa)
#
#
# Indices 1 2 3 4 5 6 
#
# 1 82.4497 14.2699 28.1945 0.0001 0.0000 -0.0017
# 2 14.2699 65.1113 20.1623 0.0001 0.0000 0.0002
# 3 28.1945 20.1623 115.3672 0.0002 0.0003 -0.0116
# 4 0.0001 0.0001 0.0002 6.9653 0.0000 0.0007
# 5 0.0000 0.0000 0.0003 0.0000 33.7020 -0.0002
# 6 -0.0017 0.0002 -0.0116 0.0007 -0.0002 189.8016
#
#
#
# Elastic Compliance Matrix: (Units=1/GPa)
#
#
# Indices 1 2 3 4 5 6 
#
# 1 0.013488 -0.002046 -0.002939 0.000000 0.000000 0.000000
# 2 -0.002046 0.016547 -0.002392 0.000000 0.000000 0.000000
# 3 -0.002939 -0.002392 0.009804 0.000000 0.000000 0.000001
# 4 0.000000 0.000000 0.000000 0.143569 0.000000 -0.000001
# 5 0.000000 0.000000 0.000000 0.000000 0.029672 0.000000
# 6 0.000000 0.000000 0.000001 -0.000001 0.000000 0.005269
#
#
# Mechanical properties :
#
#
# Convention : Reuss Voigt Hill
#
# Bulk Modulus (GPa) = 39.86274 43.13128 41.49701
# Shear Modulus (GPa) = 20.70705 59.44723 40.07714
#
# Velocity S-wave (km/s) = 3.17505 5.37969 4.41713
# Velocity P-wave (km/s) = 5.73131 7.71919 6.79830
#
# Compressibility (1/GPa) = 0.02508608
#
# Stress axis : x y z
#
# Youngs Moduli (GPa) = 74.14208 60.43252 101.99738
#
# Poissons Ratio (x) = 0.12364 0.29974
# Poissons Ratio (y) = 0.15169 0.24397
# Poissons Ratio (z) = 0.21788 0.14455
#
# Static dielectric constant tensor:
#      x y z
#    x 1.902720 0.000000 -0.000020 
#    y 0.000000 1.680870 0.000000 
#    z -0.000020 0.000000 1.275170 
# 
# From -- ./inp_files/14876.got.cif
#   From: 2010.05.17/outbox.cif.g08.bks.cpg/sg23_8_cif.got.tgz:14876.got - 2010.06.04 12:02:01.
