data_PCOD9329101
_publ_section_title
;
Structure prediction by ZEFSAII (Michael W. Deem and Ramdas Pophale) SiO2 
 PCOD9329101
Probable space group: F 2 2 2
;
_chemical_formula_sum "Si O2"
_cell_formula_units_Z 68
_cell_length_a 8.100230
_cell_length_b 17.159917
_cell_length_c 22.678513
_cell_angle_alpha 90.000000
_cell_angle_beta 90.000000
_cell_angle_gamma 90.000000
_cell_volume 3152.296853
_symmetry_space_group_name_H-M "F 2 2 2"
_symmetry_group_IT_number 22
_symmetry_cell_setting 'orthorhombic'
loop_
_space_group_symop_operation_xyz
x,y,z
-x,-y,z
x,-y,-z
-x,y,-z
x,1/2+y,1/2+z
-x,1/2-y,1/2+z
x,1/2-y,1/2-z
-x,1/2+y,1/2-z
1/2+x,y,1/2+z
1/2-x,-y,1/2+z
1/2+x,-y,1/2-z
1/2-x,y,1/2-z
1/2+x,1/2+y,z
1/2-x,1/2-y,z
1/2+x,1/2-y,-z
1/2-x,1/2+y,-z
loop_
_atom_site_type_symbol
_atom_site_label
_atom_site_fract_x
_atom_site_fract_y
_atom_site_fract_z
Si Si1 0.500000 0.707295 0.000000
Si Si2 0.000000 0.000000 0.851658
Si Si3 0.248290 0.895169 0.425738
Si Si4 0.500000 0.000000 0.000000
Si Si5 0.525976 0.707984 0.379715
Si Si6 0.173115 0.649721 0.686501
O O1 0.643719 0.654365 0.972116
O O2 0.445252 0.760389 0.945511
O O3 0.870331 0.952984 0.891751
O O4 0.089321 0.933826 0.814090
O O5 0.113923 0.945556 0.459976
O O6 0.147614 0.836708 0.382694
O O7 0.674795 0.652282 0.359600
O O8 0.548576 0.782840 0.336649
O O9 0.250000 0.665888 0.750000
#
# Coordination Sequence:
#
# PCOD9329101 Si02
#       6
#     8   8  16   4  16  16
#     4  12  25  41  74 110 154 190 242 306 365 457
#     4  12  26  47  73 108 146 196 252 316 378 440
#     4  12  26  42  70 113 153 199 245 299 376 457
#     4  12  26  38  66 110 164 206 232 292 378 460
#     4  11  25  44  75 107 143 199 245 302 374 433
#     4  11  27  51  76 103 147 196 256 320 370 440
#
# _framework density 21.571573000000001
#
# number of rings (size 3 to 8) (size 9 to 14) (size 15 to 20)
#    0.000    0.471    2.353    5.647   13.176    1.882 
#    0.000    0.000    5.176    0.000    0.000    0.000 
#    0.000    0.000    0.000    0.000    0.000    0.000 
#
# Total GULP energy -95174.642365 kJ/mol
# GULP energy per Si atom -5598.508374 kJ/mol
# Density = 2.152247 g / cm^3
# Si number density = 21.571573 Si / 1000 Ang^3
#
#
#
# Elastic Constant Matrix: (Units=GPa)
#
#
# Indices 1 2 3 4 5 6 
#
# 1 150.0067 83.8632 60.9384 0.0000 0.0000 0.0000
# 2 83.8632 153.9479 64.6403 0.0000 0.0000 0.0000
# 3 60.9384 64.6403 137.4621 0.0000 0.0000 0.0000
# 4 0.0000 0.0000 0.0000 27.1025 0.0000 0.0000
# 5 0.0000 0.0000 0.0000 0.0000 33.1861 0.0000
# 6 0.0000 0.0000 0.0000 0.0000 0.0000 75.9018
#
#
#
# Elastic Compliance Matrix: (Units=1/GPa)
#
#
# Indices 1 2 3 4 5 6 
#
# 1 0.010171 -0.004545 -0.002372 0.000000 0.000000 0.000000
# 2 -0.004545 0.010124 -0.002746 0.000000 0.000000 0.000000
# 3 -0.002372 -0.002746 0.009618 0.000000 0.000000 0.000000
# 4 0.000000 0.000000 0.000000 0.036897 0.000000 0.000000
# 5 0.000000 0.000000 0.000000 0.000000 0.030133 0.000000
# 6 0.000000 0.000000 0.000000 0.000000 0.000000 0.013175
#
#
# Mechanical properties :
#
#
# Convention : Reuss Voigt Hill
#
# Bulk Modulus (GPa) = 94.45101 95.58895 95.01998
# Shear Modulus (GPa) = 37.60194 42.70304 40.15249
#
# Velocity S-wave (km/s) = 4.17960 4.45409 4.31903
# Velocity P-wave (km/s) = 8.19586 8.41787 8.30761
#
# Compressibility (1/GPa) = 0.01058750
#
# Stress axis : x y z
#
# Youngs Moduli (GPa) = 98.32330 98.77046 103.97679
#
# Poissons Ratio (x) = 0.44887 0.24660
# Poissons Ratio (y) = 0.44684 0.28555
# Poissons Ratio (z) = 0.23319 0.27125
#
# Static dielectric constant tensor:
#      x y z
#    x 1.802490 0.000000 0.000000 
#    y 0.000000 1.803500 0.000000 
#    z 0.000000 0.000000 1.746300 
# 
# From -- ./inp_files/11301.got.cif
#   From: 2010.05.17/outbox.cif.g08.bks.cpg/sg22_6_cif.got.tgz:11301.got - 2010.06.03 23:40:54.
