data_PCOD9329662
_publ_section_title
;
Structure prediction by ZEFSAII (Michael W. Deem and Ramdas Pophale) SiO2 
 PCOD9329662
Probable space group: I 2 2 2
;
_chemical_formula_sum "Si O2"
_cell_formula_units_Z 58
_cell_length_a 15.397696
_cell_length_b 12.742043
_cell_length_c 16.679452
_cell_angle_alpha 90.000000
_cell_angle_beta 90.000000
_cell_angle_gamma 90.000000
_cell_volume 3272.476867
_symmetry_space_group_name_H-M "I 2 2 2"
_symmetry_group_IT_number 23
_symmetry_cell_setting 'orthorhombic'
loop_
_space_group_symop_operation_xyz
x,y,z
-x,-y,z
x,-y,-z
-x,y,-z
1/2+x,1/2+y,1/2+z
1/2-x,1/2-y,1/2+z
1/2+x,1/2-y,1/2-z
1/2-x,1/2+y,1/2-z
loop_
_atom_site_type_symbol
_atom_site_label
_atom_site_fract_x
_atom_site_fract_y
_atom_site_fract_z
Si Si1 0.026430 0.116288 0.214809
Si Si2 0.183702 0.169008 0.330722
Si Si3 0.636225 0.329045 0.823164
Si Si4 0.808169 0.390497 0.742469
Si Si5 0.597515 0.375011 0.000642
Si Si6 0.466239 0.158133 0.642959
Si Si7 0.000000 0.500000 0.000000
Si Si8 0.639937 0.890780 0.258861
O O1 0.955667 0.137106 0.285327
O O2 0.118756 0.124105 0.261559
O O3 0.021468 0.213571 0.150778
O O4 0.000000 0.000000 0.183501
O O5 0.189562 0.293933 0.317831
O O6 0.145898 0.151278 0.418005
O O7 0.279603 0.121685 0.320200
O O8 0.712219 0.392947 0.779343
O O9 0.641268 0.342727 0.917657
O O10 0.646715 0.208214 0.799076
O O11 0.876555 0.361610 0.811567
O O12 0.842286 0.501755 0.712423
O O13 0.591104 0.500000 0.000000
O O14 0.500000 0.330008 0.000000
O O15 0.549059 0.114809 0.693768
O O16 0.460189 0.087051 0.562577
#
# Coordination Sequence:
#
# PCOD9329662 Si02
#       8
#     8   8   8   8   8   8   2   8
#     4  10  18  35  55  81 108 143 178 224 269 334
#     4  10  21  32  56  82 110 142 183 220 277 324
#     4  10  21  32  56  82 110 142 183 220 277 324
#     4  10  19  37  54  78 105 148 186 224 259 326
#     4  11  20  33  52  82 115 140 169 229 284 323
#     4  10  22  34  56  76 108 143 183 228 271 309
#     4  12  20  40  54  80 104 140 188 238 268 312
#     4  10  19  37  54  78 105 148 186 224 259 326
#
# _framework density 17.723578
#
# number of rings (size 3 to 8) (size 9 to 14) (size 15 to 20)
#    0.000    1.793    2.759    2.483    0.000    1.103 
#    2.483    1.034    0.000    0.828    0.000   11.586 
#    0.000    0.000    0.000    0.000    0.000    0.000 
#
# Total GULP energy -161489.736728 kJ/mol
# GULP energy per Si atom -5568.611611 kJ/mol
# Density = 1.768324 g / cm^3
# Si number density = 17.723578 Si / 1000 Ang^3
#
#
#
# Elastic Constant Matrix: (Units=GPa)
#
#
# Indices 1 2 3 4 5 6 
#
# 1 73.8836 -5.2783 4.6980 0.0000 0.0000 0.0000
# 2 -5.2783 106.4541 15.0872 0.0000 0.0000 0.0000
# 3 4.6980 15.0872 72.4908 0.0000 0.0000 0.0000
# 4 0.0000 0.0000 0.0000 14.4643 0.0000 0.0000
# 5 0.0000 0.0000 0.0000 0.0000 52.0003 0.0000
# 6 0.0000 0.0000 0.0000 0.0000 0.0000 25.8137
#
#
#
# Elastic Compliance Matrix: (Units=1/GPa)
#
#
# Indices 1 2 3 4 5 6 
#
# 1 0.013661 0.000827 -0.001058 0.000000 0.000000 0.000000
# 2 0.000827 0.009729 -0.002079 0.000000 0.000000 0.000000
# 3 -0.001058 -0.002079 0.014296 0.000000 0.000000 0.000000
# 4 0.000000 0.000000 0.000000 0.069136 0.000000 0.000000
# 5 0.000000 0.000000 0.000000 0.000000 0.019231 0.000000
# 6 0.000000 0.000000 0.000000 0.000000 0.000000 0.038739
#
#
# Mechanical properties :
#
#
# Convention : Reuss Voigt Hill
#
# Bulk Modulus (GPa) = 30.23998 31.31581 30.77790
# Shear Modulus (GPa) = 27.71115 34.34375 31.02745
#
# Velocity S-wave (km/s) = 3.95843 4.40676 4.18859
# Velocity P-wave (km/s) = 6.16370 6.60303 6.38715
#
# Compressibility (1/GPa) = 0.03306881
#
# Stress axis : x y z
#
# Youngs Moduli (GPa) = 73.20030 102.78215 69.94975
#
# Poissons Ratio (x) = -0.08502 0.07397
# Poissons Ratio (y) = -0.06055 0.14539
# Poissons Ratio (z) = 0.07741 0.21364
#
# Static dielectric constant tensor:
#      x y z
#    x 1.626250 0.000000 0.000000 
#    y 0.000000 1.669310 0.000000 
#    z 0.000000 0.000000 1.558780 
# 
# From -- ./inp_files/16951.got.cif
#   From: 2010.05.17/outbox.cif.g08.bks.cpg/sg23_9_cif.got.tgz:16951.got - 2010.06.04 12:02:01.
