data_PCOD9329443
_publ_section_title
;
Structure prediction by ZEFSAII (Michael W. Deem and Ramdas Pophale) SiO2 
 PCOD9329443
Probable space group: I 2 2 2
;
_chemical_formula_sum "Si O2"
_cell_formula_units_Z 60
_cell_length_a 23.077600
_cell_length_b 5.709869
_cell_length_c 29.464223
_cell_angle_alpha 90.000000
_cell_angle_beta 90.000000
_cell_angle_gamma 90.000000
_cell_volume 3882.502811
_symmetry_space_group_name_H-M "I 2 2 2"
_symmetry_group_IT_number 23
_symmetry_cell_setting 'orthorhombic'
loop_
_space_group_symop_operation_xyz
x,y,z
-x,-y,z
x,-y,-z
-x,y,-z
1/2+x,1/2+y,1/2+z
1/2-x,1/2-y,1/2+z
1/2+x,1/2-y,1/2-z
1/2-x,1/2+y,1/2-z
loop_
_atom_site_type_symbol
_atom_site_label
_atom_site_fract_x
_atom_site_fract_y
_atom_site_fract_z
Si Si1 0.438162 0.678252 0.342652
Si Si2 0.119456 0.555153 0.210390
Si Si3 0.372322 0.996795 0.554261
Si Si4 0.340398 0.497835 0.597398
Si Si5 0.559808 0.438816 0.755151
Si Si6 0.321315 0.665215 0.231553
Si Si7 0.723031 0.607664 0.316164
Si Si8 0.500000 0.000000 0.401626
O O1 0.399417 0.514129 0.373277
O O2 0.444051 0.585383 0.291867
O O3 0.493633 0.773432 0.368779
O O4 0.400151 0.910048 0.332973
O O5 0.066446 0.677184 0.236340
O O6 0.150529 0.395154 0.247159
O O7 0.166465 0.736755 0.193077
O O8 0.343473 0.749952 0.571655
O O9 0.370397 0.000000 0.500000
O O10 0.343984 0.246568 0.570938
O O11 0.440366 0.996107 0.569959
O O12 0.288420 0.497047 0.634643
O O13 0.500000 0.500000 0.780219
O O14 0.622134 0.502720 0.777296
O O15 0.281405 0.566798 0.272887
O O16 0.280020 0.735413 0.190299
#
# Coordination Sequence:
#
# PCOD9329443 Si02
#       8
#     8   8   8   8   8   8   8   4
#     4  10  19  28  45  71  88 121 167 206 258 295
#     4  10  17  31  42  64  98 128 157 208 251 291
#     4  11  25  41  52  70  93 123 164 219 277 318
#     4  11  22  35  57  69  92 122 165 207 259 316
#     4  10  20  29  44  63  99 131 168 205 245 296
#     4  10  20  28  46  68  97 129 150 216 250 296
#     4  11  18  30  48  71  96 121 163 201 266 297
#     4  10  21  32  52  66  90 124 160 222 262 320
#
# _framework density 15.453950000000001
#
# number of rings (size 3 to 8) (size 9 to 14) (size 15 to 20)
#    0.000    1.600    5.333    3.000    1.867    3.200 
#    0.000    2.667    0.000    0.000    0.000    0.000 
#    0.000    0.000    0.000    0.000    0.000    0.667 
#
# Total GULP energy -167008.986432 kJ/mol
# GULP energy per Si atom -5566.966214 kJ/mol
# Density = 1.541878 g / cm^3
# Si number density = 15.453950 Si / 1000 Ang^3
#
#
#
# Elastic Constant Matrix: (Units=GPa)
#
#
# Indices 1 2 3 4 5 6 
#
# 1 62.9643 16.4258 31.1585 0.0000 0.0000 0.0000
# 2 16.4258 75.0609 27.2294 0.0000 0.0000 0.0000
# 3 31.1585 27.2294 63.0394 0.0000 0.0000 0.0000
# 4 0.0000 0.0000 0.0000 18.5164 0.0000 0.0000
# 5 0.0000 0.0000 0.0000 0.0000 19.4134 0.0000
# 6 0.0000 0.0000 0.0000 0.0000 0.0000 24.3430
#
#
#
# Elastic Compliance Matrix: (Units=1/GPa)
#
#
# Indices 1 2 3 4 5 6 
#
# 1 0.021086 -0.000988 -0.009995 0.000000 0.000000 0.000000
# 2 -0.000988 0.015844 -0.006355 0.000000 0.000000 0.000000
# 3 -0.009995 -0.006355 0.023549 0.000000 0.000000 0.000000
# 4 0.000000 0.000000 0.000000 0.054006 0.000000 0.000000
# 5 0.000000 0.000000 0.000000 0.000000 0.051511 0.000000
# 6 0.000000 0.000000 0.000000 0.000000 0.000000 0.041080
#
#
# Mechanical properties :
#
#
# Convention : Reuss Voigt Hill
#
# Bulk Modulus (GPa) = 38.75819 38.96581 38.86200
# Shear Modulus (GPa) = 19.97172 20.87129 20.42150
#
# Velocity S-wave (km/s) = 3.59881 3.67897 3.63911
# Velocity P-wave (km/s) = 6.51174 6.58143 6.54668
#
# Compressibility (1/GPa) = 0.02580100
#
# Stress axis : x y z
#
# Youngs Moduli (GPa) = 47.42449 63.11431 42.46537
#
# Poissons Ratio (x) = 0.06238 0.42446
# Poissons Ratio (y) = 0.04687 0.26988
# Poissons Ratio (z) = 0.47402 0.40111
#
# Static dielectric constant tensor:
#      x y z
#    x 1.559370 0.000000 0.000000 
#    y 0.000000 1.642930 0.000000 
#    z 0.000000 0.000000 1.513270 
# 
# From -- ./inp_files/30681.got.cif
#   From: 2010.05.17/outbox.cif.g08.bks.cpg/sg23_16_cif.got.tgz:30681.got - 2010.06.04 12:02:01.
