data_PCOD9329615
_publ_section_title
;
Structure prediction by ZEFSAII (Michael W. Deem and Ramdas Pophale) SiO2 
 PCOD9329615
Probable space group: I 2 2 2
;
_chemical_formula_sum "Si O2"
_cell_formula_units_Z 48
_cell_length_a 30.687591
_cell_length_b 10.099408
_cell_length_c 7.900218
_cell_angle_alpha 90.000000
_cell_angle_beta 90.000000
_cell_angle_gamma 90.000000
_cell_volume 2448.486930
_symmetry_space_group_name_H-M "I 2 2 2"
_symmetry_group_IT_number 23
_symmetry_cell_setting 'orthorhombic'
loop_
_space_group_symop_operation_xyz
x,y,z
-x,-y,z
x,-y,-z
-x,y,-z
1/2+x,1/2+y,1/2+z
1/2-x,1/2-y,1/2+z
1/2+x,1/2-y,1/2-z
1/2-x,1/2+y,1/2-z
loop_
_atom_site_type_symbol
_atom_site_label
_atom_site_fract_x
_atom_site_fract_y
_atom_site_fract_z
Si Si1 0.011149 0.653454 0.798377
Si Si2 0.203151 0.626703 0.879148
Si Si3 0.718047 0.375140 0.621823
Si Si4 0.123611 0.884301 0.138731
Si Si5 0.394063 0.136692 0.600481
Si Si6 0.535158 0.412228 0.827661
O O1 0.063619 0.669472 0.787883
O O2 0.000000 0.500000 0.756003
O O3 0.985042 0.763503 0.689249
O O4 0.000000 0.672394 0.000000
O O5 0.239825 0.628884 0.737496
O O6 0.153284 0.628231 0.811110
O O7 0.206630 0.500000 0.000000
O O8 0.212382 0.750428 0.999848
O O9 0.721677 0.500000 0.500000
O O10 0.671709 0.381444 0.719952
O O11 0.083437 0.908746 0.258924
O O12 0.113009 0.749328 0.039849
O O13 0.124824 0.000000 0.000000
O O14 0.402936 0.000000 0.500000
O O15 0.500000 0.500000 0.723378
O O16 0.539224 0.500000 0.000000
#
# Coordination Sequence:
#
# PCOD9329615 Si02
#       6
#     8   8   8   8   8   8
#     4  11  19  35  66  93 114 153 212 254 294 353
#     4  10  21  36  59  85 121 152 196 256 302 357
#     4  10  21  38  58  86 117 157 204 245 302 359
#     4  10  20  35  59  83 112 157 206 242 281 361
#     4  10  18  33  58  93 113 141 202 256 291 345
#     4  11  24  38  54  89 130 157 193 249 313 365
#
# _framework density 19.603945
#
# number of rings (size 3 to 8) (size 9 to 14) (size 15 to 20)
#    0.000    1.667    3.333    2.000    0.000    0.667 
#    0.000    5.000    0.000    0.000    0.000    0.000 
#    0.000    0.000    0.000    0.000    0.000    0.000 
#
# Total GULP energy -133782.568561 kJ/mol
# GULP energy per Si atom -5574.273690 kJ/mol
# Density = 1.955933 g / cm^3
# Si number density = 19.603945 Si / 1000 Ang^3
#
#
#
# Elastic Constant Matrix: (Units=GPa)
#
#
# Indices 1 2 3 4 5 6 
#
# 1 228.7154 27.1817 63.6726 0.0000 0.0000 0.0000
# 2 27.1817 126.9805 32.5693 0.0000 0.0000 0.0000
# 3 63.6726 32.5693 48.9854 0.0000 0.0001 0.0000
# 4 0.0000 0.0000 0.0000 18.4366 0.0000 0.0000
# 5 0.0000 0.0000 0.0001 0.0000 80.1692 0.0000
# 6 0.0000 0.0000 0.0000 0.0000 0.0000 26.6482
#
#
#
# Elastic Compliance Matrix: (Units=1/GPa)
#
#
# Indices 1 2 3 4 5 6 
#
# 1 0.006955 0.001001 -0.009706 0.000000 0.000000 0.000000
# 2 0.001001 0.009638 -0.007709 0.000000 0.000000 0.000000
# 3 -0.009706 -0.007709 0.038156 0.000000 0.000000 0.000000
# 4 0.000000 0.000000 0.000000 0.054240 0.000000 0.000000
# 5 0.000000 0.000000 0.000000 0.000000 0.012474 0.000000
# 6 0.000000 0.000000 0.000000 0.000000 0.000000 0.037526
#
#
# Mechanical properties :
#
#
# Convention : Reuss Voigt Hill
#
# Bulk Modulus (GPa) = 45.61863 72.39205 59.00534
# Shear Modulus (GPa) = 25.10979 43.80132 34.45555
#
# Velocity S-wave (km/s) = 3.58278 4.73198 4.19690
# Velocity P-wave (km/s) = 6.35891 8.17698 7.32457
#
# Compressibility (1/GPa) = 0.02192087
#
# Stress axis : x y z
#
# Youngs Moduli (GPa) = 143.77208 103.75270 26.20809
#
# Poissons Ratio (x) = -0.10382 0.25438
# Poissons Ratio (y) = -0.14387 0.20204
# Poissons Ratio (z) = 1.39548 0.79983
#
# Static dielectric constant tensor:
#      x y z
#    x 1.763080 0.000000 0.000000 
#    y 0.000000 1.679640 0.000000 
#    z 0.000000 0.000000 1.732260 
# 
# From -- ./inp_files/7378.got.cif
#   From: 2010.05.17/outbox.cif.g08.bks.cpg/sg23_4_cif.got.tgz:7378.got - 2010.06.04 12:02:01.
