data_PCOD9329175
_publ_section_title
;
Structure prediction by ZEFSAII (Michael W. Deem and Ramdas Pophale) SiO2 
 PCOD9329175
Probable space group: F 2 2 2
;
_chemical_formula_sum "Si O2"
_cell_formula_units_Z 64
_cell_length_a 8.469058
_cell_length_b 14.470543
_cell_length_c 21.936561
_cell_angle_alpha 90.000000
_cell_angle_beta 90.000000
_cell_angle_gamma 90.000000
_cell_volume 2688.366527
_symmetry_space_group_name_H-M "F 2 2 2"
_symmetry_group_IT_number 22
_symmetry_cell_setting 'orthorhombic'
loop_
_space_group_symop_operation_xyz
x,y,z
-x,-y,z
x,-y,-z
-x,y,-z
x,1/2+y,1/2+z
-x,1/2-y,1/2+z
x,1/2-y,1/2-z
-x,1/2+y,1/2-z
1/2+x,y,1/2+z
1/2-x,-y,1/2+z
1/2+x,-y,1/2-z
1/2-x,y,1/2-z
1/2+x,1/2+y,z
1/2-x,1/2-y,z
1/2+x,1/2-y,-z
1/2-x,1/2+y,-z
loop_
_atom_site_type_symbol
_atom_site_label
_atom_site_fract_x
_atom_site_fract_y
_atom_site_fract_z
Si Si1 0.190451 0.646939 0.999666
Si Si2 0.442025 0.746846 0.321202
Si Si3 0.128620 0.922390 0.880027
Si Si4 0.863952 0.939454 0.619856
O O1 0.250000 0.750000 0.003303
O O2 0.222536 0.893852 0.940871
O O3 0.234648 0.600956 0.063809
O O4 0.000000 0.648202 0.000000
O O5 0.481606 0.750000 0.250000
O O6 0.250000 0.750000 0.326875
O O7 0.543399 0.829992 0.352356
O O8 0.458539 0.643639 0.347608
O O9 0.255489 0.987956 0.842564
O O10 0.000000 0.000000 0.892724
O O11 0.000000 0.000000 0.590404
#
# Coordination Sequence:
#
# PCOD9329175 Si02
#       4
#    16  16  16  16
#     4  12  27  47  78 112 164 212 254 334 411 482
#     4  11  26  54  81 115 167 216 270 340 401 472
#     4  12  27  49  81 121 158 211 275 323 409 494
#     4  12  26  49  77 117 164 209 270 332 403 485
#
# _framework density 23.806277000000001
#
# number of rings (size 3 to 8) (size 9 to 14) (size 15 to 20)
#    0.000    0.250    5.000    3.000    3.500    2.000 
#    0.000    1.250    0.000    0.000    0.000    0.000 
#    0.000    0.000    0.000    0.000    0.000    0.000 
#
# Total GULP energy -89210.183569 kJ/mol
# GULP energy per Si atom -5575.636473 kJ/mol
# Density = 2.375209 g / cm^3
# Si number density = 23.806277 Si / 1000 Ang^3
#
#
#
# Elastic Constant Matrix: (Units=GPa)
#
#
# Indices 1 2 3 4 5 6 
#
# 1 111.4498 93.4697 51.9387 0.0000 0.0000 0.0000
# 2 93.4697 245.0801 88.0892 0.0000 0.0000 0.0000
# 3 51.9387 88.0892 130.9382 0.0000 0.0000 0.0000
# 4 0.0000 0.0000 0.0000 -6.3649 0.0000 0.0000
# 5 0.0000 0.0000 0.0000 0.0000 17.3540 0.0000
# 6 0.0000 0.0000 0.0000 0.0000 0.0000 70.1312
#
#
#
# Elastic Compliance Matrix: (Units=1/GPa)
#
#
# Indices 1 2 3 4 5 6 
#
# 1 0.013810 -0.004350 -0.002552 0.000000 0.000000 0.000000
# 2 -0.004350 0.006752 -0.002817 0.000000 0.000000 0.000000
# 3 -0.002552 -0.002817 0.010544 0.000000 0.000000 0.000000
# 4 0.000000 0.000000 0.000000 -0.157112 0.000000 0.000000
# 5 0.000000 0.000000 0.000000 0.000000 0.057624 0.000000
# 6 0.000000 0.000000 0.000000 0.000000 0.000000 0.014259
#
#
# Mechanical properties :
#
#
# Convention : Reuss Voigt Hill
#
# Bulk Modulus (GPa) = 85.69324 106.05147 95.87236
# Shear Modulus (GPa) = -162.35015 33.15543 -64.59736
#
# Velocity S-wave (km/s) = -8.26707 3.73596 -5.21474
# Velocity P-wave (km/s) = 7.41968 7.95326 2.02517
#
# Compressibility (1/GPa) = 0.01166953
#
# Stress axis : x y z
#
# Youngs Moduli (GPa) = 72.41286 148.11177 94.83757
#
# Poissons Ratio (x) = 0.64424 0.24198
# Poissons Ratio (y) = 0.31497 0.26714
# Poissons Ratio (z) = 0.18477 0.41721
#
# Static dielectric constant tensor:
#      x y z
#    x 2.017310 0.000000 0.000000 
#    y 0.000000 2.061670 0.000000 
#    z 0.000000 0.000000 1.886590 
# 
# From -- ./inp_files/47839.got.cif
#   From: 2010.05.17/outbox.cif.g08.bks.cpg/sg22_24_cif.got.tgz:47839.got - 2010.06.03 23:40:54.
