data_PCOD9329261
_publ_section_title
;
Structure prediction by ZEFSAII (Michael W. Deem and Ramdas Pophale) SiO2 
 PCOD9329261
Probable space group: F 2 2 2
;
_chemical_formula_sum "Si O2"
_cell_formula_units_Z 92
_cell_length_a 11.498594
_cell_length_b 18.482760
_cell_length_c 17.398912
_cell_angle_alpha 90.000000
_cell_angle_beta 90.000000
_cell_angle_gamma 90.000000
_cell_volume 3697.716878
_symmetry_space_group_name_H-M "F 2 2 2"
_symmetry_group_IT_number 22
_symmetry_cell_setting 'orthorhombic'
loop_
_space_group_symop_operation_xyz
x,y,z
-x,-y,z
x,-y,-z
-x,y,-z
x,1/2+y,1/2+z
-x,1/2-y,1/2+z
x,1/2-y,1/2-z
-x,1/2+y,1/2-z
1/2+x,y,1/2+z
1/2-x,-y,1/2+z
1/2+x,-y,1/2-z
1/2-x,y,1/2-z
1/2+x,1/2+y,z
1/2-x,1/2-y,z
1/2+x,1/2-y,-z
1/2-x,1/2+y,-z
loop_
_atom_site_type_symbol
_atom_site_label
_atom_site_fract_x
_atom_site_fract_y
_atom_site_fract_z
Si Si1 0.934490 0.330126 0.753105
Si Si2 0.750000 0.250000 0.959984
Si Si3 0.750000 0.936368 0.750000
Si Si4 0.000000 0.000000 0.500000
Si Si5 0.845812 0.684346 0.853581
Si Si6 0.605426 0.039357 0.652852
Si Si7 0.000000 0.230625 0.500000
Si Si8 0.331844 0.404226 0.399502
O O1 0.880099 0.250000 0.750000
O O2 0.928354 0.379101 0.678093
O O3 0.871769 0.380367 0.815077
O O4 0.064097 0.315384 0.782871
O O5 0.702502 0.172817 0.933361
O O6 0.615715 0.276621 0.981087
O O7 0.775926 0.887063 0.674037
O O8 0.642262 0.987516 0.725336
O O9 0.925399 0.948173 0.446195
O O10 0.750000 0.750000 0.861573
O O11 0.936979 0.688248 0.926262
O O12 0.720555 0.045619 0.604604
O O13 0.500000 0.000000 0.613252
#
# Coordination Sequence:
#
# PCOD9329261 Si02
#       8
#    16   8   8   4  16  16   8  16
#     4  12  25  47  78 119 161 210 279 355 428 519
#     4  12  26  52  81 119 156 232 290 366 416 544
#     4  12  25  46  79 116 166 210 280 350 437 520
#     4  12  34  56  86 124 174 238 288 356 454 584
#     4  12  27  48  79 122 163 222 283 356 434 529
#     4  12  27  47  73 117 160 210 266 355 427 508
#     4  12  27  50  80 120 171 222 298 356 431 526
#     4  12  28  52  83 117 166 226 284 356 441 531
#
# _framework density 24.880216999999998
#
# number of rings (size 3 to 8) (size 9 to 14) (size 15 to 20)
#    0.000    0.000    6.087    2.870    3.652    0.696 
#    3.130    0.000    0.000    0.000    0.000    0.000 
#    0.000    0.000    0.000    0.000    0.000    0.000 
#
# Total GULP energy -128108.403450 kJ/mol
# GULP energy per Si atom -5569.930585 kJ/mol
# Density = 2.482359 g / cm^3
# Si number density = 24.880217 Si / 1000 Ang^3
#
#
#
# Elastic Constant Matrix: (Units=GPa)
#
#
# Indices 1 2 3 4 5 6 
#
# 1 163.7966 44.1574 40.9834 0.0000 0.0000 0.0000
# 2 44.1574 159.0752 46.6276 0.0000 0.0000 0.0000
# 3 40.9834 46.6276 47.5190 0.0000 0.0000 0.0000
# 4 0.0000 0.0000 0.0000 13.2028 0.0000 0.0000
# 5 0.0000 0.0000 0.0000 0.0000 -192.7658 0.0000
# 6 0.0000 0.0000 0.0000 0.0000 0.0000 49.5258
#
#
#
# Elastic Compliance Matrix: (Units=1/GPa)
#
#
# Indices 1 2 3 4 5 6 
#
# 1 0.007793 -0.000271 -0.006456 0.000000 0.000000 0.000000
# 2 -0.000271 0.008834 -0.008434 0.000000 0.000000 0.000000
# 3 -0.006456 -0.008434 0.034888 0.000000 0.000000 0.000000
# 4 0.000000 0.000000 0.000000 0.075742 0.000000 0.000000
# 5 0.000000 0.000000 0.000000 0.000000 -0.005188 0.000000
# 6 0.000000 0.000000 0.000000 0.000000 0.000000 0.020192
#
#
# Mechanical properties :
#
#
# Convention : Reuss Voigt Hill
#
# Bulk Modulus (GPa) = 47.18464 70.43640 58.81052
# Shear Modulus (GPa) = 27.83235 -10.09930 8.86652
#
# Velocity S-wave (km/s) = 3.34826 -2.01692 1.88982
# Velocity P-wave (km/s) = 5.82698 4.79037 5.33392
#
# Compressibility (1/GPa) = 0.02119334
#
# Stress axis : x y z
#
# Youngs Moduli (GPa) = 128.31263 113.20127 28.66325
#
# Poissons Ratio (x) = 0.03069 0.18504
# Poissons Ratio (y) = 0.03479 0.24175
# Poissons Ratio (z) = 0.82832 0.95477
#
# Static dielectric constant tensor:
#      x y z
#    x 2.105310 0.000000 0.000000 
#    y 0.000000 2.022430 0.000000 
#    z 0.000000 0.000000 2.226960 
# 
# From -- ./inp_files/42677.got.cif
#   From: 2010.05.17/outbox.cif.g08.bks.cpg/sg22_22_cif.got.tgz:42677.got - 2010.06.03 23:40:54.
