data_PCOD9329018
_publ_section_title
;
Structure prediction by ZEFSAII (Michael W. Deem and Ramdas Pophale) SiO2 
 PCOD9329018
Probable space group: F 2 2 2
;
_chemical_formula_sum "Si O2"
_cell_formula_units_Z 64
_cell_length_a 16.187034
_cell_length_b 9.834826
_cell_length_c 16.224701
_cell_angle_alpha 90.000000
_cell_angle_beta 90.000000
_cell_angle_gamma 90.000000
_cell_volume 2582.918255
_symmetry_space_group_name_H-M "F 2 2 2"
_symmetry_group_IT_number 22
_symmetry_cell_setting 'orthorhombic'
loop_
_space_group_symop_operation_xyz
x,y,z
-x,-y,z
x,-y,-z
-x,y,-z
x,1/2+y,1/2+z
-x,1/2-y,1/2+z
x,1/2-y,1/2-z
-x,1/2+y,1/2-z
1/2+x,y,1/2+z
1/2-x,-y,1/2+z
1/2+x,-y,1/2-z
1/2-x,y,1/2-z
1/2+x,1/2+y,z
1/2-x,1/2-y,z
1/2+x,1/2-y,-z
1/2-x,1/2+y,-z
loop_
_atom_site_type_symbol
_atom_site_label
_atom_site_fract_x
_atom_site_fract_y
_atom_site_fract_z
Si Si1 0.347407 0.739724 0.401774
Si Si2 0.644556 0.155030 0.583970
Si Si3 0.327019 0.948439 0.863627
Si Si4 0.583997 0.957706 0.708778
O O1 0.250000 0.750000 0.379838
O O2 0.359930 0.819832 0.486930
O O3 0.361032 0.579127 0.412579
O O4 0.399841 0.810223 0.330100
O O5 0.631386 0.197090 0.876016
O O6 0.734358 0.089458 0.606070
O O7 0.583417 0.055281 0.629112
O O8 0.342333 0.997273 0.769957
O O9 0.500000 0.000000 0.754394
#
# Coordination Sequence:
#
# PCOD9329018 Si02
#       4
#    16  16  16  16
#     4  12  24  43  74 108 140 181 244 306 356 425
#     4  11  24  43  73 107 139 183 244 305 354 420
#     4  11  24  44  71 105 139 186 241 295 355 430
#     4  12  28  47  70 105 151 194 234 296 373 436
#
# _framework density 24.778175999999998
#
# number of rings (size 3 to 8) (size 9 to 14) (size 15 to 20)
#    0.000    0.500    5.000    3.750    0.000    9.000 
#    0.000    0.000    0.000    4.500    0.000    0.000 
#    0.000    0.000    0.000    0.000    0.000    0.000 
#
# Total GULP energy -89464.654647 kJ/mol
# GULP energy per Si atom -5591.540915 kJ/mol
# Density = 2.472178 g / cm^3
# Si number density = 24.778176 Si / 1000 Ang^3
#
#
#
# Elastic Constant Matrix: (Units=GPa)
#
#
# Indices 1 2 3 4 5 6 
#
# 1 50.2518 8.7549 30.1350 0.0000 0.0000 0.0000
# 2 8.7549 146.7482 58.0398 0.0000 0.0000 0.0000
# 3 30.1350 58.0398 145.8817 0.0000 0.0000 0.0000
# 4 0.0000 0.0000 0.0000 50.5990 0.0000 0.0000
# 5 0.0000 0.0000 0.0000 0.0000 12.9847 0.0000
# 6 0.0000 0.0000 0.0000 0.0000 0.0000 30.8703
#
#
#
# Elastic Compliance Matrix: (Units=1/GPa)
#
#
# Indices 1 2 3 4 5 6 
#
# 1 0.022757 0.000595 -0.004938 0.000000 0.000000 0.000000
# 2 0.000595 0.008102 -0.003347 0.000000 0.000000 0.000000
# 3 -0.004938 -0.003347 0.009206 0.000000 0.000000 0.000000
# 4 0.000000 0.000000 0.000000 0.019763 0.000000 0.000000
# 5 0.000000 0.000000 0.000000 0.000000 0.077014 0.000000
# 6 0.000000 0.000000 0.000000 0.000000 0.000000 0.032394
#
#
# Mechanical properties :
#
#
# Convention : Reuss Voigt Hill
#
# Bulk Modulus (GPa) = 40.50594 59.63790 50.07192
# Shear Modulus (GPa) = 25.92767 35.28760 30.60763
#
# Velocity S-wave (km/s) = 3.23831 3.77787 3.51845
# Velocity P-wave (km/s) = 5.51045 6.56892 6.06283
#
# Compressibility (1/GPa) = 0.02468773
#
# Stress axis : x y z
#
# Youngs Moduli (GPa) = 43.94217 123.41915 108.62085
#
# Poissons Ratio (x) = -0.07347 0.53635
# Poissons Ratio (y) = -0.02616 0.36351
# Poissons Ratio (z) = 0.21698 0.41303
#
# Static dielectric constant tensor:
#      x y z
#    x 2.217260 0.000000 0.000000 
#    y 0.000000 1.970920 0.000000 
#    z 0.000000 0.000000 1.990960 
# 
# From -- ./inp_files/38622.got.cif
#   From: 2010.05.17/outbox.cif.g08.bks.cpg/sg22_20_cif.got.tgz:38622.got - 2010.06.03 23:40:54.
