data_PCOD9329082
_publ_section_title
;
Structure prediction by ZEFSAII (Michael W. Deem and Ramdas Pophale) SiO2 
 PCOD9329082
Probable space group: F 2 2 2
;
_chemical_formula_sum "Si O2"
_cell_formula_units_Z 36
_cell_length_a 5.450785
_cell_length_b 22.097952
_cell_length_c 12.078319
_cell_angle_alpha 90.000000
_cell_angle_beta 90.000000
_cell_angle_gamma 90.000000
_cell_volume 1454.847840
_symmetry_space_group_name_H-M "F 2 2 2"
_symmetry_group_IT_number 22
_symmetry_cell_setting 'orthorhombic'
loop_
_space_group_symop_operation_xyz
x,y,z
-x,-y,z
x,-y,-z
-x,y,-z
x,1/2+y,1/2+z
-x,1/2-y,1/2+z
x,1/2-y,1/2-z
-x,1/2+y,1/2-z
1/2+x,y,1/2+z
1/2-x,-y,1/2+z
1/2+x,-y,1/2-z
1/2-x,y,1/2-z
1/2+x,1/2+y,z
1/2-x,1/2-y,z
1/2+x,1/2-y,-z
1/2-x,1/2+y,-z
loop_
_atom_site_type_symbol
_atom_site_label
_atom_site_fract_x
_atom_site_fract_y
_atom_site_fract_z
Si Si1 0.500000 0.500000 0.681950
Si Si2 0.000000 0.400064 0.000000
Si Si3 0.750000 0.750000 0.250000
Si Si4 0.648135 0.683228 0.870374
O O1 0.250000 0.487714 0.750000
O O2 0.562519 0.443461 0.602622
O O3 0.765134 0.361349 0.040685
O O4 0.623033 0.702801 0.165435
O O5 0.750000 0.663886 0.750000
O O6 0.750000 0.750000 0.897509
#
# Coordination Sequence:
#
# PCOD9329082 Si02
#       4
#     8   8   4  16
#     4  11  28  59  80 118 160 209 288 359 408 472
#     4  11  24  50  86 114 156 223 268 328 424 497
#     4   8  18  44  76 106 192 204 252 332 402 482
#     4   9  20  46  67 118 165 207 252 325 396 496
#
# _framework density 24.744855000000001
#
# number of rings (size 3 to 8) (size 9 to 14) (size 15 to 20)
#    0.000    2.667    0.000    1.333    0.000    3.556 
#   68.000    4.444    0.000    0.000    0.000    0.000 
#    0.000    0.000    0.000    0.000    0.000    0.000 
#
# Total GULP energy -50177.530023 kJ/mol
# GULP energy per Si atom -5575.281114 kJ/mol
# Density = 2.468853 g / cm^3
# Si number density = 24.744855 Si / 1000 Ang^3
#
#
#
# Elastic Constant Matrix: (Units=GPa)
#
#
# Indices 1 2 3 4 5 6 
#
# 1 128.0665 58.7865 92.5039 0.0000 0.0000 0.0000
# 2 58.7865 159.5088 100.3945 0.0000 0.0000 0.0000
# 3 92.5039 100.3945 193.4126 0.0000 0.0000 0.0000
# 4 0.0000 0.0000 0.0000 0.2408 0.0000 0.0000
# 5 0.0000 0.0000 0.0000 0.0000 33.6527 0.0000
# 6 0.0000 0.0000 0.0000 0.0000 0.0000 26.5239
#
#
#
# Elastic Compliance Matrix: (Units=1/GPa)
#
#
# Indices 1 2 3 4 5 6 
#
# 1 0.012085 -0.001212 -0.005151 0.000000 0.000000 0.000000
# 2 -0.001212 0.009433 -0.004317 0.000000 0.000000 0.000000
# 3 -0.005151 -0.004317 0.009874 0.000000 0.000000 0.000000
# 4 0.000000 0.000000 0.000000 4.152176 0.000000 0.000000
# 5 0.000000 0.000000 0.000000 0.000000 0.029715 0.000000
# 6 0.000000 0.000000 0.000000 0.000000 0.000000 0.037702
#
#
# Mechanical properties :
#
#
# Convention : Reuss Voigt Hill
#
# Bulk Modulus (GPa) = 99.66643 109.37308 104.51975
# Shear Modulus (GPa) = 1.16940 27.37036 14.26988
#
# Velocity S-wave (km/s) = 0.68819 3.32942 2.40402
# Velocity P-wave (km/s) = 6.40286 7.68611 7.07364
#
# Compressibility (1/GPa) = 0.01003347
#
# Stress axis : x y z
#
# Youngs Moduli (GPa) = 82.74432 106.01325 101.27104
#
# Poissons Ratio (x) = 0.12849 0.52165
# Poissons Ratio (y) = 0.10029 0.43715
# Poissons Ratio (z) = 0.42622 0.45762
#
# Static dielectric constant tensor:
#      x y z
#    x 2.167720 0.000000 0.000000 
#    y 0.000000 1.923570 0.000000 
#    z 0.000000 0.000000 2.007780 
# 
# From -- ./inp_files/1423.got.cif
#   From: 2010.05.17/outbox.cif.g08.bks.cpg/sg22_1_cif.got.tgz:1423.got - 2010.06.03 23:40:54.
