data_PCOD9329735
_publ_section_title
;
Structure prediction by ZEFSAII (Michael W. Deem and Ramdas Pophale) SiO2 
 PCOD9329735
Probable space group: I 2 2 2
;
_chemical_formula_sum "Si O2"
_cell_formula_units_Z 40
_cell_length_a 11.097079
_cell_length_b 15.880603
_cell_length_c 11.965836
_cell_angle_alpha 90.000000
_cell_angle_beta 90.000000
_cell_angle_gamma 90.000000
_cell_volume 2108.719009
_symmetry_space_group_name_H-M "I 2 2 2"
_symmetry_group_IT_number 23
_symmetry_cell_setting 'orthorhombic'
loop_
_space_group_symop_operation_xyz
x,y,z
-x,-y,z
x,-y,-z
-x,y,-z
1/2+x,1/2+y,1/2+z
1/2-x,1/2-y,1/2+z
1/2+x,1/2-y,1/2-z
1/2-x,1/2+y,1/2-z
loop_
_atom_site_type_symbol
_atom_site_label
_atom_site_fract_x
_atom_site_fract_y
_atom_site_fract_z
Si Si1 0.951139 0.680419 0.875170
Si Si2 0.000000 0.500000 0.500000
Si Si3 0.000000 0.000000 0.659682
Si Si4 0.108651 0.129947 0.831422
Si Si5 0.500000 0.500000 0.500000
Si Si6 0.767463 0.543416 0.886270
Si Si7 0.369450 0.913438 0.206034
O O1 0.948335 0.779692 0.852935
O O2 0.820092 0.636599 0.874260
O O3 0.032998 0.634166 0.782344
O O4 0.000000 0.666145 0.000000
O O5 0.922010 0.444493 0.587499
O O6 0.950619 0.919975 0.728810
O O7 0.122979 0.963616 0.607291
O O8 0.250525 0.141487 0.813809
O O9 0.083594 0.062724 0.929448
O O10 0.819464 0.491527 0.780537
O O11 0.815019 0.500000 0.000000
#
# Coordination Sequence:
#
# PCOD9329735 Si02
#       7
#     8   2   4   8   2   8   8
#     4  12  23  41  69  97 130 166 221 278 321 387
#     4  12  22  44  66  90 124 164 220 262 318 396
#     4   9  23  41  65  94 130 175 209 264 332 400
#     4  10  23  41  64  93 130 170 220 263 321 393
#     4  10  18  44  66  90 128 182 218 252 336 394
#     4  11  21  41  69  94 131 168 215 265 329 396
#     4  11  24  42  63  96 126 170 216 264 330 386
#
# _framework density 18.968862000000001
#
# number of rings (size 3 to 8) (size 9 to 14) (size 15 to 20)
#    0.000    1.200    5.000    0.900    2.800    0.000 
#    3.600    0.000    0.000    0.000    0.000    0.000 
#    0.000    0.000    0.000    0.000    0.000    0.000 
#
# Total GULP energy -111498.900408 kJ/mol
# GULP energy per Si atom -5574.945020 kJ/mol
# Density = 1.892569 g / cm^3
# Si number density = 18.968862 Si / 1000 Ang^3
#
#
#
# Elastic Constant Matrix: (Units=GPa)
#
#
# Indices 1 2 3 4 5 6 
#
# 1 125.8887 50.6339 50.0543 0.0000 0.0000 0.0000
# 2 50.6339 96.4202 22.2165 0.0000 0.0000 0.0000
# 3 50.0543 22.2165 109.5734 -0.0001 0.0000 0.0000
# 4 0.0000 0.0000 -0.0001 -26.1236 0.0000 0.0000
# 5 0.0000 0.0000 0.0000 0.0000 22.3883 0.0000
# 6 0.0000 0.0000 0.0000 0.0000 0.0000 17.6158
#
#
#
# Elastic Compliance Matrix: (Units=1/GPa)
#
#
# Indices 1 2 3 4 5 6 
#
# 1 0.011738 -0.005170 -0.004314 0.000000 0.000000 0.000000
# 2 -0.005170 0.013157 -0.000306 0.000000 0.000000 0.000000
# 3 -0.004314 -0.000306 0.011159 0.000000 0.000000 0.000000
# 4 0.000000 0.000000 0.000000 -0.038280 0.000000 0.000000
# 5 0.000000 0.000000 0.000000 0.000000 0.044666 0.000000
# 6 0.000000 0.000000 0.000000 0.000000 0.000000 0.056767
#
#
# Mechanical properties :
#
#
# Convention : Reuss Voigt Hill
#
# Bulk Modulus (GPa) = 60.70092 64.18795 62.44443
# Shear Modulus (GPa) = 40.23204 16.70794 28.46999
#
# Velocity S-wave (km/s) = 4.61038 2.97106 3.87832
# Velocity P-wave (km/s) = 7.77242 6.75882 7.28327
#
# Compressibility (1/GPa) = 0.01647422
#
# Stress axis : x y z
#
# Youngs Moduli (GPa) = 85.19132 76.00626 89.61431
#
# Poissons Ratio (x) = 0.39297 0.38659
# Poissons Ratio (y) = 0.44046 0.02740
# Poissons Ratio (z) = 0.36751 0.02324
#
# Static dielectric constant tensor:
#      x y z
#    x 1.676490 0.000000 0.000000 
#    y 0.000000 1.626950 0.000000 
#    z 0.000000 0.000000 1.686430 
# 
# From -- ./inp_files/15592.got.cif
#   From: 2010.05.17/outbox.cif.g08.bks.cpg/sg23_8_cif.got.tgz:15592.got - 2010.06.04 12:02:01.
