data_PCOD9329492
_publ_section_title
;
Structure prediction by ZEFSAII (Michael W. Deem and Ramdas Pophale) SiO2 
 PCOD9329492
Probable space group: I 2 2 2
;
_chemical_formula_sum "Si O2"
_cell_formula_units_Z 30
_cell_length_a 4.922971
_cell_length_b 15.638155
_cell_length_c 15.329310
_cell_angle_alpha 90.000000
_cell_angle_beta 90.000000
_cell_angle_gamma 90.000000
_cell_volume 1180.145073
_symmetry_space_group_name_H-M "I 2 2 2"
_symmetry_group_IT_number 23
_symmetry_cell_setting 'orthorhombic'
loop_
_space_group_symop_operation_xyz
x,y,z
-x,-y,z
x,-y,-z
-x,y,-z
1/2+x,1/2+y,1/2+z
1/2-x,1/2-y,1/2+z
1/2+x,1/2-y,1/2-z
1/2-x,1/2+y,1/2-z
loop_
_atom_site_type_symbol
_atom_site_label
_atom_site_fract_x
_atom_site_fract_y
_atom_site_fract_z
Si Si1 0.650822 0.354553 0.304906
Si Si2 0.000000 0.000000 0.000000
Si Si3 0.605664 0.800629 0.367037
Si Si4 0.000000 0.500000 0.607538
Si Si5 0.595720 0.405270 0.869249
O O1 0.526684 0.291617 0.377178
O O2 0.843307 0.426317 0.343174
O O3 0.441280 0.397558 0.236494
O O4 0.839895 0.301344 0.237752
O O5 0.763558 0.955895 0.941356
O O6 0.396483 0.875898 0.389955
O O7 0.890203 0.832394 0.404345
O O8 0.500000 0.500000 0.894240
#
# Coordination Sequence:
#
# PCOD9329492 Si02
#       5
#     8   2   8   4   8
#     4  10  20  32  53  74 101 143 178 234 279 326
#     4  10  28  42  44  82  88 142 230 262 232 308
#     4  10  19  29  45  78 105 120 191 214 250 371
#     4  11  24  38  60  64 110 150 200 237 288 286
#     4  10  18  28  42  71 104 138 170 201 251 338
#
# _framework density 25.420604000000001
#
# number of rings (size 3 to 8) (size 9 to 14) (size 15 to 20)
#    1.600    0.267    2.667    2.400    5.600    0.000 
#    0.000    0.000    0.000    0.000    0.000    0.000 
#    0.000    0.000    0.000   33.600   27.733    0.933 
#
# Total GULP energy -83569.393991 kJ/mol
# GULP energy per Si atom -5571.292933 kJ/mol
# Density = 2.536275 g / cm^3
# Si number density = 25.420604 Si / 1000 Ang^3
#
#
#
# Elastic Constant Matrix: (Units=GPa)
#
#
# Indices 1 2 3 4 5 6 
#
# 1 141.4492 14.5238 18.1148 0.0000 0.0000 0.0000
# 2 14.5238 115.5236 13.6810 0.0000 0.0000 0.0000
# 3 18.1148 13.6810 49.5111 0.0000 0.0000 0.0000
# 4 0.0000 0.0000 0.0000 -43.2771 0.0000 0.0000
# 5 0.0000 0.0000 0.0000 0.0000 12.6913 0.0000
# 6 0.0000 0.0000 0.0000 0.0000 0.0000 51.6946
#
#
#
# Elastic Compliance Matrix: (Units=1/GPa)
#
#
# Indices 1 2 3 4 5 6 
#
# 1 0.007462 -0.000636 -0.002555 0.000000 0.000000 0.000000
# 2 -0.000636 0.009003 -0.002255 0.000000 0.000000 0.000000
# 3 -0.002555 -0.002255 0.021755 0.000000 0.000000 0.000000
# 4 0.000000 0.000000 0.000000 -0.023107 0.000000 0.000000
# 5 0.000000 0.000000 0.000000 0.000000 0.078794 0.000000
# 6 0.000000 0.000000 0.000000 0.000000 0.000000 0.019344
#
#
# Mechanical properties :
#
#
# Convention : Reuss Voigt Hill
#
# Bulk Modulus (GPa) = 36.59006 44.34702 40.46854
# Shear Modulus (GPa) = 37.52258 21.56604 29.54431
#
# Velocity S-wave (km/s) = 3.84613 2.91584 3.41283
# Velocity P-wave (km/s) = 5.84369 5.36836 5.61106
#
# Compressibility (1/GPa) = 0.02732983
#
# Stress axis : x y z
#
# Youngs Moduli (GPa) = 134.01069 111.07126 45.96578
#
# Poissons Ratio (x) = 0.07060 0.11742
# Poissons Ratio (y) = 0.08518 0.10366
# Poissons Ratio (z) = 0.34234 0.25049
#
# Static dielectric constant tensor:
#      x y z
#    x 2.016290 0.000000 0.000000 
#    y 0.000000 2.071100 0.000000 
#    z 0.000000 0.000000 2.251620 
# 
# From -- ./inp_files/22929.got.cif
#   From: 2010.05.17/outbox.cif.g08.bks.cpg/sg23_12_cif.got.tgz:22929.got - 2010.06.04 12:02:01.
