data_PCOD9329316
_publ_section_title
;
Structure prediction by ZEFSAII (Michael W. Deem and Ramdas Pophale) SiO2 
 PCOD9329316
Probable space group: F 2 2 2
;
_chemical_formula_sum "Si O2"
_cell_formula_units_Z 21
_cell_length_a 24.000000
_cell_length_b 15.000000
_cell_length_c 12.000000
_cell_angle_alpha 90.000000
_cell_angle_beta 90.000000
_cell_angle_gamma 90.000000
_cell_volume 4320.000000
_symmetry_space_group_name_H-M "F 2 2 2"
_symmetry_group_IT_number 22
_symmetry_cell_setting 'orthorhombic'
loop_
_space_group_symop_operation_xyz
x,y,z
-x,-y,z
x,-y,-z
-x,y,-z
x,1/2+y,1/2+z
-x,1/2-y,1/2+z
x,1/2-y,1/2-z
-x,1/2+y,1/2-z
1/2+x,y,1/2+z
1/2-x,-y,1/2+z
1/2+x,-y,1/2-z
1/2-x,y,1/2-z
1/2+x,1/2+y,z
1/2-x,1/2-y,z
1/2+x,1/2-y,-z
1/2-x,1/2+y,-z
loop_
_atom_site_type_symbol
_atom_site_label
_atom_site_fract_x
_atom_site_fract_y
_atom_site_fract_z
Si Si1 0.757397 0.352530 0.116639
Si Si2 0.850409 0.383085 0.696942
Si Si3 0.631712 0.537221 0.619215
Si Si4 0.555055 0.250000 0.750000
Si Si5 0.250000 0.250000 0.250000
Si Si6 0.680261 0.000000 0.500000
Si Si7 0.484088 0.599619 0.369522
O O1 0.750000 0.352507 0.250000
O O2 0.750000 0.250000 0.077372
O O3 0.816872 0.397736 0.097573
O O4 0.716036 0.422438 0.059302
O O5 0.853659 0.450705 0.804060
O O6 0.901782 0.315531 0.688000
O O7 0.794266 0.321306 0.695979
O O8 0.852838 0.449914 0.594731
O O9 0.612728 0.500000 0.500000
O O10 0.581210 0.599216 0.659123
O O11 0.516838 0.318357 0.682841
O O12 0.500000 0.500000 0.328859
O O13 0.500000 0.602784 0.500000
#
# Coordination Sequence:
#
# PCOD9329316 Si02
#       7
#    16  16  16   8   4   8  16
#     4  11  25  41  63 100 137 176 220 264 326 400
#     4  11  24  42  66  98 134 175 216 270 335 390
#     4  12  22  42  72  91 130 180 220 271 330 385
#     4  11  24  45  68  98 131 168 227 276 328 398
#     4  10  24  40  64  96 128 176 226 256 310 406
#     4  12  24  42  66  99 145 168 216 274 334 398
#     4  11  22  44  70  97 124 169 228 280 322 386
#
# _framework density 4.8611110000000002
#
# number of rings (size 3 to 8) (size 9 to 14) (size 15 to 20)
#    0.000    0.762    6.667    1.143    1.333    4.571 
#    3.429    0.000    0.000    0.000    0.000    0.000 
#    0.000    0.000    0.000    0.000    0.000    0.000 
#
# Total GULP energy -117051.152758 kJ/mol
# GULP energy per Si atom -5573.864417 kJ/mol
# Density = 0.485005 g / cm^3
# Si number density = 4.861111 Si / 1000 Ang^3
#
#
#
# Elastic Constant Matrix: (Units=GPa)
#
#
# Indices 1 2 3 4 5 6 
#
# 1 93.7477 59.6736 19.3930 0.0000 0.0000 0.0000
# 2 59.6736 187.7910 58.4112 0.0000 0.0000 0.0000
# 3 19.3930 58.4112 80.0527 0.0000 0.0000 0.0000
# 4 0.0000 0.0000 0.0000 43.3569 0.0000 0.0000
# 5 0.0000 0.0000 0.0000 0.0000 5.3955 0.0000
# 6 0.0000 0.0000 0.0000 0.0000 0.0000 48.2749
#
#
#
# Elastic Compliance Matrix: (Units=1/GPa)
#
#
# Indices 1 2 3 4 5 6 
#
# 1 0.013374 -0.004194 -0.000180 0.000000 0.000000 0.000000
# 2 -0.004194 0.008204 -0.004970 0.000000 0.000000 0.000000
# 3 -0.000180 -0.004970 0.016162 0.000000 0.000000 0.000000
# 4 0.000000 0.000000 0.000000 0.023064 0.000000 0.000000
# 5 0.000000 0.000000 0.000000 0.000000 0.185340 0.000000
# 6 0.000000 0.000000 0.000000 0.000000 0.000000 0.020715
#
#
# Mechanical properties :
#
#
# Convention : Reuss Voigt Hill
#
# Bulk Modulus (GPa) = 52.48796 70.72744 61.60770
# Shear Modulus (GPa) = 17.12942 34.34636 25.73789
#
# Velocity S-wave (km/s) = 2.97129 4.20740 3.64216
# Velocity P-wave (km/s) = 6.23087 7.74958 7.03135
#
# Compressibility (1/GPa) = 0.01905199
#
# Stress axis : x y z
#
# Youngs Moduli (GPa) = 74.77429 121.89865 61.87500
#
# Poissons Ratio (x) = 0.51121 0.01112
# Poissons Ratio (y) = 0.31358 0.30751
# Poissons Ratio (z) = 0.01344 0.60582
#
# Static dielectric constant tensor:
#      x y z
#    x 1.703540 0.000000 0.000000 
#    y 0.000000 1.674970 0.000000 
#    z 0.000000 0.000000 1.717490 
# 
# From -- ./inp_files/23685.got.cif
#   From: 2010.05.17/outbox.ucp.g08.bks.cvg/sg22_12_cif.got.tgz:23685.got - 2010.06.11 15:16:44.
