data_PCOD9329875
_publ_section_title
;
Structure prediction by ZEFSAII (Michael W. Deem and Ramdas Pophale) SiO2 
 PCOD9329875
Probable space group: I 2 2 2
;
_chemical_formula_sum "Si O2"
_cell_formula_units_Z 56
_cell_length_a 17.606732
_cell_length_b 21.900095
_cell_length_c 5.871167
_cell_angle_alpha 90.000000
_cell_angle_beta 90.000000
_cell_angle_gamma 90.000000
_cell_volume 2263.858020
_symmetry_space_group_name_H-M "I 2 2 2"
_symmetry_group_IT_number 23
_symmetry_cell_setting 'orthorhombic'
loop_
_space_group_symop_operation_xyz
x,y,z
-x,-y,z
x,-y,-z
-x,y,-z
1/2+x,1/2+y,1/2+z
1/2-x,1/2-y,1/2+z
1/2+x,1/2-y,1/2-z
1/2-x,1/2+y,1/2-z
loop_
_atom_site_type_symbol
_atom_site_label
_atom_site_fract_x
_atom_site_fract_y
_atom_site_fract_z
Si Si1 0.086613 0.594291 0.750353
Si Si2 0.620209 0.347415 0.395284
Si Si3 0.596469 0.086443 0.751296
Si Si4 0.220490 0.321462 0.832172
Si Si5 0.680626 0.692351 0.199275
Si Si6 0.412719 0.521230 0.248853
Si Si7 0.424762 0.235175 0.850308
O O1 0.116019 0.566443 0.511183
O O2 0.095879 0.668096 0.739235
O O3 0.994745 0.586961 0.748818
O O4 0.114753 0.566287 0.989934
O O5 0.709961 0.341902 0.328404
O O6 0.625334 0.352232 0.666972
O O7 0.589041 0.405344 0.265232
O O8 0.573699 0.285461 0.348737
O O9 0.641212 0.150775 0.743980
O O10 0.211928 0.248701 0.846860
O O11 0.250805 0.342123 0.078789
O O12 0.635335 0.729393 0.007782
O O13 0.500000 0.500000 0.249673
O O14 0.379874 0.500000 0.500000
O O15 0.380243 0.500000 0.000000
O O16 0.500000 0.229116 0.000000
#
# Coordination Sequence:
#
# PCOD9329875 Si02
#       7
#     8   8   8   8   8   8   8
#     4  10  19  34  48  77 108 163 210 237 284 349
#     4  11  26  38  60  87 115 161 217 267 342 413
#     4  10  20  32  51  68 109 156 206 239 286 350
#     4  11  21  34  53  80 124 164 200 252 321 402
#     4  11  22  35  52  82 122 164 204 253 328 410
#     4  10  25  48  72  88 114 156 216 298 358 373
#     4  11  22  33  52  78 116 147 212 263 311 372
#
# _framework density 24.736533999999999
#
# number of rings (size 3 to 8) (size 9 to 14) (size 15 to 20)
#    0.000    1.429    4.286    0.857   10.000    1.714 
#    0.000    0.000    0.000    0.000    0.000    0.000 
#    0.000    0.000    0.000   15.429    0.857    0.143 
#
# Total GULP energy -156012.305495 kJ/mol
# GULP energy per Si atom -5571.868053 kJ/mol
# Density = 2.468023 g / cm^3
# Si number density = 24.736534 Si / 1000 Ang^3
#
#
#
# Elastic Constant Matrix: (Units=GPa)
#
#
# Indices 1 2 3 4 5 6 
#
# 1 55.1801 3.0918 7.0867 0.0000 0.0000 0.0000
# 2 3.0918 110.1139 32.2050 0.0000 0.0000 0.0000
# 3 7.0867 32.2050 206.0058 0.0000 0.0000 0.0000
# 4 0.0000 0.0000 0.0000 -222.7497 0.0000 0.0000
# 5 0.0000 0.0000 0.0000 0.0000 30.6545 0.0000
# 6 0.0000 0.0000 0.0000 0.0000 0.0000 -23.2304
#
#
#
# Elastic Compliance Matrix: (Units=1/GPa)
#
#
# Indices 1 2 3 4 5 6 
#
# 1 0.018215 -0.000344 -0.000573 0.000000 0.000000 0.000000
# 2 -0.000344 0.009523 -0.001477 0.000000 0.000000 0.000000
# 3 -0.000573 -0.001477 0.005105 0.000000 0.000000 0.000000
# 4 0.000000 0.000000 0.000000 -0.004489 0.000000 0.000000
# 5 0.000000 0.000000 0.000000 0.000000 0.032622 0.000000
# 6 0.000000 0.000000 0.000000 0.000000 0.000000 -0.043047
#
#
# Mechanical properties :
#
#
# Convention : Reuss Voigt Hill
#
# Bulk Modulus (GPa) = 35.64315 50.67409 43.15862
# Shear Modulus (GPa) = 155.91957 -21.13735 67.39111
#
# Velocity S-wave (km/s) = 7.94789 -2.92635 5.22520
# Velocity P-wave (km/s) = 9.93306 3.01860 7.34090
#
# Compressibility (1/GPa) = 0.02805588
#
# Stress axis : x y z
#
# Youngs Moduli (GPa) = 54.89890 105.00761 195.89304
#
# Poissons Ratio (x) = 0.03611 0.11222
# Poissons Ratio (y) = 0.01888 0.28932
# Poissons Ratio (z) = 0.03145 0.15509
#
# Static dielectric constant tensor:
#      x y z
#    x 2.005510 0.000000 0.000000 
#    y 0.000000 1.956920 0.000000 
#    z 0.000000 0.000000 2.287040 
# 
# From -- ./inp_files/4002.got.cif
#   From: 2010.05.17/outbox.cif.g08.bks.cpg/sg23_3_cif.got.tgz:4002.got - 2010.06.04 12:02:01.
