data_PCOD9329077
_publ_section_title
;
Structure prediction by ZEFSAII (Michael W. Deem and Ramdas Pophale) SiO2 
 PCOD9329077
Probable space group: F 2 2 2
;
_chemical_formula_sum "Si O2"
_cell_formula_units_Z 56
_cell_length_a 16.689854
_cell_length_b 7.623057
_cell_length_c 16.806972
_cell_angle_alpha 90.000000
_cell_angle_beta 90.000000
_cell_angle_gamma 90.000000
_cell_volume 2138.312532
_symmetry_space_group_name_H-M "F 2 2 2"
_symmetry_group_IT_number 22
_symmetry_cell_setting 'orthorhombic'
loop_
_space_group_symop_operation_xyz
x,y,z
-x,-y,z
x,-y,-z
-x,y,-z
x,1/2+y,1/2+z
-x,1/2-y,1/2+z
x,1/2-y,1/2-z
-x,1/2+y,1/2-z
1/2+x,y,1/2+z
1/2-x,-y,1/2+z
1/2+x,-y,1/2-z
1/2-x,y,1/2-z
1/2+x,1/2+y,z
1/2-x,1/2-y,z
1/2+x,1/2-y,-z
1/2-x,1/2+y,-z
loop_
_atom_site_type_symbol
_atom_site_label
_atom_site_fract_x
_atom_site_fract_y
_atom_site_fract_z
Si Si1 0.165312 0.471229 0.704384
Si Si2 0.837130 0.741568 0.071334
Si Si3 0.397474 0.116889 0.862631
Si Si4 0.000000 0.751680 0.000000
O O1 0.250000 0.461412 0.750000
O O2 0.165555 0.644881 0.651951
O O3 0.349650 0.201254 0.651139
O O4 0.097507 0.459854 0.773094
O O5 0.750000 0.750000 0.032172
O O6 0.853323 0.537262 0.089543
O O7 0.912466 0.819006 0.023876
O O8 0.474498 0.165600 0.915232
#
# Coordination Sequence:
#
# PCOD9329077 Si02
#       4
#    16  16  16   8
#     4  11  25  46  81 123 154 210 282 337 405 483
#     4  12  26  48  83 115 164 216 274 340 409 490
#     4  11  24  49  78 111 169 206 269 340 403 487
#     4  12  31  59  78 127 175 222 273 337 430 501
#
# _framework density 26.188876
#
# number of rings (size 3 to 8) (size 9 to 14) (size 15 to 20)
#    0.000    0.571    2.857    5.143    0.000    5.714 
#   25.714    0.000    0.000    0.000    0.000    0.000 
#    0.000    0.000    0.000    0.000    0.000    0.000 
#
# Total GULP energy -78230.390643 kJ/mol
# GULP energy per Si atom -5587.885046 kJ/mol
# Density = 2.612927 g / cm^3
# Si number density = 26.188876 Si / 1000 Ang^3
#
#
#
# Elastic Constant Matrix: (Units=GPa)
#
#
# Indices 1 2 3 4 5 6 
#
# 1 219.3862 49.0025 80.1616 0.0000 0.0000 0.0000
# 2 49.0025 135.0714 48.4666 0.0000 0.0000 0.0000
# 3 80.1616 48.4666 151.6567 0.0000 0.0000 0.0000
# 4 0.0000 0.0000 0.0000 -29.7090 0.0000 0.0000
# 5 0.0000 0.0000 0.0000 0.0000 73.2965 0.0000
# 6 0.0000 0.0000 0.0000 0.0000 0.0000 25.3482
#
#
#
# Elastic Compliance Matrix: (Units=1/GPa)
#
#
# Indices 1 2 3 4 5 6 
#
# 1 0.005799 -0.001134 -0.002703 0.000000 0.000000 0.000000
# 2 -0.001134 0.008584 -0.002144 0.000000 0.000000 0.000000
# 3 -0.002703 -0.002144 0.008708 0.000000 0.000000 0.000000
# 4 0.000000 0.000000 0.000000 -0.033660 0.000000 0.000000
# 5 0.000000 0.000000 0.000000 0.000000 0.013643 0.000000
# 6 0.000000 0.000000 0.000000 0.000000 0.000000 0.039451
#
#
# Mechanical properties :
#
#
# Convention : Reuss Voigt Hill
#
# Bulk Modulus (GPa) = 89.85246 95.70842 92.78044
# Shear Modulus (GPa) = 85.91645 35.68605 60.80125
#
# Velocity S-wave (km/s) = 5.73391 3.69540 4.82357
# Velocity P-wave (km/s) = 8.84425 7.40492 8.15640
#
# Compressibility (1/GPa) = 0.01112936
#
# Stress axis : x y z
#
# Youngs Moduli (GPa) = 172.44215 116.49323 114.84181
#
# Poissons Ratio (x) = 0.13210 0.31040
# Poissons Ratio (y) = 0.19555 0.24621
# Poissons Ratio (z) = 0.46608 0.24975
#
# Static dielectric constant tensor:
#      x y z
#    x 2.086940 0.000000 0.000000 
#    y 0.000000 2.091380 0.000000 
#    z 0.000000 0.000000 2.099710 
# 
# From -- ./inp_files/30174.got.cif
#   From: 2010.05.17/outbox.cif.g08.bks.cpg/sg22_16_cif.got.tgz:30174.got - 2010.06.03 23:40:54.
