data_PCOD9329037
_publ_section_title
;
Structure prediction by ZEFSAII (Michael W. Deem and Ramdas Pophale) SiO2 
 PCOD9329037
Probable space group: F 2 2 2
;
_chemical_formula_sum "Si O2"
_cell_formula_units_Z 80
_cell_length_a 8.595534
_cell_length_b 26.725721
_cell_length_c 15.655221
_cell_angle_alpha 90.000000
_cell_angle_beta 90.000000
_cell_angle_gamma 90.000000
_cell_volume 3596.346229
_symmetry_space_group_name_H-M "F 2 2 2"
_symmetry_group_IT_number 22
_symmetry_cell_setting 'orthorhombic'
loop_
_space_group_symop_operation_xyz
x,y,z
-x,-y,z
x,-y,-z
-x,y,-z
x,1/2+y,1/2+z
-x,1/2-y,1/2+z
x,1/2-y,1/2-z
-x,1/2+y,1/2-z
1/2+x,y,1/2+z
1/2-x,-y,1/2+z
1/2+x,-y,1/2-z
1/2-x,y,1/2-z
1/2+x,1/2+y,z
1/2-x,1/2-y,z
1/2+x,1/2-y,-z
1/2-x,1/2+y,-z
loop_
_atom_site_type_symbol
_atom_site_label
_atom_site_fract_x
_atom_site_fract_y
_atom_site_fract_z
Si Si1 0.629441 0.288736 0.073149
Si Si2 0.191110 0.111274 0.590653
Si Si3 0.315980 0.491474 0.845475
Si Si4 0.492953 0.750000 0.750000
Si Si5 0.250000 0.662700 0.750000
Si Si6 0.340025 0.093557 0.106805
O O1 0.750000 0.250000 0.030094
O O2 0.715942 0.338148 0.108387
O O3 0.573121 0.260450 0.158976
O O4 0.500000 0.300027 0.000000
O O5 0.170668 0.112412 0.488969
O O6 0.020742 0.102364 0.632424
O O7 0.286262 0.061921 0.612781
O O8 0.500000 0.500000 0.845929
O O9 0.250000 0.490265 0.750000
O O10 0.219057 0.536516 0.889295
O O11 0.391813 0.700148 0.736488
O O12 0.234256 0.626490 0.669169
#
# Coordination Sequence:
#
# PCOD9329037 Si02
#       6
#    16  16  16   8   8  16
#     4  12  29  48  77 110 151 199 259 320 387 457
#     4  11  27  46  76 106 154 194 253 308 384 445
#     4  12  27  45  74 111 152 196 247 305 376 459
#     4  11  27  46  74 112 152 198 250 322 380 456
#     4  11  24  44  78 106 150 190 257 302 386 444
#     4  11  24  47  75 110 148 199 244 314 373 454
#
# _framework density 22.244799
#
# number of rings (size 3 to 8) (size 9 to 14) (size 15 to 20)
#    0.000    0.600    1.000    5.100   14.000    4.000 
#    0.000    0.000    0.000    0.000    0.000    0.000 
#    0.000    0.000    0.000    0.000    0.000    0.000 
#
# Total GULP energy -111859.457027 kJ/mol
# GULP energy per Si atom -5592.972851 kJ/mol
# Density = 2.219417 g / cm^3
# Si number density = 22.244799 Si / 1000 Ang^3
#
#
#
# Elastic Constant Matrix: (Units=GPa)
#
#
# Indices 1 2 3 4 5 6 
#
# 1 137.0662 74.1989 23.9180 0.0000 0.0000 0.0000
# 2 74.1989 168.5490 15.5181 0.0000 0.0000 0.0000
# 3 23.9180 15.5181 66.1411 0.0000 0.0000 0.0000
# 4 0.0000 0.0000 0.0000 19.7056 0.0000 0.0000
# 5 0.0000 0.0000 0.0000 0.0000 29.4354 0.0000
# 6 0.0000 0.0000 0.0000 0.0000 0.0000 71.1687
#
#
#
# Elastic Compliance Matrix: (Units=1/GPa)
#
#
# Indices 1 2 3 4 5 6 
#
# 1 0.010011 -0.004164 -0.002643 0.000000 0.000000 0.000000
# 2 -0.004164 0.007796 -0.000323 0.000000 0.000000 0.000000
# 3 -0.002643 -0.000323 0.016151 0.000000 0.000000 0.000000
# 4 0.000000 0.000000 0.000000 0.050747 0.000000 0.000000
# 5 0.000000 0.000000 0.000000 0.000000 0.033973 0.000000
# 6 0.000000 0.000000 0.000000 0.000000 0.000000 0.014051
#
#
# Mechanical properties :
#
#
# Convention : Reuss Voigt Hill
#
# Bulk Modulus (GPa) = 50.76931 66.55847 58.66389
# Shear Modulus (GPa) = 32.56167 41.27001 36.91584
#
# Velocity S-wave (km/s) = 3.83010 4.31195 4.07815
# Velocity P-wave (km/s) = 6.51399 7.40111 6.97168
#
# Compressibility (1/GPa) = 0.01969694
#
# Stress axis : x y z
#
# Youngs Moduli (GPa) = 99.89074 128.27585 61.91592
#
# Poissons Ratio (x) = 0.53410 0.16366
# Poissons Ratio (y) = 0.41591 0.02002
# Poissons Ratio (z) = 0.26404 0.04148
#
# Static dielectric constant tensor:
#      x y z
#    x 1.897700 0.000000 0.000000 
#    y 0.000000 1.811690 0.000000 
#    z 0.000000 0.000000 1.792380 
# 
# From -- ./inp_files/35140.got.cif
#   From: 2010.05.17/outbox.cif.g08.bks.cpg/sg22_18_cif.got.tgz:35140.got - 2010.06.03 23:40:54.
