data_PCOD9329778
_publ_section_title
;
Structure prediction by ZEFSAII (Michael W. Deem and Ramdas Pophale) SiO2 
 PCOD9329778
Probable space group: I 2 2 2
;
_chemical_formula_sum "Si O2"
_cell_formula_units_Z 48
_cell_length_a 18.499347
_cell_length_b 8.084849
_cell_length_c 14.162533
_cell_angle_alpha 90.000000
_cell_angle_beta 90.000000
_cell_angle_gamma 90.000000
_cell_volume 2118.211134
_symmetry_space_group_name_H-M "I 2 2 2"
_symmetry_group_IT_number 23
_symmetry_cell_setting 'orthorhombic'
loop_
_space_group_symop_operation_xyz
x,y,z
-x,-y,z
x,-y,-z
-x,y,-z
1/2+x,1/2+y,1/2+z
1/2-x,1/2-y,1/2+z
1/2+x,1/2-y,1/2-z
1/2-x,1/2+y,1/2-z
loop_
_atom_site_type_symbol
_atom_site_label
_atom_site_fract_x
_atom_site_fract_y
_atom_site_fract_z
Si Si1 0.360555 0.088801 0.864414
Si Si2 0.783998 0.955357 0.206121
Si Si3 0.223996 0.595844 0.887253
Si Si4 0.420892 0.971632 0.672822
Si Si5 0.133399 0.226965 0.540999
Si Si6 0.571493 0.392778 0.766827
O O1 0.273959 0.073430 0.846882
O O2 0.402927 0.084571 0.765676
O O3 0.371837 0.910635 0.913927
O O4 0.386592 0.235178 0.932717
O O5 0.781544 0.772390 0.166187
O O6 0.758119 0.966167 0.313988
O O7 0.864591 0.017314 0.210477
O O8 0.144211 0.519456 0.897742
O O9 0.285125 0.652686 0.961409
O O10 0.425005 0.788685 0.718670
O O11 0.500000 0.000000 0.632324
O O12 0.090492 0.124412 0.620711
O O13 0.500000 0.500000 0.755744
#
# Coordination Sequence:
#
# PCOD9329778 Si02
#       6
#     8   8   8   8   8   8
#     4   8  15  29  49  74 100 133 175 218 270 327
#     4   9  16  28  49  72  98 130 174 223 265 322
#     4   9  16  28  49  74  98 131 176 225 267 316
#     4  10  19  31  50  74 102 139 180 222 273 335
#     4   8  15  29  49  74 102 133 174 221 267 325
#     4  10  19  31  49  74 106 141 178 224 276 330
#
# _framework density 22.660632
#
# number of rings (size 3 to 8) (size 9 to 14) (size 15 to 20)
#    0.000    3.000    0.000    4.000    0.000    0.000 
#    0.000    6.667    0.000   41.000    0.000   21.000 
#    0.000    0.000    0.000    0.000    0.000    9.000 
#
# Total GULP energy -133686.147016 kJ/mol
# GULP energy per Si atom -5570.256126 kJ/mol
# Density = 2.260906 g / cm^3
# Si number density = 22.660632 Si / 1000 Ang^3
#
#
#
# Elastic Constant Matrix: (Units=GPa)
#
#
# Indices 1 2 3 4 5 6 
#
# 1 69.4129 4.1551 -27.2688 0.0000 0.0000 0.0000
# 2 4.1551 103.5292 17.2621 0.0000 0.0000 0.0000
# 3 -27.2688 17.2621 51.5195 0.0000 0.0000 0.0000
# 4 0.0000 0.0000 0.0000 27.7726 0.0000 0.0000
# 5 0.0000 0.0000 0.0000 0.0000 -7.7473 0.0000
# 6 0.0000 0.0000 0.0000 0.0000 0.0000 25.8662
#
#
#
# Elastic Compliance Matrix: (Units=1/GPa)
#
#
# Indices 1 2 3 4 5 6 
#
# 1 0.018807 -0.002557 0.010811 0.000000 0.000000 0.000000
# 2 -0.002557 0.010578 -0.004898 0.000000 0.000000 0.000000
# 3 0.010811 -0.004898 0.026773 0.000000 0.000000 0.000000
# 4 0.000000 0.000000 0.000000 0.036007 0.000000 0.000000
# 5 0.000000 0.000000 0.000000 0.000000 -0.129077 0.000000
# 6 0.000000 0.000000 0.000000 0.000000 0.000000 0.038661
#
#
# Mechanical properties :
#
#
# Convention : Reuss Voigt Hill
#
# Bulk Modulus (GPa) = 15.90582 23.63982 19.77282
# Shear Modulus (GPa) = 312.60633 24.53250 168.56941
#
# Velocity S-wave (km/s) = 11.75801 3.29387 8.63424
# Velocity P-wave (km/s) = 13.83361 4.99208 10.39927
#
# Compressibility (1/GPa) = 0.06287005
#
# Stress axis : x y z
#
# Youngs Moduli (GPa) = 53.17234 94.53204 37.35046
#
# Poissons Ratio (x) = 0.24176 -0.40380
# Poissons Ratio (y) = 0.13598 0.18294
# Poissons Ratio (z) = -0.57485 0.46302
#
# Static dielectric constant tensor:
#      x y z
#    x 1.879850 0.000000 0.000000 
#    y 0.000000 1.894960 0.000000 
#    z 0.000000 0.000000 1.921690 
# 
# From -- ./inp_files/25016.got.cif
#   From: 2010.05.17/outbox.cif.g08.bks.cpg/sg23_13_cif.got.tgz:25016.got - 2010.06.04 12:02:01.
