data_PCOD9329075
_publ_section_title
;
Structure prediction by ZEFSAII (Michael W. Deem and Ramdas Pophale) SiO2 
 PCOD9329075
Probable space group: F 2 2 2
;
_chemical_formula_sum "Si O2"
_cell_formula_units_Z 64
_cell_length_a 34.773502
_cell_length_b 5.012209
_cell_length_c 17.016711
_cell_angle_alpha 90.000000
_cell_angle_beta 90.000000
_cell_angle_gamma 90.000000
_cell_volume 2965.877609
_symmetry_space_group_name_H-M "F 2 2 2"
_symmetry_group_IT_number 22
_symmetry_cell_setting 'orthorhombic'
loop_
_space_group_symop_operation_xyz
x,y,z
-x,-y,z
x,-y,-z
-x,y,-z
x,1/2+y,1/2+z
-x,1/2-y,1/2+z
x,1/2-y,1/2-z
-x,1/2+y,1/2-z
1/2+x,y,1/2+z
1/2-x,-y,1/2+z
1/2+x,-y,1/2-z
1/2-x,y,1/2-z
1/2+x,1/2+y,z
1/2-x,1/2-y,z
1/2+x,1/2-y,-z
1/2-x,1/2+y,-z
loop_
_atom_site_type_symbol
_atom_site_label
_atom_site_fract_x
_atom_site_fract_y
_atom_site_fract_z
Si Si1 0.591978 0.547617 0.172908
Si Si2 0.526333 0.250000 0.250000
Si Si3 0.117014 0.000000 0.000000
Si Si4 0.222727 0.990512 0.646681
Si Si5 0.660683 0.250000 0.250000
Si Si6 0.829425 0.000000 0.500000
O O1 0.588245 0.750000 0.250000
O O2 0.555342 0.354720 0.183337
O O3 0.631908 0.400478 0.191879
O O4 0.594883 0.605928 0.079213
O O5 0.500000 0.500000 0.273921
O O6 0.143910 0.250592 0.977753
O O7 0.250000 0.750000 0.666915
O O8 0.250000 0.250000 0.637416
O O9 0.189304 0.048941 0.708204
O O10 0.199056 0.919861 0.569261
#
# Coordination Sequence:
#
# PCOD9329075 Si02
#       6
#    16   8   8  16   8   8
#     4  11  25  47  82 111 147 199 248 302 373 451
#     4  11  24  48  81 114 157 194 227 290 371 448
#     4  12  26  45  77 110 142 187 254 315 358 448
#     4  12  26  43  65  93 136 191 249 315 386 447
#     4  11  25  44  65 102 138 190 252 308 371 446
#     4  12  24  47  66  96 143 183 248 323 379 444
#
# _framework density 21.578773000000002
#
# number of rings (size 3 to 8) (size 9 to 14) (size 15 to 20)
#    0.000    0.500    3.750    4.125    7.000    1.000 
#    0.000    0.625    5.500    0.000    0.000    0.000 
#    0.000    0.000    0.000    0.000    0.000    0.000 
#
# Total GULP energy -89329.133539 kJ/mol
# GULP energy per Si atom -5583.070846 kJ/mol
# Density = 2.152966 g / cm^3
# Si number density = 21.578773 Si / 1000 Ang^3
#
#
#
# Elastic Constant Matrix: (Units=GPa)
#
#
# Indices 1 2 3 4 5 6 
#
# 1 137.1422 44.6707 53.5638 0.0003 0.0021 -0.0009
# 2 44.6707 107.5240 25.9029 0.0007 -0.0073 -0.0012
# 3 53.5638 25.9029 158.0723 0.0000 -0.0033 -0.0003
# 4 0.0003 0.0007 0.0000 26.5277 -0.0016 -0.0005
# 5 0.0021 -0.0073 -0.0033 -0.0016 95.0566 -0.0029
# 6 -0.0009 -0.0012 -0.0003 -0.0005 -0.0029 60.0195
#
#
#
# Elastic Compliance Matrix: (Units=1/GPa)
#
#
# Indices 1 2 3 4 5 6 
#
# 1 0.009388 -0.003263 -0.002647 0.000000 -0.000001 0.000000
# 2 -0.003263 0.010816 -0.000667 0.000000 0.000001 0.000000
# 3 -0.002647 -0.000667 0.007332 0.000000 0.000000 0.000000
# 4 0.000000 0.000000 0.000000 0.037696 0.000001 0.000000
# 5 -0.000001 0.000001 0.000000 0.000001 0.010520 0.000001
# 6 0.000000 0.000000 0.000000 0.000000 0.000001 0.016661
#
#
# Mechanical properties :
#
#
# Convention : Reuss Voigt Hill
#
# Bulk Modulus (GPa) = 69.51919 72.33481 70.92700
# Shear Modulus (GPa) = 45.30559 54.89418 50.09988
#
# Velocity S-wave (km/s) = 4.58705 5.04918 4.82365
# Velocity P-wave (km/s) = 7.76795 8.22109 7.99773
#
# Compressibility (1/GPa) = 0.01438452
#
# Stress axis : x y z
#
# Youngs Moduli (GPa) = 106.51755 92.45232 136.38272
#
# Poissons Ratio (x) = 0.30165 0.36095
# Poissons Ratio (y) = 0.34754 0.09095
# Poissons Ratio (z) = 0.28191 0.06165
#
# Static dielectric constant tensor:
#      x y z
#    x 1.698750 0.000010 0.000000 
#    y 0.000010 1.794340 -0.000030 
#    z 0.000000 -0.000030 1.920330 
# 
# From -- ./inp_files/40230.got.cif
#   From: 2010.05.17/outbox.cif.g08.bks.cpg/sg22_21_cif.got.tgz:40230.got - 2010.06.03 23:40:54.
