data_PCOD9329148
_publ_section_title
;
Structure prediction by ZEFSAII (Michael W. Deem and Ramdas Pophale) SiO2 
 PCOD9329148
Probable space group: F 2 2 2
;
_chemical_formula_sum "Si O2"
_cell_formula_units_Z 56
_cell_length_a 11.739698
_cell_length_b 15.446092
_cell_length_c 13.036150
_cell_angle_alpha 90.000000
_cell_angle_beta 90.000000
_cell_angle_gamma 90.000000
_cell_volume 2363.877088
_symmetry_space_group_name_H-M "F 2 2 2"
_symmetry_group_IT_number 22
_symmetry_cell_setting 'orthorhombic'
loop_
_space_group_symop_operation_xyz
x,y,z
-x,-y,z
x,-y,-z
-x,y,-z
x,1/2+y,1/2+z
-x,1/2-y,1/2+z
x,1/2-y,1/2-z
-x,1/2+y,1/2-z
1/2+x,y,1/2+z
1/2-x,-y,1/2+z
1/2+x,-y,1/2-z
1/2-x,y,1/2-z
1/2+x,1/2+y,z
1/2-x,1/2-y,z
1/2+x,1/2-y,-z
1/2-x,1/2+y,-z
loop_
_atom_site_type_symbol
_atom_site_label
_atom_site_fract_x
_atom_site_fract_y
_atom_site_fract_z
Si Si1 0.916776 0.426716 0.188306
Si Si2 0.174286 0.566453 0.407482
Si Si3 0.457831 0.750000 0.750000
Si Si4 0.617314 0.729322 0.027380
O O1 0.876886 0.463651 0.299489
O O2 0.805806 0.414050 0.118682
O O3 0.000000 0.500000 0.144075
O O4 0.970082 0.333463 0.213982
O O5 0.168685 0.500000 0.500000
O O6 0.106652 0.648841 0.449507
O O7 0.388110 0.719391 0.849761
O O8 0.750000 0.750000 0.007881
O O9 0.500000 0.782028 0.000000
#
# Coordination Sequence:
#
# PCOD9329148 Si02
#       4
#    16  16   8  16
#     4  11  26  48  75 112 153 201 263 327 390 465
#     4  11  26  46  75 107 155 204 258 323 393 463
#     4  12  25  47  80 110 155 200 265 322 395 472
#     4  12  26  47  76 112 152 202 258 320 393 462
#
# _framework density 23.689896000000001
#
# number of rings (size 3 to 8) (size 9 to 14) (size 15 to 20)
#    0.000    0.571    2.857    3.857    4.000    1.714 
#    0.000    0.000    0.000    0.000    0.000    0.000 
#    0.000    0.000    0.000    0.000    0.000    0.000 
#
# Total GULP energy -78137.335520 kJ/mol
# GULP energy per Si atom -5581.238251 kJ/mol
# Density = 2.363598 g / cm^3
# Si number density = 23.689896 Si / 1000 Ang^3
#
#
#
# Elastic Constant Matrix: (Units=GPa)
#
#
# Indices 1 2 3 4 5 6 
#
# 1 162.5038 31.6885 12.9990 0.0000 0.0000 0.0000
# 2 31.6885 71.6905 -0.3827 0.0000 0.0000 0.0000
# 3 12.9990 -0.3827 123.5022 0.0000 0.0000 0.0000
# 4 0.0000 0.0000 0.0000 33.1332 0.0000 0.0000
# 5 0.0000 0.0000 0.0000 0.0000 71.5744 0.0000
# 6 0.0000 0.0000 0.0000 0.0000 0.0000 28.3790
#
#
#
# Elastic Compliance Matrix: (Units=1/GPa)
#
#
# Indices 1 2 3 4 5 6 
#
# 1 0.006798 -0.003009 -0.000725 0.000000 0.000000 0.000000
# 2 -0.003009 0.015281 0.000364 0.000000 0.000000 0.000000
# 3 -0.000725 0.000364 0.008174 0.000000 0.000000 0.000000
# 4 0.000000 0.000000 0.000000 0.030181 0.000000 0.000000
# 5 0.000000 0.000000 0.000000 0.000000 0.013971 0.000000
# 6 0.000000 0.000000 0.000000 0.000000 0.000000 0.035237
#
#
# Mechanical properties :
#
#
# Convention : Reuss Voigt Hill
#
# Bulk Modulus (GPa) = 42.52753 49.58957 46.05855
# Shear Modulus (GPa) = 40.25080 47.51010 43.88045
#
# Velocity S-wave (km/s) = 4.12645 4.48314 4.30849
# Velocity P-wave (km/s) = 6.37920 6.91204 6.65096
#
# Compressibility (1/GPa) = 0.02351418
#
# Stress axis : x y z
#
# Youngs Moduli (GPa) = 147.09290 65.44174 122.33248
#
# Poissons Ratio (x) = 0.19691 0.08868
# Poissons Ratio (y) = 0.44259 -0.04453
# Poissons Ratio (z) = 0.10662 -0.02382
#
# Static dielectric constant tensor:
#      x y z
#    x 1.963480 0.000000 0.000000 
#    y 0.000000 1.895780 0.000000 
#    z 0.000000 0.000000 1.855050 
# 
# From -- ./inp_files/19071.got.cif
#   From: 2010.05.17/outbox.cif.g08.bks.cpg/sg22_10_cif.got.tgz:19071.got - 2010.06.03 23:40:54.
