data_PCOD9329291
_publ_section_title
;
Structure prediction by ZEFSAII (Michael W. Deem and Ramdas Pophale) SiO2 
 PCOD9329291
Probable space group: F 2 2 2
;
_chemical_formula_sum "Si O2"
_cell_formula_units_Z 28
_cell_length_a 15.000000
_cell_length_b 12.000000
_cell_length_c 30.000000
_cell_angle_alpha 90.000000
_cell_angle_beta 90.000000
_cell_angle_gamma 90.000000
_cell_volume 5400.000000
_symmetry_space_group_name_H-M "F 2 2 2"
_symmetry_group_IT_number 22
_symmetry_cell_setting 'orthorhombic'
loop_
_space_group_symop_operation_xyz
x,y,z
-x,-y,z
x,-y,-z
-x,y,-z
x,1/2+y,1/2+z
-x,1/2-y,1/2+z
x,1/2-y,1/2-z
-x,1/2+y,1/2-z
1/2+x,y,1/2+z
1/2-x,-y,1/2+z
1/2+x,-y,1/2-z
1/2-x,y,1/2-z
1/2+x,1/2+y,z
1/2-x,1/2-y,z
1/2+x,1/2-y,-z
1/2-x,1/2+y,-z
loop_
_atom_site_type_symbol
_atom_site_label
_atom_site_fract_x
_atom_site_fract_y
_atom_site_fract_z
Si Si1 0.554588 0.751372 0.302024
Si Si2 0.921027 0.409691 0.621107
Si Si3 0.150516 0.205455 0.669880
Si Si4 0.326669 0.944891 0.451707
Si Si5 0.103199 0.964069 0.644332
Si Si6 0.871579 0.540945 0.949912
Si Si7 0.056439 0.242732 0.921394
O O1 0.576079 0.750000 0.250000
O O2 0.590102 0.859900 0.329228
O O3 0.444512 0.738314 0.305707
O O4 0.602309 0.647547 0.326876
O O5 0.849246 0.471080 0.589570
O O6 0.000000 0.500000 0.624489
O O7 0.962624 0.304327 0.594848
O O8 0.250000 0.250000 0.683210
O O9 0.123839 0.251043 0.620914
O O10 0.153846 0.070710 0.665599
O O11 0.330675 0.000000 0.500000
O O12 0.226073 0.902603 0.446537
O O13 0.399436 0.848155 0.452622
O O14 0.128574 0.956946 0.592104
O O15 0.000000 0.000000 0.644702
O O16 0.945012 0.634814 0.940953
O O17 0.881202 0.500000 0.000000
#
# Coordination Sequence:
#
# PCOD9329291 Si02
#       7
#    16  16  16  16  16  16  16
#     4  10  21  37  59  85 119 161 200 244 303 363
#     4   9  20  36  56  82 111 153 200 241 290 353
#     4   9  17  33  60  87 113 148 196 253 302 348
#     4  10  20  34  55  84 117 152 194 244 294 345
#     4   9  19  36  57  84 120 157 192 241 302 359
#     4  10  20  34  57  86 114 150 193 241 297 356
#     4   9  17  33  54  78 112 150 188 234 289 349
#
# _framework density 5.1851849999999997
#
# number of rings (size 3 to 8) (size 9 to 14) (size 15 to 20)
#    0.000    2.571    0.000    3.000    0.000    6.000 
#    0.000    6.429    0.000    8.571    0.000    0.000 
#    0.000    0.000    0.000    0.000    0.000    0.000 
#
# Total GULP energy -156006.370685 kJ/mol
# GULP energy per Si atom -5571.656096 kJ/mol
# Density = 0.517338 g / cm^3
# Si number density = 5.185185 Si / 1000 Ang^3
#
#
#
# Elastic Constant Matrix: (Units=GPa)
#
#
# Indices 1 2 3 4 5 6 
#
# 1 42.4225 16.1424 3.9624 0.0000 0.0000 0.0000
# 2 16.1424 80.9359 39.0116 0.0000 0.0000 0.0000
# 3 3.9624 39.0116 120.6188 0.0000 0.0000 0.0000
# 4 0.0000 0.0000 0.0000 18.9251 0.0000 0.0000
# 5 0.0000 0.0000 0.0000 0.0000 15.2289 0.0000
# 6 0.0000 0.0000 0.0000 0.0000 0.0000 29.5071
#
#
#
# Elastic Compliance Matrix: (Units=1/GPa)
#
#
# Indices 1 2 3 4 5 6 
#
# 1 0.025602 -0.005569 0.000960 0.000000 0.000000 0.000000
# 2 -0.005569 0.015849 -0.004943 0.000000 0.000000 0.000000
# 3 0.000960 -0.004943 0.009858 0.000000 0.000000 0.000000
# 4 0.000000 0.000000 0.000000 0.052840 0.000000 0.000000
# 5 0.000000 0.000000 0.000000 0.000000 0.065665 0.000000
# 6 0.000000 0.000000 0.000000 0.000000 0.000000 0.033890
#
#
# Mechanical properties :
#
#
# Convention : Reuss Voigt Hill
#
# Bulk Modulus (GPa) = 31.05148 40.24555 35.64851
# Shear Modulus (GPa) = 21.40950 25.05629 23.23289
#
# Velocity S-wave (km/s) = 3.21634 3.47950 3.35051
# Velocity P-wave (km/s) = 5.36627 5.96564 5.67387
#
# Compressibility (1/GPa) = 0.03220459
#
# Stress axis : x y z
#
# Youngs Moduli (GPa) = 39.05977 63.09653 101.44300
#
# Poissons Ratio (x) = 0.35138 -0.09740
# Poissons Ratio (y) = 0.21752 0.50143
# Poissons Ratio (z) = -0.03750 0.31189
#
# Static dielectric constant tensor:
#      x y z
#    x 1.773040 0.000000 0.000000 
#    y 0.000000 1.799730 0.000000 
#    z 0.000000 0.000000 1.757550 
# 
# From -- ./inp_files/56469.got.cif
#   From: 2010.05.17/outbox.ucp.g08.bks.cvg/sg22_29_cif.got.tgz:56469.got - 2010.06.11 15:16:44.
