data_PCOD9329086
_publ_section_title
;
Structure prediction by ZEFSAII (Michael W. Deem and Ramdas Pophale) SiO2 
 PCOD9329086
Probable space group: F 2 2 2
;
_chemical_formula_sum "Si O2"
_cell_formula_units_Z 88
_cell_length_a 15.025468
_cell_length_b 25.321736
_cell_length_c 10.230499
_cell_angle_alpha 90.000000
_cell_angle_beta 90.000000
_cell_angle_gamma 90.000000
_cell_volume 3892.407510
_symmetry_space_group_name_H-M "F 2 2 2"
_symmetry_group_IT_number 22
_symmetry_cell_setting 'orthorhombic'
loop_
_space_group_symop_operation_xyz
x,y,z
-x,-y,z
x,-y,-z
-x,y,-z
x,1/2+y,1/2+z
-x,1/2-y,1/2+z
x,1/2-y,1/2-z
-x,1/2+y,1/2-z
1/2+x,y,1/2+z
1/2-x,-y,1/2+z
1/2+x,-y,1/2-z
1/2-x,y,1/2-z
1/2+x,1/2+y,z
1/2-x,1/2-y,z
1/2+x,1/2-y,-z
1/2-x,1/2+y,-z
loop_
_atom_site_type_symbol
_atom_site_label
_atom_site_fract_x
_atom_site_fract_y
_atom_site_fract_z
Si Si1 0.403522 0.270382 0.626166
Si Si2 0.250000 0.849162 0.750000
Si Si3 0.750000 0.942605 0.750000
Si Si4 0.160802 0.500000 0.500000
Si Si5 0.438620 0.894286 0.132226
Si Si6 0.916138 0.096939 0.849034
Si Si7 0.000000 0.186289 0.000000
Si Si8 0.250000 0.750000 0.933741
O O1 0.350036 0.250000 0.750000
O O2 0.431016 0.330690 0.623355
O O3 0.480740 0.226489 0.617518
O O4 0.341751 0.255950 0.507412
O O5 0.164942 0.886684 0.754875
O O6 0.246838 0.806699 0.864716
O O7 0.714401 0.975845 0.624625
O O8 0.662646 0.913210 0.820931
O O9 0.104235 0.453732 0.434484
O O10 0.498864 0.908966 0.256777
O O11 0.500000 0.910165 0.000000
O O12 0.927097 0.145403 0.949541
#
# Coordination Sequence:
#
# PCOD9329086 Si02
#       8
#    16   8   8   8  16  16   8   8
#     4  12  25  42  69 115 163 214 266 322 407 514
#     4  11  25  44  77 112 159 214 267 325 416 516
#     4  12  33  58  88 126 161 217 289 366 426 518
#     4  12  32  59  85 120 158 214 297 362 431 498
#     4  12  29  50  85 120 173 217 273 345 434 512
#     4  12  27  52  79 115 156 219 277 353 422 496
#     4  12  24  45  74 108 158 211 266 326 412 512
#     4  11  25  40  70 114 161 211 264 324 406 511
#
# _framework density 22.608115000000002
#
# number of rings (size 3 to 8) (size 9 to 14) (size 15 to 20)
#    0.000    0.182    4.545    3.000   10.182    3.273 
#    0.000    0.000    0.000    0.000    0.000    0.000 
#    0.000    0.000    0.000    0.000    0.000    0.000 
#
# Total GULP energy -122506.914763 kJ/mol
# GULP energy per Si atom -5568.496126 kJ/mol
# Density = 2.255666 g / cm^3
# Si number density = 22.608115 Si / 1000 Ang^3
#
#
#
# Elastic Constant Matrix: (Units=GPa)
#
#
# Indices 1 2 3 4 5 6 
#
# 1 140.9396 82.2689 56.6902 0.0000 0.0000 0.0000
# 2 82.2689 170.8327 75.5590 0.0000 0.0000 0.0000
# 3 56.6902 75.5590 122.4216 0.0000 0.0000 0.0000
# 4 0.0000 0.0000 0.0000 19.3764 0.0000 0.0000
# 5 0.0000 0.0000 0.0000 0.0000 14.1584 0.0000
# 6 0.0000 0.0000 0.0000 0.0000 0.0000 49.6852
#
#
#
# Elastic Compliance Matrix: (Units=1/GPa)
#
#
# Indices 1 2 3 4 5 6 
#
# 1 0.010342 -0.003937 -0.002359 0.000000 0.000000 0.000000
# 2 -0.003937 0.009550 -0.004071 0.000000 0.000000 0.000000
# 3 -0.002359 -0.004071 0.011774 0.000000 0.000000 0.000000
# 4 0.000000 0.000000 0.000000 0.051609 0.000000 0.000000
# 5 0.000000 0.000000 0.000000 0.000000 0.070629 0.000000
# 6 0.000000 0.000000 0.000000 0.000000 0.000000 0.020127
#
#
# Mechanical properties :
#
#
# Convention : Reuss Voigt Hill
#
# Bulk Modulus (GPa) = 91.48183 95.91446 93.69815
# Shear Modulus (GPa) = 25.20015 31.28905 28.24460
#
# Velocity S-wave (km/s) = 3.34226 3.72422 3.53840
# Velocity P-wave (km/s) = 7.44623 7.81089 7.63073
#
# Compressibility (1/GPa) = 0.01093113
#
# Stress axis : x y z
#
# Youngs Moduli (GPa) = 96.68950 104.70664 84.93368
#
# Poissons Ratio (x) = 0.41224 0.20038
# Poissons Ratio (y) = 0.38068 0.34580
# Poissons Ratio (z) = 0.22812 0.42630
#
# Static dielectric constant tensor:
#      x y z
#    x 1.966390 0.000000 0.000000 
#    y 0.000000 1.791780 0.000000 
#    z 0.000000 0.000000 1.869370 
# 
# From -- ./inp_files/20019.got.cif
#   From: 2010.05.17/outbox.cif.g08.bks.cpg/sg22_11_cif.got.tgz:20019.got - 2010.06.03 23:40:54.
