data_PCOD9329235
_publ_section_title
;
Structure prediction by ZEFSAII (Michael W. Deem and Ramdas Pophale) SiO2 
 PCOD9329235
Probable space group: F 2 2 2
;
_chemical_formula_sum "Si O2"
_cell_formula_units_Z 92
_cell_length_a 21.484765
_cell_length_b 20.725154
_cell_length_c 8.653688
_cell_angle_alpha 90.000000
_cell_angle_beta 90.000000
_cell_angle_gamma 90.000000
_cell_volume 3853.271472
_symmetry_space_group_name_H-M "F 2 2 2"
_symmetry_group_IT_number 22
_symmetry_cell_setting 'orthorhombic'
loop_
_space_group_symop_operation_xyz
x,y,z
-x,-y,z
x,-y,-z
-x,y,-z
x,1/2+y,1/2+z
-x,1/2-y,1/2+z
x,1/2-y,1/2-z
-x,1/2+y,1/2-z
1/2+x,y,1/2+z
1/2-x,-y,1/2+z
1/2+x,-y,1/2-z
1/2-x,y,1/2-z
1/2+x,1/2+y,z
1/2-x,1/2-y,z
1/2+x,1/2-y,-z
1/2-x,1/2+y,-z
loop_
_atom_site_type_symbol
_atom_site_label
_atom_site_fract_x
_atom_site_fract_y
_atom_site_fract_z
Si Si1 0.908907 0.452111 0.241876
Si Si2 0.896173 0.325273 0.785799
Si Si3 0.285034 0.354387 0.517245
Si Si4 0.000000 0.000000 0.000000
Si Si5 0.641287 0.352283 0.034125
Si Si6 0.826062 0.000000 0.500000
Si Si7 0.500000 0.618050 0.500000
Si Si8 0.843833 0.750000 0.750000
O O1 0.955176 0.465604 0.380074
O O2 0.861291 0.406365 0.334130
O O3 0.870019 0.506714 0.152117
O O4 0.951198 0.421303 0.106579
O O5 0.895893 0.250000 0.750000
O O6 0.833523 0.339755 0.881337
O O7 0.895441 0.363419 0.623112
O O8 0.956030 0.342660 0.885755
O O9 0.212932 0.339586 0.488288
O O10 0.290571 0.432809 0.532849
O O11 0.306392 0.305556 0.655314
O O12 0.617411 0.288399 0.122128
#
# Coordination Sequence:
#
# PCOD9329235 Si02
#       8
#    16  16  16   4  16   8   8   8
#     4  12  27  49  77 107 157 208 268 325 402 478
#     4  12  27  48  78 112 155 201 268 332 396 471
#     4  12  26  50  76 120 162 209 256 330 410 488
#     4  12  28  48  78 112 148 218 280 316 392 506
#     4  12  26  46  79 116 154 204 268 331 399 484
#     4  12  26  48  76 112 163 207 248 328 410 476
#     4  12  26  53  73 108 149 212 265 332 392 468
#     4  12  23  46  80 112 160 212 264 314 399 492
#
# _framework density 23.875816
#
# number of rings (size 3 to 8) (size 9 to 14) (size 15 to 20)
#    0.000    0.000    5.217    4.174    2.435    2.783 
#    4.696    0.000    0.000    0.000    0.000    0.000 
#    0.000    0.000    0.000    0.000    0.000    0.000 
#
# Total GULP energy -128559.310836 kJ/mol
# GULP energy per Si atom -5589.535254 kJ/mol
# Density = 2.382147 g / cm^3
# Si number density = 23.875816 Si / 1000 Ang^3
#
#
#
# Elastic Constant Matrix: (Units=GPa)
#
#
# Indices 1 2 3 4 5 6 
#
# 1 71.0810 9.0036 42.0595 0.0004 -0.0001 0.0000
# 2 9.0036 92.9154 52.7351 0.0004 -0.0001 0.0000
# 3 42.0595 52.7351 165.9563 0.0005 -0.0001 0.0000
# 4 0.0004 0.0004 0.0005 53.9192 -0.0001 0.0000
# 5 -0.0001 -0.0001 -0.0001 -0.0001 51.9450 0.0000
# 6 0.0000 0.0000 0.0000 0.0000 0.0000 22.9057
#
#
#
# Elastic Compliance Matrix: (Units=1/GPa)
#
#
# Indices 1 2 3 4 5 6 
#
# 1 0.016619 0.000952 -0.004514 0.000000 0.000000 0.000000
# 2 0.000952 0.013185 -0.004431 0.000000 0.000000 0.000000
# 3 -0.004514 -0.004431 0.008578 0.000000 0.000000 0.000000
# 4 0.000000 0.000000 0.000000 0.018546 0.000000 0.000000
# 5 0.000000 0.000000 0.000000 0.000000 0.019251 0.000000
# 6 0.000000 0.000000 0.000000 0.000000 0.000000 0.043657
#
#
# Mechanical properties :
#
#
# Convention : Reuss Voigt Hill
#
# Bulk Modulus (GPa) = 44.65309 59.72769 52.19039
# Shear Modulus (GPa) = 34.89458 40.83094 37.86276
#
# Velocity S-wave (km/s) = 3.82711 4.13987 3.98656
# Velocity P-wave (km/s) = 6.18642 6.92254 6.56481
#
# Compressibility (1/GPa) = 0.02239487
#
# Stress axis : x y z
#
# Youngs Moduli (GPa) = 60.17174 75.84323 116.58021
#
# Poissons Ratio (x) = -0.07218 0.52628
# Poissons Ratio (y) = -0.05727 0.51656
# Poissons Ratio (z) = 0.27164 0.33606
#
# Static dielectric constant tensor:
#      x y z
#    x 1.955990 0.000000 0.000000 
#    y 0.000000 1.985050 0.000000 
#    z 0.000000 0.000000 1.910000 
# 
# From -- ./inp_files/13810.got.cif
#   From: 2010.05.17/outbox.cif.g08.bks.cpg/sg22_7_cif.got.tgz:13810.got - 2010.06.03 23:40:54.
