data_PCOD9329529
_publ_section_title
;
Structure prediction by ZEFSAII (Michael W. Deem and Ramdas Pophale) SiO2 
 PCOD9329529
Probable space group: I 2 2 2
;
_chemical_formula_sum "Si O2"
_cell_formula_units_Z 64
_cell_length_a 19.589560
_cell_length_b 17.610216
_cell_length_c 10.682410
_cell_angle_alpha 90.000000
_cell_angle_beta 90.000000
_cell_angle_gamma 90.000000
_cell_volume 3685.179163
_symmetry_space_group_name_H-M "I 2 2 2"
_symmetry_group_IT_number 23
_symmetry_cell_setting 'orthorhombic'
loop_
_space_group_symop_operation_xyz
x,y,z
-x,-y,z
x,-y,-z
-x,y,-z
1/2+x,1/2+y,1/2+z
1/2-x,1/2-y,1/2+z
1/2+x,1/2-y,1/2-z
1/2-x,1/2+y,1/2-z
loop_
_atom_site_type_symbol
_atom_site_label
_atom_site_fract_x
_atom_site_fract_y
_atom_site_fract_z
Si Si1 0.520308 0.884417 0.356047
Si Si2 0.657065 0.028443 0.638264
Si Si3 0.478549 0.701968 0.640632
Si Si4 0.382862 0.110419 0.784527
Si Si5 0.736154 0.841873 0.270575
Si Si6 0.373912 0.280337 0.686541
Si Si7 0.711184 0.091149 0.003990
Si Si8 0.831663 0.194030 0.103341
O O1 0.500000 0.903981 0.500000
O O2 0.590216 0.924685 0.321437
O O3 0.530059 0.793572 0.355369
O O4 0.459723 0.906204 0.261480
O O5 0.718406 0.087453 0.641898
O O6 0.644613 0.000000 0.500000
O O7 0.663812 0.955056 0.724228
O O8 0.500000 0.679257 0.500000
O O9 0.549634 0.689326 0.713249
O O10 0.403414 0.669308 0.667983
O O11 0.369260 0.192899 0.727144
O O12 0.360690 0.109213 0.928266
O O13 0.815912 0.825577 0.258435
O O14 0.712389 0.870115 0.132801
O O15 0.699444 0.766234 0.323071
O O16 0.355616 0.283043 0.538157
O O17 0.772679 0.131442 0.082202
O O18 0.720666 0.000000 0.000000
#
# Coordination Sequence:
#
# PCOD9329529 Si02
#       8
#     8   8   8   8   8   8   8   8
#     4  10  18  30  50  80 112 145 185 231 274 315
#     4  12  21  31  53  83 113 142 193 236 279 327
#     4   8  15  29  53  79 100 129 176 240 279 314
#     4  11  20  33  51  75 115 153 178 221 292 339
#     4  11  21  35  55  76 110 152 188 232 280 354
#     4   9  19  34  55  81 106 136 187 240 287 323
#     4  11  23  38  51  78 121 158 179 233 301 360
#     4  10  18  35  59  78 104 142 192 236 283 334
#
# _framework density 17.366862999999999
#
# number of rings (size 3 to 8) (size 9 to 14) (size 15 to 20)
#    0.000    1.750    5.000    1.875    0.000    0.000 
#    0.000    0.625    0.000    9.375    0.000    0.000 
#    0.000    1.000    0.000    0.000    0.000    0.000 
#
# Total GULP energy -178243.004800 kJ/mol
# GULP energy per Si atom -5570.093900 kJ/mol
# Density = 1.732734 g / cm^3
# Si number density = 17.366863 Si / 1000 Ang^3
#
#
#
# Elastic Constant Matrix: (Units=GPa)
#
#
# Indices 1 2 3 4 5 6 
#
# 1 116.4959 37.2586 27.0411 0.0000 0.0000 0.0000
# 2 37.2586 59.8221 18.2694 0.0000 0.0000 0.0000
# 3 27.0411 18.2694 27.6980 0.0000 0.0000 0.0000
# 4 0.0000 0.0000 0.0000 21.2469 0.0000 0.0000
# 5 0.0000 0.0000 0.0000 0.0000 26.0444 0.0000
# 6 0.0000 0.0000 0.0000 0.0000 0.0000 18.0213
#
#
#
# Elastic Compliance Matrix: (Units=1/GPa)
#
#
# Indices 1 2 3 4 5 6 
#
# 1 0.012166 -0.004946 -0.008615 0.000000 0.000000 0.000000
# 2 -0.004946 0.022944 -0.010305 0.000000 0.000000 0.000000
# 3 -0.008615 -0.010305 0.051311 0.000000 0.000000 0.000000
# 4 0.000000 0.000000 0.000000 0.047066 0.000000 0.000000
# 5 0.000000 0.000000 0.000000 0.000000 0.038396 0.000000
# 6 0.000000 0.000000 0.000000 0.000000 0.000000 0.055490
#
#
# Mechanical properties :
#
#
# Convention : Reuss Voigt Hill
#
# Bulk Modulus (GPa) = 25.84691 41.01713 33.43202
# Shear Modulus (GPa) = 17.36116 21.15899 19.26007
#
# Velocity S-wave (km/s) = 3.16519 3.49428 3.33380
# Velocity P-wave (km/s) = 5.31724 6.32055 5.84048
#
# Compressibility (1/GPa) = 0.03868935
#
# Stress axis : x y z
#
# Youngs Moduli (GPa) = 82.19952 43.58473 19.48900
#
# Poissons Ratio (x) = 0.21557 0.16789
# Poissons Ratio (y) = 0.40657 0.20083
# Poissons Ratio (z) = 0.70811 0.44913
#
# Static dielectric constant tensor:
#      x y z
#    x 1.648610 0.000000 0.000000 
#    y 0.000000 1.591430 0.000000 
#    z 0.000000 0.000000 1.623460 
# 
# From -- ./inp_files/17657.got.cif
#   From: 2010.05.17/outbox.cif.g08.bks.cpg/sg23_9_cif.got.tgz:17657.got - 2010.06.04 12:02:01.
