data_PCOD9329444
_publ_section_title
;
Structure prediction by ZEFSAII (Michael W. Deem and Ramdas Pophale) SiO2 
 PCOD9329444
Probable space group: I 2 2 2
;
_chemical_formula_sum "Si O2"
_cell_formula_units_Z 52
_cell_length_a 5.575235
_cell_length_b 19.127065
_cell_length_c 33.281650
_cell_angle_alpha 90.000000
_cell_angle_beta 90.000000
_cell_angle_gamma 90.000000
_cell_volume 3549.084673
_symmetry_space_group_name_H-M "I 2 2 2"
_symmetry_group_IT_number 23
_symmetry_cell_setting 'orthorhombic'
loop_
_space_group_symop_operation_xyz
x,y,z
-x,-y,z
x,-y,-z
-x,y,-z
1/2+x,1/2+y,1/2+z
1/2-x,1/2-y,1/2+z
1/2+x,1/2-y,1/2-z
1/2-x,1/2+y,1/2-z
loop_
_atom_site_type_symbol
_atom_site_label
_atom_site_fract_x
_atom_site_fract_y
_atom_site_fract_z
Si Si1 0.000000 0.500000 0.828969
Si Si2 0.751279 0.419659 0.016143
Si Si3 0.626868 0.616644 0.743169
Si Si4 0.864070 0.589772 0.242697
Si Si5 0.101965 0.184383 0.330457
Si Si6 0.391990 0.236100 0.697828
Si Si7 0.164759 0.930655 0.609716
O O1 0.157183 0.545365 0.798345
O O2 0.125348 0.447045 0.858972
O O3 0.747578 0.420685 0.064236
O O4 0.750995 0.500000 0.000000
O O5 0.500000 0.388756 0.000000
O O6 0.000000 0.387971 0.000000
O O7 0.378333 0.578933 0.733128
O O8 0.614268 0.633222 0.791230
O O9 0.613855 0.690855 0.720925
O O10 0.877908 0.577283 0.737091
O O11 0.882933 0.671753 0.229767
O O12 0.360041 0.224009 0.327110
O O13 0.058873 0.138902 0.370475
O O14 0.861967 0.229888 0.324979
O O15 0.000000 0.000000 0.610535
#
# Coordination Sequence:
#
# PCOD9329444 Si02
#       7
#     4   8   8   8   8   8   8
#     4  12  22  30  41  62  90 102 126 174 218 270
#     4  10  20  36  45  59  71 101 146 155 201 266
#     4  10  17  31  44  55  78 102 132 157 186 261
#     4  10  19  28  39  59  77 102 129 149 203 246
#     4  10  19  28  40  66  73  95 130 150 217 239
#     4  10  17  31  44  57  79  99 130 159 187 265
#     4  12  22  31  48  58  85 106 125 184 213 266
#
# _framework density 14.651664
#
# number of rings (size 3 to 8) (size 9 to 14) (size 15 to 20)
#    0.000    1.538    4.615    7.385    0.000    0.000 
#    0.000    0.000    0.000    0.000    0.000    0.000 
#    0.000    0.000    0.000    0.000    0.000    0.000 
#
# Total GULP energy -144833.781544 kJ/mol
# GULP energy per Si atom -5570.530059 kJ/mol
# Density = 1.461832 g / cm^3
# Si number density = 14.651664 Si / 1000 Ang^3
#
#
#
# Elastic Constant Matrix: (Units=GPa)
#
#
# Indices 1 2 3 4 5 6 
#
# 1 141.1095 23.2762 31.8574 0.0000 0.0000 0.0000
# 2 23.2762 35.6110 33.9424 0.0000 0.0000 0.0000
# 3 31.8574 33.9424 69.2728 0.0000 0.0000 0.0000
# 4 0.0000 0.0000 0.0000 -12.1971 0.0000 0.0000
# 5 0.0000 0.0000 0.0000 0.0000 7.2184 0.0000
# 6 0.0000 0.0000 0.0000 0.0000 0.0000 18.1443
#
#
#
# Elastic Compliance Matrix: (Units=1/GPa)
#
#
# Indices 1 2 3 4 5 6 
#
# 1 0.008106 -0.003274 -0.002124 0.000000 0.000000 0.000000
# 2 -0.003274 0.054010 -0.024958 0.000000 0.000000 0.000000
# 3 -0.002124 -0.024958 0.027641 0.000000 0.000000 0.000000
# 4 0.000000 0.000000 0.000000 -0.081987 0.000000 0.000000
# 5 0.000000 0.000000 0.000000 0.000000 0.138535 0.000000
# 6 0.000000 0.000000 0.000000 0.000000 0.000000 0.055114
#
#
# Mechanical properties :
#
#
# Convention : Reuss Voigt Hill
#
# Bulk Modulus (GPa) = 34.42872 47.12727 40.77799
# Shear Modulus (GPa) = 18.39501 13.09429 15.74465
#
# Velocity S-wave (km/s) = 3.54713 2.99274 3.28166
# Velocity P-wave (km/s) = 6.35023 6.64657 6.50009
#
# Compressibility (1/GPa) = 0.02904551
#
# Stress axis : x y z
#
# Youngs Moduli (GPa) = 123.36197 18.51504 36.17773
#
# Poissons Ratio (x) = 0.06063 0.07682
# Poissons Ratio (y) = 0.40393 0.90293
# Poissons Ratio (z) = 0.26196 0.46210
#
# Static dielectric constant tensor:
#      x y z
#    x 1.756640 0.000000 0.000000 
#    y 0.000000 1.548760 0.000000 
#    z 0.000000 0.000000 1.445470 
# 
# From -- ./inp_files/3518.got.cif
#   From: 2010.05.17/outbox.cif.g08.bks.cpg/sg23_2_cif.got.tgz:3518.got - 2010.06.04 12:02:01.
