data_PCOD9329769
_publ_section_title
;
Structure prediction by ZEFSAII (Michael W. Deem and Ramdas Pophale) SiO2 
 PCOD9329769
Probable space group: I 2 2 2
;
_chemical_formula_sum "Si O2"
_cell_formula_units_Z 38
_cell_length_a 6.187703
_cell_length_b 20.498748
_cell_length_c 16.919487
_cell_angle_alpha 90.000000
_cell_angle_beta 90.000000
_cell_angle_gamma 90.000000
_cell_volume 2146.070514
_symmetry_space_group_name_H-M "I 2 2 2"
_symmetry_group_IT_number 23
_symmetry_cell_setting 'orthorhombic'
loop_
_space_group_symop_operation_xyz
x,y,z
-x,-y,z
x,-y,-z
-x,y,-z
1/2+x,1/2+y,1/2+z
1/2-x,1/2-y,1/2+z
1/2+x,1/2-y,1/2-z
1/2-x,1/2+y,1/2-z
loop_
_atom_site_type_symbol
_atom_site_label
_atom_site_fract_x
_atom_site_fract_y
_atom_site_fract_z
Si Si1 0.000000 0.000000 0.500000
Si Si2 0.760171 0.794993 0.849929
Si Si3 0.118152 0.432144 0.918776
Si Si4 0.049897 0.329011 0.194368
Si Si5 0.380953 0.290338 0.072697
Si Si6 0.000000 0.798537 0.000000
O O1 0.148448 0.955488 0.554951
O O2 0.645655 0.837008 0.781791
O O3 0.562605 0.754437 0.887559
O O4 0.926615 0.741246 0.812285
O O5 0.888671 0.830088 0.922124
O O6 0.000000 0.500000 0.897426
O O7 0.105168 0.381474 0.847371
O O8 0.000000 0.406773 0.000000
O O9 0.260259 0.331473 0.138160
O O10 0.190290 0.246270 0.035489
O O11 0.500000 0.324550 0.000000
#
# Coordination Sequence:
#
# PCOD9329769 Si02
#       6
#     2   8   8   8   8   4
#     4   8  18  44  48  70  96 148 206 238 262 310
#     4  10  19  31  47  75 108 142 178 220 282 333
#     4   9  21  37  53  75 105 147 202 228 260 320
#     4  11  20  32  49  77 108 142 186 230 267 332
#     4   9  18  31  44  68 100 139 175 208 263 324
#     4   8  18  32  46  64 101 141 174 208 268 340
#
# _framework density 17.706780999999999
#
# number of rings (size 3 to 8) (size 9 to 14) (size 15 to 20)
#    0.000    2.737    2.105    0.000    8.842    3.368 
#    1.895    0.000    0.000    0.000    0.000    0.000 
#    0.000    9.263    0.211    0.000    0.000    0.000 
#
# Total GULP energy -105780.441144 kJ/mol
# GULP energy per Si atom -5567.391639 kJ/mol
# Density = 1.766648 g / cm^3
# Si number density = 17.706781 Si / 1000 Ang^3
#
#
#
# Elastic Constant Matrix: (Units=GPa)
#
#
# Indices 1 2 3 4 5 6 
#
# 1 102.0097 10.3767 42.0895 0.0000 0.0000 0.0000
# 2 10.3767 38.3543 33.1773 0.0000 0.0000 0.0000
# 3 42.0895 33.1773 131.9754 0.0000 0.0000 0.0000
# 4 0.0000 0.0000 0.0000 16.5168 0.0000 0.0000
# 5 0.0000 0.0000 0.0000 0.0000 37.2265 0.0000
# 6 0.0000 0.0000 0.0000 0.0000 0.0000 -0.0293
#
#
#
# Elastic Compliance Matrix: (Units=1/GPa)
#
#
# Indices 1 2 3 4 5 6 
#
# 1 0.011289 0.000077 -0.003619 0.000000 0.000000 0.000000
# 2 0.000077 0.033318 -0.008400 0.000000 0.000000 0.000000
# 3 -0.003619 -0.008400 0.010843 0.000000 0.000000 0.000001
# 4 0.000000 0.000000 0.000000 0.060544 0.000000 0.000003
# 5 0.000000 0.000000 0.000000 0.000000 0.026863 0.000000
# 6 0.000000 0.000000 0.000001 0.000003 0.000000-34.109147
#
#
# Mechanical properties :
#
#
# Convention : Reuss Voigt Hill
#
# Bulk Modulus (GPa) = 31.68152 49.29184 40.48668
# Shear Modulus (GPa) = -0.14735 23.18919 11.52092
#
# Velocity S-wave (km/s) = -0.28879 3.62280 2.55355
# Velocity P-wave (km/s) = 4.22137 6.73779 5.62218
#
# Compressibility (1/GPa) = 0.03156414
#
# Stress axis : x y z
#
# Youngs Moduli (GPa) = 88.58518 30.01339 92.22320
#
# Poissons Ratio (x) = -0.00230 0.33380
# Poissons Ratio (y) = -0.00680 0.77471
# Poissons Ratio (z) = 0.32063 0.25212
#
# Static dielectric constant tensor:
#      x y z
#    x 1.653470 0.000000 0.000000 
#    y 0.000000 1.596240 0.000000 
#    z 0.000000 0.000000 1.672700 
# 
# From -- ./inp_files/2422.got.cif
#   From: 2010.05.17/outbox.cif.g08.bks.cpg/sg23_2_cif.got.tgz:2422.got - 2010.06.04 12:02:01.
