data_PCOD9329539
_publ_section_title
;
Structure prediction by ZEFSAII (Michael W. Deem and Ramdas Pophale) SiO2 
 PCOD9329539
Probable space group: I 2 2 2
;
_chemical_formula_sum "Si O2"
_cell_formula_units_Z 42
_cell_length_a 13.901883
_cell_length_b 5.154970
_cell_length_c 26.911796
_cell_angle_alpha 90.000000
_cell_angle_beta 90.000000
_cell_angle_gamma 90.000000
_cell_volume 1928.601292
_symmetry_space_group_name_H-M "I 2 2 2"
_symmetry_group_IT_number 23
_symmetry_cell_setting 'orthorhombic'
loop_
_space_group_symop_operation_xyz
x,y,z
-x,-y,z
x,-y,-z
-x,y,-z
1/2+x,1/2+y,1/2+z
1/2-x,1/2-y,1/2+z
1/2+x,1/2-y,1/2-z
1/2-x,1/2+y,1/2-z
loop_
_atom_site_type_symbol
_atom_site_label
_atom_site_fract_x
_atom_site_fract_y
_atom_site_fract_z
Si Si1 0.558362 0.262713 0.828093
Si Si2 0.673801 0.513813 0.387174
Si Si3 0.150725 0.236413 0.571765
Si Si4 0.648365 0.981456 0.556356
Si Si5 0.743997 0.983250 0.220294
Si Si6 0.000000 0.500000 0.500000
O O1 0.500000 0.500000 0.804450
O O2 0.601461 0.375526 0.879243
O O3 0.646212 0.159724 0.795863
O O4 0.500000 0.000000 0.840143
O O5 0.783330 0.477696 0.408677
O O6 0.630231 0.771483 0.409813
O O7 0.686979 0.502096 0.327991
O O8 0.619579 0.271707 0.412364
O O9 0.070567 0.325801 0.533543
O O10 0.235073 0.051126 0.552686
O O11 0.612148 0.000000 0.500000
O O12 0.780210 0.771985 0.260484
#
# Coordination Sequence:
#
# PCOD9329539 Si02
#       6
#     8   8   8   8   8   2
#     4  11  23  37  53  75 106 136 172 240 295 309
#     4   9  20  34  47  68  94 124 176 238 257 305
#     4   9  22  27  48  60 101 133 183 220 261 292
#     4  10  18  31  47  64  97 134 173 214 261 305
#     4  11  22  38  59  76  97 137 192 238 287 341
#     4  12  16  36  38  76  90 156 186 232 244 324
#
# _framework density 21.777441
#
# number of rings (size 3 to 8) (size 9 to 14) (size 15 to 20)
#    1.143    0.762    0.952    4.000    5.333    1.524 
#    0.000    0.952    0.000    0.000    0.000    0.000 
#    0.000    0.000    0.000    0.000    0.000  200.000 
#
# Total GULP energy -117087.804280 kJ/mol
# GULP energy per Si atom -5575.609728 kJ/mol
# Density = 2.172787 g / cm^3
# Si number density = 21.777441 Si / 1000 Ang^3
#
#
#
# Elastic Constant Matrix: (Units=GPa)
#
#
# Indices 1 2 3 4 5 6 
#
# 1 51.0967 -2.0099 -1.4059 0.0000 0.0000 0.0000
# 2 -2.0099 141.0311 46.3005 0.0000 0.0000 0.0000
# 3 -1.4059 46.3005 108.9053 0.0000 0.0000 0.0000
# 4 0.0000 0.0000 0.0000 -46.8604 0.0000 0.0000
# 5 0.0000 0.0000 0.0000 0.0000 3.6909 0.0000
# 6 0.0000 0.0000 0.0000 0.0000 0.0000 2.2763
#
#
#
# Elastic Compliance Matrix: (Units=1/GPa)
#
#
# Indices 1 2 3 4 5 6 
#
# 1 0.019584 0.000228 0.000156 0.000000 0.000000 0.000000
# 2 0.000228 0.008244 -0.003502 0.000000 0.000000 0.000000
# 3 0.000156 -0.003502 0.010673 0.000000 0.000000 0.000000
# 4 0.000000 0.000000 0.000000 -0.021340 0.000000 0.000000
# 5 0.000000 0.000000 0.000000 0.000000 0.270936 0.000000
# 6 0.000000 0.000000 0.000000 0.000000 0.000000 0.439310
#
#
# Mechanical properties :
#
#
# Convention : Reuss Voigt Hill
#
# Bulk Modulus (GPa) = 30.99357 42.97804 36.98580
# Shear Modulus (GPa) = 6.71684 9.03126 7.87405
#
# Velocity S-wave (km/s) = 1.75813 2.03864 1.90356
# Velocity P-wave (km/s) = 4.28768 5.03184 4.67459
#
# Compressibility (1/GPa) = 0.03226476
#
# Stress axis : x y z
#
# Youngs Moduli (GPa) = 51.06208 121.30767 93.69396
#
# Poissons Ratio (x) = -0.02765 -0.01461
# Poissons Ratio (y) = -0.01164 0.32809
# Poissons Ratio (z) = -0.00796 0.42479
#
# Static dielectric constant tensor:
#      x y z
#    x 1.861270 0.000000 0.000000 
#    y 0.000000 1.843480 0.000000 
#    z 0.000000 0.000000 1.819360 
# 
# From -- ./inp_files/29648.got.cif
#   From: 2010.05.17/outbox.cif.g08.bks.cpg/sg23_15_cif.got.tgz:29648.got - 2010.06.04 12:02:01.
