data_PCOD9329012
_publ_section_title
;
Structure prediction by ZEFSAII (Michael W. Deem and Ramdas Pophale) SiO2 
 PCOD9329012
Probable space group: F 2 2 2
;
_chemical_formula_sum "Si O2"
_cell_formula_units_Z 64
_cell_length_a 16.499267
_cell_length_b 21.164205
_cell_length_c 8.595324
_cell_angle_alpha 90.000000
_cell_angle_beta 90.000000
_cell_angle_gamma 90.000000
_cell_volume 3001.434444
_symmetry_space_group_name_H-M "F 2 2 2"
_symmetry_group_IT_number 22
_symmetry_cell_setting 'orthorhombic'
loop_
_space_group_symop_operation_xyz
x,y,z
-x,-y,z
x,-y,-z
-x,y,-z
x,1/2+y,1/2+z
-x,1/2-y,1/2+z
x,1/2-y,1/2-z
-x,1/2+y,1/2-z
1/2+x,y,1/2+z
1/2-x,-y,1/2+z
1/2+x,-y,1/2-z
1/2-x,y,1/2-z
1/2+x,1/2+y,z
1/2-x,1/2-y,z
1/2+x,1/2-y,-z
1/2-x,1/2+y,-z
loop_
_atom_site_type_symbol
_atom_site_label
_atom_site_fract_x
_atom_site_fract_y
_atom_site_fract_z
Si Si1 0.849933 0.682438 0.426588
Si Si2 0.328073 0.445792 0.629189
Si Si3 0.412781 0.059721 0.579825
Si Si4 0.155441 0.322715 0.074041
O O1 0.874010 0.627240 0.542704
O O2 0.876855 0.666124 0.249719
O O3 0.876846 0.753182 0.472736
O O4 0.752874 0.683748 0.417052
O O5 0.316390 0.500000 0.500000
O O6 0.250000 0.441658 0.750000
O O7 0.404912 0.457045 0.740775
O O8 0.351108 0.381007 0.541425
O O9 0.500000 0.063358 0.500000
O O10 0.369178 0.000000 0.500000
#
# Coordination Sequence:
#
# PCOD9329012 Si02
#       4
#    16  16  16  16
#     4   9  18  38  61  90 130 173 212 269 328 389
#     4  12  24  38  66 101 131 174 230 287 335 396
#     4  11  24  43  62  89 137 180 216 275 340 400
#     4   9  19  35  63  93 127 164 218 277 326 379
#
# _framework density 21.323136999999999
#
# number of rings (size 3 to 8) (size 9 to 14) (size 15 to 20)
#    0.000    1.750    2.500    3.750    3.500    1.000 
#    0.000   13.750    0.000    0.000    0.000    0.000 
#    0.000    0.000    0.000    0.000    0.000    0.000 
#
# Total GULP energy -89115.224388 kJ/mol
# GULP energy per Si atom -5569.701524 kJ/mol
# Density = 2.127460 g / cm^3
# Si number density = 21.323137 Si / 1000 Ang^3
#
#
#
# Elastic Constant Matrix: (Units=GPa)
#
#
# Indices 1 2 3 4 5 6 
#
# 1 46.6920 11.5752 27.1683 0.0000 0.0000 0.0000
# 2 11.5752 155.9540 91.0380 0.0000 0.0000 0.0000
# 3 27.1683 91.0380 133.9156 0.0000 0.0000 0.0000
# 4 0.0000 0.0000 0.0000 41.2137 0.0000 0.0000
# 5 0.0000 0.0000 0.0000 0.0000 20.0290 0.0000
# 6 0.0000 0.0000 0.0000 0.0000 0.0000 11.0637
#
#
#
# Elastic Compliance Matrix: (Units=1/GPa)
#
#
# Indices 1 2 3 4 5 6 
#
# 1 0.024585 0.001802 -0.006213 0.000000 0.000000 0.000000
# 2 0.001802 0.010763 -0.007682 0.000000 0.000000 0.000000
# 3 -0.006213 -0.007682 0.013950 0.000000 0.000000 0.000000
# 4 0.000000 0.000000 0.000000 0.024264 0.000000 0.000000
# 5 0.000000 0.000000 0.000000 0.000000 0.049928 0.000000
# 6 0.000000 0.000000 0.000000 0.000000 0.000000 0.090386
#
#
# Mechanical properties :
#
#
# Convention : Reuss Voigt Hill
#
# Bulk Modulus (GPa) = 39.82131 66.23605 53.02868
# Shear Modulus (GPa) = 20.28948 28.24661 24.26804
#
# Velocity S-wave (km/s) = 3.08802 3.64358 3.37725
# Velocity P-wave (km/s) = 5.60627 6.98794 6.33489
#
# Compressibility (1/GPa) = 0.02511218
#
# Stress axis : x y z
#
# Youngs Moduli (GPa) = 40.67484 92.91071 71.68223
#
# Poissons Ratio (x) = -0.16742 0.44534
# Poissons Ratio (y) = -0.07329 0.55069
# Poissons Ratio (z) = 0.25270 0.71378
#
# Static dielectric constant tensor:
#      x y z
#    x 1.846470 0.000000 0.000000 
#    y 0.000000 1.840610 0.000000 
#    z 0.000000 0.000000 1.838360 
# 
# From -- ./inp_files/11121.got.cif
#   From: 2010.05.17/outbox.cif.g08.bks.cpg/sg22_6_cif.got.tgz:11121.got - 2010.06.03 23:40:54.
