data_PCOD9329117
_publ_section_title
;
Structure prediction by ZEFSAII (Michael W. Deem and Ramdas Pophale) SiO2 
 PCOD9329117
Probable space group: F 2 2 2
;
_chemical_formula_sum "Si O2"
_cell_formula_units_Z 96
_cell_length_a 22.341960
_cell_length_b 10.368811
_cell_length_c 15.351142
_cell_angle_alpha 90.000000
_cell_angle_beta 90.000000
_cell_angle_gamma 90.000000
_cell_volume 3556.238811
_symmetry_space_group_name_H-M "F 2 2 2"
_symmetry_group_IT_number 22
_symmetry_cell_setting 'orthorhombic'
loop_
_space_group_symop_operation_xyz
x,y,z
-x,-y,z
x,-y,-z
-x,y,-z
x,1/2+y,1/2+z
-x,1/2-y,1/2+z
x,1/2-y,1/2-z
-x,1/2+y,1/2-z
1/2+x,y,1/2+z
1/2-x,-y,1/2+z
1/2+x,-y,1/2-z
1/2-x,y,1/2-z
1/2+x,1/2+y,z
1/2-x,1/2-y,z
1/2+x,1/2-y,-z
1/2-x,1/2+y,-z
loop_
_atom_site_type_symbol
_atom_site_label
_atom_site_fract_x
_atom_site_fract_y
_atom_site_fract_z
Si Si1 0.181129 0.712888 0.345224
Si Si2 0.275185 0.561311 0.845849
Si Si3 0.404966 0.856705 0.032109
Si Si4 0.988633 0.166537 0.101415
Si Si5 0.846544 0.826450 0.362689
Si Si6 0.061771 0.962479 0.767831
O O1 0.155909 0.750000 0.250000
O O2 0.250000 0.750000 0.343386
O O3 0.185527 0.561783 0.372358
O O4 0.149347 0.810471 0.409318
O O5 0.250000 0.529089 0.750000
O O6 0.212983 0.594091 0.894983
O O7 0.314784 0.690986 0.836566
O O8 0.461145 0.805252 0.085164
O O9 0.389577 0.788848 0.941580
O O10 0.410059 0.000000 0.000000
O O11 0.042186 0.155792 0.170104
O O12 0.940087 0.077100 0.156233
O O13 0.000000 0.126187 0.000000
O O14 0.884930 0.581863 0.204238
O O15 0.000000 0.000000 0.718403
#
# Coordination Sequence:
#
# PCOD9329117 Si02
#       6
#    16  16  16  16  16  16
#     4  11  25  51  81 109 165 224 277 340 425 543
#     4  11  25  46  77 126 164 216 279 341 437 524
#     4  12  29  49  79 117 170 219 286 358 442 507
#     4   9  22  49  78 122 161 225 296 349 425 517
#     4  11  25  49  78 128 173 212 283 363 420 526
#     4   8  21  48  85 118 165 227 290 342 430 513
#
# _framework density 26.994810999999999
#
# number of rings (size 3 to 8) (size 9 to 14) (size 15 to 20)
#    1.000    0.500    1.667    3.000    4.667    3.667 
#   12.000    1.667    0.000    0.000    0.000    0.000 
#    0.000    0.000    0.000    0.000    0.000    0.000 
#
# Total GULP energy -133855.090788 kJ/mol
# GULP energy per Si atom -5577.295450 kJ/mol
# Density = 2.693337 g / cm^3
# Si number density = 26.994811 Si / 1000 Ang^3
#
#
#
# Elastic Constant Matrix: (Units=GPa)
#
#
# Indices 1 2 3 4 5 6 
#
# 1 123.3436 66.4223 57.6379 0.0000 0.0000 0.0000
# 2 66.4223 212.8656 65.7611 0.0000 0.0000 0.0000
# 3 57.6379 65.7611 139.6831 0.0000 0.0000 0.0000
# 4 0.0000 0.0000 0.0000 42.6493 0.0000 0.0000
# 5 0.0000 0.0000 0.0000 0.0000 34.1472 0.0000
# 6 0.0000 0.0000 0.0000 0.0000 0.0000 40.7939
#
#
#
# Elastic Compliance Matrix: (Units=1/GPa)
#
#
# Indices 1 2 3 4 5 6 
#
# 1 0.010980 -0.002371 -0.003414 0.000000 0.000000 0.000000
# 2 -0.002371 0.006010 -0.001851 0.000000 0.000000 0.000000
# 3 -0.003414 -0.001851 0.009439 0.000000 0.000000 0.000000
# 4 0.000000 0.000000 0.000000 0.023447 0.000000 0.000000
# 5 0.000000 0.000000 0.000000 0.000000 0.029285 0.000000
# 6 0.000000 0.000000 0.000000 0.000000 0.000000 0.024513
#
#
# Mechanical properties :
#
#
# Convention : Reuss Voigt Hill
#
# Bulk Modulus (GPa) = 89.63835 95.05942 92.34889
# Shear Modulus (GPa) = 40.76129 42.58948 41.67538
#
# Velocity S-wave (km/s) = 3.89005 3.97633 3.93342
# Velocity P-wave (km/s) = 7.31126 7.50813 7.41034
#
# Compressibility (1/GPa) = 0.01115594
#
# Stress axis : x y z
#
# Youngs Moduli (GPa) = 91.07530 166.40311 105.94135
#
# Poissons Ratio (x) = 0.39461 0.36171
# Poissons Ratio (y) = 0.21597 0.19606
# Poissons Ratio (z) = 0.31095 0.30796
#
# Static dielectric constant tensor:
#      x y z
#    x 2.061540 0.000000 0.000000 
#    y 0.000000 2.617370 0.000000 
#    z 0.000000 0.000000 2.148300 
# 
# From -- ./inp_files/39972.got.cif
#   From: 2010.05.17/outbox.cif.g08.bks.cpg/sg22_20_cif.got.tgz:39972.got - 2010.06.03 23:40:54.
