data_PCOD9329811
_publ_section_title
;
Structure prediction by ZEFSAII (Michael W. Deem and Ramdas Pophale) SiO2 
 PCOD9329811
Probable space group: I 2 2 2
;
_chemical_formula_sum "Si O2"
_cell_formula_units_Z 48
_cell_length_a 16.735228
_cell_length_b 9.838414
_cell_length_c 16.865044
_cell_angle_alpha 90.000000
_cell_angle_beta 90.000000
_cell_angle_gamma 90.000000
_cell_volume 2776.797475
_symmetry_space_group_name_H-M "I 2 2 2"
_symmetry_group_IT_number 23
_symmetry_cell_setting 'orthorhombic'
loop_
_space_group_symop_operation_xyz
x,y,z
-x,-y,z
x,-y,-z
-x,y,-z
1/2+x,1/2+y,1/2+z
1/2-x,1/2-y,1/2+z
1/2+x,1/2-y,1/2-z
1/2-x,1/2+y,1/2-z
loop_
_atom_site_type_symbol
_atom_site_label
_atom_site_fract_x
_atom_site_fract_y
_atom_site_fract_z
Si Si1 0.084525 0.691943 0.638695
Si Si2 0.801572 0.580853 0.926597
Si Si3 0.380410 0.506361 0.093005
Si Si4 0.281011 0.852417 0.013142
Si Si5 0.596075 0.208998 0.871137
Si Si6 0.406826 0.012150 0.274841
O O1 0.150562 0.632665 0.579786
O O2 0.103944 0.627651 0.724370
O O3 0.994465 0.660569 0.609072
O O4 0.092620 0.854059 0.632659
O O5 0.715412 0.513130 0.909281
O O6 0.778004 0.733351 0.956278
O O7 0.854699 0.553225 0.850009
O O8 0.838672 0.500000 0.000000
O O9 0.408190 0.371517 0.136620
O O10 0.406143 0.500000 0.000000
O O11 0.334015 0.187341 0.064149
O O12 0.242576 0.000000 0.000000
O O13 0.611034 0.128630 0.790402
O O14 0.500000 0.000000 0.297278
#
# Coordination Sequence:
#
# PCOD9329811 Si02
#       6
#     8   8   8   8   8   8
#     4  10  20  31  53  84 121 155 191 228 292 357
#     4  10  21  41  57  77 113 149 205 240 287 359
#     4  10  19  32  51  85 116 156 189 228 293 354
#     4  11  20  34  54  87 115 151 185 233 307 352
#     4  11  19  33  52  84 119 151 189 238 285 362
#     4  10  23  38  56  83 111 151 201 245 293 342
#
# _framework density 17.286100999999999
#
# number of rings (size 3 to 8) (size 9 to 14) (size 15 to 20)
#    0.000    1.667    6.667    1.000    0.000    4.333 
#    0.000    0.000    0.000    0.000    0.000    1.167 
#    0.000    0.000    0.000    0.000    0.000    0.000 
#
# Total GULP energy -133643.784600 kJ/mol
# GULP energy per Si atom -5568.491025 kJ/mol
# Density = 1.724676 g / cm^3
# Si number density = 17.286101 Si / 1000 Ang^3
#
#
#
# Elastic Constant Matrix: (Units=GPa)
#
#
# Indices 1 2 3 4 5 6 
#
# 1 62.2430 34.5073 66.2788 0.0000 0.0000 0.0000
# 2 34.5073 153.1165 64.6128 0.0000 0.0000 0.0000
# 3 66.2788 64.6128 129.8700 0.0000 0.0000 0.0000
# 4 0.0000 0.0000 0.0000 21.9306 0.0000 0.0000
# 5 0.0000 0.0000 0.0000 0.0000 36.6494 0.0000
# 6 0.0000 0.0000 0.0000 0.0000 0.0000 6.6385
#
#
#
# Elastic Compliance Matrix: (Units=1/GPa)
#
#
# Indices 1 2 3 4 5 6 
#
# 1 0.035213 -0.000446 -0.017749 0.000000 0.000000 0.000000
# 2 -0.000446 0.008272 -0.003888 0.000000 0.000000 0.000000
# 3 -0.017749 -0.003888 0.018693 0.000000 0.000000 0.000000
# 4 0.000000 0.000000 0.000000 0.045598 0.000000 0.000000
# 5 0.000000 0.000000 0.000000 0.000000 0.027286 0.000000
# 6 0.000000 0.000000 0.000000 0.000000 0.000000 0.150637
#
#
# Mechanical properties :
#
#
# Convention : Reuss Voigt Hill
#
# Bulk Modulus (GPa) = 55.51900 75.11413 65.31657
# Shear Modulus (GPa) = 14.88675 25.03239 19.95957
#
# Velocity S-wave (km/s) = 2.93780 3.80955 3.40172
# Velocity P-wave (km/s) = 6.61022 7.93083 7.30045
#
# Compressibility (1/GPa) = 0.01801185
#
# Stress axis : x y z
#
# Youngs Moduli (GPa) = 28.39838 120.88774 53.49739
#
# Poissons Ratio (x) = 0.05392 0.94953
# Poissons Ratio (y) = 0.01267 0.20799
# Poissons Ratio (z) = 0.50404 0.47000
#
# Static dielectric constant tensor:
#      x y z
#    x 1.593520 0.000000 0.000000 
#    y 0.000000 1.646100 0.000000 
#    z 0.000000 0.000000 1.596440 
# 
# From -- ./inp_files/22009.got.cif
#   From: 2010.05.17/outbox.cif.g08.bks.cpg/sg23_12_cif.got.tgz:22009.got - 2010.06.04 12:02:01.
