data_PCOD9329428
_publ_section_title
;
Structure prediction by ZEFSAII (Michael W. Deem and Ramdas Pophale) SiO2 
 PCOD9329428
Probable space group: I 2 2 2
;
_chemical_formula_sum "Si O2"
_cell_formula_units_Z 64
_cell_length_a 18.641521
_cell_length_b 7.587147
_cell_length_c 19.797595
_cell_angle_alpha 90.000000
_cell_angle_beta 90.000000
_cell_angle_gamma 90.000000
_cell_volume 2800.091857
_symmetry_space_group_name_H-M "I 2 2 2"
_symmetry_group_IT_number 23
_symmetry_cell_setting 'orthorhombic'
loop_
_space_group_symop_operation_xyz
x,y,z
-x,-y,z
x,-y,-z
-x,y,-z
1/2+x,1/2+y,1/2+z
1/2-x,1/2-y,1/2+z
1/2+x,1/2-y,1/2-z
1/2-x,1/2+y,1/2-z
loop_
_atom_site_type_symbol
_atom_site_label
_atom_site_fract_x
_atom_site_fract_y
_atom_site_fract_z
Si Si1 0.269888 0.717033 0.994574
Si Si2 0.570145 0.701475 0.032967
Si Si3 0.761644 0.681584 0.859626
Si Si4 0.012229 0.788561 0.318076
Si Si5 0.335858 0.816553 0.377687
Si Si6 0.898057 0.812187 0.803012
Si Si7 0.867217 0.175967 0.738001
Si Si8 0.994758 0.787929 0.076955
O O1 0.252185 0.780124 0.070008
O O2 0.270251 0.500000 0.000000
O O3 0.350737 0.772136 0.978792
O O4 0.214151 0.770300 0.935850
O O5 0.551427 0.726351 0.111071
O O6 0.572492 0.500000 0.000000
O O7 0.500000 0.785475 0.000000
O O8 0.810642 0.516765 0.879768
O O9 0.813686 0.788746 0.811093
O O10 0.689182 0.626146 0.820813
O O11 0.064620 0.719445 0.260006
O O12 0.932129 0.722731 0.299901
O O13 0.000000 0.000000 0.317349
O O14 0.325917 0.770754 0.298821
O O15 0.418577 0.779725 0.395483
O O16 0.941541 0.753122 0.869523
O O17 0.903575 0.017019 0.781225
O O18 0.000000 0.000000 0.073046
O O19 0.000000 0.720460 0.000000
#
# Coordination Sequence:
#
# PCOD9329428 Si02
#       8
#     8   8   8   8   8   8   8   8
#     4   9  21  35  54  85 123 158 201 255 312 368
#     4  10  17  29  54  88 118 152 196 249 313 353
#     4  11  24  38  60  87 127 160 200 255 319 366
#     4  10  19  32  57  84 117 150 196 251 293 366
#     4  11  22  41  59  89 122 163 204 257 306 371
#     4  11  22  39  58  91 117 162 203 254 304 366
#     4  11  22  39  61  87 124 163 203 248 310 373
#     4  11  21  40  65  88 118 161 209 254 303 366
#
# _framework density 22.856392
#
# number of rings (size 3 to 8) (size 9 to 14) (size 15 to 20)
#    0.000    1.500    3.750    2.625   10.500    0.500 
#    0.000    0.625    0.000    0.000    0.000    0.000 
#    0.000    0.000    0.000    0.000    0.000    0.000 
#
# Total GULP energy -178302.743387 kJ/mol
# GULP energy per Si atom -5571.960731 kJ/mol
# Density = 2.280437 g / cm^3
# Si number density = 22.856392 Si / 1000 Ang^3
#
#
#
# Elastic Constant Matrix: (Units=GPa)
#
#
# Indices 1 2 3 4 5 6 
#
# 1 151.8683 8.1854 77.5153 0.0000 0.0000 0.0000
# 2 8.1854 21.9428 17.5991 0.0000 0.0000 0.0000
# 3 77.5153 17.5991 164.5171 0.0000 0.0000 0.0000
# 4 0.0000 0.0000 0.0000 -28.4896 0.0000 0.0000
# 5 0.0000 0.0000 0.0000 0.0000 53.8672 0.0000
# 6 0.0000 0.0000 0.0000 0.0000 0.0000 44.3531
#
#
#
# Elastic Compliance Matrix: (Units=1/GPa)
#
#
# Indices 1 2 3 4 5 6 
#
# 1 0.008670 0.000046 -0.004090 0.000000 0.000000 0.000000
# 2 0.000046 0.049850 -0.005354 0.000000 0.000000 0.000000
# 3 -0.004090 -0.005354 0.008578 0.000000 0.000000 0.000000
# 4 0.000000 0.000000 0.000000 -0.035100 0.000000 0.000000
# 5 0.000000 0.000000 0.000000 0.000000 0.018564 0.000000
# 6 0.000000 0.000000 0.000000 0.000000 0.000000 0.022546
#
#
# Mechanical properties :
#
#
# Convention : Reuss Voigt Hill
#
# Bulk Modulus (GPa) = 20.70309 60.54752 40.62531
# Shear Modulus (GPa) = 46.29414 29.61471 37.95442
#
# Velocity S-wave (km/s) = 4.50537 3.60347 4.07942
# Velocity P-wave (km/s) = 6.01182 6.62278 6.32468
#
# Compressibility (1/GPa) = 0.04830196
#
# Stress axis : x y z
#
# Youngs Moduli (GPa) = 115.34494 20.06003 116.57492
#
# Poissons Ratio (x) = -0.00093 0.47677
# Poissons Ratio (y) = -0.00532 0.62420
# Poissons Ratio (z) = 0.47174 0.10741
#
# Static dielectric constant tensor:
#      x y z
#    x 1.892290 0.000000 0.000000 
#    y 0.000000 1.977510 0.000000 
#    z 0.000000 0.000000 2.045690 
# 
# From -- ./inp_files/27191.got.cif
#   From: 2010.05.17/outbox.cif.g08.bks.cpg/sg23_14_cif.got.tgz:27191.got - 2010.06.04 12:02:01.
