data_PCOD9329512
_publ_section_title
;
Structure prediction by ZEFSAII (Michael W. Deem and Ramdas Pophale) SiO2 
 PCOD9329512
Probable space group: I 2 2 2
;
_chemical_formula_sum "Si O2"
_cell_formula_units_Z 58
_cell_length_a 7.113925
_cell_length_b 13.352790
_cell_length_c 29.492772
_cell_angle_alpha 90.000000
_cell_angle_beta 90.000000
_cell_angle_gamma 90.000000
_cell_volume 2801.540432
_symmetry_space_group_name_H-M "I 2 2 2"
_symmetry_group_IT_number 23
_symmetry_cell_setting 'orthorhombic'
loop_
_space_group_symop_operation_xyz
x,y,z
-x,-y,z
x,-y,-z
-x,y,-z
1/2+x,1/2+y,1/2+z
1/2-x,1/2-y,1/2+z
1/2+x,1/2-y,1/2-z
1/2-x,1/2+y,1/2-z
loop_
_atom_site_type_symbol
_atom_site_label
_atom_site_fract_x
_atom_site_fract_y
_atom_site_fract_z
Si Si1 0.772267 0.996062 0.922891
Si Si2 0.282040 0.874769 0.675024
Si Si3 0.743144 0.608276 0.267174
Si Si4 0.500000 0.000000 0.000000
Si Si5 0.322999 0.680731 0.639595
Si Si6 0.809895 0.624091 0.723295
Si Si7 0.238643 0.604754 0.834154
Si Si8 0.763246 0.798547 0.122237
O O1 0.737546 0.918923 0.881604
O O2 0.652397 0.954102 0.964903
O O3 0.701311 0.108266 0.909366
O O4 0.000000 0.000000 0.930422
O O5 0.213484 0.784973 0.642954
O O6 0.240928 0.841719 0.726926
O O7 0.510593 0.883737 0.670607
O O8 0.216649 0.986535 0.662467
O O9 0.630582 0.656475 0.308060
O O10 0.736730 0.489617 0.274560
O O11 0.686683 0.634423 0.216015
O O12 0.964245 0.629775 0.273390
O O13 0.513493 0.702453 0.613112
O O14 0.763595 0.666454 0.674227
O O15 0.296504 0.681896 0.873674
#
# Coordination Sequence:
#
# PCOD9329512 Si02
#       8
#     8   8   8   2   8   8   8   8
#     4  10  23  39  59  90 109 131 176 225 281 354
#     4   8  15  27  42  66 100 144 185 218 253 295
#     4   9  16  25  41  64  98 141 187 220 246 304
#     4  12  26  44  68  82 110 144 162 228 320 340
#     4  10  18  29  47  71 102 133 172 225 267 314
#     4   9  16  25  41  64  98 141 187 220 246 304
#     4   8  15  27  42  66 100 144 185 218 253 295
#     4  10  18  29  47  71 102 133 172 225 267 314
#
# _framework density 20.702898000000001
#
# number of rings (size 3 to 8) (size 9 to 14) (size 15 to 20)
#    0.000    2.759    1.379    2.690    1.931    0.000 
#    0.000    0.000    0.000    0.828    0.000    1.931 
#    0.000    6.621    0.000    0.000    0.000    0.000 
#
# Total GULP energy -161456.943717 kJ/mol
# GULP energy per Si atom -5567.480818 kJ/mol
# Density = 2.065578 g / cm^3
# Si number density = 20.702898 Si / 1000 Ang^3
#
#
#
# Elastic Constant Matrix: (Units=GPa)
#
#
# Indices 1 2 3 4 5 6 
#
# 1 71.9482 -2.4509 4.0148 0.0000 0.0000 0.0000
# 2 -2.4509 80.6284 36.6099 0.0000 0.0000 0.0000
# 3 4.0148 36.6099 48.0974 0.0000 0.0000 0.0000
# 4 0.0000 0.0000 0.0000 -0.9509 0.0000 0.0000
# 5 0.0000 0.0000 0.0000 0.0000 12.2475 0.0000
# 6 0.0000 0.0000 0.0000 0.0000 0.0000 0.3767
#
#
#
# Elastic Compliance Matrix: (Units=1/GPa)
#
#
# Indices 1 2 3 4 5 6 
#
# 1 0.014077 0.001469 -0.002293 0.000000 0.000000 0.000000
# 2 0.001469 0.019106 -0.014666 0.000000 0.000000 0.000000
# 3 -0.002293 -0.014666 0.032145 0.000000 0.000000 0.000000
# 4 0.000000 0.000000 0.000000 -1.051690 0.000000 0.000000
# 5 0.000000 0.000000 0.000000 0.000000 0.081649 0.000000
# 6 0.000000 0.000000 0.000000 0.000000 0.000000 2.654733
#
#
# Mechanical properties :
#
#
# Convention : Reuss Voigt Hill
#
# Bulk Modulus (GPa) = 29.11278 30.78018 29.94648
# Shear Modulus (GPa) = 2.78948 13.16802 7.97875
#
# Velocity S-wave (km/s) = 1.16203 2.52473 1.96527
# Velocity P-wave (km/s) = 3.98662 4.83724 4.43238
#
# Compressibility (1/GPa) = 0.03434917
#
# Stress axis : x y z
#
# Youngs Moduli (GPa) = 71.03829 52.33886 31.10861
#
# Poissons Ratio (x) = -0.07690 0.07134
# Poissons Ratio (y) = -0.10437 0.45623
# Poissons Ratio (z) = 0.16292 0.76758
#
# Static dielectric constant tensor:
#      x y z
#    x 1.809070 0.000000 0.000000 
#    y 0.000000 1.856620 0.000000 
#    z 0.000000 0.000000 1.686270 
# 
# From -- ./inp_files/29313.got.cif
#   From: 2010.05.17/outbox.cif.g08.bks.cpg/sg23_15_cif.got.tgz:29313.got - 2010.06.04 12:02:01.
