data_PCOD9329990
_publ_section_title
;
Structure prediction by ZEFSAII (Michael W. Deem and Ramdas Pophale) SiO2 
 PCOD9329990
Probable space group: I 2 2 2
;
_chemical_formula_sum "Si O2"
_cell_formula_units_Z 38
_cell_length_a 17.830494
_cell_length_b 11.066253
_cell_length_c 9.612290
_cell_angle_alpha 90.000000
_cell_angle_beta 90.000000
_cell_angle_gamma 90.000000
_cell_volume 1896.665897
_symmetry_space_group_name_H-M "I 2 2 2"
_symmetry_group_IT_number 23
_symmetry_cell_setting 'orthorhombic'
loop_
_space_group_symop_operation_xyz
x,y,z
-x,-y,z
x,-y,-z
-x,y,-z
1/2+x,1/2+y,1/2+z
1/2-x,1/2-y,1/2+z
1/2+x,1/2-y,1/2-z
1/2-x,1/2+y,1/2-z
loop_
_atom_site_type_symbol
_atom_site_label
_atom_site_fract_x
_atom_site_fract_y
_atom_site_fract_z
Si Si1 0.120582 0.330541 0.361054
Si Si2 0.373396 0.619498 0.917624
Si Si3 0.500000 0.000000 0.000000
Si Si4 0.500000 0.500000 0.729712
Si Si5 0.868100 0.850844 0.115661
Si Si6 0.711941 0.596950 0.339406
O O1 0.111666 0.221861 0.470942
O O2 0.125602 0.268276 0.208964
O O3 0.202183 0.389716 0.379662
O O4 0.053947 0.421140 0.399792
O O5 0.446498 0.580563 0.828823
O O6 0.309656 0.655430 0.807611
O O7 0.349334 0.500000 0.000000
O O8 0.447681 0.415612 0.637343
O O9 0.659285 0.657933 0.457318
O O10 0.811208 0.955481 0.172204
#
# Coordination Sequence:
#
# PCOD9329990 Si02
#       6
#     8   8   2   4   8   8
#     4  12  23  42  64  94 135 167 221 266 331 390
#     4  11  21  38  68  96 124 171 219 274 321 380
#     4  12  28  40  66  98 132 182 216 276 332 392
#     4  10  19  35  62  94 122 162 228 254 316 386
#     4  10  21  38  62  90 132 169 208 272 320 376
#     4  10  22  38  63  97 124 169 219 262 324 387
#
# _framework density 20.035157999999999
#
# number of rings (size 3 to 8) (size 9 to 14) (size 15 to 20)
#    0.000    1.263    4.211    4.105    0.000    6.737 
#    0.000    0.000    0.000    1.263    0.000    0.000 
#    0.000    0.000    0.000    0.000    0.000    0.000 
#
# Total GULP energy -106101.102754 kJ/mol
# GULP energy per Si atom -5584.268566 kJ/mol
# Density = 1.998956 g / cm^3
# Si number density = 20.035158 Si / 1000 Ang^3
#
#
#
# Elastic Constant Matrix: (Units=GPa)
#
#
# Indices 1 2 3 4 5 6 
#
# 1 137.6604 40.6504 52.9591 0.0000 0.0000 0.0000
# 2 40.6504 84.0842 44.8039 0.0000 0.0000 0.0000
# 3 52.9591 44.8039 118.0031 0.0000 0.0000 0.0000
# 4 0.0000 0.0000 0.0000 26.2755 0.0000 0.0000
# 5 0.0000 0.0000 0.0000 0.0000 29.7313 0.0000
# 6 0.0000 0.0000 0.0000 0.0000 0.0000 14.6028
#
#
#
# Elastic Compliance Matrix: (Units=1/GPa)
#
#
# Indices 1 2 3 4 5 6 
#
# 1 0.009294 -0.002846 -0.003090 0.000000 0.000000 0.000000
# 2 -0.002846 0.015781 -0.004714 0.000000 0.000000 0.000000
# 3 -0.003090 -0.004714 0.011651 0.000000 0.000000 0.000000
# 4 0.000000 0.000000 0.000000 0.038058 0.000000 0.000000
# 5 0.000000 0.000000 0.000000 0.000000 0.033635 0.000000
# 6 0.000000 0.000000 0.000000 0.000000 0.000000 0.068480
#
#
# Mechanical properties :
#
#
# Convention : Reuss Voigt Hill
#
# Bulk Modulus (GPa) = 64.83446 68.50829 66.67137
# Shear Modulus (GPa) = 24.58917 27.54421 26.06669
#
# Velocity S-wave (km/s) = 3.50709 3.71184 3.61092
# Velocity P-wave (km/s) = 6.98786 7.25525 7.12281
#
# Compressibility (1/GPa) = 0.01542390
#
# Stress axis : x y z
#
# Youngs Moduli (GPa) = 107.60101 63.36759 85.82835
#
# Poissons Ratio (x) = 0.18037 0.26523
# Poissons Ratio (y) = 0.30627 0.40462
# Poissons Ratio (z) = 0.33251 0.29874
#
# Static dielectric constant tensor:
#      x y z
#    x 1.724810 0.000000 0.000000 
#    y 0.000000 1.717080 0.000000 
#    z 0.000000 0.000000 1.761560 
# 
# From -- ./inp_files/16589.got.cif
#   From: 2010.05.17/outbox.cif.g08.bks.cpg/sg23_9_cif.got.tgz:16589.got - 2010.06.04 12:02:01.
