data_PCOD9329569
_publ_section_title
;
Structure prediction by ZEFSAII (Michael W. Deem and Ramdas Pophale) SiO2 
 PCOD9329569
Probable space group: I 2 2 2
;
_chemical_formula_sum "Si O2"
_cell_formula_units_Z 38
_cell_length_a 25.229683
_cell_length_b 7.040290
_cell_length_c 9.697336
_cell_angle_alpha 90.000000
_cell_angle_beta 90.000000
_cell_angle_gamma 90.000000
_cell_volume 1722.482373
_symmetry_space_group_name_H-M "I 2 2 2"
_symmetry_group_IT_number 23
_symmetry_cell_setting 'orthorhombic'
loop_
_space_group_symop_operation_xyz
x,y,z
-x,-y,z
x,-y,-z
-x,y,-z
1/2+x,1/2+y,1/2+z
1/2-x,1/2-y,1/2+z
1/2+x,1/2-y,1/2-z
1/2-x,1/2+y,1/2-z
loop_
_atom_site_type_symbol
_atom_site_label
_atom_site_fract_x
_atom_site_fract_y
_atom_site_fract_z
Si Si1 0.000000 0.000000 0.000000
Si Si2 0.219161 0.000000 0.500000
Si Si3 0.815095 0.226544 0.982482
Si Si4 0.911767 0.182360 0.174797
Si Si5 0.639447 0.320601 0.205601
Si Si6 0.060810 0.230458 0.520785
O O1 0.035441 0.145596 0.910992
O O2 0.258990 0.823573 0.507107
O O3 0.179928 0.962292 0.627228
O O4 0.863766 0.271038 0.086445
O O5 0.830373 0.287397 0.826583
O O6 0.808457 0.000000 0.000000
O O7 0.921775 0.274012 0.323543
O O8 0.897308 0.962913 0.208449
O O9 0.604178 0.209839 0.093590
O O10 0.000000 0.290178 0.500000
O O11 0.060935 0.000000 0.500000
#
# Coordination Sequence:
#
# PCOD9329569 Si02
#       6
#     2   4   8   8   8   8
#     4  12  16  28  58  82 120 152 184 256 294 346
#     4  12  24  38  65  79 130 162 192 254 294 332
#     4  10  24  40  57  88 118 156 206 239 291 357
#     4  10  18  32  52  86 116 146 197 241 291 353
#     4  10  19  36  53  87 117 151 203 240 291 362
#     4   9  16  28  53  85 117 147 190 247 298 347
#
# _framework density 22.061184000000001
#
# number of rings (size 3 to 8) (size 9 to 14) (size 15 to 20)
#    0.000    1.895    6.316    2.526    5.895    0.000 
#    0.000    0.000    0.000    0.632    0.000    1.474 
#    0.000    2.526    0.000    0.000    0.000    0.000 
#
# Total GULP energy -105946.150147 kJ/mol
# GULP energy per Si atom -5576.113166 kJ/mol
# Density = 2.201097 g / cm^3
# Si number density = 22.061184 Si / 1000 Ang^3
#
#
#
# Elastic Constant Matrix: (Units=GPa)
#
#
# Indices 1 2 3 4 5 6 
#
# 1 137.8069 21.0553 60.8324 0.0000 0.0000 0.0000
# 2 21.0553 62.9415 13.2365 0.0000 0.0000 0.0000
# 3 60.8324 13.2365 135.8913 0.0000 0.0000 0.0000
# 4 0.0000 0.0000 0.0000 -0.3746 0.0000 0.0000
# 5 0.0000 0.0000 0.0000 0.0000 55.0955 0.0000
# 6 0.0000 0.0000 0.0000 0.0000 0.0000 -194.9416
#
#
#
# Elastic Compliance Matrix: (Units=1/GPa)
#
#
# Indices 1 2 3 4 5 6 
#
# 1 0.009358 -0.002296 -0.003965 0.000000 0.000000 0.000000
# 2 -0.002296 0.016784 -0.000607 0.000000 0.000000 0.000000
# 3 -0.003965 -0.000607 0.009193 0.000000 0.000000 0.000000
# 4 0.000000 0.000000 0.000000 -2.669570 0.000000 0.000000
# 5 0.000000 0.000000 0.000000 0.000000 0.018150 0.000000
# 6 0.000000 0.000000 0.000000 0.000000 0.000000 -0.005130
#
#
# Mechanical properties :
#
#
# Convention : Reuss Voigt Hill
#
# Bulk Modulus (GPa) = 46.30233 58.54313 52.42273
# Shear Modulus (GPa) = -1.92287 -11.94311 -6.93299
#
# Velocity S-wave (km/s) = -0.93461 -2.32924 -1.77467
# Velocity P-wave (km/s) = 4.45747 4.40005 4.42886
#
# Compressibility (1/GPa) = 0.02159718
#
# Stress axis : x y z
#
# Youngs Moduli (GPa) = 106.86199 59.58196 108.77781
#
# Poissons Ratio (x) = 0.13683 0.43135
# Poissons Ratio (y) = 0.24541 0.06600
# Poissons Ratio (z) = 0.42375 0.03615
#
# Static dielectric constant tensor:
#      x y z
#    x 1.814550 0.000000 0.000000 
#    y 0.000000 1.551520 0.000000 
#    z 0.000000 0.000000 1.858270 
# 
# From -- ./inp_files/6956.got.cif
#   From: 2010.05.17/outbox.cif.g08.bks.cpg/sg23_4_cif.got.tgz:6956.got - 2010.06.04 12:02:01.
