data_PCOD9329437
_publ_section_title
;
Structure prediction by ZEFSAII (Michael W. Deem and Ramdas Pophale) SiO2 
 PCOD9329437
Probable space group: I 2 2 2
;
_chemical_formula_sum "Si O2"
_cell_formula_units_Z 44
_cell_length_a 11.478370
_cell_length_b 11.391927
_cell_length_c 16.827910
_cell_angle_alpha 90.000000
_cell_angle_beta 90.000000
_cell_angle_gamma 90.000000
_cell_volume 2200.430185
_symmetry_space_group_name_H-M "I 2 2 2"
_symmetry_group_IT_number 23
_symmetry_cell_setting 'orthorhombic'
loop_
_space_group_symop_operation_xyz
x,y,z
-x,-y,z
x,-y,-z
-x,y,-z
1/2+x,1/2+y,1/2+z
1/2-x,1/2-y,1/2+z
1/2+x,1/2-y,1/2-z
1/2-x,1/2+y,1/2-z
loop_
_atom_site_type_symbol
_atom_site_label
_atom_site_fract_x
_atom_site_fract_y
_atom_site_fract_z
Si Si1 0.729458 0.500000 0.500000
Si Si2 0.691988 0.667221 0.869240
Si Si3 0.391306 0.922280 0.733425
Si Si4 0.561625 0.670431 0.196784
Si Si5 0.217626 0.072388 0.831503
Si Si6 0.632814 0.757739 0.029458
O O1 0.666910 0.533745 0.417123
O O2 0.804658 0.616134 0.521954
O O3 0.797397 0.592514 0.835717
O O4 0.567181 0.634850 0.831747
O O5 0.720697 0.801322 0.843054
O O6 0.685485 0.670734 0.963839
O O7 0.440699 0.797125 0.760474
O O8 0.500000 0.000000 0.710288
O O9 0.318133 0.982534 0.804457
O O10 0.624971 0.588322 0.260876
O O11 0.632631 0.698169 0.115761
O O12 0.500000 0.776658 0.000000
#
# Coordination Sequence:
#
# PCOD9329437 Si02
#       6
#     4   8   8   8   8   8
#     4  10  17  30  52  91 120 152 205 249 310 362
#     4   9  20  34  55  89 118 154 199 254 302 356
#     4  11  20  35  57  85 119 161 199 238 307 373
#     4  10  19  35  57  89 123 152 200 257 306 359
#     4  10  20  32  56  88 117 161 195 251 303 365
#     4   9  17  30  56  88 119 148 195 262 308 345
#
# _framework density 19.996089999999999
#
# number of rings (size 3 to 8) (size 9 to 14) (size 15 to 20)
#    0.000    2.182    3.636    0.273    0.000    0.727 
#    0.000    0.909    0.000    7.636    0.000    0.000 
#    0.000    0.000    0.000    0.000    0.000    0.000 
#
# Total GULP energy -122746.743510 kJ/mol
# GULP energy per Si atom -5579.397432 kJ/mol
# Density = 1.995058 g / cm^3
# Si number density = 19.996090 Si / 1000 Ang^3
#
#
#
# Elastic Constant Matrix: (Units=GPa)
#
#
# Indices 1 2 3 4 5 6 
#
# 1 82.8820 29.1977 69.8327 0.0000 0.0000 0.0000
# 2 29.1977 54.0542 44.6501 0.0000 0.0000 0.0000
# 3 69.8327 44.6501 172.7644 0.0000 0.0000 0.0000
# 4 0.0000 0.0000 0.0000 29.9302 0.0000 0.0000
# 5 0.0000 0.0000 0.0000 0.0000 24.7860 0.0000
# 6 0.0000 0.0000 0.0000 0.0000 0.0000 26.7222
#
#
#
# Elastic Compliance Matrix: (Units=1/GPa)
#
#
# Indices 1 2 3 4 5 6 
#
# 1 0.019331 -0.005070 -0.006503 0.000000 0.000000 0.000000
# 2 -0.005070 0.024851 -0.004373 0.000000 0.000000 0.000000
# 3 -0.006503 -0.004373 0.009547 0.000000 0.000000 0.000000
# 4 0.000000 0.000000 0.000000 0.033411 0.000000 0.000000
# 5 0.000000 0.000000 0.000000 0.000000 0.040345 0.000000
# 6 0.000000 0.000000 0.000000 0.000000 0.000000 0.037422
#
#
# Mechanical properties :
#
#
# Convention : Reuss Voigt Hill
#
# Bulk Modulus (GPa) = 45.79599 66.34020 56.06809
# Shear Modulus (GPa) = 24.50030 27.35567 25.92799
#
# Velocity S-wave (km/s) = 3.50416 3.70273 3.60481
# Velocity P-wave (km/s) = 6.27092 7.17836 6.73993
#
# Compressibility (1/GPa) = 0.02183598
#
# Stress axis : x y z
#
# Youngs Moduli (GPa) = 51.73097 40.23998 104.74218
#
# Poissons Ratio (x) = 0.20400 0.68118
# Poissons Ratio (y) = 0.26226 0.45808
# Poissons Ratio (z) = 0.33643 0.17599
#
# Static dielectric constant tensor:
#      x y z
#    x 1.682460 0.000000 0.000000 
#    y 0.000000 1.728990 0.000000 
#    z 0.000000 0.000000 1.733970 
# 
# From -- ./inp_files/20796.got.cif
#   From: 2010.05.17/outbox.cif.g08.bks.cpg/sg23_11_cif.got.tgz:20796.got - 2010.06.04 12:02:01.
