data_PCOD9329591
_publ_section_title
;
Structure prediction by ZEFSAII (Michael W. Deem and Ramdas Pophale) SiO2 
 PCOD9329591
Probable space group: I 2 2 2
;
_chemical_formula_sum "Si O2"
_cell_formula_units_Z 34
_cell_length_a 21.551787
_cell_length_b 6.992243
_cell_length_c 9.383735
_cell_angle_alpha 90.000000
_cell_angle_beta 90.000000
_cell_angle_gamma 90.000000
_cell_volume 1414.085059
_symmetry_space_group_name_H-M "I 2 2 2"
_symmetry_group_IT_number 23
_symmetry_cell_setting 'orthorhombic'
loop_
_space_group_symop_operation_xyz
x,y,z
-x,-y,z
x,-y,-z
-x,y,-z
1/2+x,1/2+y,1/2+z
1/2-x,1/2-y,1/2+z
1/2+x,1/2-y,1/2-z
1/2-x,1/2+y,1/2-z
loop_
_atom_site_type_symbol
_atom_site_label
_atom_site_fract_x
_atom_site_fract_y
_atom_site_fract_z
Si Si1 0.891074 0.675132 0.182532
Si Si2 0.571326 0.233510 0.012107
Si Si3 0.000000 0.500000 0.000000
Si Si4 0.721106 0.231754 0.508510
Si Si5 0.328392 0.210570 0.198210
O O1 0.903931 0.777793 0.330814
O O2 0.842202 0.771735 0.077413
O O3 0.858504 0.475515 0.228240
O O4 0.954420 0.624565 0.099749
O O5 0.500000 0.287898 0.000000
O O6 0.614278 0.307168 0.884283
O O7 0.573551 0.000000 0.000000
O O8 0.710252 0.298111 0.670462
O O9 0.778990 0.319502 0.426663
O O10 0.732107 0.000000 0.500000
#
# Coordination Sequence:
#
# PCOD9329591 Si02
#       5
#     8   8   2   8   8
#     4  10  19  30  50  78 108 146 168 228 274 327
#     4   9  17  28  47  75 105 136 176 216 274 326
#     4  12  16  32  54  80 120 130 180 232 288 324
#     4  10  20  33  50  76 106 141 182 219 267 328
#     4  10  18  33  47  72 108 142 179 214 272 327
#
# _framework density 24.043814999999999
#
# number of rings (size 3 to 8) (size 9 to 14) (size 15 to 20)
#    0.000    2.118    3.529    4.235    0.000    1.882 
#    0.000    0.000    0.000    0.706    0.000    0.000 
#    0.000    0.000    0.000    0.000    0.000    0.000 
#
# Total GULP energy -95055.647411 kJ/mol
# GULP energy per Si atom -5591.508671 kJ/mol
# Density = 2.398909 g / cm^3
# Si number density = 24.043815 Si / 1000 Ang^3
#
#
#
# Elastic Constant Matrix: (Units=GPa)
#
#
# Indices 1 2 3 4 5 6 
#
# 1 167.5242 17.0326 74.6439 0.0000 0.0000 0.0000
# 2 17.0326 94.7343 23.2791 0.0000 0.0000 0.0000
# 3 74.6439 23.2791 186.3392 0.0000 0.0000 0.0000
# 4 0.0000 0.0000 0.0000 -4.9226 0.0000 0.0000
# 5 0.0000 0.0000 0.0000 0.0000 74.3883 0.0000
# 6 0.0000 0.0000 0.0000 0.0000 0.0000 -13.8306
#
#
#
# Elastic Compliance Matrix: (Units=1/GPa)
#
#
# Indices 1 2 3 4 5 6 
#
# 1 0.007301 -0.000613 -0.002848 0.000000 0.000000 0.000000
# 2 -0.000613 0.010942 -0.001121 0.000000 0.000000 0.000000
# 3 -0.002848 -0.001121 0.006647 0.000000 0.000000 0.000000
# 4 0.000000 0.000000 0.000000 -0.203146 0.000000 0.000000
# 5 0.000000 0.000000 0.000000 0.000000 0.013443 0.000000
# 6 0.000000 0.000000 0.000000 0.000000 0.000000 -0.072304
#
#
# Mechanical properties :
#
#
# Convention : Reuss Voigt Hill
#
# Bulk Modulus (GPa) = 63.59162 75.38988 69.49075
# Shear Modulus (GPa) = -22.45060 33.36985 5.45963
#
# Velocity S-wave (km/s) = -3.05903 3.72946 1.50852
# Velocity P-wave (km/s) = 3.74550 7.06884 5.65673
#
# Compressibility (1/GPa) = 0.01572534
#
# Stress axis : x y z
#
# Youngs Moduli (GPa) = 136.97633 91.39445 150.43308
#
# Poissons Ratio (x) = 0.05600 0.42842
# Poissons Ratio (y) = 0.08394 0.16870
# Poissons Ratio (z) = 0.39010 0.10249
#
# Static dielectric constant tensor:
#      x y z
#    x 1.886380 0.000000 0.000000 
#    y 0.000000 2.006430 0.000000 
#    z 0.000000 0.000000 1.916580 
# 
# From -- ./inp_files/6733.got.cif
#   From: 2010.05.17/outbox.cif.g08.bks.cpg/sg23_4_cif.got.tgz:6733.got - 2010.06.04 12:02:01.
