data_PCOD9329311
_publ_section_title
;
Structure prediction by ZEFSAII (Michael W. Deem and Ramdas Pophale) SiO2 
 PCOD9329311
Probable space group: F 2 2 2
;
_chemical_formula_sum "Si O2"
_cell_formula_units_Z 29
_cell_length_a 12.000000
_cell_length_b 18.000000
_cell_length_c 27.000000
_cell_angle_alpha 90.000000
_cell_angle_beta 90.000000
_cell_angle_gamma 90.000000
_cell_volume 5832.000000
_symmetry_space_group_name_H-M "F 2 2 2"
_symmetry_group_IT_number 22
_symmetry_cell_setting 'orthorhombic'
loop_
_space_group_symop_operation_xyz
x,y,z
-x,-y,z
x,-y,-z
-x,y,-z
x,1/2+y,1/2+z
-x,1/2-y,1/2+z
x,1/2-y,1/2-z
-x,1/2+y,1/2-z
1/2+x,y,1/2+z
1/2-x,-y,1/2+z
1/2+x,-y,1/2-z
1/2-x,y,1/2-z
1/2+x,1/2+y,z
1/2-x,1/2-y,z
1/2+x,1/2-y,-z
1/2-x,1/2+y,-z
loop_
_atom_site_type_symbol
_atom_site_label
_atom_site_fract_x
_atom_site_fract_y
_atom_site_fract_z
Si Si1 0.217021 0.428529 0.877180
Si Si2 0.611989 0.125369 0.303366
Si Si3 0.351602 0.801655 0.859913
Si Si4 0.271793 0.916379 0.568777
Si Si5 0.750000 0.250000 0.250000
Si Si6 0.484627 0.411465 0.695290
Si Si7 0.795094 0.332156 0.466078
Si Si8 0.514147 0.666334 0.097132
O O1 0.304070 0.431877 0.830810
O O2 0.231158 0.503171 0.910783
O O3 0.105363 0.405223 0.848796
O O4 0.239209 0.362693 0.915929
O O5 0.679704 0.197706 0.286059
O O6 0.555679 0.102417 0.251678
O O7 0.533186 0.145873 0.348822
O O8 0.250000 0.750000 0.839062
O O9 0.299539 0.858524 0.899159
O O10 0.418595 0.852539 0.820104
O O11 0.426923 0.744895 0.891887
O O12 0.269846 0.890033 0.511022
O O13 0.399172 0.898450 0.583318
O O14 0.500000 0.500000 0.694012
O O15 0.750000 0.250000 0.479387
O O16 0.923255 0.328256 0.446806
#
# Coordination Sequence:
#
# PCOD9329311 Si02
#       8
#    16  16  16  16   4  16  16  16
#     4  11  24  43  65  99 132 172 221 289 337 410
#     4  11  25  39  68  97 128 168 221 278 332 404
#     4  10  22  43  66  96 140 182 224 285 336 411
#     4  11  23  43  62  94 136 174 223 280 346 407
#     4  12  20  40  64  92 130 156 214 272 324 388
#     4  12  23  43  69  95 134 180 226 269 346 411
#     4  11  23  40  70  95 127 175 226 281 344 413
#     4  10  23  40  67  95 133 172 222 279 343 411
#
# _framework density 4.9725650000000003
#
# number of rings (size 3 to 8) (size 9 to 14) (size 15 to 20)
#    0.000    1.103    2.759    3.724    5.793    1.655 
#    0.000    9.655    0.000    0.000    0.000    0.000 
#    0.000    0.000    0.000    0.000    0.000    0.000 
#
# Total GULP energy -161609.360658 kJ/mol
# GULP energy per Si atom -5572.736574 kJ/mol
# Density = 0.496125 g / cm^3
# Si number density = 4.972565 Si / 1000 Ang^3
#
#
#
# Elastic Constant Matrix: (Units=GPa)
#
#
# Indices 1 2 3 4 5 6 
#
# 1 78.0048 31.0896 46.9095 0.0000 0.0000 0.0000
# 2 31.0896 75.3762 27.2995 0.0000 0.0000 0.0000
# 3 46.9095 27.2995 148.8029 0.0000 0.0000 0.0000
# 4 0.0000 0.0000 0.0000 49.8348 0.0000 0.0000
# 5 0.0000 0.0000 0.0000 0.0000 -0.1772 0.0000
# 6 0.0000 0.0000 0.0000 0.0000 0.0000 34.3770
#
#
#
# Elastic Compliance Matrix: (Units=1/GPa)
#
#
# Indices 1 2 3 4 5 6 
#
# 1 0.017847 -0.005702 -0.004580 0.000000 0.000000 0.000000
# 2 -0.005702 0.016033 -0.001144 0.000000 0.000000 0.000000
# 3 -0.004580 -0.001144 0.008374 0.000000 0.000000 0.000000
# 4 0.000000 0.000000 0.000000 0.020066 0.000000 0.000000
# 5 0.000000 0.000000 0.000000 0.000000 -5.643221 0.000000
# 6 0.000000 0.000000 0.000000 0.000000 0.000000 0.029089
#
#
# Mechanical properties :
#
#
# Convention : Reuss Voigt Hill
#
# Bulk Modulus (GPa) = 51.54222 56.97566 54.25894
# Shear Modulus (GPa) = -0.90539 29.93260 14.51361
#
# Velocity S-wave (km/s) = -0.67541 3.88350 2.70420
# Velocity P-wave (km/s) = 5.03600 6.98684 6.09004
#
# Compressibility (1/GPa) = 0.01940157
#
# Stress axis : x y z
#
# Youngs Moduli (GPa) = 56.03294 62.37131 119.41795
#
# Poissons Ratio (x) = 0.35566 0.54693
# Poissons Ratio (y) = 0.31951 0.13659
# Poissons Ratio (z) = 0.25663 0.07134
#
# Static dielectric constant tensor:
#      x y z
#    x 1.817060 0.000000 0.000000 
#    y 0.000000 1.742210 0.000000 
#    z 0.000000 0.000000 1.635160 
# 
# From -- ./inp_files/36431.got.cif
#   From: 2010.05.17/outbox.ucp.g08.bks.cvg/sg22_19_cif.got.tgz:36431.got - 2010.06.11 15:16:44.
