data_PCOD9329362
_publ_section_title
;
Structure prediction by ZEFSAII (Michael W. Deem and Ramdas Pophale) SiO2 
 PCOD9329362
Probable space group: I 2 2 2
;
_chemical_formula_sum "Si O2"
_cell_formula_units_Z 48
_cell_length_a 5.193415
_cell_length_b 26.719370
_cell_length_c 17.088338
_cell_angle_alpha 90.000000
_cell_angle_beta 90.000000
_cell_angle_gamma 90.000000
_cell_volume 2371.259411
_symmetry_space_group_name_H-M "I 2 2 2"
_symmetry_group_IT_number 23
_symmetry_cell_setting 'orthorhombic'
loop_
_space_group_symop_operation_xyz
x,y,z
-x,-y,z
x,-y,-z
-x,y,-z
1/2+x,1/2+y,1/2+z
1/2-x,1/2-y,1/2+z
1/2+x,1/2-y,1/2-z
1/2-x,1/2+y,1/2-z
loop_
_atom_site_type_symbol
_atom_site_label
_atom_site_fract_x
_atom_site_fract_y
_atom_site_fract_z
Si Si1 0.250880 0.533962 0.283654
Si Si2 0.146429 0.853422 0.423226
Si Si3 0.753361 0.735606 0.549431
Si Si4 0.753053 0.057400 0.964573
Si Si5 0.859322 0.373909 0.172782
Si Si6 0.887255 0.720782 0.724867
O O1 0.500000 0.500000 0.268286
O O2 0.271357 0.555460 0.371751
O O3 0.205941 0.575978 0.219253
O O4 0.000000 0.500000 0.285171
O O5 0.230517 0.796308 0.440848
O O6 0.406118 0.878961 0.389662
O O7 0.000000 0.874550 0.500000
O O8 0.911004 0.854906 0.362487
O O9 0.500000 0.723643 0.500000
O O10 0.780166 0.714983 0.637074
O O11 0.000000 0.719913 0.500000
O O12 0.500000 0.081316 0.000000
O O13 0.000000 0.083343 0.000000
O O14 0.752356 0.000000 0.000000
O O15 0.947037 0.331525 0.233725
O O16 0.654390 0.748298 0.771450
#
# Coordination Sequence:
#
# PCOD9329362 Si02
#       6
#     8   8   8   8   8   8
#     4  12  23  39  63  92 128 169 213 276 314 379
#     4  11  22  40  66  94 122 163 219 269 304 399
#     4  11  21  36  62  90 126 171 214 248 310 377
#     4  10  16  32  58  84 112 157 219 245 293 354
#     4  12  24  41  63 100 125 166 217 260 335 388
#     4  12  22  40  62  91 135 168 201 268 322 377
#
# _framework density 20.24241
#
# number of rings (size 3 to 8) (size 9 to 14) (size 15 to 20)
#    0.000    0.667    6.667    4.500    0.000    0.000 
#    0.000    1.667    0.000    7.500    0.000    0.000 
#    0.000    0.000    0.000    0.000    0.000    0.000 
#
# Total GULP energy -134045.967380 kJ/mol
# GULP energy per Si atom -5585.248641 kJ/mol
# Density = 2.019634 g / cm^3
# Si number density = 20.242410 Si / 1000 Ang^3
#
#
#
# Elastic Constant Matrix: (Units=GPa)
#
#
# Indices 1 2 3 4 5 6 
#
# 1 168.8330 28.7388 25.7237 0.0000 0.0000 0.0000
# 2 28.7388 42.1508 25.0168 0.0000 0.0000 0.0000
# 3 25.7237 25.0168 82.5606 0.0000 0.0000 0.0000
# 4 0.0000 0.0000 0.0000 13.2756 0.0000 0.0000
# 5 0.0000 0.0000 0.0000 0.0000 46.4497 0.0000
# 6 0.0000 0.0000 0.0000 0.0000 0.0000 9.8426
#
#
#
# Elastic Compliance Matrix: (Units=1/GPa)
#
#
# Indices 1 2 3 4 5 6 
#
# 1 0.006751 -0.004090 -0.000864 0.000000 0.000000 0.000000
# 2 -0.004090 0.031404 -0.008242 0.000000 0.000000 0.000000
# 3 -0.000864 -0.008242 0.014879 0.000000 0.000000 0.000000
# 4 0.000000 0.000000 0.000000 0.075326 0.000000 0.000000
# 5 0.000000 0.000000 0.000000 0.000000 0.021529 0.000000
# 6 0.000000 0.000000 0.000000 0.000000 0.000000 0.101599
#
#
# Mechanical properties :
#
#
# Convention : Reuss Voigt Hill
#
# Bulk Modulus (GPa) = 37.53354 50.27810 43.90582
# Shear Modulus (GPa) = 17.43619 28.18458 22.81038
#
# Velocity S-wave (km/s) = 2.93809 3.73547 3.36052
# Velocity P-wave (km/s) = 5.48563 6.59522 6.06585
#
# Compressibility (1/GPa) = 0.02664284
#
# Stress axis : x y z
#
# Youngs Moduli (GPa) = 148.12925 31.84278 67.20959
#
# Poissons Ratio (x) = 0.13024 0.05808
# Poissons Ratio (y) = 0.60584 0.55391
# Poissons Ratio (z) = 0.12800 0.26243
#
# Static dielectric constant tensor:
#      x y z
#    x 1.716760 0.000000 0.000000 
#    y 0.000000 1.678750 0.000000 
#    z 0.000000 0.000000 1.658180 
# 
# From -- ./inp_files/19233.got.cif
#   From: 2010.05.17/outbox.cif.g08.bks.cpg/sg23_10_cif.got.tgz:19233.got - 2010.06.04 12:02:01.
