data_PCOD9329553
_publ_section_title
;
Structure prediction by ZEFSAII (Michael W. Deem and Ramdas Pophale) SiO2 
 PCOD9329553
Probable space group: I 2 2 2
;
_chemical_formula_sum "Si O2"
_cell_formula_units_Z 48
_cell_length_a 15.142243
_cell_length_b 15.264545
_cell_length_c 10.642320
_cell_angle_alpha 90.000000
_cell_angle_beta 90.000000
_cell_angle_gamma 90.000000
_cell_volume 2459.859988
_symmetry_space_group_name_H-M "I 2 2 2"
_symmetry_group_IT_number 23
_symmetry_cell_setting 'orthorhombic'
loop_
_space_group_symop_operation_xyz
x,y,z
-x,-y,z
x,-y,-z
-x,y,-z
1/2+x,1/2+y,1/2+z
1/2-x,1/2-y,1/2+z
1/2+x,1/2-y,1/2-z
1/2-x,1/2+y,1/2-z
loop_
_atom_site_type_symbol
_atom_site_label
_atom_site_fract_x
_atom_site_fract_y
_atom_site_fract_z
Si Si1 0.055376 0.588829 0.733537
Si Si2 0.589283 0.653664 0.153036
Si Si3 0.000000 0.000000 0.000000
Si Si4 0.500000 0.500000 0.000000
Si Si5 0.500000 0.207121 0.000000
Si Si6 0.261406 0.570681 0.683378
Si Si7 0.335368 0.399036 0.596952
Si Si8 0.039406 0.237326 0.136618
O O1 0.158947 0.574591 0.712999
O O2 0.040921 0.658982 0.843210
O O3 0.000000 0.500000 0.747072
O O4 0.024108 0.643361 0.612455
O O5 0.679927 0.629374 0.222820
O O6 0.521814 0.690443 0.258912
O O7 0.555961 0.564418 0.088717
O O8 0.579606 0.728564 0.045412
O O9 0.067712 0.943491 0.919286
O O10 0.286537 0.467227 0.686541
O O11 0.288065 0.599146 0.539753
O O12 0.361899 0.303532 0.644275
O O13 0.000000 0.220128 0.000000
#
# Coordination Sequence:
#
# PCOD9329553 Si02
#       8
#     8   8   2   2   4   8   8   8
#     4  11  26  43  60  85 124 181 217 254 315 378
#     4  10  19  38  60  98 124 165 204 256 328 371
#     4   8  12  26  52  88 124 138 178 244 328 356
#     4  10  20  34  64  92 144 160 180 246 344 406
#     4   9  23  39  67  80 128 178 211 259 315 385
#     4  10  21  36  60  98 125 157 213 255 316 376
#     4  10  18  31  61  97 121 157 197 263 317 366
#     4  11  20  41  65  90 124 161 211 266 314 374
#
# _framework density 19.513306
#
# number of rings (size 3 to 8) (size 9 to 14) (size 15 to 20)
#    0.000    2.000    2.500    2.250    4.667    2.333 
#    3.000    1.667    0.000    0.000    0.000    0.000 
#    0.000    0.000    0.000    0.000    0.000    0.000 
#
# Total GULP energy -133789.444593 kJ/mol
# GULP energy per Si atom -5574.560191 kJ/mol
# Density = 1.946889 g / cm^3
# Si number density = 19.513306 Si / 1000 Ang^3
#
#
#
# Elastic Constant Matrix: (Units=GPa)
#
#
# Indices 1 2 3 4 5 6 
#
# 1 107.4007 56.9802 11.8077 0.0000 0.0000 0.0000
# 2 56.9802 155.6284 36.5154 0.0000 0.0000 0.0000
# 3 11.8077 36.5154 42.2501 0.0000 0.0000 0.0000
# 4 0.0000 0.0000 0.0000 32.3875 0.0000 0.0000
# 5 0.0000 0.0000 0.0000 0.0000 3.8679 0.0000
# 6 0.0000 0.0000 0.0000 0.0000 0.0000 13.8906
#
#
#
# Elastic Compliance Matrix: (Units=1/GPa)
#
#
# Indices 1 2 3 4 5 6 
#
# 1 0.011565 -0.004360 0.000536 0.000000 0.000000 0.000000
# 2 -0.004360 0.009704 -0.007168 0.000000 0.000000 0.000000
# 3 0.000536 -0.007168 0.029714 0.000000 0.000000 0.000000
# 4 0.000000 0.000000 0.000000 0.030876 0.000000 0.000000
# 5 0.000000 0.000000 0.000000 0.000000 0.258540 0.000000
# 6 0.000000 0.000000 0.000000 0.000000 0.000000 0.071991
#
#
# Mechanical properties :
#
#
# Convention : Reuss Voigt Hill
#
# Bulk Modulus (GPa) = 34.48423 57.32063 45.90243
# Shear Modulus (GPa) = 11.26022 23.36092 17.31057
#
# Velocity S-wave (km/s) = 2.40480 3.46378 2.98168
# Velocity P-wave (km/s) = 5.04195 6.74062 5.95219
#
# Compressibility (1/GPa) = 0.02899876
#
# Stress axis : x y z
#
# Youngs Moduli (GPa) = 86.46614 103.05202 33.65419
#
# Poissons Ratio (x) = 0.44933 -0.01805
# Poissons Ratio (y) = 0.37701 0.24124
# Poissons Ratio (z) = -0.04636 0.73869
#
# Static dielectric constant tensor:
#      x y z
#    x 1.696650 0.000000 0.000000 
#    y 0.000000 1.765400 0.000000 
#    z 0.000000 0.000000 1.736860 
# 
# From -- ./inp_files/16757.got.cif
#   From: 2010.05.17/outbox.cif.g08.bks.cpg/sg23_9_cif.got.tgz:16757.got - 2010.06.04 12:02:01.
