data_PCOD9329711
_publ_section_title
;
Structure prediction by ZEFSAII (Michael W. Deem and Ramdas Pophale) SiO2 
 PCOD9329711
Probable space group: I 2 2 2
;
_chemical_formula_sum "Si O2"
_cell_formula_units_Z 44
_cell_length_a 9.802340
_cell_length_b 10.076865
_cell_length_c 15.892181
_cell_angle_alpha 90.000000
_cell_angle_beta 90.000000
_cell_angle_gamma 90.000000
_cell_volume 1569.779688
_symmetry_space_group_name_H-M "I 2 2 2"
_symmetry_group_IT_number 23
_symmetry_cell_setting 'orthorhombic'
loop_
_space_group_symop_operation_xyz
x,y,z
-x,-y,z
x,-y,-z
-x,y,-z
1/2+x,1/2+y,1/2+z
1/2-x,1/2-y,1/2+z
1/2+x,1/2-y,1/2-z
1/2-x,1/2+y,1/2-z
loop_
_atom_site_type_symbol
_atom_site_label
_atom_site_fract_x
_atom_site_fract_y
_atom_site_fract_z
Si Si1 0.824503 0.083320 0.791072
Si Si2 0.341016 0.296590 0.532245
Si Si3 0.461303 0.780277 0.757298
Si Si4 0.280371 0.527069 0.885982
Si Si5 0.000000 0.500000 0.870645
Si Si6 0.604960 0.751252 0.927020
O O1 0.828918 0.092677 0.893503
O O2 0.697128 0.182158 0.765394
O O3 0.973615 0.141875 0.770220
O O4 0.795009 0.975931 0.715904
O O5 0.500000 0.279126 0.500000
O O6 0.249235 0.315745 0.449420
O O7 0.249849 0.171969 0.574203
O O8 0.525338 0.875714 0.687727
O O9 0.536851 0.809567 0.844213
O O10 0.382830 0.409826 0.914857
O O11 0.137079 0.461824 0.914525
O O12 0.500000 0.780074 0.000000
#
# Coordination Sequence:
#
# PCOD9329711 Si02
#       6
#     8   8   8   8   4   8
#     4  10  22  41  63  95 137 178 225 284 347 427
#     4  12  24  41  68 102 136 178 231 294 357 409
#     4  10  21  40  63  90 131 179 224 272 341 423
#     4  10  22  38  63  96 130 176 223 279 339 418
#     4  10  18  38  68  90 118 166 240 258 308 410
#     4  11  23  40  59  93 139 166 213 282 361 397
#
# _framework density 28.029409999999999
#
# number of rings (size 3 to 8) (size 9 to 14) (size 15 to 20)
#    0.000    1.455    3.636    1.636    5.091    2.182 
#    0.000    0.455    0.000    0.000    0.000    6.364 
#    0.000    0.000    0.000    0.000    0.000    0.000 
#
# Total GULP energy -122601.406209 kJ/mol
# GULP energy per Si atom -5572.791191 kJ/mol
# Density = 2.796561 g / cm^3
# Si number density = 28.029410 Si / 1000 Ang^3
#
#
#
# Elastic Constant Matrix: (Units=GPa)
#
#
# Indices 1 2 3 4 5 6 
#
# 1 156.0240 22.3496 11.7941 0.0000 0.0000 0.0000
# 2 22.3496 101.5995 43.3809 0.0000 0.0000 0.0000
# 3 11.7941 43.3809 148.9653 0.0000 0.0000 0.0000
# 4 0.0000 0.0000 0.0000 29.3657 0.0000 0.0000
# 5 0.0000 0.0000 0.0000 0.0000 32.5899 0.0000
# 6 0.0000 0.0000 0.0000 0.0000 0.0000 32.4093
#
#
#
# Elastic Compliance Matrix: (Units=1/GPa)
#
#
# Indices 1 2 3 4 5 6 
#
# 1 0.006620 -0.001407 -0.000114 0.000000 0.000000 0.000000
# 2 -0.001407 0.011539 -0.003249 0.000000 0.000000 0.000000
# 3 -0.000114 -0.003249 0.007668 0.000000 0.000000 0.000000
# 4 0.000000 0.000000 0.000000 0.034053 0.000000 0.000000
# 5 0.000000 0.000000 0.000000 0.000000 0.030684 0.000000
# 6 0.000000 0.000000 0.000000 0.000000 0.000000 0.030855
#
#
# Mechanical properties :
#
#
# Convention : Reuss Voigt Hill
#
# Bulk Modulus (GPa) = 61.40302 62.40423 61.90363
# Shear Modulus (GPa) = 36.65957 40.81059 38.73508
#
# Velocity S-wave (km/s) = 3.62041 3.81989 3.72148
# Velocity P-wave (km/s) = 6.27939 6.46278 6.37174
#
# Compressibility (1/GPa) = 0.01628584
#
# Stress axis : x y z
#
# Youngs Moduli (GPa) = 151.06873 86.65940 130.40899
#
# Poissons Ratio (x) = 0.12196 0.01490
# Poissons Ratio (y) = 0.21261 0.42370
# Poissons Ratio (z) = 0.01726 0.28156
#
# Static dielectric constant tensor:
#      x y z
#    x 2.190120 0.000000 0.000000 
#    y 0.000000 2.372610 0.000000 
#    z 0.000000 0.000000 2.263910 
# 
# From -- ./inp_files/23693.got.cif
#   From: 2010.05.17/outbox.cif.g08.bks.cpg/sg23_12_cif.got.tgz:23693.got - 2010.06.04 12:02:01.
