data_PCOD9329721
_publ_section_title
;
Structure prediction by ZEFSAII (Michael W. Deem and Ramdas Pophale) SiO2 
 PCOD9329721
Probable space group: I 2 2 2
;
_chemical_formula_sum "Si O2"
_cell_formula_units_Z 52
_cell_length_a 21.794443
_cell_length_b 8.743373
_cell_length_c 13.726514
_cell_angle_alpha 90.000000
_cell_angle_beta 90.000000
_cell_angle_gamma 90.000000
_cell_volume 2615.682566
_symmetry_space_group_name_H-M "I 2 2 2"
_symmetry_group_IT_number 23
_symmetry_cell_setting 'orthorhombic'
loop_
_space_group_symop_operation_xyz
x,y,z
-x,-y,z
x,-y,-z
-x,y,-z
1/2+x,1/2+y,1/2+z
1/2-x,1/2-y,1/2+z
1/2+x,1/2-y,1/2-z
1/2-x,1/2+y,1/2-z
loop_
_atom_site_type_symbol
_atom_site_label
_atom_site_fract_x
_atom_site_fract_y
_atom_site_fract_z
Si Si1 0.095795 0.723598 0.113353
Si Si2 0.428892 0.812914 0.006905
Si Si3 0.350845 0.197876 0.180855
Si Si4 0.000000 0.500000 0.829748
Si Si5 0.684156 0.000000 0.500000
Si Si6 0.786338 0.764577 0.139251
Si Si7 0.652156 0.500000 0.500000
Si Si8 0.385807 0.142900 0.787132
O O1 0.111825 0.756896 0.225697
O O2 0.109480 0.870853 0.048777
O O3 0.031105 0.636917 0.110353
O O4 0.142359 0.593467 0.075487
O O5 0.385949 0.757161 0.918474
O O6 0.500000 0.764235 0.000000
O O7 0.402495 0.772236 0.112986
O O8 0.429514 0.000000 0.000000
O O9 0.279559 0.236363 0.189174
O O10 0.351989 0.013619 0.184143
O O11 0.948014 0.419074 0.763917
O O12 0.718576 0.127494 0.438977
O O13 0.842208 0.732064 0.212999
O O14 0.804697 0.916335 0.079309
#
# Coordination Sequence:
#
# PCOD9329721 Si02
#       8
#     8   8   8   4   4   8   4   8
#     4  10  21  40  63  91 123 165 211 266 323 382
#     4   9  17  33  60  93 120 151 212 271 322 380
#     4  10  21  34  62  91 124 169 211 264 326 383
#     4  10  18  39  69  88 122 170 218 268 312 396
#     4  10  20  41  58  86 119 170 220 246 314 394
#     4  11  23  39  60  91 135 171 216 268 323 403
#     4  10  26  40  59  94 135 164 210 278 318 378
#     4  10  20  37  62  94 121 169 212 268 324 390
#
# _framework density 19.880088000000001
#
# number of rings (size 3 to 8) (size 9 to 14) (size 15 to 20)
#    0.000    2.000    3.077    2.769    5.385    1.538 
#    0.000    1.538    0.000    0.000    0.000    1.615 
#    0.000    0.000    0.000    0.000    0.000    0.000 
#
# Total GULP energy -145064.138253 kJ/mol
# GULP energy per Si atom -5579.389933 kJ/mol
# Density = 1.983484 g / cm^3
# Si number density = 19.880088 Si / 1000 Ang^3
#
#
#
# Elastic Constant Matrix: (Units=GPa)
#
#
# Indices 1 2 3 4 5 6 
#
# 1 106.7298 14.0894 29.8948 0.0000 0.0000 0.0000
# 2 14.0894 41.7355 -0.9138 0.0000 0.0000 0.0000
# 3 29.8948 -0.9138 72.3493 0.0000 0.0000 0.0000
# 4 0.0000 0.0000 0.0000 23.3136 0.0000 0.0000
# 5 0.0000 0.0000 0.0000 0.0000 16.4478 0.0000
# 6 0.0000 0.0000 0.0000 0.0000 0.0000 17.8432
#
#
#
# Elastic Compliance Matrix: (Units=1/GPa)
#
#
# Indices 1 2 3 4 5 6 
#
# 1 0.011191 -0.003880 -0.004673 0.000000 0.000000 0.000000
# 2 -0.003880 0.025312 0.001923 0.000000 0.000000 0.000000
# 3 -0.004673 0.001923 0.015777 0.000000 0.000000 0.000000
# 4 0.000000 0.000000 0.000000 0.042893 0.000000 0.000000
# 5 0.000000 0.000000 0.000000 0.000000 0.060798 0.000000
# 6 0.000000 0.000000 0.000000 0.000000 0.000000 0.056044
#
#
# Mechanical properties :
#
#
# Convention : Reuss Voigt Hill
#
# Bulk Modulus (GPa) = 25.62806 34.10616 29.86711
# Shear Modulus (GPa) = 20.98353 23.37055 22.17704
#
# Velocity S-wave (km/s) = 3.25238 3.43239 3.34359
# Velocity P-wave (km/s) = 5.19839 5.73599 5.47379
#
# Compressibility (1/GPa) = 0.03901972
#
# Stress axis : x y z
#
# Youngs Moduli (GPa) = 89.36114 39.50638 63.38351
#
# Poissons Ratio (x) = 0.15329 0.29619
# Poissons Ratio (y) = 0.34673 -0.12188
# Poissons Ratio (z) = 0.41758 -0.07597
#
# Static dielectric constant tensor:
#      x y z
#    x 1.712180 0.000000 0.000000 
#    y 0.000000 1.695690 0.000000 
#    z 0.000000 0.000000 1.752030 
# 
# From -- ./inp_files/22376.got.cif
#   From: 2010.05.17/outbox.cif.g08.bks.cpg/sg23_12_cif.got.tgz:22376.got - 2010.06.04 12:02:01.
