data_PCOD9329808
_publ_section_title
;
Structure prediction by ZEFSAII (Michael W. Deem and Ramdas Pophale) SiO2 
 PCOD9329808
Probable space group: I 2 2 2
;
_chemical_formula_sum "Si O2"
_cell_formula_units_Z 64
_cell_length_a 7.210983
_cell_length_b 20.982076
_cell_length_c 18.345039
_cell_angle_alpha 90.000000
_cell_angle_beta 90.000000
_cell_angle_gamma 90.000000
_cell_volume 2775.629962
_symmetry_space_group_name_H-M "I 2 2 2"
_symmetry_group_IT_number 23
_symmetry_cell_setting 'orthorhombic'
loop_
_space_group_symop_operation_xyz
x,y,z
-x,-y,z
x,-y,-z
-x,y,-z
1/2+x,1/2+y,1/2+z
1/2-x,1/2-y,1/2+z
1/2+x,1/2-y,1/2-z
1/2-x,1/2+y,1/2-z
loop_
_atom_site_type_symbol
_atom_site_label
_atom_site_fract_x
_atom_site_fract_y
_atom_site_fract_z
Si Si1 0.730667 0.113684 0.170230
Si Si2 0.724433 0.490853 0.083681
Si Si3 0.759019 0.260641 0.927415
Si Si4 0.725411 0.508916 0.583241
Si Si5 0.822131 0.256927 0.587591
Si Si6 0.692836 0.365966 0.172192
Si Si7 0.170498 0.133838 0.161793
Si Si8 0.757640 0.381634 0.836381
O O1 0.671168 0.172657 0.120364
O O2 0.671760 0.123243 0.253757
O O3 0.954086 0.117819 0.169264
O O4 0.689318 0.045244 0.135038
O O5 0.500000 0.500000 0.083866
O O6 0.764397 0.422688 0.120308
O O7 0.798422 0.548843 0.131966
O O8 0.783107 0.500000 0.000000
O O9 0.535072 0.262002 0.925117
O O10 0.816603 0.202120 0.876312
O O11 0.823792 0.326757 0.891692
O O12 0.793343 0.248026 0.012870
O O13 0.500000 0.500000 0.584482
O O14 0.783445 0.500000 0.500000
O O15 0.761411 0.579742 0.611902
O O16 0.751712 0.203541 0.643397
O O17 0.747159 0.370363 0.256537
O O18 0.467469 0.373452 0.168752
#
# Coordination Sequence:
#
# PCOD9329808 Si02
#       8
#     8   8   8   8   8   8   8   8
#     4  10  19  32  51  72  95 125 161 199 237 281
#     4   9  15  25  45  72 100 129 160 194 236 287
#     4  10  20  33  48  69  99 129 156 193 240 285
#     4   9  17  29  46  69  94 118 150 195 238 271
#     4  10  20  33  48  69  99 129 156 193 240 285
#     4   9  17  29  46  70  98 126 158 197 239 280
#     4  10  19  32  51  72  95 125 161 199 237 281
#     4   9  17  29  46  70  98 126 158 197 239 280
#
# _framework density 23.057827
#
# number of rings (size 3 to 8) (size 9 to 14) (size 15 to 20)
#    0.000    2.500    0.000    3.000    0.000    7.500 
#    0.000    0.625    0.000    2.250    0.000    2.625 
#    0.000    6.000    0.000    0.000    0.000    0.000 
#
# Total GULP energy -178933.603672 kJ/mol
# GULP energy per Si atom -5591.675115 kJ/mol
# Density = 2.300535 g / cm^3
# Si number density = 23.057827 Si / 1000 Ang^3
#
#
#
# Elastic Constant Matrix: (Units=GPa)
#
#
# Indices 1 2 3 4 5 6 
#
# 1 68.3381 -32.1272 -32.7800 0.0000 0.0000 0.0000
# 2 -32.1272 128.7745 31.0536 0.0000 0.0000 0.0000
# 3 -32.7800 31.0536 131.5069 0.0000 0.0000 0.0000
# 4 0.0000 0.0000 0.0000 46.6811 0.0000 0.0000
# 5 0.0000 0.0000 0.0000 0.0000 -2.8574 0.0000
# 6 0.0000 0.0000 0.0000 0.0000 0.0000 -0.1544
#
#
#
# Elastic Compliance Matrix: (Units=1/GPa)
#
#
# Indices 1 2 3 4 5 6 
#
# 1 0.018093 0.003633 0.003652 0.000000 0.000000 0.000000
# 2 0.003633 0.008964 -0.001211 0.000000 0.000000 0.000000
# 3 0.003652 -0.001211 0.008800 0.000000 0.000000 0.000000
# 4 0.000000 0.000000 0.000000 0.021422 0.000000 0.000000
# 5 0.000000 0.000000 0.000000 0.000000 -0.349967 -0.000001
# 6 0.000000 0.000000 0.000000 0.000000 -0.000001 -6.475386
#
#
# Mechanical properties :
#
#
# Convention : Reuss Voigt Hill
#
# Bulk Modulus (GPa) = 20.83089 28.99028 24.91059
# Shear Modulus (GPa) = -0.73918 32.89871 16.07976
#
# Velocity S-wave (km/s) = -0.56681 3.78139 2.64364
# Velocity P-wave (km/s) = 2.93691 5.62720 4.48836
#
# Compressibility (1/GPa) = 0.04800562
#
# Stress axis : x y z
#
# Youngs Moduli (GPa) = 55.27020 111.55738 113.63047
#
# Poissons Ratio (x) = -0.40531 -0.41498
# Poissons Ratio (y) = -0.20081 0.13762
# Poissons Ratio (z) = -0.20185 0.13511
#
# Static dielectric constant tensor:
#      x y z
#    x 1.960790 0.000000 0.000000 
#    y 0.000000 1.786110 0.000000 
#    z 0.000000 0.000000 1.824780 
# 
# From -- ./inp_files/23999.got.cif
#   From: 2010.05.17/outbox.cif.g08.bks.cpg/sg23_12_cif.got.tgz:23999.got - 2010.06.04 12:02:01.
