data_PCOD9329877
_publ_section_title
;
Structure prediction by ZEFSAII (Michael W. Deem and Ramdas Pophale) SiO2 
 PCOD9329877
Probable space group: I 2 2 2
;
_chemical_formula_sum "Si O2"
_cell_formula_units_Z 48
_cell_length_a 10.331914
_cell_length_b 10.862315
_cell_length_c 23.385773
_cell_angle_alpha 90.000000
_cell_angle_beta 90.000000
_cell_angle_gamma 90.000000
_cell_volume 2624.550329
_symmetry_space_group_name_H-M "I 2 2 2"
_symmetry_group_IT_number 23
_symmetry_cell_setting 'orthorhombic'
loop_
_space_group_symop_operation_xyz
x,y,z
-x,-y,z
x,-y,-z
-x,y,-z
1/2+x,1/2+y,1/2+z
1/2-x,1/2-y,1/2+z
1/2+x,1/2-y,1/2-z
1/2-x,1/2+y,1/2-z
loop_
_atom_site_type_symbol
_atom_site_label
_atom_site_fract_x
_atom_site_fract_y
_atom_site_fract_z
Si Si1 0.155480 0.016992 0.564863
Si Si2 0.479359 0.704322 0.686579
Si Si3 0.743213 0.272205 0.852580
Si Si4 0.358397 0.475811 0.230040
Si Si5 0.999559 0.645101 0.305154
Si Si6 0.726805 0.316104 0.158801
O O1 0.209110 0.144915 0.591839
O O2 0.201983 0.000000 0.500000
O O3 0.197676 0.910446 0.608413
O O4 0.000000 0.000000 0.563766
O O5 0.617411 0.707802 0.655002
O O6 0.403692 0.581850 0.709881
O O7 0.495132 0.782558 0.745048
O O8 0.371330 0.771551 0.650230
O O9 0.725333 0.373100 0.801558
O O10 0.626219 0.178964 0.841669
O O11 0.500000 0.500000 0.200794
O O12 0.287128 0.604444 0.218493
O O13 0.000000 0.500000 0.295869
O O14 0.874840 0.704836 0.336240
#
# Coordination Sequence:
#
# PCOD9329877 Si02
#       6
#     8   8   8   8   8   8
#     4  10  20  39  68  83 102 146 194 249 297 328
#     4  11  24  30  53  80 120 158 180 228 288 337
#     4  10  20  37  52  84 112 142 193 246 277 337
#     4  10  19  34  52  70 110 157 188 219 268 331
#     4  11  22  34  54  80 117 160 192 223 274 351
#     4  11  21  39  53  83 117 149 196 238 271 340
#
# _framework density 18.288848000000002
#
# number of rings (size 3 to 8) (size 9 to 14) (size 15 to 20)
#    0.000    1.500    5.000    3.000    7.000    0.000 
#    0.000    1.667    0.000    2.000    0.000    0.000 
#    0.000    4.000    0.000    0.000    0.000    0.000 
#
# Total GULP energy -133701.731374 kJ/mol
# GULP energy per Si atom -5570.905474 kJ/mol
# Density = 1.824722 g / cm^3
# Si number density = 18.288848 Si / 1000 Ang^3
#
#
#
# Elastic Constant Matrix: (Units=GPa)
#
#
# Indices 1 2 3 4 5 6 
#
# 1 113.8597 1.6578 19.1476 0.0000 0.0000 0.0000
# 2 1.6578 50.3049 12.7641 0.0000 0.0000 0.0000
# 3 19.1476 12.7641 80.1140 0.0000 0.0000 0.0000
# 4 0.0000 0.0000 0.0000 13.8426 0.0000 0.0000
# 5 0.0000 0.0000 0.0000 0.0000 13.4672 0.0000
# 6 0.0000 0.0000 0.0000 0.0000 0.0000 21.1153
#
#
#
# Elastic Compliance Matrix: (Units=1/GPa)
#
#
# Indices 1 2 3 4 5 6 
#
# 1 0.009154 0.000264 -0.002230 0.000000 0.000000 0.000000
# 2 0.000264 0.020724 -0.003365 0.000000 0.000000 0.000000
# 3 -0.002230 -0.003365 0.013551 0.000000 0.000000 0.000000
# 4 0.000000 0.000000 0.000000 0.072241 0.000000 0.000000
# 5 0.000000 0.000000 0.000000 0.000000 0.074255 0.000000
# 6 0.000000 0.000000 0.000000 0.000000 0.000000 0.047359
#
#
# Mechanical properties :
#
#
# Convention : Reuss Voigt Hill
#
# Bulk Modulus (GPa) = 30.51791 34.60195 32.55993
# Shear Modulus (GPa) = 19.31492 23.73230 21.52361
#
# Velocity S-wave (km/s) = 3.25330 3.60618 3.43428
# Velocity P-wave (km/s) = 5.55291 6.02496 5.79375
#
# Compressibility (1/GPa) = 0.03276764
#
# Stress axis : x y z
#
# Youngs Moduli (GPa) = 109.24311 48.25350 73.79377
#
# Poissons Ratio (x) = -0.01275 0.16455
# Poissons Ratio (y) = -0.02885 0.24831
# Poissons Ratio (z) = 0.24360 0.16237
#
# Static dielectric constant tensor:
#      x y z
#    x 1.686680 0.000000 0.000000 
#    y 0.000000 1.700980 0.000000 
#    z 0.000000 0.000000 1.623780 
# 
# From -- ./inp_files/27981.got.cif
#   From: 2010.05.17/outbox.cif.g08.bks.cpg/sg23_14_cif.got.tgz:27981.got - 2010.06.04 12:02:01.
