data_PCOD9329351
_publ_section_title
;
Structure prediction by ZEFSAII (Michael W. Deem and Ramdas Pophale) SiO2 
 PCOD9329351
Probable space group: I 2 2 2
;
_chemical_formula_sum "Si O2"
_cell_formula_units_Z 44
_cell_length_a 15.424245
_cell_length_b 7.461406
_cell_length_c 18.504366
_cell_angle_alpha 90.000000
_cell_angle_beta 90.000000
_cell_angle_gamma 90.000000
_cell_volume 2129.603720
_symmetry_space_group_name_H-M "I 2 2 2"
_symmetry_group_IT_number 23
_symmetry_cell_setting 'orthorhombic'
loop_
_space_group_symop_operation_xyz
x,y,z
-x,-y,z
x,-y,-z
-x,y,-z
1/2+x,1/2+y,1/2+z
1/2-x,1/2-y,1/2+z
1/2+x,1/2-y,1/2-z
1/2-x,1/2+y,1/2-z
loop_
_atom_site_type_symbol
_atom_site_label
_atom_site_fract_x
_atom_site_fract_y
_atom_site_fract_z
Si Si1 0.500000 0.500000 0.000000
Si Si2 0.156859 0.395337 0.574808
Si Si3 0.789891 0.500000 0.000000
Si Si4 0.929550 0.846440 0.249987
Si Si5 0.143361 0.961513 0.599903
Si Si6 0.500000 0.500000 0.500000
Si Si7 0.146929 0.816290 0.904991
Si Si8 0.500000 0.000000 0.176891
O O1 0.560597 0.608339 0.945194
O O2 0.139779 0.500000 0.500000
O O3 0.143947 0.177618 0.585114
O O4 0.260086 0.416497 0.589240
O O5 0.087098 0.474960 0.630152
O O6 0.727453 0.605483 0.943232
O O7 0.841080 0.368730 0.948411
O O8 0.875089 0.800615 0.179150
O O9 0.983009 0.674607 0.275623
O O10 0.869882 0.912383 0.317369
O O11 0.000000 0.000000 0.234720
O O12 0.566431 0.403033 0.446035
#
# Coordination Sequence:
#
# PCOD9329351 Si02
#       8
#     2   8   4   8   8   2   8   4
#     4  10  16  30  62  94 128 192 218 274 364 438
#     4  11  24  41  69 113 146 191 252 304 378 451
#     4   9  24  44  70 109 130 196 258 302 376 450
#     4  12  25  47  69 110 156 201 246 314 396 443
#     4  10  21  39  69 101 152 188 235 315 383 447
#     4  12  24  44  72  94 136 200 252 312 356 446
#     4  11  26  48  73 103 149 200 257 319 372 455
#     4  12  27  42  74 115 152 198 244 312 392 481
#
# _framework density 20.66112
#
# number of rings (size 3 to 8) (size 9 to 14) (size 15 to 20)
#    0.000    1.091    4.545    0.273   10.182    4.727 
#    0.000    0.000    0.000    0.000    0.000    0.000 
#    0.000    0.000    0.000    0.000    0.000    0.000 
#
# Total GULP energy -122768.476417 kJ/mol
# GULP energy per Si atom -5580.385292 kJ/mol
# Density = 2.061409 g / cm^3
# Si number density = 20.661120 Si / 1000 Ang^3
#
#
#
# Elastic Constant Matrix: (Units=GPa)
#
#
# Indices 1 2 3 4 5 6 
#
# 1 136.5883 43.9853 73.9331 0.0000 0.0000 0.0000
# 2 43.9853 109.5267 58.2611 0.0000 0.0000 0.0000
# 3 73.9331 58.2611 198.9816 0.0000 0.0000 0.0000
# 4 0.0000 0.0000 0.0000 17.9948 0.0000 0.0000
# 5 0.0000 0.0000 0.0000 0.0000 32.9711 0.0000
# 6 0.0000 0.0000 0.0000 0.0000 0.0000 29.8507
#
#
#
# Elastic Compliance Matrix: (Units=1/GPa)
#
#
# Indices 1 2 3 4 5 6 
#
# 1 0.009641 -0.002329 -0.002900 0.000000 0.000000 0.000000
# 2 -0.002329 0.011377 -0.002466 0.000000 0.000000 0.000000
# 3 -0.002900 -0.002466 0.006825 0.000000 0.000000 0.000000
# 4 0.000000 0.000000 0.000000 0.055572 0.000000 0.000000
# 5 0.000000 0.000000 0.000000 0.000000 0.030330 0.000000
# 6 0.000000 0.000000 0.000000 0.000000 0.000000 0.033500
#
#
# Mechanical properties :
#
#
# Convention : Reuss Voigt Hill
#
# Bulk Modulus (GPa) = 80.30074 88.60620 84.45347
# Shear Modulus (GPa) = 29.97846 34.09112 32.03479
#
# Velocity S-wave (km/s) = 3.81328 4.06644 3.94189
# Velocity P-wave (km/s) = 7.63794 8.06390 7.85381
#
# Compressibility (1/GPa) = 0.01245319
#
# Stress axis : x y z
#
# Youngs Moduli (GPa) = 103.72164 87.89519 146.51561
#
# Poissons Ratio (x) = 0.20471 0.42494
# Poissons Ratio (y) = 0.24157 0.36128
# Poissons Ratio (z) = 0.30083 0.21673
#
# Static dielectric constant tensor:
#      x y z
#    x 1.783550 0.000000 0.000000 
#    y 0.000000 1.871270 0.000000 
#    z 0.000000 0.000000 1.727560 
# 
# From -- ./inp_files/24715.got.cif
#   From: 2010.05.17/outbox.cif.g08.bks.cpg/sg23_13_cif.got.tgz:24715.got - 2010.06.04 12:02:01.
