data_PCOD9329601
_publ_section_title
;
Structure prediction by ZEFSAII (Michael W. Deem and Ramdas Pophale) SiO2 
 PCOD9329601
Probable space group: I 2 2 2
;
_chemical_formula_sum "Si O2"
_cell_formula_units_Z 52
_cell_length_a 8.903652
_cell_length_b 23.202809
_cell_length_c 13.163569
_cell_angle_alpha 90.000000
_cell_angle_beta 90.000000
_cell_angle_gamma 90.000000
_cell_volume 2719.458255
_symmetry_space_group_name_H-M "I 2 2 2"
_symmetry_group_IT_number 23
_symmetry_cell_setting 'orthorhombic'
loop_
_space_group_symop_operation_xyz
x,y,z
-x,-y,z
x,-y,-z
-x,y,-z
1/2+x,1/2+y,1/2+z
1/2-x,1/2-y,1/2+z
1/2+x,1/2-y,1/2-z
1/2-x,1/2+y,1/2-z
loop_
_atom_site_type_symbol
_atom_site_label
_atom_site_fract_x
_atom_site_fract_y
_atom_site_fract_z
Si Si1 0.736284 0.559180 0.087050
Si Si2 0.909735 0.920084 0.372843
Si Si3 0.071696 0.327832 0.108171
Si Si4 0.950244 0.784215 0.388034
Si Si5 0.235894 0.733607 0.287276
Si Si6 0.500000 0.000000 0.718392
Si Si7 0.153481 0.610525 0.265417
O O1 0.574761 0.553817 0.140639
O O2 0.798254 0.624314 0.097428
O O3 0.867956 0.522570 0.141832
O O4 0.685857 0.554887 0.968028
O O5 0.935836 0.852764 0.397054
O O6 0.804090 0.918764 0.276308
O O7 0.141150 0.269654 0.150975
O O8 0.945818 0.357104 0.179079
O O9 0.000000 0.318140 0.000000
O O10 0.797344 0.765390 0.329415
O O11 0.000000 0.761998 0.500000
O O12 0.082011 0.766636 0.310692
O O13 0.208874 0.667560 0.324909
O O14 0.448820 0.945543 0.787216
#
# Coordination Sequence:
#
# PCOD9329601 Si02
#       7
#     8   8   8   8   8   4   8
#     4  10  19  33  54  77 110 160 197 243 293 361
#     4  10  18  33  54  77 112 152 199 248 293 346
#     4  11  19  34  55  81 116 158 195 246 307 363
#     4  11  21  36  57  86 125 160 198 260 311 376
#     4  11  22  35  57  86 118 161 207 246 315 377
#     4  10  24  37  52  74 121 164 210 244 297 352
#     4  10  22  36  51  82 114 158 203 244 295 370
#
# _framework density 19.121455000000001
#
# number of rings (size 3 to 8) (size 9 to 14) (size 15 to 20)
#    0.000    1.538    6.154    0.000    2.154    1.846 
#    0.000    1.538    0.000    0.000    0.000    0.538 
#    0.000    2.462    0.000    0.000    0.000    0.000 
#
# Total GULP energy -144748.786812 kJ/mol
# GULP energy per Si atom -5567.261031 kJ/mol
# Density = 1.907793 g / cm^3
# Si number density = 19.121455 Si / 1000 Ang^3
#
#
#
# Elastic Constant Matrix: (Units=GPa)
#
#
# Indices 1 2 3 4 5 6 
#
# 1 101.5045 32.2524 23.5345 0.0000 0.0000 0.0000
# 2 32.2524 125.3221 32.3553 -0.0001 0.0000 0.0000
# 3 23.5345 32.3553 32.1215 0.0000 0.0000 0.0000
# 4 0.0000 -0.0001 0.0000 24.6663 0.0000 0.0000
# 5 0.0000 0.0000 0.0000 0.0000 22.0405 0.0000
# 6 0.0000 0.0000 0.0000 0.0000 0.0000 46.6714
#
#
#
# Elastic Compliance Matrix: (Units=1/GPa)
#
#
# Indices 1 2 3 4 5 6 
#
# 1 0.011980 -0.001104 -0.007665 0.000000 0.000000 0.000000
# 2 -0.001104 0.010886 -0.010156 0.000000 0.000000 0.000000
# 3 -0.007665 -0.010156 0.046978 0.000000 0.000000 0.000000
# 4 0.000000 0.000000 0.000000 0.040541 0.000000 0.000000
# 5 0.000000 0.000000 0.000000 0.000000 0.045371 0.000000
# 6 0.000000 0.000000 0.000000 0.000000 0.000000 0.021426
#
#
# Mechanical properties :
#
#
# Convention : Reuss Voigt Hill
#
# Bulk Modulus (GPa) = 31.25699 48.35917 39.80808
# Shear Modulus (GPa) = 22.15366 30.06270 26.10818
#
# Velocity S-wave (km/s) = 3.40748 3.96940 3.69912
# Velocity P-wave (km/s) = 5.64475 6.80835 6.25367
#
# Compressibility (1/GPa) = 0.03199284
#
# Stress axis : x y z
#
# Youngs Moduli (GPa) = 83.47369 91.86436 21.28667
#
# Poissons Ratio (x) = 0.10143 0.16317
# Poissons Ratio (y) = 0.09216 0.21619
# Poissons Ratio (z) = 0.63984 0.93297
#
# Static dielectric constant tensor:
#      x y z
#    x 1.744680 0.000000 0.000000 
#    y 0.000000 1.769980 0.000000 
#    z 0.000000 0.000000 1.665290 
# 
# From -- ./inp_files/20276.got.cif
#   From: 2010.05.17/outbox.cif.g08.bks.cpg/sg23_11_cif.got.tgz:20276.got - 2010.06.04 12:02:01.
