data_PCOD9329132
_publ_section_title
;
Structure prediction by ZEFSAII (Michael W. Deem and Ramdas Pophale) SiO2 
 PCOD9329132
Probable space group: F 2 2 2
;
_chemical_formula_sum "Si O2"
_cell_formula_units_Z 64
_cell_length_a 7.283724
_cell_length_b 21.111250
_cell_length_c 16.246579
_cell_angle_alpha 90.000000
_cell_angle_beta 90.000000
_cell_angle_gamma 90.000000
_cell_volume 2498.212380
_symmetry_space_group_name_H-M "F 2 2 2"
_symmetry_group_IT_number 22
_symmetry_cell_setting 'orthorhombic'
loop_
_space_group_symop_operation_xyz
x,y,z
-x,-y,z
x,-y,-z
-x,y,-z
x,1/2+y,1/2+z
-x,1/2-y,1/2+z
x,1/2-y,1/2-z
-x,1/2+y,1/2-z
1/2+x,y,1/2+z
1/2-x,-y,1/2+z
1/2+x,-y,1/2-z
1/2-x,y,1/2-z
1/2+x,1/2+y,z
1/2-x,1/2-y,z
1/2+x,1/2-y,-z
1/2-x,1/2+y,-z
loop_
_atom_site_type_symbol
_atom_site_label
_atom_site_fract_x
_atom_site_fract_y
_atom_site_fract_z
Si Si1 0.319154 0.465696 0.912924
Si Si2 0.463672 0.758180 0.096807
Si Si3 0.430101 0.874140 0.647811
Si Si4 0.021086 0.601369 0.837516
O O1 0.500000 0.500000 0.873127
O O2 0.415776 0.396280 0.916852
O O3 0.129603 0.448468 0.868680
O O4 0.289125 0.500000 0.000000
O O5 0.250000 0.750000 0.116370
O O6 0.578671 0.701840 0.139877
O O7 0.498362 0.829629 0.123660
O O8 0.500000 0.752497 0.000000
O O9 0.495926 0.890600 0.739763
O O10 0.234498 0.910019 0.639208
#
# Coordination Sequence:
#
# PCOD9329132 Si02
#       4
#    16  16  16  16
#     4  11  27  47  76 109 159 213 276 335 395 472
#     4  12  25  42  79 119 165 203 259 336 420 497
#     4  11  25  49  81 116 159 208 273 333 416 494
#     4  11  25  50  79 118 159 213 264 338 416 493
#
# _framework density 25.618317999999999
#
# number of rings (size 3 to 8) (size 9 to 14) (size 15 to 20)
#    0.000    0.750    2.500    3.750    3.500    9.000 
#    9.000    0.000    0.000    0.000    0.000    0.000 
#    0.000    0.000    0.000    0.000    0.000    0.000 
#
# Total GULP energy -89511.006263 kJ/mol
# GULP energy per Si atom -5594.437891 kJ/mol
# Density = 2.556001 g / cm^3
# Si number density = 25.618318 Si / 1000 Ang^3
#
#
#
# Elastic Constant Matrix: (Units=GPa)
#
#
# Indices 1 2 3 4 5 6 
#
# 1 218.9266 94.2324 66.7104 0.0000 0.0000 0.0000
# 2 94.2324 138.2712 65.1708 0.0000 0.0000 0.0000
# 3 66.7104 65.1708 159.7295 0.0000 0.0000 0.0000
# 4 0.0000 0.0000 0.0000 66.2812 0.0000 0.0000
# 5 0.0000 0.0000 0.0000 0.0000 33.6093 0.0000
# 6 0.0000 0.0000 0.0000 0.0000 0.0000 76.5163
#
#
#
# Elastic Compliance Matrix: (Units=1/GPa)
#
#
# Indices 1 2 3 4 5 6 
#
# 1 0.006629 -0.003978 -0.001146 0.000000 0.000000 0.000000
# 2 -0.003978 0.011341 -0.002966 0.000000 0.000000 0.000000
# 3 -0.001146 -0.002966 0.007949 0.000000 0.000000 0.000000
# 4 0.000000 0.000000 0.000000 0.015087 0.000000 0.000000
# 5 0.000000 0.000000 0.000000 0.000000 0.029754 0.000000
# 6 0.000000 0.000000 0.000000 0.000000 0.000000 0.013069
#
#
# Mechanical properties :
#
#
# Convention : Reuss Voigt Hill
#
# Bulk Modulus (GPa) = 102.66350 107.68383 105.17367
# Shear Modulus (GPa) = 48.42413 54.66893 51.54653
#
# Velocity S-wave (km/s) = 4.35238 4.62451 4.49051
# Velocity P-wave (km/s) = 8.08819 8.40476 8.24799
#
# Compressibility (1/GPa) = 0.00974056
#
# Stress axis : x y z
#
# Youngs Moduli (GPa) = 150.85356 88.17657 125.79947
#
# Poissons Ratio (x) = 0.35074 0.14412
# Poissons Ratio (y) = 0.60005 0.37311
# Poissons Ratio (z) = 0.17282 0.26152
#
# Static dielectric constant tensor:
#      x y z
#    x 2.036730 0.000000 0.000000 
#    y 0.000000 2.187020 0.000000 
#    z 0.000000 0.000000 1.956860 
# 
# From -- ./inp_files/11135.got.cif
#   From: 2010.05.17/outbox.cif.g08.bks.cpg/sg22_6_cif.got.tgz:11135.got - 2010.06.03 23:40:54.
