data_PCOD9329583
_publ_section_title
;
Structure prediction by ZEFSAII (Michael W. Deem and Ramdas Pophale) SiO2 
 PCOD9329583
Probable space group: I 2 2 2
;
_chemical_formula_sum "Si O2"
_cell_formula_units_Z 60
_cell_length_a 11.524347
_cell_length_b 16.772339
_cell_length_c 13.279594
_cell_angle_alpha 90.000000
_cell_angle_beta 90.000000
_cell_angle_gamma 90.000000
_cell_volume 2566.816106
_symmetry_space_group_name_H-M "I 2 2 2"
_symmetry_group_IT_number 23
_symmetry_cell_setting 'orthorhombic'
loop_
_space_group_symop_operation_xyz
x,y,z
-x,-y,z
x,-y,-z
-x,y,-z
1/2+x,1/2+y,1/2+z
1/2-x,1/2-y,1/2+z
1/2+x,1/2-y,1/2-z
1/2-x,1/2+y,1/2-z
loop_
_atom_site_type_symbol
_atom_site_label
_atom_site_fract_x
_atom_site_fract_y
_atom_site_fract_z
Si Si1 0.208776 0.300876 0.594521
Si Si2 0.500000 0.500000 0.348352
Si Si3 0.324151 0.135582 0.869922
Si Si4 0.081090 0.136645 0.594625
Si Si5 0.927911 0.844861 0.814050
Si Si6 0.826290 0.545985 0.098813
Si Si7 0.072813 0.701744 0.819309
Si Si8 0.273481 0.031233 0.195374
O O1 0.203931 0.329203 0.478363
O O2 0.117167 0.229229 0.597151
O O3 0.325819 0.259893 0.637610
O O4 0.193159 0.381555 0.657740
O O5 0.470837 0.412028 0.391411
O O6 0.633134 0.481908 0.308652
O O7 0.208967 0.150207 0.803671
O O8 0.416586 0.180224 0.799670
O O9 0.332594 0.039711 0.870925
O O10 0.024483 0.125076 0.705127
O O11 0.198113 0.085017 0.585292
O O12 0.000000 0.119369 0.500000
O O13 0.961140 0.755343 0.837862
O O14 0.912020 0.618203 0.125445
O O15 0.816690 0.486640 0.192749
O O16 0.859546 0.500000 0.000000
#
# Coordination Sequence:
#
# PCOD9329583 Si02
#       8
#     8   4   8   8   8   8   8   8
#     4  11  21  37  61  89 120 174 200 261 328 386
#     4  10  18  32  56  90 120 152 190 248 328 366
#     4  10  21  39  57  90 122 158 214 259 321 389
#     4  11  23  37  60  99 124 161 220 257 329 387
#     4  11  20  38  60  88 130 161 200 265 318 392
#     4  10  22  38  60  94 125 168 212 265 327 387
#     4  10  21  39  58  88 128 164 208 261 322 390
#     4  10  20  37  58  85 127 155 203 257 315 388
#
# _framework density 23.375263
#
# number of rings (size 3 to 8) (size 9 to 14) (size 15 to 20)
#    0.000    1.600    6.667    1.200    1.867    2.933 
#    0.000    0.667    0.000   11.200    3.467    0.000 
#    0.000    0.000    0.000    0.000    0.000    0.000 
#
# Total GULP energy -167412.276171 kJ/mol
# GULP energy per Si atom -5580.409206 kJ/mol
# Density = 2.332206 g / cm^3
# Si number density = 23.375263 Si / 1000 Ang^3
#
#
#
# Elastic Constant Matrix: (Units=GPa)
#
#
# Indices 1 2 3 4 5 6 
#
# 1 29.8653 13.9798 1.8110 0.0000 0.0000 0.0000
# 2 13.9798 123.3517 50.7284 0.0001 0.0000 0.0000
# 3 1.8110 50.7284 119.2815 0.0001 0.0000 0.0000
# 4 0.0000 0.0001 0.0001 19.4096 0.0000 0.0000
# 5 0.0000 0.0000 0.0000 0.0000 8.0082 0.0000
# 6 0.0000 0.0000 0.0000 0.0000 0.0000 28.3167
#
#
#
# Elastic Compliance Matrix: (Units=1/GPa)
#
#
# Indices 1 2 3 4 5 6 
#
# 1 0.035558 -0.004615 0.001423 0.000000 0.000000 0.000000
# 2 -0.004615 0.010424 -0.004363 0.000000 0.000000 0.000000
# 3 0.001423 -0.004363 0.010218 0.000000 0.000000 0.000000
# 4 0.000000 0.000000 0.000000 0.051521 0.000000 0.000000
# 5 0.000000 0.000000 0.000000 0.000000 0.124871 0.000000
# 6 0.000000 0.000000 0.000000 0.000000 0.000000 0.035315
#
#
# Mechanical properties :
#
#
# Convention : Reuss Voigt Hill
#
# Bulk Modulus (GPa) = 24.33758 45.05966 34.69862
# Shear Modulus (GPa) = 16.85128 24.87888 20.86508
#
# Velocity S-wave (km/s) = 2.68787 3.26594 2.99091
# Velocity P-wave (km/s) = 4.47964 5.79140 5.17723
#
# Compressibility (1/GPa) = 0.04108872
#
# Stress axis : x y z
#
# Youngs Moduli (GPa) = 28.12333 95.92977 97.87112
#
# Poissons Ratio (x) = 0.44271 -0.13925
# Poissons Ratio (y) = 0.12979 0.42703
# Poissons Ratio (z) = -0.04001 0.41856
#
# Static dielectric constant tensor:
#      x y z
#    x 1.916290 0.000000 0.000000 
#    y 0.000000 1.897920 0.000000 
#    z 0.000000 0.000000 2.077920 
# 
# From -- ./inp_files/21725.got.cif
#   From: 2010.05.17/outbox.cif.g08.bks.cpg/sg23_11_cif.got.tgz:21725.got - 2010.06.04 12:02:01.
