data_PCOD9329163
_publ_section_title
;
Structure prediction by ZEFSAII (Michael W. Deem and Ramdas Pophale) SiO2 
 PCOD9329163
Probable space group: F 2 2 2
;
_chemical_formula_sum "Si O2"
_cell_formula_units_Z 112
_cell_length_a 26.911227
_cell_length_b 14.799396
_cell_length_c 14.140398
_cell_angle_alpha 90.000000
_cell_angle_beta 90.000000
_cell_angle_gamma 90.000000
_cell_volume 5631.694971
_symmetry_space_group_name_H-M "F 2 2 2"
_symmetry_group_IT_number 22
_symmetry_cell_setting 'orthorhombic'
loop_
_space_group_symop_operation_xyz
x,y,z
-x,-y,z
x,-y,-z
-x,y,-z
x,1/2+y,1/2+z
-x,1/2-y,1/2+z
x,1/2-y,1/2-z
-x,1/2+y,1/2-z
1/2+x,y,1/2+z
1/2-x,-y,1/2+z
1/2+x,-y,1/2-z
1/2-x,y,1/2-z
1/2+x,1/2+y,z
1/2-x,1/2-y,z
1/2+x,1/2-y,-z
1/2-x,1/2+y,-z
loop_
_atom_site_type_symbol
_atom_site_label
_atom_site_fract_x
_atom_site_fract_y
_atom_site_fract_z
Si Si1 0.291207 0.893548 0.386172
Si Si2 0.115012 0.155033 0.777145
Si Si3 0.559431 0.500000 0.110286
Si Si4 0.681196 0.392567 0.605152
Si Si5 0.681196 0.107433 0.105152
Si Si6 0.208793 0.106452 0.113828
Si Si7 0.884988 0.344967 0.722855
O O1 0.335205 0.835655 0.341234
O O2 0.235716 0.861668 0.360773
O O3 0.293875 0.891887 0.500000
O O4 0.298540 1.000000 0.356395
O O5 0.091015 0.250000 0.750000
O O6 0.080652 0.086309 0.833841
O O7 0.137296 0.119896 0.678543
O O8 0.500000 0.500000 0.110964
O O9 0.580652 0.586309 0.166158
O O10 0.576390 0.500000 0.000000
O O11 0.688459 0.500000 0.596014
O O12 0.671237 0.355444 0.500000
O O13 0.735716 0.361668 0.639227
O O14 0.637296 0.380104 0.678543
O O15 0.164795 0.164345 0.158766
O O16 0.908985 0.250000 0.750000
#
# Coordination Sequence:
#
# PCOD9329163 Si02
#       7
#    16  16  16  16  16  16  16
#     4   9  17  32  56  86 126 174 219 251 283 344
#     4  12  23  36  63  95 123 158 207 259 309 369
#     4  11  26  50  74  91 115 155 204 264 330 387
#     4   9  18  33  54  85 129 175 209 241 290 358
#     4   9  18  33  54  85 129 175 209 241 290 358
#     4   9  17  32  56  86 126 174 219 251 283 344
#     4  12  23  36  63  95 123 158 207 259 309 369
#
# _framework density 19.887440999999999
#
# number of rings (size 3 to 8) (size 9 to 14) (size 15 to 20)
#    0.000    1.857    2.857    3.429    0.000    7.429 
#    0.000    2.857    0.000    1.714    0.000    0.000 
#    0.000    0.000    0.000    0.000    0.000    0.000 
#
# Total GULP energy -156382.690119 kJ/mol
# GULP energy per Si atom -5585.096076 kJ/mol
# Density = 1.984218 g / cm^3
# Si number density = 19.887441 Si / 1000 Ang^3
#
#
#
# Elastic Constant Matrix: (Units=GPa)
#
#
# Indices 1 2 3 4 5 6 
#
# 1 74.0864 32.3508 48.3567 0.0000 0.0000 0.0000
# 2 32.3508 97.1657 39.6317 0.0000 0.0000 0.0000
# 3 48.3567 39.6317 125.6796 0.0000 0.0000 0.0000
# 4 0.0000 0.0000 0.0000 4.4281 0.0000 0.0000
# 5 0.0000 0.0000 0.0000 0.0000 29.4762 0.0000
# 6 0.0000 0.0000 0.0000 0.0000 0.0000 2.3284
#
#
#
# Elastic Compliance Matrix: (Units=1/GPa)
#
#
# Indices 1 2 3 4 5 6 
#
# 1 0.019221 -0.003882 -0.006171 0.000000 0.000000 0.000000
# 2 -0.003882 0.012595 -0.002478 0.000000 0.000000 0.000000
# 3 -0.006171 -0.002478 0.011113 0.000000 0.000000 0.000000
# 4 0.000000 0.000000 0.000000 0.225830 0.000000 0.000000
# 5 0.000000 0.000000 0.000000 0.000000 0.033926 0.000000
# 6 0.000000 0.000000 0.000000 0.000000 0.000000 0.429483
#
#
# Mechanical properties :
#
#
# Convention : Reuss Voigt Hill
#
# Bulk Modulus (GPa) = 55.97378 59.73447 57.85412
# Shear Modulus (GPa) = 6.55148 19.01936 12.78542
#
# Velocity S-wave (km/s) = 1.81698 3.09585 2.53828
# Velocity P-wave (km/s) = 5.71037 6.54832 6.14365
#
# Compressibility (1/GPa) = 0.01786551
#
# Stress axis : x y z
#
# Youngs Moduli (GPa) = 52.02618 79.39646 89.98815
#
# Poissons Ratio (x) = 0.30825 0.55534
# Poissons Ratio (y) = 0.20199 0.22298
# Poissons Ratio (z) = 0.32107 0.19674
#
# Static dielectric constant tensor:
#      x y z
#    x 1.667790 0.000000 0.000000 
#    y 0.000000 1.784980 0.000000 
#    z 0.000000 0.000000 1.727830 
# 
# From -- ./inp_files/29773.got.cif
#   From: 2010.05.17/outbox.cif.g08.bks.cpg/sg22_15_cif.got.tgz:29773.got - 2010.06.03 23:40:54.
