data_PCOD9329087
_publ_section_title
;
Structure prediction by ZEFSAII (Michael W. Deem and Ramdas Pophale) SiO2 
 PCOD9329087
Probable space group: F 2 2 2
;
_chemical_formula_sum "Si O2"
_cell_formula_units_Z 104
_cell_length_a 8.558626
_cell_length_b 31.322361
_cell_length_c 21.935871
_cell_angle_alpha 90.000000
_cell_angle_beta 90.000000
_cell_angle_gamma 90.000000
_cell_volume 5880.488741
_symmetry_space_group_name_H-M "F 2 2 2"
_symmetry_group_IT_number 22
_symmetry_cell_setting 'orthorhombic'
loop_
_space_group_symop_operation_xyz
x,y,z
-x,-y,z
x,-y,-z
-x,y,-z
x,1/2+y,1/2+z
-x,1/2-y,1/2+z
x,1/2-y,1/2-z
-x,1/2+y,1/2-z
1/2+x,y,1/2+z
1/2-x,-y,1/2+z
1/2+x,-y,1/2-z
1/2-x,y,1/2-z
1/2+x,1/2+y,z
1/2-x,1/2-y,z
1/2+x,1/2-y,-z
1/2-x,1/2+y,-z
loop_
_atom_site_type_symbol
_atom_site_label
_atom_site_fract_x
_atom_site_fract_y
_atom_site_fract_z
Si Si1 0.232163 0.335015 0.316409
Si Si2 0.193073 0.915452 0.895767
Si Si3 0.324934 0.481861 0.310017
Si Si4 0.490409 0.797429 0.241408
Si Si5 0.839112 0.064862 0.143347
Si Si6 0.816209 0.550231 0.985827
Si Si7 0.750000 0.630264 0.750000
O O1 0.250000 0.359046 0.250000
O O2 0.227619 0.368433 0.370059
O O3 0.371861 0.300986 0.309098
O O4 0.071668 0.310079 0.305739
O O5 0.315389 0.947815 0.863936
O O6 0.019558 0.929966 0.875724
O O7 0.217293 0.921539 0.967093
O O8 0.500000 0.500000 0.302778
O O9 0.250000 0.461289 0.250000
O O10 0.206835 0.520411 0.325022
O O11 0.428202 0.750000 0.250000
O O12 0.379238 0.836587 0.226665
O O13 0.733184 0.063442 0.082275
O O14 0.802355 0.100875 0.193687
O O15 0.780400 0.500000 0.000000
O O16 0.000000 0.555947 0.000000
#
# Coordination Sequence:
#
# PCOD9329087 Si02
#       7
#    16  16  16  16  16  16   8
#     4   8  18  33  57  88 119 144 192 227 289 356
#     4  12  22  39  59  83 116 161 202 248 295 343
#     4  12  25  35  55  79 118 162 203 244 298 340
#     4   9  19  37  60  90 122 150 180 237 306 365
#     4  12  24  40  55  88 119 158 206 245 291 349
#     4  11  25  41  59  80 114 165 214 251 287 340
#     4  12  23  36  60  94 126 148 192 246 297 350
#
# _framework density 17.685604999999999
#
# number of rings (size 3 to 8) (size 9 to 14) (size 15 to 20)
#    0.923    0.154    3.846    4.385    4.308    0.615 
#    0.000    0.000    0.000    0.000    0.000    6.462 
#    0.000    0.000    0.000    0.000    0.000    0.000 
#
# Total GULP energy -144848.189324 kJ/mol
# GULP energy per Si atom -5571.084205 kJ/mol
# Density = 1.764535 g / cm^3
# Si number density = 17.685605 Si / 1000 Ang^3
#
#
#
# Elastic Constant Matrix: (Units=GPa)
#
#
# Indices 1 2 3 4 5 6 
#
# 1 71.0527 11.9791 15.0700 0.0000 0.0000 0.0000
# 2 11.9791 92.0298 24.2672 0.0000 0.0000 0.0000
# 3 15.0700 24.2672 79.9799 0.0000 0.0000 0.0000
# 4 0.0000 0.0000 0.0000 11.3046 0.0000 0.0000
# 5 0.0000 0.0000 0.0000 0.0000 23.4009 0.0000
# 6 0.0000 0.0000 0.0000 0.0000 0.0000 29.8386
#
#
#
# Elastic Compliance Matrix: (Units=1/GPa)
#
#
# Indices 1 2 3 4 5 6 
#
# 1 0.014800 -0.001295 -0.002396 0.000000 0.000000 0.000000
# 2 -0.001295 0.011924 -0.003374 0.000000 0.000000 0.000000
# 3 -0.002396 -0.003374 0.013978 0.000000 0.000000 0.000000
# 4 0.000000 0.000000 0.000000 0.088459 0.000000 0.000000
# 5 0.000000 0.000000 0.000000 0.000000 0.042733 0.000000
# 6 0.000000 0.000000 0.000000 0.000000 0.000000 0.033514
#
#
# Mechanical properties :
#
#
# Convention : Reuss Voigt Hill
#
# Bulk Modulus (GPa) = 37.63118 38.41055 38.02087
# Shear Modulus (GPa) = 21.89170 25.69188 23.79179
#
# Velocity S-wave (km/s) = 3.52209 3.81557 3.67176
# Velocity P-wave (km/s) = 6.15339 6.41694 6.28655
#
# Compressibility (1/GPa) = 0.02657371
#
# Stress axis : x y z
#
# Youngs Moduli (GPa) = 67.56530 83.86248 71.53927
#
# Poissons Ratio (x) = 0.10858 0.17140
# Poissons Ratio (y) = 0.08748 0.24138
# Poissons Ratio (z) = 0.16188 0.28296
#
# Static dielectric constant tensor:
#      x y z
#    x 1.702950 0.000000 0.000000 
#    y 0.000000 1.598600 0.000000 
#    z 0.000000 0.000000 1.611500 
# 
# From -- ./inp_files/47501.got.cif
#   From: 2010.05.17/outbox.cif.g08.bks.cpg/sg22_24_cif.got.tgz:47501.got - 2010.06.03 23:40:54.
