data_PCOD9329126
_publ_section_title
;
Structure prediction by ZEFSAII (Michael W. Deem and Ramdas Pophale) SiO2 
 PCOD9329126
Probable space group: F 2 2 2
;
_chemical_formula_sum "Si O2"
_cell_formula_units_Z 68
_cell_length_a 21.842196
_cell_length_b 7.790632
_cell_length_c 16.957205
_cell_angle_alpha 90.000000
_cell_angle_beta 90.000000
_cell_angle_gamma 90.000000
_cell_volume 2885.514499
_symmetry_space_group_name_H-M "F 2 2 2"
_symmetry_group_IT_number 22
_symmetry_cell_setting 'orthorhombic'
loop_
_space_group_symop_operation_xyz
x,y,z
-x,-y,z
x,-y,-z
-x,y,-z
x,1/2+y,1/2+z
-x,1/2-y,1/2+z
x,1/2-y,1/2-z
-x,1/2+y,1/2-z
1/2+x,y,1/2+z
1/2-x,-y,1/2+z
1/2+x,-y,1/2-z
1/2-x,y,1/2-z
1/2+x,1/2+y,z
1/2-x,1/2-y,z
1/2+x,1/2-y,-z
1/2-x,1/2+y,-z
loop_
_atom_site_type_symbol
_atom_site_label
_atom_site_fract_x
_atom_site_fract_y
_atom_site_fract_z
Si Si1 0.400889 0.951867 0.878693
Si Si2 0.437655 0.560113 0.214873
Si Si3 0.353771 0.577982 0.914950
Si Si4 0.500000 0.000000 0.000000
Si Si5 0.263280 0.049675 0.842432
O O1 0.386849 0.761788 0.910600
O O2 0.428824 0.940921 0.791433
O O3 0.333688 0.028476 0.866250
O O4 0.448210 0.055580 0.934445
O O5 0.500000 0.500000 0.174465
O O6 0.439237 0.750000 0.250000
O O7 0.383469 0.536969 0.153799
O O8 0.281869 0.568762 0.893837
O O9 0.363822 0.500000 0.000000
O O10 0.250000 0.009694 0.750000
O O11 0.250000 0.250000 0.855080
#
# Coordination Sequence:
#
# PCOD9329126 Si02
#       5
#    16  16  16   4  16
#     4  12  27  50  78 111 157 208 262 321 401 473
#     4  12  26  48  74 106 154 210 265 317 397 482
#     4  12  29  46  77 118 151 199 263 333 392 466
#     4  12  32  48  78 116 162 208 260 328 392 464
#     4  11  25  48  81 115 158 205 260 329 400 475
#
# _framework density 23.565988000000001
#
# number of rings (size 3 to 8) (size 9 to 14) (size 15 to 20)
#    0.000    0.235    3.529    4.235    8.235    1.412 
#    0.000    0.000    0.000    0.000    0.000    0.000 
#    0.000    0.000    0.000    0.000    0.000    0.000 
#
# Total GULP energy -95057.909176 kJ/mol
# GULP energy per Si atom -5591.641716 kJ/mol
# Density = 2.351235 g / cm^3
# Si number density = 23.565988 Si / 1000 Ang^3
#
#
#
# Elastic Constant Matrix: (Units=GPa)
#
#
# Indices 1 2 3 4 5 6 
#
# 1 160.4616 16.4132 34.6088 -0.0002 0.0000 0.0000
# 2 16.4132 102.6851 28.8561 -0.0003 0.0000 0.0000
# 3 34.6088 28.8561 132.3547 -0.0001 0.0000 0.0000
# 4 -0.0002 -0.0003 -0.0001 -437.6881 0.0000 0.0003
# 5 0.0000 0.0000 0.0000 0.0000 48.2344 0.0000
# 6 0.0000 0.0000 0.0000 0.0003 0.0000 25.7935
#
#
#
# Elastic Compliance Matrix: (Units=1/GPa)
#
#
# Indices 1 2 3 4 5 6 
#
# 1 0.006640 -0.000611 -0.001603 0.000000 0.000000 0.000000
# 2 -0.000611 0.010430 -0.002114 0.000000 0.000000 0.000000
# 3 -0.001603 -0.002114 0.008436 0.000000 0.000000 0.000000
# 4 0.000000 0.000000 0.000000 -0.002285 0.000000 0.000000
# 5 0.000000 0.000000 0.000000 0.000000 0.020732 0.000000
# 6 0.000000 0.000000 0.000000 0.000000 0.000000 0.038769
#
#
# Mechanical properties :
#
#
# Convention : Reuss Voigt Hill
#
# Bulk Modulus (GPa) = 59.34872 61.69530 60.52201
# Shear Modulus (GPa) = 51.54839 -51.69050 -0.07105
#
# Velocity S-wave (km/s) = 4.68205 -4.68849 -0.17383
# Velocity P-wave (km/s) = 7.38021 1.75290 5.06926
#
# Compressibility (1/GPa) = 0.01684956
#
# Stress axis : x y z
#
# Youngs Moduli (GPa) = 150.59612 95.87445 118.54495
#
# Poissons Ratio (x) = 0.05857 0.19005
# Poissons Ratio (y) = 0.09200 0.25064
# Poissons Ratio (z) = 0.24143 0.20271
#
# Static dielectric constant tensor:
#      x y z
#    x 19.245420 0.000000 0.000000 
#    y 0.000000 1.910980 0.000000 
#    z 0.000000 0.000000 1.850410 
# 
# From -- ./inp_files/11252.got.cif
#   From: 2010.05.17/outbox.cif.g08.bks.cpg/sg22_6_cif.got.tgz:11252.got - 2010.06.03 23:40:54.
