data_PCOD9329794
_publ_section_title
;
Structure prediction by ZEFSAII (Michael W. Deem and Ramdas Pophale) SiO2 
 PCOD9329794
Probable space group: I 2 2 2
;
_chemical_formula_sum "Si O2"
_cell_formula_units_Z 56
_cell_length_a 15.005512
_cell_length_b 14.797587
_cell_length_c 12.777026
_cell_angle_alpha 90.000000
_cell_angle_beta 90.000000
_cell_angle_gamma 90.000000
_cell_volume 2837.079457
_symmetry_space_group_name_H-M "I 2 2 2"
_symmetry_group_IT_number 23
_symmetry_cell_setting 'orthorhombic'
loop_
_space_group_symop_operation_xyz
x,y,z
-x,-y,z
x,-y,-z
-x,y,-z
1/2+x,1/2+y,1/2+z
1/2-x,1/2-y,1/2+z
1/2+x,1/2-y,1/2-z
1/2-x,1/2+y,1/2-z
loop_
_atom_site_type_symbol
_atom_site_label
_atom_site_fract_x
_atom_site_fract_y
_atom_site_fract_z
Si Si1 0.648979 0.318428 0.308192
Si Si2 0.721699 0.503701 0.620130
Si Si3 0.583353 0.047295 0.810355
Si Si4 0.906140 0.258629 0.004883
Si Si5 0.449512 0.246483 0.261409
Si Si6 0.360217 0.060789 0.601026
Si Si7 0.780912 0.837259 0.732490
O O1 0.667356 0.424930 0.307229
O O2 0.661415 0.294647 0.432271
O O3 0.548920 0.286867 0.276010
O O4 0.720579 0.253180 0.252332
O O5 0.691939 0.500000 0.500000
O O6 0.823817 0.538083 0.629505
O O7 0.717375 0.403841 0.668569
O O8 0.552665 0.149178 0.790929
O O9 0.599247 0.995102 0.698235
O O10 0.500000 0.000000 0.864280
O O11 0.897003 0.269454 0.127617
O O12 0.916638 0.353543 0.941842
O O13 0.000000 0.206662 0.000000
O O14 0.381145 0.311810 0.202531
O O15 0.346631 0.000000 0.500000
O O16 0.270314 0.105297 0.644337
#
# Coordination Sequence:
#
# PCOD9329794 Si02
#       7
#     8   8   8   8   8   8   8
#     4  10  21  38  57  89 121 157 210 250 305 371
#     4  11  23  41  61  86 126 170 208 258 310 374
#     4  11  21  35  58  90 118 157 207 254 308 364
#     4   9  17  29  51  85 116 145 187 247 305 352
#     4  11  19  35  59  83 122 159 192 251 308 361
#     4  10  19  31  54  88 121 149 192 256 310 359
#     4  10  22  38  56  90 119 158 204 249 312 369
#
# _framework density 19.738606999999998
#
# number of rings (size 3 to 8) (size 9 to 14) (size 15 to 20)
#    0.000    1.714    2.857    4.286    0.000    0.857 
#    0.000    0.714    0.000    0.000    0.000   10.000 
#    0.000    0.000    0.000    0.000    0.000    0.000 
#
# Total GULP energy -155963.157062 kJ/mol
# GULP energy per Si atom -5570.112752 kJ/mol
# Density = 1.969368 g / cm^3
# Si number density = 19.738607 Si / 1000 Ang^3
#
#
#
# Elastic Constant Matrix: (Units=GPa)
#
#
# Indices 1 2 3 4 5 6 
#
# 1 117.4618 47.1293 3.2015 0.0000 0.0000 0.0000
# 2 47.1293 100.7365 17.5698 0.0000 0.0000 0.0000
# 3 3.2015 17.5698 30.2784 0.0000 0.0000 0.0000
# 4 0.0000 0.0000 0.0000 17.5051 0.0000 0.0000
# 5 0.0000 0.0000 0.0000 0.0000 16.2945 0.0000
# 6 0.0000 0.0000 0.0000 0.0000 0.0000 33.3664
#
#
#
# Elastic Compliance Matrix: (Units=1/GPa)
#
#
# Indices 1 2 3 4 5 6 
#
# 1 0.010583 -0.005292 0.001952 0.000000 0.000000 0.000000
# 2 -0.005292 0.013691 -0.007385 0.000000 0.000000 0.000000
# 3 0.001952 -0.007385 0.037106 0.000000 0.000000 0.000000
# 4 0.000000 0.000000 0.000000 0.057126 0.000000 0.000000
# 5 0.000000 0.000000 0.000000 0.000000 0.061370 0.000000
# 6 0.000000 0.000000 0.000000 0.000000 0.000000 0.029970
#
#
# Mechanical properties :
#
#
# Convention : Reuss Voigt Hill
#
# Bulk Modulus (GPa) = 25.04388 42.69753 33.87071
# Shear Modulus (GPa) = 20.44097 25.47161 22.95629
#
# Velocity S-wave (km/s) = 3.22154 3.59618 3.41400
# Velocity P-wave (km/s) = 5.15297 6.23873 5.72166
#
# Compressibility (1/GPa) = 0.03992991
#
# Stress axis : x y z
#
# Youngs Moduli (GPa) = 94.48705 73.04242 26.95001
#
# Poissons Ratio (x) = 0.38653 -0.05260
# Poissons Ratio (y) = 0.50001 0.19902
# Poissons Ratio (z) = -0.18441 0.53940
#
# Static dielectric constant tensor:
#      x y z
#    x 1.732610 0.000000 0.000000 
#    y 0.000000 1.752170 0.000000 
#    z 0.000000 0.000000 1.723240 
# 
# From -- ./inp_files/21696.got.cif
#   From: 2010.05.17/outbox.cif.g08.bks.cpg/sg23_11_cif.got.tgz:21696.got - 2010.06.04 12:02:01.
