data_PCOD9329003
_publ_section_title
;
Structure prediction by ZEFSAII (Michael W. Deem and Ramdas Pophale) SiO2 
 PCOD9329003
Probable space group: F 2 2 2
;
_chemical_formula_sum "Si O2"
_cell_formula_units_Z 64
_cell_length_a 7.682972
_cell_length_b 15.154452
_cell_length_c 22.802689
_cell_angle_alpha 90.000000
_cell_angle_beta 90.000000
_cell_angle_gamma 90.000000
_cell_volume 2654.945137
_symmetry_space_group_name_H-M "F 2 2 2"
_symmetry_group_IT_number 22
_symmetry_cell_setting 'orthorhombic'
loop_
_space_group_symop_operation_xyz
x,y,z
-x,-y,z
x,-y,-z
-x,y,-z
x,1/2+y,1/2+z
-x,1/2-y,1/2+z
x,1/2-y,1/2-z
-x,1/2+y,1/2-z
1/2+x,y,1/2+z
1/2-x,-y,1/2+z
1/2+x,-y,1/2-z
1/2-x,y,1/2-z
1/2+x,1/2+y,z
1/2-x,1/2-y,z
1/2+x,1/2-y,-z
1/2-x,1/2+y,-z
loop_
_atom_site_type_symbol
_atom_site_label
_atom_site_fract_x
_atom_site_fract_y
_atom_site_fract_z
Si Si1 0.500000 0.500000 0.326692
Si Si2 0.530803 0.106981 0.642568
Si Si3 0.201808 0.847963 0.542390
Si Si4 0.250000 0.620862 0.750000
Si Si5 0.819039 0.622017 0.915591
O O1 0.387306 0.435727 0.287097
O O2 0.369923 0.547591 0.369968
O O3 0.668771 0.115823 0.590570
O O4 0.620137 0.156727 0.698619
O O5 0.356509 0.154595 0.616924
O O6 0.500000 0.000000 0.654462
O O7 0.250000 0.750000 0.522035
O O8 0.221289 0.903383 0.482662
O O9 0.010736 0.837184 0.571344
#
# Coordination Sequence:
#
# PCOD9329003 Si02
#       5
#     8  16  16   8  16
#     4  12  20  43  68 106 135 174 226 296 348 416
#     4  12  24  42  71 105 140 183 233 292 352 422
#     4  11  27  45  66 102 146 183 231 292 350 430
#     4  12  22  42  65 106 145 176 232 296 350 408
#     4  11  24  41  71 101 136 184 225 283 363 419
#
# _framework density 24.10596
#
# number of rings (size 3 to 8) (size 9 to 14) (size 15 to 20)
#    0.000    0.500    6.250    0.750    7.000    8.000 
#    0.000    0.625    0.000    0.000    6.500    0.000 
#    0.000    0.000    0.000    0.000    0.000    0.000 
#
# Total GULP energy -89126.640097 kJ/mol
# GULP energy per Si atom -5570.415006 kJ/mol
# Density = 2.405109 g / cm^3
# Si number density = 24.105960 Si / 1000 Ang^3
#
#
#
# Elastic Constant Matrix: (Units=GPa)
#
#
# Indices 1 2 3 4 5 6 
#
# 1 195.0304 6.3998 72.1188 0.0000 0.0000 0.0000
# 2 6.3998 23.8597 5.9157 0.0000 0.0000 0.0000
# 3 72.1188 5.9157 173.3474 0.0000 0.0000 0.0000
# 4 0.0000 0.0000 0.0000 8.9390 0.0000 0.0000
# 5 0.0000 0.0000 0.0000 0.0000 36.7269 0.0000
# 6 0.0000 0.0000 0.0000 0.0000 0.0000 13.7426
#
#
#
# Elastic Compliance Matrix: (Units=1/GPa)
#
#
# Indices 1 2 3 4 5 6 
#
# 1 0.006084 -0.001013 -0.002497 0.000000 0.000000 0.000000
# 2 -0.001013 0.042438 -0.001027 0.000000 0.000000 0.000000
# 3 -0.002497 -0.001027 0.006842 0.000000 0.000000 0.000000
# 4 0.000000 0.000000 0.000000 0.111870 0.000000 0.000000
# 5 0.000000 0.000000 0.000000 0.000000 0.027228 0.000000
# 6 0.000000 0.000000 0.000000 0.000000 0.000000 0.072766
#
#
# Mechanical properties :
#
#
# Convention : Reuss Voigt Hill
#
# Bulk Modulus (GPa) = 21.60212 62.34513 41.97362
# Shear Modulus (GPa) = 17.13905 32.40191 24.77048
#
# Velocity S-wave (km/s) = 2.66933 3.67024 3.20905
# Velocity P-wave (km/s) = 4.29898 6.62419 5.58396
#
# Compressibility (1/GPa) = 0.04629175
#
# Stress axis : x y z
#
# Youngs Moduli (GPa) = 164.37067 23.56379 146.14655
#
# Poissons Ratio (x) = 0.02387 0.36486
# Poissons Ratio (y) = 0.16648 0.15007
# Poissons Ratio (z) = 0.41035 0.02420
#
# Static dielectric constant tensor:
#      x y z
#    x 1.992600 0.000000 0.000000 
#    y 0.000000 2.105900 0.000000 
#    z 0.000000 0.000000 1.899330 
# 
# From -- ./inp_files/47025.got.cif
#   From: 2010.05.17/outbox.cif.g08.bks.cpg/sg22_24_cif.got.tgz:47025.got - 2010.06.03 23:40:54.
