data_PCOD9329418
_publ_section_title
;
Structure prediction by ZEFSAII (Michael W. Deem and Ramdas Pophale) SiO2 
 PCOD9329418
Probable space group: I 2 2 2
;
_chemical_formula_sum "Si O2"
_cell_formula_units_Z 56
_cell_length_a 5.498303
_cell_length_b 25.301356
_cell_length_c 23.334993
_cell_angle_alpha 90.000000
_cell_angle_beta 90.000000
_cell_angle_gamma 90.000000
_cell_volume 3246.236388
_symmetry_space_group_name_H-M "I 2 2 2"
_symmetry_group_IT_number 23
_symmetry_cell_setting 'orthorhombic'
loop_
_space_group_symop_operation_xyz
x,y,z
-x,-y,z
x,-y,-z
-x,y,-z
1/2+x,1/2+y,1/2+z
1/2-x,1/2-y,1/2+z
1/2+x,1/2-y,1/2-z
1/2-x,1/2+y,1/2-z
loop_
_atom_site_type_symbol
_atom_site_label
_atom_site_fract_x
_atom_site_fract_y
_atom_site_fract_z
Si Si1 0.588669 0.059150 0.647873
Si Si2 0.776659 0.144829 0.826851
Si Si3 0.247301 0.033799 0.230276
Si Si4 0.778907 0.325310 0.679937
Si Si5 0.276185 0.148687 0.689694
Si Si6 0.723426 0.701475 0.797603
Si Si7 0.752419 0.938367 0.476793
O O1 0.740107 0.060531 0.706535
O O2 0.350842 0.095059 0.658123
O O3 0.741350 0.069154 0.591183
O O4 0.500000 0.000000 0.640277
O O5 0.765392 0.082946 0.812678
O O6 0.522048 0.160984 0.854107
O O7 0.776861 0.179461 0.767480
O O8 0.033465 0.160630 0.853130
O O9 0.500000 0.000000 0.224491
O O10 0.000000 0.000000 0.226275
O O11 0.775090 0.358418 0.740476
O O12 0.788072 0.264426 0.699446
O O13 0.516424 0.183986 0.677466
O O14 0.019454 0.175617 0.675278
O O15 0.500000 0.915517 0.500000
O O16 0.000000 0.914408 0.500000
O O17 0.752358 0.000000 0.500000
#
# Coordination Sequence:
#
# PCOD9329418 Si02
#       7
#     8   8   8   8   8   8   8
#     4  11  22  33  49  61  82 102 130 175 212 255
#     4  10  17  29  39  56  75  97 134 142 186 241
#     4  11  23  30  41  59  80 103 123 166 207 238
#     4  10  17  29  43  57  78 102 121 155 182 240
#     4  10  19  29  41  63  76  98 125 153 196 249
#     4  10  18  29  42  58  81  98 122 151 190 238
#     4  10  21  37  46  60  72  98 134 165 210 267
#
# _framework density 17.250747
#
# number of rings (size 3 to 8) (size 9 to 14) (size 15 to 20)
#    0.000    1.714    4.286    5.143    8.000    1.143 
#    0.000    0.000    0.000    0.000    0.000    0.000 
#    0.000    0.000    0.000    0.000    0.000    0.000 
#
# Total GULP energy -156040.797815 kJ/mol
# GULP energy per Si atom -5572.885636 kJ/mol
# Density = 1.721148 g / cm^3
# Si number density = 17.250747 Si / 1000 Ang^3
#
#
#
# Elastic Constant Matrix: (Units=GPa)
#
#
# Indices 1 2 3 4 5 6 
#
# 1 170.3997 33.8467 3.0900 0.0000 0.0000 0.0000
# 2 33.8467 62.1128 6.3909 0.0000 0.0000 0.0000
# 3 3.0900 6.3909 7.4334 0.0000 0.0000 0.0000
# 4 0.0000 0.0000 0.0000 -3.6122 0.0000 0.0000
# 5 0.0000 0.0000 0.0000 0.0000 11.7541 0.0000
# 6 0.0000 0.0000 0.0000 0.0000 0.0000 17.4424
#
#
#
# Elastic Compliance Matrix: (Units=1/GPa)
#
#
# Indices 1 2 3 4 5 6 
#
# 1 0.006582 -0.003626 0.000381 0.000000 0.000000 0.000000
# 2 -0.003626 0.019660 -0.015395 0.000000 0.000000 0.000000
# 3 0.000381 -0.015395 0.147606 0.000000 0.000000 0.000000
# 4 0.000000 0.000000 0.000000 -0.276843 0.000000 0.000000
# 5 0.000000 0.000000 0.000000 0.000000 0.085076 0.000000
# 6 0.000000 0.000000 0.000000 0.000000 0.000000 0.057332
#
#
# Mechanical properties :
#
#
# Convention : Reuss Voigt Hill
#
# Bulk Modulus (GPa) = 7.32237 36.28901 21.80569
# Shear Modulus (GPa) = 40.91173 18.22476 29.56825
#
# Velocity S-wave (km/s) = 4.87518 3.25385 4.14457
# Velocity P-wave (km/s) = 5.99531 5.93284 5.96416
#
# Compressibility (1/GPa) = 0.13656777
#
# Stress axis : x y z
#
# Youngs Moduli (GPa) = 151.93312 50.86578 6.77480
#
# Poissons Ratio (x) = 0.18443 -0.00258
# Poissons Ratio (y) = 0.55088 0.10430
# Poissons Ratio (z) = -0.05794 0.78309
#
# Static dielectric constant tensor:
#      x y z
#    x 1.713710 0.000000 0.000000 
#    y 0.000000 1.607020 0.000000 
#    z 0.000000 0.000000 1.571610 
# 
# From -- ./inp_files/4014.got.cif
#   From: 2010.05.17/outbox.cif.g08.bks.cpg/sg23_3_cif.got.tgz:4014.got - 2010.06.04 12:02:01.
