data_PCOD9329834
_publ_section_title
;
Structure prediction by ZEFSAII (Michael W. Deem and Ramdas Pophale) SiO2 
 PCOD9329834
Probable space group: I 2 2 2
;
_chemical_formula_sum "Si O2"
_cell_formula_units_Z 48
_cell_length_a 12.821231
_cell_length_b 12.560711
_cell_length_c 14.109258
_cell_angle_alpha 90.000000
_cell_angle_beta 90.000000
_cell_angle_gamma 90.000000
_cell_volume 2272.208203
_symmetry_space_group_name_H-M "I 2 2 2"
_symmetry_group_IT_number 23
_symmetry_cell_setting 'orthorhombic'
loop_
_space_group_symop_operation_xyz
x,y,z
-x,-y,z
x,-y,-z
-x,y,-z
1/2+x,1/2+y,1/2+z
1/2-x,1/2-y,1/2+z
1/2+x,1/2-y,1/2-z
1/2-x,1/2+y,1/2-z
loop_
_atom_site_type_symbol
_atom_site_label
_atom_site_fract_x
_atom_site_fract_y
_atom_site_fract_z
Si Si1 0.174743 0.190504 0.603217
Si Si2 0.587616 0.087570 0.188420
Si Si3 0.790205 0.004360 0.727148
Si Si4 0.500000 0.735317 0.500000
Si Si5 0.000000 0.677339 0.500000
Si Si6 0.170959 0.397983 0.946912
Si Si7 0.621948 0.702555 0.683822
O O1 0.076327 0.252204 0.564493
O O2 0.234186 0.140574 0.512906
O O3 0.259872 0.265898 0.653445
O O4 0.154451 0.094198 0.675245
O O5 0.582952 0.194847 0.254514
O O6 0.500000 0.000000 0.218338
O O7 0.704956 0.042253 0.199658
O O8 0.565243 0.113116 0.078476
O O9 0.716043 0.064081 0.651506
O O10 0.870147 0.092506 0.761422
O O11 0.585655 0.807543 0.447106
O O12 0.559258 0.681798 0.586968
O O13 0.124169 0.500000 0.000000
#
# Coordination Sequence:
#
# PCOD9329834 Si02
#       7
#     8   8   8   4   4   8   8
#     4   9  21  37  62  92 124 165 212 264 318 374
#     4  11  23  38  64  95 125 165 213 263 314 375
#     4  10  20  39  62  90 128 168 209 260 321 379
#     4  10  19  32  60  94 123 158 204 254 310 374
#     4  12  23  42  67  96 126 166 216 266 320 378
#     4   9  17  33  58  90 122 157 203 259 311 370
#     4  10  21  39  62  94 129 167 210 260 317 377
#
# _framework density 21.124825000000001
#
# number of rings (size 3 to 8) (size 9 to 14) (size 15 to 20)
#    0.000    2.000    0.000    4.500    0.000    0.000 
#    0.000   12.083    0.000    4.000    0.000    4.667 
#    0.000    0.000    0.000    0.000    0.000    0.000 
#
# Total GULP energy -134045.023070 kJ/mol
# GULP energy per Si atom -5585.209295 kJ/mol
# Density = 2.107674 g / cm^3
# Si number density = 21.124825 Si / 1000 Ang^3
#
#
#
# Elastic Constant Matrix: (Units=GPa)
#
#
# Indices 1 2 3 4 5 6 
#
# 1 47.3860 35.4598 24.0670 0.0000 0.0000 0.0000
# 2 35.4598 85.2691 40.3024 0.0000 0.0000 0.0000
# 3 24.0670 40.3024 88.0221 0.0000 0.0000 0.0000
# 4 0.0000 0.0000 0.0000 21.6398 0.0000 0.0000
# 5 0.0000 0.0000 0.0000 0.0000 -99.7034 0.0000
# 6 0.0000 0.0000 0.0000 0.0000 0.0000 13.9068
#
#
#
# Elastic Compliance Matrix: (Units=1/GPa)
#
#
# Indices 1 2 3 4 5 6 
#
# 1 0.031382 -0.011479 -0.003325 0.000000 0.000000 0.000000
# 2 -0.011479 0.019165 -0.005637 0.000000 0.000000 0.000000
# 3 -0.003325 -0.005637 0.014851 0.000000 0.000000 0.000000
# 4 0.000000 0.000000 0.000000 0.046211 0.000000 0.000000
# 5 0.000000 0.000000 0.000000 0.000000 -0.010030 0.000000
# 6 0.000000 0.000000 0.000000 0.000000 0.000000 0.071907
#
#
# Mechanical properties :
#
#
# Convention : Reuss Voigt Hill
#
# Bulk Modulus (GPa) = 40.78736 46.70397 43.74566
# Shear Modulus (GPa) = 22.46802 -4.77482 8.84660
#
# Velocity S-wave (km/s) = 3.26480 -1.50506 2.04863
# Velocity P-wave (km/s) = 5.79324 4.37451 5.13312
#
# Compressibility (1/GPa) = 0.02451740
#
# Stress axis : x y z
#
# Youngs Moduli (GPa) = 31.86573 52.17762 67.33746
#
# Poissons Ratio (x) = 0.59894 0.22387
# Poissons Ratio (y) = 0.36579 0.37955
# Poissons Ratio (z) = 0.10594 0.29410
#
# Static dielectric constant tensor:
#      x y z
#    x 1.792290 0.000000 0.000000 
#    y 0.000000 1.817490 0.000000 
#    z 0.000000 0.000000 1.754740 
# 
# From -- ./inp_files/21560.got.cif
#   From: 2010.05.17/outbox.cif.g08.bks.cpg/sg23_11_cif.got.tgz:21560.got - 2010.06.04 12:02:01.
