data_PCOD9329283
_publ_section_title
;
Structure prediction by ZEFSAII (Michael W. Deem and Ramdas Pophale) SiO2 
 PCOD9329283
Probable space group: F 2 2 2
;
_chemical_formula_sum "Si O2"
_cell_formula_units_Z 64
_cell_length_a 20.422746
_cell_length_b 7.557261
_cell_length_c 16.921016
_cell_angle_alpha 90.000000
_cell_angle_beta 90.000000
_cell_angle_gamma 90.000000
_cell_volume 2611.589979
_symmetry_space_group_name_H-M "F 2 2 2"
_symmetry_group_IT_number 22
_symmetry_cell_setting 'orthorhombic'
loop_
_space_group_symop_operation_xyz
x,y,z
-x,-y,z
x,-y,-z
-x,y,-z
x,1/2+y,1/2+z
-x,1/2-y,1/2+z
x,1/2-y,1/2-z
-x,1/2+y,1/2-z
1/2+x,y,1/2+z
1/2-x,-y,1/2+z
1/2+x,-y,1/2-z
1/2-x,y,1/2-z
1/2+x,1/2+y,z
1/2-x,1/2-y,z
1/2+x,1/2-y,-z
1/2-x,1/2+y,-z
loop_
_atom_site_type_symbol
_atom_site_label
_atom_site_fract_x
_atom_site_fract_y
_atom_site_fract_z
Si Si1 0.975522 0.255084 0.160082
Si Si2 0.225522 0.505084 0.089918
Si Si3 0.910946 0.091173 0.585758
Si Si4 0.660946 0.658827 0.835758
O O1 0.999514 0.250000 0.250000
O O2 0.936329 0.440394 0.146485
O O3 0.915315 0.118618 0.150839
O O4 0.035603 0.257290 0.099736
O O5 0.165315 0.368618 0.099161
O O6 0.285603 0.507290 0.150264
O O7 0.186329 0.690394 0.103515
O O8 0.249514 0.500000 0.000000
O O9 0.917166 0.000000 0.500000
O O10 0.667166 0.750000 0.750000
#
# Coordination Sequence:
#
# PCOD9329283 Si02
#       4
#    16  16  16  16
#     4   9  16  27  48  73  93 118 163 204 231 273
#     4   9  16  27  48  73  93 118 163 204 231 273
#     4   9  17  30  50  71  92 125 165 197 231 284
#     4   9  17  30  50  71  92 125 165 197 231 284
#
# _framework density 24.506145
#
# number of rings (size 3 to 8) (size 9 to 14) (size 15 to 20)
#    0.000    3.000    0.000    3.000    0.000    2.000 
#    0.000    0.000    0.000  108.000    0.000    0.000 
#    0.000    0.000    0.000    0.000    0.000    2.000 
#
# Total GULP energy -89192.374700 kJ/mol
# GULP energy per Si atom -5574.523419 kJ/mol
# Density = 2.445037 g / cm^3
# Si number density = 24.506145 Si / 1000 Ang^3
#
#
#
# Elastic Constant Matrix: (Units=GPa)
#
#
# Indices 1 2 3 4 5 6 
#
# 1 246.4223 24.8466 59.2052 0.0000 0.0000 0.0000
# 2 24.8466 45.9079 35.0830 0.0000 0.0000 0.0000
# 3 59.2052 35.0830 134.0018 0.0000 0.0000 0.0000
# 4 0.0000 0.0000 0.0000 29.8334 0.0000 0.0000
# 5 0.0000 0.0000 0.0000 0.0000 9.8893 0.0000
# 6 0.0000 0.0000 0.0000 0.0000 0.0000 18.0604
#
#
#
# Elastic Compliance Matrix: (Units=1/GPa)
#
#
# Indices 1 2 3 4 5 6 
#
# 1 0.004590 -0.001168 -0.001722 0.000000 0.000000 0.000000
# 2 -0.001168 0.027528 -0.006691 0.000000 0.000000 0.000000
# 3 -0.001722 -0.006691 0.009975 0.000000 0.000000 0.000000
# 4 0.000000 0.000000 0.000000 0.033519 0.000000 0.000000
# 5 0.000000 0.000000 0.000000 0.000000 0.101120 0.000000
# 6 0.000000 0.000000 0.000000 0.000000 0.000000 0.055370
#
#
# Mechanical properties :
#
#
# Convention : Reuss Voigt Hill
#
# Bulk Modulus (GPa) = 43.60950 73.84461 58.72705
# Shear Modulus (GPa) = 19.31191 32.03644 25.67418
#
# Velocity S-wave (km/s) = 2.81026 3.61956 3.24027
# Velocity P-wave (km/s) = 5.32579 6.90411 6.16566
#
# Compressibility (1/GPa) = 0.02293078
#
# Stress axis : x y z
#
# Youngs Moduli (GPa) = 217.88544 36.32629 100.24870
#
# Poissons Ratio (x) = 0.04243 0.17263
# Poissons Ratio (y) = 0.25450 0.67077
# Poissons Ratio (z) = 0.37519 0.24306
#
# Static dielectric constant tensor:
#      x y z
#    x 2.124140 0.000000 0.000000 
#    y 0.000000 2.046390 0.000000 
#    z 0.000000 0.000000 1.891700 
# 
# From -- ./inp_files/27912.got.cif
#   From: 2010.05.17/outbox.cif.g08.bks.cpg/sg22_14_cif.got.tgz:27912.got - 2010.06.03 23:40:54.
