data_PCOD9329774
_publ_section_title
;
Structure prediction by ZEFSAII (Michael W. Deem and Ramdas Pophale) SiO2 
 PCOD9329774
Probable space group: I 2 2 2
;
_chemical_formula_sum "Si O2"
_cell_formula_units_Z 42
_cell_length_a 10.615010
_cell_length_b 7.276469
_cell_length_c 23.727262
_cell_angle_alpha 90.000000
_cell_angle_beta 90.000000
_cell_angle_gamma 90.000000
_cell_volume 1832.688763
_symmetry_space_group_name_H-M "I 2 2 2"
_symmetry_group_IT_number 23
_symmetry_cell_setting 'orthorhombic'
loop_
_space_group_symop_operation_xyz
x,y,z
-x,-y,z
x,-y,-z
-x,y,-z
1/2+x,1/2+y,1/2+z
1/2-x,1/2-y,1/2+z
1/2+x,1/2-y,1/2-z
1/2-x,1/2+y,1/2-z
loop_
_atom_site_type_symbol
_atom_site_label
_atom_site_fract_x
_atom_site_fract_y
_atom_site_fract_z
Si Si1 0.000000 0.500000 0.000000
Si Si2 0.504126 0.212600 0.327349
Si Si3 0.233685 0.767829 0.374423
Si Si4 0.750653 0.301724 0.992819
Si Si5 0.257910 0.719241 0.121330
Si Si6 0.504557 0.278245 0.195861
O O1 0.104602 0.639962 0.975177
O O2 0.629289 0.295327 0.354481
O O3 0.369276 0.283364 0.347842
O O4 0.518407 0.219487 0.260231
O O5 0.500000 0.000000 0.345466
O O6 0.199822 0.704235 0.437664
O O7 0.127045 0.714320 0.330349
O O8 0.236684 0.993551 0.377050
O O9 0.683094 0.500000 0.000000
O O10 0.749265 0.224065 0.055599
O O11 0.380272 0.779483 0.155842
O O12 0.500000 0.500000 0.196305
#
# Coordination Sequence:
#
# PCOD9329774 Si02
#       6
#     2   8   8   8   8   8
#     4   8  12  20  40  62  96 112 150 178 228 266
#     4  10  19  31  49  68  88 122 164 192 218 268
#     4   9  17  28  45  68  94 119 149 191 235 276
#     4   8  14  23  42  68  92 115 143 190 237 268
#     4   9  17  28  45  68  94 119 149 191 235 276
#     4  10  20  32  44  67  99 124 149 186 236 280
#
# _framework density 22.917148000000001
#
# number of rings (size 3 to 8) (size 9 to 14) (size 15 to 20)
#    0.571    2.286    0.000    2.286    2.667    0.762 
#    0.000    3.810    0.000    0.000    0.000    8.000 
#    0.000    0.000    0.000    0.000    0.000    0.000 
#
# Total GULP energy -117051.306951 kJ/mol
# GULP energy per Si atom -5573.871760 kJ/mol
# Density = 2.286499 g / cm^3
# Si number density = 22.917148 Si / 1000 Ang^3
#
#
#
# Elastic Constant Matrix: (Units=GPa)
#
#
# Indices 1 2 3 4 5 6 
#
# 1 117.0662 -1.4624 55.2472 0.0000 0.0000 0.0000
# 2 -1.4624 81.7370 -18.0010 0.0000 0.0000 0.0000
# 3 55.2472 -18.0010 174.9248 0.0000 0.0000 0.0000
# 4 0.0000 0.0000 0.0000 11.8000 0.0000 0.0000
# 5 0.0000 0.0000 0.0000 0.0000 -79.2776 0.0000
# 6 0.0000 0.0000 0.0000 0.0000 0.0000 -14.9276
#
#
#
# Elastic Compliance Matrix: (Units=1/GPa)
#
#
# Indices 1 2 3 4 5 6 
#
# 1 0.010061 -0.000532 -0.003232 0.000000 0.000000 0.000000
# 2 -0.000532 0.012546 0.001459 0.000000 0.000000 0.000000
# 3 -0.003232 0.001459 0.006888 0.000000 0.000000 0.000000
# 4 0.000000 0.000000 0.000000 0.084746 0.000000 0.000000
# 5 0.000000 0.000000 0.000000 0.000000 -0.012614 0.000000
# 6 0.000000 0.000000 0.000000 0.000000 0.000000 -0.066990
#
#
# Mechanical properties :
#
#
# Convention : Reuss Voigt Hill
#
# Bulk Modulus (GPa) = 40.18532 49.47727 44.83129
# Shear Modulus (GPa) = 105.17046 6.04858 55.60952
#
# Velocity S-wave (km/s) = 6.78168 1.62636 4.93134
# Velocity P-wave (km/s) = 8.88227 5.01630 7.21311
#
# Compressibility (1/GPa) = 0.02488471
#
# Stress axis : x y z
#
# Youngs Moduli (GPa) = 99.39407 79.70552 145.18487
#
# Poissons Ratio (x) = 0.04239 0.46928
# Poissons Ratio (y) = 0.05286 -0.21183
# Poissons Ratio (z) = 0.32127 -0.11630
#
# Static dielectric constant tensor:
#      x y z
#    x 1.829870 0.000000 0.000000 
#    y 0.000000 2.158330 0.000000 
#    z 0.000000 0.000000 1.823490 
# 
# From -- ./inp_files/24283.got.cif
#   From: 2010.05.17/outbox.cif.g08.bks.cpg/sg23_13_cif.got.tgz:24283.got - 2010.06.04 12:02:01.
