data_PCOD9329792
_publ_section_title
;
Structure prediction by ZEFSAII (Michael W. Deem and Ramdas Pophale) SiO2 
 PCOD9329792
Probable space group: I 2 2 2
;
_chemical_formula_sum "Si O2"
_cell_formula_units_Z 40
_cell_length_a 16.258528
_cell_length_b 11.793784
_cell_length_c 7.953514
_cell_angle_alpha 90.000000
_cell_angle_beta 90.000000
_cell_angle_gamma 90.000000
_cell_volume 1525.082869
_symmetry_space_group_name_H-M "I 2 2 2"
_symmetry_group_IT_number 23
_symmetry_cell_setting 'orthorhombic'
loop_
_space_group_symop_operation_xyz
x,y,z
-x,-y,z
x,-y,-z
-x,y,-z
1/2+x,1/2+y,1/2+z
1/2-x,1/2-y,1/2+z
1/2+x,1/2-y,1/2-z
1/2-x,1/2+y,1/2-z
loop_
_atom_site_type_symbol
_atom_site_label
_atom_site_fract_x
_atom_site_fract_y
_atom_site_fract_z
Si Si1 0.138373 0.531653 0.717362
Si Si2 0.316574 0.454104 0.824517
Si Si3 0.490922 0.176069 0.201989
Si Si4 0.711094 0.229310 0.011032
Si Si5 0.867253 0.165566 0.170405
O O1 0.220127 0.490179 0.810611
O O2 0.076970 0.424719 0.704114
O O3 0.175511 0.606784 0.562337
O O4 0.072950 0.624568 0.783607
O O5 0.318026 0.320540 0.850130
O O6 0.361751 0.530117 0.686805
O O7 0.351404 0.500000 0.000000
O O8 0.456151 0.281629 0.304524
O O9 0.500000 0.202026 0.000000
O O10 0.808955 0.211748 0.023576
O O11 0.680410 0.281984 0.836681
#
# Coordination Sequence:
#
# PCOD9329792 Si02
#       5
#     8   8   8   8   8
#     4  10  19  31  54  79 106 137 176 231 263 312
#     4   9  19  35  53  76 112 146 181 212 273 334
#     4  11  20  32  53  82 109 131 180 231 272 306
#     4  10  19  34  53  76 109 145 181 217 265 321
#     4  10  20  34  55  77 110 144 176 224 267 323
#
# _framework density 26.228083999999999
#
# number of rings (size 3 to 8) (size 9 to 14) (size 15 to 20)
#    0.000    2.000    4.000    1.200    0.000    0.000 
#    0.000    3.000    0.000    0.000    0.000    0.000 
#    0.000    4.000    0.000    0.000    0.000    0.000 
#
# Total GULP energy -111650.515956 kJ/mol
# GULP energy per Si atom -5582.525798 kJ/mol
# Density = 2.616839 g / cm^3
# Si number density = 26.228084 Si / 1000 Ang^3
#
#
#
# Elastic Constant Matrix: (Units=GPa)
#
#
# Indices 1 2 3 4 5 6 
#
# 1 67.7759 22.1862 -11.8227 0.0000 0.0000 0.0000
# 2 22.1862 162.3510 9.7706 0.0000 0.0000 0.0000
# 3 -11.8227 9.7706 83.3521 0.0000 0.0000 0.0000
# 4 0.0000 0.0000 0.0000 19.9625 0.0000 0.0000
# 5 0.0000 0.0000 0.0000 0.0000 30.9140 0.0000
# 6 0.0000 0.0000 0.0000 0.0000 0.0000 42.4885
#
#
#
# Elastic Compliance Matrix: (Units=1/GPa)
#
#
# Indices 1 2 3 4 5 6 
#
# 1 0.015961 -0.002334 0.002538 0.000000 0.000000 0.000000
# 2 -0.002334 0.006545 -0.001098 0.000000 0.000000 0.000000
# 3 0.002538 -0.001098 0.012486 0.000000 0.000000 0.000000
# 4 0.000000 0.000000 0.000000 0.050094 0.000000 0.000000
# 5 0.000000 0.000000 0.000000 0.000000 0.032348 0.000000
# 6 0.000000 0.000000 0.000000 0.000000 0.000000 0.023536
#
#
# Mechanical properties :
#
#
# Convention : Reuss Voigt Hill
#
# Bulk Modulus (GPa) = 30.11826 39.30524 34.71175
# Shear Modulus (GPa) = 32.50432 38.22932 35.36682
#
# Velocity S-wave (km/s) = 3.52418 3.82196 3.67609
# Velocity P-wave (km/s) = 5.29792 5.87324 5.59298
#
# Compressibility (1/GPa) = 0.03320245
#
# Stress axis : x y z
#
# Youngs Moduli (GPa) = 62.65220 152.79951 80.09005
#
# Poissons Ratio (x) = 0.35662 -0.20323
# Poissons Ratio (y) = 0.14622 0.08795
# Poissons Ratio (z) = -0.15898 0.16780
#
# Static dielectric constant tensor:
#      x y z
#    x 2.060910 0.000000 0.000000 
#    y 0.000000 2.097040 0.000000 
#    z 0.000000 0.000000 2.179160 
# 
# From -- ./inp_files/10723.got.cif
#   From: 2010.05.17/outbox.cif.g08.bks.cpg/sg23_6_cif.got.tgz:10723.got - 2010.06.04 12:02:01.
