data_PCOD9329885
_publ_section_title
;
Structure prediction by ZEFSAII (Michael W. Deem and Ramdas Pophale) SiO2 
 PCOD9329885
Probable space group: I 2 2 2
;
_chemical_formula_sum "Si O2"
_cell_formula_units_Z 58
_cell_length_a 16.028641
_cell_length_b 11.774922
_cell_length_c 14.835331
_cell_angle_alpha 90.000000
_cell_angle_beta 90.000000
_cell_angle_gamma 90.000000
_cell_volume 2799.960995
_symmetry_space_group_name_H-M "I 2 2 2"
_symmetry_group_IT_number 23
_symmetry_cell_setting 'orthorhombic'
loop_
_space_group_symop_operation_xyz
x,y,z
-x,-y,z
x,-y,-z
-x,y,-z
1/2+x,1/2+y,1/2+z
1/2-x,1/2-y,1/2+z
1/2+x,1/2-y,1/2-z
1/2-x,1/2+y,1/2-z
loop_
_atom_site_type_symbol
_atom_site_label
_atom_site_fract_x
_atom_site_fract_y
_atom_site_fract_z
Si Si1 0.209064 0.123044 0.462817
Si Si2 0.954374 0.883039 0.378462
Si Si3 0.857367 0.353190 0.899241
Si Si4 0.536828 0.360808 0.400069
Si Si5 0.809153 0.441455 0.218347
Si Si6 0.582189 0.270712 0.756302
Si Si7 0.144655 0.001448 0.213042
Si Si8 0.000000 0.500000 0.000000
O O1 0.117608 0.172517 0.440346
O O2 0.275531 0.159222 0.537942
O O3 0.263225 0.109710 0.371191
O O4 0.184114 0.000000 0.500000
O O5 0.903750 0.928649 0.290784
O O6 0.024136 0.796622 0.342312
O O7 0.000000 0.000000 0.408455
O O8 0.886969 0.226635 0.885897
O O9 0.839319 0.434600 0.814309
O O10 0.935164 0.419109 0.946928
O O11 0.500000 0.359399 0.500000
O O12 0.471774 0.303136 0.331378
O O13 0.583087 0.478447 0.371240
O O14 0.879478 0.353177 0.247868
O O15 0.738098 0.454638 0.293499
O O16 0.649521 0.372619 0.749941
#
# Coordination Sequence:
#
# PCOD9329885 Si02
#       8
#     8   8   8   8   8   8   8   2
#     4   9  17  32  50  80 112 146 187 237 295 339
#     4   8  16  33  54  74 107 147 192 238 281 344
#     4  11  20  31  55  86 119 151 187 244 299 368
#     4  11  21  35  57  84 114 152 197 241 295 358
#     4  10  19  34  54  80 117 152 187 241 300 356
#     4  10  20  36  55  82 112 156 192 242 293 358
#     4   9  21  35  54  79 111 151 194 238 294 348
#     4  12  16  32  48  88 116 144 184 226 324 354
#
# _framework density 20.714575
#
# number of rings (size 3 to 8) (size 9 to 14) (size 15 to 20)
#    0.000    2.207    2.759    2.897    1.931    1.379 
#    0.000    0.000    0.000    0.000    0.000    0.000 
#    0.000    0.000   11.586    0.000    0.000    0.000 
#
# Total GULP energy -161540.008623 kJ/mol
# GULP energy per Si atom -5570.345125 kJ/mol
# Density = 2.066743 g / cm^3
# Si number density = 20.714575 Si / 1000 Ang^3
#
#
#
# Elastic Constant Matrix: (Units=GPa)
#
#
# Indices 1 2 3 4 5 6 
#
# 1 121.3471 31.6538 40.7210 0.0000 0.0000 0.0000
# 2 31.6538 40.6176 10.5078 0.0000 0.0000 0.0000
# 3 40.7210 10.5078 55.2170 0.0000 0.0000 0.0000
# 4 0.0000 0.0000 0.0000 -0.0184 0.0000 0.0000
# 5 0.0000 0.0000 0.0000 0.0000 143.8918 0.0000
# 6 0.0000 0.0000 0.0000 0.0000 0.0000 -6.3835
#
#
#
# Elastic Compliance Matrix: (Units=1/GPa)
#
#
# Indices 1 2 3 4 5 6 
#
# 1 0.013069 -0.008089 -0.008098 0.000000 0.000000 0.000000
# 2 -0.008089 0.030902 0.000085 0.000000 0.000000 0.000000
# 3 -0.008098 0.000085 0.024066 0.000000 0.000000 0.000000
# 4 0.000000 0.000000 0.000000-54.331304 0.000000 0.000000
# 5 0.000000 0.000000 0.000000 0.000000 0.006950 0.000000
# 6 0.000000 0.000000 0.000000 0.000000 0.000000 -0.156653
#
#
# Mechanical properties :
#
#
# Convention : Reuss Voigt Hill
#
# Bulk Modulus (GPa) = 27.90818 42.54965 35.22891
# Shear Modulus (GPa) = -0.09196 36.45125 18.17964
#
# Velocity S-wave (km/s) = -0.21093 4.19942 2.96569
# Velocity P-wave (km/s) = 3.66642 6.64071 5.36384
#
# Compressibility (1/GPa) = 0.03583179
#
# Stress axis : x y z
#
# Youngs Moduli (GPa) = 76.51944 32.36029 41.55166
#
# Poissons Ratio (x) = 0.26178 0.33650
# Poissons Ratio (y) = 0.61900 -0.00354
# Poissons Ratio (z) = 0.61968 -0.00275
#
# Static dielectric constant tensor:
#      x y z
#    x 1.859820 0.000000 0.000000 
#    y 0.000000 1.396840 0.000000 
#    z 0.000000 0.000000 1.877610 
# 
# From -- ./inp_files/22148.got.cif
#   From: 2010.05.17/outbox.cif.g08.bks.cpg/sg23_12_cif.got.tgz:22148.got - 2010.06.04 12:02:01.
