data_PCOD9329019
_publ_section_title
;
Structure prediction by ZEFSAII (Michael W. Deem and Ramdas Pophale) SiO2 
 PCOD9329019
Probable space group: F 2 2 2
;
_chemical_formula_sum "Si O2"
_cell_formula_units_Z 56
_cell_length_a 7.780797
_cell_length_b 16.464304
_cell_length_c 17.140109
_cell_angle_alpha 90.000000
_cell_angle_beta 90.000000
_cell_angle_gamma 90.000000
_cell_volume 2195.740642
_symmetry_space_group_name_H-M "F 2 2 2"
_symmetry_group_IT_number 22
_symmetry_cell_setting 'orthorhombic'
loop_
_space_group_symop_operation_xyz
x,y,z
-x,-y,z
x,-y,-z
-x,y,-z
x,1/2+y,1/2+z
-x,1/2-y,1/2+z
x,1/2-y,1/2-z
-x,1/2+y,1/2-z
1/2+x,y,1/2+z
1/2-x,-y,1/2+z
1/2+x,-y,1/2-z
1/2-x,y,1/2-z
1/2+x,1/2+y,z
1/2-x,1/2-y,z
1/2+x,1/2-y,-z
1/2-x,1/2+y,-z
loop_
_atom_site_type_symbol
_atom_site_label
_atom_site_fract_x
_atom_site_fract_y
_atom_site_fract_z
Si Si1 0.012454 0.410072 0.172711
Si Si2 0.503004 0.750000 0.250000
Si Si3 0.133920 0.648667 0.613811
Si Si4 0.235271 0.345129 0.565415
O O1 0.215301 0.397858 0.157949
O O2 0.000000 0.500000 0.204658
O O3 0.936732 0.339226 0.227843
O O4 0.101707 0.395967 0.905247
O O5 0.592629 0.726421 0.168102
O O6 0.210163 0.661145 0.527394
O O7 0.941257 0.615910 0.598013
O O8 0.250000 0.250000 0.592088
#
# Coordination Sequence:
#
# PCOD9329019 Si02
#       4
#    16   8  16  16
#     4  12  27  48  76 109 152 206 259 321 397 467
#     4  12  25  53  78 109 159 204 253 329 398 461
#     4  11  25  45  75 107 154 201 258 322 382 459
#     4  11  24  43  75 112 146 203 265 313 385 463
#
# _framework density 25.503923
#
# number of rings (size 3 to 8) (size 9 to 14) (size 15 to 20)
#    0.000    0.571    2.857    5.143    4.000    5.714 
#   10.286    2.857    0.000    0.000    0.000    0.000 
#    0.000    0.000    0.000    0.000    0.000    0.000 
#
# Total GULP energy -78082.549411 kJ/mol
# GULP energy per Si atom -5577.324958 kJ/mol
# Density = 2.544587 g / cm^3
# Si number density = 25.503923 Si / 1000 Ang^3
#
#
#
# Elastic Constant Matrix: (Units=GPa)
#
#
# Indices 1 2 3 4 5 6 
#
# 1 169.5856 45.8621 35.1703 0.0000 0.0000 0.0000
# 2 45.8621 155.0929 34.3234 0.0000 0.0000 0.0000
# 3 35.1703 34.3234 146.1951 0.0000 0.0000 0.0000
# 4 0.0000 0.0000 0.0000 4.2799 0.0000 0.0000
# 5 0.0000 0.0000 0.0000 0.0000 -86.4793 0.0000
# 6 0.0000 0.0000 0.0000 0.0000 0.0000 24.4932
#
#
#
# Elastic Compliance Matrix: (Units=1/GPa)
#
#
# Indices 1 2 3 4 5 6 
#
# 1 0.006600 -0.001688 -0.001192 0.000000 0.000000 0.000000
# 2 -0.001688 0.007233 -0.001292 0.000000 0.000000 0.000000
# 3 -0.001192 -0.001292 0.007430 0.000000 0.000000 0.000000
# 4 0.000000 0.000000 0.000000 0.233652 0.000000 0.000000
# 5 0.000000 0.000000 0.000000 0.000000 -0.011563 0.000000
# 6 0.000000 0.000000 0.000000 0.000000 0.000000 0.040828
#
#
# Mechanical properties :
#
#
# Convention : Reuss Voigt Hill
#
# Bulk Modulus (GPa) = 77.39859 77.95390 77.67624
# Shear Modulus (GPa) = 16.84469 12.15995 14.50232
#
# Velocity S-wave (km/s) = 2.57276 2.18592 2.38719
# Velocity P-wave (km/s) = 6.26411 6.08299 6.17421
#
# Compressibility (1/GPa) = 0.01292013
#
# Stress axis : x y z
#
# Youngs Moduli (GPa) = 151.50702 138.25787 134.58662
#
# Poissons Ratio (x) = 0.23339 0.16036
# Poissons Ratio (y) = 0.25576 0.17389
# Poissons Ratio (z) = 0.18052 0.17863
#
# Static dielectric constant tensor:
#      x y z
#    x 2.078740 0.000000 0.000000 
#    y 0.000000 2.020930 0.000000 
#    z 0.000000 0.000000 2.061140 
# 
# From -- ./inp_files/34701.got.cif
#   From: 2010.05.17/outbox.cif.g08.bks.cpg/sg22_18_cif.got.tgz:34701.got - 2010.06.03 23:40:54.
