data_PCOD9329338
_publ_section_title
;
Structure prediction by ZEFSAII (Michael W. Deem and Ramdas Pophale) SiO2 
 PCOD9329338
Probable space group: I 2 2 2
;
_chemical_formula_sum "Si O2"
_cell_formula_units_Z 48
_cell_length_a 5.425532
_cell_length_b 14.596172
_cell_length_c 28.836334
_cell_angle_alpha 90.000000
_cell_angle_beta 90.000000
_cell_angle_gamma 90.000000
_cell_volume 2283.606912
_symmetry_space_group_name_H-M "I 2 2 2"
_symmetry_group_IT_number 23
_symmetry_cell_setting 'orthorhombic'
loop_
_space_group_symop_operation_xyz
x,y,z
-x,-y,z
x,-y,-z
-x,y,-z
1/2+x,1/2+y,1/2+z
1/2-x,1/2-y,1/2+z
1/2+x,1/2-y,1/2-z
1/2-x,1/2+y,1/2-z
loop_
_atom_site_type_symbol
_atom_site_label
_atom_site_fract_x
_atom_site_fract_y
_atom_site_fract_z
Si Si1 0.486479 0.648021 0.286964
Si Si2 0.974432 0.673834 0.146517
Si Si3 0.513659 0.871166 0.830219
Si Si4 0.942050 0.601834 0.436887
Si Si5 0.025342 0.847653 0.676692
Si Si6 0.055049 0.214413 0.049581
O O1 0.486860 0.749143 0.311517
O O2 0.248477 0.601195 0.309555
O O3 0.458067 0.648052 0.232045
O O4 0.751310 0.607093 0.299033
O O5 0.227401 0.619376 0.152368
O O6 0.962998 0.725390 0.096773
O O7 0.730781 0.616002 0.156914
O O8 0.555044 0.904291 0.881474
O O9 0.508815 0.760803 0.834918
O O10 0.173420 0.667414 0.450440
O O11 0.000000 0.500000 0.453595
O O12 0.670558 0.640796 0.448455
O O13 0.000000 0.262793 0.000000
#
# Coordination Sequence:
#
# PCOD9329338 Si02
#       6
#     8   8   8   8   8   8
#     4  10  16  25  46  65  82 100 114 144 210 257
#     4  10  16  29  41  60  85  96 121 158 202 258
#     4  10  16  29  41  60  85  96 121 158 202 258
#     4  12  23  37  49  58  75 106 140 188 229 251
#     4  10  16  25  46  65  82 100 114 144 210 257
#     4  12  23  37  49  58  75 106 140 188 229 251
#
# _framework density 21.019380000000002
#
# number of rings (size 3 to 8) (size 9 to 14) (size 15 to 20)
#    0.000    1.333    6.667    6.000    0.000    2.000 
#    0.000    0.000    0.000    0.000    0.000    0.000 
#    0.000    0.000    0.000    0.000    0.000    0.000 
#
# Total GULP energy -133896.553448 kJ/mol
# GULP energy per Si atom -5579.023060 kJ/mol
# Density = 2.097154 g / cm^3
# Si number density = 21.019380 Si / 1000 Ang^3
#
#
#
# Elastic Constant Matrix: (Units=GPa)
#
#
# Indices 1 2 3 4 5 6 
#
# 1 186.2610 -5.3128 2.5421 0.0000 0.0000 0.0000
# 2 -5.3128 21.8875 -5.9089 0.0000 0.0000 0.0000
# 3 2.5421 -5.9089 110.1640 0.0000 0.0000 0.0000
# 4 0.0000 0.0000 0.0000 -4.2984 0.0000 0.0000
# 5 0.0000 0.0000 0.0000 0.0000 18.2890 0.0000
# 6 0.0000 0.0000 0.0000 0.0000 0.0000 -6.7546
#
#
#
# Elastic Compliance Matrix: (Units=1/GPa)
#
#
# Indices 1 2 3 4 5 6 
#
# 1 0.005407 0.001297 -0.000055 0.000000 0.000000 0.000000
# 2 0.001297 0.046671 0.002473 0.000000 0.000000 0.000000
# 3 -0.000055 0.002473 0.009211 0.000000 0.000000 0.000000
# 4 0.000000 0.000000 0.000000 -0.232643 0.000000 0.000000
# 5 0.000000 0.000000 0.000000 0.000000 0.054678 0.000000
# 6 0.000000 0.000000 0.000000 0.000000 0.000000 -0.148047
#
#
# Mechanical properties :
#
#
# Convention : Reuss Voigt Hill
#
# Bulk Modulus (GPa) = 14.55179 33.43925 23.99552
# Shear Modulus (GPa) = -20.06032 23.24666 1.59317
#
# Velocity S-wave (km/s) = -3.09264 3.32921 0.87155
# Velocity P-wave (km/s) = 2.41133 5.54270 3.52895
#
# Compressibility (1/GPa) = 0.06872007
#
# Stress axis : x y z
#
# Youngs Moduli (GPa) = 184.96008 21.42663 108.56212
#
# Poissons Ratio (x) = -0.02780 0.00599
# Poissons Ratio (y) = -0.23998 -0.26851
# Poissons Ratio (z) = 0.01020 -0.05300
#
# Static dielectric constant tensor:
#      x y z
#    x 1.893340 0.000000 0.000000 
#    y 0.000000 1.834570 0.000000 
#    z 0.000000 0.000000 1.757170 
# 
# From -- ./inp_files/3880.got.cif
#   From: 2010.05.17/outbox.cif.g08.bks.cpg/sg23_2_cif.got.tgz:3880.got - 2010.06.04 12:02:01.
