data_PCOD9329490
_publ_section_title
;
Structure prediction by ZEFSAII (Michael W. Deem and Ramdas Pophale) SiO2 
 PCOD9329490
Probable space group: I 2 2 2
;
_chemical_formula_sum "Si O2"
_cell_formula_units_Z 34
_cell_length_a 14.101266
_cell_length_b 17.920313
_cell_length_c 5.531844
_cell_angle_alpha 90.000000
_cell_angle_beta 90.000000
_cell_angle_gamma 90.000000
_cell_volume 1397.892002
_symmetry_space_group_name_H-M "I 2 2 2"
_symmetry_group_IT_number 23
_symmetry_cell_setting 'orthorhombic'
loop_
_space_group_symop_operation_xyz
x,y,z
-x,-y,z
x,-y,-z
-x,y,-z
1/2+x,1/2+y,1/2+z
1/2-x,1/2-y,1/2+z
1/2+x,1/2-y,1/2-z
1/2-x,1/2+y,1/2-z
loop_
_atom_site_type_symbol
_atom_site_label
_atom_site_fract_x
_atom_site_fract_y
_atom_site_fract_z
Si Si1 0.158105 0.584686 0.921956
Si Si2 0.000000 0.000000 0.000000
Si Si3 0.344144 0.692010 0.885168
Si Si4 0.371654 0.625305 0.375031
Si Si5 0.152934 0.369645 0.590846
O O1 0.246727 0.643363 0.898795
O O2 0.113817 0.595183 0.655935
O O3 0.184678 0.500000 0.000000
O O4 0.101555 0.610840 0.159323
O O5 0.066816 0.947850 0.846564
O O6 0.389929 0.666757 0.631067
O O7 0.331584 0.780466 0.901040
O O8 0.392487 0.673429 0.139396
O O9 0.261539 0.601250 0.387989
#
# Coordination Sequence:
#
# PCOD9329490 Si02
#       5
#     8   2   8   8   8
#     4  10  18  26  47  75 104 128 171 223 291 337
#     4  12  28  38  52  86 124 166 186 220 276 346
#     4  10  20  35  56  70  97 148 198 240 274 311
#     4  10  22  34  52  70 108 144 196 223 261 331
#     4  10  19  34  52  74  98 145 196 236 279 316
#
# _framework density 24.322337000000001
#
# number of rings (size 3 to 8) (size 9 to 14) (size 15 to 20)
#    0.000    1.882    0.000    7.765   13.176    1.882 
#    0.000    0.000    0.000    0.000    0.000    0.000 
#    0.000    0.000    0.000  206.471    0.000    0.000 
#
# Total GULP energy -94865.764925 kJ/mol
# GULP energy per Si atom -5580.339113 kJ/mol
# Density = 2.426698 g / cm^3
# Si number density = 24.322337 Si / 1000 Ang^3
#
#
#
# Elastic Constant Matrix: (Units=GPa)
#
#
# Indices 1 2 3 4 5 6 
#
# 1 59.5456 21.4968 26.8691 0.0000 0.0000 0.0000
# 2 21.4968 152.6872 60.2226 0.0000 0.0000 0.0000
# 3 26.8691 60.2226 283.2709 0.0000 0.0000 0.0000
# 4 0.0000 0.0000 0.0000 20.0865 0.0000 0.0000
# 5 0.0000 0.0000 0.0000 0.0000 6.6153 0.0000
# 6 0.0000 0.0000 0.0000 0.0000 0.0000 24.9874
#
#
#
# Elastic Compliance Matrix: (Units=1/GPa)
#
#
# Indices 1 2 3 4 5 6 
#
# 1 0.018111 -0.002044 -0.001283 0.000000 0.000000 0.000000
# 2 -0.002044 0.007379 -0.001375 0.000000 0.000000 0.000000
# 3 -0.001283 -0.001375 0.003944 0.000000 0.000000 0.000000
# 4 0.000000 0.000000 0.000000 0.049785 0.000000 0.000000
# 5 0.000000 0.000000 0.000000 0.000000 0.151164 0.000000
# 6 0.000000 0.000000 0.000000 0.000000 0.000000 0.040020
#
#
# Mechanical properties :
#
#
# Convention : Reuss Voigt Hill
#
# Bulk Modulus (GPa) = 49.92421 79.18675 64.55548
# Shear Modulus (GPa) = 17.45300 36.13218 26.79259
#
# Velocity S-wave (km/s) = 2.68166 3.85847 3.32258
# Velocity P-wave (km/s) = 5.49172 7.24419 6.42796
#
# Compressibility (1/GPa) = 0.02003036
#
# Stress axis : x y z
#
# Youngs Moduli (GPa) = 55.21586 135.51269 253.53400
#
# Poissons Ratio (x) = 0.27694 0.32538
# Poissons Ratio (y) = 0.11284 0.34861
# Poissons Ratio (z) = 0.07086 0.18633
#
# Static dielectric constant tensor:
#      x y z
#    x 1.961150 0.000000 0.000000 
#    y 0.000000 2.013830 0.000000 
#    z 0.000000 0.000000 2.056320 
# 
# From -- ./inp_files/2213.got.cif
#   From: 2010.05.17/outbox.cif.g08.bks.cpg/sg23_2_cif.got.tgz:2213.got - 2010.06.04 12:02:01.
