data_PCOD9329373
_publ_section_title
;
Structure prediction by ZEFSAII (Michael W. Deem and Ramdas Pophale) SiO2 
 PCOD9329373
Probable space group: I 2 2 2
;
_chemical_formula_sum "Si O2"
_cell_formula_units_Z 32
_cell_length_a 5.330430
_cell_length_b 32.026820
_cell_length_c 8.740378
_cell_angle_alpha 90.000000
_cell_angle_beta 90.000000
_cell_angle_gamma 90.000000
_cell_volume 1492.128682
_symmetry_space_group_name_H-M "I 2 2 2"
_symmetry_group_IT_number 23
_symmetry_cell_setting 'orthorhombic'
loop_
_space_group_symop_operation_xyz
x,y,z
-x,-y,z
x,-y,-z
-x,y,-z
1/2+x,1/2+y,1/2+z
1/2-x,1/2-y,1/2+z
1/2+x,1/2-y,1/2-z
1/2-x,1/2+y,1/2-z
loop_
_atom_site_type_symbol
_atom_site_label
_atom_site_fract_x
_atom_site_fract_y
_atom_site_fract_z
Si Si1 0.435619 0.682739 0.670954
Si Si2 0.753529 0.274345 0.100162
Si Si3 0.748603 0.114932 0.397942
Si Si4 0.749159 0.018121 0.324649
O O1 0.500000 0.668956 0.500000
O O2 0.691740 0.694703 0.761078
O O3 0.292260 0.727149 0.658837
O O4 0.282207 0.648855 0.765381
O O5 0.500000 0.276170 0.000000
O O6 0.000000 0.283863 0.000000
O O7 0.500000 0.120606 0.500000
O O8 0.743992 0.067790 0.334603
O O9 0.000000 0.118603 0.500000
O O10 0.500000 0.000000 0.250368
O O11 0.749427 0.000000 0.500000
O O12 0.000000 0.000000 0.251989
#
# Coordination Sequence:
#
# PCOD9329373 Si02
#       4
#     8   8   8   8
#     4  11  26  44  67  98 139 177 220 284 342 393
#     4  11  25  47  71  92 126 186 240 270 326 398
#     4  12  24  39  64 102 131 166 224 278 323 395
#     4  10  16  34  62  91 127 163 210 274 323 372
#
# _framework density 21.445872999999999
#
# number of rings (size 3 to 8) (size 9 to 14) (size 15 to 20)
#    0.000    1.000    5.000    3.750    0.000   13.000 
#    0.000    0.000    0.000    0.750    0.000    3.500 
#    0.000    0.000    0.000    0.000    0.000    0.000 
#
# Total GULP energy -89555.274443 kJ/mol
# GULP energy per Si atom -5597.204653 kJ/mol
# Density = 2.139706 g / cm^3
# Si number density = 21.445873 Si / 1000 Ang^3
#
#
#
# Elastic Constant Matrix: (Units=GPa)
#
#
# Indices 1 2 3 4 5 6 
#
# 1 217.4549 66.1376 79.3261 0.0000 0.0000 0.0000
# 2 66.1376 188.9418 71.5045 0.0000 0.0000 0.0000
# 3 79.3261 71.5045 118.6793 -0.0001 0.0000 0.0000
# 4 0.0000 0.0000 -0.0001 10.8157 0.0000 0.0000
# 5 0.0000 0.0000 0.0000 0.0000 16.5554 0.0000
# 6 0.0000 0.0000 0.0000 0.0000 0.0000 24.0563
#
#
#
# Elastic Compliance Matrix: (Units=1/GPa)
#
#
# Indices 1 2 3 4 5 6 
#
# 1 0.006168 -0.000776 -0.003655 0.000000 0.000000 0.000000
# 2 -0.000776 0.006953 -0.003671 0.000000 0.000000 0.000000
# 3 -0.003655 -0.003671 0.013081 0.000000 0.000000 0.000000
# 4 0.000000 0.000000 0.000000 0.092458 0.000000 0.000000
# 5 0.000000 0.000000 0.000000 0.000000 0.060403 0.000000
# 6 0.000000 0.000000 0.000000 0.000000 0.000000 0.041569
#
#
# Mechanical properties :
#
#
# Convention : Reuss Voigt Hill
#
# Bulk Modulus (GPa) = 100.01542 106.55695 103.28618
# Shear Modulus (GPa) = 20.81859 30.82600 25.82229
#
# Velocity S-wave (km/s) = 3.11907 3.79540 3.47373
# Velocity P-wave (km/s) = 7.72715 8.30669 8.02216
#
# Compressibility (1/GPa) = 0.00999846
#
# Stress axis : x y z
#
# Youngs Moduli (GPa) = 162.12581 143.81388 76.44592
#
# Poissons Ratio (x) = 0.11156 0.27944
# Poissons Ratio (y) = 0.12576 0.28063
# Poissons Ratio (z) = 0.59264 0.52794
#
# Static dielectric constant tensor:
#      x y z
#    x 1.785400 0.000000 0.000000 
#    y 0.000000 1.773780 0.000000 
#    z 0.000000 0.000000 1.790120 
# 
# From -- ./inp_files/5778.got.cif
#   From: 2010.05.17/outbox.cif.g08.bks.cpg/sg23_3_cif.got.tgz:5778.got - 2010.06.04 12:02:01.
