data_PCOD9329959
_publ_section_title
;
Structure prediction by ZEFSAII (Michael W. Deem and Ramdas Pophale) SiO2 
 PCOD9329959
Probable space group: I 2 2 2
;
_chemical_formula_sum "Si O2"
_cell_formula_units_Z 64
_cell_length_a 14.697855
_cell_length_b 8.045306
_cell_length_c 25.573561
_cell_angle_alpha 90.000000
_cell_angle_beta 90.000000
_cell_angle_gamma 90.000000
_cell_volume 3024.041392
_symmetry_space_group_name_H-M "I 2 2 2"
_symmetry_group_IT_number 23
_symmetry_cell_setting 'orthorhombic'
loop_
_space_group_symop_operation_xyz
x,y,z
-x,-y,z
x,-y,-z
-x,y,-z
1/2+x,1/2+y,1/2+z
1/2-x,1/2-y,1/2+z
1/2+x,1/2-y,1/2-z
1/2-x,1/2+y,1/2-z
loop_
_atom_site_type_symbol
_atom_site_label
_atom_site_fract_x
_atom_site_fract_y
_atom_site_fract_z
Si Si1 0.810017 0.701913 0.294624
Si Si2 0.790189 0.310506 0.309870
Si Si3 0.290058 0.699614 0.995678
Si Si4 0.505349 0.795970 0.168712
Si Si5 0.169032 0.691237 0.905904
Si Si6 0.711097 0.802041 0.399583
Si Si7 0.533016 0.808773 0.053195
Si Si8 0.515313 0.696637 0.440263
O O1 0.805556 0.505010 0.301980
O O2 0.765558 0.744701 0.239505
O O3 0.915145 0.759517 0.300754
O O4 0.750441 0.769423 0.342669
O O5 0.729817 0.278789 0.361596
O O6 0.893986 0.241618 0.312898
O O7 0.196943 0.738000 0.965246
O O8 0.360668 0.790365 0.957535
O O9 0.306110 0.500000 0.000000
O O10 0.282337 0.757118 0.055503
O O11 0.501030 0.739124 0.108174
O O12 0.500000 0.000000 0.168683
O O13 0.195032 0.498613 0.903041
O O14 0.062064 0.723475 0.903200
O O15 0.614385 0.726281 0.415822
O O16 0.500000 0.000000 0.052808
O O17 0.500000 0.722835 0.000000
O O18 0.500000 0.500000 0.441572
O O19 0.500000 0.760994 0.500000
#
# Coordination Sequence:
#
# PCOD9329959 Si02
#       8
#     8   8   8   8   8   8   8   8
#     4  11  24  43  66  96 126 169 224 276 327 387
#     4  11  23  44  68  93 128 170 221 275 328 388
#     4  10  21  37  61  93 133 169 208 258 325 392
#     4   9  20  39  64  91 122 160 211 263 318 380
#     4  11  22  41  66  93 129 173 211 264 331 389
#     4  11  23  41  64  96 133 171 214 264 328 395
#     4  10  19  35  57  93 124 164 212 254 317 381
#     4  11  23  40  61  97 131 172 221 272 321 384
#
# _framework density 21.163733000000001
#
# number of rings (size 3 to 8) (size 9 to 14) (size 15 to 20)
#    0.000    1.500    2.500    2.625    0.000    2.750 
#    4.500    6.250    0.000    0.000    0.000    0.000 
#    0.000    0.000    0.000    0.000    0.000    0.000 
#
# Total GULP energy -178551.868471 kJ/mol
# GULP energy per Si atom -5579.745890 kJ/mol
# Density = 2.111556 g / cm^3
# Si number density = 21.163733 Si / 1000 Ang^3
#
#
#
# Elastic Constant Matrix: (Units=GPa)
#
#
# Indices 1 2 3 4 5 6 
#
# 1 146.4704 10.5091 62.0846 0.0000 0.0000 0.0000
# 2 10.5091 27.4324 11.7247 0.0000 0.0000 0.0000
# 3 62.0846 11.7247 132.1972 0.0000 0.0000 0.0000
# 4 0.0000 0.0000 0.0000 19.3781 0.0000 0.0000
# 5 0.0000 0.0000 0.0000 0.0000 18.5968 0.0000
# 6 0.0000 0.0000 0.0000 0.0000 0.0000 24.0019
#
#
#
# Elastic Compliance Matrix: (Units=1/GPa)
#
#
# Indices 1 2 3 4 5 6 
#
# 1 0.008594 -0.001629 -0.003891 0.000000 0.000000 0.000000
# 2 -0.001629 0.038198 -0.002623 0.000000 0.000000 0.000000
# 3 -0.003891 -0.002623 0.009625 0.000000 0.000000 0.000000
# 4 0.000000 0.000000 0.000000 0.051605 0.000000 0.000000
# 5 0.000000 0.000000 0.000000 0.000000 0.053773 0.000000
# 6 0.000000 0.000000 0.000000 0.000000 0.000000 0.041663
#
#
# Mechanical properties :
#
#
# Convention : Reuss Voigt Hill
#
# Bulk Modulus (GPa) = 24.91892 52.74856 38.83374
# Shear Modulus (GPa) = 21.44813 27.18079 24.31446
#
# Velocity S-wave (km/s) = 3.18691 3.58761 3.39318
# Velocity P-wave (km/s) = 5.03406 6.49149 5.80867
#
# Compressibility (1/GPa) = 0.04013016
#
# Stress axis : x y z
#
# Youngs Moduli (GPa) = 116.36493 26.17919 103.90008
#
# Poissons Ratio (x) = 0.04264 0.40432
# Poissons Ratio (y) = 0.18955 0.27251
# Poissons Ratio (z) = 0.45282 0.06866
#
# Static dielectric constant tensor:
#      x y z
#    x 1.913360 0.000000 0.000000 
#    y 0.000000 1.779070 0.000000 
#    z 0.000000 0.000000 1.758380 
# 
# From -- ./inp_files/28563.got.cif
#   From: 2010.05.17/outbox.cif.g08.bks.cpg/sg23_15_cif.got.tgz:28563.got - 2010.06.04 12:02:01.
