data_PCOD9329705
_publ_section_title
;
Structure prediction by ZEFSAII (Michael W. Deem and Ramdas Pophale) SiO2 
 PCOD9329705
Probable space group: I 2 2 2
;
_chemical_formula_sum "Si O2"
_cell_formula_units_Z 52
_cell_length_a 8.862981
_cell_length_b 20.095422
_cell_length_c 14.493799
_cell_angle_alpha 90.000000
_cell_angle_beta 90.000000
_cell_angle_gamma 90.000000
_cell_volume 2581.423048
_symmetry_space_group_name_H-M "I 2 2 2"
_symmetry_group_IT_number 23
_symmetry_cell_setting 'orthorhombic'
loop_
_space_group_symop_operation_xyz
x,y,z
-x,-y,z
x,-y,-z
-x,y,-z
1/2+x,1/2+y,1/2+z
1/2-x,1/2-y,1/2+z
1/2+x,1/2-y,1/2-z
1/2-x,1/2+y,1/2-z
loop_
_atom_site_type_symbol
_atom_site_label
_atom_site_fract_x
_atom_site_fract_y
_atom_site_fract_z
Si Si1 0.000000 0.500000 0.334156
Si Si2 0.915269 0.289768 0.246573
Si Si3 0.500000 0.682189 0.000000
Si Si4 0.000000 0.149607 0.000000
Si Si5 0.002281 0.137931 0.702464
Si Si6 0.334781 0.123683 0.764801
Si Si7 0.763111 0.101477 0.852642
Si Si8 0.260717 0.770761 0.089908
O O1 0.916321 0.554810 0.275007
O O2 0.858524 0.456930 0.376366
O O3 0.975279 0.217262 0.275002
O O4 0.838127 0.332974 0.328359
O O5 0.786584 0.279648 0.170705
O O6 0.057421 0.329355 0.204114
O O7 0.503195 0.637807 0.908099
O O8 0.641727 0.732392 0.985533
O O9 0.116348 0.109824 0.064981
O O10 0.894747 0.198107 0.057646
O O11 0.165201 0.112089 0.735214
O O12 0.871517 0.100584 0.760732
O O13 0.338736 0.165912 0.860749
#
# Coordination Sequence:
#
# PCOD9329705 Si02
#       8
#     4   8   4   4   8   8   8   8
#     4  10  26  44  69  83 122 190 222 274 313 375
#     4  10  18  38  61  94 135 170 204 262 331 406
#     4  12  22  36  64 106 138 162 200 268 344 404
#     4  12  24  38  65  96 134 169 212 266 328 396
#     4  11  20  37  65  96 130 163 213 269 333 394
#     4  10  21  41  62  90 126 173 217 264 317 390
#     4  11  22  43  63  93 133 176 227 261 326 390
#     4  11  23  35  62  99 134 172 199 268 333 397
#
# _framework density 20.143927999999999
#
# number of rings (size 3 to 8) (size 9 to 14) (size 15 to 20)
#    0.000    1.231    6.154    1.846    4.308    0.615 
#    0.000    2.308    0.000    2.769    0.000    0.000 
#    0.000    0.000    0.000    0.000    0.000    0.000 
#
# Total GULP energy -144750.567060 kJ/mol
# GULP energy per Si atom -5567.329502 kJ/mol
# Density = 2.009808 g / cm^3
# Si number density = 20.143928 Si / 1000 Ang^3
#
#
#
# Elastic Constant Matrix: (Units=GPa)
#
#
# Indices 1 2 3 4 5 6 
#
# 1 158.7714 32.5297 33.9318 0.0000 0.0000 0.0000
# 2 32.5297 61.1945 12.1753 0.0000 0.0000 0.0000
# 3 33.9318 12.1753 81.1086 -0.0001 0.0000 0.0000
# 4 0.0000 0.0000 -0.0001 3.4168 0.0000 0.0000
# 5 0.0000 0.0000 0.0000 0.0000 24.2277 0.0000
# 6 0.0000 0.0000 0.0000 0.0000 0.0000 25.3665
#
#
#
# Elastic Compliance Matrix: (Units=1/GPa)
#
#
# Indices 1 2 3 4 5 6 
#
# 1 0.007582 -0.003504 -0.002646 0.000000 0.000000 0.000000
# 2 -0.003504 0.018464 -0.001306 0.000000 0.000000 0.000000
# 3 -0.002646 -0.001306 0.013632 0.000000 0.000000 0.000000
# 4 0.000000 0.000000 0.000000 0.292668 0.000000 0.000000
# 5 0.000000 0.000000 0.000000 0.000000 0.041275 0.000000
# 6 0.000000 0.000000 0.000000 0.000000 0.000000 0.039422
#
#
# Mechanical properties :
#
#
# Convention : Reuss Voigt Hill
#
# Bulk Modulus (GPa) = 40.37705 50.92756 45.65231
# Shear Modulus (GPa) = 11.46240 25.43140 18.44690
#
# Velocity S-wave (km/s) = 2.38801 3.55700 3.02943
# Velocity P-wave (km/s) = 5.26225 6.49665 5.91175
#
# Compressibility (1/GPa) = 0.02476654
#
# Stress axis : x y z
#
# Youngs Moduli (GPa) = 131.89652 54.16026 73.35661
#
# Poissons Ratio (x) = 0.18977 0.19409
# Poissons Ratio (y) = 0.46215 0.09579
# Poissons Ratio (z) = 0.34898 0.07072
#
# Static dielectric constant tensor:
#      x y z
#    x 1.740410 0.000000 0.000000 
#    y 0.000000 1.727980 0.000000 
#    z 0.000000 0.000000 1.833400 
# 
# From -- ./inp_files/20182.got.cif
#   From: 2010.05.17/outbox.cif.g08.bks.cpg/sg23_11_cif.got.tgz:20182.got - 2010.06.04 12:02:01.
