data_PCOD9329715
_publ_section_title
;
Structure prediction by ZEFSAII (Michael W. Deem and Ramdas Pophale) SiO2 
 PCOD9329715
Probable space group: I 2 2 2
;
_chemical_formula_sum "Si O2"
_cell_formula_units_Z 40
_cell_length_a 9.248495
_cell_length_b 25.123013
_cell_length_c 8.425998
_cell_angle_alpha 90.000000
_cell_angle_beta 90.000000
_cell_angle_gamma 90.000000
_cell_volume 1957.781142
_symmetry_space_group_name_H-M "I 2 2 2"
_symmetry_group_IT_number 23
_symmetry_cell_setting 'orthorhombic'
loop_
_space_group_symop_operation_xyz
x,y,z
-x,-y,z
x,-y,-z
-x,y,-z
1/2+x,1/2+y,1/2+z
1/2-x,1/2-y,1/2+z
1/2+x,1/2-y,1/2-z
1/2-x,1/2+y,1/2-z
loop_
_atom_site_type_symbol
_atom_site_label
_atom_site_fract_x
_atom_site_fract_y
_atom_site_fract_z
Si Si1 0.000000 0.000000 0.500000
Si Si2 0.919918 0.645025 0.659953
Si Si3 0.429968 0.270098 0.168244
Si Si4 0.249148 0.070756 0.365897
Si Si5 0.500000 0.000000 0.500000
Si Si6 0.685632 0.840588 0.608042
Si Si7 0.500000 0.245565 0.500000
O O1 0.893953 0.964677 0.387796
O O2 0.887327 0.708153 0.640711
O O3 0.786550 0.608333 0.715472
O O4 0.000000 0.626893 0.500000
O O5 0.045234 0.642134 0.794715
O O6 0.300743 0.309704 0.212113
O O7 0.523091 0.272168 0.329938
O O8 0.500000 0.287415 0.000000
O O9 0.248032 0.110821 0.515085
O O10 0.390885 0.034267 0.392492
O O11 0.636600 0.794228 0.485896
#
# Coordination Sequence:
#
# PCOD9329715 Si02
#       7
#     2   8   8   8   2   8   4
#     4  10  28  38  72  96 124 166 224 280 348 372
#     4  10  21  38  63  95 127 173 215 266 318 399
#     4  10  23  36  58  92 134 174 216 251 330 390
#     4  11  20  43  65  95 122 163 224 276 329 386
#     4  10  18  38  74  82 108 158 222 296 304 372
#     4  11  20  39  59  91 127 169 215 265 307 391
#     4  10  21  36  54  87 126 181 206 261 300 388
#
# _framework density 20.431291999999999
#
# number of rings (size 3 to 8) (size 9 to 14) (size 15 to 20)
#    0.000    1.600    6.000    0.000    9.800    0.000 
#    0.000    0.500    0.000    1.200    0.000    0.000 
#    0.000    0.000    0.000    0.000    0.000    0.000 
#
# Total GULP energy -111397.840008 kJ/mol
# GULP energy per Si atom -5569.892000 kJ/mol
# Density = 2.038479 g / cm^3
# Si number density = 20.431292 Si / 1000 Ang^3
#
#
#
# Elastic Constant Matrix: (Units=GPa)
#
#
# Indices 1 2 3 4 5 6 
#
# 1 98.5298 47.4631 21.8536 -0.0270 0.0006 0.0008
# 2 47.4631 76.5210 14.2894 -0.0070 0.0013 0.0007
# 3 21.8536 14.2894 104.0300 -0.1020 0.0078 0.0034
# 4 -0.0270 -0.0070 -0.1020 -26.8709 -0.0147 -0.0066
# 5 0.0006 0.0013 0.0078 -0.0147 22.4569 0.0021
# 6 0.0008 0.0007 0.0034 -0.0066 0.0021 49.1369
#
#
#
# Elastic Compliance Matrix: (Units=1/GPa)
#
#
# Indices 1 2 3 4 5 6 
#
# 1 0.014831 -0.008844 -0.001901 -0.000005 0.000001 0.000000
# 2 -0.008844 0.018686 -0.000709 0.000007 -0.000001 0.000000
# 3 -0.001901 -0.000709 0.010109 -0.000036 -0.000003 -0.000001
# 4 -0.000005 0.000007 -0.000036 -0.037215 -0.000024 -0.000005
# 5 0.000001 -0.000001 -0.000003 -0.000024 0.044530 -0.000002
# 6 0.000000 0.000000 -0.000001 -0.000005 -0.000002 0.020351
#
#
# Mechanical properties :
#
#
# Convention : Reuss Voigt Hill
#
# Bulk Modulus (GPa) = 48.26451 49.58811 48.92631
# Shear Modulus (GPa) = 49.45244 21.97623 35.71434
#
# Velocity S-wave (km/s) = 4.92512 3.28322 4.18547
# Velocity P-wave (km/s) = 7.48442 6.22061 6.88159
#
# Compressibility (1/GPa) = 0.02071916
#
# Stress axis : x y z
#
# Youngs Moduli (GPa) = 67.42533 53.51466 98.91944
#
# Poissons Ratio (x) = 0.47330 0.18802
# Poissons Ratio (y) = 0.59633 0.07011
# Poissons Ratio (z) = 0.12816 0.03793
#
# Static dielectric constant tensor:
#      x y z
#    x 2.129970 -0.000050 -0.000110 
#    y -0.000050 1.758640 0.000000 
#    z -0.000110 0.000000 1.808490 
# 
# From -- ./inp_files/6965.got.cif
#   From: 2010.05.17/outbox.cif.g08.bks.cpg/sg23_4_cif.got.tgz:6965.got - 2010.06.04 12:02:01.
