data_PCOD9329203
_publ_section_title
;
Structure prediction by ZEFSAII (Michael W. Deem and Ramdas Pophale) SiO2 
 PCOD9329203
Probable space group: F 2 2 2
;
_chemical_formula_sum "Si O2"
_cell_formula_units_Z 68
_cell_length_a 13.909274
_cell_length_b 12.954011
_cell_length_c 17.576774
_cell_angle_alpha 90.000000
_cell_angle_beta 90.000000
_cell_angle_gamma 90.000000
_cell_volume 3166.998754
_symmetry_space_group_name_H-M "F 2 2 2"
_symmetry_group_IT_number 22
_symmetry_cell_setting 'orthorhombic'
loop_
_space_group_symop_operation_xyz
x,y,z
-x,-y,z
x,-y,-z
-x,y,-z
x,1/2+y,1/2+z
-x,1/2-y,1/2+z
x,1/2-y,1/2-z
-x,1/2+y,1/2-z
1/2+x,y,1/2+z
1/2-x,-y,1/2+z
1/2+x,-y,1/2-z
1/2-x,y,1/2-z
1/2+x,1/2+y,z
1/2-x,1/2-y,z
1/2+x,1/2-y,-z
1/2-x,1/2+y,-z
loop_
_atom_site_type_symbol
_atom_site_label
_atom_site_fract_x
_atom_site_fract_y
_atom_site_fract_z
Si Si1 0.000000 0.000000 0.500000
Si Si2 0.353020 0.477989 0.918291
Si Si3 0.159522 0.849133 0.455820
Si Si4 0.652629 0.716966 0.115093
Si Si5 0.065118 0.708814 0.333881
O O1 0.071296 0.071720 0.546434
O O2 0.255577 0.414659 0.939860
O O3 0.334845 0.593756 0.891149
O O4 0.412590 0.409634 0.858148
O O5 0.401177 0.500000 0.000000
O O6 0.155349 0.784433 0.535511
O O7 0.135532 0.769576 0.390159
O O8 0.750000 0.750000 0.157296
O O9 0.546685 0.733197 0.148592
O O10 0.085959 0.750000 0.250000
#
# Coordination Sequence:
#
# PCOD9329203 Si02
#       5
#     4  16  16  16  16
#     4  12  20  40  68 110 134 180 242 316 352 430
#     4  12  24  43  76 114 140 191 256 314 380 436
#     4  12  23  42  75 107 141 189 256 315 363 438
#     4  12  23  46  74 108 143 192 259 317 363 447
#     4  12  28  48  69 106 158 200 242 308 387 454
#
# _framework density 21.471433000000001
#
# number of rings (size 3 to 8) (size 9 to 14) (size 15 to 20)
#    0.000    0.000    8.235    1.412    0.000    3.294 
#    4.235    2.353    0.000    0.000    0.000    0.000 
#    0.000    0.000    0.000    0.000    0.000    0.000 
#
# Total GULP energy -94872.752493 kJ/mol
# GULP energy per Si atom -5580.750147 kJ/mol
# Density = 2.142256 g / cm^3
# Si number density = 21.471433 Si / 1000 Ang^3
#
#
#
# Elastic Constant Matrix: (Units=GPa)
#
#
# Indices 1 2 3 4 5 6 
#
# 1 151.8574 46.2420 21.3265 0.0000 0.0000 0.0000
# 2 46.2420 143.7339 37.9190 0.0000 0.0000 0.0000
# 3 21.3265 37.9190 85.7285 0.0000 0.0000 0.0000
# 4 0.0000 0.0000 0.0000 25.0173 0.0000 0.0000
# 5 0.0000 0.0000 0.0000 0.0000 -10.0253 0.0000
# 6 0.0000 0.0000 0.0000 0.0000 0.0000 1.8945
#
#
#
# Elastic Compliance Matrix: (Units=1/GPa)
#
#
# Indices 1 2 3 4 5 6 
#
# 1 0.007359 -0.002134 -0.000887 0.000000 0.000000 0.000000
# 2 -0.002134 0.008495 -0.003227 0.000000 0.000000 0.000000
# 3 -0.000887 -0.003227 0.013313 0.000000 0.000000 0.000000
# 4 0.000000 0.000000 0.000000 0.039972 0.000000 0.000000
# 5 0.000000 0.000000 0.000000 0.000000 -0.099748 0.000000
# 6 0.000000 0.000000 0.000000 0.000000 0.000000 0.527856
#
#
# Mechanical properties :
#
#
# Convention : Reuss Voigt Hill
#
# Bulk Modulus (GPa) = 59.97986 65.81054 62.89520
# Shear Modulus (GPa) = 9.70308 21.76611 15.73460
#
# Velocity S-wave (km/s) = 2.12812 3.18736 2.70999
# Velocity P-wave (km/s) = 5.83386 6.65301 6.25685
#
# Compressibility (1/GPa) = 0.01667226
#
# Stress axis : x y z
#
# Youngs Moduli (GPa) = 135.88038 117.71666 75.11684
#
# Poissons Ratio (x) = 0.25117 0.06663
# Poissons Ratio (y) = 0.28992 0.24238
# Poissons Ratio (z) = 0.12053 0.37983
#
# Static dielectric constant tensor:
#      x y z
#    x 1.805500 0.000000 0.000000 
#    y 0.000000 1.818900 0.000000 
#    z 0.000000 0.000000 1.867010 
# 
# From -- ./inp_files/43299.got.cif
#   From: 2010.05.17/outbox.cif.g08.bks.cpg/sg22_22_cif.got.tgz:43299.got - 2010.06.03 23:40:54.
