data_PCOD9329873
_publ_section_title
;
Structure prediction by ZEFSAII (Michael W. Deem and Ramdas Pophale) SiO2 
 PCOD9329873
Probable space group: I 2 2 2
;
_chemical_formula_sum "Si O2"
_cell_formula_units_Z 36
_cell_length_a 21.254524
_cell_length_b 5.213328
_cell_length_c 15.178541
_cell_angle_alpha 90.000000
_cell_angle_beta 90.000000
_cell_angle_gamma 90.000000
_cell_volume 1681.885634
_symmetry_space_group_name_H-M "I 2 2 2"
_symmetry_group_IT_number 23
_symmetry_cell_setting 'orthorhombic'
loop_
_space_group_symop_operation_xyz
x,y,z
-x,-y,z
x,-y,-z
-x,y,-z
1/2+x,1/2+y,1/2+z
1/2-x,1/2-y,1/2+z
1/2+x,1/2-y,1/2-z
1/2-x,1/2+y,1/2-z
loop_
_atom_site_type_symbol
_atom_site_label
_atom_site_fract_x
_atom_site_fract_y
_atom_site_fract_z
Si Si1 0.772326 0.277704 0.357534
Si Si2 0.656532 0.497272 0.292797
Si Si3 0.040844 0.259426 0.754806
Si Si4 0.355733 0.500000 0.000000
Si Si5 0.117065 0.627391 0.638019
O O1 0.698608 0.334988 0.359833
O O2 0.807373 0.099735 0.426736
O O3 0.811642 0.534233 0.374077
O O4 0.792620 0.165571 0.262223
O O5 0.599197 0.682615 0.317894
O O6 0.622859 0.308716 0.223093
O O7 0.073960 0.385197 0.666857
O O8 0.000000 0.500000 0.788468
O O9 0.000000 0.000000 0.739243
O O10 0.397653 0.287742 0.949516
#
# Coordination Sequence:
#
# PCOD9329873 Si02
#       5
#     8   8   8   4   8
#     4  10  19  34  56  92 120 161 199 253 314 372
#     4  10  19  33  62  88 118 160 206 254 312 355
#     4  11  22  38  60  90 121 166 212 259 295 350
#     4  10  22  34  58  93 132 163 198 246 320 376
#     4  10  20  37  59  88 124 167 198 254 308 363
#
# _framework density 21.404547999999998
#
# number of rings (size 3 to 8) (size 9 to 14) (size 15 to 20)
#    0.000    1.778    4.444    0.667    0.000    0.000 
#    0.000    0.000    0.000   38.667    0.000    0.000 
#    0.000   24.889    0.000    0.000    0.000    0.000 
#
# Total GULP energy -100210.981266 kJ/mol
# GULP energy per Si atom -5567.276737 kJ/mol
# Density = 2.135583 g / cm^3
# Si number density = 21.404548 Si / 1000 Ang^3
#
#
#
# Elastic Constant Matrix: (Units=GPa)
#
#
# Indices 1 2 3 4 5 6 
#
# 1 111.9974 35.9085 -8.9674 0.0000 0.0000 0.0000
# 2 35.9085 105.3841 -14.8836 0.0000 0.0000 0.0000
# 3 -8.9674 -14.8836 -17.1461 0.0000 0.0000 0.0000
# 4 0.0000 0.0000 0.0000 20.1346 0.0000 0.0000
# 5 0.0000 0.0000 0.0000 0.0000 8.1357 0.0000
# 6 0.0000 0.0000 0.0000 0.0000 0.0000 38.0582
#
#
#
# Elastic Compliance Matrix: (Units=1/GPa)
#
#
# Indices 1 2 3 4 5 6 
#
# 1 0.009945 -0.003673 -0.002013 0.000000 0.000000 0.000000
# 2 -0.003673 0.009809 -0.006594 0.000000 0.000000 0.000000
# 3 -0.002013 -0.006594 -0.051546 0.000000 0.000000 0.000000
# 4 0.000000 0.000000 0.000000 0.049666 0.000000 0.000000
# 5 0.000000 0.000000 0.000000 0.000000 0.122915 0.000000
# 6 0.000000 0.000000 0.000000 0.000000 0.000000 0.026276
#
#
# Mechanical properties :
#
#
# Convention : Reuss Voigt Hill
#
# Bulk Modulus (GPa) = -17.74588 24.92782 3.59097
# Shear Modulus (GPa) = 28.92828 25.81089 27.36958
#
# Velocity S-wave (km/s) = 3.68027 3.47632 3.57974
# Velocity P-wave (km/s) = 3.12257 5.27109 4.33214
#
# Compressibility (1/GPa) = -0.05635111
#
# Stress axis : x y z
#
# Youngs Moduli (GPa) = 100.55050 101.94329 -19.40027
#
# Poissons Ratio (x) = 0.37444 -0.03905
# Poissons Ratio (y) = 0.36933 -0.12792
# Poissons Ratio (z) = 0.20241 0.67221
#
# Static dielectric constant tensor:
#      x y z
#    x 1.824710 0.000000 0.000000 
#    y 0.000000 1.969420 0.000000 
#    z 0.000000 0.000000 1.822220 
# 
# From -- ./inp_files/23096.got.cif
#   From: 2010.05.17/outbox.cif.g08.bks.cpg/sg23_12_cif.got.tgz:23096.got - 2010.06.04 12:02:01.
