data_PCOD9329520
_publ_section_title
;
Structure prediction by ZEFSAII (Michael W. Deem and Ramdas Pophale) SiO2 
 PCOD9329520
Probable space group: I 2 2 2
;
_chemical_formula_sum "Si O2"
_cell_formula_units_Z 56
_cell_length_a 20.641983
_cell_length_b 5.477790
_cell_length_c 25.413452
_cell_angle_alpha 90.000000
_cell_angle_beta 90.000000
_cell_angle_gamma 90.000000
_cell_volume 2873.561231
_symmetry_space_group_name_H-M "I 2 2 2"
_symmetry_group_IT_number 23
_symmetry_cell_setting 'orthorhombic'
loop_
_space_group_symop_operation_xyz
x,y,z
-x,-y,z
x,-y,-z
-x,y,-z
1/2+x,1/2+y,1/2+z
1/2-x,1/2-y,1/2+z
1/2+x,1/2-y,1/2-z
1/2-x,1/2+y,1/2-z
loop_
_atom_site_type_symbol
_atom_site_label
_atom_site_fract_x
_atom_site_fract_y
_atom_site_fract_z
Si Si1 0.923103 0.000000 0.320604
Si Si2 0.605431 0.499999 0.699331
Si Si3 0.780272 0.000001 0.111209
Si Si4 0.289082 0.000001 0.740062
Si Si5 0.329816 1.000000 0.438202
Si Si6 0.100066 0.500001 0.839120
Si Si7 0.635809 0.000000 0.156855
O O1 0.889365 0.000000 0.262534
O O2 0.901691 0.246050 0.350926
O O3 0.901691 0.753950 0.350926
O O4 0.000000 0.000000 0.312098
O O5 0.670253 0.499999 0.661680
O O6 0.572027 0.750906 0.682874
O O7 0.572027 0.249092 0.682874
O O8 0.794235 0.247671 0.078607
O O9 0.794235 0.752330 0.078607
O O10 0.705989 0.000000 0.129658
O O11 0.250000 0.250001 0.750000
O O12 0.325086 0.000001 0.684148
O O13 0.346997 0.000000 0.781423
O O14 0.393870 0.999999 0.401593
O O15 0.341519 0.000000 0.500000
#
# Coordination Sequence:
#
# PCOD9329520 Si02
#       7
#     8   8   8   8   8   8   8
#     4  12  24  37  50  72 109 154 184 213 258 303
#     4  10  18  34  47  72 101 134 174 214 237 308
#     4  10  21  33  53  80 104 136 179 211 264 316
#     4  12  19  27  46  73 102 131 164 204 244 296
#     4  10  19  33  49  74 112 140 161 209 270 333
#     4  10  18  30  44  69  97 133 173 200 237 304
#     4  12  23  34  54  76 110 141 184 219 251 311
#
# _framework density 19.488014
#
# number of rings (size 3 to 8) (size 9 to 14) (size 15 to 20)
#    0.000    1.143    2.857    6.857    0.000    0.000 
#    0.000    0.000    0.000    0.000    0.000    0.000 
#    0.000   94.857    0.000    0.000    0.000    0.000 
#
# Total GULP energy -156143.611109 kJ/mol
# GULP energy per Si atom -5576.557540 kJ/mol
# Density = 1.944366 g / cm^3
# Si number density = 19.488014 Si / 1000 Ang^3
#
#
#
# Elastic Constant Matrix: (Units=GPa)
#
#
# Indices 1 2 3 4 5 6 
#
# 1 74.7061 36.4717 -3.8934 0.0000 0.0000 0.0000
# 2 36.4717 224.4789 15.3429 0.0000 0.0000 0.0000
# 3 -3.8934 15.3429 44.7058 0.0000 0.0000 0.0000
# 4 0.0000 0.0000 0.0000 23.3259 0.0000 0.0000
# 5 0.0000 0.0000 0.0000 0.0000 -4.4530 0.0000
# 6 0.0000 0.0000 0.0000 0.0000 0.0000 -12.5048
#
#
#
# Elastic Compliance Matrix: (Units=1/GPa)
#
#
# Indices 1 2 3 4 5 6 
#
# 1 0.014739 -0.002542 0.002156 0.000000 0.000000 0.000000
# 2 -0.002542 0.005000 -0.001937 0.000000 0.000000 0.000000
# 3 0.002156 -0.001937 0.023221 0.000000 0.000000 0.000000
# 4 0.000000 0.000000 0.000000 0.042871 0.000000 0.000000
# 5 0.000000 0.000000 0.000000 0.000000 -0.224567 0.000000
# 6 0.000000 0.000000 0.000000 0.000000 0.000000 -0.079969
#
#
# Mechanical properties :
#
#
# Convention : Reuss Voigt Hill
#
# Bulk Modulus (GPa) = 26.10036 48.85924 37.47980
# Shear Modulus (GPa) = -24.84012 21.00493 -1.91760
#
# Velocity S-wave (km/s) = -3.57408 3.28661 -0.99304
# Velocity P-wave (km/s) = 1.89998 6.28715 4.23782
#
# Compressibility (1/GPa) = 0.03831365
#
# Stress axis : x y z
#
# Youngs Moduli (GPa) = 67.84623 199.99184 43.06421
#
# Poissons Ratio (x) = 0.50840 -0.09285
# Poissons Ratio (y) = 0.17247 0.08343
# Poissons Ratio (z) = -0.14628 0.38747
#
# Static dielectric constant tensor:
#      x y z
#    x 1.715130 0.000000 0.000000 
#    y 0.000000 1.783570 0.000000 
#    z 0.000000 0.000000 1.655050 
# 
# From -- ./inp_files/29716.got.cif
#   From: 2010.05.17/outbox.cif.g08.bks.cpg/sg23_15_cif.got.tgz:29716.got - 2010.06.04 12:02:01.
