data_PCOD9329609
_publ_section_title
;
Structure prediction by ZEFSAII (Michael W. Deem and Ramdas Pophale) SiO2 
 PCOD9329609
Probable space group: I 2 2 2
;
_chemical_formula_sum "Si O2"
_cell_formula_units_Z 36
_cell_length_a 18.244684
_cell_length_b 20.967567
_cell_length_c 5.226732
_cell_angle_alpha 90.000000
_cell_angle_beta 90.000000
_cell_angle_gamma 90.000000
_cell_volume 1999.468734
_symmetry_space_group_name_H-M "I 2 2 2"
_symmetry_group_IT_number 23
_symmetry_cell_setting 'orthorhombic'
loop_
_space_group_symop_operation_xyz
x,y,z
-x,-y,z
x,-y,-z
-x,y,-z
1/2+x,1/2+y,1/2+z
1/2-x,1/2-y,1/2+z
1/2+x,1/2-y,1/2-z
1/2-x,1/2+y,1/2-z
loop_
_atom_site_type_symbol
_atom_site_label
_atom_site_fract_x
_atom_site_fract_y
_atom_site_fract_z
Si Si1 0.285033 0.217187 0.722015
Si Si2 0.906871 0.871436 0.305013
Si Si3 0.885323 0.000000 0.500000
Si Si4 0.319215 0.388281 0.289089
Si Si5 0.958798 0.261232 0.751801
O O1 0.350050 0.375653 0.570518
O O2 0.259419 0.143788 0.755229
O O3 0.372261 0.224603 0.742173
O O4 0.243858 0.254905 0.951899
O O5 0.929835 0.944688 0.354102
O O6 0.868399 0.852671 0.572885
O O7 0.963391 0.816401 0.246357
O O8 0.834081 0.960712 0.698414
O O9 0.000000 0.284315 0.500000
O O10 0.000000 0.286104 0.000000
#
# Coordination Sequence:
#
# PCOD9329609 Si02
#       5
#     8   8   4   8   8
#     4  12  20  37  60  83 108 150 195 237 282 334
#     4  10  19  35  55  74 115 144 182 231 275 325
#     4   8  20  32  59  82 111 134 200 244 260 326
#     4  10  18  33  57  82 107 138 186 248 269 313
#     4  12  24  37  55  83 121 154 184 230 288 343
#
# _framework density 18.004781999999999
#
# number of rings (size 3 to 8) (size 9 to 14) (size 15 to 20)
#    1.333    0.000    4.444    3.333    0.000    0.000 
#    0.000    0.556    0.000    0.000    0.000    0.778 
#    0.000    0.000    0.000    0.000    0.000    0.000 
#
# Total GULP energy -100230.530070 kJ/mol
# GULP energy per Si atom -5568.362782 kJ/mol
# Density = 1.796380 g / cm^3
# Si number density = 18.004782 Si / 1000 Ang^3
#
#
#
# Elastic Constant Matrix: (Units=GPa)
#
#
# Indices 1 2 3 4 5 6 
#
# 1 117.7252 11.5846 54.9732 0.0000 0.0000 0.0000
# 2 11.5846 38.3443 6.5624 0.0000 0.0000 0.0000
# 3 54.9732 6.5624 108.6549 0.0000 0.0000 0.0000
# 4 0.0000 0.0000 0.0000 14.9456 0.0000 0.0000
# 5 0.0000 0.0000 0.0000 0.0000 27.3015 0.0000
# 6 0.0000 0.0000 0.0000 0.0000 0.0000 16.6490
#
#
#
# Elastic Compliance Matrix: (Units=1/GPa)
#
#
# Indices 1 2 3 4 5 6 
#
# 1 0.011349 -0.002472 -0.005593 0.000000 0.000000 0.000000
# 2 -0.002472 0.026890 -0.000374 0.000000 0.000000 0.000000
# 3 -0.005593 -0.000374 0.012056 0.000000 0.000000 0.000000
# 4 0.000000 0.000000 0.000000 0.066909 0.000000 0.000000
# 5 0.000000 0.000000 0.000000 0.000000 0.036628 0.000000
# 6 0.000000 0.000000 0.000000 0.000000 0.000000 0.060064
#
#
# Mechanical properties :
#
#
# Convention : Reuss Voigt Hill
#
# Bulk Modulus (GPa) = 29.92306 45.66276 37.79291
# Shear Modulus (GPa) = 20.66868 24.55281 22.61075
#
# Velocity S-wave (km/s) = 3.39182 3.69681 3.54760
# Velocity P-wave (km/s) = 5.65640 6.60594 6.14953
#
# Compressibility (1/GPa) = 0.03341904
#
# Stress axis : x y z
#
# Youngs Moduli (GPa) = 88.11199 37.18827 82.94876
#
# Poissons Ratio (x) = 0.09192 0.46391
# Poissons Ratio (y) = 0.21778 0.03099
# Poissons Ratio (z) = 0.49279 0.01389
#
# Static dielectric constant tensor:
#      x y z
#    x 1.629890 0.000000 0.000000 
#    y 0.000000 1.668600 0.000000 
#    z 0.000000 0.000000 1.646330 
# 
# From -- ./inp_files/4425.got.cif
#   From: 2010.05.17/outbox.cif.g08.bks.cpg/sg23_3_cif.got.tgz:4425.got - 2010.06.04 12:02:01.
