data_PCOD9329413
_publ_section_title
;
Structure prediction by ZEFSAII (Michael W. Deem and Ramdas Pophale) SiO2 
 PCOD9329413
Probable space group: I 2 2 2
;
_chemical_formula_sum "Si O2"
_cell_formula_units_Z 64
_cell_length_a 7.373452
_cell_length_b 14.893993
_cell_length_c 31.531079
_cell_angle_alpha 90.000000
_cell_angle_beta 90.000000
_cell_angle_gamma 90.000000
_cell_volume 3462.747588
_symmetry_space_group_name_H-M "I 2 2 2"
_symmetry_group_IT_number 23
_symmetry_cell_setting 'orthorhombic'
loop_
_space_group_symop_operation_xyz
x,y,z
-x,-y,z
x,-y,-z
-x,y,-z
1/2+x,1/2+y,1/2+z
1/2-x,1/2-y,1/2+z
1/2+x,1/2-y,1/2-z
1/2-x,1/2+y,1/2-z
loop_
_atom_site_type_symbol
_atom_site_label
_atom_site_fract_x
_atom_site_fract_y
_atom_site_fract_z
Si Si1 0.223141 0.342257 0.366239
Si Si2 0.283938 0.475915 0.776533
Si Si3 0.883416 0.780317 0.288065
Si Si4 0.216918 0.980215 0.821723
Si Si5 0.235408 0.901393 0.046596
Si Si6 0.794151 0.110028 0.951744
Si Si7 0.153408 0.196526 0.132966
Si Si8 0.703870 0.165508 0.295632
O O1 0.149565 0.274088 0.331279
O O2 0.190123 0.441427 0.347900
O O3 0.174135 0.344261 0.415914
O O4 0.440151 0.326506 0.367664
O O5 0.500000 0.500000 0.781255
O O6 0.259450 0.370738 0.787652
O O7 0.236558 0.484463 0.727146
O O8 0.177121 0.558584 0.797536
O O9 0.872697 0.718153 0.245849
O O10 0.084152 0.817942 0.288229
O O11 0.247402 0.881440 0.839336
O O12 0.000000 0.000000 0.824768
O O13 0.014876 0.895450 0.047216
O O14 0.270630 0.007200 0.055837
O O15 0.279841 0.871370 0.998835
O O16 0.764463 0.180730 0.913846
O O17 0.163405 0.287148 0.159691
#
# Coordination Sequence:
#
# PCOD9329413 Si02
#       8
#     8   8   8   8   8   8   8   8
#     4  10  17  28  46  68  94 123 152 185 223 264
#     4   9  18  32  46  59  85 121 153 182 220 265
#     4  11  21  33  48  66  88 118 155 189 224 269
#     4   9  14  24  43  64  89 123 151 174 217 267
#     4   8  13  22  41  69  95 121 155 187 215 262
#     4   8  13  22  41  69  95 121 155 187 215 262
#     4  10  17  28  46  68  94 123 152 185 223 264
#     4  11  21  33  48  66  88 118 155 189 224 269
#
# _framework density 18.482431999999999
#
# number of rings (size 3 to 8) (size 9 to 14) (size 15 to 20)
#    0.000    2.500    3.750    1.500    0.000    0.000 
#    0.000    4.375    0.000    0.750    0.000    2.625 
#    0.000    7.000    0.000    0.000    0.000    0.000 
#
# Total GULP energy -178334.255552 kJ/mol
# GULP energy per Si atom -5572.945486 kJ/mol
# Density = 1.844037 g / cm^3
# Si number density = 18.482432 Si / 1000 Ang^3
#
#
#
# Elastic Constant Matrix: (Units=GPa)
#
#
# Indices 1 2 3 4 5 6 
#
# 1 42.1073 8.9846 3.2751 0.0000 0.0000 0.0000
# 2 8.9846 90.6134 64.0443 0.0000 0.0000 0.0000
# 3 3.2751 64.0443 130.8237 0.0000 0.0000 0.0000
# 4 0.0000 0.0000 0.0000 11.2351 0.0000 0.0000
# 5 0.0000 0.0000 0.0000 0.0000 2.3812 0.0000
# 6 0.0000 0.0000 0.0000 0.0000 0.0000 14.3346
#
#
#
# Elastic Compliance Matrix: (Units=1/GPa)
#
#
# Indices 1 2 3 4 5 6 
#
# 1 0.024327 -0.003030 0.000874 0.000000 0.000000 0.000000
# 2 -0.003030 0.017252 -0.008370 0.000000 0.000000 0.000000
# 3 0.000874 -0.008370 0.011719 0.000000 0.000000 0.000000
# 4 0.000000 0.000000 0.000000 0.089007 0.000000 0.000000
# 5 0.000000 0.000000 0.000000 0.000000 0.419963 0.000000
# 6 0.000000 0.000000 0.000000 0.000000 0.000000 0.069761
#
#
# Mechanical properties :
#
#
# Convention : Reuss Voigt Hill
#
# Bulk Modulus (GPa) = 31.01001 46.23915 38.62458
# Shear Modulus (GPa) = 7.53205 18.07286 12.80245
#
# Velocity S-wave (km/s) = 2.02091 3.13044 2.63474
# Velocity P-wave (km/s) = 4.71805 6.17563 5.49538
#
# Compressibility (1/GPa) = 0.03224765
#
# Stress axis : x y z
#
# Youngs Moduli (GPa) = 41.10595 57.96420 85.32856
#
# Poissons Ratio (x) = 0.17564 -0.07461
# Poissons Ratio (y) = 0.12456 0.71418
# Poissons Ratio (z) = -0.03594 0.48515
#
# Static dielectric constant tensor:
#      x y z
#    x 1.749760 0.000000 0.000000 
#    y 0.000000 1.672440 0.000000 
#    z 0.000000 0.000000 1.775920 
# 
# From -- ./inp_files/10433.got.cif
#   From: 2010.05.17/outbox.cif.g08.bks.cpg/sg23_6_cif.got.tgz:10433.got - 2010.06.04 12:02:01.
