data_PCOD9329912
_publ_section_title
;
Structure prediction by ZEFSAII (Michael W. Deem and Ramdas Pophale) SiO2 
 PCOD9329912
Probable space group: I 2 2 2
;
_chemical_formula_sum "Si O2"
_cell_formula_units_Z 32
_cell_length_a 5.145592
_cell_length_b 8.359836
_cell_length_c 33.436329
_cell_angle_alpha 90.000000
_cell_angle_beta 90.000000
_cell_angle_gamma 90.000000
_cell_volume 1438.307334
_symmetry_space_group_name_H-M "I 2 2 2"
_symmetry_group_IT_number 23
_symmetry_cell_setting 'orthorhombic'
loop_
_space_group_symop_operation_xyz
x,y,z
-x,-y,z
x,-y,-z
-x,y,-z
1/2+x,1/2+y,1/2+z
1/2-x,1/2-y,1/2+z
1/2+x,1/2-y,1/2-z
1/2-x,1/2+y,1/2-z
loop_
_atom_site_type_symbol
_atom_site_label
_atom_site_fract_x
_atom_site_fract_y
_atom_site_fract_z
Si Si1 0.747825 0.681172 0.518301
Si Si2 0.128869 0.834886 0.641792
Si Si3 0.132566 0.164120 0.263990
Si Si4 0.133534 0.830925 0.888227
O O1 0.748878 0.500000 0.500000
O O2 0.500000 0.765073 0.500000
O O3 0.722972 0.669170 0.565591
O O4 0.000000 0.760228 0.500000
O O5 0.895757 0.707545 0.635865
O O6 0.187235 0.850728 0.688828
O O7 0.397315 0.791672 0.620033
O O8 0.000000 0.000000 0.627162
O O9 0.404285 0.206803 0.243350
O O10 0.000000 0.000000 0.249323
O O11 0.000000 0.000000 0.878428
#
# Coordination Sequence:
#
# PCOD9329912 Si02
#       4
#     8   8   8   8
#     4  10  19  34  59  93 124 157 206 270 332 366
#     4  11  26  44  62  94 143 178 206 262 357 400
#     4  11  24  43  68  94 129 179 220 270 326 395
#     4  12  23  39  68 102 123 168 228 282 313 385
#
# _framework density 22.248372
#
# number of rings (size 3 to 8) (size 9 to 14) (size 15 to 20)
#    0.000    1.000    2.500    5.250    3.500   10.000 
#    0.000    0.000    0.000   11.250    0.000    0.000 
#    0.000    0.000    0.000    0.000    0.000    0.000 
#
# Total GULP energy -89428.157553 kJ/mol
# GULP energy per Si atom -5589.259847 kJ/mol
# Density = 2.219773 g / cm^3
# Si number density = 22.248372 Si / 1000 Ang^3
#
#
#
# Elastic Constant Matrix: (Units=GPa)
#
#
# Indices 1 2 3 4 5 6 
#
# 1 154.7984 3.6330 11.2416 0.0000 0.0000 0.0000
# 2 3.6330 46.1082 7.8695 0.0000 0.0000 0.0000
# 3 11.2416 7.8695 42.3917 0.0000 0.0000 0.0000
# 4 0.0000 0.0000 0.0000 5.2921 0.0000 0.0000
# 5 0.0000 0.0000 0.0000 0.0000 13.8677 0.0000
# 6 0.0000 0.0000 0.0000 0.0000 0.0000 23.2726
#
#
#
# Elastic Compliance Matrix: (Units=1/GPa)
#
#
# Indices 1 2 3 4 5 6 
#
# 1 0.006589 -0.000228 -0.001705 0.000000 0.000000 0.000000
# 2 -0.000228 0.022406 -0.004099 0.000000 0.000000 0.000000
# 3 -0.001705 -0.004099 0.024803 0.000000 0.000000 0.000000
# 4 0.000000 0.000000 0.000000 0.188961 0.000000 0.000000
# 5 0.000000 0.000000 0.000000 0.000000 0.072110 0.000000
# 6 0.000000 0.000000 0.000000 0.000000 0.000000 0.042969
#
#
# Mechanical properties :
#
#
# Convention : Reuss Voigt Hill
#
# Bulk Modulus (GPa) = 23.96163 32.08740 28.02451
# Shear Modulus (GPa) = 13.02720 23.19009 18.10865
#
# Velocity S-wave (km/s) = 2.42241 3.23201 2.85604
# Velocity P-wave (km/s) = 4.31480 5.32743 4.84763
#
# Compressibility (1/GPa) = 0.04173339
#
# Stress axis : x y z
#
# Youngs Moduli (GPa) = 151.76378 44.63157 40.31845
#
# Poissons Ratio (x) = 0.01018 0.06874
# Poissons Ratio (y) = 0.03463 0.16526
# Poissons Ratio (z) = 0.25876 0.18294
#
# Static dielectric constant tensor:
#      x y z
#    x 1.807210 0.000000 0.000000 
#    y 0.000000 1.866820 0.000000 
#    z 0.000000 0.000000 1.801420 
# 
# From -- ./inp_files/807.got.cif
#   From: 2010.05.17/outbox.cif.g08.bks.cpg/sg23_1_cif.got.tgz:807.got - 2010.06.04 12:02:01.
