data_PCOD9329058
_publ_section_title
;
Structure prediction by ZEFSAII (Michael W. Deem and Ramdas Pophale) SiO2 
 PCOD9329058
Probable space group: F 2 2 2
;
_chemical_formula_sum "Si O2"
_cell_formula_units_Z 88
_cell_length_a 13.916871
_cell_length_b 23.570839
_cell_length_c 12.733266
_cell_angle_alpha 90.000000
_cell_angle_beta 90.000000
_cell_angle_gamma 90.000000
_cell_volume 4176.922860
_symmetry_space_group_name_H-M "F 2 2 2"
_symmetry_group_IT_number 22
_symmetry_cell_setting 'orthorhombic'
loop_
_space_group_symop_operation_xyz
x,y,z
-x,-y,z
x,-y,-z
-x,y,-z
x,1/2+y,1/2+z
-x,1/2-y,1/2+z
x,1/2-y,1/2-z
-x,1/2+y,1/2-z
1/2+x,y,1/2+z
1/2-x,-y,1/2+z
1/2+x,-y,1/2-z
1/2-x,y,1/2-z
1/2+x,1/2+y,z
1/2-x,1/2-y,z
1/2+x,1/2-y,-z
1/2-x,1/2+y,-z
loop_
_atom_site_type_symbol
_atom_site_label
_atom_site_fract_x
_atom_site_fract_y
_atom_site_fract_z
Si Si1 0.368005 0.303872 0.169030
Si Si2 0.269847 0.688598 0.052452
Si Si3 0.886043 0.499123 0.126689
Si Si4 0.913699 0.619770 0.916267
Si Si5 0.077985 0.812661 0.212100
Si Si6 0.250000 0.588625 0.750000
O O1 0.353575 0.250000 0.250000
O O2 0.480661 0.307475 0.147685
O O3 0.327236 0.365060 0.207148
O O4 0.319369 0.297331 0.057018
O O5 0.250000 0.750000 0.099172
O O6 0.172396 0.654632 0.031276
O O7 0.339673 0.660660 0.139142
O O8 0.862882 0.433290 0.141586
O O9 0.815149 0.545786 0.177214
O O10 0.000000 0.500000 0.158076
O O11 0.881393 0.500000 0.000000
O O12 0.951805 0.655543 0.818681
O O13 0.000000 0.607828 0.000000
O O14 0.103757 0.750000 0.250000
#
# Coordination Sequence:
#
# PCOD9329058 Si02
#       6
#    16  16  16  16  16   8
#     4  11  26  43  72 105 145 188 236 288 368 423
#     4  12  25  42  69 105 147 185 234 292 363 433
#     4  11  24  46  73  98 134 179 242 300 358 427
#     4  12  26  44  72 102 136 188 239 300 362 430
#     4  11  25  43  69 103 149 184 232 295 359 435
#     4  12  25  46  70 106 137 180 240 308 340 442
#
# _framework density 21.068141000000001
#
# number of rings (size 3 to 8) (size 9 to 14) (size 15 to 20)
#    0.000    0.545    3.636    4.636   10.182    0.000 
#    0.000    0.000    0.000    0.000    0.000    0.000 
#    0.000    0.000    0.000    0.000    0.000    0.000 
#
# Total GULP energy -122512.863823 kJ/mol
# GULP energy per Si atom -5568.766537 kJ/mol
# Density = 2.102019 g / cm^3
# Si number density = 21.068141 Si / 1000 Ang^3
#
#
#
# Elastic Constant Matrix: (Units=GPa)
#
#
# Indices 1 2 3 4 5 6 
#
# 1 141.0521 43.2879 62.1581 0.0000 0.0000 0.0000
# 2 43.2879 119.4823 31.9722 0.0000 0.0000 0.0000
# 3 62.1581 31.9722 86.8623 0.0000 0.0000 0.0000
# 4 0.0000 0.0000 0.0000 29.6998 0.0000 0.0000
# 5 0.0000 0.0000 0.0000 0.0000 46.8911 0.0000
# 6 0.0000 0.0000 0.0000 0.0000 0.0000 -6.7799
#
#
#
# Elastic Compliance Matrix: (Units=1/GPa)
#
#
# Indices 1 2 3 4 5 6 
#
# 1 0.010787 -0.002044 -0.006967 0.000000 0.000000 0.000000
# 2 -0.002044 0.009671 -0.002097 0.000000 0.000000 0.000000
# 3 -0.006967 -0.002097 0.017270 0.000000 0.000000 0.000000
# 4 0.000000 0.000000 0.000000 0.033670 0.000000 0.000000
# 5 0.000000 0.000000 0.000000 0.000000 0.021326 0.000000
# 6 0.000000 0.000000 0.000000 0.000000 0.000000 -0.147495
#
#
# Mechanical properties :
#
#
# Convention : Reuss Voigt Hill
#
# Bulk Modulus (GPa) = 64.46516 69.13701 66.80108
# Shear Modulus (GPa) = -182.58259 27.96077 -77.31091
#
# Velocity S-wave (km/s) = -9.31939 3.64697 -6.06427
# Velocity P-wave (km/s) = 9.22695 7.11484 4.15425
#
# Compressibility (1/GPa) = 0.01551225
#
# Stress axis : x y z
#
# Youngs Moduli (GPa) = 92.70526 103.40094 57.90468
#
# Poissons Ratio (x) = 0.21133 0.40341
# Poissons Ratio (y) = 0.18947 0.12144
# Poissons Ratio (z) = 0.64585 0.21685
#
# Static dielectric constant tensor:
#      x y z
#    x 1.786590 0.000000 0.000000 
#    y 0.000000 1.868700 0.000000 
#    z 0.000000 0.000000 2.682420 
# 
# From -- ./inp_files/19944.got.cif
#   From: 2010.05.17/outbox.cif.g08.bks.cpg/sg22_10_cif.got.tgz:19944.got - 2010.06.03 23:40:54.
