data_PCOD9329448
_publ_section_title
;
Structure prediction by ZEFSAII (Michael W. Deem and Ramdas Pophale) SiO2 
 PCOD9329448
Probable space group: I 2 2 2
;
_chemical_formula_sum "Si O2"
_cell_formula_units_Z 64
_cell_length_a 18.705586
_cell_length_b 23.181268
_cell_length_c 8.862151
_cell_angle_alpha 90.000000
_cell_angle_beta 90.000000
_cell_angle_gamma 90.000000
_cell_volume 3842.798846
_symmetry_space_group_name_H-M "I 2 2 2"
_symmetry_group_IT_number 23
_symmetry_cell_setting 'orthorhombic'
loop_
_space_group_symop_operation_xyz
x,y,z
-x,-y,z
x,-y,-z
-x,y,-z
1/2+x,1/2+y,1/2+z
1/2-x,1/2-y,1/2+z
1/2+x,1/2-y,1/2-z
1/2-x,1/2+y,1/2-z
loop_
_atom_site_type_symbol
_atom_site_label
_atom_site_fract_x
_atom_site_fract_y
_atom_site_fract_z
Si Si1 0.428971 0.584356 0.090065
Si Si2 0.557487 0.296450 0.240613
Si Si3 0.150060 0.121856 0.699198
Si Si4 0.684497 0.737850 0.565502
Si Si5 0.094239 0.248594 0.791315
Si Si6 0.281386 0.171932 0.827462
Si Si7 0.419734 0.808455 0.014286
Si Si8 0.585014 0.509168 0.332510
O O1 0.457647 0.639900 0.181113
O O2 0.396000 0.536450 0.200813
O O3 0.500000 0.563369 0.000000
O O4 0.369251 0.607689 0.973674
O O5 0.625884 0.300701 0.348156
O O6 0.489158 0.266139 0.316746
O O7 0.573991 0.253469 0.101138
O O8 0.125047 0.186439 0.739525
O O9 0.231709 0.122029 0.758119
O O10 0.106062 0.073361 0.787096
O O11 0.637310 0.768979 0.436878
O O12 0.713579 0.781091 0.691980
O O13 0.742672 0.701850 0.471921
O O14 0.103148 0.292900 0.654792
O O15 0.360680 0.157932 0.888391
O O16 0.500000 0.832827 0.000000
O O17 0.500000 0.500000 0.341208
O O18 0.615067 0.500000 0.500000
#
# Coordination Sequence:
#
# PCOD9329448 Si02
#       8
#     8   8   8   8   8   8   8   8
#     4  12  20  35  54  68  98 141 189 219 263 307
#     4  10  18  30  50  75  97 135 181 216 253 306
#     4  11  21  34  50  69  99 141 176 224 259 314
#     4  10  21  29  47  66 103 133 168 219 257 308
#     4  10  17  31  49  73  99 128 180 212 262 303
#     4  10  21  34  46  71 100 133 178 213 272 317
#     4   9  17  33  53  72  98 132 168 215 259 321
#     4  11  24  36  50  71  99 135 186 233 262 289
#
# _framework density 16.654529
#
# number of rings (size 3 to 8) (size 9 to 14) (size 15 to 20)
#    0.000    1.625    3.750    2.625    5.250    0.000 
#    0.000    0.000    0.000    0.000    0.000    0.000 
#    0.000    0.500    0.000    2.625    0.000    0.000 
#
# Total GULP energy -178300.257470 kJ/mol
# GULP energy per Si atom -5571.883046 kJ/mol
# Density = 1.661662 g / cm^3
# Si number density = 16.654529 Si / 1000 Ang^3
#
#
#
# Elastic Constant Matrix: (Units=GPa)
#
#
# Indices 1 2 3 4 5 6 
#
# 1 92.9363 22.3397 38.5675 0.0000 0.0000 0.0000
# 2 22.3397 27.3271 11.8245 0.0000 0.0000 0.0000
# 3 38.5675 11.8245 93.3590 0.0000 0.0000 0.0000
# 4 0.0000 0.0000 0.0000 12.7469 0.0000 0.0000
# 5 0.0000 0.0000 0.0000 0.0000 36.6526 0.0000
# 6 0.0000 0.0000 0.0000 0.0000 0.0000 18.9629
#
#
#
# Elastic Compliance Matrix: (Units=1/GPa)
#
#
# Indices 1 2 3 4 5 6 
#
# 1 0.015335 -0.010363 -0.005023 0.000000 0.000000 0.000000
# 2 -0.010363 0.045719 -0.001509 0.000000 0.000000 0.000000
# 3 -0.005023 -0.001509 0.012977 0.000000 0.000000 0.000000
# 4 0.000000 0.000000 0.000000 0.078451 0.000000 0.000000
# 5 0.000000 0.000000 0.000000 0.000000 0.027283 0.000000
# 6 0.000000 0.000000 0.000000 0.000000 0.000000 0.052735
#
#
# Mechanical properties :
#
#
# Convention : Reuss Voigt Hill
#
# Bulk Modulus (GPa) = 24.85034 39.89842 32.37438
# Shear Modulus (GPa) = 17.87601 23.06518 20.47060
#
# Velocity S-wave (km/s) = 3.27974 3.72549 3.50970
# Velocity P-wave (km/s) = 5.41256 6.52029 5.99208
#
# Compressibility (1/GPa) = 0.04024090
#
# Stress axis : x y z
#
# Youngs Moduli (GPa) = 65.20821 21.87292 77.05689
#
# Poissons Ratio (x) = 0.22668 0.38703
# Poissons Ratio (y) = 0.67577 0.11631
# Poissons Ratio (z) = 0.32752 0.03301
#
# Static dielectric constant tensor:
#      x y z
#    x 1.635830 0.000000 0.000000 
#    y 0.000000 1.524230 0.000000 
#    z 0.000000 0.000000 1.628850 
# 
# From -- ./inp_files/11484.got.cif
#   From: 2010.05.17/outbox.cif.g08.bks.cpg/sg23_6_cif.got.tgz:11484.got - 2010.06.04 12:02:01.
