data_PCOD9329919
_publ_section_title
;
Structure prediction by ZEFSAII (Michael W. Deem and Ramdas Pophale) SiO2 
 PCOD9329919
Probable space group: I 2 2 2
;
_chemical_formula_sum "Si O2"
_cell_formula_units_Z 40
_cell_length_a 9.279372
_cell_length_b 8.923676
_cell_length_c 21.828534
_cell_angle_alpha 90.000000
_cell_angle_beta 90.000000
_cell_angle_gamma 90.000000
_cell_volume 1807.535970
_symmetry_space_group_name_H-M "I 2 2 2"
_symmetry_group_IT_number 23
_symmetry_cell_setting 'orthorhombic'
loop_
_space_group_symop_operation_xyz
x,y,z
-x,-y,z
x,-y,-z
-x,y,-z
1/2+x,1/2+y,1/2+z
1/2-x,1/2-y,1/2+z
1/2+x,1/2-y,1/2-z
1/2-x,1/2+y,1/2-z
loop_
_atom_site_type_symbol
_atom_site_label
_atom_site_fract_x
_atom_site_fract_y
_atom_site_fract_z
Si Si1 0.000000 0.500000 0.800330
Si Si2 0.500000 0.772301 0.500000
Si Si3 0.064122 0.835467 0.677930
Si Si4 0.377997 0.242076 0.619834
Si Si5 0.730003 0.552076 0.936701
Si Si6 0.706822 0.140041 0.778354
O O1 0.996783 0.350084 0.840957
O O2 0.862342 0.501455 0.756930
O O3 0.574151 0.689403 0.555818
O O4 0.624339 0.867471 0.463643
O O5 0.132122 0.849653 0.609271
O O6 0.193721 0.798082 0.723871
O O7 0.930793 0.728265 0.694328
O O8 0.000000 0.000000 0.691781
O O9 0.309644 0.365681 0.663268
O O10 0.276379 0.098813 0.600604
O O11 0.657126 0.500000 0.000000
#
# Coordination Sequence:
#
# PCOD9329919 Si02
#       6
#     4   4   8   8   8   8
#     4  12  20  37  58  90 133 162 206 258 320 392
#     4  10  19  34  62  92 127 168 205 268 326 387
#     4  12  24  41  59  95 132 173 212 270 327 389
#     4  11  18  35  57  91 123 163 206 256 323 380
#     4  10  19  35  61  91 129 161 205 270 327 383
#     4  12  24  37  61  86 136 173 211 260 326 389
#
# _framework density 22.129573000000001
#
# number of rings (size 3 to 8) (size 9 to 14) (size 15 to 20)
#    0.000    0.800    8.000    2.100    0.000    0.400 
#    0.000    0.000    0.000    0.000    0.000   24.500 
#    0.000    0.000    0.000    0.000    0.000    0.000 
#
# Total GULP energy -111356.211469 kJ/mol
# GULP energy per Si atom -5567.810573 kJ/mol
# Density = 2.207921 g / cm^3
# Si number density = 22.129573 Si / 1000 Ang^3
#
#
#
# Elastic Constant Matrix: (Units=GPa)
#
#
# Indices 1 2 3 4 5 6 
#
# 1 101.7828 10.4107 68.1784 0.0000 0.0000 0.0000
# 2 10.4107 20.1706 24.5311 0.0000 0.0000 0.0000
# 3 68.1784 24.5311 221.9063 0.0000 0.0000 0.0000
# 4 0.0000 0.0000 0.0000 21.0134 0.0000 0.0000
# 5 0.0000 0.0000 0.0000 0.0000 58.4785 0.0000
# 6 0.0000 0.0000 0.0000 0.0000 0.0000 27.7207
#
#
#
# Elastic Compliance Matrix: (Units=1/GPa)
#
#
# Indices 1 2 3 4 5 6 
#
# 1 0.012444 -0.002048 -0.003597 0.000000 0.000000 0.000000
# 2 -0.002048 0.057615 -0.005740 0.000000 0.000000 0.000000
# 3 -0.003597 -0.005740 0.006246 0.000000 0.000000 0.000000
# 4 0.000000 0.000000 0.000000 0.047589 0.000000 0.000000
# 5 0.000000 0.000000 0.000000 0.000000 0.017100 0.000000
# 6 0.000000 0.000000 0.000000 0.000000 0.000000 0.036074
#
#
# Mechanical properties :
#
#
# Convention : Reuss Voigt Hill
#
# Bulk Modulus (GPa) = 18.67939 61.12225 39.90082
# Shear Modulus (GPa) = 22.96923 37.49182 30.23053
#
# Velocity S-wave (km/s) = 3.22521 4.12053 3.70005
# Velocity P-wave (km/s) = 4.72531 7.09355 6.02690
#
# Compressibility (1/GPa) = 0.05353495
#
# Stress axis : x y z
#
# Youngs Moduli (GPa) = 80.36265 17.35656 160.10256
#
# Poissons Ratio (x) = 0.03555 0.57585
# Poissons Ratio (y) = 0.16460 0.91897
# Poissons Ratio (z) = 0.28904 0.09962
#
# Static dielectric constant tensor:
#      x y z
#    x 1.910690 0.000000 0.000000 
#    y 0.000000 1.817830 0.000000 
#    z 0.000000 0.000000 1.855760 
# 
# From -- ./inp_files/11842.got.cif
#   From: 2010.05.17/outbox.cif.g08.bks.cpg/sg23_6_cif.got.tgz:11842.got - 2010.06.04 12:02:01.
