data_PCOD9329871
_publ_section_title
;
Structure prediction by ZEFSAII (Michael W. Deem and Ramdas Pophale) SiO2 
 PCOD9329871
Probable space group: I 2 2 2
;
_chemical_formula_sum "Si O2"
_cell_formula_units_Z 56
_cell_length_a 4.987971
_cell_length_b 17.684065
_cell_length_c 32.162003
_cell_angle_alpha 90.000000
_cell_angle_beta 90.000000
_cell_angle_gamma 90.000000
_cell_volume 2836.933205
_symmetry_space_group_name_H-M "I 2 2 2"
_symmetry_group_IT_number 23
_symmetry_cell_setting 'orthorhombic'
loop_
_space_group_symop_operation_xyz
x,y,z
-x,-y,z
x,-y,-z
-x,y,-z
1/2+x,1/2+y,1/2+z
1/2-x,1/2-y,1/2+z
1/2+x,1/2-y,1/2-z
1/2-x,1/2+y,1/2-z
loop_
_atom_site_type_symbol
_atom_site_label
_atom_site_fract_x
_atom_site_fract_y
_atom_site_fract_z
Si Si1 0.926479 0.675929 0.045263
Si Si2 0.524866 0.088593 0.372207
Si Si3 0.546549 0.586389 0.328929
Si Si4 0.985422 0.178470 0.653981
Si Si5 0.544467 0.084851 0.888932
Si Si6 0.053921 0.733224 0.571601
Si Si7 0.159269 0.232731 0.775316
O O1 0.896238 0.612330 0.080680
O O2 0.657052 0.724471 0.042751
O O3 0.155153 0.734142 0.061222
O O4 0.000000 0.645611 0.000000
O O5 0.231981 0.121353 0.364443
O O6 0.739679 0.131545 0.342803
O O7 0.500000 0.000000 0.366164
O O8 0.500000 0.500000 0.312788
O O9 0.831554 0.591864 0.351465
O O10 0.552458 0.653885 0.295225
O O11 0.328960 0.596740 0.365937
O O12 0.027917 0.241092 0.618430
O O13 0.832977 0.218942 0.691618
O O14 0.479983 0.144101 0.925074
O O15 0.500000 0.000000 0.904618
O O16 0.390874 0.224303 0.740176
#
# Coordination Sequence:
#
# PCOD9329871 Si02
#       7
#     8   8   8   8   8   8   8
#     4  10  21  35  56  87 119 156 193 242 296 345
#     4  10  21  38  61  86 114 155 201 247 296 349
#     4  10  21  37  58  85 117 145 186 251 300 338
#     4  10  21  37  59  83 113 148 199 245 291 347
#     4  10  19  33  59  88 111 142 190 247 293 333
#     4  10  19  34  59  82 114 149 193 242 284 348
#     4  12  24  38  60  88 120 158 198 243 303 368
#
# _framework density 19.739626000000001
#
# number of rings (size 3 to 8) (size 9 to 14) (size 15 to 20)
#    0.000    1.714    1.429    3.429    4.000    0.286 
#    0.000    2.857    0.000    8.571    0.000    0.000 
#    0.000    0.000    0.000    0.000    0.000    0.000 
#
# Total GULP energy -156165.429221 kJ/mol
# GULP energy per Si atom -5577.336758 kJ/mol
# Density = 1.969470 g / cm^3
# Si number density = 19.739626 Si / 1000 Ang^3
#
#
#
# Elastic Constant Matrix: (Units=GPa)
#
#
# Indices 1 2 3 4 5 6 
#
# 1 71.9547 10.1132 -3.1069 0.0000 0.0000 0.0000
# 2 10.1132 80.7140 16.4856 0.0000 0.0000 0.0000
# 3 -3.1069 16.4856 53.2759 0.0000 0.0000 0.0000
# 4 0.0000 0.0000 0.0000 4.9624 0.0000 0.0000
# 5 0.0000 0.0000 0.0000 0.0000 25.0986 0.0000
# 6 0.0000 0.0000 0.0000 0.0000 0.0000 19.1710
#
#
#
# Elastic Compliance Matrix: (Units=1/GPa)
#
#
# Indices 1 2 3 4 5 6 
#
# 1 0.014255 -0.002088 0.001477 0.000000 0.000000 0.000000
# 2 -0.002088 0.013531 -0.004309 0.000000 0.000000 0.000000
# 3 0.001477 -0.004309 0.020190 0.000000 0.000000 0.000000
# 4 0.000000 0.000000 0.000000 0.201515 0.000000 0.000000
# 5 0.000000 0.000000 0.000000 0.000000 0.039843 0.000000
# 6 0.000000 0.000000 0.000000 0.000000 0.000000 0.052162
#
#
# Mechanical properties :
#
#
# Convention : Reuss Voigt Hill
#
# Bulk Modulus (GPa) = 26.22117 28.10315 27.16216
# Shear Modulus (GPa) = 13.73453 22.00993 17.87223
#
# Velocity S-wave (km/s) = 2.64063 3.34280 3.01225
# Velocity P-wave (km/s) = 4.75496 5.40064 5.08805
#
# Compressibility (1/GPa) = 0.03813712
#
# Stress axis : x y z
#
# Youngs Moduli (GPa) = 70.15142 73.90397 49.53027
#
# Poissons Ratio (x) = 0.15430 -0.07317
# Poissons Ratio (y) = 0.14647 0.21342
# Poissons Ratio (z) = -0.10364 0.31844
#
# Static dielectric constant tensor:
#      x y z
#    x 1.685740 0.000000 0.000000 
#    y 0.000000 1.727700 0.000000 
#    z 0.000000 0.000000 1.738360 
# 
# From -- ./inp_files/29954.got.cif
#   From: 2010.05.17/outbox.cif.g08.bks.cpg/sg23_15_cif.got.tgz:29954.got - 2010.06.04 12:02:01.
