data_PCOD9329723
_publ_section_title
;
Structure prediction by ZEFSAII (Michael W. Deem and Ramdas Pophale) SiO2 
 PCOD9329723
Probable space group: I 2 2 2
;
_chemical_formula_sum "Si O2"
_cell_formula_units_Z 44
_cell_length_a 14.189460
_cell_length_b 25.029588
_cell_length_c 5.053093
_cell_angle_alpha 90.000000
_cell_angle_beta 90.000000
_cell_angle_gamma 90.000000
_cell_volume 1794.638004
_symmetry_space_group_name_H-M "I 2 2 2"
_symmetry_group_IT_number 23
_symmetry_cell_setting 'orthorhombic'
loop_
_space_group_symop_operation_xyz
x,y,z
-x,-y,z
x,-y,-z
-x,y,-z
1/2+x,1/2+y,1/2+z
1/2-x,1/2-y,1/2+z
1/2+x,1/2-y,1/2-z
1/2-x,1/2+y,1/2-z
loop_
_atom_site_type_symbol
_atom_site_label
_atom_site_fract_x
_atom_site_fract_y
_atom_site_fract_z
Si Si1 0.500000 0.500000 0.000000
Si Si2 0.500000 0.000000 0.000000
Si Si3 0.849299 0.701022 0.319878
Si Si4 0.866218 0.450474 0.177904
Si Si5 0.594021 0.587667 0.622362
Si Si6 0.500000 0.142546 0.500000
Si Si7 0.795141 0.000000 0.000000
Si Si8 0.775130 0.818719 0.322150
O O1 0.559144 0.459482 0.184031
O O2 0.579850 0.045180 0.953660
O O3 0.837774 0.765088 0.299897
O O4 0.810312 0.685002 0.608552
O O5 0.770510 0.679800 0.111740
O O6 0.950874 0.679779 0.223430
O O7 0.764368 0.471025 0.266521
O O8 0.903870 0.500000 0.000000
O O9 0.911676 0.397422 0.061200
O O10 0.500000 0.613048 0.500000
O O11 0.648557 0.552222 0.401753
O O12 0.660508 0.631118 0.753002
#
# Coordination Sequence:
#
# PCOD9329723 Si02
#       8
#     2   2   8   8   8   4   4   8
#     4  12  26  48  68 112 136 186 258 312 364 468
#     4  10  18  40  54  84 130 180 228 280 316 426
#     4  10  25  47  75 107 148 186 258 298 378 449
#     4  11  23  37  59  90 138 179 230 279 352 428
#     4  12  26  46  72 101 143 187 247 310 374 441
#     4  12  23  42  68 106 138 197 236 308 352 452
#     4  11  25  41  63  94 136 184 227 291 355 435
#     4  10  25  50  73 108 144 196 240 318 374 435
#
# _framework density 24.517479000000002
#
# number of rings (size 3 to 8) (size 9 to 14) (size 15 to 20)
#    0.000    1.091    3.636    1.091    7.636    2.182 
#    0.000    0.000    0.000    0.000    0.000    0.000 
#    0.000    0.000    0.000    0.000    0.000    0.000 
#
# Total GULP energy -122513.159789 kJ/mol
# GULP energy per Si atom -5568.779990 kJ/mol
# Density = 2.446168 g / cm^3
# Si number density = 24.517479 Si / 1000 Ang^3
#
#
#
# Elastic Constant Matrix: (Units=GPa)
#
#
# Indices 1 2 3 4 5 6 
#
# 1 86.4157 50.8475 3.9391 -0.0006 -0.0051 -0.0027
# 2 50.8475 150.5792 15.9005 0.0130 0.0011 0.0005
# 3 3.9391 15.9005 59.8932 0.0764 0.0279 -0.0140
# 4 -0.0006 0.0130 0.0764 15.9645 0.0207 0.0248
# 5 -0.0051 0.0011 0.0279 0.0207 43.2803 0.0238
# 6 -0.0027 0.0005 -0.0140 0.0248 0.0238 3.5939
#
#
#
# Elastic Compliance Matrix: (Units=1/GPa)
#
#
# Indices 1 2 3 4 5 6 
#
# 1 0.014449 -0.004917 0.000355 0.000003 0.000002 0.000013
# 2 -0.004917 0.008506 -0.001935 0.000002 0.000000 -0.000013
# 3 0.000355 -0.001935 0.017187 -0.000081 -0.000011 0.000068
# 4 0.000003 0.000002 -0.000081 0.062640 -0.000030 -0.000433
# 5 0.000002 0.000000 -0.000011 -0.000030 0.023105 -0.000153
# 6 0.000013 -0.000013 0.000068 -0.000433 -0.000153 0.278253
#
#
# Mechanical properties :
#
#
# Convention : Reuss Voigt Hill
#
# Bulk Modulus (GPa) = 36.83443 48.69580 42.76512
# Shear Modulus (GPa) = 11.73209 27.64781 19.68995
#
# Velocity S-wave (km/s) = 2.18988 3.36173 2.83697
# Velocity P-wave (km/s) = 4.63146 5.91381 5.31148
#
# Compressibility (1/GPa) = 0.02714851
#
# Stress axis : x y z
#
# Youngs Moduli (GPa) = 69.21045 117.57070 58.18422
#
# Poissons Ratio (x) = 0.57804 -0.02065
# Poissons Ratio (y) = 0.34027 0.11257
# Poissons Ratio (z) = -0.02457 0.22746
#
# Static dielectric constant tensor:
#      x y z
#    x 2.138990 -0.000010 0.000040 
#    y -0.000010 1.931540 0.000000 
#    z 0.000040 0.000000 2.319390 
# 
# From -- ./inp_files/2535.got.cif
#   From: 2010.05.17/outbox.cif.g08.bks.cpg/sg23_2_cif.got.tgz:2535.got - 2010.06.04 12:02:01.
