data_PCOD9329703
_publ_section_title
;
Structure prediction by ZEFSAII (Michael W. Deem and Ramdas Pophale) SiO2 
 PCOD9329703
Probable space group: I 2 2 2
;
_chemical_formula_sum "Si O2"
_cell_formula_units_Z 60
_cell_length_a 19.045606
_cell_length_b 12.974291
_cell_length_c 12.057941
_cell_angle_alpha 90.000000
_cell_angle_beta 90.000000
_cell_angle_gamma 90.000000
_cell_volume 2979.556223
_symmetry_space_group_name_H-M "I 2 2 2"
_symmetry_group_IT_number 23
_symmetry_cell_setting 'orthorhombic'
loop_
_space_group_symop_operation_xyz
x,y,z
-x,-y,z
x,-y,-z
-x,y,-z
1/2+x,1/2+y,1/2+z
1/2-x,1/2-y,1/2+z
1/2+x,1/2-y,1/2-z
1/2-x,1/2+y,1/2-z
loop_
_atom_site_type_symbol
_atom_site_label
_atom_site_fract_x
_atom_site_fract_y
_atom_site_fract_z
Si Si1 0.919751 0.882512 0.966523
Si Si2 0.126435 0.093663 0.371117
Si Si3 0.199386 0.574704 0.409748
Si Si4 0.421848 0.221508 0.024208
Si Si5 0.212902 0.587689 0.780483
Si Si6 0.330266 0.300092 0.655604
Si Si7 0.252634 0.000000 0.500000
Si Si8 0.617485 0.621310 0.210985
O O1 0.911354 0.873252 0.834924
O O2 0.872646 0.806379 0.041172
O O3 0.000000 0.865936 0.000000
O O4 0.901181 0.000000 0.000000
O O5 0.090290 0.188391 0.432628
O O6 0.138465 0.119035 0.242472
O O7 0.200315 0.078455 0.436264
O O8 0.093965 0.979010 0.361669
O O9 0.235038 0.500000 0.500000
O O10 0.133274 0.627672 0.469579
O O11 0.188928 0.499743 0.304652
O O12 0.251642 0.664872 0.373481
O O13 0.407505 0.280916 0.140368
O O14 0.500000 0.183287 0.000000
O O15 0.172987 0.695096 0.774840
O O16 0.202120 0.551745 0.906133
O O17 0.297525 0.608414 0.775398
#
# Coordination Sequence:
#
# PCOD9329703 Si02
#       8
#     8   8   8   8   8   8   4   8
#     4  11  24  39  61  97 137 172 211 267 343 418
#     4  11  20  38  62  97 133 170 219 278 339 407
#     4  12  24  44  66  97 132 173 228 282 338 407
#     4  12  27  42  66  97 137 189 228 276 344 417
#     4  11  22  38  67  97 127 168 221 284 338 394
#     4  12  22  39  68  97 130 173 215 276 344 413
#     4  10  18  38  57  92 131 158 212 274 346 388
#     4  11  21  41  64  97 136 176 223 282 344 411
#
# _framework density 20.137225999999998
#
# number of rings (size 3 to 8) (size 9 to 14) (size 15 to 20)
#    0.000    0.667    8.000    2.000    1.867    3.467 
#    0.000    0.000    0.000    0.000    0.000    0.000 
#    0.000    0.000    0.000    0.000    0.000    0.000 
#
# Total GULP energy -167453.884624 kJ/mol
# GULP energy per Si atom -5581.796154 kJ/mol
# Density = 2.009139 g / cm^3
# Si number density = 20.137226 Si / 1000 Ang^3
#
#
#
# Elastic Constant Matrix: (Units=GPa)
#
#
# Indices 1 2 3 4 5 6 
#
# 1 73.7492 29.4527 13.5506 0.0000 0.0000 0.0000
# 2 29.4527 60.9064 10.1765 0.0000 0.0000 0.0000
# 3 13.5506 10.1765 114.0964 0.0000 0.0000 0.0000
# 4 0.0000 0.0000 0.0000 23.6958 0.0000 0.0000
# 5 0.0000 0.0000 0.0000 0.0000 12.1543 0.0000
# 6 0.0000 0.0000 0.0000 0.0000 0.0000 5.0543
#
#
#
# Elastic Compliance Matrix: (Units=1/GPa)
#
#
# Indices 1 2 3 4 5 6 
#
# 1 0.016994 -0.008000 -0.001305 0.000000 0.000000 0.000000
# 2 -0.008000 0.020433 -0.000872 0.000000 0.000000 0.000000
# 3 -0.001305 -0.000872 0.008997 0.000000 0.000000 0.000000
# 4 0.000000 0.000000 0.000000 0.042202 0.000000 0.000000
# 5 0.000000 0.000000 0.000000 0.000000 0.082276 0.000000
# 6 0.000000 0.000000 0.000000 0.000000 0.000000 0.197853
#
#
# Mechanical properties :
#
#
# Convention : Reuss Voigt Hill
#
# Bulk Modulus (GPa) = 38.35783 39.45683 38.90733
# Shear Modulus (GPa) = 12.56918 21.21901 16.89410
#
# Velocity S-wave (km/s) = 2.50106 3.24963 2.89960
# Velocity P-wave (km/s) = 5.23736 5.80660 5.52931
#
# Compressibility (1/GPa) = 0.02607030
#
# Stress axis : x y z
#
# Youngs Moduli (GPa) = 58.84416 48.94069 111.14462
#
# Poissons Ratio (x) = 0.39152 0.14502
# Poissons Ratio (y) = 0.47074 0.09696
# Poissons Ratio (z) = 0.07678 0.04269
#
# Static dielectric constant tensor:
#      x y z
#    x 1.723760 0.000000 0.000000 
#    y 0.000000 1.822770 0.000000 
#    z 0.000000 0.000000 1.734780 
# 
# From -- ./inp_files/18049.got.cif
#   From: 2010.05.17/outbox.cif.g08.bks.cpg/sg23_10_cif.got.tgz:18049.got - 2010.06.04 12:02:01.
