data_PCOD9329303
_publ_section_title
;
Structure prediction by ZEFSAII (Michael W. Deem and Ramdas Pophale) SiO2 
 PCOD9329303
Probable space group: F 2 2 2
;
_chemical_formula_sum "Si O2"
_cell_formula_units_Z 23
_cell_length_a 24.000000
_cell_length_b 9.000000
_cell_length_c 21.000000
_cell_angle_alpha 90.000000
_cell_angle_beta 90.000000
_cell_angle_gamma 90.000000
_cell_volume 4536.000000
_symmetry_space_group_name_H-M "F 2 2 2"
_symmetry_group_IT_number 22
_symmetry_cell_setting 'orthorhombic'
loop_
_space_group_symop_operation_xyz
x,y,z
-x,-y,z
x,-y,-z
-x,y,-z
x,1/2+y,1/2+z
-x,1/2-y,1/2+z
x,1/2-y,1/2-z
-x,1/2+y,1/2-z
1/2+x,y,1/2+z
1/2-x,-y,1/2+z
1/2+x,-y,1/2-z
1/2-x,y,1/2-z
1/2+x,1/2+y,z
1/2-x,1/2-y,z
1/2+x,1/2-y,-z
1/2-x,1/2+y,-z
loop_
_atom_site_type_symbol
_atom_site_label
_atom_site_fract_x
_atom_site_fract_y
_atom_site_fract_z
Si Si1 0.013320 0.323494 0.319303
Si Si2 0.701961 0.446298 0.145982
Si Si3 0.250000 0.250000 0.750000
Si Si4 0.865699 0.297691 0.612697
Si Si5 0.402351 0.000000 0.500000
Si Si6 0.092094 0.227572 0.902541
Si Si7 0.819846 0.481353 0.073650
O O1 0.020085 0.250000 0.250000
O O2 0.071795 0.303375 0.357866
O O3 0.000000 0.500000 0.314585
O O4 0.958343 0.252121 0.353087
O O5 0.712154 0.358368 0.209780
O O6 0.680229 0.613230 0.153441
O O7 0.646535 0.366544 0.118765
O O8 0.761422 0.435669 0.108487
O O9 0.867697 0.387368 0.545233
O O10 0.842311 0.134830 0.602015
O O11 0.434284 0.118212 0.543944
O O12 0.125480 0.374544 0.923135
O O13 0.804756 0.500000 0.000000
#
# Coordination Sequence:
#
# PCOD9329303 Si02
#       7
#    16  16   4  16   8  16  16
#     4  12  28  47  72  97 137 188 232 291 342 417
#     4  11  25  42  72  99 136 187 231 288 344 413
#     4  12  24  44  70 104 136 192 242 290 342 424
#     4  11  26  45  67 107 138 181 236 285 360 406
#     4  10  20  43  70 100 134 178 224 283 344 408
#     4  11  24  44  71 104 135 184 232 279 351 413
#     4  12  25  43  70 107 147 179 227 293 351 427
#
# _framework density 5.0705470000000004
#
# number of rings (size 3 to 8) (size 9 to 14) (size 15 to 20)
#    0.000    0.696    6.957    0.522    8.522    4.174 
#    0.000    1.739    0.000    0.000    0.000    0.000 
#    0.000    0.000    0.000    0.000    0.000    0.000 
#
# Total GULP energy -128158.125155 kJ/mol
# GULP energy per Si atom -5572.092398 kJ/mol
# Density = 0.505901 g / cm^3
# Si number density = 5.070547 Si / 1000 Ang^3
#
#
#
# Elastic Constant Matrix: (Units=GPa)
#
#
# Indices 1 2 3 4 5 6 
#
# 1 135.0995 34.8581 57.1487 0.0000 0.0000 0.0000
# 2 34.8581 112.3506 47.6240 0.0000 0.0000 0.0000
# 3 57.1487 47.6240 92.5366 0.0000 0.0000 0.0000
# 4 0.0000 0.0000 0.0000 40.8569 0.0000 0.0000
# 5 0.0000 0.0000 0.0000 0.0000 -101.0331 0.0000
# 6 0.0000 0.0000 0.0000 0.0000 0.0000 26.2698
#
#
#
# Elastic Compliance Matrix: (Units=1/GPa)
#
#
# Indices 1 2 3 4 5 6 
#
# 1 0.010053 -0.000623 -0.005888 0.000000 0.000000 0.000000
# 2 -0.000623 0.011423 -0.005494 0.000000 0.000000 0.000000
# 3 -0.005888 -0.005494 0.017270 0.000000 0.000000 0.000000
# 4 0.000000 0.000000 0.000000 0.024476 0.000000 0.000000
# 5 0.000000 0.000000 0.000000 0.000000 -0.009898 0.000000
# 6 0.000000 0.000000 0.000000 0.000000 0.000000 0.038067
#
#
# Mechanical properties :
#
#
# Convention : Reuss Voigt Hill
#
# Bulk Modulus (GPa) = 67.85996 68.80537 68.33266
# Shear Modulus (GPa) = 41.55806 6.57576 24.06691
#
# Velocity S-wave (km/s) = 4.53149 1.80255 3.44845
# Velocity P-wave (km/s) = 7.80447 6.19112 7.04414
#
# Compressibility (1/GPa) = 0.01473623
#
# Stress axis : x y z
#
# Youngs Moduli (GPa) = 99.46787 87.54367 57.90299
#
# Poissons Ratio (x) = 0.05457 0.34093
# Poissons Ratio (y) = 0.06200 0.31811
# Poissons Ratio (z) = 0.58567 0.48095
#
# Static dielectric constant tensor:
#      x y z
#    x 1.785670 0.000000 0.000000 
#    y 0.000000 1.813090 0.000000 
#    z 0.000000 0.000000 1.391790 
# 
# From -- ./inp_files/45257.got.cif
#   From: 2010.05.17/outbox.ucp.g08.bks.cvg/sg22_23_cif.got.tgz:45257.got - 2010.06.11 15:16:44.
