data_PCOD9329876
_publ_section_title
;
Structure prediction by ZEFSAII (Michael W. Deem and Ramdas Pophale) SiO2 
 PCOD9329876
Probable space group: I 2 2 2
;
_chemical_formula_sum "Si O2"
_cell_formula_units_Z 60
_cell_length_a 11.443866
_cell_length_b 11.692728
_cell_length_c 21.792783
_cell_angle_alpha 90.000000
_cell_angle_beta 90.000000
_cell_angle_gamma 90.000000
_cell_volume 2916.092564
_symmetry_space_group_name_H-M "I 2 2 2"
_symmetry_group_IT_number 23
_symmetry_cell_setting 'orthorhombic'
loop_
_space_group_symop_operation_xyz
x,y,z
-x,-y,z
x,-y,-z
-x,y,-z
1/2+x,1/2+y,1/2+z
1/2-x,1/2-y,1/2+z
1/2+x,1/2-y,1/2-z
1/2-x,1/2+y,1/2-z
loop_
_atom_site_type_symbol
_atom_site_label
_atom_site_fract_x
_atom_site_fract_y
_atom_site_fract_z
Si Si1 0.988701 0.709442 0.897109
Si Si2 0.832662 0.630633 0.007091
Si Si3 0.679192 0.672476 0.839323
Si Si4 0.131506 0.867428 0.178367
Si Si5 0.366980 0.462218 0.079758
Si Si6 0.216702 0.438873 0.720954
Si Si7 0.084420 0.786228 0.315592
Si Si8 0.500000 0.000000 0.300476
O O1 0.974765 0.832932 0.865686
O O2 0.107754 0.687176 0.933569
O O3 0.982928 0.610959 0.844159
O O4 0.888356 0.693938 0.949023
O O5 0.697527 0.607026 0.025381
O O6 0.875848 0.500000 0.000000
O O7 0.773205 0.772058 0.840388
O O8 0.691882 0.577799 0.892987
O O9 0.702166 0.609267 0.775109
O O10 0.549693 0.724038 0.836593
O O11 0.092423 0.841027 0.247902
O O12 0.201204 0.985024 0.178305
O O13 0.500000 0.500000 0.067889
O O14 0.362720 0.375646 0.136847
O O15 0.152067 0.333393 0.688236
O O16 0.113940 0.508965 0.756793
#
# Coordination Sequence:
#
# PCOD9329876 Si02
#       8
#     8   8   8   8   8   8   8   4
#     4  11  21  34  56  90 124 161 212 262 309 378
#     4  11  21  35  59  87 122 166 214 261 323 378
#     4  10  19  34  51  81 122 157 198 256 303 375
#     4  11  22  34  54  86 123 165 202 256 312 372
#     4  10  21  38  59  86 125 164 208 265 322 384
#     4  11  22  34  58  87 126 169 205 244 317 388
#     4  10  21  35  54  84 118 165 205 246 317 380
#     4  12  18  35  58  92 120 165 202 250 308 392
#
# _framework density 20.575478
#
# number of rings (size 3 to 8) (size 9 to 14) (size 15 to 20)
#    0.000    1.333    5.333    2.800    0.000    1.333 
#    0.000    0.000    0.000    0.800    0.000    1.867 
#    0.000    5.333    0.000    0.133    0.000    0.000 
#
# Total GULP energy -167461.146533 kJ/mol
# GULP energy per Si atom -5582.038218 kJ/mol
# Density = 2.052865 g / cm^3
# Si number density = 20.575478 Si / 1000 Ang^3
#
#
#
# Elastic Constant Matrix: (Units=GPa)
#
#
# Indices 1 2 3 4 5 6 
#
# 1 76.6121 32.2245 24.5619 0.0000 0.0000 0.0000
# 2 32.2245 74.4275 38.5791 0.0000 0.0000 0.0000
# 3 24.5619 38.5791 92.4962 0.0000 0.0000 0.0000
# 4 0.0000 0.0000 0.0000 26.8887 0.0000 0.0000
# 5 0.0000 0.0000 0.0000 0.0000 25.4383 0.0000
# 6 0.0000 0.0000 0.0000 0.0000 0.0000 19.0878
#
#
#
# Elastic Compliance Matrix: (Units=1/GPa)
#
#
# Indices 1 2 3 4 5 6 
#
# 1 0.016179 -0.006096 -0.001754 0.000000 0.000000 0.000000
# 2 -0.006096 0.019439 -0.006489 0.000000 0.000000 0.000000
# 3 -0.001754 -0.006489 0.013983 0.000000 0.000000 0.000000
# 4 0.000000 0.000000 0.000000 0.037190 0.000000 0.000000
# 5 0.000000 0.000000 0.000000 0.000000 0.039311 0.000000
# 6 0.000000 0.000000 0.000000 0.000000 0.000000 0.052389
#
#
# Mechanical properties :
#
#
# Convention : Reuss Voigt Hill
#
# Bulk Modulus (GPa) = 47.79195 48.25187 48.02191
# Shear Modulus (GPa) = 23.34881 24.16098 23.75490
#
# Velocity S-wave (km/s) = 3.37232 3.43047 3.40152
# Velocity P-wave (km/s) = 6.20011 6.26042 6.23034
#
# Compressibility (1/GPa) = 0.02092403
#
# Stress axis : x y z
#
# Youngs Moduli (GPa) = 61.80821 51.44376 71.51332
#
# Poissons Ratio (x) = 0.31360 0.12542
# Poissons Ratio (y) = 0.37678 0.46404
# Poissons Ratio (z) = 0.10840 0.33381
#
# Static dielectric constant tensor:
#      x y z
#    x 1.815250 0.000000 0.000000 
#    y 0.000000 1.722860 0.000000 
#    z 0.000000 0.000000 1.784200 
# 
# From -- ./inp_files/26748.got.cif
#   From: 2010.05.17/outbox.cif.g08.bks.cpg/sg23_14_cif.got.tgz:26748.got - 2010.06.04 12:02:01.
