data_PCOD9329637
_publ_section_title
;
Structure prediction by ZEFSAII (Michael W. Deem and Ramdas Pophale) SiO2 
 PCOD9329637
Probable space group: I 2 2 2
;
_chemical_formula_sum "Si O2"
_cell_formula_units_Z 36
_cell_length_a 21.922708
_cell_length_b 18.068096
_cell_length_c 5.156819
_cell_angle_alpha 90.000000
_cell_angle_beta 90.000000
_cell_angle_gamma 90.000000
_cell_volume 2042.624219
_symmetry_space_group_name_H-M "I 2 2 2"
_symmetry_group_IT_number 23
_symmetry_cell_setting 'orthorhombic'
loop_
_space_group_symop_operation_xyz
x,y,z
-x,-y,z
x,-y,-z
-x,y,-z
1/2+x,1/2+y,1/2+z
1/2-x,1/2-y,1/2+z
1/2+x,1/2-y,1/2-z
1/2-x,1/2+y,1/2-z
loop_
_atom_site_type_symbol
_atom_site_label
_atom_site_fract_x
_atom_site_fract_y
_atom_site_fract_z
Si Si1 0.500000 0.653341 0.000000
Si Si2 0.306607 0.679452 0.677252
Si Si3 0.962073 0.700133 0.259404
Si Si4 0.328333 0.221445 0.820562
Si Si5 0.400204 0.449496 0.250499
O O1 0.462761 0.710838 0.180982
O O2 0.543347 0.603088 0.173770
O O3 0.321704 0.717521 0.404382
O O4 0.233394 0.673516 0.695126
O O5 0.342742 0.603550 0.700985
O O6 0.328232 0.735792 0.904382
O O7 0.891421 0.679107 0.268801
O O8 0.000000 0.667781 0.500000
O O9 0.000000 0.686835 0.000000
O O10 0.412716 0.500000 0.500000
O O11 0.389092 0.500000 0.000000
#
# Coordination Sequence:
#
# PCOD9329637 Si02
#       5
#     4   8   8   8   8
#     4  10  23  34  50  64 104 136 179 194 242 284
#     4  10  20  35  53  71  95 129 182 217 256 296
#     4  10  19  30  53  72 103 123 161 211 257 300
#     4  10  18  34  56  73  93 130 167 224 268 298
#     4  12  25  36  49  71 105 144 182 208 238 296
#
# _framework density 17.624386999999999
#
# number of rings (size 3 to 8) (size 9 to 14) (size 15 to 20)
#    0.667    0.889    2.222    4.333    3.111    0.889 
#    0.000    0.000    0.000    0.000    0.000    0.000 
#    0.000    5.333    0.000    0.000    0.000    0.000 
#
# Total GULP energy -100447.879836 kJ/mol
# GULP energy per Si atom -5580.437769 kJ/mol
# Density = 1.758427 g / cm^3
# Si number density = 17.624387 Si / 1000 Ang^3
#
#
#
# Elastic Constant Matrix: (Units=GPa)
#
#
# Indices 1 2 3 4 5 6 
#
# 1 118.4286 -4.2780 7.3571 0.0000 0.0000 0.0000
# 2 -4.2780 17.9629 2.8493 0.0000 0.0000 0.0000
# 3 7.3571 2.8493 82.5112 0.0000 0.0000 0.0000
# 4 0.0000 0.0000 0.0000 10.8391 0.0000 0.0000
# 5 0.0000 0.0000 0.0000 0.0000 22.9569 0.0000
# 6 0.0000 0.0000 0.0000 0.0000 0.0000 0.1563
#
#
#
# Elastic Compliance Matrix: (Units=1/GPa)
#
#
# Indices 1 2 3 4 5 6 
#
# 1 0.008575 0.002175 -0.000840 0.000000 0.000000 0.000000
# 2 0.002175 0.056529 -0.002146 0.000000 0.000000 0.000000
# 3 -0.000840 -0.002146 0.012269 0.000000 0.000000 0.000000
# 4 0.000000 0.000000 0.000000 0.092258 0.000000 0.000000
# 5 0.000000 0.000000 0.000000 0.000000 0.043560 0.000000
# 6 0.000000 0.000000 0.000000 0.000000 0.000000 6.396248
#
#
# Mechanical properties :
#
#
# Convention : Reuss Voigt Hill
#
# Bulk Modulus (GPa) = 13.20113 25.63997 19.42055
# Shear Modulus (GPa) = 0.75343 20.98877 10.87110
#
# Velocity S-wave (km/s) = 0.65454 3.45468 2.48628
# Velocity P-wave (km/s) = 2.84214 5.52201 4.39149
#
# Compressibility (1/GPa) = 0.07575108
#
# Stress axis : x y z
#
# Youngs Moduli (GPa) = 116.62292 17.69011 81.50922
#
# Poissons Ratio (x) = -0.03848 0.06844
# Poissons Ratio (y) = -0.25369 0.17492
# Poissons Ratio (z) = 0.09793 0.03796
#
# Static dielectric constant tensor:
#      x y z
#    x 1.640580 0.000000 0.000000 
#    y 0.000000 1.581090 0.000000 
#    z 0.000000 0.000000 1.607760 
# 
# From -- ./inp_files/3314.got.cif
#   From: 2010.05.17/outbox.cif.g08.bks.cpg/sg23_2_cif.got.tgz:3314.got - 2010.06.04 12:02:01.
