data_PCOD9329511
_publ_section_title
;
Structure prediction by ZEFSAII (Michael W. Deem and Ramdas Pophale) SiO2 
 PCOD9329511
Probable space group: I 2 2 2
;
_chemical_formula_sum "Si O2"
_cell_formula_units_Z 44
_cell_length_a 37.598146
_cell_length_b 5.248867
_cell_length_c 12.942664
_cell_angle_alpha 90.000000
_cell_angle_beta 90.000000
_cell_angle_gamma 90.000000
_cell_volume 2554.204556
_symmetry_space_group_name_H-M "I 2 2 2"
_symmetry_group_IT_number 23
_symmetry_cell_setting 'orthorhombic'
loop_
_space_group_symop_operation_xyz
x,y,z
-x,-y,z
x,-y,-z
-x,y,-z
1/2+x,1/2+y,1/2+z
1/2-x,1/2-y,1/2+z
1/2+x,1/2-y,1/2-z
1/2-x,1/2+y,1/2-z
loop_
_atom_site_type_symbol
_atom_site_label
_atom_site_fract_x
_atom_site_fract_y
_atom_site_fract_z
Si Si1 0.204835 0.025127 0.774026
Si Si2 0.698009 0.000000 0.000000
Si Si3 0.745072 0.166411 0.417742
Si Si4 0.959698 0.001668 0.624315
Si Si5 0.086078 0.502079 0.373557
Si Si6 0.337552 0.021681 0.781650
O O1 0.235380 0.047926 0.684037
O O2 0.183588 0.293420 0.777304
O O3 0.225042 0.915223 0.873805
O O4 0.176678 0.798504 0.751719
O O5 0.675564 0.996528 0.101491
O O6 0.723360 0.760220 0.008439
O O7 0.722770 0.000000 0.500000
O O8 0.937220 0.751158 0.649402
O O9 0.962635 0.000000 0.500000
O O10 0.937485 0.253668 0.649261
O O11 0.000000 0.000000 0.665923
O O12 0.094275 0.500000 0.500000
O O13 0.120367 0.501652 0.298615
#
# Coordination Sequence:
#
# PCOD9329511 Si02
#       6
#     8   4   8   8   8   8
#     4  11  24  35  52  73 100 122 172 223 270 323
#     4  10  20  32  52  68  91 126 166 224 261 318
#     4  11  22  38  54  74  97 133 171 225 287 318
#     4   9  17  28  43  66  92 122 164 210 241 285
#     4  10  18  29  47  65  92 129 166 201 256 306
#     4  11  21  35  47  73  97 127 165 216 267 306
#
# _framework density 17.226499
#
# number of rings (size 3 to 8) (size 9 to 14) (size 15 to 20)
#    0.000    1.636    2.727    3.818    2.545    2.182 
#    0.000    0.000    0.000    0.000    0.000    0.000 
#    0.000    0.000    0.000    0.000    0.000   25.455 
#
# Total GULP energy -122535.742027 kJ/mol
# GULP energy per Si atom -5569.806456 kJ/mol
# Density = 1.718729 g / cm^3
# Si number density = 17.226499 Si / 1000 Ang^3
#
#
#
# Elastic Constant Matrix: (Units=GPa)
#
#
# Indices 1 2 3 4 5 6 
#
# 1 118.6654 56.6517 20.3830 0.0000 0.0000 0.0000
# 2 56.6517 136.3110 20.3651 0.0000 0.0000 0.0000
# 3 20.3830 20.3651 32.5832 0.0000 0.0000 0.0000
# 4 0.0000 0.0000 0.0000 27.2678 0.0000 0.0000
# 5 0.0000 0.0000 0.0000 0.0000 46.5266 0.0000
# 6 0.0000 0.0000 0.0000 0.0000 0.0000 2.4283
#
#
#
# Elastic Compliance Matrix: (Units=1/GPa)
#
#
# Indices 1 2 3 4 5 6 
#
# 1 0.011073 -0.003934 -0.004468 0.000000 0.000000 0.000000
# 2 -0.003934 0.009490 -0.003470 0.000000 0.000000 0.000000
# 3 -0.004468 -0.003470 0.035654 0.000000 0.000000 0.000000
# 4 0.000000 0.000000 0.000000 0.036673 0.000000 0.000000
# 5 0.000000 0.000000 0.000000 0.000000 0.021493 0.000000
# 6 0.000000 0.000000 0.000000 0.000000 0.000000 0.411818
#
#
# Mechanical properties :
#
#
# Convention : Reuss Voigt Hill
#
# Bulk Modulus (GPa) = 30.79517 53.59546 42.19532
# Shear Modulus (GPa) = 8.91631 27.92185 18.41908
#
# Velocity S-wave (km/s) = 2.27753 4.03037 3.27345
# Velocity P-wave (km/s) = 4.98314 7.26899 6.23177
#
# Compressibility (1/GPa) = 0.03247262
#
# Stress axis : x y z
#
# Youngs Moduli (GPa) = 90.31139 105.37667 28.04704
#
# Poissons Ratio (x) = 0.41460 0.12531
# Poissons Ratio (y) = 0.35532 0.09732
# Poissons Ratio (z) = 0.40348 0.36566
#
# Static dielectric constant tensor:
#      x y z
#    x 1.622900 0.000000 0.000000 
#    y 0.000000 1.590870 0.000000 
#    z 0.000000 0.000000 1.644320 
# 
# From -- ./inp_files/22774.got.cif
#   From: 2010.05.17/outbox.cif.g08.bks.cpg/sg23_12_cif.got.tgz:22774.got - 2010.06.04 12:02:01.
