data_PCOD9329319
_publ_section_title
;
Structure prediction by ZEFSAII (Michael W. Deem and Ramdas Pophale) SiO2 
 PCOD9329319
Probable space group: F 2 2 2
;
_chemical_formula_sum "Si O2"
_cell_formula_units_Z 30
_cell_length_a 12.000000
_cell_length_b 24.000000
_cell_length_c 21.000000
_cell_angle_alpha 90.000000
_cell_angle_beta 90.000000
_cell_angle_gamma 90.000000
_cell_volume 6048.000000
_symmetry_space_group_name_H-M "F 2 2 2"
_symmetry_group_IT_number 22
_symmetry_cell_setting 'orthorhombic'
loop_
_space_group_symop_operation_xyz
x,y,z
-x,-y,z
x,-y,-z
-x,y,-z
x,1/2+y,1/2+z
-x,1/2-y,1/2+z
x,1/2-y,1/2-z
-x,1/2+y,1/2-z
1/2+x,y,1/2+z
1/2-x,-y,1/2+z
1/2+x,-y,1/2-z
1/2-x,y,1/2-z
1/2+x,1/2+y,z
1/2-x,1/2-y,z
1/2+x,1/2-y,-z
1/2-x,1/2+y,-z
loop_
_atom_site_type_symbol
_atom_site_label
_atom_site_fract_x
_atom_site_fract_y
_atom_site_fract_z
Si Si1 0.326332 0.302468 0.364000
Si Si2 0.948986 0.730632 0.929908
Si Si3 0.920713 0.354580 0.439915
Si Si4 0.193819 0.857985 0.502505
Si Si5 0.063101 0.559224 0.641161
Si Si6 0.791341 0.030357 0.562853
Si Si7 0.000000 0.000000 0.639217
Si Si8 0.633038 0.911042 0.224726
O O1 0.250000 0.250000 0.342189
O O2 0.453033 0.284465 0.380774
O O3 0.280147 0.320397 0.434480
O O4 0.334248 0.355045 0.315121
O O5 0.901479 0.791753 0.912240
O O6 0.871582 0.677836 0.949036
O O7 0.000000 0.738539 0.000000
O O8 0.804854 0.376112 0.467036
O O9 0.000000 0.347797 0.500000
O O10 0.983502 0.400599 0.399077
O O11 0.146627 0.913363 0.536878
O O12 0.184889 0.547566 0.607295
O O13 0.075748 0.593693 0.706776
O O14 0.000000 0.500000 0.650889
O O15 0.747715 0.000000 0.500000
O O16 0.887854 0.992694 0.596170
O O17 0.049523 0.949565 0.682897
O O18 0.750000 0.938359 0.250000
#
# Coordination Sequence:
#
# PCOD9329319 Si02
#       8
#    16  16  16  16  16  16   8  16
#     4  11  23  41  70 103 137 180 242 301 360 427
#     4   9  21  35  62  97 139 183 221 285 367 431
#     4  11  21  38  65  96 140 183 231 287 358 427
#     4  11  20  40  65 103 147 180 229 294 367 437
#     4  12  26  45  67 102 141 190 242 294 354 432
#     4  12  26  41  70 104 139 178 237 301 361 428
#     4  12  25  46  72  94 137 186 228 290 362 426
#     4  12  26  48  68  95 139 188 237 295 355 430
#
# _framework density 4.9603169999999999
#
# number of rings (size 3 to 8) (size 9 to 14) (size 15 to 20)
#    0.000    0.800    4.667    3.800    3.733    1.333 
#    0.000    0.000    0.000    0.000    0.000    1.867 
#    0.000    0.000    0.000    0.000    0.000    0.000 
#
# Total GULP energy -167080.124698 kJ/mol
# GULP energy per Si atom -5569.337490 kJ/mol
# Density = 0.494903 g / cm^3
# Si number density = 4.960317 Si / 1000 Ang^3
#
#
#
# Elastic Constant Matrix: (Units=GPa)
#
#
# Indices 1 2 3 4 5 6 
#
# 1 108.2343 44.6935 48.2197 0.0000 0.0000 0.0000
# 2 44.6935 119.7097 43.1247 0.0000 0.0000 0.0000
# 3 48.2197 43.1247 107.8732 0.0000 0.0000 0.0000
# 4 0.0000 0.0000 0.0000 33.7095 0.0000 0.0000
# 5 0.0000 0.0000 0.0000 0.0000 33.1519 0.0000
# 6 0.0000 0.0000 0.0000 0.0000 0.0000 39.3585
#
#
#
# Elastic Compliance Matrix: (Units=1/GPa)
#
#
# Indices 1 2 3 4 5 6 
#
# 1 0.012442 -0.003086 -0.004328 0.000000 0.000000 0.000000
# 2 -0.003086 0.010524 -0.002828 0.000000 0.000000 0.000000
# 3 -0.004328 -0.002828 0.012335 0.000000 0.000000 0.000000
# 4 0.000000 0.000000 0.000000 0.029665 0.000000 0.000000
# 5 0.000000 0.000000 0.000000 0.000000 0.030164 0.000000
# 6 0.000000 0.000000 0.000000 0.000000 0.000000 0.025407
#
#
# Mechanical properties :
#
#
# Convention : Reuss Voigt Hill
#
# Bulk Modulus (GPa) = 67.48605 67.54367 67.51486
# Shear Modulus (GPa) = 34.25580 34.56261 34.40921
#
# Velocity S-wave (km/s) = 4.15962 4.17820 4.16892
# Velocity P-wave (km/s) = 7.56020 7.57578 7.56799
#
# Compressibility (1/GPa) = 0.01481788
#
# Stress axis : x y z
#
# Youngs Moduli (GPa) = 80.37557 95.01687 81.06895
#
# Poissons Ratio (x) = 0.29322 0.35084
# Poissons Ratio (y) = 0.24804 0.22926
# Poissons Ratio (z) = 0.34784 0.26870
#
# Static dielectric constant tensor:
#      x y z
#    x 1.734070 0.000000 0.000000 
#    y 0.000000 1.797470 0.000000 
#    z 0.000000 0.000000 1.741860 
# 
# From -- ./inp_files/42957.got.cif
#   From: 2010.05.17/outbox.ucp.g08.bks.cvg/sg22_22_cif.got.tgz:42957.got - 2010.06.11 15:16:44.
