data_PCOD9329577
_publ_section_title
;
Structure prediction by ZEFSAII (Michael W. Deem and Ramdas Pophale) SiO2 
 PCOD9329577
Probable space group: I 2 2 2
;
_chemical_formula_sum "Si O2"
_cell_formula_units_Z 64
_cell_length_a 23.562482
_cell_length_b 9.511912
_cell_length_c 12.674591
_cell_angle_alpha 90.000000
_cell_angle_beta 90.000000
_cell_angle_gamma 90.000000
_cell_volume 2840.683269
_symmetry_space_group_name_H-M "I 2 2 2"
_symmetry_group_IT_number 23
_symmetry_cell_setting 'orthorhombic'
loop_
_space_group_symop_operation_xyz
x,y,z
-x,-y,z
x,-y,-z
-x,y,-z
1/2+x,1/2+y,1/2+z
1/2-x,1/2-y,1/2+z
1/2+x,1/2-y,1/2-z
1/2-x,1/2+y,1/2-z
loop_
_atom_site_type_symbol
_atom_site_label
_atom_site_fract_x
_atom_site_fract_y
_atom_site_fract_z
Si Si1 0.170132 0.318984 0.829682
Si Si2 0.922726 0.212673 0.722167
Si Si3 0.659817 0.510878 0.684040
Si Si4 0.132946 0.667319 0.513010
Si Si5 0.968645 0.698596 0.611048
Si Si6 0.732149 0.497850 0.109535
Si Si7 0.560452 0.992002 0.311771
Si Si8 0.240458 0.313290 0.614385
O O1 0.218581 0.384159 0.902662
O O2 0.112001 0.399603 0.851939
O O3 0.197776 0.351470 0.712993
O O4 0.159607 0.153705 0.839395
O O5 0.900189 0.082767 0.790323
O O6 0.883389 0.266048 0.624593
O O7 0.921487 0.348552 0.796575
O O8 0.985984 0.202693 0.671252
O O9 0.691502 0.533181 0.795228
O O10 0.703192 0.594225 0.608496
O O11 0.118174 0.500000 0.500000
O O12 0.092994 0.749029 0.428306
O O13 0.198860 0.676265 0.485254
O O14 0.953431 0.579227 0.696728
O O15 0.000000 0.658879 0.500000
O O16 0.756967 0.651786 0.134013
O O17 0.699015 0.500000 0.000000
O O18 0.500000 0.000000 0.369072
#
# Coordination Sequence:
#
# PCOD9329577 Si02
#       8
#     8   8   8   8   8   8   8   8
#     4  10  20  37  54  72 110 148 187 237 299 344
#     4  10  19  30  52  80 114 154 199 244 282 330
#     4  10  22  37  53  82 117 155 193 239 299 358
#     4  11  18  28  53  85 118 155 203 245 285 346
#     4   9  18  28  49  80 114 155 199 242 276 333
#     4  10  21  37  58  80 110 146 195 241 291 351
#     4  10  18  32  55  79 108 150 198 237 276 346
#     4  10  20  33  54  78 110 150 190 238 286 348
#
# _framework density 22.529789999999998
#
# number of rings (size 3 to 8) (size 9 to 14) (size 15 to 20)
#    0.000    2.000    2.500    1.500    1.750    5.000 
#    0.000    2.500    0.000    1.125    0.000    0.000 
#    0.000    4.000    0.000    0.000    0.000    0.000 
#
# Total GULP energy -178526.746219 kJ/mol
# GULP energy per Si atom -5578.960819 kJ/mol
# Density = 2.247851 g / cm^3
# Si number density = 22.529790 Si / 1000 Ang^3
#
#
#
# Elastic Constant Matrix: (Units=GPa)
#
#
# Indices 1 2 3 4 5 6 
#
# 1 115.9587 56.9837 12.4744 0.0000 0.0000 0.0000
# 2 56.9837 87.8331 -3.7190 0.0000 0.0000 0.0000
# 3 12.4744 -3.7190 23.4376 0.0000 0.0000 0.0000
# 4 0.0000 0.0000 0.0000 13.3061 0.0000 0.0000
# 5 0.0000 0.0000 0.0000 0.0000 24.9475 0.0000
# 6 0.0000 0.0000 0.0000 0.0000 0.0000 33.4291
#
#
#
# Elastic Compliance Matrix: (Units=1/GPa)
#
#
# Indices 1 2 3 4 5 6 
#
# 1 0.014395 -0.009729 -0.009205 0.000000 0.000000 0.000000
# 2 -0.009729 0.018037 0.008040 0.000000 0.000000 0.000000
# 3 -0.009205 0.008040 0.048842 0.000000 0.000000 0.000000
# 4 0.000000 0.000000 0.000000 0.075154 0.000000 0.000000
# 5 0.000000 0.000000 0.000000 0.000000 0.040084 0.000000
# 6 0.000000 0.000000 0.000000 0.000000 0.000000 0.029914
#
#
# Mechanical properties :
#
#
# Convention : Reuss Voigt Hill
#
# Bulk Modulus (GPa) = 16.81058 39.85639 28.33349
# Shear Modulus (GPa) = 18.65377 25.10257 21.87817
#
# Velocity S-wave (km/s) = 2.88055 3.34158 3.11959
# Velocity P-wave (km/s) = 4.30594 5.71114 5.05758
#
# Compressibility (1/GPa) = 0.05948635
#
# Stress axis : x y z
#
# Youngs Moduli (GPa) = 69.46918 55.44029 20.47429
#
# Poissons Ratio (x) = 0.53937 0.18847
# Poissons Ratio (y) = 0.67585 -0.16462
# Poissons Ratio (z) = 0.63948 -0.44575
#
# Static dielectric constant tensor:
#      x y z
#    x 1.910760 0.000000 0.000000 
#    y 0.000000 1.872450 0.000000 
#    z 0.000000 0.000000 1.860680 
# 
# From -- ./inp_files/22617.got.cif
#   From: 2010.05.17/outbox.cif.g08.bks.cpg/sg23_12_cif.got.tgz:22617.got - 2010.06.04 12:02:01.
