data_PCOD9329078
_publ_section_title
;
Structure prediction by ZEFSAII (Michael W. Deem and Ramdas Pophale) SiO2 
 PCOD9329078
Probable space group: F 2 2 2
;
_chemical_formula_sum "Si O2"
_cell_formula_units_Z 56
_cell_length_a 16.052164
_cell_length_b 10.473843
_cell_length_c 13.313651
_cell_angle_alpha 90.000000
_cell_angle_beta 90.000000
_cell_angle_gamma 90.000000
_cell_volume 2238.395459
_symmetry_space_group_name_H-M "F 2 2 2"
_symmetry_group_IT_number 22
_symmetry_cell_setting 'orthorhombic'
loop_
_space_group_symop_operation_xyz
x,y,z
-x,-y,z
x,-y,-z
-x,y,-z
x,1/2+y,1/2+z
-x,1/2-y,1/2+z
x,1/2-y,1/2-z
-x,1/2+y,1/2-z
1/2+x,y,1/2+z
1/2-x,-y,1/2+z
1/2+x,-y,1/2-z
1/2-x,y,1/2-z
1/2+x,1/2+y,z
1/2-x,1/2-y,z
1/2+x,1/2-y,-z
1/2-x,1/2+y,-z
loop_
_atom_site_type_symbol
_atom_site_label
_atom_site_fract_x
_atom_site_fract_y
_atom_site_fract_z
Si Si1 0.094248 0.465631 0.609203
Si Si2 0.322485 0.995688 0.804647
Si Si3 0.908183 0.806507 0.552850
Si Si4 0.250000 0.750000 0.913141
O O1 0.135955 0.500000 0.500000
O O2 0.119806 0.537366 0.710638
O O3 0.092288 0.314011 0.627520
O O4 0.000000 0.500000 0.595132
O O5 0.250000 0.079301 0.750000
O O6 0.271110 0.877195 0.849832
O O7 0.375009 0.068516 0.889411
O O8 0.834557 0.759212 0.478531
O O9 0.000000 0.819150 0.500000
#
# Coordination Sequence:
#
# PCOD9329078 Si02
#       4
#    16  16  16   8
#     4  11  24  49  80 119 169 218 285 361 443 515
#     4  12  28  50  84 120 173 228 294 361 455 532
#     4  12  27  53  88 124 175 230 295 369 453 536
#     4  12  29  52  83 126 174 222 303 368 447 532
#
# _framework density 25.01792
#
# number of rings (size 3 to 8) (size 9 to 14) (size 15 to 20)
#    0.000    0.286    2.857    5.571    4.000    2.286 
#    0.000    0.000    0.000    0.000    0.000    0.000 
#    0.000    0.000    0.000    0.000    0.000    0.000 
#
# Total GULP energy -78000.473705 kJ/mol
# GULP energy per Si atom -5571.462408 kJ/mol
# Density = 2.496098 g / cm^3
# Si number density = 25.017920 Si / 1000 Ang^3
#
#
#
# Elastic Constant Matrix: (Units=GPa)
#
#
# Indices 1 2 3 4 5 6 
#
# 1 186.2858 57.7049 95.8335 0.0000 0.0000 0.0000
# 2 57.7049 147.8090 75.3902 0.0000 0.0000 0.0000
# 3 95.8335 75.3902 170.9517 0.0000 0.0000 0.0000
# 4 0.0000 0.0000 0.0000 81.8671 0.0000 0.0000
# 5 0.0000 0.0000 0.0000 0.0000 29.4715 0.0000
# 6 0.0000 0.0000 0.0000 0.0000 0.0000 42.2411
#
#
#
# Elastic Compliance Matrix: (Units=1/GPa)
#
#
# Indices 1 2 3 4 5 6 
#
# 1 0.007664 -0.001033 -0.003841 0.000000 0.000000 0.000000
# 2 -0.001033 0.008868 -0.003332 0.000000 0.000000 0.000000
# 3 -0.003841 -0.003332 0.009472 0.000000 0.000000 0.000000
# 4 0.000000 0.000000 0.000000 0.012215 0.000000 0.000000
# 5 0.000000 0.000000 0.000000 0.000000 0.033931 0.000000
# 6 0.000000 0.000000 0.000000 0.000000 0.000000 0.023674
#
#
# Mechanical properties :
#
#
# Convention : Reuss Voigt Hill
#
# Bulk Modulus (GPa) = 104.24275 106.98929 105.61602
# Shear Modulus (GPa) = 43.31535 49.12380 46.21957
#
# Velocity S-wave (km/s) = 4.16549 4.43600 4.30287
# Velocity P-wave (km/s) = 8.05561 8.31236 8.18499
#
# Compressibility (1/GPa) = 0.00959299
#
# Stress axis : x y z
#
# Youngs Moduli (GPa) = 130.48124 112.76282 105.57431
#
# Poissons Ratio (x) = 0.11649 0.40548
# Poissons Ratio (y) = 0.13479 0.35175
# Poissons Ratio (z) = 0.50114 0.37570
#
# Static dielectric constant tensor:
#      x y z
#    x 1.678390 0.000000 0.000000 
#    y 0.000000 2.156830 0.000000 
#    z 0.000000 0.000000 2.097100 
# 
# From -- ./inp_files/28730.got.cif
#   From: 2010.05.17/outbox.cif.g08.bks.cpg/sg22_15_cif.got.tgz:28730.got - 2010.06.03 23:40:54.
