data_PCOD9329592
_publ_section_title
;
Structure prediction by ZEFSAII (Michael W. Deem and Ramdas Pophale) SiO2 
 PCOD9329592
Probable space group: I 2 2 2
;
_chemical_formula_sum "Si O2"
_cell_formula_units_Z 52
_cell_length_a 9.973772
_cell_length_b 17.205801
_cell_length_c 12.788137
_cell_angle_alpha 90.000000
_cell_angle_beta 90.000000
_cell_angle_gamma 90.000000
_cell_volume 2194.530453
_symmetry_space_group_name_H-M "I 2 2 2"
_symmetry_group_IT_number 23
_symmetry_cell_setting 'orthorhombic'
loop_
_space_group_symop_operation_xyz
x,y,z
-x,-y,z
x,-y,-z
-x,y,-z
1/2+x,1/2+y,1/2+z
1/2-x,1/2-y,1/2+z
1/2+x,1/2-y,1/2-z
1/2-x,1/2+y,1/2-z
loop_
_atom_site_type_symbol
_atom_site_label
_atom_site_fract_x
_atom_site_fract_y
_atom_site_fract_z
Si Si1 0.729590 0.948250 0.891076
Si Si2 0.500000 0.387861 0.500000
Si Si3 0.000000 0.000000 0.668281
Si Si4 0.251195 0.916858 0.359943
Si Si5 0.434211 0.900008 0.869889
Si Si6 0.934034 0.160693 0.779273
Si Si7 0.190581 0.245833 0.685125
Si Si8 0.500000 0.000000 0.669396
O O1 0.750798 0.930044 0.767400
O O2 0.586507 0.904819 0.913344
O O3 0.873494 0.930119 0.942580
O O4 0.677969 0.962979 0.095311
O O5 0.566008 0.341844 0.404695
O O6 0.884954 0.956647 0.604551
O O7 0.063514 0.927975 0.735815
O O8 0.255063 0.825294 0.378495
O O9 0.380263 0.963241 0.394055
O O10 0.377084 0.814991 0.878254
O O11 0.452749 0.930862 0.749188
O O12 0.804992 0.211371 0.746789
O O13 0.068712 0.204631 0.745572
#
# Coordination Sequence:
#
# PCOD9329592 Si02
#       8
#     8   4   4   8   8   8   8   4
#     4   9  17  36  53  80 119 164 210 247 302 397
#     4  12  22  37  58  92 130 177 214 263 314 400
#     4  10  18  33  48  84 112 151 198 248 302 379
#     4   9  17  31  50  77 110 150 202 253 299 364
#     4   8  17  32  58  76 114 161 218 249 304 374
#     4  11  24  36  59  85 128 165 216 262 326 380
#     4  11  20  35  55  83 114 172 211 273 308 375
#     4   8  14  28  48  66 101 145 186 244 294 362
#
# _framework density 23.695273
#
# number of rings (size 3 to 8) (size 9 to 14) (size 15 to 20)
#    0.000    2.769    3.077    3.692    0.000    0.308 
#    0.000    0.769    0.000   12.923    0.000    0.000 
#    0.000   93.538    0.000    0.000    0.000    0.000 
#
# Total GULP energy -145100.523012 kJ/mol
# GULP energy per Si atom -5580.789347 kJ/mol
# Density = 2.364134 g / cm^3
# Si number density = 23.695273 Si / 1000 Ang^3
#
#
#
# Elastic Constant Matrix: (Units=GPa)
#
#
# Indices 1 2 3 4 5 6 
#
# 1 185.9527 81.2742 12.3627 0.0001 0.0000 0.0000
# 2 81.2742 191.1533 24.2916 -0.0001 0.0000 0.0000
# 3 12.3627 24.2916 45.6655 -0.0001 0.0000 0.0000
# 4 0.0001 -0.0001 -0.0001 18.1031 0.0000 0.0000
# 5 0.0000 0.0000 0.0000 0.0000 16.8508 0.0000
# 6 0.0000 0.0000 0.0000 0.0000 0.0000 56.3257
#
#
#
# Elastic Compliance Matrix: (Units=1/GPa)
#
#
# Indices 1 2 3 4 5 6 
#
# 1 0.006609 -0.002770 -0.000316 0.000000 0.000000 0.000000
# 2 -0.002770 0.006772 -0.002852 0.000000 0.000000 0.000000
# 3 -0.000316 -0.002852 0.023501 0.000000 0.000000 0.000000
# 4 0.000000 0.000000 0.000000 0.055239 0.000000 0.000000
# 5 0.000000 0.000000 0.000000 0.000000 0.059344 0.000000
# 6 0.000000 0.000000 0.000000 0.000000 0.000000 0.017754
#
#
# Mechanical properties :
#
#
# Convention : Reuss Voigt Hill
#
# Bulk Modulus (GPa) = 39.99044 73.18096 56.58570
# Shear Modulus (GPa) = 26.39482 38.57878 32.48680
#
# Velocity S-wave (km/s) = 3.34118 4.03938 3.70675
# Velocity P-wave (km/s) = 5.63899 7.25994 6.50019
#
# Compressibility (1/GPa) = 0.02500598
#
# Stress axis : x y z
#
# Youngs Moduli (GPa) = 151.29950 147.67512 42.55120
#
# Poissons Ratio (x) = 0.40907 0.01344
# Poissons Ratio (y) = 0.41911 0.12137
# Poissons Ratio (z) = 0.04778 0.42120
#
# Static dielectric constant tensor:
#      x y z
#    x 1.984580 0.000000 0.000000 
#    y 0.000000 1.890440 0.000000 
#    z 0.000000 0.000000 2.029260 
# 
# From -- ./inp_files/24402.got.cif
#   From: 2010.05.17/outbox.cif.g08.bks.cpg/sg23_13_cif.got.tgz:24402.got - 2010.06.04 12:02:01.
