data_PCOD9329692
_publ_section_title
;
Structure prediction by ZEFSAII (Michael W. Deem and Ramdas Pophale) SiO2 
 PCOD9329692
Probable space group: I 2 2 2
;
_chemical_formula_sum "Si O2"
_cell_formula_units_Z 52
_cell_length_a 13.269177
_cell_length_b 20.013078
_cell_length_c 9.227615
_cell_angle_alpha 90.000000
_cell_angle_beta 90.000000
_cell_angle_gamma 90.000000
_cell_volume 2450.458442
_symmetry_space_group_name_H-M "I 2 2 2"
_symmetry_group_IT_number 23
_symmetry_cell_setting 'orthorhombic'
loop_
_space_group_symop_operation_xyz
x,y,z
-x,-y,z
x,-y,-z
-x,y,-z
1/2+x,1/2+y,1/2+z
1/2-x,1/2-y,1/2+z
1/2+x,1/2-y,1/2-z
1/2-x,1/2+y,1/2-z
loop_
_atom_site_type_symbol
_atom_site_label
_atom_site_fract_x
_atom_site_fract_y
_atom_site_fract_z
Si Si1 0.000000 0.000000 0.500000
Si Si2 0.002043 0.183720 0.169285
Si Si3 0.156501 0.089125 0.680673
Si Si4 0.000000 0.500000 0.500000
Si Si5 0.724961 0.668807 0.656994
Si Si6 0.180004 0.412126 0.395922
Si Si7 0.435464 0.210395 0.872542
Si Si8 0.264334 0.699135 0.023756
O O1 0.075586 0.956798 0.400243
O O2 0.909035 0.141878 0.227372
O O3 0.003111 0.255086 0.247487
O O4 0.889521 0.148132 0.804538
O O5 0.000000 0.192010 0.000000
O O6 0.232772 0.056333 0.797102
O O7 0.220974 0.130981 0.563418
O O8 0.080253 0.456453 0.409126
O O9 0.778312 0.614923 0.551911
O O10 0.775369 0.685059 0.812921
O O11 0.716451 0.739170 0.566941
O O12 0.145142 0.342973 0.320757
O O13 0.376354 0.270569 0.950306
O O14 0.500000 0.177958 0.000000
#
# Coordination Sequence:
#
# PCOD9329692 Si02
#       8
#     2   8   8   2   8   8   8   8
#     4  12  28  44  76  94 136 192 230 286 364 390
#     4  11  21  35  64 104 140 158 196 273 358 433
#     4  12  24  45  65  99 134 177 227 283 345 425
#     4  12  28  48  70  84 124 196 256 296 324 358
#     4  10  21  37  63 105 135 174 208 273 353 425
#     4  11  25  45  67  93 128 177 246 285 327 401
#     4  10  18  36  64  97 133 175 204 261 346 415
#     4  10  20  36  65  96 142 168 209 264 346 426
#
# _framework density 21.22052
#
# number of rings (size 3 to 8) (size 9 to 14) (size 15 to 20)
#    0.000    1.231    3.846    4.615    0.000    2.462 
#    0.000    0.000    3.385    0.923    0.000    0.000 
#    0.000    0.000    0.000    0.000    0.000    0.000 
#
# Total GULP energy -145031.960580 kJ/mol
# GULP energy per Si atom -5578.152330 kJ/mol
# Density = 2.117222 g / cm^3
# Si number density = 21.220520 Si / 1000 Ang^3
#
#
#
# Elastic Constant Matrix: (Units=GPa)
#
#
# Indices 1 2 3 4 5 6 
#
# 1 109.8257 26.6398 43.0523 0.0000 0.0000 0.0000
# 2 26.6398 46.3044 43.8627 0.0000 0.0000 0.0000
# 3 43.0523 43.8627 135.4769 0.0000 0.0000 0.0000
# 4 0.0000 0.0000 0.0000 4.1036 0.0000 0.0000
# 5 0.0000 0.0000 0.0000 0.0000 35.4676 0.0000
# 6 0.0000 0.0000 0.0000 0.0000 0.0000 36.4734
#
#
#
# Elastic Compliance Matrix: (Units=1/GPa)
#
#
# Indices 1 2 3 4 5 6 
#
# 1 0.010975 -0.004342 -0.002082 0.000000 0.000000 0.000000
# 2 -0.004342 0.032867 -0.009262 0.000000 0.000000 0.000000
# 3 -0.002082 -0.009262 0.011041 0.000000 0.000000 0.000000
# 4 0.000000 0.000000 0.000000 0.243691 0.000000 0.000000
# 5 0.000000 0.000000 0.000000 0.000000 0.028195 0.000000
# 6 0.000000 0.000000 0.000000 0.000000 0.000000 0.027417
#
#
# Mechanical properties :
#
#
# Convention : Reuss Voigt Hill
#
# Bulk Modulus (GPa) = 42.52971 57.63518 50.08245
# Shear Modulus (GPa) = 12.70988 27.07906 19.89447
#
# Velocity S-wave (km/s) = 2.44999 3.57610 3.06520
# Velocity P-wave (km/s) = 5.29986 6.65360 6.01494
#
# Compressibility (1/GPa) = 0.02351297
#
# Stress axis : x y z
#
# Youngs Moduli (GPa) = 91.11946 30.42536 90.56778
#
# Poissons Ratio (x) = 0.13210 0.18854
# Poissons Ratio (y) = 0.39563 0.83880
# Poissons Ratio (z) = 0.18969 0.28179
#
# Static dielectric constant tensor:
#      x y z
#    x 1.880260 0.000000 0.000000 
#    y 0.000000 1.788990 0.000000 
#    z 0.000000 0.000000 1.840260 
# 
# From -- ./inp_files/10185.got.cif
#   From: 2010.05.17/outbox.cif.g08.bks.cpg/sg23_6_cif.got.tgz:10185.got - 2010.06.04 12:02:01.
