data_PCOD9329397
_publ_section_title
;
Structure prediction by ZEFSAII (Michael W. Deem and Ramdas Pophale) SiO2 
 PCOD9329397
Probable space group: I 2 2 2
;
_chemical_formula_sum "Si O2"
_cell_formula_units_Z 64
_cell_length_a 19.866710
_cell_length_b 7.256763
_cell_length_c 24.013542
_cell_angle_alpha 90.000000
_cell_angle_beta 90.000000
_cell_angle_gamma 90.000000
_cell_volume 3461.984469
_symmetry_space_group_name_H-M "I 2 2 2"
_symmetry_group_IT_number 23
_symmetry_cell_setting 'orthorhombic'
loop_
_space_group_symop_operation_xyz
x,y,z
-x,-y,z
x,-y,-z
-x,y,-z
1/2+x,1/2+y,1/2+z
1/2-x,1/2-y,1/2+z
1/2+x,1/2-y,1/2-z
1/2-x,1/2+y,1/2-z
loop_
_atom_site_type_symbol
_atom_site_label
_atom_site_fract_x
_atom_site_fract_y
_atom_site_fract_z
Si Si1 0.496530 0.777640 0.621684
Si Si2 0.844924 0.164938 0.261681
Si Si3 0.007323 0.786950 0.253068
Si Si4 0.739358 0.732520 0.347999
Si Si5 0.863667 0.275343 0.722423
Si Si6 0.140894 0.733590 0.059712
Si Si7 0.363420 0.216124 0.567757
Si Si8 0.278743 0.837118 0.330669
O O1 0.498419 0.720612 0.686018
O O2 0.429041 0.714471 0.590237
O O3 0.563972 0.721276 0.589834
O O4 0.500000 0.000000 0.621684
O O5 0.813134 0.176731 0.200363
O O6 0.788073 0.244252 0.302665
O O7 0.916106 0.265756 0.266482
O O8 0.856023 0.947741 0.272737
O O9 0.943119 0.685309 0.279358
O O10 0.000000 0.000000 0.270126
O O11 0.813104 0.669357 0.327446
O O12 0.704469 0.688498 0.406390
O O13 0.739885 0.955103 0.346808
O O14 0.833415 0.347675 0.780957
O O15 0.139172 0.508703 0.064008
O O16 0.145366 0.782550 0.995015
O O17 0.309562 0.261996 0.615832
#
# Coordination Sequence:
#
# PCOD9329397 Si02
#       8
#     8   8   8   8   8   8   8   8
#     4  10  17  26  40  58  80 105 135 162 186 224
#     4   9  17  27  40  57  79 104 129 159 196 235
#     4  10  18  27  39  57  83 110 130 153 194 240
#     4   9  16  27  42  59  76  99 132 166 196 227
#     4   9  17  27  40  57  79 104 129 159 196 235
#     4   9  16  25  39  59  80 102 131 166 197 224
#     4   9  16  25  39  59  80 102 131 166 197 224
#     4   9  16  27  42  59  76  99 132 166 196 227
#
# _framework density 18.486508000000001
#
# number of rings (size 3 to 8) (size 9 to 14) (size 15 to 20)
#    0.000    2.750    2.500    0.375    0.000    1.500 
#    0.000    0.000    0.000    3.750    0.000    0.875 
#    0.000    7.000    0.000    0.000    0.000   23.750 
#
# Total GULP energy -178490.992854 kJ/mol
# GULP energy per Si atom -5577.843527 kJ/mol
# Density = 1.844443 g / cm^3
# Si number density = 18.486508 Si / 1000 Ang^3
#
#
#
# Elastic Constant Matrix: (Units=GPa)
#
#
# Indices 1 2 3 4 5 6 
#
# 1 145.2003 -19.3831 59.2252 0.0000 0.0000 0.0000
# 2 -19.3831 47.6080 -11.6957 0.0000 0.0000 0.0000
# 3 59.2252 -11.6957 84.5224 0.0000 0.0000 0.0000
# 4 0.0000 0.0000 0.0000 10.0422 0.0000 0.0000
# 5 0.0000 0.0000 0.0000 0.0000 22.2565 0.0000
# 6 0.0000 0.0000 0.0000 0.0000 0.0000 2.8628
#
#
#
# Elastic Compliance Matrix: (Units=1/GPa)
#
#
# Indices 1 2 3 4 5 6 
#
# 1 0.009903 0.002409 -0.006606 0.000000 0.000000 0.000000
# 2 0.002409 0.022330 0.001402 0.000000 0.000000 0.000000
# 3 -0.006606 0.001402 0.016654 0.000000 0.000000 0.000000
# 4 0.000000 0.000000 0.000000 0.099580 0.000000 0.000000
# 5 0.000000 0.000000 0.000000 0.000000 0.044931 0.000000
# 6 0.000000 0.000000 0.000000 0.000000 0.000000 0.349304
#
#
# Mechanical properties :
#
#
# Convention : Reuss Voigt Hill
#
# Bulk Modulus (GPa) = 23.09608 37.06927 30.08267
# Shear Modulus (GPa) = 8.88536 23.64459 16.26498
#
# Velocity S-wave (km/s) = 2.19473 3.58022 2.96941
# Velocity P-wave (km/s) = 4.35236 6.09805 5.29761
#
# Compressibility (1/GPa) = 0.04329740
#
# Stress axis : x y z
#
# Youngs Moduli (GPa) = 100.97933 44.78259 60.04627
#
# Poissons Ratio (x) = -0.10789 0.39665
# Poissons Ratio (y) = -0.24327 -0.08418
# Poissons Ratio (z) = 0.66704 -0.06278
#
# Static dielectric constant tensor:
#      x y z
#    x 1.670300 0.000000 0.000000 
#    y 0.000000 1.733130 0.000000 
#    z 0.000000 0.000000 1.606170 
# 
# From -- ./inp_files/24510.got.cif
#   From: 2010.05.17/outbox.cif.g08.bks.cpg/sg23_13_cif.got.tgz:24510.got - 2010.06.04 12:02:01.
