data_PCOD9329907
_publ_section_title
;
Structure prediction by ZEFSAII (Michael W. Deem and Ramdas Pophale) SiO2 
 PCOD9329907
Probable space group: I 2 2 2
;
_chemical_formula_sum "Si O2"
_cell_formula_units_Z 60
_cell_length_a 13.424702
_cell_length_b 11.448937
_cell_length_c 19.000096
_cell_angle_alpha 90.000000
_cell_angle_beta 90.000000
_cell_angle_gamma 90.000000
_cell_volume 2920.287536
_symmetry_space_group_name_H-M "I 2 2 2"
_symmetry_group_IT_number 23
_symmetry_cell_setting 'orthorhombic'
loop_
_space_group_symop_operation_xyz
x,y,z
-x,-y,z
x,-y,-z
-x,y,-z
1/2+x,1/2+y,1/2+z
1/2-x,1/2-y,1/2+z
1/2+x,1/2-y,1/2-z
1/2-x,1/2+y,1/2-z
loop_
_atom_site_type_symbol
_atom_site_label
_atom_site_fract_x
_atom_site_fract_y
_atom_site_fract_z
Si Si1 0.520207 0.362474 0.920413
Si Si2 0.500000 0.500000 0.376627
Si Si3 0.394386 0.314537 0.519883
Si Si4 0.188745 0.112116 0.869511
Si Si5 0.258785 0.891322 0.791318
Si Si6 0.746816 0.329526 0.885183
Si Si7 0.604031 0.960408 0.703362
Si Si8 0.369371 0.258891 0.805777
O O1 0.500000 0.500000 0.914251
O O2 0.638249 0.354896 0.911682
O O3 0.451449 0.293173 0.864054
O O4 0.500000 0.321141 0.000000
O O5 0.433278 0.583282 0.427379
O O6 0.577242 0.586679 0.337585
O O7 0.500000 0.255641 0.500000
O O8 0.338382 0.360768 0.450336
O O9 0.319231 0.230690 0.559060
O O10 0.265468 0.208533 0.839833
O O11 0.241430 0.989724 0.850399
O O12 0.270680 0.765759 0.824603
O O13 0.164270 0.872027 0.739675
O O14 0.354757 0.934694 0.750397
O O15 0.809226 0.434254 0.851958
O O16 0.594588 0.844468 0.752720
O O17 0.500000 0.000000 0.671621
#
# Coordination Sequence:
#
# PCOD9329907 Si02
#       8
#     8   4   8   8   8   8   8   8
#     4  11  24  44  64  83 118 166 215 265 306 363
#     4  10  19  34  58  92 124 156 185 250 313 366
#     4  10  20  35  59  93 124 151 193 251 308 367
#     4  10  19  36  60  88 126 159 199 250 310 362
#     4  10  21  38  59  89 125 158 201 251 310 373
#     4  11  22  39  64  91 119 160 209 252 309 383
#     4  10  22  40  60  87 127 161 195 261 314 364
#     4  10  22  40  60  89 118 164 211 251 310 375
#
# _framework density 20.545922000000001
#
# number of rings (size 3 to 8) (size 9 to 14) (size 15 to 20)
#    0.000    1.733    1.333    4.200    0.000    2.133 
#    8.400    2.667    0.000    3.200    0.000    0.000 
#    0.000    0.000    0.000    0.000    0.000    0.000 
#
# Total GULP energy -167252.455083 kJ/mol
# GULP energy per Si atom -5575.081836 kJ/mol
# Density = 2.049916 g / cm^3
# Si number density = 20.545922 Si / 1000 Ang^3
#
#
#
# Elastic Constant Matrix: (Units=GPa)
#
#
# Indices 1 2 3 4 5 6 
#
# 1 167.7074 40.3436 59.0874 0.0000 0.0000 0.0000
# 2 40.3436 45.4329 17.0806 0.0000 0.0000 0.0000
# 3 59.0874 17.0806 56.8163 0.0000 0.0000 0.0000
# 4 0.0000 0.0000 0.0000 3.7161 0.0000 0.0000
# 5 0.0000 0.0000 0.0000 0.0000 14.9353 0.0000
# 6 0.0000 0.0000 0.0000 0.0000 0.0000 12.3161
#
#
#
# Elastic Compliance Matrix: (Units=1/GPa)
#
#
# Indices 1 2 3 4 5 6 
#
# 1 0.010683 -0.005986 -0.009311 0.000000 0.000000 0.000000
# 2 -0.005986 0.028169 -0.002243 0.000000 0.000000 0.000000
# 3 -0.009311 -0.002243 0.027958 0.000000 0.000000 0.000000
# 4 0.000000 0.000000 0.000000 0.269097 0.000000 0.000000
# 5 0.000000 0.000000 0.000000 0.000000 0.066955 0.000000
# 6 0.000000 0.000000 0.000000 0.000000 0.000000 0.081195
#
#
# Mechanical properties :
#
#
# Convention : Reuss Voigt Hill
#
# Bulk Modulus (GPa) = 31.51538 55.88665 43.70102
# Shear Modulus (GPa) = 9.43907 16.42316 12.93112
#
# Velocity S-wave (km/s) = 2.14572 2.83033 2.51146
# Velocity P-wave (km/s) = 4.63801 6.15962 5.45216
#
# Compressibility (1/GPa) = 0.03173054
#
# Stress axis : x y z
#
# Youngs Moduli (GPa) = 93.60558 35.49957 35.76830
#
# Poissons Ratio (x) = 0.21250 0.33302
# Poissons Ratio (y) = 0.56033 0.08023
# Poissons Ratio (z) = 0.87152 0.07963
#
# Static dielectric constant tensor:
#      x y z
#    x 1.851710 0.000000 0.000000 
#    y 0.000000 1.739430 0.000000 
#    z 0.000000 0.000000 1.802240 
# 
# From -- ./inp_files/26766.got.cif
#   From: 2010.05.17/outbox.cif.g08.bks.cpg/sg23_14_cif.got.tgz:26766.got - 2010.06.04 12:02:01.
