data_PCOD9329353
_publ_section_title
;
Structure prediction by ZEFSAII (Michael W. Deem and Ramdas Pophale) SiO2 
 PCOD9329353
Probable space group: I 2 2 2
;
_chemical_formula_sum "Si O2"
_cell_formula_units_Z 52
_cell_length_a 22.893871
_cell_length_b 9.330689
_cell_length_c 13.728957
_cell_angle_alpha 90.000000
_cell_angle_beta 90.000000
_cell_angle_gamma 90.000000
_cell_volume 2932.719254
_symmetry_space_group_name_H-M "I 2 2 2"
_symmetry_group_IT_number 23
_symmetry_cell_setting 'orthorhombic'
loop_
_space_group_symop_operation_xyz
x,y,z
-x,-y,z
x,-y,-z
-x,y,-z
1/2+x,1/2+y,1/2+z
1/2-x,1/2-y,1/2+z
1/2+x,1/2-y,1/2-z
1/2-x,1/2+y,1/2-z
loop_
_atom_site_type_symbol
_atom_site_label
_atom_site_fract_x
_atom_site_fract_y
_atom_site_fract_z
Si Si1 0.500000 0.744645 0.500000
Si Si2 0.376993 0.073471 0.297467
Si Si3 0.729635 0.307029 0.495681
Si Si4 0.686426 0.000000 0.500000
Si Si5 0.612165 0.626313 0.387126
Si Si6 0.209914 0.377331 0.311734
Si Si7 0.000000 0.500000 0.151097
Si Si8 0.691953 0.579122 0.705093
O O1 0.553043 0.653383 0.450393
O O2 0.484864 0.860158 0.415124
O O3 0.353230 0.019757 0.403772
O O4 0.379769 0.244556 0.309749
O O5 0.337422 0.995407 0.218660
O O6 0.443266 0.028048 0.286756
O O7 0.666423 0.350366 0.540104
O O8 0.776789 0.355671 0.574205
O O9 0.728982 0.370919 0.389222
O O10 0.726502 0.137462 0.489356
O O11 0.628684 0.478789 0.331497
O O12 0.269627 0.441217 0.262114
O O13 0.192547 0.219652 0.271772
#
# Coordination Sequence:
#
# PCOD9329353 Si02
#       8
#     4   8   8   4   8   8   4   8
#     4   9  16  28  51  72 102 142 186 208 262 336
#     4  10  18  31  51  73 101 138 181 220 266 321
#     4  10  20  33  50  71 107 139 178 218 270 324
#     4  10  16  31  50  72 100 140 173 214 262 328
#     4   9  18  31  49  71 102 142 179 211 258 320
#     4  11  21  32  51  74 101 143 181 222 273 321
#     4   9  16  28  50  74  97 140 182 224 257 322
#     4  11  21  35  51  75 108 142 178 226 268 332
#
# _framework density 17.730986000000001
#
# number of rings (size 3 to 8) (size 9 to 14) (size 15 to 20)
#    0.000    2.000    1.538    7.385    0.000    0.000 
#    0.000    1.538    3.385    0.000    0.000    2.154 
#    0.000    0.000    0.000    0.000    0.000    0.000 
#
# Total GULP energy -144747.768287 kJ/mol
# GULP energy per Si atom -5567.221857 kJ/mol
# Density = 1.769063 g / cm^3
# Si number density = 17.730986 Si / 1000 Ang^3
#
#
#
# Elastic Constant Matrix: (Units=GPa)
#
#
# Indices 1 2 3 4 5 6 
#
# 1 94.6459 34.3433 32.7898 0.0000 0.0000 0.0000
# 2 34.3433 103.5883 24.1273 0.0000 0.0000 0.0000
# 3 32.7898 24.1273 61.1384 0.0000 0.0000 0.0000
# 4 0.0000 0.0000 0.0000 26.7981 0.0000 0.0000
# 5 0.0000 0.0000 0.0000 0.0000 30.9559 0.0000
# 6 0.0000 0.0000 0.0000 0.0000 0.0000 21.5914
#
#
#
# Elastic Compliance Matrix: (Units=1/GPa)
#
#
# Indices 1 2 3 4 5 6 
#
# 1 0.013852 -0.003152 -0.006185 0.000000 0.000000 0.000000
# 2 -0.003152 0.011348 -0.002788 0.000000 0.000000 0.000000
# 3 -0.006185 -0.002788 0.020774 0.000000 0.000000 0.000000
# 4 0.000000 0.000000 0.000000 0.037316 0.000000 0.000000
# 5 0.000000 0.000000 0.000000 0.000000 0.032304 0.000000
# 6 0.000000 0.000000 0.000000 0.000000 0.000000 0.046315
#
#
# Mechanical properties :
#
#
# Convention : Reuss Voigt Hill
#
# Bulk Modulus (GPa) = 46.03253 49.09927 47.56590
# Shear Modulus (GPa) = 25.85309 27.07656 26.46482
#
# Velocity S-wave (km/s) = 3.82262 3.91202 3.86758
# Velocity P-wave (km/s) = 6.74546 6.93949 6.84316
#
# Compressibility (1/GPa) = 0.02172377
#
# Stress axis : x y z
#
# Youngs Moduli (GPa) = 72.19010 88.12213 48.13734
#
# Poissons Ratio (x) = 0.27775 0.29775
# Poissons Ratio (y) = 0.22753 0.13420
# Poissons Ratio (z) = 0.44653 0.24567
#
# Static dielectric constant tensor:
#      x y z
#    x 1.620620 0.000000 0.000000 
#    y 0.000000 1.736380 0.000000 
#    z 0.000000 0.000000 1.642330 
# 
# From -- ./inp_files/22569.got.cif
#   From: 2010.05.17/outbox.cif.g08.bks.cpg/sg23_12_cif.got.tgz:22569.got - 2010.06.04 12:02:01.
