data_PCOD9329023
_publ_section_title
;
Structure prediction by ZEFSAII (Michael W. Deem and Ramdas Pophale) SiO2 
 PCOD9329023
Probable space group: F 2 2 2
;
_chemical_formula_sum "Si O2"
_cell_formula_units_Z 96
_cell_length_a 15.296891
_cell_length_b 14.960197
_cell_length_c 18.944505
_cell_angle_alpha 90.000000
_cell_angle_beta 90.000000
_cell_angle_gamma 90.000000
_cell_volume 4335.345828
_symmetry_space_group_name_H-M "F 2 2 2"
_symmetry_group_IT_number 22
_symmetry_cell_setting 'orthorhombic'
loop_
_space_group_symop_operation_xyz
x,y,z
-x,-y,z
x,-y,-z
-x,y,-z
x,1/2+y,1/2+z
-x,1/2-y,1/2+z
x,1/2-y,1/2-z
-x,1/2+y,1/2-z
1/2+x,y,1/2+z
1/2-x,-y,1/2+z
1/2+x,-y,1/2-z
1/2-x,y,1/2-z
1/2+x,1/2+y,z
1/2-x,1/2-y,z
1/2+x,1/2-y,-z
1/2-x,1/2+y,-z
loop_
_atom_site_type_symbol
_atom_site_label
_atom_site_fract_x
_atom_site_fract_y
_atom_site_fract_z
Si Si1 0.639656 0.366644 0.949153
Si Si2 0.596308 0.498687 0.166229
Si Si3 0.645383 0.849506 0.746237
Si Si4 0.000000 0.771302 0.500000
Si Si5 0.250000 0.750000 0.653097
Si Si6 0.214129 0.000000 0.500000
Si Si7 0.250000 0.901601 0.750000
Si Si8 0.071596 0.077187 0.607191
O O1 0.592350 0.447649 0.906930
O O2 0.579260 0.299860 0.992480
O O3 0.677766 0.299470 0.891207
O O4 0.722240 0.416491 0.983634
O O5 0.500000 0.500000 0.198653
O O6 0.620693 0.395127 0.171785
O O7 0.674984 0.542815 0.211442
O O8 0.610913 0.750000 0.750000
O O9 0.750000 0.849190 0.750000
O O10 0.607276 0.897435 0.815628
O O11 0.971369 0.839333 0.563533
O O12 0.206477 0.830659 0.696778
O O13 0.151542 0.966469 0.437275
O O14 0.000000 0.000000 0.612686
#
# Coordination Sequence:
#
# PCOD9329023 Si02
#       8
#    16  16  16   8   8   8   8  16
#     4  11  27  41  74 101 150 184 248 303 370 448
#     4  11  24  44  68 102 143 187 235 298 391 441
#     4  11  26  46  73 108 146 196 250 313 387 465
#     4  12  27  49  72 114 152 196 258 317 373 448
#     4   9  20  42  68 100 126 178 235 290 350 428
#     4  12  25  47  74 106 146 212 244 303 385 456
#     4   9  20  42  69  96 138 172 235 298 354 437
#     4  12  26  51  78 106 156 198 263 318 381 469
#
# _framework density 22.143563
#
# number of rings (size 3 to 8) (size 9 to 14) (size 15 to 20)
#    0.000    1.000    2.500    2.500    7.000    4.000 
#    3.000    0.000    0.000    0.000    0.000    0.000 
#    0.000    0.000    0.000    0.000    0.000    0.000 
#
# Total GULP energy -133920.635717 kJ/mol
# GULP energy per Si atom -5580.026488 kJ/mol
# Density = 2.209316 g / cm^3
# Si number density = 22.143563 Si / 1000 Ang^3
#
#
#
# Elastic Constant Matrix: (Units=GPa)
#
#
# Indices 1 2 3 4 5 6 
#
# 1 107.1294 57.9741 38.1072 0.0000 0.0000 0.0000
# 2 57.9741 159.1627 54.9995 0.0000 0.0000 0.0000
# 3 38.1072 54.9995 76.4634 0.0000 0.0000 0.0000
# 4 0.0000 0.0000 0.0000 189.9399 0.0000 0.0000
# 5 0.0000 0.0000 0.0000 0.0000 18.3125 0.0000
# 6 0.0000 0.0000 0.0000 0.0000 0.0000 27.6953
#
#
#
# Elastic Compliance Matrix: (Units=1/GPa)
#
#
# Indices 1 2 3 4 5 6 
#
# 1 0.012449 -0.003181 -0.003916 0.000000 0.000000 0.000000
# 2 -0.003181 0.009174 -0.005013 0.000000 0.000000 0.000000
# 3 -0.003916 -0.005013 0.018636 0.000000 0.000000 0.000000
# 4 0.000000 0.000000 0.000000 0.005265 0.000000 0.000000
# 5 0.000000 0.000000 0.000000 0.000000 0.054608 0.000000
# 6 0.000000 0.000000 0.000000 0.000000 0.000000 0.036107
#
#
# Mechanical properties :
#
#
# Convention : Reuss Voigt Hill
#
# Bulk Modulus (GPa) = 62.35313 71.65743 67.00528
# Shear Modulus (GPa) = 30.15581 59.96788 45.06184
#
# Velocity S-wave (km/s) = 3.69430 5.20963 4.51598
# Velocity P-wave (km/s) = 6.81299 8.28357 7.58401
#
# Compressibility (1/GPa) = 0.01603769
#
# Stress axis : x y z
#
# Youngs Moduli (GPa) = 80.32731 109.00333 53.66012
#
# Poissons Ratio (x) = 0.34677 0.21013
# Poissons Ratio (y) = 0.25555 0.26902
# Poissons Ratio (z) = 0.31456 0.54647
#
# Static dielectric constant tensor:
#      x y z
#    x 1.770570 0.000000 0.000000 
#    y 0.000000 1.851830 0.000000 
#    z 0.000000 0.000000 2.061320 
# 
# From -- ./inp_files/43537.got.cif
#   From: 2010.05.17/outbox.cif.g08.bks.cpg/sg22_22_cif.got.tgz:43537.got - 2010.06.03 23:40:54.
