data_PCOD9329714
_publ_section_title
;
Structure prediction by ZEFSAII (Michael W. Deem and Ramdas Pophale) SiO2 
 PCOD9329714
Probable space group: I 2 2 2
;
_chemical_formula_sum "Si O2"
_cell_formula_units_Z 38
_cell_length_a 21.523674
_cell_length_b 8.948434
_cell_length_c 9.272390
_cell_angle_alpha 90.000000
_cell_angle_beta 90.000000
_cell_angle_gamma 90.000000
_cell_volume 1785.891765
_symmetry_space_group_name_H-M "I 2 2 2"
_symmetry_group_IT_number 23
_symmetry_cell_setting 'orthorhombic'
loop_
_space_group_symop_operation_xyz
x,y,z
-x,-y,z
x,-y,-z
-x,y,-z
1/2+x,1/2+y,1/2+z
1/2-x,1/2-y,1/2+z
1/2+x,1/2-y,1/2-z
1/2-x,1/2+y,1/2-z
loop_
_atom_site_type_symbol
_atom_site_label
_atom_site_fract_x
_atom_site_fract_y
_atom_site_fract_z
Si Si1 0.304427 0.523654 0.345977
Si Si2 0.912831 0.505800 0.738533
Si Si3 0.000000 0.500000 0.500000
Si Si4 0.614714 0.311994 0.105905
Si Si5 0.500000 0.000000 0.500000
Si Si6 0.311224 0.232388 0.179017
Si Si7 0.000000 0.000000 0.500000
O O1 0.336495 0.500000 0.500000
O O2 0.347971 0.601527 0.229168
O O3 0.286401 0.363798 0.279954
O O4 0.244613 0.627125 0.371179
O O5 0.957333 0.584159 0.617075
O O6 0.890286 0.358759 0.657233
O O7 0.859146 0.625263 0.765206
O O8 0.949661 0.448450 0.878836
O O9 0.548096 0.392713 0.085703
O O10 0.653021 0.306158 0.956325
#
# Coordination Sequence:
#
# PCOD9329714 Si02
#       7
#     8   8   2   8   2   8   2
#     4  12  27  45  71 108 145 183 245 309 383 431
#     4  11  23  43  69 103 137 192 245 300 368 440
#     4  10  18  38  72  96 130 178 240 290 342 446
#     4  12  25  48  76 104 145 201 246 305 363 459
#     4  10  28  38  62 108 144 178 232 310 380 422
#     4  12  24  48  74 105 140 199 248 307 372 456
#     4  12  26  48  78 108 150 196 268 294 370 448
#
# _framework density 21.277887
#
# number of rings (size 3 to 8) (size 9 to 14) (size 15 to 20)
#    0.000    0.421    4.211    4.421    5.895    0.000 
#    3.789    0.000    0.000    0.000    0.000    0.000 
#    0.000    0.000    0.000    0.000    0.000    0.000 
#
# Total GULP energy -105981.781969 kJ/mol
# GULP energy per Si atom -5577.988525 kJ/mol
# Density = 2.122946 g / cm^3
# Si number density = 21.277887 Si / 1000 Ang^3
#
#
#
# Elastic Constant Matrix: (Units=GPa)
#
#
# Indices 1 2 3 4 5 6 
#
# 1 96.2147 33.0398 24.2112 0.0000 0.0000 0.0000
# 2 33.0398 109.7074 43.0777 0.0000 0.0000 0.0000
# 3 24.2112 43.0777 112.0631 0.0000 0.0000 0.0000
# 4 0.0000 0.0000 0.0000 16.7955 0.0000 0.0000
# 5 0.0000 0.0000 0.0000 0.0000 25.0267 0.0000
# 6 0.0000 0.0000 0.0000 0.0000 0.0000 32.2879
#
#
#
# Elastic Compliance Matrix: (Units=1/GPa)
#
#
# Indices 1 2 3 4 5 6 
#
# 1 0.011773 -0.003000 -0.001391 0.000000 0.000000 0.000000
# 2 -0.003000 0.011500 -0.003773 0.000000 0.000000 0.000000
# 3 -0.001391 -0.003773 0.010674 0.000000 0.000000 0.000000
# 4 0.000000 0.000000 0.000000 0.059540 0.000000 0.000000
# 5 0.000000 0.000000 0.000000 0.000000 0.039957 0.000000
# 6 0.000000 0.000000 0.000000 0.000000 0.000000 0.030971
#
#
# Mechanical properties :
#
#
# Convention : Reuss Voigt Hill
#
# Bulk Modulus (GPa) = 56.74759 57.62696 57.18727
# Shear Modulus (GPa) = 26.79306 29.33245 28.06276
#
# Velocity S-wave (km/s) = 3.55237 3.71690 3.63556
# Velocity P-wave (km/s) = 6.59950 6.74998 6.67517
#
# Compressibility (1/GPa) = 0.01762189
#
# Stress axis : x y z
#
# Youngs Moduli (GPa) = 84.93703 86.95745 93.68429
#
# Poissons Ratio (x) = 0.26085 0.13027
# Poissons Ratio (y) = 0.25479 0.35343
# Poissons Ratio (z) = 0.11811 0.32805
#
# Static dielectric constant tensor:
#      x y z
#    x 1.832180 0.000000 0.000000 
#    y 0.000000 1.787270 0.000000 
#    z 0.000000 0.000000 1.751310 
# 
# From -- ./inp_files/6990.got.cif
#   From: 2010.05.17/outbox.cif.g08.bks.cpg/sg23_4_cif.got.tgz:6990.got - 2010.06.04 12:02:01.
