data_PCOD9329894
_publ_section_title
;
Structure prediction by ZEFSAII (Michael W. Deem and Ramdas Pophale) SiO2 
 PCOD9329894
Probable space group: I 2 2 2
;
_chemical_formula_sum "Si O2"
_cell_formula_units_Z 48
_cell_length_a 13.120718
_cell_length_b 17.079493
_cell_length_c 8.460655
_cell_angle_alpha 90.000000
_cell_angle_beta 90.000000
_cell_angle_gamma 90.000000
_cell_volume 1895.992269
_symmetry_space_group_name_H-M "I 2 2 2"
_symmetry_group_IT_number 23
_symmetry_cell_setting 'orthorhombic'
loop_
_space_group_symop_operation_xyz
x,y,z
-x,-y,z
x,-y,-z
-x,y,-z
1/2+x,1/2+y,1/2+z
1/2-x,1/2-y,1/2+z
1/2+x,1/2-y,1/2-z
1/2-x,1/2+y,1/2-z
loop_
_atom_site_type_symbol
_atom_site_label
_atom_site_fract_x
_atom_site_fract_y
_atom_site_fract_z
Si Si1 0.364668 0.758076 0.191278
Si Si2 0.637309 0.310858 0.680682
Si Si3 0.434291 0.902531 0.342929
Si Si4 0.332027 0.610942 0.354181
Si Si5 0.292220 0.462703 0.169555
Si Si6 0.405394 0.163013 0.136459
O O1 0.245048 0.767614 0.158529
O O2 0.387618 0.814145 0.341215
O O3 0.383710 0.667792 0.224927
O O4 0.408309 0.801442 0.039030
O O5 0.620823 0.358310 0.518558
O O6 0.656108 0.378467 0.809611
O O7 0.573921 0.238640 0.749758
O O8 0.500000 0.916380 0.500000
O O9 0.331413 0.952311 0.317325
O O10 0.518022 0.903070 0.202546
O O11 0.335332 0.521301 0.302868
O O12 0.210487 0.630686 0.353247
O O13 0.311927 0.500000 0.000000
#
# Coordination Sequence:
#
# PCOD9329894 Si02
#       6
#     8   8   8   8   8   8
#     4   9  19  35  55  79 106 146 197 240 283 338
#     4   9  19  35  55  79 106 146 197 240 283 338
#     4  11  22  35  53  81 117 153 190 235 289 345
#     4  10  19  34  56  79 109 148 193 243 289 341
#     4  11  22  35  53  81 117 153 190 235 289 345
#     4  10  19  34  56  79 109 148 193 243 289 341
#
# _framework density 25.316557
#
# number of rings (size 3 to 8) (size 9 to 14) (size 15 to 20)
#    0.000    2.000    0.000    4.000    0.000    7.667 
#    0.000    1.667    0.000   13.000    0.000    7.000 
#    0.000    0.000    0.000    0.000    0.000    0.000 
#
# Total GULP energy -134014.718951 kJ/mol
# GULP energy per Si atom -5583.946623 kJ/mol
# Density = 2.525894 g / cm^3
# Si number density = 25.316557 Si / 1000 Ang^3
#
#
#
# Elastic Constant Matrix: (Units=GPa)
#
#
# Indices 1 2 3 4 5 6 
#
# 1 33.6542 -0.3874 2.3252 0.0000 0.0000 0.0000
# 2 -0.3874 95.7687 19.5009 0.0000 0.0000 0.0000
# 3 2.3252 19.5009 113.3034 0.0000 0.0000 0.0000
# 4 0.0000 0.0000 0.0000 16.4666 0.0000 0.0000
# 5 0.0000 0.0000 0.0000 0.0000 15.3015 0.0000
# 6 0.0000 0.0000 0.0000 0.0000 0.0000 46.0107
#
#
#
# Elastic Compliance Matrix: (Units=1/GPa)
#
#
# Indices 1 2 3 4 5 6 
#
# 1 0.029762 0.000254 -0.000654 0.000000 0.000000 0.000000
# 2 0.000254 0.010823 -0.001868 0.000000 0.000000 0.000000
# 3 -0.000654 -0.001868 0.009161 0.000000 0.000000 0.000000
# 4 0.000000 0.000000 0.000000 0.060729 0.000000 0.000000
# 5 0.000000 0.000000 0.000000 0.000000 0.065353 0.000000
# 6 0.000000 0.000000 0.000000 0.000000 0.000000 0.021734
#
#
# Mechanical properties :
#
#
# Convention : Reuss Voigt Hill
#
# Bulk Modulus (GPa) = 22.11970 31.73375 26.92672
# Shear Modulus (GPa) = 23.02351 30.30828 26.66589
#
# Velocity S-wave (km/s) = 3.01894 3.46377 3.24898
# Velocity P-wave (km/s) = 4.57255 5.34406 4.97329
#
# Compressibility (1/GPa) = 0.04520856
#
# Stress axis : x y z
#
# Youngs Moduli (GPa) = 33.59976 92.39390 109.16082
#
# Poissons Ratio (x) = -0.02344 0.07144
# Poissons Ratio (y) = -0.00852 0.20391
# Poissons Ratio (z) = 0.02199 0.17259
#
# Static dielectric constant tensor:
#      x y z
#    x 2.142810 0.000000 0.000000 
#    y 0.000000 1.973510 0.000000 
#    z 0.000000 0.000000 2.068280 
# 
# From -- ./inp_files/11034.got.cif
#   From: 2010.05.17/outbox.cif.g08.bks.cpg/sg23_6_cif.got.tgz:11034.got - 2010.06.04 12:02:01.
