data_PCOD9329805
_publ_section_title
;
Structure prediction by ZEFSAII (Michael W. Deem and Ramdas Pophale) SiO2 
 PCOD9329805
Probable space group: I 2 2 2
;
_chemical_formula_sum "Si O2"
_cell_formula_units_Z 64
_cell_length_a 23.686095
_cell_length_b 8.847630
_cell_length_c 19.675130
_cell_angle_alpha 90.000000
_cell_angle_beta 90.000000
_cell_angle_gamma 90.000000
_cell_volume 4123.234451
_symmetry_space_group_name_H-M "I 2 2 2"
_symmetry_group_IT_number 23
_symmetry_cell_setting 'orthorhombic'
loop_
_space_group_symop_operation_xyz
x,y,z
-x,-y,z
x,-y,-z
-x,y,-z
1/2+x,1/2+y,1/2+z
1/2-x,1/2-y,1/2+z
1/2+x,1/2-y,1/2-z
1/2-x,1/2+y,1/2-z
loop_
_atom_site_type_symbol
_atom_site_label
_atom_site_fract_x
_atom_site_fract_y
_atom_site_fract_z
Si Si1 0.723190 0.818613 0.351412
Si Si2 0.884307 0.181912 0.500000
Si Si3 0.434484 0.180639 0.137537
Si Si4 0.339579 0.679679 0.228330
Si Si5 0.247632 0.816163 0.500000
Si Si6 0.565516 0.819361 0.862463
Si Si7 0.276810 0.818612 0.351412
Si Si8 0.839579 0.820321 0.728330
O O1 0.785565 0.787882 0.320471
O O2 0.723644 0.767998 0.429672
O O3 0.678676 0.739183 0.302150
O O4 0.715045 0.000000 0.348388
O O5 0.913894 0.244823 0.432722
O O6 0.818304 0.227926 0.500000
O O7 0.913894 0.244823 0.567278
O O8 0.886602 0.000000 0.500000
O O9 0.500000 0.218311 0.149582
O O10 0.393779 0.240401 0.196691
O O11 0.429355 1.000000 0.131827
O O12 0.393779 0.759599 0.196691
O O13 0.321324 0.739183 0.302150
O O14 0.347679 0.500000 0.228941
O O15 0.276356 0.767998 0.429672
O O16 0.247918 0.000000 0.500000
O O17 0.214435 0.787882 0.320471
#
# Coordination Sequence:
#
# PCOD9329805 Si02
#       8
#     8   8   8   8   8   8   8   8
#     4   9  17  31  50  71  99 129 161 202 248 294
#     4  11  20  34  51  72 100 133 173 207 240 287
#     4  11  23  36  49  69  99 135 173 209 247 291
#     4  10  19  32  50  72  97 128 167 207 247 291
#     4   9  16  30  50  73  99 131 164 197 240 294
#     4  11  23  36  49  69  99 135 173 209 247 291
#     4   9  17  31  50  71  99 129 161 202 248 294
#     4  10  19  32  50  72  97 128 167 207 247 291
#
# _framework density 15.521794
#
# number of rings (size 3 to 8) (size 9 to 14) (size 15 to 20)
#    0.000    2.000    2.500    2.250    0.000    4.500 
#    0.000    0.625    0.000    0.000    0.000    0.875 
#    0.000    7.000    0.000    0.000    0.000    0.000 
#
# Total GULP energy -178579.306589 kJ/mol
# GULP energy per Si atom -5580.603331 kJ/mol
# Density = 1.548647 g / cm^3
# Si number density = 15.521794 Si / 1000 Ang^3
#
#
#
# Elastic Constant Matrix: (Units=GPa)
#
#
# Indices 1 2 3 4 5 6 
#
# 1 98.2338 44.8919 72.3336 0.0000 0.0000 0.0000
# 2 44.8919 39.3832 44.9864 0.0000 0.0000 0.0000
# 3 72.3336 44.9864 147.5967 0.0000 0.0000 0.0000
# 4 0.0000 0.0000 0.0000 21.1964 0.0000 0.0000
# 5 0.0000 0.0000 0.0000 0.0000 15.5707 0.0000
# 6 0.0000 0.0000 0.0000 0.0000 0.0000 22.5622
#
#
#
# Elastic Compliance Matrix: (Units=1/GPa)
#
#
# Indices 1 2 3 4 5 6 
#
# 1 0.023554 -0.020961 -0.005155 0.000000 0.000000 0.000000
# 2 -0.020961 0.057606 -0.007286 0.000000 0.000000 0.000000
# 3 -0.005155 -0.007286 0.011522 0.000000 0.000000 0.000000
# 4 0.000000 0.000000 0.000000 0.047178 0.000000 0.000000
# 5 0.000000 0.000000 0.000000 0.000000 0.064223 0.000000
# 6 0.000000 0.000000 0.000000 0.000000 0.000000 0.044322
#
#
# Mechanical properties :
#
#
# Convention : Reuss Voigt Hill
#
# Bulk Modulus (GPa) = 38.63927 67.73750 53.18838
# Shear Modulus (GPa) = 15.43998 20.06599 17.75298
#
# Velocity S-wave (km/s) = 3.15735 3.59940 3.38560
# Velocity P-wave (km/s) = 6.18381 7.81084 7.04445
#
# Compressibility (1/GPa) = 0.02588040
#
# Stress axis : x y z
#
# Youngs Moduli (GPa) = 42.45510 17.35919 86.79051
#
# Poissons Ratio (x) = 0.36386 0.44738
# Poissons Ratio (y) = 0.88990 0.63232
# Poissons Ratio (z) = 0.21884 0.12647
#
# Static dielectric constant tensor:
#      x y z
#    x 1.492630 0.000000 0.000000 
#    y 0.000000 1.515580 0.000000 
#    z 0.000000 0.000000 1.515710 
# 
# From -- ./inp_files/11410.got.cif
#   From: 2010.05.17/outbox.cif.g08.bks.cpg/sg23_6_cif.got.tgz:11410.got - 2010.06.04 12:02:01.
