data_PCOD9329924
_publ_section_title
;
Structure prediction by ZEFSAII (Michael W. Deem and Ramdas Pophale) SiO2 
 PCOD9329924
Probable space group: I 2 2 2
;
_chemical_formula_sum "Si O2"
_cell_formula_units_Z 64
_cell_length_a 11.104195
_cell_length_b 11.754018
_cell_length_c 22.661950
_cell_angle_alpha 90.000000
_cell_angle_beta 90.000000
_cell_angle_gamma 90.000000
_cell_volume 2957.812965
_symmetry_space_group_name_H-M "I 2 2 2"
_symmetry_group_IT_number 23
_symmetry_cell_setting 'orthorhombic'
loop_
_space_group_symop_operation_xyz
x,y,z
-x,-y,z
x,-y,-z
-x,y,-z
1/2+x,1/2+y,1/2+z
1/2-x,1/2-y,1/2+z
1/2+x,1/2-y,1/2-z
1/2-x,1/2+y,1/2-z
loop_
_atom_site_type_symbol
_atom_site_label
_atom_site_fract_x
_atom_site_fract_y
_atom_site_fract_z
Si Si1 0.289011 0.161262 0.157442
Si Si2 0.268425 0.056576 0.763343
Si Si3 0.230230 0.896547 0.468125
Si Si4 0.348918 0.736498 0.152293
Si Si5 0.147771 0.595893 0.087261
Si Si6 0.074520 0.668910 0.835775
Si Si7 0.540218 0.678889 0.234153
Si Si8 0.448336 0.810702 0.939175
O O1 0.170006 0.234387 0.142503
O O2 0.378003 0.250099 0.188475
O O3 0.359955 0.113135 0.100697
O O4 0.276424 0.063421 0.205214
O O5 0.311100 0.154529 0.809241
O O6 0.353092 0.077901 0.705938
O O7 0.128124 0.079490 0.752338
O O8 0.330089 0.866570 0.518492
O O9 0.518409 0.879301 0.384395
O O10 0.139027 0.797805 0.452282
O O11 0.299742 0.965811 0.416677
O O12 0.238457 0.670072 0.125468
O O13 0.420819 0.655288 0.197205
O O14 0.437650 0.773166 0.099715
O O15 0.341533 0.500000 0.000000
O O16 0.994044 0.740678 0.788663
O O17 0.500000 0.856879 0.000000
#
# Coordination Sequence:
#
# PCOD9329924 Si02
#       8
#     8   8   8   8   8   8   8   8
#     4  10  24  41  61  95 126 176 223 271 325 388
#     4  10  21  42  61  92 138 173 227 267 327 397
#     4   8  20  37  66 100 130 169 213 266 334 396
#     4  10  19  34  64  91 134 170 218 277 324 389
#     4   9  18  38  64 103 134 169 209 266 341 390
#     4  10  20  41  68  95 136 171 212 274 330 394
#     4   9  20  38  60  90 127 179 216 265 327 382
#     4  11  20  40  65  92 129 170 219 279 323 379
#
# _framework density 21.637609999999999
#
# number of rings (size 3 to 8) (size 9 to 14) (size 15 to 20)
#    0.750    1.500    2.500    0.000    0.000    6.750 
#    9.000    6.875    2.750    0.000    0.000    1.750 
#    0.000    0.000    0.000    0.000    0.000    0.000 
#
# Total GULP energy -178561.377565 kJ/mol
# GULP energy per Si atom -5580.043049 kJ/mol
# Density = 2.158836 g / cm^3
# Si number density = 21.637610 Si / 1000 Ang^3
#
#
#
# Elastic Constant Matrix: (Units=GPa)
#
#
# Indices 1 2 3 4 5 6 
#
# 1 114.3250 36.4051 48.0063 0.0000 0.0000 0.0000
# 2 36.4051 61.2711 30.5753 0.0000 0.0000 0.0000
# 3 48.0063 30.5753 118.8119 0.0000 0.0000 0.0000
# 4 0.0000 0.0000 0.0000 28.7274 0.0000 0.0000
# 5 0.0000 0.0000 0.0000 0.0000 32.9819 0.0000
# 6 0.0000 0.0000 0.0000 0.0000 0.0000 6.8559
#
#
#
# Elastic Compliance Matrix: (Units=1/GPa)
#
#
# Indices 1 2 3 4 5 6 
#
# 1 0.011891 -0.005355 -0.003426 0.000000 0.000000 0.000000
# 2 -0.005355 0.021138 -0.003276 0.000000 0.000000 0.000000
# 3 -0.003426 -0.003276 0.010644 0.000000 0.000000 0.000000
# 4 0.000000 0.000000 0.000000 0.034810 0.000000 0.000000
# 5 0.000000 0.000000 0.000000 0.000000 0.030320 0.000000
# 6 0.000000 0.000000 0.000000 0.000000 0.000000 0.145859
#
#
# Mechanical properties :
#
#
# Convention : Reuss Voigt Hill
#
# Bulk Modulus (GPa) = 51.13102 58.26459 54.69781
# Shear Modulus (GPa) = 17.52567 25.67447 21.60007
#
# Velocity S-wave (km/s) = 2.84907 3.44839 3.16296
# Velocity P-wave (km/s) = 5.87409 6.54532 6.21876
#
# Compressibility (1/GPa) = 0.01955760
#
# Stress axis : x y z
#
# Youngs Moduli (GPa) = 84.09609 47.30924 93.94863
#
# Poissons Ratio (x) = 0.25336 0.32191
# Poissons Ratio (y) = 0.45037 0.30775
# Poissons Ratio (z) = 0.28815 0.15497
#
# Static dielectric constant tensor:
#      x y z
#    x 1.817970 0.000000 0.000000 
#    y 0.000000 1.804210 0.000000 
#    z 0.000000 0.000000 1.884040 
# 
# From -- ./inp_files/28422.got.cif
#   From: 2010.05.17/outbox.cif.g08.bks.cpg/sg23_15_cif.got.tgz:28422.got - 2010.06.04 12:02:01.
