data_PCOD9329542
_publ_section_title
;
Structure prediction by ZEFSAII (Michael W. Deem and Ramdas Pophale) SiO2 
 PCOD9329542
Probable space group: I 2 2 2
;
_chemical_formula_sum "Si O2"
_cell_formula_units_Z 40
_cell_length_a 10.735705
_cell_length_b 23.556739
_cell_length_c 7.333120
_cell_angle_alpha 90.000000
_cell_angle_beta 90.000000
_cell_angle_gamma 90.000000
_cell_volume 1854.532853
_symmetry_space_group_name_H-M "I 2 2 2"
_symmetry_group_IT_number 23
_symmetry_cell_setting 'orthorhombic'
loop_
_space_group_symop_operation_xyz
x,y,z
-x,-y,z
x,-y,-z
-x,y,-z
1/2+x,1/2+y,1/2+z
1/2-x,1/2-y,1/2+z
1/2+x,1/2-y,1/2-z
1/2-x,1/2+y,1/2-z
loop_
_atom_site_type_symbol
_atom_site_label
_atom_site_fract_x
_atom_site_fract_y
_atom_site_fract_z
Si Si1 0.500000 0.194993 0.719452
Si Si2 0.738562 0.877447 0.276919
Si Si3 0.500000 0.671372 0.785947
Si Si4 0.855586 0.500000 0.778078
Si Si5 0.238562 0.377447 0.223081
O O1 0.500000 0.191833 0.500000
O O2 0.624289 0.162594 0.781974
O O3 0.500000 0.260821 0.768961
O O4 0.375712 0.162593 0.781974
O O5 0.738270 0.876343 0.500000
O O6 0.871382 0.854259 0.212632
O O7 0.710509 0.941948 0.221213
O O8 0.371382 0.645741 0.712633
O O9 0.500000 0.657267 0.000000
O O10 0.789491 0.441948 0.721213
O O11 0.000000 0.500000 0.721024
O O12 0.856334 0.500000 0.000000
#
# Coordination Sequence:
#
# PCOD9329542 Si02
#       5
#     8   8   8   8   8
#     4  10  18  31  49  67  89 124 161 182 210 272
#     4   9  17  28  45  68  93 119 150 188 228 268
#     4  10  20  31  43  69 101 120 143 188 234 264
#     4   9  14  25  45  67  90 117 149 187 228 269
#     4   9  17  28  45  68  93 119 150 188 228 268
#
# _framework density 21.568776
#
# number of rings (size 3 to 8) (size 9 to 14) (size 15 to 20)
#    0.000    2.600    2.000    1.200    0.000    0.800 
#    0.000    4.000    0.000    0.000    0.000    8.400 
#    0.000    0.000    0.000    0.000    0.000    0.000 
#
# Total GULP energy -111771.453915 kJ/mol
# GULP energy per Si atom -5588.572696 kJ/mol
# Density = 2.151968 g / cm^3
# Si number density = 21.568776 Si / 1000 Ang^3
#
#
#
# Elastic Constant Matrix: (Units=GPa)
#
#
# Indices 1 2 3 4 5 6 
#
# 1 262.0998 154.0176 9.3378 0.0001 0.0001 0.0001
# 2 154.0176 219.8669 -9.9797 0.0007 0.0003 -0.0009
# 3 9.3378 -9.9797 81.9864 0.0005 0.0014 -0.0010
# 4 0.0001 0.0007 0.0005 24.6964 -0.0001 -0.0009
# 5 0.0001 0.0003 0.0014 -0.0001 -15.9499 -0.0002
# 6 0.0001 -0.0009 -0.0010 -0.0009 -0.0002 -17.6645
#
#
#
# Elastic Compliance Matrix: (Units=1/GPa)
#
#
# Indices 1 2 3 4 5 6 
#
# 1 0.006625 -0.004701 -0.001327 0.000000 0.000000 0.000000
# 2 -0.004701 0.007909 0.001498 0.000000 0.000000 -0.000001
# 3 -0.001327 0.001498 0.012531 0.000000 0.000001 -0.000001
# 4 0.000000 0.000000 0.000000 0.040492 0.000000 -0.000002
# 5 0.000000 0.000000 0.000001 0.000000 -0.062696 0.000001
# 6 0.000000 -0.000001 -0.000001 -0.000002 0.000001 -0.056611
#
#
# Mechanical properties :
#
#
# Convention : Reuss Voigt Hill
#
# Bulk Modulus (GPa) = 55.53822 96.74493 76.14158
# Shear Modulus (GPa) = -136.28195 25.58823 -55.34686
#
# Velocity S-wave (km/s) = -7.95751 3.44809 -5.07113
# Velocity P-wave (km/s) = 7.65664 7.79769 1.04400
#
# Compressibility (1/GPa) = 0.01800562
#
# Stress axis : x y z
#
# Youngs Moduli (GPa) = 150.93981 126.43189 79.80444
#
# Poissons Ratio (x) = 0.59438 0.10589
# Poissons Ratio (y) = 0.70959 -0.11956
# Poissons Ratio (z) = 0.20027 -0.18942
#
# Static dielectric constant tensor:
#      x y z
#    x 1.744520 0.000000 0.000000 
#    y 0.000000 1.712480 0.000000 
#    z 0.000000 0.000000 1.860750 
# 
# From -- ./inp_files/6899.got.cif
#   From: 2010.05.17/outbox.cif.g08.bks.cpg/sg23_4_cif.got.tgz:6899.got - 2010.06.04 12:02:01.
