data_PCOD9329093
_publ_section_title
;
Structure prediction by ZEFSAII (Michael W. Deem and Ramdas Pophale) SiO2 
 PCOD9329093
Probable space group: F 2 2 2
;
_chemical_formula_sum "Si O2"
_cell_formula_units_Z 64
_cell_length_a 12.431287
_cell_length_b 14.227283
_cell_length_c 15.193934
_cell_angle_alpha 90.000000
_cell_angle_beta 90.000000
_cell_angle_gamma 90.000000
_cell_volume 2687.251407
_symmetry_space_group_name_H-M "F 2 2 2"
_symmetry_group_IT_number 22
_symmetry_cell_setting 'orthorhombic'
loop_
_space_group_symop_operation_xyz
x,y,z
-x,-y,z
x,-y,-z
-x,y,-z
x,1/2+y,1/2+z
-x,1/2-y,1/2+z
x,1/2-y,1/2-z
-x,1/2+y,1/2-z
1/2+x,y,1/2+z
1/2-x,-y,1/2+z
1/2+x,-y,1/2-z
1/2-x,y,1/2-z
1/2+x,1/2+y,z
1/2-x,1/2-y,z
1/2+x,1/2-y,-z
1/2-x,1/2+y,-z
loop_
_atom_site_type_symbol
_atom_site_label
_atom_site_fract_x
_atom_site_fract_y
_atom_site_fract_z
Si Si1 0.542087 0.900303 0.616712
Si Si2 0.261725 0.108310 0.969986
Si Si3 0.596558 0.649281 0.702973
Si Si4 0.577206 0.785310 0.084224
O O1 0.639181 0.866090 0.554281
O O2 0.593899 0.916678 0.712865
O O3 0.449302 0.820947 0.616873
O O4 0.500000 0.000000 0.588367
O O5 0.326025 0.126314 0.878365
O O6 0.313269 0.169953 0.048256
O O7 0.267800 0.000000 0.000000
O O8 0.621652 0.750000 0.750000
O O9 0.477234 0.654098 0.661738
O O10 0.500000 0.798678 0.000000
#
# Coordination Sequence:
#
# PCOD9329093 Si02
#       4
#    16  16  16  16
#     4  11  25  43  71 106 154 193 251 301 369 441
#     4  11  25  43  75 112 147 190 252 308 376 440
#     4   9  21  45  73 106 142 198 251 304 367 453
#     4   9  22  42  71 101 144 187 242 306 367 433
#
# _framework density 23.816155999999999
#
# number of rings (size 3 to 8) (size 9 to 14) (size 15 to 20)
#    0.000    2.000    0.000    0.750    7.000   15.500 
#    0.000    0.000    0.000    0.000    0.000    0.000 
#    0.000    0.000    0.000    0.000    0.000    0.000 
#
# Total GULP energy -89370.361722 kJ/mol
# GULP energy per Si atom -5585.647608 kJ/mol
# Density = 2.376195 g / cm^3
# Si number density = 23.816156 Si / 1000 Ang^3
#
#
#
# Elastic Constant Matrix: (Units=GPa)
#
#
# Indices 1 2 3 4 5 6 
#
# 1 118.5164 62.7823 45.3782 0.0000 0.0000 0.0000
# 2 62.7823 98.0358 21.9271 0.0000 0.0000 0.0000
# 3 45.3782 21.9271 140.7324 0.0000 0.0000 0.0000
# 4 0.0000 0.0000 0.0000 37.5444 0.0000 0.0000
# 5 0.0000 0.0000 0.0000 0.0000 34.1256 0.0000
# 6 0.0000 0.0000 0.0000 0.0000 0.0000 33.6960
#
#
#
# Elastic Compliance Matrix: (Units=1/GPa)
#
#
# Indices 1 2 3 4 5 6 
#
# 1 0.014068 -0.008284 -0.003246 0.000000 0.000000 0.000000
# 2 -0.008284 0.015446 0.000264 0.000000 0.000000 0.000000
# 3 -0.003246 0.000264 0.008111 0.000000 0.000000 0.000000
# 4 0.000000 0.000000 0.000000 0.026635 0.000000 0.000000
# 5 0.000000 0.000000 0.000000 0.000000 0.029304 0.000000
# 6 0.000000 0.000000 0.000000 0.000000 0.000000 0.029677
#
#
# Mechanical properties :
#
#
# Convention : Reuss Voigt Hill
#
# Bulk Modulus (GPa) = 66.24321 68.60664 67.42492
# Shear Modulus (GPa) = 33.15592 36.21969 34.68780
#
# Velocity S-wave (km/s) = 3.73521 3.90398 3.82053
# Velocity P-wave (km/s) = 6.81742 7.01361 6.91621
#
# Compressibility (1/GPa) = 0.01509589
#
# Stress axis : x y z
#
# Youngs Moduli (GPa) = 71.08118 64.74173 123.28895
#
# Poissons Ratio (x) = 0.53629 0.40015
# Poissons Ratio (y) = 0.58880 -0.03259
# Poissons Ratio (z) = 0.23070 -0.01712
#
# Static dielectric constant tensor:
#      x y z
#    x 1.952820 0.000000 0.000000 
#    y 0.000000 1.970130 0.000000 
#    z 0.000000 0.000000 1.899280 
# 
# From -- ./inp_files/19407.got.cif
#   From: 2010.05.17/outbox.cif.g08.bks.cpg/sg22_10_cif.got.tgz:19407.got - 2010.06.03 23:40:54.
