data_PCOD9329026
_publ_section_title
;
Structure prediction by ZEFSAII (Michael W. Deem and Ramdas Pophale) SiO2 
 PCOD9329026
Probable space group: F 2 2 2
;
_chemical_formula_sum "Si O2"
_cell_formula_units_Z 80
_cell_length_a 18.121223
_cell_length_b 7.804351
_cell_length_c 24.714545
_cell_angle_alpha 90.000000
_cell_angle_beta 90.000000
_cell_angle_gamma 90.000000
_cell_volume 3495.239323
_symmetry_space_group_name_H-M "F 2 2 2"
_symmetry_group_IT_number 22
_symmetry_cell_setting 'orthorhombic'
loop_
_space_group_symop_operation_xyz
x,y,z
-x,-y,z
x,-y,-z
-x,y,-z
x,1/2+y,1/2+z
-x,1/2-y,1/2+z
x,1/2-y,1/2-z
-x,1/2+y,1/2-z
1/2+x,y,1/2+z
1/2-x,-y,1/2+z
1/2+x,-y,1/2-z
1/2-x,y,1/2-z
1/2+x,1/2+y,z
1/2-x,1/2-y,z
1/2+x,1/2-y,-z
1/2-x,1/2+y,-z
loop_
_atom_site_type_symbol
_atom_site_label
_atom_site_fract_x
_atom_site_fract_y
_atom_site_fract_z
Si Si1 0.071640 0.878428 0.298244
Si Si2 0.163174 0.795025 0.688771
Si Si3 0.166380 0.770620 0.033563
Si Si4 0.111641 0.363580 0.423430
Si Si5 0.965137 0.184479 0.410546
O O1 0.089251 0.750000 0.250000
O O2 0.054483 0.759595 0.349939
O O3 0.137960 0.006854 0.315025
O O4 0.000000 0.000000 0.285861
O O5 0.137595 0.750000 0.750000
O O6 0.250000 0.750000 0.686543
O O7 0.128374 0.693413 0.637879
O O8 0.250000 0.750000 0.050960
O O9 0.106890 0.639712 0.055141
O O10 0.130941 0.941097 0.061196
O O11 0.161643 0.771675 0.968869
O O12 0.027384 0.307793 0.434793
O O13 0.000000 0.000000 0.401610
#
# Coordination Sequence:
#
# PCOD9329026 Si02
#       5
#    16  16  16  16  16
#     4  11  24  44  74 111 144 198 252 304 370 441
#     4  11  25  46  71 106 150 196 234 307 375 433
#     4  11  27  44  72 109 143 200 245 310 372 441
#     4  11  24  47  70 102 152 192 251 306 366 442
#     4  11  24  44  70 109 143 192 248 304 373 436
#
# _framework density 22.888276000000001
#
# number of rings (size 3 to 8) (size 9 to 14) (size 15 to 20)
#    0.000    1.000    4.000    2.400    5.600    6.400 
#    0.000    2.000    0.000    0.000    0.000    0.000 
#    0.000    0.000    0.000    0.000    0.000    0.000 
#
# Total GULP energy -111645.914998 kJ/mol
# GULP energy per Si atom -5582.295750 kJ/mol
# Density = 2.283618 g / cm^3
# Si number density = 22.888276 Si / 1000 Ang^3
#
#
#
# Elastic Constant Matrix: (Units=GPa)
#
#
# Indices 1 2 3 4 5 6 
#
# 1 155.9168 28.2606 34.6351 0.0000 0.0000 0.0000
# 2 28.2606 61.9886 30.2968 0.0000 0.0001 0.0000
# 3 34.6351 30.2968 143.1718 0.0000 0.0000 0.0000
# 4 0.0000 0.0000 0.0000 33.4477 0.0000 0.0000
# 5 0.0000 0.0001 0.0000 0.0000 162.5984 -0.0001
# 6 0.0000 0.0000 0.0000 0.0000 -0.0001 14.9513
#
#
#
# Elastic Compliance Matrix: (Units=1/GPa)
#
#
# Indices 1 2 3 4 5 6 
#
# 1 0.007161 -0.002697 -0.001162 0.000000 0.000000 0.000000
# 2 -0.002697 0.019009 -0.003370 0.000000 0.000000 0.000000
# 3 -0.001162 -0.003370 0.007979 0.000000 0.000000 0.000000
# 4 0.000000 0.000000 0.000000 0.029897 0.000000 0.000000
# 5 0.000000 0.000000 0.000000 0.000000 0.006150 0.000000
# 6 0.000000 0.000000 0.000000 0.000000 0.000000 0.066884
#
#
# Mechanical properties :
#
#
# Convention : Reuss Voigt Hill
#
# Bulk Modulus (GPa) = 50.78441 60.82914 55.80677
# Shear Modulus (GPa) = 31.62565 60.05847 45.84206
#
# Velocity S-wave (km/s) = 3.72121 5.12804 4.48019
# Velocity P-wave (km/s) = 6.37960 7.85472 7.15528
#
# Compressibility (1/GPa) = 0.01969108
#
# Stress axis : x y z
#
# Youngs Moduli (GPa) = 139.65501 52.60784 125.33294
#
# Poissons Ratio (x) = 0.14187 0.14558
# Poissons Ratio (y) = 0.37662 0.42238
# Poissons Ratio (z) = 0.16222 0.17729
#
# Static dielectric constant tensor:
#      x y z
#    x 1.913940 0.000000 0.000000 
#    y 0.000000 -10.878190 0.000000 
#    z 0.000000 0.000000 1.931870 
# 
# From -- ./inp_files/53481.got.cif
#   From: 2010.05.17/outbox.cif.g08.bks.cpg/sg22_27_cif.got.tgz:53481.got - 2010.06.03 23:40:54.
