data_PCOD9329204
_publ_section_title
;
Structure prediction by ZEFSAII (Michael W. Deem and Ramdas Pophale) SiO2 
 PCOD9329204
Probable space group: F 2 2 2
;
_chemical_formula_sum "Si O2"
_cell_formula_units_Z 88
_cell_length_a 12.535083
_cell_length_b 17.914229
_cell_length_c 18.438726
_cell_angle_alpha 90.000000
_cell_angle_beta 90.000000
_cell_angle_gamma 90.000000
_cell_volume 4140.532961
_symmetry_space_group_name_H-M "F 2 2 2"
_symmetry_group_IT_number 22
_symmetry_cell_setting 'orthorhombic'
loop_
_space_group_symop_operation_xyz
x,y,z
-x,-y,z
x,-y,-z
-x,y,-z
x,1/2+y,1/2+z
-x,1/2-y,1/2+z
x,1/2-y,1/2-z
-x,1/2+y,1/2-z
1/2+x,y,1/2+z
1/2-x,-y,1/2+z
1/2+x,-y,1/2-z
1/2-x,y,1/2-z
1/2+x,1/2+y,z
1/2-x,1/2-y,z
1/2+x,1/2-y,-z
1/2-x,1/2+y,-z
loop_
_atom_site_type_symbol
_atom_site_label
_atom_site_fract_x
_atom_site_fract_y
_atom_site_fract_z
Si Si1 0.500000 0.500000 0.836265
Si Si2 0.469511 0.250000 0.250000
Si Si3 0.318096 0.564739 0.938480
Si Si4 0.859611 0.125307 0.207106
Si Si5 0.660469 0.312966 0.057450
Si Si6 0.332013 0.680176 0.617924
Si Si7 0.000000 0.287838 0.000000
O O1 0.420720 0.543771 0.890663
O O2 0.423012 0.451228 0.786014
O O3 0.552193 0.188377 0.279519
O O4 0.397253 0.293175 0.310372
O O5 0.229302 0.600082 0.883380
O O6 0.293177 0.500000 0.000000
O O7 0.342768 0.637033 0.986799
O O8 0.750000 0.134086 0.250000
O O9 0.826443 0.131959 0.123635
O O10 0.750000 0.250000 0.059607
O O11 0.553654 0.265332 0.059288
O O12 0.250000 0.750000 0.607675
O O13 0.409332 0.672321 0.547092
#
# Coordination Sequence:
#
# PCOD9329204 Si02
#       7
#     8   8  16  16  16  16   8
#     4  12  27  46  76 102 148 197 240 306 372 449
#     4  12  26  48  74 104 152 196 242 312 386 438
#     4  12  24  43  73 108 142 188 245 307 370 442
#     4  12  27  45  73 108 143 196 248 297 365 456
#     4  12  22  42  74 102 137 177 243 306 354 426
#     4  12  25  43  72 109 144 188 242 307 372 453
#     4  12  20  40  76 102 136 174 246 308 352 418
#
# _framework density 21.253302000000001
#
# number of rings (size 3 to 8) (size 9 to 14) (size 15 to 20)
#    0.000    0.000    7.273    4.091    0.000    1.455 
#    0.000    0.455    0.000    0.000    0.000    0.000 
#    0.000    0.000    0.000    0.000    0.000    0.000 
#
# Total GULP energy -122667.167997 kJ/mol
# GULP energy per Si atom -5575.780363 kJ/mol
# Density = 2.120493 g / cm^3
# Si number density = 21.253302 Si / 1000 Ang^3
#
#
#
# Elastic Constant Matrix: (Units=GPa)
#
#
# Indices 1 2 3 4 5 6 
#
# 1 126.6941 42.9115 43.7232 0.0000 0.0000 0.0000
# 2 42.9115 66.8078 -2.8393 0.0000 0.0000 0.0000
# 3 43.7232 -2.8393 76.5744 0.0000 0.0000 0.0000
# 4 0.0000 0.0000 0.0000 70.9579 0.0000 0.0000
# 5 0.0000 0.0000 0.0000 0.0000 9.6545 0.0000
# 6 0.0000 0.0000 0.0000 0.0000 0.0000 54.0983
#
#
#
# Elastic Compliance Matrix: (Units=1/GPa)
#
#
# Indices 1 2 3 4 5 6 
#
# 1 0.013889 -0.009273 -0.008275 0.000000 0.000000 0.000000
# 2 -0.009273 0.021183 0.006080 0.000000 0.000000 0.000000
# 3 -0.008275 0.006080 0.018009 0.000000 0.000000 0.000000
# 4 0.000000 0.000000 0.000000 0.014093 0.000000 0.000000
# 5 0.000000 0.000000 0.000000 0.000000 0.103578 0.000000
# 6 0.000000 0.000000 0.000000 0.000000 0.000000 0.018485
#
#
# Mechanical properties :
#
#
# Convention : Reuss Voigt Hill
#
# Bulk Modulus (GPa) = 33.17081 48.62968 40.90025
# Shear Modulus (GPa) = 22.50010 39.36088 30.93049
#
# Velocity S-wave (km/s) = 3.25724 4.30814 3.81901
# Velocity P-wave (km/s) = 5.45778 6.90489 6.22354
#
# Compressibility (1/GPa) = 0.03014699
#
# Stress axis : x y z
#
# Youngs Moduli (GPa) = 71.99712 47.20786 55.52677
#
# Poissons Ratio (x) = 0.43776 0.45946
# Poissons Ratio (y) = 0.66763 -0.33762
# Poissons Ratio (z) = 0.59574 -0.28704
#
# Static dielectric constant tensor:
#      x y z
#    x 1.755220 0.000000 0.000000 
#    y 0.000000 1.792730 0.000000 
#    z 0.000000 0.000000 1.838990 
# 
# From -- ./inp_files/42666.got.cif
#   From: 2010.05.17/outbox.cif.g08.bks.cpg/sg22_22_cif.got.tgz:42666.got - 2010.06.03 23:40:54.
