data_PCOD9329574
_publ_section_title
;
Structure prediction by ZEFSAII (Michael W. Deem and Ramdas Pophale) SiO2 
 PCOD9329574
Probable space group: I 2 2 2
;
_chemical_formula_sum "Si O2"
_cell_formula_units_Z 64
_cell_length_a 18.962786
_cell_length_b 11.722923
_cell_length_c 15.326159
_cell_angle_alpha 90.000000
_cell_angle_beta 90.000000
_cell_angle_gamma 90.000000
_cell_volume 3406.994113
_symmetry_space_group_name_H-M "I 2 2 2"
_symmetry_group_IT_number 23
_symmetry_cell_setting 'orthorhombic'
loop_
_space_group_symop_operation_xyz
x,y,z
-x,-y,z
x,-y,-z
-x,y,-z
1/2+x,1/2+y,1/2+z
1/2-x,1/2-y,1/2+z
1/2+x,1/2-y,1/2-z
1/2-x,1/2+y,1/2-z
loop_
_atom_site_type_symbol
_atom_site_label
_atom_site_fract_x
_atom_site_fract_y
_atom_site_fract_z
Si Si1 0.317833 0.603017 0.674157
Si Si2 0.644942 0.744032 0.483079
Si Si3 0.329096 0.662533 0.328599
Si Si4 0.200998 0.862452 0.506800
Si Si5 0.579280 0.951910 0.409810
Si Si6 0.835527 0.263259 0.333212
Si Si7 0.659553 0.199784 0.161643
Si Si8 0.416656 0.986098 0.787454
O O1 0.343355 0.635870 0.578140
O O2 0.333216 0.471390 0.689365
O O3 0.348820 0.683540 0.749517
O O4 0.235426 0.638034 0.673134
O O5 0.635054 0.703890 0.581820
O O6 0.717949 0.817660 0.485008
O O7 0.586617 0.818782 0.432385
O O8 0.244884 0.688823 0.330415
O O9 0.359691 0.735985 0.250334
O O10 0.165055 0.811731 0.420218
O O11 0.164597 0.796488 0.587776
O O12 0.199052 0.000000 0.500000
O O13 0.611182 0.983192 0.314827
O O14 0.500000 0.000000 0.407681
O O15 0.612108 0.000000 0.500000
O O16 0.888404 0.369379 0.329196
O O17 0.608775 0.092200 0.154739
O O18 0.500000 0.000000 0.780960
#
# Coordination Sequence:
#
# PCOD9329574 Si02
#       8
#     8   8   8   8   8   8   8   8
#     4  10  18  32  54  81 120 149 181 239 294 356
#     4  10  19  31  53  88 116 150 188 226 300 352
#     4  10  19  32  54  83 120 153 180 240 295 354
#     4  10  21  35  56  83 115 148 184 245 296 350
#     4  10  20  34  55  84 115 152 189 240 276 340
#     4  10  20  35  55  82 115 151 193 240 295 349
#     4  10  21  34  54  83 113 148 192 234 295 351
#     4  11  22  39  60  83 116 154 199 245 287 345
#
# _framework density 18.784887000000001
#
# number of rings (size 3 to 8) (size 9 to 14) (size 15 to 20)
#    0.000    1.875    2.500    2.250    0.000    2.500 
#    0.000    1.250    0.000    3.750    0.000    3.500 
#    0.000    0.000    0.000    0.000    0.000    0.000 
#
# Total GULP energy -178276.950382 kJ/mol
# GULP energy per Si atom -5571.154699 kJ/mol
# Density = 1.874213 g / cm^3
# Si number density = 18.784887 Si / 1000 Ang^3
#
#
#
# Elastic Constant Matrix: (Units=GPa)
#
#
# Indices 1 2 3 4 5 6 
#
# 1 26.7080 21.8218 18.5292 0.0000 0.0000 0.0000
# 2 21.8218 144.8417 42.4202 0.0000 0.0000 0.0000
# 3 18.5292 42.4202 85.1043 0.0000 0.0000 0.0000
# 4 0.0000 0.0000 0.0000 22.8812 0.0000 0.0000
# 5 0.0000 0.0000 0.0000 0.0000 7.1336 0.0000
# 6 0.0000 0.0000 0.0000 0.0000 0.0000 16.3625
#
#
#
# Elastic Compliance Matrix: (Units=1/GPa)
#
#
# Indices 1 2 3 4 5 6 
#
# 1 0.046744 -0.004756 -0.007807 0.000000 0.000000 0.000000
# 2 -0.004756 0.008568 -0.003235 0.000000 0.000000 0.000000
# 3 -0.007807 -0.003235 0.015063 0.000000 0.000000 0.000000
# 4 0.000000 0.000000 0.000000 0.043704 0.000000 0.000000
# 5 0.000000 0.000000 0.000000 0.000000 0.140182 0.000000
# 6 0.000000 0.000000 0.000000 0.000000 0.000000 0.061115
#
#
# Mechanical properties :
#
#
# Convention : Reuss Voigt Hill
#
# Bulk Modulus (GPa) = 25.78728 46.91071 36.34900
# Shear Modulus (GPa) = 13.89282 20.86763 17.38023
#
# Velocity S-wave (km/s) = 2.72246 3.33659 3.04505
# Velocity P-wave (km/s) = 4.86209 6.31432 5.63518
#
# Compressibility (1/GPa) = 0.03877881
#
# Stress axis : x y z
#
# Youngs Moduli (GPa) = 21.39311 116.71104 66.38959
#
# Poissons Ratio (x) = 0.55509 0.51828
# Poissons Ratio (y) = 0.10175 0.21479
# Poissons Ratio (z) = 0.16701 0.37759
#
# Static dielectric constant tensor:
#      x y z
#    x 1.649790 0.000000 0.000000 
#    y 0.000000 1.675430 0.000000 
#    z 0.000000 0.000000 1.679820 
# 
# From -- ./inp_files/22172.got.cif
#   From: 2010.05.17/outbox.cif.g08.bks.cpg/sg23_12_cif.got.tgz:22172.got - 2010.06.04 12:02:01.
