data_PCOD9329641
_publ_section_title
;
Structure prediction by ZEFSAII (Michael W. Deem and Ramdas Pophale) SiO2 
 PCOD9329641
Probable space group: I 2 2 2
;
_chemical_formula_sum "Si O2"
_cell_formula_units_Z 56
_cell_length_a 12.958944
_cell_length_b 14.584288
_cell_length_c 13.714136
_cell_angle_alpha 90.000000
_cell_angle_beta 90.000000
_cell_angle_gamma 90.000000
_cell_volume 2591.930170
_symmetry_space_group_name_H-M "I 2 2 2"
_symmetry_group_IT_number 23
_symmetry_cell_setting 'orthorhombic'
loop_
_space_group_symop_operation_xyz
x,y,z
-x,-y,z
x,-y,-z
-x,y,-z
1/2+x,1/2+y,1/2+z
1/2-x,1/2-y,1/2+z
1/2+x,1/2-y,1/2-z
1/2-x,1/2+y,1/2-z
loop_
_atom_site_type_symbol
_atom_site_label
_atom_site_fract_x
_atom_site_fract_y
_atom_site_fract_z
Si Si1 0.816754 0.285538 0.473163
Si Si2 0.892582 0.459471 0.367897
Si Si3 0.596707 0.324054 0.791147
Si Si4 0.812843 0.394728 0.778220
Si Si5 0.851165 0.350601 0.187241
Si Si6 0.615481 0.165091 0.475908
Si Si7 0.631251 0.296270 0.185056
O O1 0.836519 0.392746 0.446105
O O2 0.879972 0.235203 0.387934
O O3 0.699317 0.247643 0.465381
O O4 0.857626 0.245576 0.575705
O O5 0.832476 0.541485 0.314797
O O6 0.916412 0.399602 0.270074
O O7 0.000000 0.500000 0.402568
O O8 0.689228 0.396157 0.792858
O O9 0.619624 0.256540 0.699609
O O10 0.476561 0.345857 0.795710
O O11 0.868880 0.402028 0.883472
O O12 0.853434 0.293655 0.750158
O O13 0.729982 0.357882 0.210935
O O14 0.859687 0.383957 0.078043
O O15 0.500000 0.198231 0.500000
#
# Coordination Sequence:
#
# PCOD9329641 Si02
#       7
#     8   8   8   8   8   8   8
#     4   9  20  33  54  84 107 140 190 231 276 331
#     4  11  21  36  53  81 120 146 173 227 290 340
#     4   9  17  33  53  76 104 141 189 234 267 315
#     4  10  21  32  51  82 110 141 184 222 276 344
#     4   9  20  33  51  78 105 141 185 224 273 333
#     4  10  18  34  57  80 106 143 187 230 269 321
#     4  10  18  35  56  75 104 142 188 236 270 314
#
# _framework density 21.605521
#
# number of rings (size 3 to 8) (size 9 to 14) (size 15 to 20)
#    0.000    2.286    0.000    4.714    0.000    1.143 
#    0.000    4.286    0.000    0.000    0.000   15.000 
#    0.000    0.000    0.000    0.000    0.000    0.000 
#
# Total GULP energy -155982.751223 kJ/mol
# GULP energy per Si atom -5570.812544 kJ/mol
# Density = 2.155635 g / cm^3
# Si number density = 21.605521 Si / 1000 Ang^3
#
#
#
# Elastic Constant Matrix: (Units=GPa)
#
#
# Indices 1 2 3 4 5 6 
#
# 1 171.9302 26.5091 19.3343 0.0000 0.0000 0.0000
# 2 26.5091 44.0994 21.3026 0.0000 0.0000 0.0000
# 3 19.3343 21.3026 122.8514 0.0000 0.0000 0.0000
# 4 0.0000 0.0000 0.0000 7.9114 0.0000 0.0000
# 5 0.0000 0.0000 0.0000 0.0000 19.7728 0.0000
# 6 0.0000 0.0000 0.0000 0.0000 0.0000 13.1691
#
#
#
# Elastic Compliance Matrix: (Units=1/GPa)
#
#
# Indices 1 2 3 4 5 6 
#
# 1 0.006426 -0.003683 -0.000373 0.000000 0.000000 0.000000
# 2 -0.003683 0.026860 -0.004078 0.000000 0.000000 0.000000
# 3 -0.000373 -0.004078 0.008906 0.000000 0.000000 0.000000
# 4 0.000000 0.000000 0.000000 0.126400 0.000000 0.000000
# 5 0.000000 0.000000 0.000000 0.000000 0.050575 0.000000
# 6 0.000000 0.000000 0.000000 0.000000 0.000000 0.075935
#
#
# Mechanical properties :
#
#
# Convention : Reuss Voigt Hill
#
# Bulk Modulus (GPa) = 38.57339 52.57477 45.57408
# Shear Modulus (GPa) = 15.62454 26.28634 20.95544
#
# Velocity S-wave (km/s) = 2.69211 3.49183 3.11772
# Velocity P-wave (km/s) = 5.24933 6.37526 5.83950
#
# Compressibility (1/GPa) = 0.02592461
#
# Stress axis : x y z
#
# Youngs Moduli (GPa) = 155.61635 37.23047 112.28780
#
# Poissons Ratio (x) = 0.13711 0.04185
# Poissons Ratio (y) = 0.57310 0.45790
# Poissons Ratio (z) = 0.05800 0.15182
#
# Static dielectric constant tensor:
#      x y z
#    x 1.839150 0.000000 0.000000 
#    y 0.000000 1.887140 0.000000 
#    z 0.000000 0.000000 1.845540 
# 
# From -- ./inp_files/20893.got.cif
#   From: 2010.05.17/outbox.cif.g08.bks.cpg/sg23_11_cif.got.tgz:20893.got - 2010.06.04 12:02:01.
