data_PCOD9329892
_publ_section_title
;
Structure prediction by ZEFSAII (Michael W. Deem and Ramdas Pophale) SiO2 
 PCOD9329892
Probable space group: I 2 2 2
;
_chemical_formula_sum "Si O2"
_cell_formula_units_Z 64
_cell_length_a 14.156054
_cell_length_b 10.540328
_cell_length_c 22.182025
_cell_angle_alpha 90.000000
_cell_angle_beta 90.000000
_cell_angle_gamma 90.000000
_cell_volume 3309.767802
_symmetry_space_group_name_H-M "I 2 2 2"
_symmetry_group_IT_number 23
_symmetry_cell_setting 'orthorhombic'
loop_
_space_group_symop_operation_xyz
x,y,z
-x,-y,z
x,-y,-z
-x,y,-z
1/2+x,1/2+y,1/2+z
1/2-x,1/2-y,1/2+z
1/2+x,1/2-y,1/2-z
1/2-x,1/2+y,1/2-z
loop_
_atom_site_type_symbol
_atom_site_label
_atom_site_fract_x
_atom_site_fract_y
_atom_site_fract_z
Si Si1 0.962801 0.628192 0.432039
Si Si2 0.299939 0.668040 0.199685
Si Si3 0.992566 0.146171 0.344682
Si Si4 0.997829 0.640712 0.101819
Si Si5 0.752307 0.687236 0.423264
Si Si6 0.844749 0.639015 0.005603
Si Si7 0.811916 0.112930 0.265802
Si Si8 0.922089 0.103388 0.142948
O O1 0.850288 0.617854 0.429541
O O2 0.000000 0.500000 0.402066
O O3 0.000000 0.634363 0.500000
O O4 0.995236 0.752764 0.397173
O O5 0.414656 0.666816 0.197788
O O6 0.264940 0.714133 0.133183
O O7 0.258548 0.773729 0.245708
O O8 0.269129 0.522358 0.212457
O O9 0.891363 0.159445 0.312730
O O10 0.000000 0.000000 0.365401
O O11 0.000000 0.500000 0.129660
O O12 0.074073 0.638149 0.046703
O O13 0.029233 0.757725 0.142336
O O14 0.897515 0.660505 0.068597
O O15 0.729379 0.758079 0.485076
O O16 0.661713 0.604744 0.405840
O O17 0.801024 0.500000 0.000000
O O18 0.872257 0.079012 0.206228
O O19 0.000000 0.000000 0.129077
#
# Coordination Sequence:
#
# PCOD9329892 Si02
#       8
#     8   8   8   8   8   8   8   8
#     4  10  22  42  59  77 108 147 191 246 295 336
#     4   9  19  36  58  83 112 148 187 231 290 344
#     4   9  19  38  61  83 109 147 189 239 288 337
#     4   8  15  30  52  75 111 152 183 211 264 336
#     4   9  19  37  56  79 112 149 187 237 284 338
#     4   8  14  30  52  76 107 146 181 226 273 320
#     4  10  20  37  58  82 118 149 186 240 286 339
#     4  10  19  34  55  86 121 151 178 224 283 350
#
# _framework density 19.336704000000001
#
# number of rings (size 3 to 8) (size 9 to 14) (size 15 to 20)
#    0.000    2.875    0.000    1.875    0.000    3.250 
#   11.250   15.000    0.000    0.000    0.000    0.000 
#    0.000    0.000    0.000    0.000    0.000    0.000 
#
# Total GULP energy -178350.525728 kJ/mol
# GULP energy per Si atom -5573.453929 kJ/mol
# Density = 1.929269 g / cm^3
# Si number density = 19.336704 Si / 1000 Ang^3
#
#
#
# Elastic Constant Matrix: (Units=GPa)
#
#
# Indices 1 2 3 4 5 6 
#
# 1 94.6921 72.7267 9.8299 0.0000 0.0000 0.0000
# 2 72.7267 118.9266 25.1049 0.0000 0.0000 0.0000
# 3 9.8299 25.1049 27.3746 0.0000 0.0000 0.0000
# 4 0.0000 0.0000 0.0000 10.2018 0.0000 0.0000
# 5 0.0000 0.0000 0.0000 0.0000 0.7662 0.0000
# 6 0.0000 0.0000 0.0000 0.0000 0.0000 28.2750
#
#
#
# Elastic Compliance Matrix: (Units=1/GPa)
#
#
# Indices 1 2 3 4 5 6 
#
# 1 0.020477 -0.013603 0.005123 0.000000 0.000000 0.000000
# 2 -0.013603 0.019464 -0.012966 0.000000 0.000000 0.000000
# 3 0.005123 -0.012966 0.046582 0.000000 0.000000 0.000000
# 4 0.000000 0.000000 0.000000 0.098022 0.000000 0.000000
# 5 0.000000 0.000000 0.000000 0.000000 1.305104 0.000000
# 6 0.000000 0.000000 0.000000 0.000000 0.000000 0.035367
#
#
# Mechanical properties :
#
#
# Convention : Reuss Voigt Hill
#
# Bulk Modulus (GPa) = 22.92032 50.70181 36.81106
# Shear Modulus (GPa) = 3.15965 16.73740 9.94853
#
# Velocity S-wave (km/s) = 1.27967 2.94526 2.27070
# Velocity P-wave (km/s) = 3.74999 6.15171 5.09441
#
# Compressibility (1/GPa) = 0.04362941
#
# Stress axis : x y z
#
# Youngs Moduli (GPa) = 48.83634 51.37603 21.46774
#
# Poissons Ratio (x) = 0.69888 -0.10997
# Poissons Ratio (y) = 0.66433 0.27834
# Poissons Ratio (z) = -0.25017 0.66613
#
# Static dielectric constant tensor:
#      x y z
#    x 1.699600 0.000000 0.000000 
#    y 0.000000 1.769880 0.000000 
#    z 0.000000 0.000000 1.681620 
# 
# From -- ./inp_files/28555.got.cif
#   From: 2010.05.17/outbox.cif.g08.bks.cpg/sg23_15_cif.got.tgz:28555.got - 2010.06.04 12:02:01.
