data_PCOD9329948
_publ_section_title
;
Structure prediction by ZEFSAII (Michael W. Deem and Ramdas Pophale) SiO2 
 PCOD9329948
Probable space group: I 2 2 2
;
_chemical_formula_sum "Si O2"
_cell_formula_units_Z 64
_cell_length_a 10.104528
_cell_length_b 21.825453
_cell_length_c 15.304472
_cell_angle_alpha 90.000000
_cell_angle_beta 90.000000
_cell_angle_gamma 90.000000
_cell_volume 3375.185521
_symmetry_space_group_name_H-M "I 2 2 2"
_symmetry_group_IT_number 23
_symmetry_cell_setting 'orthorhombic'
loop_
_space_group_symop_operation_xyz
x,y,z
-x,-y,z
x,-y,-z
-x,y,-z
1/2+x,1/2+y,1/2+z
1/2-x,1/2-y,1/2+z
1/2+x,1/2-y,1/2-z
1/2-x,1/2+y,1/2-z
loop_
_atom_site_type_symbol
_atom_site_label
_atom_site_fract_x
_atom_site_fract_y
_atom_site_fract_z
Si Si1 0.710077 0.605737 0.722626
Si Si2 0.847572 0.119073 0.973203
Si Si3 0.472271 0.179381 0.188429
Si Si4 0.708678 0.145809 0.313344
Si Si5 0.597961 0.921242 0.922893
Si Si6 0.645504 0.016534 0.266834
Si Si7 0.104069 0.748062 0.927200
Si Si8 0.978770 0.191886 0.247819
O O1 0.671897 0.591052 0.622641
O O2 0.826710 0.656273 0.714071
O O3 0.766976 0.544542 0.764927
O O4 0.584334 0.638552 0.765641
O O5 0.821403 0.192359 0.965509
O O6 0.742491 0.089936 0.037929
O O7 0.000000 0.111881 0.000000
O O8 0.570826 0.158259 0.264706
O O9 0.526260 0.141454 0.107334
O O10 0.482813 0.252056 0.184348
O O11 0.710652 0.072461 0.320253
O O12 0.696262 0.192728 0.394338
O O13 0.830837 0.166087 0.252312
O O14 0.618874 0.960627 0.834058
O O15 0.500000 0.942192 0.000000
O O16 0.500000 0.000000 0.301803
O O17 0.022945 0.778341 0.845094
O O18 0.000000 0.726633 0.000000
#
# Coordination Sequence:
#
# PCOD9329948 Si02
#       8
#     8   8   8   8   8   8   8   8
#     4  11  21  38  53  79 117 158 199 240 294 351
#     4  10  21  35  50  81 119 154 193 240 297 351
#     4  10  19  35  56  82 111 148 196 244 293 348
#     4  10  21  36  59  83 110 155 198 244 294 344
#     4  11  21  34  56  80 113 162 196 240 289 353
#     4  11  22  38  55  80 117 158 209 238 284 365
#     4   9  20  36  60  86 124 151 188 253 310 352
#     4  10  21  36  58  88 120 150 196 249 302 353
#
# _framework density 18.961921
#
# number of rings (size 3 to 8) (size 9 to 14) (size 15 to 20)
#    0.000    1.750    3.750    2.250   10.500    2.250 
#    0.000    0.625    0.000    0.375    0.000    0.000 
#    0.000    0.000    0.000    0.000    0.000    0.000 
#
# Total GULP energy -178407.220511 kJ/mol
# GULP energy per Si atom -5575.225641 kJ/mol
# Density = 1.891876 g / cm^3
# Si number density = 18.961921 Si / 1000 Ang^3
#
#
#
# Elastic Constant Matrix: (Units=GPa)
#
#
# Indices 1 2 3 4 5 6 
#
# 1 84.5729 25.1018 17.0236 0.0000 0.0000 0.0000
# 2 25.1018 97.9156 20.0690 0.0000 0.0000 0.0000
# 3 17.0236 20.0690 14.3278 0.0000 0.0000 0.0000
# 4 0.0000 0.0000 0.0000 40.8974 0.0000 0.0000
# 5 0.0000 0.0000 0.0000 0.0000 20.8895 0.0000
# 6 0.0000 0.0000 0.0000 0.0000 0.0000 36.3672
#
#
#
# Elastic Compliance Matrix: (Units=1/GPa)
#
#
# Indices 1 2 3 4 5 6 
#
# 1 0.015546 -0.000280 -0.018079 0.000000 0.000000 0.000000
# 2 -0.000280 0.014331 -0.019740 0.000000 0.000000 0.000000
# 3 -0.018079 -0.019740 0.118926 0.000000 0.000000 0.000000
# 4 0.000000 0.000000 0.000000 0.024451 0.000000 0.000000
# 5 0.000000 0.000000 0.000000 0.000000 0.047871 0.000000
# 6 0.000000 0.000000 0.000000 0.000000 0.000000 0.027497
#
#
# Mechanical properties :
#
#
# Convention : Reuss Voigt Hill
#
# Bulk Modulus (GPa) = 13.77347 35.68946 24.73146
# Shear Modulus (GPa) = 14.32570 28.60560 21.46565
#
# Velocity S-wave (km/s) = 2.75162 3.88826 3.36823
# Velocity P-wave (km/s) = 4.16830 6.24665 5.31015
#
# Compressibility (1/GPa) = 0.07260335
#
# Stress axis : x y z
#
# Youngs Moduli (GPa) = 64.32365 69.78039 8.40861
#
# Poissons Ratio (x) = 0.01953 0.15202
# Poissons Ratio (y) = 0.01800 0.16599
# Poissons Ratio (z) = 1.16293 1.37749
#
# Static dielectric constant tensor:
#      x y z
#    x 1.638150 0.000000 0.000000 
#    y 0.000000 1.737230 0.000000 
#    z 0.000000 0.000000 1.676190 
# 
# From -- ./inp_files/24003.got.cif
#   From: 2010.05.17/outbox.cif.g08.bks.cpg/sg23_13_cif.got.tgz:24003.got - 2010.06.04 12:02:01.
