data_PCOD9329580
_publ_section_title
;
Structure prediction by ZEFSAII (Michael W. Deem and Ramdas Pophale) SiO2 
 PCOD9329580
Probable space group: I 2 2 2
;
_chemical_formula_sum "Si O2"
_cell_formula_units_Z 44
_cell_length_a 20.833023
_cell_length_b 19.376863
_cell_length_c 6.235274
_cell_angle_alpha 90.000000
_cell_angle_beta 90.000000
_cell_angle_gamma 90.000000
_cell_volume 2517.046882
_symmetry_space_group_name_H-M "I 2 2 2"
_symmetry_group_IT_number 23
_symmetry_cell_setting 'orthorhombic'
loop_
_space_group_symop_operation_xyz
x,y,z
-x,-y,z
x,-y,-z
-x,y,-z
1/2+x,1/2+y,1/2+z
1/2-x,1/2-y,1/2+z
1/2+x,1/2-y,1/2-z
1/2-x,1/2+y,1/2-z
loop_
_atom_site_type_symbol
_atom_site_label
_atom_site_fract_x
_atom_site_fract_y
_atom_site_fract_z
Si Si1 0.718503 0.169731 0.101497
Si Si2 0.437621 0.243635 0.624263
Si Si3 0.814621 0.182148 0.760103
Si Si4 0.000000 0.348303 0.500000
Si Si5 0.768971 0.578073 0.005414
Si Si6 0.381374 0.139991 0.261104
O O1 0.717177 0.242768 0.220004
O O2 0.709370 0.107721 0.265839
O O3 0.785615 0.157647 0.984593
O O4 0.663161 0.174284 0.921798
O O5 0.500000 0.271305 0.500000
O O6 0.389244 0.301065 0.713863
O O7 0.401543 0.193751 0.449882
O O8 0.462947 0.198390 0.824118
O O9 0.785865 0.129737 0.585625
O O10 0.054525 0.385951 0.641035
O O11 0.746238 0.500000 0.000000
O O12 0.833009 0.584508 0.860393
#
# Coordination Sequence:
#
# PCOD9329580 Si02
#       6
#     8   8   8   4   8   8
#     4  11  19  34  59  82 110 146 188 242 294 346
#     4  10  20  32  54  89 114 145 192 252 293 347
#     4  11  19  33  57  85 111 146 193 239 292 355
#     4  10  18  32  56  83 117 148 192 248 294 336
#     4  11  24  36  54  85 120 154 192 243 305 358
#     4  10  19  33  55  80 116 148 195 238 290 351
#
# _framework density 17.480803000000002
#
# number of rings (size 3 to 8) (size 9 to 14) (size 15 to 20)
#    0.000    1.455    5.455    1.091    0.000    2.909 
#    0.000    0.000    0.000   22.364    0.000    9.545 
#    0.000    0.000    0.000    0.000    0.000    0.000 
#
# Total GULP energy -122562.606619 kJ/mol
# GULP energy per Si atom -5571.027574 kJ/mol
# Density = 1.744102 g / cm^3
# Si number density = 17.480803 Si / 1000 Ang^3
#
#
#
# Elastic Constant Matrix: (Units=GPa)
#
#
# Indices 1 2 3 4 5 6 
#
# 1 63.5015 6.1156 12.9230 0.0000 0.0000 0.0000
# 2 6.1156 62.7692 18.5239 0.0000 0.0000 0.0000
# 3 12.9230 18.5239 84.2473 0.0000 0.0000 0.0000
# 4 0.0000 0.0000 0.0000 11.9262 0.0000 0.0000
# 5 0.0000 0.0000 0.0000 0.0000 37.8454 0.0000
# 6 0.0000 0.0000 0.0000 0.0000 0.0000 10.3476
#
#
#
# Elastic Compliance Matrix: (Units=1/GPa)
#
#
# Indices 1 2 3 4 5 6 
#
# 1 0.016303 -0.000909 -0.002301 0.000000 0.000000 0.000000
# 2 -0.000909 0.017088 -0.003618 0.000000 0.000000 0.000000
# 3 -0.002301 -0.003618 0.013018 0.000000 0.000000 0.000000
# 4 0.000000 0.000000 0.000000 0.083849 0.000000 0.000000
# 5 0.000000 0.000000 0.000000 0.000000 0.026423 0.000000
# 6 0.000000 0.000000 0.000000 0.000000 0.000000 0.096641
#
#
# Mechanical properties :
#
#
# Convention : Reuss Voigt Hill
#
# Bulk Modulus (GPa) = 30.53123 31.73811 31.13467
# Shear Modulus (GPa) = 17.99231 23.55419 20.77325
#
# Velocity S-wave (km/s) = 3.21169 3.67472 3.45098
# Velocity P-wave (km/s) = 5.59077 6.01666 5.80762
#
# Compressibility (1/GPa) = 0.03275335
#
# Stress axis : x y z
#
# Youngs Moduli (GPa) = 61.33652 58.52203 76.81558
#
# Poissons Ratio (x) = 0.05322 0.17674
# Poissons Ratio (y) = 0.05578 0.27789
# Poissons Ratio (z) = 0.14113 0.21171
#
# Static dielectric constant tensor:
#      x y z
#    x 1.636630 0.000000 0.000000 
#    y 0.000000 1.553930 0.000000 
#    z 0.000000 0.000000 1.650810 
# 
# From -- ./inp_files/3854.got.cif
#   From: 2010.05.17/outbox.cif.g08.bks.cpg/sg23_2_cif.got.tgz:3854.got - 2010.06.04 12:02:01.
