data_PCOD9329536
_publ_section_title
;
Structure prediction by ZEFSAII (Michael W. Deem and Ramdas Pophale) SiO2 
 PCOD9329536
Probable space group: I 2 2 2
;
_chemical_formula_sum "Si O2"
_cell_formula_units_Z 34
_cell_length_a 11.833360
_cell_length_b 13.205949
_cell_length_c 7.531904
_cell_angle_alpha 90.000000
_cell_angle_beta 90.000000
_cell_angle_gamma 90.000000
_cell_volume 1177.016277
_symmetry_space_group_name_H-M "I 2 2 2"
_symmetry_group_IT_number 23
_symmetry_cell_setting 'orthorhombic'
loop_
_space_group_symop_operation_xyz
x,y,z
-x,-y,z
x,-y,-z
-x,y,-z
1/2+x,1/2+y,1/2+z
1/2-x,1/2-y,1/2+z
1/2+x,1/2-y,1/2-z
1/2-x,1/2+y,1/2-z
loop_
_atom_site_type_symbol
_atom_site_label
_atom_site_fract_x
_atom_site_fract_y
_atom_site_fract_z
Si Si1 0.419333 0.367132 0.230075
Si Si2 0.500000 0.000000 0.500000
Si Si3 0.350674 0.379231 0.627699
Si Si4 0.883575 0.353620 0.426195
Si Si5 0.678717 0.144641 0.325310
O O1 0.390251 0.406192 0.428475
O O2 0.551988 0.397617 0.223676
O O3 0.417446 0.245564 0.187388
O O4 0.304215 0.394188 0.126400
O O5 0.419696 0.928813 0.385185
O O6 0.220653 0.410722 0.670327
O O7 0.344041 0.257009 0.604835
O O8 0.825217 0.333667 0.615413
O O9 0.000000 0.398531 0.500000
#
# Coordination Sequence:
#
# PCOD9329536 Si02
#       5
#     8   2   8   8   8
#     4   9  17  32  55  86 123 147 193 255 323 367
#     4  12  24  40  54  80 138 182 208 254 294 378
#     4   9  17  32  57  88 125 148 185 266 325 364
#     4  10  18  30  54  92 125 147 195 258 322 364
#     4  10  21  34  55  82 124 168 204 242 313 376
#
# _framework density 28.886600999999999
#
# number of rings (size 3 to 8) (size 9 to 14) (size 15 to 20)
#    0.000    2.353    2.353    1.412    0.000    0.000 
#    0.000    0.588    0.000    0.000    0.000   29.647 
#   28.235    4.235    0.000    0.000    0.000    0.000 
#
# Total GULP energy -94916.666797 kJ/mol
# GULP energy per Si atom -5583.333341 kJ/mol
# Density = 2.882085 g / cm^3
# Si number density = 28.886601 Si / 1000 Ang^3
#
#
#
# Elastic Constant Matrix: (Units=GPa)
#
#
# Indices 1 2 3 4 5 6 
#
# 1 318.0583 49.5812 31.3488 0.0000 0.0000 0.0000
# 2 49.5812 125.5647 43.7636 0.0000 0.0000 0.0000
# 3 31.3488 43.7636 90.4539 0.0000 0.0000 0.0000
# 4 0.0000 0.0000 0.0000 32.3321 0.0000 0.0000
# 5 0.0000 0.0000 0.0000 0.0000 56.2214 0.0000
# 6 0.0000 0.0000 0.0000 0.0000 0.0000 16.0665
#
#
#
# Elastic Compliance Matrix: (Units=1/GPa)
#
#
# Indices 1 2 3 4 5 6 
#
# 1 0.003380 -0.001114 -0.000632 0.000000 0.000000 0.000000
# 2 -0.001114 0.009947 -0.004426 0.000000 0.000000 0.000000
# 3 -0.000632 -0.004426 0.013416 0.000000 0.000000 0.000000
# 4 0.000000 0.000000 0.000000 0.030929 0.000000 0.000000
# 5 0.000000 0.000000 0.000000 0.000000 0.017787 0.000000
# 6 0.000000 0.000000 0.000000 0.000000 0.000000 0.062242
#
#
# Mechanical properties :
#
#
# Convention : Reuss Voigt Hill
#
# Bulk Modulus (GPa) = 69.45854 87.05158 78.25506
# Shear Modulus (GPa) = 32.29036 48.21623 40.25330
#
# Velocity S-wave (km/s) = 3.34703 4.08996 3.73700
# Velocity P-wave (km/s) = 6.24774 7.24602 6.76532
#
# Compressibility (1/GPa) = 0.01439708
#
# Stress axis : x y z
#
# Youngs Moduli (GPa) = 295.84868 100.53560 74.53769
#
# Poissons Ratio (x) = 0.11203 0.04713
# Poissons Ratio (y) = 0.32966 0.32992
# Poissons Ratio (z) = 0.18707 0.44500
#
# Static dielectric constant tensor:
#      x y z
#    x 2.411450 0.000000 0.000000 
#    y 0.000000 2.292570 0.000000 
#    z 0.000000 0.000000 2.216070 
# 
# From -- ./inp_files/7981.got.cif
#   From: 2010.05.17/outbox.cif.g08.bks.cpg/sg23_4_cif.got.tgz:7981.got - 2010.06.04 12:02:01.
