data_PCOD9329720
_publ_section_title
;
Structure prediction by ZEFSAII (Michael W. Deem and Ramdas Pophale) SiO2 
 PCOD9329720
Probable space group: I 2 2 2
;
_chemical_formula_sum "Si O2"
_cell_formula_units_Z 32
_cell_length_a 14.156103
_cell_length_b 19.167921
_cell_length_c 5.303726
_cell_angle_alpha 90.000000
_cell_angle_beta 90.000000
_cell_angle_gamma 90.000000
_cell_volume 1439.129263
_symmetry_space_group_name_H-M "I 2 2 2"
_symmetry_group_IT_number 23
_symmetry_cell_setting 'orthorhombic'
loop_
_space_group_symop_operation_xyz
x,y,z
-x,-y,z
x,-y,-z
-x,y,-z
1/2+x,1/2+y,1/2+z
1/2-x,1/2-y,1/2+z
1/2+x,1/2-y,1/2-z
1/2-x,1/2+y,1/2-z
loop_
_atom_site_type_symbol
_atom_site_label
_atom_site_fract_x
_atom_site_fract_y
_atom_site_fract_z
Si Si1 0.368677 0.346077 0.919853
Si Si2 0.500000 0.780630 0.000000
Si Si3 0.500000 0.871804 0.500000
Si Si4 0.633297 0.577751 0.419625
Si Si5 0.296676 0.923686 0.400803
O O1 0.404249 0.396034 0.149380
O O2 0.256732 0.360998 0.951818
O O3 0.409954 0.270193 0.963480
O O4 0.394737 0.371638 0.643371
O O5 0.484584 0.825478 0.749356
O O6 0.407034 0.915792 0.432903
O O7 0.608117 0.500000 0.500000
O O8 0.747520 0.580739 0.373332
O O9 0.265867 0.000000 0.500000
#
# Coordination Sequence:
#
# PCOD9329720 Si02
#       5
#     8   4   4   8   8
#     4  10  22  41  71  91 140 174 223 274 331 403
#     4  12  28  48  60 104 140 186 230 262 328 424
#     4  12  29  42  70  96 143 184 224 274 336 402
#     4  10  18  39  68 100 127 168 214 283 340 388
#     4  10  23  44  71 102 130 170 227 287 344 388
#
# _framework density 22.235668
#
# number of rings (size 3 to 8) (size 9 to 14) (size 15 to 20)
#    1.500    0.000    2.500    2.625    3.500    2.000 
#    0.000    8.125    0.000    0.000    0.000    0.000 
#    0.000    0.000    0.000    0.000    0.000    0.000 
#
# Total GULP energy -89234.848840 kJ/mol
# GULP energy per Si atom -5577.178053 kJ/mol
# Density = 2.218506 g / cm^3
# Si number density = 22.235668 Si / 1000 Ang^3
#
#
#
# Elastic Constant Matrix: (Units=GPa)
#
#
# Indices 1 2 3 4 5 6 
#
# 1 133.5319 12.2284 13.0071 0.0000 0.0000 0.0000
# 2 12.2284 61.6520 34.7973 0.0000 0.0000 0.0000
# 3 13.0071 34.7973 163.3741 0.0000 0.0000 0.0000
# 4 0.0000 0.0000 0.0000 14.1504 0.0000 0.0000
# 5 0.0000 0.0000 0.0000 0.0000 30.2321 0.0000
# 6 0.0000 0.0000 0.0000 0.0000 0.0000 22.5958
#
#
#
# Elastic Compliance Matrix: (Units=1/GPa)
#
#
# Indices 1 2 3 4 5 6 
#
# 1 0.007643 -0.001333 -0.000325 0.000000 0.000000 0.000000
# 2 -0.001333 0.018669 -0.003870 0.000000 0.000000 0.000000
# 3 -0.000325 -0.003870 0.006971 0.000000 0.000000 0.000000
# 4 0.000000 0.000000 0.000000 0.070669 0.000000 0.000000
# 5 0.000000 0.000000 0.000000 0.000000 0.033077 0.000000
# 6 0.000000 0.000000 0.000000 0.000000 0.000000 0.044256
#
#
# Mechanical properties :
#
#
# Convention : Reuss Voigt Hill
#
# Bulk Modulus (GPa) = 44.98935 53.18040 49.08488
# Shear Modulus (GPa) = 25.03139 33.29735 29.16437
#
# Velocity S-wave (km/s) = 3.35883 3.87392 3.62554
# Velocity P-wave (km/s) = 5.94300 6.63161 6.29673
#
# Compressibility (1/GPa) = 0.02222748
#
# Stress axis : x y z
#
# Youngs Moduli (GPa) = 130.84717 53.56527 143.44961
#
# Poissons Ratio (x) = 0.07138 0.04657
# Poissons Ratio (y) = 0.17437 0.55518
# Poissons Ratio (z) = 0.04248 0.20731
#
# Static dielectric constant tensor:
#      x y z
#    x 1.921180 0.000000 0.000000 
#    y 0.000000 1.772100 0.000000 
#    z 0.000000 0.000000 1.801040 
# 
# From -- ./inp_files/2138.got.cif
#   From: 2010.05.17/outbox.cif.g08.bks.cpg/sg23_2_cif.got.tgz:2138.got - 2010.06.04 12:02:01.
