data_PCOD9329667
_publ_section_title
;
Structure prediction by ZEFSAII (Michael W. Deem and Ramdas Pophale) SiO2 
 PCOD9329667
Probable space group: I 2 2 2
;
_chemical_formula_sum "Si O2"
_cell_formula_units_Z 64
_cell_length_a 16.470081
_cell_length_b 11.461310
_cell_length_c 17.778573
_cell_angle_alpha 90.000000
_cell_angle_beta 90.000000
_cell_angle_gamma 90.000000
_cell_volume 3356.038185
_symmetry_space_group_name_H-M "I 2 2 2"
_symmetry_group_IT_number 23
_symmetry_cell_setting 'orthorhombic'
loop_
_space_group_symop_operation_xyz
x,y,z
-x,-y,z
x,-y,-z
-x,y,-z
1/2+x,1/2+y,1/2+z
1/2-x,1/2-y,1/2+z
1/2+x,1/2-y,1/2-z
1/2-x,1/2+y,1/2-z
loop_
_atom_site_type_symbol
_atom_site_label
_atom_site_fract_x
_atom_site_fract_y
_atom_site_fract_z
Si Si1 0.136104 0.761970 0.219462
Si Si2 0.464379 0.731759 0.228441
Si Si3 0.788977 0.455497 0.178115
Si Si4 0.533584 0.370755 0.924567
Si Si5 0.729072 0.928618 0.076046
Si Si6 0.356199 0.466661 0.706885
Si Si7 0.404402 0.969535 0.186879
Si Si8 0.711339 0.674500 0.117501
O O1 0.185410 0.679052 0.161536
O O2 0.187382 0.772960 0.298751
O O3 0.043980 0.716953 0.230627
O O4 0.121318 0.897753 0.201000
O O5 0.500657 0.685915 0.150633
O O6 0.425131 0.628340 0.277075
O O7 0.401771 0.831059 0.202905
O O8 0.703137 0.453136 0.221218
O O9 0.857514 0.483120 0.240084
O O10 0.776704 0.569486 0.125197
O O11 0.500000 0.500000 0.924357
O O12 0.629692 0.377244 0.917805
O O13 0.500000 0.310667 0.000000
O O14 0.803050 0.944595 0.133594
O O15 0.727463 0.788779 0.067754
O O16 0.647830 0.978761 0.117668
O O17 0.739862 0.000000 0.000000
O O18 0.500000 0.000000 0.178780
#
# Coordination Sequence:
#
# PCOD9329667 Si02
#       8
#     8   8   8   8   8   8   8   8
#     4  10  18  35  56  87 116 140 201 243 296 365
#     4  11  20  34  59  85 117 153 195 246 308 356
#     4  10  19  33  55  83 117 153 192 250 289 349
#     4  10  21  36  51  82 120 162 199 236 287 375
#     4  11  24  39  54  81 117 160 203 244 298 366
#     4  10  21  35  59  81 113 159 194 252 304 348
#     4  11  20  34  52  86 120 155 198 239 295 362
#     4  10  19  37  54  78 119 164 192 242 299 347
#
# _framework density 19.070105000000002
#
# number of rings (size 3 to 8) (size 9 to 14) (size 15 to 20)
#    0.000    1.625    3.750    4.125    5.250    0.250 
#    0.000    0.000    0.000    1.500    0.000    0.000 
#    0.000    0.250    0.000    0.000    0.000    0.000 
#
# Total GULP energy -178164.467966 kJ/mol
# GULP energy per Si atom -5567.639624 kJ/mol
# Density = 1.902670 g / cm^3
# Si number density = 19.070105 Si / 1000 Ang^3
#
#
#
# Elastic Constant Matrix: (Units=GPa)
#
#
# Indices 1 2 3 4 5 6 
#
# 1 72.6268 31.1468 23.9159 0.0000 0.0000 0.0000
# 2 31.1468 130.6894 18.2103 0.0000 0.0000 0.0000
# 3 23.9159 18.2103 38.9088 0.0000 0.0000 0.0000
# 4 0.0000 0.0000 0.0000 -9.8062 0.0000 0.0000
# 5 0.0000 0.0000 0.0000 0.0000 10.0370 0.0000
# 6 0.0000 0.0000 0.0000 0.0000 0.0000 24.1935
#
#
#
# Elastic Compliance Matrix: (Units=1/GPa)
#
#
# Indices 1 2 3 4 5 6 
#
# 1 0.018292 -0.002988 -0.009845 0.000000 0.000000 0.000000
# 2 -0.002988 0.008674 -0.002223 0.000000 0.000000 0.000000
# 3 -0.009845 -0.002223 0.032793 0.000000 0.000000 0.000000
# 4 0.000000 0.000000 0.000000 -0.101977 0.000000 0.000000
# 5 0.000000 0.000000 0.000000 0.000000 0.099631 0.000000
# 6 0.000000 0.000000 0.000000 0.000000 0.000000 0.041333
#
#
# Mechanical properties :
#
#
# Convention : Reuss Voigt Hill
#
# Bulk Modulus (GPa) = 33.73030 43.19678 38.46354
# Shear Modulus (GPa) = 36.03832 16.14834 26.09333
#
# Velocity S-wave (km/s) = 4.35188 2.91312 3.70305
# Velocity P-wave (km/s) = 6.55574 5.83230 6.20457
#
# Compressibility (1/GPa) = 0.02964694
#
# Stress axis : x y z
#
# Youngs Moduli (GPa) = 54.66754 115.29320 30.49417
#
# Poissons Ratio (x) = 0.34446 0.30023
# Poissons Ratio (y) = 0.16333 0.06779
# Poissons Ratio (z) = 0.53822 0.25630
#
# Static dielectric constant tensor:
#      x y z
#    x 1.806780 0.000000 0.000000 
#    y 0.000000 1.822080 0.000000 
#    z 0.000000 0.000000 1.796150 
# 
# From -- ./inp_files/24860.got.cif
#   From: 2010.05.17/outbox.cif.g08.bks.cpg/sg23_13_cif.got.tgz:24860.got - 2010.06.04 12:02:01.
