data_PCOD9329038
_publ_section_title
;
Structure prediction by ZEFSAII (Michael W. Deem and Ramdas Pophale) SiO2 
 PCOD9329038
Probable space group: F 2 2 2
;
_chemical_formula_sum "Si O2"
_cell_formula_units_Z 68
_cell_length_a 8.051874
_cell_length_b 16.382930
_cell_length_c 22.065456
_cell_angle_alpha 90.000000
_cell_angle_beta 90.000000
_cell_angle_gamma 90.000000
_cell_volume 2910.726855
_symmetry_space_group_name_H-M "F 2 2 2"
_symmetry_group_IT_number 22
_symmetry_cell_setting 'orthorhombic'
loop_
_space_group_symop_operation_xyz
x,y,z
-x,-y,z
x,-y,-z
-x,y,-z
x,1/2+y,1/2+z
-x,1/2-y,1/2+z
x,1/2-y,1/2-z
-x,1/2+y,1/2-z
1/2+x,y,1/2+z
1/2-x,-y,1/2+z
1/2+x,-y,1/2-z
1/2-x,y,1/2-z
1/2+x,1/2+y,z
1/2-x,1/2-y,z
1/2+x,1/2-y,-z
1/2-x,1/2+y,-z
loop_
_atom_site_type_symbol
_atom_site_label
_atom_site_fract_x
_atom_site_fract_y
_atom_site_fract_z
Si Si1 0.490426 0.592245 0.358311
Si Si2 0.118691 0.629556 0.399914
Si Si3 0.420898 0.787000 0.944063
Si Si4 0.447487 0.843144 0.265043
Si Si5 0.000000 0.000000 0.000000
O O1 0.500000 0.500000 0.378434
O O2 0.312341 0.628028 0.380451
O O3 0.618794 0.651783 0.390339
O O4 0.518669 0.599152 0.286867
O O5 0.030132 0.624636 0.333278
O O6 0.043684 0.714021 0.425162
O O7 0.090991 0.561101 0.451784
O O8 0.250000 0.750000 0.965263
O O9 0.500000 0.834696 0.000000
O O10 0.504436 0.750000 0.250000
O O11 0.250000 0.841943 0.250000
#
# Coordination Sequence:
#
# PCOD9329038 Si02
#       5
#    16  16  16  16   4
#     4  11  25  43  71 104 139 185 243 297 356 430
#     4  11  24  45  69 101 144 190 235 293 363 434
#     4  12  26  45  69  99 139 188 241 295 368 443
#     4   9  18  40  71  98 135 188 237 289 358 435
#     4  12  28  40  70 104 146 184 240 300 360 412
#
# _framework density 23.361861000000001
#
# number of rings (size 3 to 8) (size 9 to 14) (size 15 to 20)
#    0.000    1.176    3.529    2.118    4.941    0.471 
#    0.000    2.353    0.000    0.000    0.000    0.000 
#    0.000    0.000    0.000    0.000    0.000    0.000 
#
# Total GULP energy -94885.531761 kJ/mol
# GULP energy per Si atom -5581.501868 kJ/mol
# Density = 2.330869 g / cm^3
# Si number density = 23.361861 Si / 1000 Ang^3
#
#
#
# Elastic Constant Matrix: (Units=GPa)
#
#
# Indices 1 2 3 4 5 6 
#
# 1 33.1864 6.3436 21.9169 0.0000 0.0000 0.0000
# 2 6.3436 103.3432 34.2694 0.0000 0.0000 0.0000
# 3 21.9169 34.2694 190.2446 0.0000 0.0000 0.0000
# 4 0.0000 0.0000 0.0000 40.3309 0.0000 0.0000
# 5 0.0000 0.0000 0.0000 0.0000 21.4212 0.0000
# 6 0.0000 0.0000 0.0000 0.0000 0.0000 15.2525
#
#
#
# Elastic Compliance Matrix: (Units=1/GPa)
#
#
# Indices 1 2 3 4 5 6 
#
# 1 0.032677 -0.000806 -0.003619 0.000000 0.000000 0.000000
# 2 -0.000806 0.010311 -0.001765 0.000000 0.000000 0.000000
# 3 -0.003619 -0.001765 0.005991 0.000000 0.000000 0.000000
# 4 0.000000 0.000000 0.000000 0.024795 0.000000 0.000000
# 5 0.000000 0.000000 0.000000 0.000000 0.046683 0.000000
# 6 0.000000 0.000000 0.000000 0.000000 0.000000 0.065563
#
#
# Mechanical properties :
#
#
# Convention : Reuss Voigt Hill
#
# Bulk Modulus (GPa) = 27.32223 50.20378 38.76301
# Shear Modulus (GPa) = 23.74178 33.01721 28.37950
#
# Velocity S-wave (km/s) = 3.19135 3.76346 3.48915
# Velocity P-wave (km/s) = 5.02993 6.35776 5.73242
#
# Compressibility (1/GPa) = 0.03660023
#
# Stress axis : x y z
#
# Youngs Moduli (GPa) = 30.60245 96.98294 166.91097
#
# Poissons Ratio (x) = 0.07813 0.60412
# Poissons Ratio (y) = 0.02465 0.29452
# Poissons Ratio (z) = 0.11076 0.17113
#
# Static dielectric constant tensor:
#      x y z
#    x 1.917470 0.000000 0.000000 
#    y 0.000000 1.855870 0.000000 
#    z 0.000000 0.000000 1.919660 
# 
# From -- ./inp_files/11233.got.cif
#   From: 2010.05.17/outbox.cif.g08.bks.cpg/sg22_6_cif.got.tgz:11233.got - 2010.06.03 23:40:54.
