data_PCOD9329706
_publ_section_title
;
Structure prediction by ZEFSAII (Michael W. Deem and Ramdas Pophale) SiO2 
 PCOD9329706
Probable space group: I 2 2 2
;
_chemical_formula_sum "Si O2"
_cell_formula_units_Z 40
_cell_length_a 8.263506
_cell_length_b 9.259938
_cell_length_c 23.644262
_cell_angle_alpha 90.000000
_cell_angle_beta 90.000000
_cell_angle_gamma 90.000000
_cell_volume 1809.248365
_symmetry_space_group_name_H-M "I 2 2 2"
_symmetry_group_IT_number 23
_symmetry_cell_setting 'orthorhombic'
loop_
_space_group_symop_operation_xyz
x,y,z
-x,-y,z
x,-y,-z
-x,y,-z
1/2+x,1/2+y,1/2+z
1/2-x,1/2-y,1/2+z
1/2+x,1/2-y,1/2-z
1/2-x,1/2+y,1/2-z
loop_
_atom_site_type_symbol
_atom_site_label
_atom_site_fract_x
_atom_site_fract_y
_atom_site_fract_z
Si Si1 0.000000 0.000000 0.500000
Si Si2 0.572858 0.838989 0.310993
Si Si3 0.500000 0.500000 0.500000
Si Si4 0.649889 0.748569 0.427938
Si Si5 0.460713 0.332599 0.798378
Si Si6 0.000000 0.500000 0.000000
Si Si7 0.461907 0.748731 0.919943
Si Si8 0.500000 0.000000 0.000000
O O1 0.089947 0.109354 0.543295
O O2 0.547703 0.756379 0.370033
O O3 0.501867 0.760004 0.256551
O O4 0.767506 0.833932 0.306534
O O5 0.500000 0.000000 0.314453
O O6 0.602477 0.606829 0.461430
O O7 0.603274 0.892721 0.461418
O O8 0.842508 0.747980 0.421638
O O9 0.500000 0.500000 0.790766
O O10 0.562527 0.272381 0.852911
O O11 0.410974 0.889930 0.955813
#
# Coordination Sequence:
#
# PCOD9329706 Si02
#       8
#     2   8   2   8   8   2   8   2
#     4  10  18  38  62  88 120 154 210 248 326 366
#     4  11  24  44  66  95 126 169 216 267 320 379
#     4  10  22  38  58  92 128 162 210 248 322 366
#     4  10  21  38  61  89 124 161 208 256 314 376
#     4  11  24  44  66  95 126 169 216 267 320 379
#     4  10  18  38  62  88 120 154 210 248 326 366
#     4  10  21  38  61  89 124 161 208 256 314 376
#     4  10  22  38  58  92 128 162 210 248 322 366
#
# _framework density 22.108630000000002
#
# number of rings (size 3 to 8) (size 9 to 14) (size 15 to 20)
#    0.000    1.600    2.000    2.400    2.800    0.000 
#    0.000    4.000    0.000    0.000    0.000    0.000 
#    0.000    0.000    0.000    0.000    0.000    0.000 
#
# Total GULP energy -111726.399307 kJ/mol
# GULP energy per Si atom -5586.319965 kJ/mol
# Density = 2.205831 g / cm^3
# Si number density = 22.108630 Si / 1000 Ang^3
#
#
#
# Elastic Constant Matrix: (Units=GPa)
#
#
# Indices 1 2 3 4 5 6 
#
# 1 51.6409 23.9176 26.6489 0.0000 0.0000 0.0000
# 2 23.9176 173.4896 89.4095 0.0000 0.0000 0.0000
# 3 26.6489 89.4095 194.7142 0.0000 0.0000 0.0000
# 4 0.0000 0.0000 0.0000 291.6634 0.0000 0.0000
# 5 0.0000 0.0000 0.0000 0.0000 28.4660 0.0000
# 6 0.0000 0.0000 0.0000 0.0000 0.0000 31.0595
#
#
#
# Elastic Compliance Matrix: (Units=1/GPa)
#
#
# Indices 1 2 3 4 5 6 
#
# 1 0.021293 -0.001878 -0.002052 0.000000 0.000000 0.000000
# 2 -0.001878 0.007717 -0.003286 0.000000 0.000000 0.000000
# 3 -0.002052 -0.003286 0.006926 0.000000 0.000000 0.000000
# 4 0.000000 0.000000 0.000000 0.003429 0.000000 0.000000
# 5 0.000000 0.000000 0.000000 0.000000 0.035130 0.000000
# 6 0.000000 0.000000 0.000000 0.000000 0.000000 0.032196
#
#
# Mechanical properties :
#
#
# Convention : Reuss Voigt Hill
#
# Bulk Modulus (GPa) = 46.50536 77.75519 62.13028
# Shear Modulus (GPa) = 38.97426 88.89569 63.93498
#
# Velocity S-wave (km/s) = 4.20319 6.34790 5.38343
# Velocity P-wave (km/s) = 6.68104 9.43259 8.17344
#
# Compressibility (1/GPa) = 0.02150290
#
# Stress axis : x y z
#
# Youngs Moduli (GPa) = 46.96337 129.59131 144.39284
#
# Poissons Ratio (x) = 0.24338 0.29627
# Poissons Ratio (y) = 0.08820 0.47451
# Poissons Ratio (z) = 0.09636 0.42587
#
# Static dielectric constant tensor:
#      x y z
#    x 1.745820 0.000000 0.000000 
#    y 0.000000 1.760230 0.000000 
#    z 0.000000 0.000000 1.865570 
# 
# From -- ./inp_files/7002.got.cif
#   From: 2010.05.17/outbox.cif.g08.bks.cpg/sg23_4_cif.got.tgz:7002.got - 2010.06.04 12:02:01.
