data_PCOD9329187
_publ_section_title
;
Structure prediction by ZEFSAII (Michael W. Deem and Ramdas Pophale) SiO2 
 PCOD9329187
Probable space group: F 2 2 2
;
_chemical_formula_sum "Si O2"
_cell_formula_units_Z 60
_cell_length_a 5.152112
_cell_length_b 26.370112
_cell_length_c 17.533059
_cell_angle_alpha 90.000000
_cell_angle_beta 90.000000
_cell_angle_gamma 90.000000
_cell_volume 2382.072438
_symmetry_space_group_name_H-M "F 2 2 2"
_symmetry_group_IT_number 22
_symmetry_cell_setting 'orthorhombic'
loop_
_space_group_symop_operation_xyz
x,y,z
-x,-y,z
x,-y,-z
-x,y,-z
x,1/2+y,1/2+z
-x,1/2-y,1/2+z
x,1/2-y,1/2-z
-x,1/2+y,1/2-z
1/2+x,y,1/2+z
1/2-x,-y,1/2+z
1/2+x,-y,1/2-z
1/2-x,y,1/2-z
1/2+x,1/2+y,z
1/2-x,1/2-y,z
1/2+x,1/2-y,-z
1/2-x,1/2+y,-z
loop_
_atom_site_type_symbol
_atom_site_label
_atom_site_fract_x
_atom_site_fract_y
_atom_site_fract_z
Si Si1 0.250000 0.750000 0.053710
Si Si2 0.250000 0.419147 0.750000
Si Si3 0.500000 0.062777 0.000000
Si Si4 0.750000 0.750000 0.250000
Si Si5 0.533322 0.668385 0.853221
Si Si6 0.500000 0.500000 0.635585
Si Si7 0.500000 0.119378 0.500000
O O1 0.232015 0.699660 0.106540
O O2 0.500000 0.747454 0.000000
O O3 0.420402 0.379832 0.799379
O O4 0.383716 0.457770 0.690998
O O5 0.747991 0.091301 0.033960
O O6 0.644907 0.032955 0.930021
O O7 0.591953 0.712223 0.196492
O O8 0.382589 0.649416 0.928093
#
# Coordination Sequence:
#
# PCOD9329187 Si02
#       7
#     8   8   8   4  16   8   8
#     4  12  27  49  84 118 156 210 278 334 399 481
#     4  12  28  48  76 120 160 214 258 342 398 488
#     4  11  28  54  77 117 156 215 271 330 390 489
#     4  12  30  52  80 124 164 222 260 354 406 496
#     4  12  28  50  81 116 165 209 274 329 412 477
#     4  11  28  48  82 111 164 206 270 321 410 470
#     4  12  28  49  85 113 158 215 271 327 402 480
#
# _framework density 25.188148999999999
#
# number of rings (size 3 to 8) (size 9 to 14) (size 15 to 20)
#    0.000    0.267    4.000    2.400    9.333    2.133 
#    0.000    0.000    0.000    0.000    0.000    0.000 
#    0.000    0.000    0.000    0.000    0.000    0.000 
#
# Total GULP energy -83662.332507 kJ/mol
# GULP energy per Si atom -5577.488834 kJ/mol
# Density = 2.513082 g / cm^3
# Si number density = 25.188149 Si / 1000 Ang^3
#
#
#
# Elastic Constant Matrix: (Units=GPa)
#
#
# Indices 1 2 3 4 5 6 
#
# 1 87.6143 52.1360 43.7424 0.0000 0.0000 0.0000
# 2 52.1360 198.1940 98.5896 0.0000 0.0000 0.0000
# 3 43.7424 98.5896 222.2365 0.0000 0.0000 0.0000
# 4 0.0000 0.0000 0.0000 91.8012 0.0000 0.0000
# 5 0.0000 0.0000 0.0000 0.0000 30.8517 0.0000
# 6 0.0000 0.0000 0.0000 0.0000 0.0000 19.5281
#
#
#
# Elastic Compliance Matrix: (Units=1/GPa)
#
#
# Indices 1 2 3 4 5 6 
#
# 1 0.013876 -0.002940 -0.001427 0.000000 0.000000 0.000000
# 2 -0.002940 0.007097 -0.002570 0.000000 0.000000 0.000000
# 3 -0.001427 -0.002570 0.005921 0.000000 0.000000 0.000000
# 4 0.000000 0.000000 0.000000 0.010893 0.000000 0.000000
# 5 0.000000 0.000000 0.000000 0.000000 0.032413 0.000000
# 6 0.000000 0.000000 0.000000 0.000000 0.000000 0.051208
#
#
# Mechanical properties :
#
#
# Convention : Reuss Voigt Hill
#
# Bulk Modulus (GPa) = 76.80601 99.66453 88.23527
# Shear Modulus (GPa) = 35.81103 49.34133 42.57618
#
# Velocity S-wave (km/s) = 3.77469 4.43076 4.11582
# Velocity P-wave (km/s) = 7.03966 8.11353 7.59560
#
# Compressibility (1/GPa) = 0.01301981
#
# Stress axis : x y z
#
# Youngs Moduli (GPa) = 72.06861 140.89711 168.90284
#
# Poissons Ratio (x) = 0.41429 0.24097
# Poissons Ratio (y) = 0.21191 0.43405
# Poissons Ratio (z) = 0.10282 0.36208
#
# Static dielectric constant tensor:
#      x y z
#    x 2.002720 0.000000 0.000000 
#    y 0.000000 2.311860 0.000000 
#    z 0.000000 0.000000 1.979670 
# 
# From -- ./inp_files/2694.got.cif
#   From: 2010.05.17/outbox.cif.g08.bks.cpg/sg22_2_cif.got.tgz:2694.got - 2010.06.03 23:40:54.
