data_PCOD9329138
_publ_section_title
;
Structure prediction by ZEFSAII (Michael W. Deem and Ramdas Pophale) SiO2 
 PCOD9329138
Probable space group: F 2 2 2
;
_chemical_formula_sum "Si O2"
_cell_formula_units_Z 56
_cell_length_a 8.095846
_cell_length_b 22.946515
_cell_length_c 12.552090
_cell_angle_alpha 90.000000
_cell_angle_beta 90.000000
_cell_angle_gamma 90.000000
_cell_volume 2331.819981
_symmetry_space_group_name_H-M "F 2 2 2"
_symmetry_group_IT_number 22
_symmetry_cell_setting 'orthorhombic'
loop_
_space_group_symop_operation_xyz
x,y,z
-x,-y,z
x,-y,-z
-x,y,-z
x,1/2+y,1/2+z
-x,1/2-y,1/2+z
x,1/2-y,1/2-z
-x,1/2+y,1/2-z
1/2+x,y,1/2+z
1/2-x,-y,1/2+z
1/2+x,-y,1/2-z
1/2-x,y,1/2-z
1/2+x,1/2+y,z
1/2-x,1/2-y,z
1/2+x,1/2-y,-z
1/2-x,1/2+y,-z
loop_
_atom_site_type_symbol
_atom_site_label
_atom_site_fract_x
_atom_site_fract_y
_atom_site_fract_z
Si Si1 0.885204 0.109755 0.662148
Si Si2 0.500000 0.000000 0.702222
Si Si3 0.807081 0.689258 0.869896
Si Si4 0.683014 0.427784 0.042709
O O1 0.750000 0.129993 0.750000
O O2 0.812623 0.080379 0.554178
O O3 0.972537 0.056907 0.725692
O O4 0.005642 0.163477 0.630338
O O5 0.660581 0.980070 0.629689
O O6 0.750000 0.695687 0.750000
O O7 0.750000 0.750000 0.924839
O O8 0.701080 0.634521 0.905165
O O9 0.500000 0.429898 0.000000
#
# Coordination Sequence:
#
# PCOD9329138 Si02
#       4
#    16   8  16  16
#     4  12  27  47  77 116 158 214 264 320 405 473
#     4  12  27  48  77 116 178 207 260 327 384 486
#     4  11  25  51  79 110 151 209 271 339 391 470
#     4  12  26  46  74 112 159 210 262 323 395 468
#
# _framework density 24.015574000000001
#
# number of rings (size 3 to 8) (size 9 to 14) (size 15 to 20)
#    0.000    0.286    5.714    1.286    4.000    2.286 
#    5.143    8.571    0.000    0.000    0.000    0.000 
#    0.000    0.000    0.000    0.000    0.000    0.000 
#
# Total GULP energy -77988.644519 kJ/mol
# GULP energy per Si atom -5570.617466 kJ/mol
# Density = 2.396091 g / cm^3
# Si number density = 24.015574 Si / 1000 Ang^3
#
#
#
# Elastic Constant Matrix: (Units=GPa)
#
#
# Indices 1 2 3 4 5 6 
#
# 1 100.9392 70.1039 30.1945 0.0000 0.0000 0.0000
# 2 70.1039 218.6208 52.7877 0.0000 0.0000 0.0000
# 3 30.1945 52.7877 115.3198 0.0000 0.0000 0.0000
# 4 0.0000 0.0000 0.0000 23.0236 0.0000 0.0000
# 5 0.0000 0.0000 0.0000 0.0000 41.1556 0.0000
# 6 0.0000 0.0000 0.0000 0.0000 0.0000 59.3609
#
#
#
# Elastic Compliance Matrix: (Units=1/GPa)
#
#
# Indices 1 2 3 4 5 6 
#
# 1 0.013030 -0.003771 -0.001685 0.000000 0.000000 0.000000
# 2 -0.003771 0.006234 -0.001866 0.000000 0.000000 0.000000
# 3 -0.001685 -0.001866 0.009967 0.000000 0.000000 0.000000
# 4 0.000000 0.000000 0.000000 0.043434 0.000000 0.000000
# 5 0.000000 0.000000 0.000000 0.000000 0.024298 0.000000
# 6 0.000000 0.000000 0.000000 0.000000 0.000000 0.016846
#
#
# Mechanical properties :
#
#
# Convention : Reuss Voigt Hill
#
# Bulk Modulus (GPa) = 68.56099 82.33911 75.45005
# Shear Modulus (GPa) = 37.50449 43.49426 40.49937
#
# Velocity S-wave (km/s) = 3.95609 4.26030 4.11101
# Velocity P-wave (km/s) = 7.03406 7.65247 7.34978
#
# Compressibility (1/GPa) = 0.01458555
#
# Stress axis : x y z
#
# Youngs Moduli (GPa) = 76.74326 160.40812 100.33029
#
# Poissons Ratio (x) = 0.60497 0.16910
# Poissons Ratio (y) = 0.28943 0.18723
# Poissons Ratio (z) = 0.12935 0.29935
#
# Static dielectric constant tensor:
#      x y z
#    x 1.945480 0.000000 0.000000 
#    y 0.000000 2.111420 0.000000 
#    z 0.000000 0.000000 2.276980 
# 
# From -- ./inp_files/26722.got.cif
#   From: 2010.05.17/outbox.cif.g08.bks.cpg/sg22_14_cif.got.tgz:26722.got - 2010.06.03 23:40:54.
