data_PCOD9329139
_publ_section_title
;
Structure prediction by ZEFSAII (Michael W. Deem and Ramdas Pophale) SiO2 
 PCOD9329139
Probable space group: F 2 2 2
;
_chemical_formula_sum "Si O2"
_cell_formula_units_Z 100
_cell_length_a 11.798993
_cell_length_b 13.170299
_cell_length_c 30.377350
_cell_angle_alpha 90.000000
_cell_angle_beta 90.000000
_cell_angle_gamma 90.000000
_cell_volume 4720.526752
_symmetry_space_group_name_H-M "F 2 2 2"
_symmetry_group_IT_number 22
_symmetry_cell_setting 'orthorhombic'
loop_
_space_group_symop_operation_xyz
x,y,z
-x,-y,z
x,-y,-z
-x,y,-z
x,1/2+y,1/2+z
-x,1/2-y,1/2+z
x,1/2-y,1/2-z
-x,1/2+y,1/2-z
1/2+x,y,1/2+z
1/2-x,-y,1/2+z
1/2+x,-y,1/2-z
1/2-x,y,1/2-z
1/2+x,1/2+y,z
1/2-x,1/2-y,z
1/2+x,1/2-y,-z
1/2-x,1/2+y,-z
loop_
_atom_site_type_symbol
_atom_site_label
_atom_site_fract_x
_atom_site_fract_y
_atom_site_fract_z
Si Si1 0.884066 0.311048 0.111963
Si Si2 0.383170 0.792911 0.296150
Si Si3 0.250000 0.250000 0.034489
Si Si4 0.897292 0.884419 0.421671
Si Si5 0.806072 0.980307 0.893057
Si Si6 0.000000 0.000000 0.500000
Si Si7 0.107941 0.352354 0.532084
Si Si8 0.000000 0.000000 0.824561
O O1 0.915623 0.250221 0.155919
O O2 0.768069 0.376501 0.117790
O O3 0.887927 0.242026 0.067449
O O4 0.987843 0.387113 0.105014
O O5 0.429336 0.750000 0.250000
O O6 0.250000 0.750000 0.294933
O O7 0.437961 0.907531 0.297984
O O8 0.144941 0.272696 0.065934
O O9 0.212516 0.161896 0.001293
O O10 0.791235 0.938793 0.400559
O O11 0.924728 0.933312 0.468347
O O12 0.872684 0.949548 0.937243
O O13 0.894866 0.022503 0.857659
O O14 0.000000 0.352822 0.500000
#
# Coordination Sequence:
#
# PCOD9329139 Si02
#       8
#    16  16   8  16  16   4  16   8
#     4  12  21  48  72  98 138 191 243 298 374 443
#     4  11  25  51  83 113 148 194 242 307 392 468
#     4  12  24  38  56  92 142 194 254 300 358 428
#     4  12  26  39  62  95 136 198 250 303 359 435
#     4  12  25  44  66 101 143 192 247 307 370 445
#     4  12  20  44  58  86 132 186 262 296 338 440
#     4  12  23  40  64  96 140 195 245 300 364 431
#     4  12  26  48  78 116 148 186 250 310 372 478
#
# _framework density 21.184076000000001
#
# number of rings (size 3 to 8) (size 9 to 14) (size 15 to 20)
#    0.000    0.160    8.000    1.920    4.480    0.000 
#    2.880    0.000    0.000    0.960    0.000    0.000 
#    0.000    0.000    0.000    0.000    0.000    0.000 
#
# Total GULP energy -139232.802209 kJ/mol
# GULP energy per Si atom -5569.312088 kJ/mol
# Density = 2.113586 g / cm^3
# Si number density = 21.184076 Si / 1000 Ang^3
#
#
#
# Elastic Constant Matrix: (Units=GPa)
#
#
# Indices 1 2 3 4 5 6 
#
# 1 137.6525 43.0630 46.8670 0.0000 0.0000 0.0000
# 2 43.0630 78.0324 40.5847 0.0000 0.0000 0.0000
# 3 46.8670 40.5847 101.8911 0.0000 0.0000 0.0000
# 4 0.0000 0.0000 0.0000 26.0501 0.0000 0.0000
# 5 0.0000 0.0000 0.0000 0.0000 25.1650 0.0000
# 6 0.0000 0.0000 0.0000 0.0000 0.0000 47.5834
#
#
#
# Elastic Compliance Matrix: (Units=1/GPa)
#
#
# Indices 1 2 3 4 5 6 
#
# 1 0.009392 -0.003703 -0.002845 0.000000 0.000000 0.000000
# 2 -0.003703 0.017624 -0.005316 0.000000 0.000000 0.000000
# 3 -0.002845 -0.005316 0.013241 0.000000 0.000000 0.000000
# 4 0.000000 0.000000 0.000000 0.038388 0.000000 0.000000
# 5 0.000000 0.000000 0.000000 0.000000 0.039738 0.000000
# 6 0.000000 0.000000 0.000000 0.000000 0.000000 0.021016
#
#
# Mechanical properties :
#
#
# Convention : Reuss Voigt Hill
#
# Bulk Modulus (GPa) = 60.50687 64.28948 62.39818
# Shear Modulus (GPa) = 29.64967 32.23044 30.94006
#
# Velocity S-wave (km/s) = 3.74521 3.90480 3.82584
# Velocity P-wave (km/s) = 6.87943 7.12348 7.00252
#
# Compressibility (1/GPa) = 0.01652705
#
# Stress axis : x y z
#
# Youngs Moduli (GPa) = 106.47557 56.74079 75.52535
#
# Poissons Ratio (x) = 0.21013 0.21486
# Poissons Ratio (y) = 0.39432 0.40153
# Poissons Ratio (z) = 0.30291 0.30166
#
# Static dielectric constant tensor:
#      x y z
#    x 1.792010 0.000000 0.000000 
#    y 0.000000 1.869970 0.000000 
#    z 0.000000 0.000000 1.740210 
# 
# From -- ./inp_files/56077.got.cif
#   From: 2010.05.17/outbox.cif.g08.bks.cpg/sg22_29_cif.got.tgz:56077.got - 2010.06.03 23:40:54.
