data_PCOD9329369
_publ_section_title
;
Structure prediction by ZEFSAII (Michael W. Deem and Ramdas Pophale) SiO2 
 PCOD9329369
Probable space group: I 2 2 2
;
_chemical_formula_sum "Si O2"
_cell_formula_units_Z 42
_cell_length_a 8.076989
_cell_length_b 8.568653
_cell_length_c 29.766060
_cell_angle_alpha 90.000000
_cell_angle_beta 90.000000
_cell_angle_gamma 90.000000
_cell_volume 2060.076747
_symmetry_space_group_name_H-M "I 2 2 2"
_symmetry_group_IT_number 23
_symmetry_cell_setting 'orthorhombic'
loop_
_space_group_symop_operation_xyz
x,y,z
-x,-y,z
x,-y,-z
-x,y,-z
1/2+x,1/2+y,1/2+z
1/2-x,1/2-y,1/2+z
1/2+x,1/2-y,1/2-z
1/2-x,1/2+y,1/2-z
loop_
_atom_site_type_symbol
_atom_site_label
_atom_site_fract_x
_atom_site_fract_y
_atom_site_fract_z
Si Si1 0.085233 0.739816 0.283049
Si Si2 0.737234 0.560549 0.928298
Si Si3 0.500000 0.500000 0.000000
Si Si4 0.771353 0.078166 0.201423
Si Si5 0.000000 0.000000 0.119573
Si Si6 0.559655 0.755603 0.551555
Si Si7 0.000000 0.000000 0.650141
O O1 0.109856 0.831527 0.236362
O O2 0.219804 0.601001 0.286990
O O3 0.904425 0.666297 0.292504
O O4 0.096200 0.873838 0.320326
O O5 0.610890 0.604898 0.967523
O O6 0.897345 0.664586 0.927658
O O7 0.638115 0.570185 0.882514
O O8 0.798824 0.386944 0.943044
O O9 0.864706 0.075061 0.153570
O O10 0.905260 0.886709 0.084679
O O11 0.500000 0.722421 0.500000
#
# Coordination Sequence:
#
# PCOD9329369 Si02
#       7
#     8   8   2   8   4   8   4
#     4  11  23  42  65  92 130 162 214 255 325 378
#     4  10  20  35  62  84 116 153 209 250 302 360
#     4  10  16  34  58  82 104 148 196 254 286 342
#     4  11  24  42  65  91 125 170 207 267 314 392
#     4  12  24  38  61  89 127 161 204 254 332 374
#     4  11  21  39  58  86 119 162 205 257 305 374
#     4  11  21  35  60  95 121 158 197 263 309 378
#
# _framework density 20.387588999999998
#
# number of rings (size 3 to 8) (size 9 to 14) (size 15 to 20)
#    0.000    1.143    1.905    6.000    0.000    0.000 
#    0.000    3.810    0.000    1.143    0.000    0.000 
#    0.000    0.000    0.000    0.000    0.000    0.000 
#
# Total GULP energy -117103.011396 kJ/mol
# GULP energy per Si atom -5576.333876 kJ/mol
# Density = 2.034119 g / cm^3
# Si number density = 20.387589 Si / 1000 Ang^3
#
#
#
# Elastic Constant Matrix: (Units=GPa)
#
#
# Indices 1 2 3 4 5 6 
#
# 1 69.8632 0.4533 7.9814 0.0000 0.0000 0.0000
# 2 0.4533 58.5372 42.0982 0.0000 0.0000 0.0000
# 3 7.9814 42.0982 124.7431 0.0000 0.0000 0.0000
# 4 0.0000 0.0000 0.0000 -57.9246 0.0000 0.0000
# 5 0.0000 0.0000 0.0000 0.0000 4.8038 0.0000
# 6 0.0000 0.0000 0.0000 0.0000 0.0000 21.2021
#
#
#
# Elastic Compliance Matrix: (Units=1/GPa)
#
#
# Indices 1 2 3 4 5 6 
#
# 1 0.014443 0.000730 -0.001170 0.000000 0.000000 0.000000
# 2 0.000730 0.022595 -0.007672 0.000000 0.000000 0.000000
# 3 -0.001170 -0.007672 0.010681 0.000000 0.000000 0.000000
# 4 0.000000 0.000000 0.000000 -0.017264 0.000000 0.000000
# 5 0.000000 0.000000 0.000000 0.000000 0.208166 0.000000
# 6 0.000000 0.000000 0.000000 0.000000 0.000000 0.047165
#
#
# Mechanical properties :
#
#
# Convention : Reuss Voigt Hill
#
# Bulk Modulus (GPa) = 31.75307 39.35661 35.55484
# Shear Modulus (GPa) = 15.99955 7.12364 11.56160
#
# Velocity S-wave (km/s) = 2.80441 1.87128 2.38395
# Velocity P-wave (km/s) = 5.10831 4.90051 5.00549
#
# Compressibility (1/GPa) = 0.03149302
#
# Stress axis : x y z
#
# Youngs Moduli (GPa) = 69.23937 44.25758 93.62846
#
# Poissons Ratio (x) = -0.03230 0.10958
# Poissons Ratio (y) = -0.05054 0.71832
# Poissons Ratio (z) = 0.08104 0.33955
#
# Static dielectric constant tensor:
#      x y z
#    x 1.912640 0.000000 0.000000 
#    y 0.000000 1.848580 0.000000 
#    z 0.000000 0.000000 1.730600 
# 
# From -- ./inp_files/29193.got.cif
#   From: 2010.05.17/outbox.cif.g08.bks.cpg/sg23_15_cif.got.tgz:29193.got - 2010.06.04 12:02:01.
