data_PCOD9329804
_publ_section_title
;
Structure prediction by ZEFSAII (Michael W. Deem and Ramdas Pophale) SiO2 
 PCOD9329804
Probable space group: I 2 2 2
;
_chemical_formula_sum "Si O2"
_cell_formula_units_Z 64
_cell_length_a 31.630198
_cell_length_b 7.703443
_cell_length_c 14.608080
_cell_angle_alpha 90.000000
_cell_angle_beta 90.000000
_cell_angle_gamma 90.000000
_cell_volume 3559.425624
_symmetry_space_group_name_H-M "I 2 2 2"
_symmetry_group_IT_number 23
_symmetry_cell_setting 'orthorhombic'
loop_
_space_group_symop_operation_xyz
x,y,z
-x,-y,z
x,-y,-z
-x,y,-z
1/2+x,1/2+y,1/2+z
1/2-x,1/2-y,1/2+z
1/2+x,1/2-y,1/2-z
1/2-x,1/2+y,1/2-z
loop_
_atom_site_type_symbol
_atom_site_label
_atom_site_fract_x
_atom_site_fract_y
_atom_site_fract_z
Si Si1 0.202532 0.214428 0.670574
Si Si2 0.633615 0.691964 0.674676
Si Si3 0.831393 0.303348 0.011426
Si Si4 0.285427 0.309878 0.782218
Si Si5 0.262546 0.199602 0.982776
Si Si6 0.870436 0.207807 0.203328
Si Si7 0.951345 0.214024 0.896603
Si Si8 0.546744 0.289418 0.608599
O O1 0.243791 0.298047 0.718871
O O2 0.205641 0.241038 0.562178
O O3 0.158609 0.278539 0.715071
O O4 0.206900 0.011797 0.695783
O O5 0.649546 0.687404 0.569579
O O6 0.673403 0.766544 0.730440
O O7 0.626250 0.499990 0.713903
O O8 0.587483 0.777888 0.665440
O O9 0.780977 0.301829 0.004225
O O10 0.846931 0.500000 0.000000
O O11 0.843950 0.237348 0.110713
O O12 0.278087 0.220578 0.879542
O O13 0.252129 0.000000 0.000000
O O14 0.917285 0.272886 0.178282
O O15 0.998847 0.264983 0.869589
O O16 0.951228 0.001586 0.893544
O O17 0.944502 0.263909 0.003177
#
# Coordination Sequence:
#
# PCOD9329804 Si02
#       8
#     8   8   8   8   8   8   8   8
#     4  11  22  34  51  74 100 131 168 206 246 294
#     4  10  19  32  50  71  99 133 167 201 243 291
#     4  12  22  30  47  71 100 132 167 206 242 290
#     4  11  22  34  51  74 100 131 168 206 246 294
#     4  12  24  38  52  67  96 133 170 214 252 289
#     4  10  19  32  50  71  99 133 167 201 243 291
#     4   8  13  23  44  73 100 127 161 198 236 286
#     4   8  13  23  44  73 100 127 161 198 236 286
#
# _framework density 17.980429000000001
#
# number of rings (size 3 to 8) (size 9 to 14) (size 15 to 20)
#    0.000    1.750    3.750    3.750    0.000    1.000 
#    0.000    0.000    0.000    1.500    0.000    0.875 
#    0.000    7.000    0.000    0.000    0.000    0.000 
#
# Total GULP energy -178537.283852 kJ/mol
# GULP energy per Si atom -5579.290120 kJ/mol
# Density = 1.793950 g / cm^3
# Si number density = 17.980429 Si / 1000 Ang^3
#
#
#
# Elastic Constant Matrix: (Units=GPa)
#
#
# Indices 1 2 3 4 5 6 
#
# 1 146.4954 -3.2414 41.7728 0.0000 0.0000 0.0000
# 2 -3.2414 35.7288 -13.0098 0.0000 0.0000 0.0000
# 3 41.7728 -13.0098 64.0664 0.0000 0.0000 0.0000
# 4 0.0000 0.0000 0.0000 15.1453 0.0000 0.0000
# 5 0.0000 0.0000 0.0000 0.0000 25.8629 0.0000
# 6 0.0000 0.0000 0.0000 0.0000 0.0000 5.6391
#
#
#
# Elastic Compliance Matrix: (Units=1/GPa)
#
#
# Indices 1 2 3 4 5 6 
#
# 1 0.008444 -0.001338 -0.005777 0.000000 0.000000 0.000000
# 2 -0.001338 0.030435 0.007053 0.000000 0.000000 0.000000
# 3 -0.005777 0.007053 0.020808 0.000000 0.000000 0.000000
# 4 0.000000 0.000000 0.000000 0.066027 0.000000 0.000000
# 5 0.000000 0.000000 0.000000 0.000000 0.038665 0.000000
# 6 0.000000 0.000000 0.000000 0.000000 0.000000 0.177334
#
#
# Mechanical properties :
#
#
# Convention : Reuss Voigt Hill
#
# Bulk Modulus (GPa) = 16.78910 33.03710 24.91310
# Shear Modulus (GPa) = 13.82389 24.04738 18.93563
#
# Velocity S-wave (km/s) = 2.77579 3.66104 3.24871
# Velocity P-wave (km/s) = 4.43069 6.02369 5.28752
#
# Compressibility (1/GPa) = 0.05956246
#
# Stress axis : x y z
#
# Youngs Moduli (GPa) = 118.42832 32.85657 48.05878
#
# Poissons Ratio (x) = 0.04395 0.27765
# Poissons Ratio (y) = 0.15841 -0.33894
# Poissons Ratio (z) = 0.68419 -0.23172
#
# Static dielectric constant tensor:
#      x y z
#    x 1.673120 0.000000 0.000000 
#    y 0.000000 1.695480 0.000000 
#    z 0.000000 0.000000 1.592510 
# 
# From -- ./inp_files/10440.got.cif
#   From: 2010.05.17/outbox.cif.g08.bks.cpg/sg23_6_cif.got.tgz:10440.got - 2010.06.04 12:02:01.
