data_PCOD9329304
_publ_section_title
;
Structure prediction by ZEFSAII (Michael W. Deem and Ramdas Pophale) SiO2 
 PCOD9329304
Probable space group: F 2 2 2
;
_chemical_formula_sum "Si O2"
_cell_formula_units_Z 24
_cell_length_a 21.000000
_cell_length_b 15.000000
_cell_length_c 15.000000
_cell_angle_alpha 90.000000
_cell_angle_beta 90.000000
_cell_angle_gamma 90.000000
_cell_volume 4725.000000
_symmetry_space_group_name_H-M "F 2 2 2"
_symmetry_group_IT_number 22
_symmetry_cell_setting 'orthorhombic'
loop_
_space_group_symop_operation_xyz
x,y,z
-x,-y,z
x,-y,-z
-x,y,-z
x,1/2+y,1/2+z
-x,1/2-y,1/2+z
x,1/2-y,1/2-z
-x,1/2+y,1/2-z
1/2+x,y,1/2+z
1/2-x,-y,1/2+z
1/2+x,-y,1/2-z
1/2-x,y,1/2-z
1/2+x,1/2+y,z
1/2-x,1/2-y,z
1/2+x,1/2-y,-z
1/2-x,1/2+y,-z
loop_
_atom_site_type_symbol
_atom_site_label
_atom_site_fract_x
_atom_site_fract_y
_atom_site_fract_z
Si Si1 0.386686 0.500000 0.000000
Si Si2 0.581235 0.750000 0.750000
Si Si3 0.337631 0.009654 0.200556
Si Si4 0.692215 0.176539 0.124859
Si Si5 0.170173 0.167211 0.415332
Si Si6 0.317172 0.636817 0.868267
Si Si7 0.054064 0.928655 0.176343
O O1 0.346788 0.571407 0.942645
O O2 0.425712 0.444034 0.926214
O O3 0.630935 0.786105 0.823575
O O4 0.540131 0.827500 0.703785
O O5 0.361411 0.076295 0.122274
O O6 0.317629 0.083058 0.275468
O O7 0.295193 0.926424 0.160155
O O8 0.389410 0.956527 0.257658
O O9 0.750000 0.250000 0.135531
O O10 0.671834 0.172549 0.021855
O O11 0.243956 0.152295 0.390801
O O12 0.151485 0.263991 0.373660
O O13 0.000000 0.000000 0.193883
#
# Coordination Sequence:
#
# PCOD9329304 Si02
#       7
#     8   8  16  16  16  16  16
#     4  10  21  38  66  92 122 150 215 264 312 364
#     4  10  23  40  64  88 126 152 209 264 314 372
#     4  10  23  37  58  87 124 163 207 254 303 372
#     4  11  22  38  60  92 124 167 203 248 309 384
#     4  11  21  36  56  87 129 165 204 232 306 378
#     4  10  21  36  56  86 127 164 194 249 302 373
#     4  10  22  43  64  89 118 160 210 269 319 355
#
# _framework density 5.0793650000000001
#
# number of rings (size 3 to 8) (size 9 to 14) (size 15 to 20)
#    0.000    1.667    1.667    3.000    2.333    6.667 
#    6.000    0.000    0.000    7.000    0.000    0.000 
#    0.000    0.000    0.000    0.000    0.000    0.000 
#
# Total GULP energy -133749.685868 kJ/mol
# GULP energy per Si atom -5572.903578 kJ/mol
# Density = 0.506780 g / cm^3
# Si number density = 5.079365 Si / 1000 Ang^3
#
#
#
# Elastic Constant Matrix: (Units=GPa)
#
#
# Indices 1 2 3 4 5 6 
#
# 1 13.2365 14.5856 22.7586 0.0000 0.0000 0.0000
# 2 14.5856 188.1035 74.5993 0.0000 0.0000 0.0000
# 3 22.7586 74.5993 142.0452 0.0000 0.0000 0.0000
# 4 0.0000 0.0000 0.0000 25.6368 0.0000 0.0000
# 5 0.0000 0.0000 0.0000 0.0000 10.2049 0.0000
# 6 0.0000 0.0000 0.0000 0.0000 0.0000 30.3251
#
#
#
# Elastic Compliance Matrix: (Units=1/GPa)
#
#
# Indices 1 2 3 4 5 6 
#
# 1 0.104784 -0.001853 -0.015816 0.000000 0.000000 0.000000
# 2 -0.001853 0.006748 -0.003247 0.000000 0.000000 0.000000
# 3 -0.015816 -0.003247 0.011279 0.000000 0.000000 0.000000
# 4 0.000000 0.000000 0.000000 0.039006 0.000000 0.000000
# 5 0.000000 0.000000 0.000000 0.000000 0.097992 0.000000
# 6 0.000000 0.000000 0.000000 0.000000 0.000000 0.032976
#
#
# Mechanical properties :
#
#
# Convention : Reuss Voigt Hill
#
# Bulk Modulus (GPa) = 12.34872 63.03027 37.68950
# Shear Modulus (GPa) = 13.82712 28.66280 21.24496
#
# Velocity S-wave (km/s) = 2.61157 3.76007 3.23716
# Velocity P-wave (km/s) = 3.89677 7.06688 5.70639
#
# Compressibility (1/GPa) = 0.08098007
#
# Stress axis : x y z
#
# Youngs Moduli (GPa) = 9.54348 148.20241 88.65913
#
# Poissons Ratio (x) = 0.27458 1.40219
# Poissons Ratio (y) = 0.01768 0.28786
# Poissons Ratio (z) = 0.15094 0.48119
#
# Static dielectric constant tensor:
#      x y z
#    x 1.769290 0.000000 0.000000 
#    y 0.000000 1.803950 0.000000 
#    z 0.000000 0.000000 1.785450 
# 
# From -- ./inp_files/29567.got.cif
#   From: 2010.05.17/outbox.ucp.g08.bks.cvg/sg22_15_cif.got.tgz:29567.got - 2010.06.11 15:16:44.
