data_PCOD9329387
_publ_section_title
;
Structure prediction by ZEFSAII (Michael W. Deem and Ramdas Pophale) SiO2 
 PCOD9329387
Probable space group: I 2 2 2
;
_chemical_formula_sum "Si O2"
_cell_formula_units_Z 38
_cell_length_a 8.407441
_cell_length_b 17.173381
_cell_length_c 13.515330
_cell_angle_alpha 90.000000
_cell_angle_beta 90.000000
_cell_angle_gamma 90.000000
_cell_volume 1951.399941
_symmetry_space_group_name_H-M "I 2 2 2"
_symmetry_group_IT_number 23
_symmetry_cell_setting 'orthorhombic'
loop_
_space_group_symop_operation_xyz
x,y,z
-x,-y,z
x,-y,-z
-x,y,-z
1/2+x,1/2+y,1/2+z
1/2-x,1/2-y,1/2+z
1/2+x,1/2-y,1/2-z
1/2-x,1/2+y,1/2-z
loop_
_atom_site_type_symbol
_atom_site_label
_atom_site_fract_x
_atom_site_fract_y
_atom_site_fract_z
Si Si1 0.254178 0.615998 0.574996
Si Si2 0.500000 0.000000 0.000000
Si Si3 0.193955 0.756098 0.899682
Si Si4 0.165293 0.149652 0.455873
Si Si5 0.500000 0.500000 0.500000
Si Si6 0.000000 0.000000 0.500000
Si Si7 0.655396 0.749697 0.300668
O O1 0.720817 0.676679 0.517328
O O2 0.398239 0.556136 0.568470
O O3 0.260049 0.668148 0.671919
O O4 0.105044 0.559673 0.563284
O O5 0.212959 0.674441 0.957796
O O6 0.327162 0.763728 0.815113
O O7 0.021297 0.757493 0.846993
O O8 0.239925 0.186105 0.358286
O O9 0.000000 0.186017 0.500000
O O10 0.114524 0.060142 0.442800
#
# Coordination Sequence:
#
# PCOD9329387 Si02
#       7
#     8   2   8   8   2   2   8
#     4  10  21  39  59  86 116 155 190 238 294 343
#     4  10  24  32  64  82 124 150 184 234 300 348
#     4  11  22  37  62  88 115 154 201 241 282 343
#     4   9  19  39  62  83 114 153 193 237 293 342
#     4  10  16  42  58  82 116 158 184 238 302 354
#     4   8  20  38  64  84 112 164 182 236 310 338
#     4  11  22  37  62  88 115 154 201 241 282 343
#
# _framework density 19.473198
#
# number of rings (size 3 to 8) (size 9 to 14) (size 15 to 20)
#    0.632    1.263    2.105    3.158    8.842    0.000 
#    0.000    8.421    0.000    0.000    0.000    0.000 
#    0.000    0.000    0.000    0.000    0.000    0.000 
#
# Total GULP energy -105787.358642 kJ/mol
# GULP energy per Si atom -5567.755718 kJ/mol
# Density = 1.942888 g / cm^3
# Si number density = 19.473198 Si / 1000 Ang^3
#
#
#
# Elastic Constant Matrix: (Units=GPa)
#
#
# Indices 1 2 3 4 5 6 
#
# 1 68.7594 27.9562 2.1857 0.0000 0.0000 0.0000
# 2 27.9562 115.0311 16.8612 0.0000 0.0000 0.0000
# 3 2.1857 16.8612 76.4888 0.0000 0.0000 0.0000
# 4 0.0000 0.0000 0.0000 -1.5883 0.0000 0.0000
# 5 0.0000 0.0000 0.0000 0.0000 -28.8509 0.0000
# 6 0.0000 0.0000 0.0000 0.0000 0.0000 82.6654
#
#
#
# Elastic Compliance Matrix: (Units=1/GPa)
#
#
# Indices 1 2 3 4 5 6 
#
# 1 0.016151 -0.003986 0.000417 0.000000 0.000000 0.000000
# 2 -0.003986 0.009967 -0.002083 0.000000 0.000000 0.000000
# 3 0.000417 -0.002083 0.013521 0.000000 0.000000 0.000000
# 4 0.000000 0.000000 0.000000 -0.629618 0.000000 0.000000
# 5 0.000000 0.000000 0.000000 0.000000 -0.034661 0.000000
# 6 0.000000 0.000000 0.000000 0.000000 0.000000 0.012097
#
#
# Mechanical properties :
#
#
# Convention : Reuss Voigt Hill
#
# Bulk Modulus (GPa) = 35.29238 39.36503 37.32870
# Shear Modulus (GPa) = -8.44891 24.66365 8.10737
#
# Velocity S-wave (km/s) = -2.08522 3.56271 2.04264
# Velocity P-wave (km/s) = 3.51644 6.09777 4.97736
#
# Compressibility (1/GPa) = 0.02833473
#
# Stress axis : x y z
#
# Youngs Moduli (GPa) = 61.91572 100.32616 73.95825
#
# Poissons Ratio (x) = 0.39994 -0.03086
# Poissons Ratio (y) = 0.24682 0.15408
# Poissons Ratio (z) = -0.02583 0.20901
#
# Static dielectric constant tensor:
#      x y z
#    x 1.787430 0.000000 0.000000 
#    y 0.000000 1.695740 0.000000 
#    z 0.000000 0.000000 1.642070 
# 
# From -- ./inp_files/19922.got.cif
#   From: 2010.05.17/outbox.cif.g08.bks.cpg/sg23_10_cif.got.tgz:19922.got - 2010.06.04 12:02:01.
