data_PCOD9329689
_publ_section_title
;
Structure prediction by ZEFSAII (Michael W. Deem and Ramdas Pophale) SiO2 
 PCOD9329689
Probable space group: I 2 2 2
;
_chemical_formula_sum "Si O2"
_cell_formula_units_Z 56
_cell_length_a 11.525763
_cell_length_b 16.142264
_cell_length_c 15.908307
_cell_angle_alpha 90.000000
_cell_angle_beta 90.000000
_cell_angle_gamma 90.000000
_cell_volume 2959.770889
_symmetry_space_group_name_H-M "I 2 2 2"
_symmetry_group_IT_number 23
_symmetry_cell_setting 'orthorhombic'
loop_
_space_group_symop_operation_xyz
x,y,z
-x,-y,z
x,-y,-z
-x,y,-z
1/2+x,1/2+y,1/2+z
1/2-x,1/2-y,1/2+z
1/2+x,1/2-y,1/2-z
1/2-x,1/2+y,1/2-z
loop_
_atom_site_type_symbol
_atom_site_label
_atom_site_fract_x
_atom_site_fract_y
_atom_site_fract_z
Si Si1 0.832033 0.331806 0.626295
Si Si2 0.557949 0.909078 0.193967
Si Si3 0.589936 0.383069 0.326728
Si Si4 0.140088 0.003494 0.402739
Si Si5 0.741216 0.911441 0.041955
Si Si6 0.249656 0.661076 0.188297
Si Si7 0.152672 0.070544 0.768354
O O1 0.818761 0.357207 0.529612
O O2 0.765157 0.245535 0.638401
O O3 0.763020 0.397019 0.683729
O O4 0.963134 0.343687 0.658974
O O5 0.652373 0.920347 0.119520
O O6 0.627823 0.871622 0.273898
O O7 0.500000 0.000000 0.209690
O O8 0.637453 0.376874 0.421048
O O9 0.668391 0.324660 0.269612
O O10 0.623819 0.477034 0.298009
O O11 0.456705 0.375899 0.300694
O O12 0.171261 0.934356 0.332119
O O13 0.176761 0.000000 0.500000
O O14 0.191771 0.088092 0.365657
O O15 0.000000 0.000000 0.401305
O O16 0.764245 0.000000 0.000000
#
# Coordination Sequence:
#
# PCOD9329689 Si02
#       7
#     8   8   8   8   8   8   8
#     4  12  24  36  60  94 130 161 205 268 322 382
#     4  11  22  41  67  88 126 177 215 259 322 406
#     4   9  18  37  59  83 121 158 204 237 310 381
#     4  10  19  38  64  86 113 155 212 261 302 375
#     4  11  20  37  61  95 128 163 209 261 313 391
#     4  10  23  40  58  93 124 157 207 263 325 371
#     4  10  18  36  62  85 119 159 197 248 303 385
#
# _framework density 18.920383000000001
#
# number of rings (size 3 to 8) (size 9 to 14) (size 15 to 20)
#    0.000    1.571    5.714    2.143    2.000    0.571 
#   10.286    0.000    0.000    3.857    0.000    0.000 
#    0.000    0.000    0.000    0.000    0.000    0.000 
#
# Total GULP energy -155990.645598 kJ/mol
# GULP energy per Si atom -5571.094486 kJ/mol
# Density = 1.887732 g / cm^3
# Si number density = 18.920383 Si / 1000 Ang^3
#
#
#
# Elastic Constant Matrix: (Units=GPa)
#
#
# Indices 1 2 3 4 5 6 
#
# 1 75.8114 19.6199 49.2706 0.0000 0.0000 0.0000
# 2 19.6199 58.0152 36.2800 0.0000 0.0000 0.0000
# 3 49.2706 36.2800 96.4284 0.0000 0.0000 0.0000
# 4 0.0000 0.0000 0.0000 20.8260 0.0000 0.0000
# 5 0.0000 0.0000 0.0000 0.0000 19.7282 0.0000
# 6 0.0000 0.0000 0.0000 0.0000 0.0000 18.0524
#
#
#
# Elastic Compliance Matrix: (Units=1/GPa)
#
#
# Indices 1 2 3 4 5 6 
#
# 1 0.019759 -0.000482 -0.009915 0.000000 0.000000 0.000000
# 2 -0.000482 0.022552 -0.008239 0.000000 0.000000 0.000000
# 3 -0.009915 -0.008239 0.018536 0.000000 0.000000 0.000000
# 4 0.000000 0.000000 0.000000 0.048017 0.000000 0.000000
# 5 0.000000 0.000000 0.000000 0.000000 0.050689 0.000000
# 6 0.000000 0.000000 0.000000 0.000000 0.000000 0.055394
#
#
# Mechanical properties :
#
#
# Convention : Reuss Voigt Hill
#
# Bulk Modulus (GPa) = 42.41530 48.95512 45.68521
# Shear Modulus (GPa) = 19.22514 20.06029 19.64272
#
# Velocity S-wave (km/s) = 3.19110 3.25968 3.22557
# Velocity P-wave (km/s) = 6.00366 6.33228 6.17016
#
# Compressibility (1/GPa) = 0.02357640
#
# Stress axis : x y z
#
# Youngs Moduli (GPa) = 50.60998 44.34215 53.94926
#
# Poissons Ratio (x) = 0.02138 0.53488
# Poissons Ratio (y) = 0.02440 0.44446
# Poissons Ratio (z) = 0.50178 0.36532
#
# Static dielectric constant tensor:
#      x y z
#    x 1.706970 0.000000 0.000000 
#    y 0.000000 1.685960 0.000000 
#    z 0.000000 0.000000 1.687350 
# 
# From -- ./inp_files/20918.got.cif
#   From: 2010.05.17/outbox.cif.g08.bks.cpg/sg23_11_cif.got.tgz:20918.got - 2010.06.04 12:02:01.
