data_PCOD9329532
_publ_section_title
;
Structure prediction by ZEFSAII (Michael W. Deem and Ramdas Pophale) SiO2 
 PCOD9329532
Probable space group: I 2 2 2
;
_chemical_formula_sum "Si O2"
_cell_formula_units_Z 48
_cell_length_a 8.344144
_cell_length_b 21.980717
_cell_length_c 12.274916
_cell_angle_alpha 90.000000
_cell_angle_beta 90.000000
_cell_angle_gamma 90.000000
_cell_volume 2251.345632
_symmetry_space_group_name_H-M "I 2 2 2"
_symmetry_group_IT_number 23
_symmetry_cell_setting 'orthorhombic'
loop_
_space_group_symop_operation_xyz
x,y,z
-x,-y,z
x,-y,-z
-x,y,-z
1/2+x,1/2+y,1/2+z
1/2-x,1/2-y,1/2+z
1/2+x,1/2-y,1/2-z
1/2-x,1/2+y,1/2-z
loop_
_atom_site_type_symbol
_atom_site_label
_atom_site_fract_x
_atom_site_fract_y
_atom_site_fract_z
Si Si1 0.941991 0.172872 0.886706
Si Si2 0.984364 0.302541 0.162035
Si Si3 0.082587 0.271327 0.611962
Si Si4 0.326318 0.386725 0.824940
Si Si5 0.813099 0.510641 0.130822
Si Si6 0.703063 0.639084 0.076315
O O1 0.759237 0.198835 0.890189
O O2 0.937068 0.133471 0.776150
O O3 0.049982 0.234166 0.877543
O O4 0.000000 0.143034 0.000000
O O5 0.031276 0.291149 0.288354
O O6 0.833308 0.345535 0.177330
O O7 0.116090 0.333852 0.086475
O O8 0.107738 0.198452 0.616892
O O9 0.000000 0.286849 0.500000
O O10 0.286219 0.457474 0.813111
O O11 0.355874 0.377950 0.954777
O O12 0.728068 0.576249 0.142621
O O13 0.000000 0.500000 0.163851
O O14 0.813481 0.500000 0.000000
#
# Coordination Sequence:
#
# PCOD9329532 Si02
#       6
#     8   8   8   8   8   8
#     4  10  21  34  54  84 120 159 198 239 294 360
#     4  10  18  30  51  81 114 155 190 239 294 352
#     4  10  21  35  53  84 122 156 196 241 296 360
#     4  10  18  31  53  84 120 150 192 240 301 357
#     4   9  16  28  52  84 117 150 188 240 302 361
#     4  10  18  31  53  83 120 151 188 244 302 355
#
# _framework density 21.32058
#
# number of rings (size 3 to 8) (size 9 to 14) (size 15 to 20)
#    0.000    2.167    1.667    3.500    0.000    2.667 
#    0.000    0.000    0.000   11.500    0.000   28.000 
#    0.000    0.000    0.000    0.000    0.000    0.000 
#
# Total GULP energy -133694.344367 kJ/mol
# GULP energy per Si atom -5570.597682 kJ/mol
# Density = 2.127205 g / cm^3
# Si number density = 21.320580 Si / 1000 Ang^3
#
#
#
# Elastic Constant Matrix: (Units=GPa)
#
#
# Indices 1 2 3 4 5 6 
#
# 1 34.7563 32.9618 36.5124 0.0000 0.0000 0.0000
# 2 32.9618 115.9551 39.9200 0.0000 0.0000 0.0000
# 3 36.5124 39.9200 120.3672 0.0001 0.0000 0.0000
# 4 0.0000 0.0000 0.0001 21.4511 0.0000 0.0000
# 5 0.0000 0.0000 0.0000 0.0000 34.1281 0.0000
# 6 0.0000 0.0000 0.0000 0.0000 0.0000 7.4882
#
#
#
# Elastic Compliance Matrix: (Units=1/GPa)
#
#
# Indices 1 2 3 4 5 6 
#
# 1 0.051421 -0.010439 -0.012136 0.000000 0.000000 0.000000
# 2 -0.010439 0.011855 -0.000765 0.000000 0.000000 0.000000
# 3 -0.012136 -0.000765 0.012243 0.000000 0.000000 0.000000
# 4 0.000000 0.000000 0.000000 0.046618 0.000000 0.000000
# 5 0.000000 0.000000 0.000000 0.000000 0.029301 0.000000
# 6 0.000000 0.000000 0.000000 0.000000 0.000000 0.133544
#
#
# Mechanical properties :
#
#
# Convention : Reuss Voigt Hill
#
# Bulk Modulus (GPa) = 34.67573 54.42966 44.55269
# Shear Modulus (GPa) = 14.65095 23.39244 19.02169
#
# Velocity S-wave (km/s) = 2.62424 3.31596 2.99017
# Velocity P-wave (km/s) = 5.04792 6.34392 5.73266
#
# Compressibility (1/GPa) = 0.02883861
#
# Stress axis : x y z
#
# Youngs Moduli (GPa) = 19.44732 84.35362 81.67921
#
# Poissons Ratio (x) = 0.88057 0.99126
# Poissons Ratio (y) = 0.20301 0.06249
# Poissons Ratio (z) = 0.23601 0.06454
#
# Static dielectric constant tensor:
#      x y z
#    x 1.921160 0.000000 0.000000 
#    y 0.000000 1.772680 0.000000 
#    z 0.000000 0.000000 1.841560 
# 
# From -- ./inp_files/14763.got.cif
#   From: 2010.05.17/outbox.cif.g08.bks.cpg/sg23_8_cif.got.tgz:14763.got - 2010.06.04 12:02:01.
