data_PCOD9329737
_publ_section_title
;
Structure prediction by ZEFSAII (Michael W. Deem and Ramdas Pophale) SiO2 
 PCOD9329737
Probable space group: I 2 2 2
;
_chemical_formula_sum "Si O2"
_cell_formula_units_Z 32
_cell_length_a 15.949561
_cell_length_b 7.322122
_cell_length_c 12.791388
_cell_angle_alpha 90.000000
_cell_angle_beta 90.000000
_cell_angle_gamma 90.000000
_cell_volume 1493.837534
_symmetry_space_group_name_H-M "I 2 2 2"
_symmetry_group_IT_number 23
_symmetry_cell_setting 'orthorhombic'
loop_
_space_group_symop_operation_xyz
x,y,z
-x,-y,z
x,-y,-z
-x,y,-z
1/2+x,1/2+y,1/2+z
1/2-x,1/2-y,1/2+z
1/2+x,1/2-y,1/2-z
1/2-x,1/2+y,1/2-z
loop_
_atom_site_type_symbol
_atom_site_label
_atom_site_fract_x
_atom_site_fract_y
_atom_site_fract_z
Si Si1 0.214482 0.000000 0.500000
Si Si2 0.569080 0.783085 0.187921
Si Si3 0.000000 0.500000 0.000000
Si Si4 0.500000 0.000000 0.000000
Si Si5 0.880764 0.125207 0.679880
Si Si6 0.360971 0.904392 0.342873
O O1 0.155254 0.141820 0.437250
O O2 0.279284 0.058829 0.589117
O O3 0.559657 0.886444 0.077966
O O4 0.472829 0.712113 0.197915
O O5 0.617194 0.592295 0.193887
O O6 0.393564 0.074256 0.271441
O O7 0.938160 0.381428 0.925683
O O8 0.834293 0.237027 0.768776
#
# Coordination Sequence:
#
# PCOD9329737 Si02
#       6
#     4   8   2   2   8   8
#     4  11  28  42  72 103 150 182 234 303 382 420
#     4  11  23  41  74  99 136 185 247 288 351 432
#     4  10  18  44  74  96 124 196 238 278 354 426
#     4  12  18  38  68 110 130 172 226 320 332 398
#     4  11  23  46  68 105 137 186 239 297 349 447
#     4  11  23  47  68  99 146 186 235 300 359 438
#
# _framework density 21.421337999999999
#
# number of rings (size 3 to 8) (size 9 to 14) (size 15 to 20)
#    0.000    1.000    5.000    1.500    3.500    2.000 
#    0.000    8.750    0.000    0.000    0.000    0.000 
#    0.000    0.000    0.000    0.000    0.000    0.000 
#
# Total GULP energy -89118.981923 kJ/mol
# GULP energy per Si atom -5569.936370 kJ/mol
# Density = 2.137258 g / cm^3
# Si number density = 21.421338 Si / 1000 Ang^3
#
#
#
# Elastic Constant Matrix: (Units=GPa)
#
#
# Indices 1 2 3 4 5 6 
#
# 1 89.7067 29.3095 57.6412 0.0000 0.0000 0.0000
# 2 29.3095 151.1164 93.6236 0.0000 0.0000 0.0000
# 3 57.6412 93.6236 179.0937 0.0000 0.0000 0.0000
# 4 0.0000 0.0000 0.0000 48.9684 0.0000 0.0000
# 5 0.0000 0.0000 0.0000 0.0000 -380.8945 0.0000
# 6 0.0000 0.0000 0.0000 0.0000 0.0000 3.8821
#
#
#
# Elastic Compliance Matrix: (Units=1/GPa)
#
#
# Indices 1 2 3 4 5 6 
#
# 1 0.014055 0.000113 -0.004583 0.000000 0.000000 0.000000
# 2 0.000113 0.009788 -0.005153 0.000000 0.000000 0.000000
# 3 -0.004583 -0.005153 0.009753 0.000000 0.000000 0.000000
# 4 0.000000 0.000000 0.000000 0.020421 0.000000 0.000000
# 5 0.000000 0.000000 0.000000 0.000000 -0.002625 0.000000
# 6 0.000000 0.000000 0.000000 0.000000 0.000000 0.257593
#
#
# Mechanical properties :
#
#
# Convention : Reuss Voigt Hill
#
# Bulk Modulus (GPa) = 69.68606 86.78504 78.23555
# Shear Modulus (GPa) = 15.01437 -49.65264 -17.31914
#
# Velocity S-wave (km/s) = 2.65034 -4.81969 -2.84650
# Velocity P-wave (km/s) = 6.47823 3.10303 5.07919
#
# Compressibility (1/GPa) = 0.01435007
#
# Stress axis : x y z
#
# Youngs Moduli (GPa) = 71.14834 102.16392 102.53639
#
# Poissons Ratio (x) = -0.01157 0.46991
# Poissons Ratio (y) = -0.00806 0.52841
# Poissons Ratio (z) = 0.32606 0.52649
#
# Static dielectric constant tensor:
#      x y z
#    x 2.005560 0.000000 0.000000 
#    y 0.000000 2.321680 0.000000 
#    z 0.000000 0.000000 1.870030 
# 
# From -- ./inp_files/17230.got.cif
#   From: 2010.05.17/outbox.cif.g08.bks.cpg/sg23_9_cif.got.tgz:17230.got - 2010.06.04 12:02:01.
