data_PCOD9329563
_publ_section_title
;
Structure prediction by ZEFSAII (Michael W. Deem and Ramdas Pophale) SiO2 
 PCOD9329563
Probable space group: I 2 2 2
;
_chemical_formula_sum "Si O2"
_cell_formula_units_Z 64
_cell_length_a 12.878790
_cell_length_b 15.170651
_cell_length_c 18.864791
_cell_angle_alpha 90.000000
_cell_angle_beta 90.000000
_cell_angle_gamma 90.000000
_cell_volume 3685.795855
_symmetry_space_group_name_H-M "I 2 2 2"
_symmetry_group_IT_number 23
_symmetry_cell_setting 'orthorhombic'
loop_
_space_group_symop_operation_xyz
x,y,z
-x,-y,z
x,-y,-z
-x,y,-z
1/2+x,1/2+y,1/2+z
1/2-x,1/2-y,1/2+z
1/2+x,1/2-y,1/2-z
1/2-x,1/2+y,1/2-z
loop_
_atom_site_type_symbol
_atom_site_label
_atom_site_fract_x
_atom_site_fract_y
_atom_site_fract_z
Si Si1 0.253810 0.015575 0.574275
Si Si2 0.437421 0.862840 0.930262
Si Si3 0.105938 0.831449 0.401469
Si Si4 0.117687 0.966417 0.782062
Si Si5 0.755266 0.006576 0.918530
Si Si6 0.871365 0.857875 0.354148
Si Si7 0.739226 0.887584 0.705296
Si Si8 0.857954 0.342526 0.651665
O O1 0.162528 0.912033 0.440872
O O2 0.199374 0.928868 0.605715
O O3 0.309073 0.000000 0.500000
O O4 0.313955 0.062283 0.639022
O O5 0.400327 0.761803 0.940361
O O6 0.342764 0.927487 0.917151
O O7 0.522460 0.861535 0.867860
O O8 0.500000 0.890650 0.000000
O O9 0.180153 0.820424 0.332138
O O10 0.990793 0.861452 0.380186
O O11 0.161824 0.958442 0.861346
O O12 0.127624 0.883140 0.729395
O O13 0.187331 0.040871 0.743643
O O14 0.000000 0.000000 0.782961
O O15 0.712767 0.911895 0.891204
O O16 0.791550 0.000000 0.000000
O O17 0.835241 0.758445 0.367789
O O18 0.664431 0.852239 0.765112
#
# Coordination Sequence:
#
# PCOD9329563 Si02
#       8
#     8   8   8   8   8   8   8   8
#     4   9  18  28  49  75 113 134 165 215 270 334
#     4  11  22  35  54  77 107 147 184 222 278 323
#     4   9  19  29  49  77 110 133 177 210 266 327
#     4  10  18  35  56  74 107 141 173 221 274 324
#     4  11  23  37  53  78 106 144 181 231 265 320
#     4  10  18  32  50  78 102 146 172 214 277 322
#     4   8  18  33  46  75 110 135 173 214 259 320
#     4  10  21  33  54  69 108 146 176 223 264 320
#
# _framework density 17.363956000000002
#
# number of rings (size 3 to 8) (size 9 to 14) (size 15 to 20)
#    0.750    1.500    2.500    0.750    5.250    0.750 
#    0.000    0.000    0.000    0.000    0.000    0.000 
#    0.000   18.000    0.000    0.000    0.000    0.625 
#
# Total GULP energy -178164.538115 kJ/mol
# GULP energy per Si atom -5567.641816 kJ/mol
# Density = 1.732443 g / cm^3
# Si number density = 17.363956 Si / 1000 Ang^3
#
#
#
# Elastic Constant Matrix: (Units=GPa)
#
#
# Indices 1 2 3 4 5 6 
#
# 1 14.6579 3.9164 8.9746 0.0000 0.0000 0.0000
# 2 3.9164 70.8074 10.7094 0.0000 0.0000 0.0000
# 3 8.9746 10.7094 93.1668 0.0000 0.0000 0.0000
# 4 0.0000 0.0000 0.0000 13.5991 0.0000 0.0000
# 5 0.0000 0.0000 0.0000 0.0000 22.0555 0.0000
# 6 0.0000 0.0000 0.0000 0.0000 0.0000 10.6724
#
#
#
# Elastic Compliance Matrix: (Units=1/GPa)
#
#
# Indices 1 2 3 4 5 6 
#
# 1 0.073133 -0.003032 -0.006696 0.000000 0.000000 0.000000
# 2 -0.003032 0.014498 -0.001374 0.000000 0.000000 0.000000
# 3 -0.006696 -0.001374 0.011536 0.000000 0.000000 0.000000
# 4 0.000000 0.000000 0.000000 0.073534 0.000000 0.000000
# 5 0.000000 0.000000 0.000000 0.000000 0.045340 0.000000
# 6 0.000000 0.000000 0.000000 0.000000 0.000000 0.093699
#
#
# Mechanical properties :
#
#
# Convention : Reuss Voigt Hill
#
# Bulk Modulus (GPa) = 12.99346 25.09254 19.04300
# Shear Modulus (GPa) = 13.90429 19.60085 16.75257
#
# Velocity S-wave (km/s) = 2.83283 3.36344 3.10948
# Velocity P-wave (km/s) = 4.26605 5.43746 4.88698
#
# Compressibility (1/GPa) = 0.07696178
#
# Stress axis : x y z
#
# Youngs Moduli (GPa) = 13.67375 68.97301 86.68170
#
# Poissons Ratio (x) = 0.20915 0.58044
# Poissons Ratio (y) = 0.04146 0.11914
# Poissons Ratio (z) = 0.09156 0.09480
#
# Static dielectric constant tensor:
#      x y z
#    x 1.557490 0.000000 0.000000 
#    y 0.000000 1.598070 0.000000 
#    z 0.000000 0.000000 1.637260 
# 
# From -- ./inp_files/24424.got.cif
#   From: 2010.05.17/outbox.cif.g08.bks.cpg/sg23_13_cif.got.tgz:24424.got - 2010.06.04 12:02:01.
