data_PCOD9329278
_publ_section_title
;
Structure prediction by ZEFSAII (Michael W. Deem and Ramdas Pophale) SiO2 
 PCOD9329278
Probable space group: F 2 2 2
;
_chemical_formula_sum "Si O2"
_cell_formula_units_Z 128
_cell_length_a 26.389683
_cell_length_b 7.403727
_cell_length_c 26.374492
_cell_angle_alpha 90.000000
_cell_angle_beta 90.000000
_cell_angle_gamma 90.000000
_cell_volume 5153.101221
_symmetry_space_group_name_H-M "F 2 2 2"
_symmetry_group_IT_number 22
_symmetry_cell_setting 'orthorhombic'
loop_
_space_group_symop_operation_xyz
x,y,z
-x,-y,z
x,-y,-z
-x,y,-z
x,1/2+y,1/2+z
-x,1/2-y,1/2+z
x,1/2-y,1/2-z
-x,1/2+y,1/2-z
1/2+x,y,1/2+z
1/2-x,-y,1/2+z
1/2+x,-y,1/2-z
1/2-x,y,1/2-z
1/2+x,1/2+y,z
1/2-x,1/2-y,z
1/2+x,1/2-y,-z
1/2-x,1/2+y,-z
loop_
_atom_site_type_symbol
_atom_site_label
_atom_site_fract_x
_atom_site_fract_y
_atom_site_fract_z
Si Si1 0.164632 0.784761 0.694916
Si Si2 0.084675 0.779847 0.445498
Si Si3 0.084675 0.720153 0.945498
Si Si4 0.694878 0.784817 0.086126
Si Si5 0.835368 0.715239 0.805084
Si Si6 0.945663 0.720047 0.833428
Si Si7 0.305122 0.784817 0.086126
Si Si8 0.054337 0.779952 0.666572
O O1 0.187035 0.750000 0.750000
O O2 0.192157 0.715372 0.644403
O O3 0.106269 0.717204 0.692489
O O4 0.162663 1.000000 0.689649
O O5 0.064216 0.720322 0.500000
O O6 0.058873 0.727153 0.392812
O O7 0.143650 0.722170 0.440838
O O8 0.082820 1.000000 0.445542
O O9 0.143649 0.777830 0.940838
O O10 0.058873 0.772847 0.892812
O O11 0.750000 0.750000 0.063827
O O12 0.689926 1.000000 0.087222
O O13 0.812965 0.750000 0.750000
O O14 0.893731 0.782795 0.807510
O O15 0.807843 0.784628 0.855597
O O16 0.945307 0.500000 0.831527
O O17 1.000000 0.781770 0.813058
O O18 0.250000 0.750000 0.063827
#
# Coordination Sequence:
#
# PCOD9329278 Si02
#       8
#    16  16  16  16  16  16  16  16
#     4   9  18  31  45  63  88 115 143 178 217 254
#     4   8  14  25  41  62  88 115 142 174 212 253
#     4   8  14  25  41  62  88 115 142 174 212 253
#     4   9  18  31  45  63  88 115 143 178 217 254
#     4   9  18  31  45  63  88 115 143 178 217 254
#     4   8  14  25  41  62  88 115 142 174 212 253
#     4   9  18  31  45  63  88 115 143 178 217 254
#     4   8  14  25  41  62  88 115 142 174 212 253
#
# _framework density 24.839411999999999
#
# number of rings (size 3 to 8) (size 9 to 14) (size 15 to 20)
#    0.000    3.500    0.000    3.000    0.000    3.000 
#    0.000    5.000    0.000    0.000    0.000    0.000 
#    0.000    0.000    0.000   11.000    0.000   11.000 
#
# Total GULP energy -178581.368171 kJ/mol
# GULP energy per Si atom -5580.667755 kJ/mol
# Density = 2.478288 g / cm^3
# Si number density = 24.839412 Si / 1000 Ang^3
#
#
#
# Elastic Constant Matrix: (Units=GPa)
#
#
# Indices 1 2 3 4 5 6 
#
# 1 115.4956 -5.3993 -6.0916 -0.0001 0.0001 0.0005
# 2 -5.3993 80.7657 -6.5094 -0.0004 0.0002 0.0007
# 3 -6.0916 -6.5094 113.8592 0.0000 0.0000 0.0001
# 4 -0.0001 -0.0004 0.0000 -2.0829 0.0000 0.0001
# 5 0.0001 0.0002 0.0000 0.0000 -12.9238 -0.0001
# 6 0.0005 0.0007 0.0001 0.0001 -0.0001 -11.7343
#
#
#
# Elastic Compliance Matrix: (Units=1/GPa)
#
#
# Indices 1 2 3 4 5 6 
#
# 1 0.008714 0.000623 0.000502 -0.000001 0.000000 0.000000
# 2 0.000623 0.012483 0.000747 -0.000002 0.000000 0.000001
# 3 0.000502 0.000747 0.008852 0.000000 0.000000 0.000000
# 4 -0.000001 -0.000002 0.000000 -0.480089 -0.000001 -0.000004
# 5 0.000000 0.000000 0.000000 -0.000001 -0.077377 0.000001
# 6 0.000000 0.000001 0.000000 -0.000004 0.000001 -0.085220
#
#
# Mechanical properties :
#
#
# Convention : Reuss Voigt Hill
#
# Bulk Modulus (GPa) = 29.59173 30.45778 30.02476
# Shear Modulus (GPa) = -8.26288 16.52652 4.13182
#
# Velocity S-wave (km/s) = -1.82585 2.58221 1.29113
# Velocity P-wave (km/s) = 2.73753 4.60205 3.78636
#
# Compressibility (1/GPa) = 0.03379322
#
# Stress axis : x y z
#
# Youngs Moduli (GPa) = 114.75883 80.10677 112.96458
#
# Poissons Ratio (x) = -0.04990 -0.05669
# Poissons Ratio (y) = -0.07149 -0.08439
# Poissons Ratio (z) = -0.05759 -0.05984
#
# Static dielectric constant tensor:
#      x y z
#    x 1.955720 0.000000 0.000000 
#    y 0.000000 1.991410 0.000000 
#    z 0.000000 0.000000 1.960330 
# 
# From -- ./inp_files/54253.got.cif
#   From: 2010.05.17/outbox.cif.g08.bks.cpg/sg22_28_cif.got.tgz:54253.got - 2010.06.03 23:40:54.
