data_PCOD9329265
_publ_section_title
;
Structure prediction by ZEFSAII (Michael W. Deem and Ramdas Pophale) SiO2 
 PCOD9329265
Probable space group: F 2 2 2
;
_chemical_formula_sum "Si O2"
_cell_formula_units_Z 56
_cell_length_a 13.596427
_cell_length_b 17.077793
_cell_length_c 10.846281
_cell_angle_alpha 90.000000
_cell_angle_beta 90.000000
_cell_angle_gamma 90.000000
_cell_volume 2518.473539
_symmetry_space_group_name_H-M "F 2 2 2"
_symmetry_group_IT_number 22
_symmetry_cell_setting 'orthorhombic'
loop_
_space_group_symop_operation_xyz
x,y,z
-x,-y,z
x,-y,-z
-x,y,-z
x,1/2+y,1/2+z
-x,1/2-y,1/2+z
x,1/2-y,1/2-z
-x,1/2+y,1/2-z
1/2+x,y,1/2+z
1/2-x,-y,1/2+z
1/2+x,-y,1/2-z
1/2-x,y,1/2-z
1/2+x,1/2+y,z
1/2-x,1/2-y,z
1/2+x,1/2-y,-z
1/2-x,1/2+y,-z
loop_
_atom_site_type_symbol
_atom_site_label
_atom_site_fract_x
_atom_site_fract_y
_atom_site_fract_z
Si Si1 0.305625 0.911719 0.627815
Si Si2 0.865664 0.427706 0.258449
Si Si3 0.142894 0.500000 0.000000
Si Si4 0.017294 0.801487 0.869558
O O1 0.250000 0.884192 0.750000
O O2 0.215951 0.930212 0.539303
O O3 0.388480 0.852303 0.593188
O O4 0.358407 0.994490 0.657725
O O5 0.750000 0.402392 0.250000
O O6 0.902099 0.462142 0.124951
O O7 0.933150 0.361413 0.318792
O O8 0.039085 0.750000 0.750000
O O9 0.000000 0.757136 0.000000
#
# Coordination Sequence:
#
# PCOD9329265 Si02
#       4
#    16  16   8  16
#     4   9  19  38  63  88 116 153 197 248 306 360
#     4   9  19  37  64  93 118 151 199 254 304 355
#     4   8  16  36  68  94 114 146 200 258 302 350
#     4  12  26  41  59  87 126 168 205 244 298 361
#
# _framework density 22.235690999999999
#
# number of rings (size 3 to 8) (size 9 to 14) (size 15 to 20)
#    0.000    2.857    0.000    4.286    0.000    6.857 
#    0.000    8.571    0.000    0.000    0.000    0.000 
#    0.000    0.000    0.000    0.000    0.000    0.000 
#
# Total GULP energy -77976.332177 kJ/mol
# GULP energy per Si atom -5569.738013 kJ/mol
# Density = 2.218508 g / cm^3
# Si number density = 22.235691 Si / 1000 Ang^3
#
#
#
# Elastic Constant Matrix: (Units=GPa)
#
#
# Indices 1 2 3 4 5 6 
#
# 1 67.0235 7.3867 10.9989 0.0000 0.0000 0.0000
# 2 7.3867 22.2310 17.6502 0.0000 0.0000 0.0000
# 3 10.9989 17.6502 164.9024 0.0000 0.0000 0.0000
# 4 0.0000 0.0000 0.0000 7.1503 0.0000 0.0000
# 5 0.0000 0.0000 0.0000 0.0000 -21.1824 0.0000
# 6 0.0000 0.0000 0.0000 0.0000 0.0000 -9.3966
#
#
#
# Elastic Compliance Matrix: (Units=1/GPa)
#
#
# Indices 1 2 3 4 5 6 
#
# 1 0.015529 -0.004740 -0.000528 0.000000 0.000000 0.000000
# 2 -0.004740 0.050607 -0.005100 0.000000 0.000000 0.000000
# 3 -0.000528 -0.005100 0.006645 0.000000 0.000000 0.000000
# 4 0.000000 0.000000 0.000000 0.139854 0.000000 0.000000
# 5 0.000000 0.000000 0.000000 0.000000 -0.047209 0.000000
# 6 0.000000 0.000000 0.000000 0.000000 0.000000 -0.106421
#
#
# Mechanical properties :
#
#
# Convention : Reuss Voigt Hill
#
# Bulk Modulus (GPa) = 19.21491 36.24763 27.73127
# Shear Modulus (GPa) = 51.49772 9.85565 30.67668
#
# Velocity S-wave (km/s) = 4.81770 2.10760 3.71835
# Velocity P-wave (km/s) = 6.29342 4.71801 5.56178
#
# Compressibility (1/GPa) = 0.05204291
#
# Stress axis : x y z
#
# Youngs Moduli (GPa) = 64.39442 19.76017 150.48082
#
# Poissons Ratio (x) = 0.09367 0.07952
# Poissons Ratio (y) = 0.30526 0.76753
# Poissons Ratio (z) = 0.03403 0.10079
#
# Static dielectric constant tensor:
#      x y z
#    x 1.860970 0.000000 0.000000 
#    y 0.000000 1.811100 0.000000 
#    z 0.000000 0.000000 1.975800 
# 
# From -- ./inp_files/19047.got.cif
#   From: 2010.05.17/outbox.cif.g08.bks.cpg/sg22_10_cif.got.tgz:19047.got - 2010.06.03 23:40:54.
