data_PCOD9329431
_publ_section_title
;
Structure prediction by ZEFSAII (Michael W. Deem and Ramdas Pophale) SiO2 
 PCOD9329431
Probable space group: I 2 2 2
;
_chemical_formula_sum "Si O2"
_cell_formula_units_Z 56
_cell_length_a 18.387941
_cell_length_b 19.232038
_cell_length_c 8.620635
_cell_angle_alpha 90.000000
_cell_angle_beta 90.000000
_cell_angle_gamma 90.000000
_cell_volume 3048.580500
_symmetry_space_group_name_H-M "I 2 2 2"
_symmetry_group_IT_number 23
_symmetry_cell_setting 'orthorhombic'
loop_
_space_group_symop_operation_xyz
x,y,z
-x,-y,z
x,-y,-z
-x,y,-z
1/2+x,1/2+y,1/2+z
1/2-x,1/2-y,1/2+z
1/2+x,1/2-y,1/2-z
1/2-x,1/2+y,1/2-z
loop_
_atom_site_type_symbol
_atom_site_label
_atom_site_fract_x
_atom_site_fract_y
_atom_site_fract_z
Si Si1 0.791786 0.856697 0.726301
Si Si2 0.340489 0.792610 0.657589
Si Si3 0.315078 0.331425 0.863021
Si Si4 0.492065 0.783140 0.815738
Si Si5 0.361424 0.184675 0.707541
Si Si6 0.547720 0.633829 0.699891
Si Si7 0.089335 0.068747 0.895938
O O1 0.814998 0.786509 0.815192
O O2 0.810049 0.839565 0.547463
O O3 0.705398 0.866535 0.742347
O O4 0.839901 0.918028 0.795305
O O5 0.268187 0.838174 0.696119
O O6 0.411987 0.804633 0.760509
O O7 0.358889 0.801765 0.476521
O O8 0.340782 0.255375 0.801954
O O9 0.380812 0.379118 0.802718
O O10 0.556854 0.832779 0.756043
O O11 0.511036 0.707351 0.742944
O O12 0.500000 0.776966 0.000000
O O13 0.578093 0.629660 0.524664
O O14 0.482779 0.578191 0.707504
O O15 0.091414 0.000000 0.000000
#
# Coordination Sequence:
#
# PCOD9329431 Si02
#       7
#     8   8   8   8   8   8   8
#     4  10  18  33  49  67  98 129 173 223 262 304
#     4  10  17  30  47  73 103 136 166 200 255 335
#     4   9  19  29  49  74  96 130 170 212 268 319
#     4  11  20  28  47  76 106 138 169 200 255 321
#     4   9  19  28  45  73  99 133 169 201 259 331
#     4  10  20  33  48  66  94 131 172 214 264 296
#     4  11  23  36  52  66  91 137 190 223 257 304
#
# _framework density 18.369204
#
# number of rings (size 3 to 8) (size 9 to 14) (size 15 to 20)
#    0.000    2.000    1.429    4.714    4.000    3.429 
#    0.000    0.714    3.143    0.000    0.000    0.000 
#    0.000    6.286    0.000   12.857    0.000    0.571 
#
# Total GULP energy -155967.941303 kJ/mol
# GULP energy per Si atom -5570.283618 kJ/mol
# Density = 1.832739 g / cm^3
# Si number density = 18.369204 Si / 1000 Ang^3
#
#
#
# Elastic Constant Matrix: (Units=GPa)
#
#
# Indices 1 2 3 4 5 6 
#
# 1 164.6036 41.8279 41.5898 0.0000 0.0000 0.0000
# 2 41.8279 28.2709 23.3309 0.0000 0.0000 0.0000
# 3 41.5898 23.3309 63.8414 0.0000 0.0000 0.0000
# 4 0.0000 0.0000 0.0000 17.2073 0.0000 0.0000
# 5 0.0000 0.0000 0.0000 0.0000 36.5736 0.0000
# 6 0.0000 0.0000 0.0000 0.0000 0.0000 9.0265
#
#
#
# Elastic Compliance Matrix: (Units=1/GPa)
#
#
# Indices 1 2 3 4 5 6 
#
# 1 0.009843 -0.013275 -0.001561 0.000000 0.000000 0.000000
# 2 -0.013275 0.068550 -0.016404 0.000000 0.000000 0.000000
# 3 -0.001561 -0.016404 0.022675 0.000000 0.000000 0.000000
# 4 0.000000 0.000000 0.000000 0.058115 0.000000 0.000000
# 5 0.000000 0.000000 0.000000 0.000000 0.027342 0.000000
# 6 0.000000 0.000000 0.000000 0.000000 0.000000 0.110785
#
#
# Mechanical properties :
#
#
# Convention : Reuss Voigt Hill
#
# Bulk Modulus (GPa) = 25.91381 52.24590 39.07986
# Shear Modulus (GPa) = 13.41734 22.55929 17.98832
#
# Velocity S-wave (km/s) = 2.70557 3.50823 3.13272
# Velocity P-wave (km/s) = 4.88856 6.70180 5.86567
#
# Compressibility (1/GPa) = 0.03858946
#
# Stress axis : x y z
#
# Youngs Moduli (GPa) = 101.59618 14.58792 44.10062
#
# Poissons Ratio (x) = 0.19365 0.06884
# Poissons Ratio (y) = 1.34867 0.72341
# Poissons Ratio (z) = 0.15858 0.23930
#
# Static dielectric constant tensor:
#      x y z
#    x 1.720830 0.000000 0.000000 
#    y 0.000000 1.635170 0.000000 
#    z 0.000000 0.000000 1.650170 
# 
# From -- ./inp_files/11350.got.cif
#   From: 2010.05.17/outbox.cif.g08.bks.cpg/sg23_6_cif.got.tgz:11350.got - 2010.06.04 12:02:01.
