data_PCOD9329360
_publ_section_title
;
Structure prediction by ZEFSAII (Michael W. Deem and Ramdas Pophale) SiO2 
 PCOD9329360
Probable space group: I 2 2 2
;
_chemical_formula_sum "Si O2"
_cell_formula_units_Z 40
_cell_length_a 28.547978
_cell_length_b 5.208901
_cell_length_c 13.249854
_cell_angle_alpha 90.000000
_cell_angle_beta 90.000000
_cell_angle_gamma 90.000000
_cell_volume 1970.300872
_symmetry_space_group_name_H-M "I 2 2 2"
_symmetry_group_IT_number 23
_symmetry_cell_setting 'orthorhombic'
loop_
_space_group_symop_operation_xyz
x,y,z
-x,-y,z
x,-y,-z
-x,y,-z
1/2+x,1/2+y,1/2+z
1/2-x,1/2-y,1/2+z
1/2+x,1/2-y,1/2-z
1/2-x,1/2+y,1/2-z
loop_
_atom_site_type_symbol
_atom_site_label
_atom_site_fract_x
_atom_site_fract_y
_atom_site_fract_z
Si Si1 0.765361 0.006476 0.884410
Si Si2 0.446523 0.747386 0.455622
Si Si3 0.294820 0.487690 0.834787
Si Si4 0.031642 0.750118 0.721816
Si Si5 0.612247 0.736006 0.937302
O O1 0.726627 0.236574 0.869123
O O2 0.799488 0.030402 0.787280
O O3 0.741923 0.730526 0.866111
O O4 0.782844 0.000000 0.000000
O O5 0.422092 0.500000 0.500000
O O6 0.500000 0.748683 0.500000
O O7 0.450825 0.731520 0.336809
O O8 0.423538 0.000000 0.500000
O O9 0.341789 0.397427 0.889808
O O10 0.075472 0.708357 0.649999
O O11 0.000000 0.500000 0.714665
O O12 0.000000 0.000000 0.699288
O O13 0.590394 0.500000 0.000000
O O14 0.621411 0.000000 0.000000
#
# Coordination Sequence:
#
# PCOD9329360 Si02
#       5
#     8   8   8   8   8
#     4  10  19  35  64  92 120 152 193 239 284 352
#     4  10  16  32  58  83 103 135 181 238 282 358
#     4  10  21  37  60  90 118 158 196 231 292 360
#     4  12  23  38  61  86 114 153 208 253 292 355
#     4  12  26  42  59  83 121 159 202 250 300 354
#
# _framework density 20.301466999999999
#
# number of rings (size 3 to 8) (size 9 to 14) (size 15 to 20)
#    0.000    1.200    4.000    4.800    0.000    2.400 
#    0.000    1.000    0.000    4.800    0.000    0.000 
#    0.000    0.000    0.000    0.000    0.000    0.000 
#
# Total GULP energy -111576.401968 kJ/mol
# GULP energy per Si atom -5578.820098 kJ/mol
# Density = 2.025526 g / cm^3
# Si number density = 20.301467 Si / 1000 Ang^3
#
#
#
# Elastic Constant Matrix: (Units=GPa)
#
#
# Indices 1 2 3 4 5 6 
#
# 1 31.4118 7.1004 35.6699 0.0000 0.0000 0.0000
# 2 7.1004 138.3607 20.2464 0.0000 0.0000 0.0000
# 3 35.6699 20.2464 165.0582 0.0000 0.0000 0.0000
# 4 0.0000 0.0000 0.0000 55.1003 0.0000 0.0000
# 5 0.0000 0.0000 0.0000 0.0000 63.9669 0.0000
# 6 0.0000 0.0000 0.0000 0.0000 0.0000 15.2992
#
#
#
# Elastic Compliance Matrix: (Units=1/GPa)
#
#
# Indices 1 2 3 4 5 6 
#
# 1 0.042286 -0.000848 -0.009034 0.000000 0.000000 0.000000
# 2 -0.000848 0.007377 -0.000722 0.000000 0.000000 0.000000
# 3 -0.009034 -0.000722 0.008099 0.000000 0.000000 0.000000
# 4 0.000000 0.000000 0.000000 0.018149 0.000000 0.000000
# 5 0.000000 0.000000 0.000000 0.000000 0.015633 0.000000
# 6 0.000000 0.000000 0.000000 0.000000 0.000000 0.065363
#
#
# Mechanical properties :
#
#
# Convention : Reuss Voigt Hill
#
# Bulk Modulus (GPa) = 27.35676 51.20711 39.28193
# Shear Modulus (GPa) = 26.27455 44.99422 35.63439
#
# Velocity S-wave (km/s) = 3.60143 4.71287 4.19413
# Velocity P-wave (km/s) = 5.54962 7.40898 6.54566
#
# Compressibility (1/GPa) = 0.03655404
#
# Stress axis : x y z
#
# Youngs Moduli (GPa) = 23.64873 135.56393 123.46751
#
# Poissons Ratio (x) = 0.11496 1.11542
# Poissons Ratio (y) = 0.02005 0.08909
# Poissons Ratio (z) = 0.21365 0.09782
#
# Static dielectric constant tensor:
#      x y z
#    x 1.663280 0.000000 0.000000 
#    y 0.000000 1.733540 0.000000 
#    z 0.000000 0.000000 1.774220 
# 
# From -- ./inp_files/18494.got.cif
#   From: 2010.05.17/outbox.cif.g08.bks.cpg/sg23_10_cif.got.tgz:18494.got - 2010.06.04 12:02:01.
