data_PCOD9329374
_publ_section_title
;
Structure prediction by ZEFSAII (Michael W. Deem and Ramdas Pophale) SiO2 
 PCOD9329374
Probable space group: I 2 2 2
;
_chemical_formula_sum "Si O2"
_cell_formula_units_Z 36
_cell_length_a 9.532326
_cell_length_b 9.091083
_cell_length_c 21.149973
_cell_angle_alpha 90.000000
_cell_angle_beta 90.000000
_cell_angle_gamma 90.000000
_cell_volume 1832.839039
_symmetry_space_group_name_H-M "I 2 2 2"
_symmetry_group_IT_number 23
_symmetry_cell_setting 'orthorhombic'
loop_
_space_group_symop_operation_xyz
x,y,z
-x,-y,z
x,-y,-z
-x,y,-z
1/2+x,1/2+y,1/2+z
1/2-x,1/2-y,1/2+z
1/2+x,1/2-y,1/2-z
1/2-x,1/2+y,1/2-z
loop_
_atom_site_type_symbol
_atom_site_label
_atom_site_fract_x
_atom_site_fract_y
_atom_site_fract_z
Si Si1 0.720760 0.578919 0.797022
Si Si2 0.000000 0.500000 0.500000
Si Si3 0.927164 0.770326 0.722110
Si Si4 0.500000 0.500000 0.000000
Si Si5 0.839424 0.468450 0.924992
Si Si6 0.355832 0.759129 0.919237
O O1 0.861732 0.648155 0.767883
O O2 0.589681 0.680959 0.775414
O O3 0.669849 0.417864 0.773595
O O4 0.747881 0.559029 0.872805
O O5 0.101371 0.603064 0.459744
O O6 0.909484 0.716217 0.650620
O O7 0.425107 0.384523 0.047350
O O8 0.803579 0.296162 0.915642
O O9 0.000000 0.500000 0.910476
O O10 0.819599 0.500000 0.000000
#
# Coordination Sequence:
#
# PCOD9329374 Si02
#       6
#     8   2   8   2   8   8
#     4  10  23  40  63  96 129 169 219 274 331 402
#     4  10  24  34  60  96 140 158 210 296 348 382
#     4  10  23  40  62  93 129 172 218 269 335 393
#     4  10  16  34  66  86 120 166 228 286 296 402
#     4  10  21  39  68  94 123 176 234 276 316 392
#     4  10  20  37  60  96 124 167 221 269 337 393
#
# _framework density 19.641658
#
# number of rings (size 3 to 8) (size 9 to 14) (size 15 to 20)
#    0.000    2.000    1.111    2.667    9.333    1.778 
#    0.000    0.000    0.000    2.667    0.000    0.000 
#    0.000    0.000    0.000    0.000    0.000    0.000 
#
# Total GULP energy -100215.255287 kJ/mol
# GULP energy per Si atom -5567.514183 kJ/mol
# Density = 1.959695 g / cm^3
# Si number density = 19.641658 Si / 1000 Ang^3
#
#
#
# Elastic Constant Matrix: (Units=GPa)
#
#
# Indices 1 2 3 4 5 6 
#
# 1 87.0789 47.0822 34.4286 0.0000 0.0000 0.0000
# 2 47.0822 92.1008 41.7779 0.0000 0.0000 0.0000
# 3 34.4286 41.7779 107.2987 0.0000 0.0000 0.0000
# 4 0.0000 0.0000 0.0000 -125.8110 0.0000 0.0000
# 5 0.0000 0.0000 0.0000 0.0000 25.0024 0.0000
# 6 0.0000 0.0000 0.0000 0.0000 0.0000 30.9280
#
#
#
# Elastic Compliance Matrix: (Units=1/GPa)
#
#
# Indices 1 2 3 4 5 6 
#
# 1 0.016373 -0.007271 -0.002422 0.000000 0.000000 0.000000
# 2 -0.007271 0.016416 -0.004059 0.000000 0.000000 0.000000
# 3 -0.002422 -0.004059 0.011677 0.000000 0.000000 0.000000
# 4 0.000000 0.000000 0.000000 -0.007948 0.000000 0.000000
# 5 0.000000 0.000000 0.000000 0.000000 0.039996 0.000000
# 6 0.000000 0.000000 0.000000 0.000000 0.000000 0.032333
#
#
# Mechanical properties :
#
#
# Convention : Reuss Voigt Hill
#
# Bulk Modulus (GPa) = 58.95621 59.22842 59.09232
# Shear Modulus (GPa) = 35.21008 -3.09679 16.05665
#
# Velocity S-wave (km/s) = 4.23853 -1.25701 2.86226
# Velocity P-wave (km/s) = 7.35082 5.30219 6.40889
#
# Compressibility (1/GPa) = 0.01696174
#
# Stress axis : x y z
#
# Youngs Moduli (GPa) = 61.07638 60.91749 85.63604
#
# Poissons Ratio (x) = 0.44293 0.20745
# Poissons Ratio (y) = 0.44409 0.34756
# Poissons Ratio (z) = 0.14796 0.24724
#
# Static dielectric constant tensor:
#      x y z
#    x 1.855060 0.000000 0.000000 
#    y 0.000000 1.689720 0.000000 
#    z 0.000000 0.000000 1.684920 
# 
# From -- ./inp_files/26574.got.cif
#   From: 2010.05.17/outbox.cif.g08.bks.cpg/sg23_14_cif.got.tgz:26574.got - 2010.06.04 12:02:01.
