data_PCOD9329274
_publ_section_title
;
Structure prediction by ZEFSAII (Michael W. Deem and Ramdas Pophale) SiO2 
 PCOD9329274
Probable space group: F 2 2 2
;
_chemical_formula_sum "Si O2"
_cell_formula_units_Z 64
_cell_length_a 7.932022
_cell_length_b 19.443276
_cell_length_c 17.412483
_cell_angle_alpha 90.000000
_cell_angle_beta 90.000000
_cell_angle_gamma 90.000000
_cell_volume 2685.431362
_symmetry_space_group_name_H-M "F 2 2 2"
_symmetry_group_IT_number 22
_symmetry_cell_setting 'orthorhombic'
loop_
_space_group_symop_operation_xyz
x,y,z
-x,-y,z
x,-y,-z
-x,y,-z
x,1/2+y,1/2+z
-x,1/2-y,1/2+z
x,1/2-y,1/2-z
-x,1/2+y,1/2-z
1/2+x,y,1/2+z
1/2-x,-y,1/2+z
1/2+x,-y,1/2-z
1/2-x,y,1/2-z
1/2+x,1/2+y,z
1/2-x,1/2-y,z
1/2+x,1/2-y,-z
1/2-x,1/2+y,-z
loop_
_atom_site_type_symbol
_atom_site_label
_atom_site_fract_x
_atom_site_fract_y
_atom_site_fract_z
Si Si1 0.049898 0.253743 0.416816
Si Si2 0.268514 0.992202 0.341587
Si Si3 0.047820 0.607182 0.863746
Si Si4 0.427871 0.861996 0.295210
O O1 0.250000 0.250000 0.406386
O O2 0.999482 0.174011 0.411136
O O3 0.000000 0.281475 0.500000
O O4 0.967066 0.300206 0.351514
O O5 0.250000 0.004730 0.250000
O O6 0.418975 0.935423 0.341081
O O7 0.110199 0.944333 0.366727
O O8 0.218162 0.064390 0.381785
O O9 0.056431 0.632257 0.775244
O O10 0.250000 0.852124 0.250000
#
# Coordination Sequence:
#
# PCOD9329274 Si02
#       4
#    16  16  16  16
#     4  12  29  44  67 101 149 193 242 294 355 427
#     4   8  17  34  67  99 130 171 224 293 356 413
#     4   9  19  38  65 102 129 173 234 292 347 420
#     4   9  21  41  74 103 137 186 239 294 364 426
#
# _framework density 23.832295999999999
#
# number of rings (size 3 to 8) (size 9 to 14) (size 15 to 20)
#    0.000    3.000    0.000    0.750   10.500    5.000 
#    0.000    2.500    0.000    1.500    0.000    0.000 
#    0.000    0.000    0.000    0.000    0.000    0.000 
#
# Total GULP energy -89244.587968 kJ/mol
# GULP energy per Si atom -5577.786748 kJ/mol
# Density = 2.377805 g / cm^3
# Si number density = 23.832296 Si / 1000 Ang^3
#
#
#
# Elastic Constant Matrix: (Units=GPa)
#
#
# Indices 1 2 3 4 5 6 
#
# 1 60.6177 -0.4036 23.3691 0.0000 0.0000 0.0000
# 2 -0.4036 125.2237 50.4602 0.0000 0.0000 0.0000
# 3 23.3691 50.4602 68.2269 0.0000 0.0000 0.0000
# 4 0.0000 0.0000 0.0000 26.0902 0.0000 0.0000
# 5 0.0000 0.0000 0.0000 0.0000 14.4513 0.0000
# 6 0.0000 0.0000 0.0000 0.0000 0.0000 2.1978
#
#
#
# Elastic Compliance Matrix: (Units=1/GPa)
#
#
# Indices 1 2 3 4 5 6 
#
# 1 0.020386 0.004102 -0.010016 0.000000 0.000000 0.000000
# 2 0.004102 0.012201 -0.010429 0.000000 0.000000 0.000000
# 3 -0.010016 -0.010429 0.025801 0.000000 0.000000 0.000000
# 4 0.000000 0.000000 0.000000 0.038329 0.000000 0.000000
# 5 0.000000 0.000000 0.000000 0.000000 0.069198 0.000000
# 6 0.000000 0.000000 0.000000 0.000000 0.000000 0.455000
#
#
# Mechanical properties :
#
#
# Convention : Reuss Voigt Hill
#
# Bulk Modulus (GPa) = 38.90872 44.54662 41.72767
# Shear Modulus (GPa) = 7.55095 20.59070 14.07083
#
# Velocity S-wave (km/s) = 1.78192 2.94255 2.43247
# Velocity P-wave (km/s) = 4.53819 5.50246 5.04342
#
# Compressibility (1/GPa) = 0.02570118
#
# Stress axis : x y z
#
# Youngs Moduli (GPa) = 49.05444 81.95758 38.75821
#
# Poissons Ratio (x) = -0.33617 0.38821
# Poissons Ratio (y) = -0.20121 0.40421
# Poissons Ratio (z) = 0.49133 0.85474
#
# Static dielectric constant tensor:
#      x y z
#    x 2.054830 0.000000 0.000000 
#    y 0.000000 2.035810 0.000000 
#    z 0.000000 0.000000 1.894480 
# 
# From -- ./inp_files/34801.got.cif
#   From: 2010.05.17/outbox.cif.g08.bks.cpg/sg22_18_cif.got.tgz:34801.got - 2010.06.03 23:40:54.
