data_PCOD9329624
_publ_section_title
;
Structure prediction by ZEFSAII (Michael W. Deem and Ramdas Pophale) SiO2 
 PCOD9329624
Probable space group: I 2 2 2
;
_chemical_formula_sum "Si O2"
_cell_formula_units_Z 48
_cell_length_a 8.828791
_cell_length_b 27.162011
_cell_length_c 9.466058
_cell_angle_alpha 90.000000
_cell_angle_beta 90.000000
_cell_angle_gamma 90.000000
_cell_volume 2270.033770
_symmetry_space_group_name_H-M "I 2 2 2"
_symmetry_group_IT_number 23
_symmetry_cell_setting 'orthorhombic'
loop_
_space_group_symop_operation_xyz
x,y,z
-x,-y,z
x,-y,-z
-x,y,-z
1/2+x,1/2+y,1/2+z
1/2-x,1/2-y,1/2+z
1/2+x,1/2-y,1/2-z
1/2-x,1/2+y,1/2-z
loop_
_atom_site_type_symbol
_atom_site_label
_atom_site_fract_x
_atom_site_fract_y
_atom_site_fract_z
Si Si1 0.182695 0.720783 0.198714
Si Si2 0.860991 0.415893 0.584606
Si Si3 0.452889 0.448687 0.334436
Si Si4 0.154528 0.799740 0.430190
Si Si5 0.628157 0.644784 0.612868
Si Si6 0.934817 0.360172 0.860251
O O1 0.137308 0.767122 0.291460
O O2 0.296509 0.685982 0.289176
O O3 0.035934 0.688685 0.160650
O O4 0.264357 0.733085 0.051742
O O5 0.728337 0.446804 0.658740
O O6 0.763743 0.380301 0.479488
O O7 0.938646 0.387349 0.712972
O O8 0.000000 0.439799 0.500000
O O9 0.500000 0.500000 0.264476
O O10 0.500000 0.451053 0.500000
O O11 0.541306 0.398154 0.295635
O O12 0.264661 0.844255 0.394178
O O13 0.000000 0.816164 0.500000
O O14 0.500000 0.662367 0.500000
O O15 0.000000 0.386250 0.000000
#
# Coordination Sequence:
#
# PCOD9329624 Si02
#       6
#     8   8   8   8   8   8
#     4  11  23  39  55  81 118 154 201 250 297 349
#     4  10  18  33  64  86 115 155 194 236 298 355
#     4   8  17  35  55  92 131 142 182 245 299 354
#     4  11  26  37  57  80 109 163 200 257 299 348
#     4   9  20  32  58  87 116 156 187 242 290 362
#     4  10  23  40  53  82 120 152 202 254 291 346
#
# _framework density 21.145057999999999
#
# number of rings (size 3 to 8) (size 9 to 14) (size 15 to 20)
#    0.000    2.500    1.667    1.000    9.333    2.000 
#    0.000    6.667    0.000    0.000    0.000   14.000 
#    0.000    0.000    0.000    0.000    0.000    0.000 
#
# Total GULP energy -133899.583323 kJ/mol
# GULP energy per Si atom -5579.149305 kJ/mol
# Density = 2.109693 g / cm^3
# Si number density = 21.145058 Si / 1000 Ang^3
#
#
#
# Elastic Constant Matrix: (Units=GPa)
#
#
# Indices 1 2 3 4 5 6 
#
# 1 120.6448 20.7375 28.5234 0.0005 0.0013 0.0005
# 2 20.7375 26.9089 13.2350 -0.0014 -0.0001 -0.0005
# 3 28.5234 13.2350 73.0777 -0.0181 -0.0069 -0.0064
# 4 0.0005 -0.0014 -0.0181 2.0338 -0.0025 -0.0027
# 5 0.0013 -0.0001 -0.0069 -0.0025 20.4163 -0.0017
# 6 0.0005 -0.0005 -0.0064 -0.0027 -0.0017 7.9965
#
#
#
# Elastic Compliance Matrix: (Units=1/GPa)
#
#
# Indices 1 2 3 4 5 6 
#
# 1 0.010038 -0.006377 -0.002763 -0.000032 -0.000002 -0.000003
# 2 -0.006377 0.044848 -0.005633 -0.000018 -0.000001 -0.000001
# 3 -0.002763 -0.005633 0.015783 0.000137 0.000005 0.000012
# 4 -0.000032 -0.000018 0.000137 0.491683 0.000061 0.000167
# 5 -0.000002 -0.000001 0.000005 0.000061 0.048981 0.000010
# 6 -0.000003 -0.000001 0.000012 0.000167 0.000010 0.125054
#
#
# Mechanical properties :
#
#
# Convention : Reuss Voigt Hill
#
# Bulk Modulus (GPa) = 24.31800 38.40260 31.36030
# Shear Modulus (GPa) = 6.41321 16.63170 11.52246
#
# Velocity S-wave (km/s) = 1.74343 2.80760 2.33689
# Velocity P-wave (km/s) = 3.94693 5.35827 4.70581
#
# Compressibility (1/GPa) = 0.04112181
#
# Stress axis : x y z
#
# Youngs Moduli (GPa) = 99.61947 22.29778 63.35994
#
# Poissons Ratio (x) = 0.14219 0.17507
# Poissons Ratio (y) = 0.63527 0.35692
# Poissons Ratio (z) = 0.27526 0.12561
#
# Static dielectric constant tensor:
#      x y z
#    x 1.858890 0.000000 0.000000 
#    y 0.000000 1.816120 0.000000 
#    z 0.000000 0.000000 1.778950 
# 
# From -- ./inp_files/7358.got.cif
#   From: 2010.05.17/outbox.cif.g08.bks.cpg/sg23_4_cif.got.tgz:7358.got - 2010.06.04 12:02:01.
