data_PCOD9329571
_publ_section_title
;
Structure prediction by ZEFSAII (Michael W. Deem and Ramdas Pophale) SiO2 
 PCOD9329571
Probable space group: I 2 2 2
;
_chemical_formula_sum "Si O2"
_cell_formula_units_Z 64
_cell_length_a 10.005136
_cell_length_b 22.346792
_cell_length_c 12.960344
_cell_angle_alpha 90.000000
_cell_angle_beta 90.000000
_cell_angle_gamma 90.000000
_cell_volume 2897.708615
_symmetry_space_group_name_H-M "I 2 2 2"
_symmetry_group_IT_number 23
_symmetry_cell_setting 'orthorhombic'
loop_
_space_group_symop_operation_xyz
x,y,z
-x,-y,z
x,-y,-z
-x,y,-z
1/2+x,1/2+y,1/2+z
1/2-x,1/2-y,1/2+z
1/2+x,1/2-y,1/2-z
1/2-x,1/2+y,1/2-z
loop_
_atom_site_type_symbol
_atom_site_label
_atom_site_fract_x
_atom_site_fract_y
_atom_site_fract_z
Si Si1 0.361290 0.520455 0.793299
Si Si2 0.229202 0.776968 0.087799
Si Si3 0.232137 0.392833 0.758920
Si Si4 0.380520 0.560765 0.562611
Si Si5 0.012418 0.303564 0.843766
Si Si6 0.048311 0.798062 0.678538
Si Si7 0.228846 0.849185 0.312672
Si Si8 0.847045 0.373284 0.470049
O O1 0.500000 0.500000 0.846960
O O2 0.274192 0.459938 0.789677
O O3 0.408388 0.546032 0.680426
O O4 0.279320 0.579042 0.826680
O O5 0.092745 0.741359 0.083757
O O6 0.347372 0.729478 0.099851
O O7 0.227721 0.820051 0.193293
O O8 0.265253 0.812562 0.985681
O O9 0.113712 0.358482 0.820007
O O10 0.363245 0.349259 0.763405
O O11 0.177057 0.397104 0.643015
O O12 0.372102 0.500000 0.500000
O O13 0.500000 0.595166 0.500000
O O14 0.232429 0.585928 0.550610
O O15 0.993922 0.260289 0.744362
O O16 0.864073 0.326283 0.864936
O O17 0.910682 0.826166 0.641549
O O18 0.000000 0.366040 0.500000
#
# Coordination Sequence:
#
# PCOD9329571 Si02
#       8
#     8   8   8   8   8   8   8   8
#     4  12  20  32  50  74 106 146 188 228 268 323
#     4   9  19  35  52  70 102 143 184 237 283 315
#     4  11  22  34  51  77 108 145 184 227 272 324
#     4  11  21  35  46  63 107 159 191 220 262 317
#     4   9  20  36  51  73  97 141 189 235 283 319
#     4   9  18  35  55  69  96 141 189 229 275 324
#     4  10  18  32  53  72  96 136 189 230 271 320
#     4  12  23  34  50  78 110 147 197 233 270 324
#
# _framework density 22.086417000000001
#
# number of rings (size 3 to 8) (size 9 to 14) (size 15 to 20)
#    0.000    1.625    5.000    2.250    0.000    0.750 
#    0.000    0.000    0.000    0.000    0.000    0.000 
#    0.000    0.000    0.000  294.750    0.000    0.000 
#
# Total GULP energy -178329.499182 kJ/mol
# GULP energy per Si atom -5572.796849 kJ/mol
# Density = 2.203615 g / cm^3
# Si number density = 22.086417 Si / 1000 Ang^3
#
#
#
# Elastic Constant Matrix: (Units=GPa)
#
#
# Indices 1 2 3 4 5 6 
#
# 1 170.9598 64.7660 15.7467 0.0000 0.0000 0.0000
# 2 64.7660 139.7867 7.3292 0.0000 0.0000 0.0000
# 3 15.7467 7.3292 7.1646 -0.0002 0.0000 0.0000
# 4 0.0000 0.0000 -0.0002 -6.2406 0.0000 0.0000
# 5 0.0000 0.0000 0.0000 0.0000 8.4534 0.0000
# 6 0.0000 0.0000 0.0000 0.0000 0.0000 37.7216
#
#
#
# Elastic Compliance Matrix: (Units=1/GPa)
#
#
# Indices 1 2 3 4 5 6 
#
# 1 0.008442 -0.003105 -0.015378 0.000001 0.000000 0.000000
# 2 -0.003105 0.008701 -0.002077 0.000000 0.000000 0.000000
# 3 -0.015378 -0.002077 0.175498 -0.000006 0.000000 0.000000
# 4 0.000001 0.000000 -0.000006 -0.160242 0.000000 0.000000
# 5 0.000000 0.000000 0.000000 0.000000 0.118295 0.000000
# 6 0.000000 0.000000 0.000000 0.000000 0.000000 0.026510
#
#
# Mechanical properties :
#
#
# Convention : Reuss Voigt Hill
#
# Bulk Modulus (GPa) = 6.59971 54.84386 30.72178
# Shear Modulus (GPa) = 18.59898 23.32483 20.96190
#
# Velocity S-wave (km/s) = 2.90504 3.25325 3.08407
# Velocity P-wave (km/s) = 3.77452 6.24475 5.15965
#
# Compressibility (1/GPa) = 0.15152188
#
# Stress axis : x y z
#
# Youngs Moduli (GPa) = 118.45418 114.92541 5.69807
#
# Poissons Ratio (x) = 0.35685 0.08762
# Poissons Ratio (y) = 0.36781 0.01183
# Poissons Ratio (z) = 1.82158 0.23866
#
# Static dielectric constant tensor:
#      x y z
#    x 1.878090 0.000000 0.000000 
#    y 0.000000 1.881690 0.000000 
#    z 0.000000 0.000000 1.876220 
# 
# From -- ./inp_files/24009.got.cif
#   From: 2010.05.17/outbox.cif.g08.bks.cpg/sg23_13_cif.got.tgz:24009.got - 2010.06.04 12:02:01.
