data_PCOD9329958
_publ_section_title
;
Structure prediction by ZEFSAII (Michael W. Deem and Ramdas Pophale) SiO2 
 PCOD9329958
Probable space group: I 2 2 2
;
_chemical_formula_sum "Si O2"
_cell_formula_units_Z 56
_cell_length_a 12.588223
_cell_length_b 14.834272
_cell_length_c 14.361247
_cell_angle_alpha 90.000000
_cell_angle_beta 90.000000
_cell_angle_gamma 90.000000
_cell_volume 2681.777962
_symmetry_space_group_name_H-M "I 2 2 2"
_symmetry_group_IT_number 23
_symmetry_cell_setting 'orthorhombic'
loop_
_space_group_symop_operation_xyz
x,y,z
-x,-y,z
x,-y,-z
-x,y,-z
1/2+x,1/2+y,1/2+z
1/2-x,1/2-y,1/2+z
1/2+x,1/2-y,1/2-z
1/2-x,1/2+y,1/2-z
loop_
_atom_site_type_symbol
_atom_site_label
_atom_site_fract_x
_atom_site_fract_y
_atom_site_fract_z
Si Si1 0.472990 0.761404 0.872149
Si Si2 0.706219 0.035508 0.755454
Si Si3 0.458157 0.674748 0.405783
Si Si4 0.192916 0.646237 0.646952
Si Si5 0.558761 0.410800 0.205018
Si Si6 0.127629 0.704440 0.175456
Si Si7 0.281271 0.147033 0.057042
O O1 0.568193 0.831972 0.859119
O O2 0.529971 0.665596 0.869011
O O3 0.404719 0.762817 0.777906
O O4 0.384027 0.786851 0.947346
O O5 0.819250 0.065723 0.716621
O O6 0.632347 0.096132 0.687884
O O7 0.693853 0.077465 0.859808
O O8 0.704813 0.928431 0.772158
O O9 0.500000 0.628054 0.500000
O O10 0.473990 0.619116 0.310544
O O11 0.534924 0.760853 0.392410
O O12 0.332052 0.691552 0.416355
O O13 0.264405 0.737386 0.657135
O O14 0.229251 0.608004 0.546498
O O15 0.500000 0.500000 0.177746
#
# Coordination Sequence:
#
# PCOD9329958 Si02
#       7
#     8   8   8   8   8   8   8
#     4  10  22  38  60  88 125 169 206 256 321 387
#     4  10  21  37  59  94 123 163 212 252 317 392
#     4  10  19  35  57  88 126 161 201 266 322 375
#     4  12  21  39  63  90 131 157 199 271 324 378
#     4  10  20  36  58  92 121 158 217 265 307 375
#     4  10  21  37  57  89 120 170 213 245 321 380
#     4  10  22  36  60  93 124 163 207 256 335 380
#
# _framework density 20.881668000000001
#
# number of rings (size 3 to 8) (size 9 to 14) (size 15 to 20)
#    0.000    1.714    2.857    2.571    2.000    2.571 
#    0.000    2.857    0.000    1.714    0.000   22.000 
#    0.000    0.000    0.000    0.000    0.000    0.000 
#
# Total GULP energy -155912.950964 kJ/mol
# GULP energy per Si atom -5568.319677 kJ/mol
# Density = 2.083414 g / cm^3
# Si number density = 20.881668 Si / 1000 Ang^3
#
#
#
# Elastic Constant Matrix: (Units=GPa)
#
#
# Indices 1 2 3 4 5 6 
#
# 1 76.4958 24.6798 12.9318 0.0000 0.0000 0.0000
# 2 24.6798 89.8477 9.8087 0.0000 0.0000 0.0000
# 3 12.9318 9.8087 24.1153 0.0000 0.0000 0.0000
# 4 0.0000 0.0000 0.0000 21.3081 0.0001 0.0000
# 5 0.0000 0.0000 0.0000 0.0001 -41.8651 0.0000
# 6 0.0000 0.0000 0.0000 0.0000 0.0000 25.3849
#
#
#
# Elastic Compliance Matrix: (Units=1/GPa)
#
#
# Indices 1 2 3 4 5 6 
#
# 1 0.015345 -0.003471 -0.006817 0.000000 0.000000 0.000000
# 2 -0.003471 0.012432 -0.003195 0.000000 0.000000 0.000000
# 3 -0.006817 -0.003195 0.046423 0.000000 0.000000 0.000000
# 4 0.000000 0.000000 0.000000 0.046931 0.000000 0.000000
# 5 0.000000 0.000000 0.000000 0.000000 -0.023886 0.000000
# 6 0.000000 0.000000 0.000000 0.000000 0.000000 0.039394
#
#
# Mechanical properties :
#
#
# Convention : Reuss Voigt Hill
#
# Bulk Modulus (GPa) = 21.17148 31.69992 26.43570
# Shear Modulus (GPa) = 27.87869 10.50146 19.19008
#
# Velocity S-wave (km/s) = 3.65784 2.24498 3.03478
# Velocity P-wave (km/s) = 5.29155 4.68334 4.99671
#
# Compressibility (1/GPa) = 0.04723335
#
# Stress axis : x y z
#
# Youngs Moduli (GPa) = 65.16857 80.43648 21.54115
#
# Poissons Ratio (x) = 0.27918 0.14685
# Poissons Ratio (y) = 0.22619 0.06883
# Poissons Ratio (z) = 0.44425 0.25703
#
# Static dielectric constant tensor:
#      x y z
#    x 1.781180 0.000000 0.000000 
#    y 0.000000 2.435650 0.000000 
#    z 0.000000 0.000000 1.764960 
# 
# From -- ./inp_files/16790.got.cif
#   From: 2010.05.17/outbox.cif.g08.bks.cpg/sg23_9_cif.got.tgz:16790.got - 2010.06.04 12:02:01.
