data_PCOD9329333
_publ_section_title
;
Structure prediction by ZEFSAII (Michael W. Deem and Ramdas Pophale) SiO2 
 PCOD9329333
Probable space group: I 2 2 2
;
_chemical_formula_sum "Si O2"
_cell_formula_units_Z 64
_cell_length_a 32.935355
_cell_length_b 5.556171
_cell_length_c 18.883909
_cell_angle_alpha 90.000000
_cell_angle_beta 90.000000
_cell_angle_gamma 90.000000
_cell_volume 3455.650812
_symmetry_space_group_name_H-M "I 2 2 2"
_symmetry_group_IT_number 23
_symmetry_cell_setting 'orthorhombic'
loop_
_space_group_symop_operation_xyz
x,y,z
-x,-y,z
x,-y,-z
-x,y,-z
1/2+x,1/2+y,1/2+z
1/2-x,1/2-y,1/2+z
1/2+x,1/2-y,1/2-z
1/2-x,1/2+y,1/2-z
loop_
_atom_site_type_symbol
_atom_site_label
_atom_site_fract_x
_atom_site_fract_y
_atom_site_fract_z
Si Si1 0.699128 0.459060 0.722894
Si Si2 0.276099 0.042004 0.879608
Si Si3 0.543981 0.455523 0.771657
Si Si4 0.936267 0.548511 0.265443
Si Si5 0.839564 0.541001 0.252413
Si Si6 0.892180 0.072393 0.398074
Si Si7 0.704261 0.458947 0.888559
Si Si8 0.930270 0.570261 0.428420
O O1 0.736403 0.459735 0.669436
O O2 0.673926 0.707727 0.716257
O O3 0.715532 0.458332 0.804270
O O4 0.674118 0.209761 0.716171
O O5 0.315403 0.041923 0.827033
O O6 0.278683 0.294525 0.919160
O O7 0.279530 0.790023 0.919139
O O8 0.500000 0.500000 0.807141
O O9 0.551104 0.701587 0.729707
O O10 0.582077 0.437567 0.825138
O O11 0.544894 0.195704 0.735533
O O12 0.887521 0.538837 0.264374
O O13 0.949373 0.563428 0.349374
O O14 0.899291 0.343588 0.425327
O O15 0.844486 0.035337 0.390978
O O16 0.910723 0.835266 0.435759
O O17 0.954337 0.500000 0.500000
#
# Coordination Sequence:
#
# PCOD9329333 Si02
#       8
#     8   8   8   8   8   8   8   8
#     4  10  16  22  33  51  70  88 106 124 142 160
#     4  10  16  22  33  51  70  88 106 124 142 160
#     4  10  18  29  43  55  66  78  99 131 160 195
#     4  10  19  30  42  54  66  85 106 124 162 204
#     4  10  16  25  36  48  67  88 106 124 142 180
#     4  10  19  30  42  54  66  85 106 124 162 204
#     4  10  16  25  36  48  67  88 106 124 142 180
#     4  10  18  29  43  55  66  78  99 131 160 195
#
# _framework density 18.520391
#
# number of rings (size 3 to 8) (size 9 to 14) (size 15 to 20)
#    0.000    2.000    0.000   12.000    0.000    0.000 
#    0.000    0.000    0.000   36.000    0.000    0.000 
#    0.000    0.000    0.000    0.000    0.000    0.000 
#
# Total GULP energy -178233.092389 kJ/mol
# GULP energy per Si atom -5569.784137 kJ/mol
# Density = 1.847824 g / cm^3
# Si number density = 18.520391 Si / 1000 Ang^3
#
#
#
# Elastic Constant Matrix: (Units=GPa)
#
#
# Indices 1 2 3 4 5 6 
#
# 1 73.6634 43.4346 14.5848 0.0000 0.0000 0.0000
# 2 43.4346 234.2348 13.6543 0.0000 0.0000 0.0000
# 3 14.5848 13.6543 14.4984 0.0000 0.0000 0.0000
# 4 0.0000 0.0000 0.0000 4.9004 0.0000 0.0000
# 5 0.0000 0.0000 0.0000 0.0000 -16.5884 0.0000
# 6 0.0000 0.0000 0.0000 0.0000 0.0000 24.4121
#
#
#
# Elastic Compliance Matrix: (Units=1/GPa)
#
#
# Indices 1 2 3 4 5 6 
#
# 1 0.018179 -0.002439 -0.015991 0.000000 0.000000 0.000000
# 2 -0.002439 0.004844 -0.002109 0.000000 0.000000 0.000000
# 3 -0.015991 -0.002109 0.087045 0.000000 0.000000 0.000000
# 4 0.000000 0.000000 0.000000 0.204065 0.000000 0.000000
# 5 0.000000 0.000000 0.000000 0.000000 -0.060283 0.000000
# 6 0.000000 0.000000 0.000000 0.000000 0.000000 0.040963
#
#
# Mechanical properties :
#
#
# Convention : Reuss Voigt Hill
#
# Bulk Modulus (GPa) = 14.49450 51.74932 33.12191
# Shear Modulus (GPa) = 13.93194 19.25970 16.59582
#
# Velocity S-wave (km/s) = 2.74569 3.22828 2.99671
# Velocity P-wave (km/s) = 4.23025 6.47288 5.46778
#
# Compressibility (1/GPa) = 0.06899169
#
# Stress axis : x y z
#
# Youngs Moduli (GPa) = 55.00751 206.42375 11.48831
#
# Poissons Ratio (x) = 0.50344 0.18371
# Poissons Ratio (y) = 0.13416 0.02423
# Poissons Ratio (z) = 0.87961 0.43533
#
# Static dielectric constant tensor:
#      x y z
#    x 1.645550 0.000000 0.000000 
#    y 0.000000 1.811600 0.000000 
#    z 0.000000 0.000000 1.626210 
# 
# From -- ./inp_files/29756.got.cif
#   From: 2010.05.17/outbox.cif.g08.bks.cpg/sg23_15_cif.got.tgz:29756.got - 2010.06.04 12:02:01.
