data_PCOD9329197
_publ_section_title
;
Structure prediction by ZEFSAII (Michael W. Deem and Ramdas Pophale) SiO2 
 PCOD9329197
Probable space group: F 2 2 2
;
_chemical_formula_sum "Si O2"
_cell_formula_units_Z 56
_cell_length_a 12.643035
_cell_length_b 8.742610
_cell_length_c 22.577221
_cell_angle_alpha 90.000000
_cell_angle_beta 90.000000
_cell_angle_gamma 90.000000
_cell_volume 2495.530773
_symmetry_space_group_name_H-M "F 2 2 2"
_symmetry_group_IT_number 22
_symmetry_cell_setting 'orthorhombic'
loop_
_space_group_symop_operation_xyz
x,y,z
-x,-y,z
x,-y,-z
-x,y,-z
x,1/2+y,1/2+z
-x,1/2-y,1/2+z
x,1/2-y,1/2-z
-x,1/2+y,1/2-z
1/2+x,y,1/2+z
1/2-x,-y,1/2+z
1/2+x,-y,1/2-z
1/2-x,y,1/2-z
1/2+x,1/2+y,z
1/2-x,1/2-y,z
1/2+x,1/2-y,-z
1/2-x,1/2+y,-z
loop_
_atom_site_type_symbol
_atom_site_label
_atom_site_fract_x
_atom_site_fract_y
_atom_site_fract_z
Si Si1 0.953048 0.762000 0.576762
Si Si2 0.060537 0.338492 0.190404
Si Si3 0.165985 0.425750 0.079445
Si Si4 0.648365 0.500000 0.000000
O O1 0.936286 0.836092 0.446215
O O2 0.915068 0.613768 0.542709
O O3 0.984586 0.740460 0.646007
O O4 0.865853 0.895463 0.575278
O O5 0.083430 0.250000 0.250000
O O6 0.160439 0.379131 0.148315
O O7 0.000000 0.500000 0.200463
O O8 0.273831 0.409572 0.044695
#
# Coordination Sequence:
#
# PCOD9329197 Si02
#       4
#    16  16  16   8
#     4   8  19  36  60 106 138 186 227 279 355 410
#     4   8  16  38  66  97 138 183 231 288 349 404
#     4   8  19  37  61 101 144 183 214 290 363 391
#     4  12  18  35  76 103 140 182 238 270 350 450
#
# _framework density 22.440114999999999
#
# number of rings (size 3 to 8) (size 9 to 14) (size 15 to 20)
#    1.714    1.714    0.000    0.857    0.000    2.286 
#    0.000    5.714    0.000   17.143    7.429    2.000 
#    0.000    0.000    0.000    0.000    0.000    0.000 
#
# Total GULP energy -78134.159800 kJ/mol
# GULP energy per Si atom -5581.011414 kJ/mol
# Density = 2.238904 g / cm^3
# Si number density = 22.440115 Si / 1000 Ang^3
#
#
#
# Elastic Constant Matrix: (Units=GPa)
#
#
# Indices 1 2 3 4 5 6 
#
# 1 59.9753 67.1518 48.7828 0.0000 0.0000 0.0000
# 2 67.1518 145.5440 95.2566 0.0000 0.0000 0.0000
# 3 48.7828 95.2566 198.7120 0.0000 0.0000 0.0000
# 4 0.0000 0.0000 0.0000 60.4894 0.0000 0.0000
# 5 0.0000 0.0000 0.0000 0.0000 4.7684 0.0000
# 6 0.0000 0.0000 0.0000 0.0000 0.0000 45.8446
#
#
#
# Elastic Compliance Matrix: (Units=1/GPa)
#
#
# Indices 1 2 3 4 5 6 
#
# 1 0.034697 -0.015204 -0.001230 0.000000 0.000000 0.000000
# 2 -0.015204 0.016674 -0.004261 0.000000 0.000000 0.000000
# 3 -0.001230 -0.004261 0.007377 0.000000 0.000000 0.000000
# 4 0.000000 0.000000 0.000000 0.016532 0.000000 0.000000
# 5 0.000000 0.000000 0.000000 0.000000 0.209716 0.000000
# 6 0.000000 0.000000 0.000000 0.000000 0.000000 0.021813
#
#
# Mechanical properties :
#
#
# Convention : Reuss Voigt Hill
#
# Bulk Modulus (GPa) = 57.60552 91.84598 74.72575
# Shear Modulus (GPa) = 14.12501 35.08980 24.60740
#
# Velocity S-wave (km/s) = 2.51161 3.95867 3.31506
# Velocity P-wave (km/s) = 5.84273 7.86848 6.93002
#
# Compressibility (1/GPa) = 0.01735945
#
# Stress axis : x y z
#
# Youngs Moduli (GPa) = 28.82119 59.97333 135.56228
#
# Poissons Ratio (x) = 0.91182 0.16669
# Poissons Ratio (y) = 0.43819 0.57758
# Poissons Ratio (z) = 0.03544 0.25552
#
# Static dielectric constant tensor:
#      x y z
#    x 1.871110 0.000000 0.000000 
#    y 0.000000 1.877700 0.000000 
#    z 0.000000 0.000000 1.872180 
# 
# From -- ./inp_files/10912.got.cif
#   From: 2010.05.17/outbox.cif.g08.bks.cpg/sg22_6_cif.got.tgz:10912.got - 2010.06.03 23:40:54.
