data_PCOD9329727
_publ_section_title
;
Structure prediction by ZEFSAII (Michael W. Deem and Ramdas Pophale) SiO2 
 PCOD9329727
Probable space group: I 2 2 2
;
_chemical_formula_sum "Si O2"
_cell_formula_units_Z 58
_cell_length_a 8.642575
_cell_length_b 11.902003
_cell_length_c 27.723331
_cell_angle_alpha 90.000000
_cell_angle_beta 90.000000
_cell_angle_gamma 90.000000
_cell_volume 2851.731433
_symmetry_space_group_name_H-M "I 2 2 2"
_symmetry_group_IT_number 23
_symmetry_cell_setting 'orthorhombic'
loop_
_space_group_symop_operation_xyz
x,y,z
-x,-y,z
x,-y,-z
-x,y,-z
1/2+x,1/2+y,1/2+z
1/2-x,1/2-y,1/2+z
1/2+x,1/2-y,1/2-z
1/2-x,1/2+y,1/2-z
loop_
_atom_site_type_symbol
_atom_site_label
_atom_site_fract_x
_atom_site_fract_y
_atom_site_fract_z
Si Si1 0.709374 0.077537 0.678789
Si Si2 0.871433 0.063807 0.188195
Si Si3 0.197263 0.356436 0.710047
Si Si4 0.129524 0.289655 0.332962
Si Si5 0.868842 0.332188 0.843290
Si Si6 0.000000 0.500000 0.500000
Si Si7 0.436558 0.356271 0.592610
Si Si8 0.749554 0.083279 0.071252
O O1 0.697608 0.093896 0.736371
O O2 0.844754 0.158116 0.660262
O O3 0.547083 0.128977 0.659827
O O4 0.722480 0.948213 0.663643
O O5 0.748300 0.965286 0.179270
O O6 0.028086 0.892390 0.142603
O O7 0.768267 0.168087 0.202975
O O8 0.000000 0.000000 0.220409
O O9 0.316045 0.256003 0.697951
O O10 0.031452 0.318172 0.691122
O O11 0.169307 0.357149 0.382118
O O12 0.853799 0.258839 0.892315
O O13 0.884683 0.574077 0.467640
O O14 0.319983 0.455549 0.577564
O O15 0.589828 0.350428 0.559098
#
# Coordination Sequence:
#
# PCOD9329727 Si02
#       8
#     8   8   8   8   8   2   8   8
#     4  11  25  38  55  83 125 163 230 279 292 357
#     4  11  18  34  57  82 105 163 221 241 298 378
#     4  12  24  34  57  84 123 168 216 278 319 348
#     4  11  22  38  59  83 122 172 208 249 330 375
#     4  11  22  40  53  83 115 166 229 257 303 362
#     4  12  28  34  64 116 134 130 188 280 308 416
#     4  10  18  40  65  78 118 175 202 231 301 406
#     4  10  21  39  62  93 127 154 189 245 327 381
#
# _framework density 20.338521
#
# number of rings (size 3 to 8) (size 9 to 14) (size 15 to 20)
#    0.000    1.103    6.897    1.241   11.586    1.655 
#    0.000    0.000    0.000    0.000    0.000    1.931 
#    0.000    0.000    0.000    0.000    0.000    0.000 
#
# Total GULP energy -161474.002738 kJ/mol
# GULP energy per Si atom -5568.069060 kJ/mol
# Density = 2.029223 g / cm^3
# Si number density = 20.338521 Si / 1000 Ang^3
#
#
#
# Elastic Constant Matrix: (Units=GPa)
#
#
# Indices 1 2 3 4 5 6 
#
# 1 79.5373 30.3779 29.8398 0.0000 0.0000 0.0000
# 2 30.3779 149.4995 19.7693 0.0000 0.0000 0.0000
# 3 29.8398 19.7693 56.3882 0.0000 0.0000 0.0000
# 4 0.0000 0.0000 0.0000 11.4876 0.0000 0.0000
# 5 0.0000 0.0000 0.0000 0.0000 24.9763 0.0000
# 6 0.0000 0.0000 0.0000 0.0000 0.0000 31.6419
#
#
#
# Elastic Compliance Matrix: (Units=1/GPa)
#
#
# Indices 1 2 3 4 5 6 
#
# 1 0.016403 -0.002291 -0.007877 0.000000 0.000000 0.000000
# 2 -0.002291 0.007334 -0.001359 0.000000 0.000000 0.000000
# 3 -0.007877 -0.001359 0.022379 0.000000 0.000000 0.000000
# 4 0.000000 0.000000 0.000000 0.087050 0.000000 0.000000
# 5 0.000000 0.000000 0.000000 0.000000 0.040038 0.000000
# 6 0.000000 0.000000 0.000000 0.000000 0.000000 0.031604
#
#
# Mechanical properties :
#
#
# Convention : Reuss Voigt Hill
#
# Bulk Modulus (GPa) = 43.36124 49.48879 46.42502
# Shear Modulus (GPa) = 21.22695 27.31702 24.27198
#
# Velocity S-wave (km/s) = 3.23411 3.66883 3.45831
# Velocity P-wave (km/s) = 5.94239 6.50634 6.23075
#
# Compressibility (1/GPa) = 0.02306207
#
# Stress axis : x y z
#
# Youngs Moduli (GPa) = 60.96428 136.34611 44.68491
#
# Poissons Ratio (x) = 0.31243 0.35198
# Poissons Ratio (y) = 0.13970 0.06072
# Poissons Ratio (z) = 0.48021 0.18526
#
# Static dielectric constant tensor:
#      x y z
#    x 1.815720 0.000000 0.000000 
#    y 0.000000 1.786460 0.000000 
#    z 0.000000 0.000000 1.851960 
# 
# From -- ./inp_files/30318.got.cif
#   From: 2010.05.17/outbox.cif.g08.bks.cpg/sg23_16_cif.got.tgz:30318.got - 2010.06.04 12:02:01.
