data_PCOD9329988
_publ_section_title
;
Structure prediction by ZEFSAII (Michael W. Deem and Ramdas Pophale) SiO2 
 PCOD9329988
Probable space group: I 2 2 2
;
_chemical_formula_sum "Si O2"
_cell_formula_units_Z 56
_cell_length_a 23.119046
_cell_length_b 8.991499
_cell_length_c 13.348412
_cell_angle_alpha 90.000000
_cell_angle_beta 90.000000
_cell_angle_gamma 90.000000
_cell_volume 2774.799529
_symmetry_space_group_name_H-M "I 2 2 2"
_symmetry_group_IT_number 23
_symmetry_cell_setting 'orthorhombic'
loop_
_space_group_symop_operation_xyz
x,y,z
-x,-y,z
x,-y,-z
-x,y,-z
1/2+x,1/2+y,1/2+z
1/2-x,1/2-y,1/2+z
1/2+x,1/2-y,1/2-z
1/2-x,1/2+y,1/2-z
loop_
_atom_site_type_symbol
_atom_site_label
_atom_site_fract_x
_atom_site_fract_y
_atom_site_fract_z
Si Si1 0.860682 0.223142 0.140196
Si Si2 0.465747 0.368026 0.104492
Si Si3 0.148088 0.996324 0.683813
Si Si4 0.433755 0.824122 0.470437
Si Si5 0.444881 0.082789 0.226374
Si Si6 0.779295 0.513475 0.881441
Si Si7 0.873628 0.327003 0.761881
O O1 0.855250 0.077771 0.207749
O O2 0.909303 0.324264 0.193629
O O3 0.802446 0.321107 0.144751
O O4 0.887480 0.220659 0.029551
O O5 0.500000 0.500000 0.163161
O O6 0.399604 0.425045 0.112479
O O7 0.466648 0.203979 0.148671
O O8 0.500000 0.358529 0.000000
O O9 0.212352 0.011099 0.641300
O O10 0.135605 0.823447 0.702262
O O11 0.500000 0.788161 0.500000
O O12 0.418197 0.803577 0.354094
O O13 0.424603 0.000000 0.500000
O O14 0.500000 0.000000 0.270141
O O15 0.401199 0.954447 0.191398
O O16 0.817460 0.397362 0.816714
O O17 0.790002 0.500000 0.000000
#
# Coordination Sequence:
#
# PCOD9329988 Si02
#       7
#     8   8   8   8   8   8   8
#     4  10  20  39  59  94 124 159 211 256 316 385
#     4  10  23  42  61  87 124 166 213 260 316 366
#     4  11  25  39  65  90 129 167 209 269 321 384
#     4  11  19  35  64  91 125 165 202 253 317 388
#     4  10  19  35  62  89 122 162 208 252 304 383
#     4  11  21  41  66  88 119 170 215 260 324 389
#     4  11  21  39  63  98 124 163 213 261 324 387
#
# _framework density 20.181638
#
# number of rings (size 3 to 8) (size 9 to 14) (size 15 to 20)
#    0.000    1.429    4.286    2.571    2.000    2.000 
#    0.000    1.429    0.000    0.000    0.000    0.000 
#    0.000    0.000    0.000    0.000    0.000    0.000 
#
# Total GULP energy -156187.880642 kJ/mol
# GULP energy per Si atom -5578.138594 kJ/mol
# Density = 2.013570 g / cm^3
# Si number density = 20.181638 Si / 1000 Ang^3
#
#
#
# Elastic Constant Matrix: (Units=GPa)
#
#
# Indices 1 2 3 4 5 6 
#
# 1 138.0505 16.9873 17.4318 0.0000 0.0000 0.0000
# 2 16.9873 90.5559 21.1209 0.0000 0.0000 0.0000
# 3 17.4318 21.1209 52.0344 0.0000 0.0000 0.0000
# 4 0.0000 0.0000 0.0000 26.3142 0.0000 0.0000
# 5 0.0000 0.0000 0.0000 0.0000 28.6178 0.0000
# 6 0.0000 0.0000 0.0000 0.0000 0.0000 7.4765
#
#
#
# Elastic Compliance Matrix: (Units=1/GPa)
#
#
# Indices 1 2 3 4 5 6 
#
# 1 0.007633 -0.000923 -0.002182 0.000000 0.000000 0.000000
# 2 -0.000923 0.012309 -0.004687 0.000000 0.000000 0.000000
# 3 -0.002182 -0.004687 0.021852 0.000000 0.000000 0.000000
# 4 0.000000 0.000000 0.000000 0.038002 0.000000 0.000000
# 5 0.000000 0.000000 0.000000 0.000000 0.034943 0.000000
# 6 0.000000 0.000000 0.000000 0.000000 0.000000 0.133753
#
#
# Mechanical properties :
#
#
# Convention : Reuss Voigt Hill
#
# Bulk Modulus (GPa) = 38.15505 43.52453 40.83979
# Shear Modulus (GPa) = 18.32752 27.48841 22.90796
#
# Velocity S-wave (km/s) = 3.01679 3.69460 3.37276
# Velocity P-wave (km/s) = 5.57508 6.30978 5.95377
#
# Compressibility (1/GPa) = 0.02620885
#
# Stress axis : x y z
#
# Youngs Moduli (GPa) = 131.01246 81.23980 45.76298
#
# Poissons Ratio (x) = 0.07497 0.09988
# Poissons Ratio (y) = 0.12090 0.21450
# Poissons Ratio (z) = 0.28593 0.38079
#
# Static dielectric constant tensor:
#      x y z
#    x 1.738470 0.000000 0.000000 
#    y 0.000000 1.755700 0.000000 
#    z 0.000000 0.000000 1.772660 
# 
# From -- ./inp_files/22413.got.cif
#   From: 2010.05.17/outbox.cif.g08.bks.cpg/sg23_12_cif.got.tgz:22413.got - 2010.06.04 12:02:01.
