data_PCOD9329920
_publ_section_title
;
Structure prediction by ZEFSAII (Michael W. Deem and Ramdas Pophale) SiO2 
 PCOD9329920
Probable space group: I 2 2 2
;
_chemical_formula_sum "Si O2"
_cell_formula_units_Z 48
_cell_length_a 9.611401
_cell_length_b 8.181986
_cell_length_c 28.661720
_cell_angle_alpha 90.000000
_cell_angle_beta 90.000000
_cell_angle_gamma 90.000000
_cell_volume 2253.967647
_symmetry_space_group_name_H-M "I 2 2 2"
_symmetry_group_IT_number 23
_symmetry_cell_setting 'orthorhombic'
loop_
_space_group_symop_operation_xyz
x,y,z
-x,-y,z
x,-y,-z
-x,y,-z
1/2+x,1/2+y,1/2+z
1/2-x,1/2-y,1/2+z
1/2+x,1/2-y,1/2-z
1/2-x,1/2+y,1/2-z
loop_
_atom_site_type_symbol
_atom_site_label
_atom_site_fract_x
_atom_site_fract_y
_atom_site_fract_z
Si Si1 0.081559 0.174787 0.542763
Si Si2 0.445995 0.317276 0.644515
Si Si3 0.484593 0.303040 0.858705
Si Si4 0.787317 0.199734 0.289490
Si Si5 0.712247 0.826066 0.313600
Si Si6 0.086910 0.330201 0.043339
O O1 0.054091 0.256072 0.593307
O O2 0.246668 0.150489 0.533591
O O3 0.000000 0.259661 0.500000
O O4 0.000000 0.000000 0.546175
O O5 0.500000 0.500000 0.645569
O O6 0.318912 0.304335 0.680028
O O7 0.562345 0.195385 0.664435
O O8 0.415778 0.266128 0.591697
O O9 0.500000 0.500000 0.859817
O O10 0.563611 0.255200 0.811419
O O11 0.323919 0.263609 0.851529
O O12 0.780169 0.229632 0.234883
O O13 0.750859 0.012214 0.301389
O O14 0.000000 0.500000 0.050528
O O15 0.000000 0.253165 0.000000
#
# Coordination Sequence:
#
# PCOD9329920 Si02
#       6
#     8   8   8   8   8   8
#     4  10  19  34  62  96 128 152 194 259 321 385
#     4  12  26  42  61  91 132 176 218 263 314 380
#     4   9  20  35  59  90 122 155 199 256 315 376
#     4  11  21  42  62  96 126 164 212 263 322 381
#     4  11  23  38  68  92 128 166 209 266 321 386
#     4  11  23  39  68 100 124 161 216 269 329 395
#
# _framework density 21.295781999999999
#
# number of rings (size 3 to 8) (size 9 to 14) (size 15 to 20)
#    0.000    1.333    1.667    5.500    7.000    1.667 
#    0.000    2.500    0.000    0.000    0.000    0.000 
#    0.000    0.000    0.000    0.000    0.000    0.000 
#
# Total GULP energy -133954.899188 kJ/mol
# GULP energy per Si atom -5581.454133 kJ/mol
# Density = 2.124731 g / cm^3
# Si number density = 21.295782 Si / 1000 Ang^3
#
#
#
# Elastic Constant Matrix: (Units=GPa)
#
#
# Indices 1 2 3 4 5 6 
#
# 1 100.2160 8.3722 36.2408 0.0000 0.0000 0.0000
# 2 8.3722 32.4638 7.1854 0.0000 0.0000 0.0000
# 3 36.2408 7.1854 134.2279 0.0000 0.0000 0.0000
# 4 0.0000 0.0000 0.0000 15.6178 0.0000 0.0000
# 5 0.0000 0.0000 0.0000 0.0000 31.3718 0.0000
# 6 0.0000 0.0000 0.0000 0.0000 0.0000 8.3160
#
#
#
# Elastic Compliance Matrix: (Units=1/GPa)
#
#
# Indices 1 2 3 4 5 6 
#
# 1 0.011218 -0.002249 -0.002908 0.000000 0.000000 0.000000
# 2 -0.002249 0.031624 -0.001086 0.000000 0.000000 0.000000
# 3 -0.002908 -0.001086 0.008293 0.000000 0.000000 0.000000
# 4 0.000000 0.000000 0.000000 0.064030 0.000000 0.000000
# 5 0.000000 0.000000 0.000000 0.000000 0.031876 0.000000
# 6 0.000000 0.000000 0.000000 0.000000 0.000000 0.120250
#
#
# Mechanical properties :
#
#
# Convention : Reuss Voigt Hill
#
# Bulk Modulus (GPa) = 25.87403 41.16716 33.52060
# Shear Modulus (GPa) = 17.08466 25.40173 21.24319
#
# Velocity S-wave (km/s) = 2.83548 3.45745 3.16180
# Velocity P-wave (km/s) = 4.78500 5.94237 5.39481
#
# Compressibility (1/GPa) = 0.03864879
#
# Stress axis : x y z
#
# Youngs Moduli (GPa) = 89.14145 31.62160 120.57800
#
# Poissons Ratio (x) = 0.07113 0.35069
# Poissons Ratio (y) = 0.20051 0.13089
# Poissons Ratio (z) = 0.25926 0.03433
#
# Static dielectric constant tensor:
#      x y z
#    x 1.797520 0.000000 0.000000 
#    y 0.000000 1.778880 0.000000 
#    z 0.000000 0.000000 1.799620 
# 
# From -- ./inp_files/30240.got.cif
#   From: 2010.05.17/outbox.cif.g08.bks.cpg/sg23_16_cif.got.tgz:30240.got - 2010.06.04 12:02:01.
