data_PCOD9329194
_publ_section_title
;
Structure prediction by ZEFSAII (Michael W. Deem and Ramdas Pophale) SiO2 
 PCOD9329194
Probable space group: F 2 2 2
;
_chemical_formula_sum "Si O2"
_cell_formula_units_Z 72
_cell_length_a 12.024620
_cell_length_b 16.249517
_cell_length_c 12.507765
_cell_angle_alpha 90.000000
_cell_angle_beta 90.000000
_cell_angle_gamma 90.000000
_cell_volume 2443.945575
_symmetry_space_group_name_H-M "F 2 2 2"
_symmetry_group_IT_number 22
_symmetry_cell_setting 'orthorhombic'
loop_
_space_group_symop_operation_xyz
x,y,z
-x,-y,z
x,-y,-z
-x,y,-z
x,1/2+y,1/2+z
-x,1/2-y,1/2+z
x,1/2-y,1/2-z
-x,1/2+y,1/2-z
1/2+x,y,1/2+z
1/2-x,-y,1/2+z
1/2+x,-y,1/2-z
1/2-x,y,1/2-z
1/2+x,1/2+y,z
1/2-x,1/2-y,z
1/2+x,1/2-y,-z
1/2-x,1/2+y,-z
loop_
_atom_site_type_symbol
_atom_site_label
_atom_site_fract_x
_atom_site_fract_y
_atom_site_fract_z
Si Si1 0.671482 0.904999 0.610443
Si Si2 0.570552 0.750000 0.250000
Si Si3 0.404647 0.228261 0.921332
Si Si4 0.736248 0.857348 0.402591
Si Si5 0.880063 0.504768 0.815585
O O1 0.650103 0.808781 0.632512
O O2 0.658540 0.909512 0.483304
O O3 0.800199 0.926588 0.634824
O O4 0.610734 0.964665 0.693318
O O5 0.486730 0.803913 0.174614
O O6 0.654636 0.803782 0.325715
O O7 0.500000 0.261715 0.000000
O O8 0.321476 0.186882 0.010763
O O9 0.814437 0.921155 0.340300
O O10 0.000000 0.500000 0.866279
#
# Coordination Sequence:
#
# PCOD9329194 Si02
#       5
#    16   8  16  16  16
#     4  11  28  59  82 141 190 242 320 410 475 601
#     4  12  32  61 101 146 200 259 336 415 504 576
#     4  12  30  54  98 140 190 258 332 405 502 577
#     4  12  30  62  94 146 193 260 336 409 480 622
#     4  11  30  58  99 133 197 262 324 405 516 585
#
# _framework density 29.460556
#
# number of rings (size 3 to 8) (size 9 to 14) (size 15 to 20)
#    0.000    0.444    2.222    1.333    9.333   11.556 
#   12.000    0.000    0.000    0.000    0.000    0.000 
#    0.000    0.000    0.000    0.000    0.000    0.000 
#
# Total GULP energy -100428.583546 kJ/mol
# GULP energy per Si atom -5579.365753 kJ/mol
# Density = 2.939350 g / cm^3
# Si number density = 29.460556 Si / 1000 Ang^3
#
#
#
# Elastic Constant Matrix: (Units=GPa)
#
#
# Indices 1 2 3 4 5 6 
#
# 1 165.6422 87.8553 86.1730 0.0000 0.0000 0.0000
# 2 87.8553 159.8489 125.7952 0.0000 0.0000 0.0000
# 3 86.1730 125.7952 221.0253 0.0000 0.0000 0.0000
# 4 0.0000 0.0000 0.0000 85.9419 0.0000 0.0000
# 5 0.0000 0.0000 0.0000 0.0000 67.7297 0.0000
# 6 0.0000 0.0000 0.0000 0.0000 0.0000 54.3457
#
#
#
# Elastic Compliance Matrix: (Units=1/GPa)
#
#
# Indices 1 2 3 4 5 6 
#
# 1 0.008697 -0.003825 -0.001214 0.000000 0.000000 0.000000
# 2 -0.003825 0.013013 -0.005915 0.000000 0.000000 0.000000
# 3 -0.001214 -0.005915 0.008364 0.000000 0.000000 0.000000
# 4 0.000000 0.000000 0.000000 0.011636 0.000000 0.000000
# 5 0.000000 0.000000 0.000000 0.000000 0.014765 0.000000
# 6 0.000000 0.000000 0.000000 0.000000 0.000000 0.018401
#
#
# Mechanical properties :
#
#
# Convention : Reuss Voigt Hill
#
# Bulk Modulus (GPa) = 122.44749 127.35151 124.89950
# Shear Modulus (GPa) = 50.24838 58.04966 54.14902
#
# Velocity S-wave (km/s) = 4.13439 4.44376 4.29186
# Velocity P-wave (km/s) = 8.02772 8.34571 8.18826
#
# Compressibility (1/GPa) = 0.00816677
#
# Stress axis : x y z
#
# Youngs Moduli (GPa) = 114.97784 76.84621 119.55661
#
# Poissons Ratio (x) = 0.29392 0.14515
# Poissons Ratio (y) = 0.43976 0.70719
# Poissons Ratio (z) = 0.13959 0.45455
#
# Static dielectric constant tensor:
#      x y z
#    x 2.314080 0.000000 0.000000 
#    y 0.000000 2.589200 0.000000 
#    z 0.000000 0.000000 2.420980 
# 
# From -- ./inp_files/29073.got.cif
#   From: 2010.05.17/outbox.cif.g08.bks.cpg/sg22_15_cif.got.tgz:29073.got - 2010.06.03 23:40:54.
