data_PCOD9329588
_publ_section_title
;
Structure prediction by ZEFSAII (Michael W. Deem and Ramdas Pophale) SiO2 
 PCOD9329588
Probable space group: I 2 2 2
;
_chemical_formula_sum "Si O2"
_cell_formula_units_Z 60
_cell_length_a 11.924652
_cell_length_b 9.380146
_cell_length_c 25.559734
_cell_angle_alpha 90.000000
_cell_angle_beta 90.000000
_cell_angle_gamma 90.000000
_cell_volume 2858.983453
_symmetry_space_group_name_H-M "I 2 2 2"
_symmetry_group_IT_number 23
_symmetry_cell_setting 'orthorhombic'
loop_
_space_group_symop_operation_xyz
x,y,z
-x,-y,z
x,-y,-z
-x,y,-z
1/2+x,1/2+y,1/2+z
1/2-x,1/2-y,1/2+z
1/2+x,1/2-y,1/2-z
1/2-x,1/2+y,1/2-z
loop_
_atom_site_type_symbol
_atom_site_label
_atom_site_fract_x
_atom_site_fract_y
_atom_site_fract_z
Si Si1 0.678437 0.591311 0.696814
Si Si2 0.189411 0.666248 0.718086
Si Si3 0.845953 0.363427 0.398792
Si Si4 0.480093 0.744515 0.639333
Si Si5 0.196545 0.334259 0.936397
Si Si6 0.162722 0.663580 0.944452
Si Si7 0.397789 0.811983 0.101584
Si Si8 0.500000 0.000000 0.718623
O O1 0.696663 0.426299 0.712234
O O2 0.695499 0.695213 0.745888
O O3 0.779040 0.626451 0.656197
O O4 0.560618 0.631172 0.669038
O O5 0.143126 0.705234 0.661316
O O6 0.100153 0.560356 0.745948
O O7 0.765403 0.269301 0.433943
O O8 0.866058 0.526806 0.415293
O O9 0.968991 0.296043 0.397167
O O10 0.364317 0.732759 0.606656
O O11 0.560138 0.792182 0.591642
O O12 0.462438 0.871316 0.680916
O O13 0.188488 0.502735 0.925691
O O14 0.326551 0.291561 0.934850
O O15 0.142487 0.324093 0.993776
#
# Coordination Sequence:
#
# PCOD9329588 Si02
#       8
#     8   8   8   8   8   8   8   4
#     4   9  20  35  60  85 116 155 198 249 287 364
#     4  10  20  35  57  86 116 155 201 237 300 349
#     4   9  20  42  59  81 114 156 207 244 303 363
#     4  10  19  36  60  86 119 155 194 240 305 367
#     4  11  22  36  61  90 119 153 195 251 310 363
#     4  10  21  38  61  89 116 150 200 254 303 366
#     4  10  22  39  61  81 117 162 197 254 300 366
#     4  10  18  32  63  82 112 163 198 238 288 366
#
# _framework density 20.986481000000001
#
# number of rings (size 3 to 8) (size 9 to 14) (size 15 to 20)
#    0.000    2.133    1.333    2.000    1.867    2.667 
#    0.000    8.667    0.000    4.800    0.000    0.000 
#    0.000    0.000    0.000    0.000    0.000    0.000 
#
# Total GULP energy -167447.800417 kJ/mol
# GULP energy per Si atom -5581.593347 kJ/mol
# Density = 2.093871 g / cm^3
# Si number density = 20.986481 Si / 1000 Ang^3
#
#
#
# Elastic Constant Matrix: (Units=GPa)
#
#
# Indices 1 2 3 4 5 6 
#
# 1 85.9978 14.1450 9.0489 0.0000 0.0000 0.0000
# 2 14.1450 37.9259 14.9608 0.0000 0.0000 0.0000
# 3 9.0489 14.9608 55.9292 0.0000 0.0000 0.0000
# 4 0.0000 0.0000 0.0000 17.2126 0.0000 0.0000
# 5 0.0000 0.0000 0.0000 0.0000 23.0881 0.0000
# 6 0.0000 0.0000 0.0000 0.0000 0.0000 20.4919
#
#
#
# Elastic Compliance Matrix: (Units=1/GPa)
#
#
# Indices 1 2 3 4 5 6 
#
# 1 0.012425 -0.004294 -0.000862 0.000000 0.000000 0.000000
# 2 -0.004294 0.030962 -0.007587 0.000000 0.000000 0.000000
# 3 -0.000862 -0.007587 0.020049 0.000000 0.000000 0.000000
# 4 0.000000 0.000000 0.000000 0.058097 0.000000 0.000000
# 5 0.000000 0.000000 0.000000 0.000000 0.043312 0.000000
# 6 0.000000 0.000000 0.000000 0.000000 0.000000 0.048800
#
#
# Mechanical properties :
#
#
# Convention : Reuss Voigt Hill
#
# Bulk Modulus (GPa) = 26.35095 28.46247 27.40671
# Shear Modulus (GPa) = 19.85850 21.60505 20.73177
#
# Velocity S-wave (km/s) = 3.07946 3.21202 3.14644
# Velocity P-wave (km/s) = 5.02270 5.22952 5.12715
#
# Compressibility (1/GPa) = 0.03794930
#
# Stress axis : x y z
#
# Youngs Moduli (GPa) = 80.48164 32.29779 49.87839
#
# Poissons Ratio (x) = 0.13870 0.04298
# Poissons Ratio (y) = 0.34561 0.37845
# Poissons Ratio (z) = 0.06934 0.24506
#
# Static dielectric constant tensor:
#      x y z
#    x 1.809300 0.000000 0.000000 
#    y 0.000000 1.752810 0.000000 
#    z 0.000000 0.000000 1.742290 
# 
# From -- ./inp_files/29466.got.cif
#   From: 2010.05.17/outbox.cif.g08.bks.cpg/sg23_15_cif.got.tgz:29466.got - 2010.06.04 12:02:01.
