data_PCOD9329809
_publ_section_title
;
Structure prediction by ZEFSAII (Michael W. Deem and Ramdas Pophale) SiO2 
 PCOD9329809
Probable space group: I 2 2 2
;
_chemical_formula_sum "Si O2"
_cell_formula_units_Z 56
_cell_length_a 5.171591
_cell_length_b 32.010357
_cell_length_c 14.198921
_cell_angle_alpha 90.000000
_cell_angle_beta 90.000000
_cell_angle_gamma 90.000000
_cell_volume 2350.552911
_symmetry_space_group_name_H-M "I 2 2 2"
_symmetry_group_IT_number 23
_symmetry_cell_setting 'orthorhombic'
loop_
_space_group_symop_operation_xyz
x,y,z
-x,-y,z
x,-y,-z
-x,y,-z
1/2+x,1/2+y,1/2+z
1/2-x,1/2-y,1/2+z
1/2+x,1/2-y,1/2-z
1/2-x,1/2+y,1/2-z
loop_
_atom_site_type_symbol
_atom_site_label
_atom_site_fract_x
_atom_site_fract_y
_atom_site_fract_z
Si Si1 0.436794 0.226735 0.387428
Si Si2 0.388712 0.043834 0.142566
Si Si3 0.744074 0.687750 0.434805
Si Si4 0.119126 0.543372 0.136671
Si Si5 0.403051 0.598041 0.647843
Si Si6 0.396993 0.403772 0.131973
Si Si7 0.446573 0.690707 0.895343
O O1 0.500000 0.219518 0.500000
O O2 0.288034 0.270527 0.372495
O O3 0.720298 0.217252 0.347326
O O4 0.229510 0.193303 0.349693
O O5 0.319090 0.034838 0.252464
O O6 0.640133 0.072399 0.138857
O O7 0.143158 0.070843 0.104954
O O8 0.500000 0.000000 0.103464
O O9 0.500000 0.694907 0.500000
O O10 0.674453 0.643683 0.388526
O O11 0.000000 0.686424 0.500000
O O12 0.374351 0.565622 0.095557
O O13 0.000000 0.500000 0.100402
O O14 0.881080 0.574908 0.127912
O O15 0.465494 0.602912 0.758020
O O16 0.372308 0.357371 0.092168
O O17 0.500000 0.708778 0.000000
#
# Coordination Sequence:
#
# PCOD9329809 Si02
#       7
#     8   8   8   8   8   8   8
#     4   9  18  33  52  73  96 132 178 213 246 306
#     4   9  17  31  52  76 102 134 172 211 252 306
#     4  11  21  36  56  76 101 134 173 215 261 315
#     4   9  17  30  50  74 101 136 175 212 252 306
#     4  10  20  33  52  79 105 131 170 217 263 310
#     4  10  19  32  51  77 106 133 169 218 265 306
#     4  10  19  33  53  75 102 136 175 214 255 307
#
# _framework density 23.824183999999999
#
# number of rings (size 3 to 8) (size 9 to 14) (size 15 to 20)
#    0.000    2.286    0.000    4.714    0.000    3.429 
#    0.000    1.429    0.000    9.000    0.000    0.000 
#    0.000    0.000    0.000    0.000    0.000    0.000 
#
# Total GULP energy -156097.103409 kJ/mol
# GULP energy per Si atom -5574.896550 kJ/mol
# Density = 2.376996 g / cm^3
# Si number density = 23.824184 Si / 1000 Ang^3
#
#
#
# Elastic Constant Matrix: (Units=GPa)
#
#
# Indices 1 2 3 4 5 6 
#
# 1 151.2022 42.9642 28.1293 0.0000 0.0000 0.0000
# 2 42.9642 124.9554 13.9475 0.0000 0.0000 0.0000
# 3 28.1293 13.9475 53.0615 0.0000 0.0000 0.0000
# 4 0.0000 0.0000 0.0000 8.3207 0.0000 0.0000
# 5 0.0000 0.0000 0.0000 0.0000 8.2531 0.0000
# 6 0.0000 0.0000 0.0000 0.0000 0.0000 37.4190
#
#
#
# Elastic Compliance Matrix: (Units=1/GPa)
#
#
# Indices 1 2 3 4 5 6 
#
# 1 0.007945 -0.002330 -0.003600 0.000000 0.000000 0.000000
# 2 -0.002330 0.008928 -0.001112 0.000000 0.000000 0.000000
# 3 -0.003600 -0.001112 0.021046 0.000000 0.000000 0.000000
# 4 0.000000 0.000000 0.000000 0.120183 0.000000 0.000000
# 5 0.000000 0.000000 0.000000 0.000000 0.121167 0.000000
# 6 0.000000 0.000000 0.000000 0.000000 0.000000 0.026724
#
#
# Mechanical properties :
#
#
# Convention : Reuss Voigt Hill
#
# Bulk Modulus (GPa) = 41.95078 55.47791 48.71434
# Shear Modulus (GPa) = 15.24288 27.07708 21.15998
#
# Velocity S-wave (km/s) = 2.53218 3.37491 2.98346
# Velocity P-wave (km/s) = 5.11820 6.20674 5.68857
#
# Compressibility (1/GPa) = 0.02383746
#
# Stress axis : x y z
#
# Youngs Moduli (GPa) = 125.85843 112.00573 47.51393
#
# Poissons Ratio (x) = 0.26099 0.17103
# Poissons Ratio (y) = 0.29327 0.05281
# Poissons Ratio (z) = 0.45304 0.12450
#
# Static dielectric constant tensor:
#      x y z
#    x 1.912830 0.000000 0.000000 
#    y 0.000000 2.295510 0.000000 
#    z 0.000000 0.000000 2.025590 
# 
# From -- ./inp_files/25829.got.cif
#   From: 2010.05.17/outbox.cif.g08.bks.cpg/sg23_13_cif.got.tgz:25829.got - 2010.06.04 12:02:01.
