data_PCOD9329237
_publ_section_title
;
Structure prediction by ZEFSAII (Michael W. Deem and Ramdas Pophale) SiO2 
 PCOD9329237
Probable space group: F 2 2 2
;
_chemical_formula_sum "Si O2"
_cell_formula_units_Z 120
_cell_length_a 14.078843
_cell_length_b 15.713386
_cell_length_c 34.012726
_cell_angle_alpha 90.000000
_cell_angle_beta 90.000000
_cell_angle_gamma 90.000000
_cell_volume 7524.509339
_symmetry_space_group_name_H-M "F 2 2 2"
_symmetry_group_IT_number 22
_symmetry_cell_setting 'orthorhombic'
loop_
_space_group_symop_operation_xyz
x,y,z
-x,-y,z
x,-y,-z
-x,y,-z
x,1/2+y,1/2+z
-x,1/2-y,1/2+z
x,1/2-y,1/2-z
-x,1/2+y,1/2-z
1/2+x,y,1/2+z
1/2-x,-y,1/2+z
1/2+x,-y,1/2-z
1/2-x,y,1/2-z
1/2+x,1/2+y,z
1/2-x,1/2-y,z
1/2+x,1/2-y,-z
1/2-x,1/2+y,-z
loop_
_atom_site_type_symbol
_atom_site_label
_atom_site_fract_x
_atom_site_fract_y
_atom_site_fract_z
Si Si1 0.712520 0.000000 0.704977
Si Si2 0.500000 0.328434 0.280205
Si Si3 0.689430 0.164956 0.167726
Si Si4 0.000000 0.500000 0.729028
Si Si5 0.114451 0.101861 0.586096
Si Si6 0.114451 0.398139 0.086096
Si Si7 0.388282 0.603125 0.500000
Si Si8 0.689430 0.835044 0.167726
O O1 0.750000 0.000000 0.750000
O O2 0.598311 0.000000 0.705186
O O3 0.753506 0.083773 0.684161
O O4 0.753506 0.916227 0.684161
O O5 0.500000 0.250000 0.250000
O O6 0.593069 0.326679 0.307260
O O7 0.500000 0.416303 0.256117
O O8 0.406931 0.326679 0.307260
O O9 0.750000 0.250000 0.172374
O O10 0.662578 0.148217 0.122443
O O11 0.149437 0.130219 0.542665
O O12 0.000000 0.113756 0.587881
O O13 0.130396 1.000000 0.589898
O O14 0.149437 0.369781 0.042665
O O15 0.162578 0.351783 0.122443
O O16 0.383810 0.500000 0.500000
O O17 0.500000 0.625178 0.500000
O O18 0.750000 0.750000 0.172374
#
# Coordination Sequence:
#
# PCOD9329237 Si02
#       8
#    16  16  16   8  16  16  16  16
#     4  12  24  40  58  79 105 141 183 225 269 321
#     4  12  24  38  56  75 104 147 184 232 270 314
#     4  12  24  36  55  81 110 141 186 228 270 323
#     4  12  24  40  60  76 102 140 186 218 278 318
#     4   9  16  31  55  81 110 139 174 221 277 327
#     4   9  16  31  55  81 110 139 174 221 277 327
#     4   7  12  24  49  82 108 135 168 214 273 329
#     4  12  24  36  55  81 110 141 186 228 270 323
#
# _framework density 15.947884
#
# number of rings (size 3 to 8) (size 9 to 14) (size 15 to 20)
#    0.000    1.467    5.333    3.200    0.000    0.000 
#    0.000    0.667    0.000    0.000    0.000    0.000 
#    0.000    1.067    0.000    0.000    0.000    0.000 
#
# Total GULP energy -167355.939533 kJ/mol
# GULP energy per Si atom -5578.531318 kJ/mol
# Density = 1.591159 g / cm^3
# Si number density = 15.947884 Si / 1000 Ang^3
#
#
#
# Elastic Constant Matrix: (Units=GPa)
#
#
# Indices 1 2 3 4 5 6 
#
# 1 119.4477 56.4293 62.8380 0.0000 0.0000 0.0000
# 2 56.4293 120.3512 68.0886 0.0000 0.0000 0.0000
# 3 62.8380 68.0886 145.6063 0.0000 0.0000 0.0000
# 4 0.0000 0.0000 0.0000 17.1735 0.0000 0.0000
# 5 0.0000 0.0000 0.0000 0.0000 14.6455 0.0000
# 6 0.0000 0.0000 0.0000 0.0000 0.0000 23.0246
#
#
#
# Elastic Compliance Matrix: (Units=1/GPa)
#
#
# Indices 1 2 3 4 5 6 
#
# 1 0.011895 -0.003635 -0.003434 0.000000 0.000000 0.000000
# 2 -0.003635 0.012409 -0.004234 0.000000 0.000000 0.000000
# 3 -0.003434 -0.004234 0.010330 0.000000 0.000000 0.000000
# 4 0.000000 0.000000 0.000000 0.058229 0.000000 0.000000
# 5 0.000000 0.000000 0.000000 0.000000 0.068280 0.000000
# 6 0.000000 0.000000 0.000000 0.000000 0.000000 0.043432
#
#
# Mechanical properties :
#
#
# Convention : Reuss Voigt Hill
#
# Bulk Modulus (GPa) = 83.13547 84.45743 83.79645
# Shear Modulus (GPa) = 21.62728 24.17203 22.89965
#
# Velocity S-wave (km/s) = 3.68655 3.89741 3.79345
# Velocity P-wave (km/s) = 8.38830 8.56308 8.47614
#
# Compressibility (1/GPa) = 0.01202856
#
# Stress axis : x y z
#
# Youngs Moduli (GPa) = 84.06569 80.58962 96.80852
#
# Poissons Ratio (x) = 0.29292 0.33244
# Poissons Ratio (y) = 0.30555 0.40988
# Poissons Ratio (z) = 0.28868 0.34121
#
# Static dielectric constant tensor:
#      x y z
#    x 1.518990 0.000000 0.000000 
#    y 0.000000 1.509150 0.000000 
#    z 0.000000 0.000000 1.555960 
# 
# From -- ./inp_files/56571.got.cif
#   From: 2010.05.17/outbox.cif.g08.bks.cpg/sg22_29_cif.got.tgz:56571.got - 2010.06.03 23:40:54.
