data_PCOD9329664
_publ_section_title
;
Structure prediction by ZEFSAII (Michael W. Deem and Ramdas Pophale) SiO2 
 PCOD9329664
Probable space group: I 2 2 2
;
_chemical_formula_sum "Si O2"
_cell_formula_units_Z 56
_cell_length_a 18.239753
_cell_length_b 12.757873
_cell_length_c 12.709341
_cell_angle_alpha 90.000000
_cell_angle_beta 90.000000
_cell_angle_gamma 90.000000
_cell_volume 2957.469399
_symmetry_space_group_name_H-M "I 2 2 2"
_symmetry_group_IT_number 23
_symmetry_cell_setting 'orthorhombic'
loop_
_space_group_symop_operation_xyz
x,y,z
-x,-y,z
x,-y,-z
-x,y,-z
1/2+x,1/2+y,1/2+z
1/2-x,1/2-y,1/2+z
1/2+x,1/2-y,1/2-z
1/2-x,1/2+y,1/2-z
loop_
_atom_site_type_symbol
_atom_site_label
_atom_site_fract_x
_atom_site_fract_y
_atom_site_fract_z
Si Si1 0.832971 0.867431 0.307431
Si Si2 0.219684 0.801375 0.260840
Si Si3 0.210794 0.530675 0.884913
Si Si4 0.843300 0.623204 0.610207
Si Si5 0.186610 0.997241 0.881464
Si Si6 0.572411 0.770664 0.928965
Si Si7 0.073482 0.543538 0.728577
O O1 0.789951 0.760105 0.282857
O O2 0.857183 0.923197 0.199437
O O3 0.897785 0.839606 0.386063
O O4 0.770334 0.943276 0.353102
O O5 0.245238 0.861513 0.366769
O O6 0.163239 0.712206 0.299025
O O7 0.195510 0.889765 0.176402
O O8 0.142544 0.539205 0.806156
O O9 0.185387 0.500000 0.000000
O O10 0.766423 0.560229 0.609012
O O11 0.864479 0.677670 0.501612
O O12 0.905339 0.539383 0.637691
O O13 0.157278 0.000000 0.000000
O O14 0.560894 0.846034 0.828408
O O15 0.500000 0.763277 0.000000
O O16 0.000000 0.500000 0.781021
#
# Coordination Sequence:
#
# PCOD9329664 Si02
#       7
#     8   8   8   8   8   8   8
#     4  10  20  36  55  90 119 156 214 253 312 377
#     4  10  18  35  55  84 119 154 206 262 304 377
#     4  11  22  38  59  82 123 163 203 265 311 372
#     4  11  20  33  56  87 120 159 198 255 326 374
#     4  10  19  33  59  86 120 157 201 264 316 364
#     4  12  23  36  61  90 127 162 200 260 324 385
#     4  12  22  37  56  91 122 157 204 242 315 400
#
# _framework density 18.935108
#
# number of rings (size 3 to 8) (size 9 to 14) (size 15 to 20)
#    0.000    1.143    7.143    3.000    0.000    1.429 
#    0.000    0.000    0.000   10.714    0.000    1.000 
#    0.000    0.000    0.000    0.000    0.000    0.000 
#
# Total GULP energy -156177.773025 kJ/mol
# GULP energy per Si atom -5577.777608 kJ/mol
# Density = 1.889201 g / cm^3
# Si number density = 18.935108 Si / 1000 Ang^3
#
#
#
# Elastic Constant Matrix: (Units=GPa)
#
#
# Indices 1 2 3 4 5 6 
#
# 1 63.7340 24.0189 17.5696 0.0000 0.0000 0.0000
# 2 24.0189 80.0878 22.4924 0.0000 0.0000 0.0000
# 3 17.5696 22.4924 93.8509 0.0000 0.0000 0.0000
# 4 0.0000 0.0000 0.0000 29.7934 0.0000 0.0000
# 5 0.0000 0.0000 0.0000 0.0000 30.4956 0.0000
# 6 0.0000 0.0000 0.0000 0.0000 0.0000 18.3813
#
#
#
# Elastic Compliance Matrix: (Units=1/GPa)
#
#
# Indices 1 2 3 4 5 6 
#
# 1 0.018119 -0.004805 -0.002240 0.000000 0.000000 0.000000
# 2 -0.004805 0.014661 -0.002614 0.000000 0.000000 0.000000
# 3 -0.002240 -0.002614 0.011701 0.000000 0.000000 0.000000
# 4 0.000000 0.000000 0.000000 0.033564 0.000000 0.000000
# 5 0.000000 0.000000 0.000000 0.000000 0.032792 0.000000
# 6 0.000000 0.000000 0.000000 0.000000 0.000000 0.054403
#
#
# Mechanical properties :
#
#
# Convention : Reuss Voigt Hill
#
# Bulk Modulus (GPa) = 39.74190 40.64827 40.19509
# Shear Modulus (GPa) = 25.91389 27.30685 26.61037
#
# Velocity S-wave (km/s) = 3.70342 3.80166 3.75286
# Velocity P-wave (km/s) = 6.27066 6.38622 6.32871
#
# Compressibility (1/GPa) = 0.02516236
#
# Stress axis : x y z
#
# Youngs Moduli (GPa) = 55.19211 68.20597 85.46147
#
# Poissons Ratio (x) = 0.32771 0.19147
# Poissons Ratio (y) = 0.26518 0.22342
# Poissons Ratio (z) = 0.12365 0.17831
#
# Static dielectric constant tensor:
#      x y z
#    x 1.667460 0.000000 0.000000 
#    y 0.000000 1.709810 0.000000 
#    z 0.000000 0.000000 1.708090 
# 
# From -- ./inp_files/18008.got.cif
#   From: 2010.05.17/outbox.cif.g08.bks.cpg/sg23_10_cif.got.tgz:18008.got - 2010.06.04 12:02:01.
