data_PCOD9329475
_publ_section_title
;
Structure prediction by ZEFSAII (Michael W. Deem and Ramdas Pophale) SiO2 
 PCOD9329475
Probable space group: I 2 2 2
;
_chemical_formula_sum "Si O2"
_cell_formula_units_Z 64
_cell_length_a 15.892348
_cell_length_b 24.850260
_cell_length_c 8.728651
_cell_angle_alpha 90.000000
_cell_angle_beta 90.000000
_cell_angle_gamma 90.000000
_cell_volume 3447.197235
_symmetry_space_group_name_H-M "I 2 2 2"
_symmetry_group_IT_number 23
_symmetry_cell_setting 'orthorhombic'
loop_
_space_group_symop_operation_xyz
x,y,z
-x,-y,z
x,-y,-z
-x,y,-z
1/2+x,1/2+y,1/2+z
1/2-x,1/2-y,1/2+z
1/2+x,1/2-y,1/2-z
1/2-x,1/2+y,1/2-z
loop_
_atom_site_type_symbol
_atom_site_label
_atom_site_fract_x
_atom_site_fract_y
_atom_site_fract_z
Si Si1 0.612694 0.654436 0.146980
Si Si2 0.990801 0.224675 0.817889
Si Si3 0.776920 0.937087 0.498508
Si Si4 0.742780 0.834024 0.888202
Si Si5 0.061900 0.657519 0.188452
Si Si6 0.732026 0.128558 0.792288
Si Si7 0.618764 0.122087 0.364825
Si Si8 0.672235 0.277099 0.134207
O O1 0.525128 0.672295 0.225375
O O2 0.649051 0.596940 0.085043
O O3 0.677911 0.670382 0.278866
O O4 0.625359 0.692255 0.001349
O O5 0.037729 0.280898 0.775058
O O6 0.895437 0.234844 0.765893
O O7 0.000000 0.216863 0.000000
O O8 0.766572 0.916300 0.323543
O O9 0.685585 0.923202 0.576997
O O10 0.793383 0.000000 0.500000
O O11 0.667449 0.854234 0.780019
O O12 0.715430 0.774793 0.937555
O O13 0.762298 0.870966 0.033624
O O14 0.131223 0.631644 0.297424
O O15 0.979372 0.619099 0.183296
O O16 0.104951 0.657460 0.019137
O O17 0.760774 0.183537 0.710492
#
# Coordination Sequence:
#
# PCOD9329475 Si02
#       8
#     8   8   8   8   8   8   8   8
#     4  10  23  34  52  80 109 145 194 232 276 356
#     4  12  20  31  53  81 120 155 179 223 284 348
#     4   9  20  42  62  76 102 144 196 249 290 326
#     4  11  18  33  49  80 113 146 179 228 283 338
#     4  10  17  34  48  79 117 152 181 210 276 349
#     4  10  22  32  54  79 108 143 191 233 275 349
#     4   9  18  32  53  79 111 147 185 225 273 352
#     4  11  20  33  49  77 116 156 185 213 276 356
#
# _framework density 18.565807
#
# number of rings (size 3 to 8) (size 9 to 14) (size 15 to 20)
#    0.000    1.750    2.500    4.125    0.000    0.500 
#    0.000    7.500    0.000    6.000    0.000   14.000 
#    0.000    0.000    0.000    0.000    0.000    0.000 
#
# Total GULP energy -178185.036420 kJ/mol
# GULP energy per Si atom -5568.282388 kJ/mol
# Density = 1.852355 g / cm^3
# Si number density = 18.565807 Si / 1000 Ang^3
#
#
#
# Elastic Constant Matrix: (Units=GPa)
#
#
# Indices 1 2 3 4 5 6 
#
# 1 36.9369 6.6439 8.1974 0.0000 0.0000 0.0000
# 2 6.6439 96.1910 10.8702 0.0000 0.0000 0.0000
# 3 8.1974 10.8702 68.4866 0.0001 0.0001 0.0000
# 4 0.0000 0.0000 0.0001 7.8139 0.0000 0.0000
# 5 0.0000 0.0000 0.0001 0.0000 26.2576 0.0000
# 6 0.0000 0.0000 0.0000 0.0000 0.0000 13.7998
#
#
#
# Elastic Compliance Matrix: (Units=1/GPa)
#
#
# Indices 1 2 3 4 5 6 
#
# 1 0.028048 -0.001586 -0.003105 0.000000 0.000000 0.000000
# 2 -0.001586 0.010676 -0.001505 0.000000 0.000000 0.000000
# 3 -0.003105 -0.001505 0.015212 0.000000 0.000000 0.000000
# 4 0.000000 0.000000 0.000000 0.127976 0.000000 0.000000
# 5 0.000000 0.000000 0.000000 0.000000 0.038084 0.000000
# 6 0.000000 0.000000 0.000000 0.000000 0.000000 0.072465
#
#
# Mechanical properties :
#
#
# Convention : Reuss Voigt Hill
#
# Bulk Modulus (GPa) = 24.07161 28.11528 26.09345
# Shear Modulus (GPa) = 15.68871 21.30113 18.49492
#
# Velocity S-wave (km/s) = 2.91010 3.39090 3.15966
# Velocity P-wave (km/s) = 4.92801 5.52335 5.23415
#
# Compressibility (1/GPa) = 0.04154271
#
# Stress axis : x y z
#
# Youngs Moduli (GPa) = 35.65356 93.67175 65.73802
#
# Poissons Ratio (x) = 0.14859 0.20414
# Poissons Ratio (y) = 0.05656 0.09891
# Poissons Ratio (z) = 0.11072 0.14093
#
# Static dielectric constant tensor:
#      x y z
#    x 1.724170 0.000000 0.000000 
#    y 0.000000 1.628070 0.000000 
#    z 0.000000 0.000000 1.661950 
# 
# From -- ./inp_files/11487.got.cif
#   From: 2010.05.17/outbox.cif.g08.bks.cpg/sg23_6_cif.got.tgz:11487.got - 2010.06.04 12:02:01.
