data_PCOD9329439
_publ_section_title
;
Structure prediction by ZEFSAII (Michael W. Deem and Ramdas Pophale) SiO2 
 PCOD9329439
Probable space group: I 2 2 2
;
_chemical_formula_sum "Si O2"
_cell_formula_units_Z 64
_cell_length_a 12.579544
_cell_length_b 8.858830
_cell_length_c 31.721414
_cell_angle_alpha 90.000000
_cell_angle_beta 90.000000
_cell_angle_gamma 90.000000
_cell_volume 3535.035701
_symmetry_space_group_name_H-M "I 2 2 2"
_symmetry_group_IT_number 23
_symmetry_cell_setting 'orthorhombic'
loop_
_space_group_symop_operation_xyz
x,y,z
-x,-y,z
x,-y,-z
-x,y,-z
1/2+x,1/2+y,1/2+z
1/2-x,1/2-y,1/2+z
1/2+x,1/2-y,1/2-z
1/2-x,1/2+y,1/2-z
loop_
_atom_site_type_symbol
_atom_site_label
_atom_site_fract_x
_atom_site_fract_y
_atom_site_fract_z
Si Si1 0.593360 0.892870 0.874219
Si Si2 0.304369 0.164228 0.590232
Si Si3 0.713967 0.158982 0.828427
Si Si4 0.017262 0.334611 0.859275
Si Si5 0.509001 0.320686 0.805688
Si Si6 0.773120 0.687871 0.912321
Si Si7 0.567723 0.649320 0.717937
Si Si8 0.377196 0.183919 0.500727
O O1 0.537404 0.768396 0.845245
O O2 0.675055 0.797308 0.902498
O O3 0.500000 0.000000 0.893764
O O4 0.659003 0.005747 0.843967
O O5 0.250951 0.258047 0.628035
O O6 0.429239 0.159760 0.603565
O O7 0.311647 0.227493 0.542752
O O8 0.255173 0.994820 0.588691
O O9 0.630971 0.266857 0.804382
O O10 0.812257 0.128122 0.797483
O O11 0.131662 0.296773 0.878222
O O12 0.000000 0.500000 0.840081
O O13 0.987193 0.225235 0.822048
O O14 0.500000 0.500000 0.812458
O O15 0.446469 0.272027 0.763241
O O16 0.819890 0.729183 0.957850
O O17 0.500000 0.500000 0.724878
O O18 0.500000 0.236195 0.500000
O O19 0.380572 0.000000 0.500000
#
# Coordination Sequence:
#
# PCOD9329439 Si02
#       8
#     8   8   8   8   8   8   8   8
#     4  10  22  38  55  75 103 146 190 226 272 330
#     4   9  17  31  52  82 113 142 176 215 265 332
#     4  10  21  37  55  76 110 147 175 223 282 324
#     4   9  17  28  48  80 113 142 174 212 264 330
#     4  10  22  39  57  78 102 136 188 237 271 323
#     4  10  17  30  55  80 109 148 178 219 272 313
#     4  10  21  35  53  79 109 140 180 226 273 330
#     4   9  15  27  52  86 118 140 172 220 268 327
#
# _framework density 18.104482999999998
#
# number of rings (size 3 to 8) (size 9 to 14) (size 15 to 20)
#    0.000    2.375    1.250    1.500    0.000    4.500 
#    0.000    1.875    0.000    6.000    0.000   11.375 
#    0.000    0.000    0.000    0.000    0.000    0.000 
#
# Total GULP energy -178184.850613 kJ/mol
# GULP energy per Si atom -5568.276582 kJ/mol
# Density = 1.806328 g / cm^3
# Si number density = 18.104483 Si / 1000 Ang^3
#
#
#
# Elastic Constant Matrix: (Units=GPa)
#
#
# Indices 1 2 3 4 5 6 
#
# 1 110.1100 39.9062 32.5189 0.0000 0.0000 0.0000
# 2 39.9062 60.3070 22.6784 0.0000 0.0000 0.0000
# 3 32.5189 22.6784 51.6066 0.0000 0.0000 0.0000
# 4 0.0000 0.0000 0.0000 7.3601 0.0000 0.0000
# 5 0.0000 0.0000 0.0000 0.0000 30.4812 0.0000
# 6 0.0000 0.0000 0.0000 0.0000 0.0000 21.5296
#
#
#
# Elastic Compliance Matrix: (Units=1/GPa)
#
#
# Indices 1 2 3 4 5 6 
#
# 1 0.013057 -0.006644 -0.005308 0.000000 0.000000 0.000000
# 2 -0.006644 0.023245 -0.006028 0.000000 0.000000 0.000000
# 3 -0.005308 -0.006028 0.025371 0.000000 0.000000 0.000000
# 4 0.000000 0.000000 0.000000 0.135867 0.000000 0.000000
# 5 0.000000 0.000000 0.000000 0.000000 0.032807 0.000000
# 6 0.000000 0.000000 0.000000 0.000000 0.000000 0.046448
#
#
# Mechanical properties :
#
#
# Convention : Reuss Voigt Hill
#
# Bulk Modulus (GPa) = 38.89128 45.80340 42.34734
# Shear Modulus (GPa) = 15.56039 20.33553 17.94796
#
# Velocity S-wave (km/s) = 2.93486 3.35510 3.15199
# Velocity P-wave (km/s) = 5.74568 6.35321 6.05707
#
# Compressibility (1/GPa) = 0.02571270
#
# Stress axis : x y z
#
# Youngs Moduli (GPa) = 76.58440 43.01927 39.41455
#
# Poissons Ratio (x) = 0.28583 0.20922
# Poissons Ratio (y) = 0.50885 0.23761
# Poissons Ratio (z) = 0.40652 0.25934
#
# Static dielectric constant tensor:
#      x y z
#    x 1.643300 0.000000 0.000000 
#    y 0.000000 1.614690 0.000000 
#    z 0.000000 0.000000 1.627700 
# 
# From -- ./inp_files/8970.got.cif
#   From: 2010.05.17/outbox.cif.g08.bks.cpg/sg23_5_cif.got.tgz:8970.got - 2010.06.04 12:02:01.
