data_PCOD9329962
_publ_section_title
;
Structure prediction by ZEFSAII (Michael W. Deem and Ramdas Pophale) SiO2 
 PCOD9329962
Probable space group: I 2 2 2
;
_chemical_formula_sum "Si O2"
_cell_formula_units_Z 36
_cell_length_a 14.605895
_cell_length_b 13.361506
_cell_length_c 7.393777
_cell_angle_alpha 90.000000
_cell_angle_beta 90.000000
_cell_angle_gamma 90.000000
_cell_volume 1442.945517
_symmetry_space_group_name_H-M "I 2 2 2"
_symmetry_group_IT_number 23
_symmetry_cell_setting 'orthorhombic'
loop_
_space_group_symop_operation_xyz
x,y,z
-x,-y,z
x,-y,-z
-x,y,-z
1/2+x,1/2+y,1/2+z
1/2-x,1/2-y,1/2+z
1/2+x,1/2-y,1/2-z
1/2-x,1/2+y,1/2-z
loop_
_atom_site_type_symbol
_atom_site_label
_atom_site_fract_x
_atom_site_fract_y
_atom_site_fract_z
Si Si1 0.086665 0.696243 0.786818
Si Si2 0.479719 0.393879 0.290343
Si Si3 0.792844 0.814441 0.678037
Si Si4 0.278244 0.000000 0.500000
Si Si5 0.602946 0.128509 0.710515
O O1 0.192730 0.692811 0.732219
O O2 0.043395 0.802684 0.726423
O O3 0.002632 0.624027 0.729588
O O4 0.095746 0.679934 0.007238
O O5 0.500000 0.500000 0.202594
O O6 0.500000 0.400270 0.500000
O O7 0.373116 0.369795 0.283322
O O8 0.836272 0.703166 0.667522
O O9 0.776781 0.897114 0.520769
O O10 0.345165 0.974917 0.669076
#
# Coordination Sequence:
#
# PCOD9329962 Si02
#       5
#     8   8   8   4   8
#     4   9  17  34  58  81 117 152 207 253 302 367
#     4  10  19  35  58  84 113 160 208 250 306 373
#     4  10  20  34  57  87 120 158 201 260 307 362
#     4  10  22  35  61  92 120 162 215 250 317 370
#     4   9  18  36  55  85 118 157 202 259 301 364
#
# _framework density 24.948969999999999
#
# number of rings (size 3 to 8) (size 9 to 14) (size 15 to 20)
#    0.000    2.444    4.444    0.000    3.111    7.111 
#    0.000    0.556    4.889    0.000    0.000    0.000 
#    0.000    0.000    0.000    0.000    0.000    0.000 
#
# Total GULP energy -100224.996337 kJ/mol
# GULP energy per Si atom -5568.055352 kJ/mol
# Density = 2.489219 g / cm^3
# Si number density = 24.948970 Si / 1000 Ang^3
#
#
#
# Elastic Constant Matrix: (Units=GPa)
#
#
# Indices 1 2 3 4 5 6 
#
# 1 241.7291 36.0495 25.4775 0.0000 0.0000 0.0000
# 2 36.0495 95.5261 -2.5197 0.0000 0.0000 0.0000
# 3 25.4775 -2.5197 43.6783 0.0000 0.0000 0.0000
# 4 0.0000 0.0000 0.0000 17.5127 0.0000 0.0000
# 5 0.0000 0.0000 0.0000 0.0000 22.8136 0.0000
# 6 0.0000 0.0000 0.0000 0.0000 0.0000 51.6071
#
#
#
# Elastic Compliance Matrix: (Units=1/GPa)
#
#
# Indices 1 2 3 4 5 6 
#
# 1 0.004715 -0.001855 -0.002857 0.000000 0.000000 0.000000
# 2 -0.001855 0.011214 0.001729 0.000000 0.000000 0.000000
# 3 -0.002857 0.001729 0.024661 0.000000 0.000000 0.000000
# 4 0.000000 0.000000 0.000000 0.057101 0.000000 0.000000
# 5 0.000000 0.000000 0.000000 0.000000 0.043833 0.000000
# 6 0.000000 0.000000 0.000000 0.000000 0.000000 0.019377
#
#
# Mechanical properties :
#
#
# Convention : Reuss Voigt Hill
#
# Bulk Modulus (GPa) = 28.88213 55.43867 42.16040
# Shear Modulus (GPa) = 28.02562 39.84843 33.93703
#
# Velocity S-wave (km/s) = 3.35523 4.00083 3.69217
# Velocity P-wave (km/s) = 5.15865 6.60388 5.92549
#
# Compressibility (1/GPa) = 0.03462349
#
# Stress axis : x y z
#
# Youngs Moduli (GPa) = 212.10950 89.17584 40.55011
#
# Poissons Ratio (x) = 0.16538 0.11585
# Poissons Ratio (y) = 0.39336 -0.07010
# Poissons Ratio (z) = 0.60599 -0.15415
#
# Static dielectric constant tensor:
#      x y z
#    x 2.072700 0.000000 0.000000 
#    y 0.000000 2.048270 0.000000 
#    z 0.000000 0.000000 2.026240 
# 
# From -- ./inp_files/9480.got.cif
#   From: 2010.05.17/outbox.cif.g08.bks.cpg/sg23_5_cif.got.tgz:9480.got - 2010.06.04 12:02:01.
