data_PCOD9329678
_publ_section_title
;
Structure prediction by ZEFSAII (Michael W. Deem and Ramdas Pophale) SiO2 
 PCOD9329678
Probable space group: I 2 2 2
;
_chemical_formula_sum "Si O2"
_cell_formula_units_Z 48
_cell_length_a 9.123773
_cell_length_b 11.741147
_cell_length_c 21.031451
_cell_angle_alpha 90.000000
_cell_angle_beta 90.000000
_cell_angle_gamma 90.000000
_cell_volume 2252.963903
_symmetry_space_group_name_H-M "I 2 2 2"
_symmetry_group_IT_number 23
_symmetry_cell_setting 'orthorhombic'
loop_
_space_group_symop_operation_xyz
x,y,z
-x,-y,z
x,-y,-z
-x,y,-z
1/2+x,1/2+y,1/2+z
1/2-x,1/2-y,1/2+z
1/2+x,1/2-y,1/2-z
1/2-x,1/2+y,1/2-z
loop_
_atom_site_type_symbol
_atom_site_label
_atom_site_fract_x
_atom_site_fract_y
_atom_site_fract_z
Si Si1 0.091011 0.619438 0.264247
Si Si2 0.428492 0.622087 0.061175
Si Si3 0.843600 0.235259 0.688759
Si Si4 0.190917 0.138394 0.115891
Si Si5 0.646696 0.386580 0.607718
Si Si6 0.338068 0.198883 0.501015
O O1 0.219875 0.647087 0.213358
O O2 0.185508 0.633515 0.329657
O O3 0.000000 0.500000 0.258914
O O4 0.965628 0.717418 0.263235
O O5 0.500000 0.500000 0.068562
O O6 0.426366 0.684360 0.127744
O O7 0.500000 0.685152 0.000000
O O8 0.265498 0.611799 0.034851
O O9 0.756543 0.344402 0.661953
O O10 0.206479 0.246476 0.068892
O O11 0.017777 0.132778 0.134909
O O12 0.192592 0.012145 0.085462
O O13 0.658246 0.306435 0.546769
O O14 0.500000 0.151536 0.500000
#
# Coordination Sequence:
#
# PCOD9329678 Si02
#       6
#     8   8   8   8   8   8
#     4  12  25  42  64  95 132 179 230 271 337 398
#     4  10  22  43  65  90 125 174 220 266 332 390
#     4  11  24  43  63  91 133 170 222 280 322 397
#     4  10  18  35  63  95 131 166 212 266 332 400
#     4   9  18  35  61  95 128 167 205 270 339 389
#     4   9  18  34  63  97 130 164 213 270 332 392
#
# _framework density 21.305267000000001
#
# number of rings (size 3 to 8) (size 9 to 14) (size 15 to 20)
#    0.000    1.833    1.667    2.500    0.000    3.333 
#    3.000   11.667    0.000    0.000    0.000    0.000 
#    0.000    0.000    0.000    0.000    0.000    0.000 
#
# Total GULP energy -133636.213136 kJ/mol
# GULP energy per Si atom -5568.175547 kJ/mol
# Density = 2.125678 g / cm^3
# Si number density = 21.305267 Si / 1000 Ang^3
#
#
#
# Elastic Constant Matrix: (Units=GPa)
#
#
# Indices 1 2 3 4 5 6 
#
# 1 87.8825 37.9333 29.8525 0.0000 0.0000 0.0000
# 2 37.9333 81.1170 25.3303 0.0000 0.0000 0.0000
# 3 29.8525 25.3303 69.9250 0.0000 0.0000 0.0000
# 4 0.0000 0.0000 0.0000 16.6287 0.0000 0.0000
# 5 0.0000 0.0000 0.0000 0.0000 40.0886 0.0000
# 6 0.0000 0.0000 0.0000 0.0000 0.0000 40.4784
#
#
#
# Elastic Compliance Matrix: (Units=1/GPa)
#
#
# Indices 1 2 3 4 5 6 
#
# 1 0.015405 -0.005807 -0.004473 0.000000 0.000000 0.000000
# 2 -0.005807 0.016089 -0.003349 0.000000 0.000000 0.000000
# 3 -0.004473 -0.003349 0.017424 0.000000 0.000000 0.000000
# 4 0.000000 0.000000 0.000000 0.060137 0.000000 0.000000
# 5 0.000000 0.000000 0.000000 0.000000 0.024945 0.000000
# 6 0.000000 0.000000 0.000000 0.000000 0.000000 0.024705
#
#
# Mechanical properties :
#
#
# Convention : Reuss Voigt Hill
#
# Bulk Modulus (GPa) = 46.16924 47.23966 46.70445
# Shear Modulus (GPa) = 25.88224 29.15970 27.52097
#
# Velocity S-wave (km/s) = 3.48922 3.70356 3.59798
# Velocity P-wave (km/s) = 6.16038 6.36469 6.26337
#
# Compressibility (1/GPa) = 0.02165944
#
# Stress axis : x y z
#
# Youngs Moduli (GPa) = 64.91481 62.15303 57.39236
#
# Poissons Ratio (x) = 0.36093 0.25672
# Poissons Ratio (y) = 0.37696 0.19222
# Poissons Ratio (z) = 0.29037 0.20816
#
# Static dielectric constant tensor:
#      x y z
#    x 1.904730 0.000000 0.000000 
#    y 0.000000 1.781720 0.000000 
#    z 0.000000 0.000000 1.788570 
# 
# From -- ./inp_files/27990.got.cif
#   From: 2010.05.17/outbox.cif.g08.bks.cpg/sg23_14_cif.got.tgz:27990.got - 2010.06.04 12:02:01.
