data_PCOD9329979
_publ_section_title
;
Structure prediction by ZEFSAII (Michael W. Deem and Ramdas Pophale) SiO2 
 PCOD9329979
Probable space group: I 2 2 2
;
_chemical_formula_sum "Si O2"
_cell_formula_units_Z 52
_cell_length_a 17.190779
_cell_length_b 9.462933
_cell_length_c 16.282585
_cell_angle_alpha 90.000000
_cell_angle_beta 90.000000
_cell_angle_gamma 90.000000
_cell_volume 2648.772607
_symmetry_space_group_name_H-M "I 2 2 2"
_symmetry_group_IT_number 23
_symmetry_cell_setting 'orthorhombic'
loop_
_space_group_symop_operation_xyz
x,y,z
-x,-y,z
x,-y,-z
-x,y,-z
1/2+x,1/2+y,1/2+z
1/2-x,1/2-y,1/2+z
1/2+x,1/2-y,1/2-z
1/2-x,1/2+y,1/2-z
loop_
_atom_site_type_symbol
_atom_site_label
_atom_site_fract_x
_atom_site_fract_y
_atom_site_fract_z
Si Si1 0.091241 0.199803 0.183831
Si Si2 0.384231 0.024891 0.588867
Si Si3 0.930647 0.700740 0.780106
Si Si4 0.795230 0.940856 0.412999
Si Si5 0.500000 0.000000 0.143616
Si Si6 0.847374 0.648786 0.349489
Si Si7 0.811570 0.940336 0.770389
O O1 0.112822 0.311634 0.113626
O O2 0.118714 0.277011 0.267599
O O3 0.998327 0.193016 0.190733
O O4 0.136433 0.053559 0.180643
O O5 0.424115 0.927299 0.656398
O O6 0.296346 0.969175 0.585481
O O7 0.418112 0.000000 0.500000
O O8 0.960111 0.624717 0.697689
O O9 0.850322 0.785614 0.774953
O O10 0.815096 0.775639 0.405059
O O11 0.827584 0.000000 0.500000
O O12 0.817473 0.014533 0.325868
O O13 0.420735 0.929926 0.107639
O O14 0.774413 0.561048 0.311317
#
# Coordination Sequence:
#
# PCOD9329979 Si02
#       7
#     8   8   8   8   4   8   8
#     4  10  21  35  53  91 119 154 207 253 292 358
#     4  11  20  35  59  87 121 163 200 240 300 369
#     4  11  19  36  56  88 120 158 204 252 294 364
#     4  10  21  37  61  92 122 156 205 252 299 367
#     4  10  20  34  61  91 122 146 218 262 292 362
#     4  10  19  35  60  91 116 158 208 247 306 359
#     4  11  21  35  64  87 117 161 205 250 302 356
#
# _framework density 19.631733000000001
#
# number of rings (size 3 to 8) (size 9 to 14) (size 15 to 20)
#    0.000    1.538    6.154    0.462    2.154    1.231 
#    0.000    0.769    0.000   22.154    0.000    1.077 
#    0.000    0.000    0.000    0.000    0.000    0.000 
#
# Total GULP energy -144840.052986 kJ/mol
# GULP energy per Si atom -5570.771269 kJ/mol
# Density = 1.958705 g / cm^3
# Si number density = 19.631733 Si / 1000 Ang^3
#
#
#
# Elastic Constant Matrix: (Units=GPa)
#
#
# Indices 1 2 3 4 5 6 
#
# 1 85.4141 27.6939 6.2395 0.0000 0.0000 0.0000
# 2 27.6939 83.3549 30.8154 0.0000 0.0000 0.0000
# 3 6.2395 30.8154 67.3472 0.0000 0.0000 0.0000
# 4 0.0000 0.0000 0.0000 12.2563 0.0000 0.0000
# 5 0.0000 0.0000 0.0000 0.0000 -103.7072 0.0000
# 6 0.0000 0.0000 0.0000 0.0000 0.0000 35.2851
#
#
#
# Elastic Compliance Matrix: (Units=1/GPa)
#
#
# Indices 1 2 3 4 5 6 
#
# 1 0.013170 -0.004724 0.000941 0.000000 0.000000 0.000000
# 2 -0.004724 0.016134 -0.006944 0.000000 0.000000 0.000000
# 3 0.000941 -0.006944 0.017939 0.000000 0.000000 0.000000
# 4 0.000000 0.000000 0.000000 0.081591 0.000000 0.000000
# 5 0.000000 0.000000 0.000000 0.000000 -0.009643 0.000000
# 6 0.000000 0.000000 0.000000 0.000000 0.000000 0.028341
#
#
# Mechanical properties :
#
#
# Convention : Reuss Voigt Hill
#
# Bulk Modulus (GPa) = 38.77645 40.62376 39.70010
# Shear Modulus (GPa) = 28.15599 0.19134 14.17366
#
# Velocity S-wave (km/s) = 3.79120 0.31253 2.68988
# Velocity P-wave (km/s) = 6.24172 4.56816 5.46933
#
# Compressibility (1/GPa) = 0.02578885
#
# Stress axis : x y z
#
# Youngs Moduli (GPa) = 75.92733 61.98246 55.74525
#
# Poissons Ratio (x) = 0.29279 -0.05247
# Poissons Ratio (y) = 0.35866 0.38712
# Poissons Ratio (z) = -0.07146 0.43043
#
# Static dielectric constant tensor:
#      x y z
#    x 1.734550 0.000000 0.000000 
#    y 0.000000 1.738100 0.000000 
#    z 0.000000 0.000000 1.728490 
# 
# From -- ./inp_files/25039.got.cif
#   From: 2010.05.17/outbox.cif.g08.bks.cpg/sg23_13_cif.got.tgz:25039.got - 2010.06.04 12:02:01.
