data_PCOD9329556
_publ_section_title
;
Structure prediction by ZEFSAII (Michael W. Deem and Ramdas Pophale) SiO2 
 PCOD9329556
Probable space group: I 2 2 2
;
_chemical_formula_sum "Si O2"
_cell_formula_units_Z 48
_cell_length_a 22.653385
_cell_length_b 11.282538
_cell_length_c 9.980872
_cell_angle_alpha 90.000000
_cell_angle_beta 90.000000
_cell_angle_gamma 90.000000
_cell_volume 2550.987890
_symmetry_space_group_name_H-M "I 2 2 2"
_symmetry_group_IT_number 23
_symmetry_cell_setting 'orthorhombic'
loop_
_space_group_symop_operation_xyz
x,y,z
-x,-y,z
x,-y,-z
-x,y,-z
1/2+x,1/2+y,1/2+z
1/2-x,1/2-y,1/2+z
1/2+x,1/2-y,1/2-z
1/2-x,1/2+y,1/2-z
loop_
_atom_site_type_symbol
_atom_site_label
_atom_site_fract_x
_atom_site_fract_y
_atom_site_fract_z
Si Si1 0.689625 0.322108 0.537907
Si Si2 0.344786 0.149474 0.242466
Si Si3 0.853488 0.745335 0.231213
Si Si4 0.311647 0.683590 0.989005
Si Si5 0.751552 0.953292 0.737335
Si Si6 0.931472 0.466686 0.846727
O O1 0.650118 0.241015 0.635661
O O2 0.658499 0.329493 0.395379
O O3 0.748972 0.245672 0.517046
O O4 0.711618 0.430749 0.628134
O O5 0.344589 0.223414 0.107463
O O6 0.395586 0.053718 0.250388
O O7 0.282934 0.077193 0.259432
O O8 0.847106 0.816522 0.370732
O O9 0.800373 0.646787 0.233413
O O10 0.911138 0.665284 0.196970
O O11 0.293335 0.574962 0.889823
O O12 0.000000 0.500000 0.839172
O O13 0.911871 0.500000 0.000000
#
# Coordination Sequence:
#
# PCOD9329556 Si02
#       6
#     8   8   8   8   8   8
#     4   9  16  29  43  64  89 128 160 186 226 284
#     4  10  18  32  47  65  98 130 157 190 232 269
#     4   9  16  28  43  61  88 119 152 193 227 256
#     4   9  18  29  43  65  89 122 160 191 227 281
#     4   8  17  27  44  62  86 124 158 185 228 278
#     4  10  19  30  46  67  88 126 167 187 220 278
#
# _framework density 18.816240000000001
#
# number of rings (size 3 to 8) (size 9 to 14) (size 15 to 20)
#    0.000    2.833    1.667    1.000    0.000    6.000 
#    0.000    3.333    0.000    0.000    0.000    0.000 
#    0.000    0.000    0.000  441.000    0.000    0.000 
#
# Total GULP energy -133713.273823 kJ/mol
# GULP energy per Si atom -5571.386409 kJ/mol
# Density = 1.877341 g / cm^3
# Si number density = 18.816240 Si / 1000 Ang^3
#
#
#
# Elastic Constant Matrix: (Units=GPa)
#
#
# Indices 1 2 3 4 5 6 
#
# 1 53.4087 21.1468 28.7868 0.0000 0.0000 0.0000
# 2 21.1468 53.6759 40.7259 0.0000 0.0000 0.0000
# 3 28.7868 40.7259 167.0856 0.0000 0.0000 0.0000
# 4 0.0000 0.0000 0.0000 25.9810 0.0000 0.0000
# 5 0.0000 0.0000 0.0000 0.0000 12.7880 0.0000
# 6 0.0000 0.0000 0.0000 0.0000 0.0000 22.7134
#
#
#
# Elastic Compliance Matrix: (Units=1/GPa)
#
#
# Indices 1 2 3 4 5 6 
#
# 1 0.022787 -0.007360 -0.002132 0.000000 0.000000 0.000000
# 2 -0.007360 0.025235 -0.004883 0.000000 0.000000 0.000000
# 3 -0.002132 -0.004883 0.007542 0.000000 0.000000 0.000000
# 4 0.000000 0.000000 0.000000 0.038490 0.000000 0.000000
# 5 0.000000 0.000000 0.000000 0.000000 0.078199 0.000000
# 6 0.000000 0.000000 0.000000 0.000000 0.000000 0.044027
#
#
# Mechanical properties :
#
#
# Convention : Reuss Voigt Hill
#
# Bulk Modulus (GPa) = 37.29285 50.60991 43.95138
# Shear Modulus (GPa) = 19.68768 24.53052 22.10910
#
# Velocity S-wave (km/s) = 3.23819 3.61458 3.43155
# Velocity P-wave (km/s) = 5.81753 6.66150 6.25377
#
# Compressibility (1/GPa) = 0.02681479
#
# Stress axis : x y z
#
# Youngs Moduli (GPa) = 43.88524 39.62818 132.58359
#
# Poissons Ratio (x) = 0.29165 0.28267
# Poissons Ratio (y) = 0.32298 0.64737
# Poissons Ratio (z) = 0.09356 0.19349
#
# Static dielectric constant tensor:
#      x y z
#    x 1.642120 0.000000 0.000000 
#    y 0.000000 1.719560 0.000000 
#    z 0.000000 0.000000 1.715430 
# 
# From -- ./inp_files/12599.got.cif
#   From: 2010.05.17/outbox.cif.g08.bks.cpg/sg23_7_cif.got.tgz:12599.got - 2010.06.04 12:02:01.
