data_PCOD9329983
_publ_section_title
;
Structure prediction by ZEFSAII (Michael W. Deem and Ramdas Pophale) SiO2 
 PCOD9329983
Probable space group: I 2 2 2
;
_chemical_formula_sum "Si O2"
_cell_formula_units_Z 36
_cell_length_a 6.568434
_cell_length_b 14.530921
_cell_length_c 18.428916
_cell_angle_alpha 90.000000
_cell_angle_beta 90.000000
_cell_angle_gamma 90.000000
_cell_volume 1758.955177
_symmetry_space_group_name_H-M "I 2 2 2"
_symmetry_group_IT_number 23
_symmetry_cell_setting 'orthorhombic'
loop_
_space_group_symop_operation_xyz
x,y,z
-x,-y,z
x,-y,-z
-x,y,-z
1/2+x,1/2+y,1/2+z
1/2-x,1/2-y,1/2+z
1/2+x,1/2-y,1/2-z
1/2-x,1/2+y,1/2-z
loop_
_atom_site_type_symbol
_atom_site_label
_atom_site_fract_x
_atom_site_fract_y
_atom_site_fract_z
Si Si1 0.500000 0.000000 0.780173
Si Si2 0.579399 0.276399 0.080756
Si Si3 0.694174 0.252999 0.319745
Si Si4 0.692129 0.650436 0.329464
Si Si5 0.102524 0.591078 0.138516
O O1 0.330519 0.060331 0.820480
O O2 0.625071 0.063402 0.723052
O O3 0.399701 0.245661 0.134754
O O4 0.746453 0.197696 0.095044
O O5 0.690932 0.370827 0.104633
O O6 0.500000 0.282219 0.000000
O O7 0.552192 0.343489 0.323141
O O8 0.742394 0.217811 0.238262
O O9 0.561984 0.172331 0.357970
O O10 0.000000 0.500000 0.104044
#
# Coordination Sequence:
#
# PCOD9329983 Si02
#       5
#     4   8   8   8   8
#     4   8  18  38  63  93 120 166 226 288 304 372
#     4  11  23  38  60  92 130 172 209 270 341 399
#     4  10  19  35  61  87 121 168 214 259 314 390
#     4  10  19  36  63  90 125 167 225 264 316 385
#     4   8  19  37  58  86 125 163 213 260 315 382
#
# _framework density 20.466695000000001
#
# number of rings (size 3 to 8) (size 9 to 14) (size 15 to 20)
#    0.667    1.778    2.222    0.000    0.000    4.444 
#    0.000    7.222    0.000    0.000    0.000    9.333 
#    0.000    0.000    0.000    0.000    0.000    0.000 
#
# Total GULP energy -100224.622062 kJ/mol
# GULP energy per Si atom -5568.034559 kJ/mol
# Density = 2.042011 g / cm^3
# Si number density = 20.466695 Si / 1000 Ang^3
#
#
#
# Elastic Constant Matrix: (Units=GPa)
#
#
# Indices 1 2 3 4 5 6 
#
# 1 113.5723 28.2572 42.6516 0.0000 0.0000 0.0000
# 2 28.2572 54.5773 7.6763 0.0000 0.0000 0.0000
# 3 42.6516 7.6763 62.1865 0.0000 0.0000 0.0000
# 4 0.0000 0.0000 0.0000 16.3558 0.0000 0.0000
# 5 0.0000 0.0000 0.0000 0.0000 27.7126 0.0000
# 6 0.0000 0.0000 0.0000 0.0000 0.0000 45.4010
#
#
#
# Elastic Compliance Matrix: (Units=1/GPa)
#
#
# Indices 1 2 3 4 5 6 
#
# 1 0.013430 -0.005758 -0.008500 0.000000 0.000000 0.000000
# 2 -0.005758 0.021115 0.001343 0.000000 0.000000 0.000000
# 3 -0.008500 0.001343 0.021745 0.000000 0.000000 0.000000
# 4 0.000000 0.000000 0.000000 0.061141 0.000000 0.000000
# 5 0.000000 0.000000 0.000000 0.000000 0.036085 0.000000
# 6 0.000000 0.000000 0.000000 0.000000 0.000000 0.022026
#
#
# Mechanical properties :
#
#
# Convention : Reuss Voigt Hill
#
# Bulk Modulus (GPa) = 32.83122 43.05627 37.94374
# Shear Modulus (GPa) = 23.63796 28.01062 25.82429
#
# Velocity S-wave (km/s) = 3.40214 3.70347 3.55600
# Velocity P-wave (km/s) = 5.61327 6.27459 5.95312
#
# Compressibility (1/GPa) = 0.03045881
#
# Stress axis : x y z
#
# Youngs Moduli (GPa) = 74.46172 47.36019 45.98764
#
# Poissons Ratio (x) = 0.27268 0.39091
# Poissons Ratio (y) = 0.42872 -0.06174
# Poissons Ratio (z) = 0.63294 -0.06358
#
# Static dielectric constant tensor:
#      x y z
#    x 1.781270 0.000000 0.000000 
#    y 0.000000 1.811580 0.000000 
#    z 0.000000 0.000000 1.709760 
# 
# From -- ./inp_files/25641.got.cif
#   From: 2010.05.17/outbox.cif.g08.bks.cpg/sg23_13_cif.got.tgz:25641.got - 2010.06.04 12:02:01.
