data_PCOD9329384
_publ_section_title
;
Structure prediction by ZEFSAII (Michael W. Deem and Ramdas Pophale) SiO2 
 PCOD9329384
Probable space group: I 2 2 2
;
_chemical_formula_sum "Si O2"
_cell_formula_units_Z 40
_cell_length_a 13.189635
_cell_length_b 8.475310
_cell_length_c 16.909995
_cell_angle_alpha 90.000000
_cell_angle_beta 90.000000
_cell_angle_gamma 90.000000
_cell_volume 1890.304851
_symmetry_space_group_name_H-M "I 2 2 2"
_symmetry_group_IT_number 23
_symmetry_cell_setting 'orthorhombic'
loop_
_space_group_symop_operation_xyz
x,y,z
-x,-y,z
x,-y,-z
-x,y,-z
1/2+x,1/2+y,1/2+z
1/2-x,1/2-y,1/2+z
1/2+x,1/2-y,1/2-z
1/2-x,1/2+y,1/2-z
loop_
_atom_site_type_symbol
_atom_site_label
_atom_site_fract_x
_atom_site_fract_y
_atom_site_fract_z
Si Si1 0.500000 0.000000 0.500000
Si Si2 0.000000 0.000000 0.500000
Si Si3 0.291407 0.617931 0.250000
Si Si4 0.077396 0.753234 0.883772
Si Si5 0.000000 0.000000 0.000000
Si Si6 0.406534 0.722957 0.750000
Si Si7 0.577396 0.253234 0.116228
Si Si8 0.500000 0.000000 0.000000
O O1 0.568497 0.102658 0.440247
O O2 0.930283 0.895828 0.444526
O O3 0.328999 0.716646 0.326275
O O4 0.346715 0.446331 0.250000
O O5 0.170733 0.630204 0.250000
O O6 0.328999 0.716646 0.173725
O O7 0.069717 0.895828 0.944526
O O8 0.979400 0.764822 0.826060
O O9 0.479400 0.735178 0.826060
O O10 0.568497 0.102658 0.059753
#
# Coordination Sequence:
#
# PCOD9329384 Si02
#       8
#     2   2   8   8   2   8   8   2
#     4  10  24  36  66  94 116 162 192 258 294 348
#     4  10  16  40  66  78 116 166 196 234 298 372
#     4  11  23  40  65  89 117 162 204 246 292 358
#     4  10  21  42  63  85 124 158 200 241 307 350
#     4  10  16  40  66  78 116 166 196 234 298 372
#     4  11  23  40  65  89 117 162 204 246 292 358
#     4  10  21  42  63  85 124 158 200 241 307 350
#     4  10  24  36  66  94 116 162 192 258 294 348
#
# _framework density 21.160609000000001
#
# number of rings (size 3 to 8) (size 9 to 14) (size 15 to 20)
#    0.000    1.600    4.000    1.200    5.600    1.600 
#    0.000   12.000    0.000    0.000    0.000    0.000 
#    0.000    0.000    0.000    0.000    0.000    0.000 
#
# Total GULP energy -111690.043802 kJ/mol
# GULP energy per Si atom -5584.502190 kJ/mol
# Density = 2.111245 g / cm^3
# Si number density = 21.160609 Si / 1000 Ang^3
#
#
#
# Elastic Constant Matrix: (Units=GPa)
#
#
# Indices 1 2 3 4 5 6 
#
# 1 64.0502 -2.8069 21.5767 0.0000 0.0000 0.0000
# 2 -2.8069 80.0401 45.0269 0.0000 0.0000 0.0000
# 3 21.5767 45.0269 158.4550 0.0000 0.0000 0.0000
# 4 0.0000 0.0000 0.0000 64.2266 0.0000 0.0000
# 5 0.0000 0.0000 0.0000 0.0000 -2.6799 0.0000
# 6 0.0000 0.0000 0.0000 0.0000 0.0000 -5.3526
#
#
#
# Elastic Compliance Matrix: (Units=1/GPa)
#
#
# Indices 1 2 3 4 5 6 
#
# 1 0.016688 0.002218 -0.002903 0.000000 0.000000 0.000000
# 2 0.002218 0.015166 -0.004612 0.000000 0.000000 0.000000
# 3 -0.002903 -0.004612 0.008017 0.000000 0.000000 0.000000
# 4 0.000000 0.000000 0.000000 0.015570 0.000000 0.000000
# 5 0.000000 0.000000 0.000000 0.000000 -0.373149 0.000000
# 6 0.000000 0.000000 0.000000 0.000000 0.000000 -0.186825
#
#
# Mechanical properties :
#
#
# Convention : Reuss Voigt Hill
#
# Bulk Modulus (GPa) = 34.15539 47.79319 40.97429
# Shear Modulus (GPa) = -10.32669 27.15540 8.41436
#
# Velocity S-wave (km/s) = -2.21150 3.58620 1.99626
# Velocity P-wave (km/s) = 3.10726 6.30736 4.97181
#
# Compressibility (1/GPa) = 0.02927795
#
# Stress axis : x y z
#
# Youngs Moduli (GPa) = 59.92411 65.93787 124.74063
#
# Poissons Ratio (x) = -0.14626 0.36208
# Poissons Ratio (y) = -0.13292 0.57525
# Poissons Ratio (z) = 0.17394 0.30408
#
# Static dielectric constant tensor:
#      x y z
#    x 1.563800 0.000000 0.000000 
#    y 0.000000 1.832460 0.000000 
#    z 0.000000 0.000000 1.745940 
# 
# From -- ./inp_files/19928.got.cif
#   From: 2010.05.17/outbox.cif.g08.bks.cpg/sg23_10_cif.got.tgz:19928.got - 2010.06.04 12:02:01.
