data_PCOD9329717
_publ_section_title
;
Structure prediction by ZEFSAII (Michael W. Deem and Ramdas Pophale) SiO2 
 PCOD9329717
Probable space group: I 2 2 2
;
_chemical_formula_sum "Si O2"
_cell_formula_units_Z 48
_cell_length_a 18.335488
_cell_length_b 20.401773
_cell_length_c 6.195734
_cell_angle_alpha 90.000000
_cell_angle_beta 90.000000
_cell_angle_gamma 90.000000
_cell_volume 2317.678267
_symmetry_space_group_name_H-M "I 2 2 2"
_symmetry_group_IT_number 23
_symmetry_cell_setting 'orthorhombic'
loop_
_space_group_symop_operation_xyz
x,y,z
-x,-y,z
x,-y,-z
-x,y,-z
1/2+x,1/2+y,1/2+z
1/2-x,1/2-y,1/2+z
1/2+x,1/2-y,1/2-z
1/2-x,1/2+y,1/2-z
loop_
_atom_site_type_symbol
_atom_site_label
_atom_site_fract_x
_atom_site_fract_y
_atom_site_fract_z
Si Si1 0.825275 0.301641 0.038285
Si Si2 0.778014 0.500000 0.000000
Si Si3 0.680639 0.673031 0.691720
Si Si4 0.000000 0.000000 0.000000
Si Si5 0.268706 0.101810 0.829949
Si Si6 0.075000 0.931019 0.617276
Si Si7 0.500000 0.000000 0.000000
Si Si8 0.118921 0.586650 0.298489
O O1 0.751549 0.297465 0.184002
O O2 0.881752 0.341130 0.191828
O O3 0.854017 0.234028 0.937412
O O4 0.797788 0.343732 0.834232
O O5 0.739606 0.457616 0.815877
O O6 0.829778 0.548686 0.868956
O O7 0.710905 0.626468 0.502630
O O8 0.632768 0.627702 0.851375
O O9 0.050195 0.954486 0.852789
O O10 0.338663 0.083770 0.974216
O O11 0.000000 0.908767 0.500000
O O12 0.096472 0.000000 0.500000
O O13 0.545857 0.047756 0.844436
#
# Coordination Sequence:
#
# PCOD9329717 Si02
#       8
#     8   4   8   2   8   8   2   8
#     4  10  22  40  63  94 135 170 223 277 328 407
#     4  10  18  39  56  88 132 161 208 290 328 378
#     4  11  21  41  69  95 132 177 212 277 346 400
#     4   8  18  44  62  86 124 156 206 276 320 410
#     4  10  20  38  58  92 127 167 213 277 331 399
#     4   9  21  43  66  97 129 165 218 277 337 412
#     4  12  20  42  66  88 130 192 224 282 336 376
#     4  10  22  38  61  89 128 178 225 274 329 387
#
# _framework density 20.710380000000001
#
# number of rings (size 3 to 8) (size 9 to 14) (size 15 to 20)
#    0.000    2.167    3.333    0.000    0.000    3.000 
#   25.500    0.000    5.500    0.000    0.000    0.000 
#    0.000    0.000    0.000    0.000    0.000    0.000 
#
# Total GULP energy -133839.717674 kJ/mol
# GULP energy per Si atom -5576.654903 kJ/mol
# Density = 2.066324 g / cm^3
# Si number density = 20.710380 Si / 1000 Ang^3
#
#
#
# Elastic Constant Matrix: (Units=GPa)
#
#
# Indices 1 2 3 4 5 6 
#
# 1 68.9711 46.8868 26.5092 0.0000 0.0000 0.0000
# 2 46.8868 122.6349 40.6956 0.0000 0.0000 0.0000
# 3 26.5092 40.6956 107.6424 0.0000 0.0000 0.0000
# 4 0.0000 0.0000 0.0000 45.6131 0.0000 0.0000
# 5 0.0000 0.0000 0.0000 0.0000 -4.3377 0.0000
# 6 0.0000 0.0000 0.0000 0.0000 0.0000 64.9735
#
#
#
# Elastic Compliance Matrix: (Units=1/GPa)
#
#
# Indices 1 2 3 4 5 6 
#
# 1 0.020092 -0.006906 -0.002337 0.000000 0.000000 0.000000
# 2 -0.006906 0.011698 -0.002722 0.000000 0.000000 0.000000
# 3 -0.002337 -0.002722 0.010895 0.000000 0.000000 0.000000
# 4 0.000000 0.000000 0.000000 0.021924 0.000000 0.000000
# 5 0.000000 0.000000 0.000000 0.000000 -0.230536 0.000000
# 6 0.000000 0.000000 0.000000 0.000000 0.000000 0.015391
#
#
# Mechanical properties :
#
#
# Convention : Reuss Voigt Hill
#
# Bulk Modulus (GPa) = 53.32091 58.60352 55.96222
# Shear Modulus (GPa) = -41.54359 33.59356 -3.97502
#
# Velocity S-wave (km/s) = -4.48362 4.03185 -1.38690
# Velocity P-wave (km/s) = 1.00096 7.07337 4.95130
#
# Compressibility (1/GPa) = 0.01875437
#
# Stress axis : x y z
#
# Youngs Moduli (GPa) = 49.77125 85.48537 91.78882
#
# Poissons Ratio (x) = 0.59038 0.21452
# Poissons Ratio (y) = 0.34373 0.24983
# Poissons Ratio (z) = 0.11632 0.23267
#
# Static dielectric constant tensor:
#      x y z
#    x 1.802760 0.000000 0.000000 
#    y 0.000000 1.869630 0.000000 
#    z 0.000000 0.000000 1.724140 
# 
# From -- ./inp_files/3920.got.cif
#   From: 2010.05.17/outbox.cif.g08.bks.cpg/sg23_2_cif.got.tgz:3920.got - 2010.06.04 12:02:01.
