data_PCOD9329030
_publ_section_title
;
Structure prediction by ZEFSAII (Michael W. Deem and Ramdas Pophale) SiO2 
 PCOD9329030
Probable space group: F 2 2 2
;
_chemical_formula_sum "Si O2"
_cell_formula_units_Z 68
_cell_length_a 8.931102
_cell_length_b 15.561529
_cell_length_c 21.035775
_cell_angle_alpha 90.000000
_cell_angle_beta 90.000000
_cell_angle_gamma 90.000000
_cell_volume 2923.585725
_symmetry_space_group_name_H-M "F 2 2 2"
_symmetry_group_IT_number 22
_symmetry_cell_setting 'orthorhombic'
loop_
_space_group_symop_operation_xyz
x,y,z
-x,-y,z
x,-y,-z
-x,y,-z
x,1/2+y,1/2+z
-x,1/2-y,1/2+z
x,1/2-y,1/2-z
-x,1/2+y,1/2-z
1/2+x,y,1/2+z
1/2-x,-y,1/2+z
1/2+x,-y,1/2-z
1/2-x,y,1/2-z
1/2+x,1/2+y,z
1/2-x,1/2-y,z
1/2+x,1/2-y,-z
1/2-x,1/2+y,-z
loop_
_atom_site_type_symbol
_atom_site_label
_atom_site_fract_x
_atom_site_fract_y
_atom_site_fract_z
Si Si1 0.327031 0.160725 0.486578
Si Si2 0.123374 0.614957 0.654817
Si Si3 0.250000 0.750000 0.750000
Si Si4 0.909110 0.087564 0.439900
Si Si5 0.277724 0.420827 0.823664
O O1 0.500000 0.164844 0.500000
O O2 0.250000 0.250000 0.506435
O O3 0.308187 0.143781 0.412270
O O4 0.252996 0.085682 0.527649
O O5 0.155114 0.687423 0.705983
O O6 0.204860 0.524945 0.671794
O O7 0.943059 0.606945 0.652781
O O8 0.857708 0.114272 0.368718
O O9 0.000000 0.131357 0.500000
O O10 0.000000 0.000000 0.431431
O O11 0.250000 0.398082 0.750000
#
# Coordination Sequence:
#
# PCOD9329030 Si02
#       5
#    16  16   4  16  16
#     4  12  25  48  74 109 147 192 250 313 382 448
#     4  11  24  45  75 103 145 193 244 313 376 458
#     4  12  24  48  74 112 144 194 246 310 400 456
#     4  11  24  44  71 108 145 193 248 309 367 451
#     4  11  25  45  71 109 147 194 251 306 374 452
#
# _framework density 23.259108000000001
#
# number of rings (size 3 to 8) (size 9 to 14) (size 15 to 20)
#    0.000    0.706    4.706    3.529    3.294    1.882 
#    4.235    0.588    0.000    0.000    0.000    0.000 
#    0.000    0.000    0.000    0.000    0.000    0.000 
#
# Total GULP energy -94865.887802 kJ/mol
# GULP energy per Si atom -5580.346341 kJ/mol
# Density = 2.320617 g / cm^3
# Si number density = 23.259108 Si / 1000 Ang^3
#
#
#
# Elastic Constant Matrix: (Units=GPa)
#
#
# Indices 1 2 3 4 5 6 
#
# 1 105.0727 21.4737 29.6172 0.0000 0.0000 0.0000
# 2 21.4737 67.3418 13.7218 0.0000 0.0000 0.0000
# 3 29.6172 13.7218 175.7382 0.0000 0.0000 0.0000
# 4 0.0000 0.0000 0.0000 1.8196 0.0000 0.0000
# 5 0.0000 0.0000 0.0000 0.0000 35.0555 0.0000
# 6 0.0000 0.0000 0.0000 0.0000 0.0000 23.1047
#
#
#
# Elastic Compliance Matrix: (Units=1/GPa)
#
#
# Indices 1 2 3 4 5 6 
#
# 1 0.010577 -0.003058 -0.001544 0.000000 0.000000 0.000000
# 2 -0.003058 0.015974 -0.000732 0.000000 0.000000 0.000000
# 3 -0.001544 -0.000732 0.006008 0.000000 0.000000 0.000000
# 4 0.000000 0.000000 0.000000 0.549572 0.000000 0.000000
# 5 0.000000 0.000000 0.000000 0.000000 0.028526 0.000000
# 6 0.000000 0.000000 0.000000 0.000000 0.000000 0.043281
#
#
# Mechanical properties :
#
#
# Convention : Reuss Voigt Hill
#
# Bulk Modulus (GPa) = 45.68078 53.08644 49.38361
# Shear Modulus (GPa) = 7.44154 30.88529 19.16342
#
# Velocity S-wave (km/s) = 1.79063 3.64796 2.87350
# Velocity P-wave (km/s) = 4.89466 6.37315 5.68220
#
# Compressibility (1/GPa) = 0.02189104
#
# Stress axis : x y z
#
# Youngs Moduli (GPa) = 94.54115 62.60187 166.45568
#
# Poissons Ratio (x) = 0.19146 0.25698
# Poissons Ratio (y) = 0.28914 0.12182
# Poissons Ratio (z) = 0.14595 0.04581
#
# Static dielectric constant tensor:
#      x y z
#    x 1.918400 0.000000 0.000000 
#    y 0.000000 1.886820 0.000000 
#    z 0.000000 0.000000 1.916420 
# 
# From -- ./inp_files/38581.got.cif
#   From: 2010.05.17/outbox.cif.g08.bks.cpg/sg22_20_cif.got.tgz:38581.got - 2010.06.03 23:40:54.
