data_PCOD9329162
_publ_section_title
;
Structure prediction by ZEFSAII (Michael W. Deem and Ramdas Pophale) SiO2 
 PCOD9329162
Probable space group: F 2 2 2
;
_chemical_formula_sum "Si O2"
_cell_formula_units_Z 64
_cell_length_a 13.327010
_cell_length_b 9.328351
_cell_length_c 21.012596
_cell_angle_alpha 90.000000
_cell_angle_beta 90.000000
_cell_angle_gamma 90.000000
_cell_volume 2612.265491
_symmetry_space_group_name_H-M "F 2 2 2"
_symmetry_group_IT_number 22
_symmetry_cell_setting 'orthorhombic'
loop_
_space_group_symop_operation_xyz
x,y,z
-x,-y,z
x,-y,-z
-x,y,-z
x,1/2+y,1/2+z
-x,1/2-y,1/2+z
x,1/2-y,1/2-z
-x,1/2+y,1/2-z
1/2+x,y,1/2+z
1/2-x,-y,1/2+z
1/2+x,-y,1/2-z
1/2-x,y,1/2-z
1/2+x,1/2+y,z
1/2-x,1/2-y,z
1/2+x,1/2-y,-z
1/2-x,1/2+y,-z
loop_
_atom_site_type_symbol
_atom_site_label
_atom_site_fract_x
_atom_site_fract_y
_atom_site_fract_z
Si Si1 0.117050 0.993786 0.621185
Si Si2 0.868367 0.589839 0.743203
Si Si3 0.250000 0.250000 0.935288
Si Si4 0.000000 0.500000 0.627883
Si Si5 0.095281 0.738279 0.537864
O O1 0.111022 0.984572 0.697677
O O2 0.186044 0.131760 0.603810
O O3 0.151717 0.857304 0.580493
O O4 0.000000 0.000000 0.603595
O O5 0.912731 0.750000 0.750000
O O6 0.750000 0.603033 0.750000
O O7 0.909693 0.539997 0.675788
O O8 0.168936 0.179899 0.983122
O O9 0.954951 0.376800 0.583913
O O10 0.000000 0.802056 0.500000
#
# Coordination Sequence:
#
# PCOD9329162 Si02
#       5
#    16  16   8   8  16
#     4  12  25  52  83 117 163 223 283 349 427 505
#     4  11  26  49  80 112 155 213 281 353 421 504
#     4  12  28  48  85 119 162 224 278 342 430 508
#     4  12  29  50  76 120 165 218 276 354 424 504
#     4  12  29  49  78 118 173 221 279 348 425 519
#
# _framework density 24.499806
#
# number of rings (size 3 to 8) (size 9 to 14) (size 15 to 20)
#    0.000    0.250    3.750    4.125    7.000    2.000 
#    0.000    1.250    0.000    0.000    0.000    0.000 
#    0.000    0.000    0.000    0.000    0.000    0.000 
#
# Total GULP energy -89469.267291 kJ/mol
# GULP energy per Si atom -5591.829206 kJ/mol
# Density = 2.444404 g / cm^3
# Si number density = 24.499806 Si / 1000 Ang^3
#
#
#
# Elastic Constant Matrix: (Units=GPa)
#
#
# Indices 1 2 3 4 5 6 
#
# 1 116.7158 20.7904 29.1069 0.0000 0.0000 0.0000
# 2 20.7904 94.3959 52.2961 0.0000 0.0000 0.0000
# 3 29.1069 52.2961 155.4682 0.0000 0.0000 0.0000
# 4 0.0000 0.0000 0.0000 18.6346 0.0000 0.0000
# 5 0.0000 0.0000 0.0000 0.0000 47.5273 0.0000
# 6 0.0000 0.0000 0.0000 0.0000 0.0000 37.6784
#
#
#
# Elastic Compliance Matrix: (Units=1/GPa)
#
#
# Indices 1 2 3 4 5 6 
#
# 1 0.009117 -0.001306 -0.001268 0.000000 0.000000 0.000000
# 2 -0.001306 0.013207 -0.004198 0.000000 0.000000 0.000000
# 3 -0.001268 -0.004198 0.008082 0.000000 0.000000 0.000000
# 4 0.000000 0.000000 0.000000 0.053664 0.000000 0.000000
# 5 0.000000 0.000000 0.000000 0.000000 0.021041 0.000000
# 6 0.000000 0.000000 0.000000 0.000000 0.000000 0.026540
#
#
# Mechanical properties :
#
#
# Convention : Reuss Voigt Hill
#
# Bulk Modulus (GPa) = 59.30320 63.44076 61.37198
# Shear Modulus (GPa) = 33.15357 38.39383 35.77370
#
# Velocity S-wave (km/s) = 3.68260 3.96297 3.82535
# Velocity P-wave (km/s) = 6.50693 6.84768 6.67948
#
# Compressibility (1/GPa) = 0.01686250
#
# Stress axis : x y z
#
# Youngs Moduli (GPa) = 109.69112 75.71728 123.73694
#
# Poissons Ratio (x) = 0.09886 0.15685
# Poissons Ratio (y) = 0.14321 0.51946
# Poissons Ratio (z) = 0.13905 0.31787
#
# Static dielectric constant tensor:
#      x y z
#    x 2.782680 0.000000 0.000000 
#    y 0.000000 1.969850 0.000000 
#    z 0.000000 0.000000 1.954090 
# 
# From -- ./inp_files/48645.got.cif
#   From: 2010.05.17/outbox.cif.g08.bks.cpg/sg22_25_cif.got.tgz:48645.got - 2010.06.03 23:40:54.
