data_PCOD9329007
_publ_section_title
;
Structure prediction by ZEFSAII (Michael W. Deem and Ramdas Pophale) SiO2 
 PCOD9329007
Probable space group: F 2 2 2
;
_chemical_formula_sum "Si O2"
_cell_formula_units_Z 64
_cell_length_a 16.432137
_cell_length_b 13.240552
_cell_length_c 12.793999
_cell_angle_alpha 90.000000
_cell_angle_beta 90.000000
_cell_angle_gamma 90.000000
_cell_volume 2783.597584
_symmetry_space_group_name_H-M "F 2 2 2"
_symmetry_group_IT_number 22
_symmetry_cell_setting 'orthorhombic'
loop_
_space_group_symop_operation_xyz
x,y,z
-x,-y,z
x,-y,-z
-x,y,-z
x,1/2+y,1/2+z
-x,1/2-y,1/2+z
x,1/2-y,1/2-z
-x,1/2+y,1/2-z
1/2+x,y,1/2+z
1/2-x,-y,1/2+z
1/2+x,-y,1/2-z
1/2-x,y,1/2-z
1/2+x,1/2+y,z
1/2-x,1/2-y,z
1/2+x,1/2-y,-z
1/2-x,1/2+y,-z
loop_
_atom_site_type_symbol
_atom_site_label
_atom_site_fract_x
_atom_site_fract_y
_atom_site_fract_z
Si Si1 0.734544 0.636908 0.424573
Si Si2 0.453239 0.152515 0.104207
Si Si3 0.534872 0.659125 0.810343
Si Si4 0.798438 0.069899 0.145622
O O1 0.750000 0.750000 0.387773
O O2 0.638999 0.621858 0.409748
O O3 0.757998 0.624127 0.546037
O O4 0.784156 0.549779 0.367249
O O5 0.472670 0.274191 0.119284
O O6 0.486101 0.111037 0.214273
O O7 0.500000 0.121443 0.000000
O O8 0.583076 0.750000 0.750000
O O9 0.605191 0.592444 0.858070
O O10 0.750000 0.100598 0.250000
#
# Coordination Sequence:
#
# PCOD9329007 Si02
#       4
#    16  16  16  16
#     4  11  25  42  68 104 146 182 229 299 356 405
#     4   9  18  39  66  99 135 187 227 285 348 411
#     4   8  21  38  69 100 130 184 234 282 338 414
#     4  11  24  42  68 109 131 186 243 285 336 427
#
# _framework density 22.991828000000002
#
# number of rings (size 3 to 8) (size 9 to 14) (size 15 to 20)
#    1.500    0.500    0.000    3.000    3.500    4.500 
#    0.000   12.500    0.000    7.500    0.000    0.000 
#    0.000    0.000    0.000    0.000    0.000    0.000 
#
# Total GULP energy -89254.924311 kJ/mol
# GULP energy per Si atom -5578.432769 kJ/mol
# Density = 2.293950 g / cm^3
# Si number density = 22.991828 Si / 1000 Ang^3
#
#
#
# Elastic Constant Matrix: (Units=GPa)
#
#
# Indices 1 2 3 4 5 6 
#
# 1 90.7452 -12.7254 13.5673 0.0000 0.0000 0.0000
# 2 -12.7254 36.5618 -30.2265 0.0000 0.0000 0.0000
# 3 13.5673 -30.2265 86.3495 0.0000 0.0000 0.0000
# 4 0.0000 0.0000 0.0000 -48.7613 0.0000 0.0000
# 5 0.0000 0.0000 0.0000 0.0000 48.2466 0.0000
# 6 0.0000 0.0000 0.0000 0.0000 0.0000 -36.5949
#
#
#
# Elastic Compliance Matrix: (Units=1/GPa)
#
#
# Indices 1 2 3 4 5 6 
#
# 1 0.011606 0.003563 -0.000576 0.000000 0.000000 0.000000
# 2 0.003563 0.039583 0.013296 0.000000 0.000000 0.000000
# 3 -0.000576 0.013296 0.016326 0.000000 0.000000 0.000000
# 4 0.000000 0.000000 0.000000 -0.020508 0.000000 0.000000
# 5 0.000000 0.000000 0.000000 0.000000 0.020727 0.000000
# 6 0.000000 0.000000 0.000000 0.000000 0.000000 -0.027326
#
#
# Mechanical properties :
#
#
# Convention : Reuss Voigt Hill
#
# Bulk Modulus (GPa) = 9.99192 17.20969 13.60080
# Shear Modulus (GPa) = 121.35383 8.78081 65.06732
#
# Velocity S-wave (km/s) = 7.27295 1.95637 5.32556
# Velocity P-wave (km/s) = 8.65350 3.55029 6.61391
#
# Compressibility (1/GPa) = 0.10008091
#
# Stress axis : x y z
#
# Youngs Moduli (GPa) = 86.16485 25.26306 61.25288
#
# Poissons Ratio (x) = -0.09001 0.03530
# Poissons Ratio (y) = -0.30700 -0.81444
# Poissons Ratio (z) = 0.04966 -0.33591
#
# Static dielectric constant tensor:
#      x y z
#    x 1.827690 0.000000 0.000000 
#    y 0.000000 1.923230 0.000000 
#    z 0.000000 0.000000 1.874520 
# 
# From -- ./inp_files/28872.got.cif
#   From: 2010.05.17/outbox.cif.g08.bks.cpg/sg22_15_cif.got.tgz:28872.got - 2010.06.03 23:40:54.
