data_PCOD9329938
_publ_section_title
;
Structure prediction by ZEFSAII (Michael W. Deem and Ramdas Pophale) SiO2 
 PCOD9329938
Probable space group: I 2 2 2
;
_chemical_formula_sum "Si O2"
_cell_formula_units_Z 64
_cell_length_a 19.131230
_cell_length_b 8.955880
_cell_length_c 19.227570
_cell_angle_alpha 90.000000
_cell_angle_beta 90.000000
_cell_angle_gamma 90.000000
_cell_volume 3294.394164
_symmetry_space_group_name_H-M "I 2 2 2"
_symmetry_group_IT_number 23
_symmetry_cell_setting 'orthorhombic'
loop_
_space_group_symop_operation_xyz
x,y,z
-x,-y,z
x,-y,-z
-x,y,-z
1/2+x,1/2+y,1/2+z
1/2-x,1/2-y,1/2+z
1/2+x,1/2-y,1/2-z
1/2-x,1/2+y,1/2-z
loop_
_atom_site_type_symbol
_atom_site_label
_atom_site_fract_x
_atom_site_fract_y
_atom_site_fract_z
Si Si1 0.130948 0.347791 0.725946
Si Si2 0.341040 0.419216 0.573900
Si Si3 0.283699 0.862266 0.630551
Si Si4 0.341409 0.808175 0.204154
Si Si5 0.008297 0.828215 0.728801
Si Si6 0.108439 0.330154 0.985872
Si Si7 0.744786 0.796284 0.655389
Si Si8 0.044140 0.125225 0.883009
O O1 0.158059 0.348238 0.806894
O O2 0.146729 0.513975 0.698072
O O3 0.052712 0.291041 0.712499
O O4 0.179657 0.228184 0.687713
O O5 0.330930 0.500000 0.500000
O O6 0.386326 0.272465 0.553693
O O7 0.273232 0.343141 0.606156
O O8 0.381072 0.537241 0.623608
O O9 0.216595 0.763553 0.652716
O O10 0.318589 0.819896 0.557482
O O11 0.263756 0.037480 0.626131
O O12 0.416623 0.729395 0.204671
O O13 0.309175 0.782483 0.280725
O O14 0.996035 0.840193 0.812352
O O15 0.000000 0.000000 0.703674
O O16 0.053775 0.264782 0.931659
O O17 0.094443 0.500000 0.000000
O O18 0.000000 0.000000 0.921971
#
# Coordination Sequence:
#
# PCOD9329938 Si02
#       8
#     8   8   8   8   8   8   8   8
#     4  10  21  34  57  81 114 145 191 244 306 356
#     4  10  22  34  55  80 115 154 198 233 282 350
#     4  10  20  37  56  84 115 149 195 253 293 349
#     4  10  22  34  58  83 113 149 196 242 311 349
#     4  11  20  36  56  81 113 156 186 240 300 363
#     4  11  21  38  60  82 118 157 206 248 285 338
#     4  10  19  35  54  81 112 147 191 244 295 351
#     4  10  22  38  57  76 120 157 202 240 296 349
#
# _framework density 19.426940999999999
#
# number of rings (size 3 to 8) (size 9 to 14) (size 15 to 20)
#    0.000    1.750    2.500    2.625    3.500    4.250 
#    0.000    1.250    0.000    0.000    0.000    0.875 
#    0.000    0.000    0.000    0.000    0.000    0.000 
#
# Total GULP energy -178525.040591 kJ/mol
# GULP energy per Si atom -5578.907518 kJ/mol
# Density = 1.938272 g / cm^3
# Si number density = 19.426941 Si / 1000 Ang^3
#
#
#
# Elastic Constant Matrix: (Units=GPa)
#
#
# Indices 1 2 3 4 5 6 
#
# 1 101.8940 34.9041 7.8809 0.0000 0.0000 0.0000
# 2 34.9041 125.4715 11.5005 0.0000 0.0000 0.0000
# 3 7.8809 11.5005 21.4863 0.0000 0.0000 0.0000
# 4 0.0000 0.0000 0.0000 24.9460 0.0000 0.0000
# 5 0.0000 0.0000 0.0000 0.0000 19.0711 0.0000
# 6 0.0000 0.0000 0.0000 0.0000 0.0000 38.0662
#
#
#
# Elastic Compliance Matrix: (Units=1/GPa)
#
#
# Indices 1 2 3 4 5 6 
#
# 1 0.010976 -0.002823 -0.002515 0.000000 0.000000 0.000000
# 2 -0.002823 0.009107 -0.003839 0.000000 0.000000 0.000000
# 3 -0.002515 -0.003839 0.049519 0.000000 0.000000 0.000000
# 4 0.000000 0.000000 0.000000 0.040087 0.000000 0.000000
# 5 0.000000 0.000000 0.000000 0.000000 0.052435 0.000000
# 6 0.000000 0.000000 0.000000 0.000000 0.000000 0.026270
#
#
# Mechanical properties :
#
#
# Convention : Reuss Voigt Hill
#
# Bulk Modulus (GPa) = 19.51307 39.71363 29.61335
# Shear Modulus (GPa) = 22.33847 29.38775 25.86311
#
# Velocity S-wave (km/s) = 3.39465 3.89361 3.65266
# Velocity P-wave (km/s) = 5.04292 6.37969 5.75028
#
# Compressibility (1/GPa) = 0.05124771
#
# Stress axis : x y z
#
# Youngs Moduli (GPa) = 91.11157 109.80491 20.19445
#
# Poissons Ratio (x) = 0.30995 0.05079
# Poissons Ratio (y) = 0.25718 0.07753
# Poissons Ratio (z) = 0.22913 0.42156
#
# Static dielectric constant tensor:
#      x y z
#    x 1.750050 0.000000 0.000000 
#    y 0.000000 1.721970 0.000000 
#    z 0.000000 0.000000 1.682320 
# 
# From -- ./inp_files/11407.got.cif
#   From: 2010.05.17/outbox.cif.g08.bks.cpg/sg23_6_cif.got.tgz:11407.got - 2010.06.04 12:02:01.
