data_PCOD9329969
_publ_section_title
;
Structure prediction by ZEFSAII (Michael W. Deem and Ramdas Pophale) SiO2 
 PCOD9329969
Probable space group: I 2 2 2
;
_chemical_formula_sum "Si O2"
_cell_formula_units_Z 32
_cell_length_a 13.873158
_cell_length_b 5.610377
_cell_length_c 14.912854
_cell_angle_alpha 90.000000
_cell_angle_beta 90.000000
_cell_angle_gamma 90.000000
_cell_volume 1160.721807
_symmetry_space_group_name_H-M "I 2 2 2"
_symmetry_group_IT_number 23
_symmetry_cell_setting 'orthorhombic'
loop_
_space_group_symop_operation_xyz
x,y,z
-x,-y,z
x,-y,-z
-x,y,-z
1/2+x,1/2+y,1/2+z
1/2-x,1/2-y,1/2+z
1/2+x,1/2-y,1/2-z
1/2-x,1/2+y,1/2-z
loop_
_atom_site_type_symbol
_atom_site_label
_atom_site_fract_x
_atom_site_fract_y
_atom_site_fract_z
Si Si1 0.839176 0.250000 0.013420
Si Si2 0.730345 0.750001 0.799280
Si Si3 0.490135 0.750000 0.223785
Si Si4 0.873089 0.750000 0.550378
O O1 0.792984 0.250000 0.111747
O O2 0.890090 0.500000 0.000000
O O3 0.744101 0.250000 0.947184
O O4 0.890090 0.000000 0.000000
O O5 0.750000 0.500002 0.749999
O O6 0.616432 0.750000 0.817188
O O7 0.500000 0.500000 0.274920
O O8 0.568669 0.750000 0.143628
O O9 0.500000 0.000000 0.274920
O O10 0.895928 0.500000 0.500000
O O11 0.895928 0.000000 0.500000
#
# Coordination Sequence:
#
# PCOD9329969 Si02
#       4
#     8   8   8   8
#     4  10  19  35  59  86 118 165 216 254 296 369
#     4  12  26  41  56  87 142 184 204 252 332 402
#     4  12  23  37  59  86 118 165 216 254 296 369
#     4  10  20  31  52  88 120 148 200 252 288 346
#
# _framework density 27.569050000000001
#
# number of rings (size 3 to 8) (size 9 to 14) (size 15 to 20)
#    0.000    1.000    0.000   10.500    0.000   10.000 
#    0.000    0.000    0.000    0.000    0.000    0.000 
#    0.000   70.000    0.000    0.000    0.000    0.000 
#
# Total GULP energy -89694.105417 kJ/mol
# GULP energy per Si atom -5605.881589 kJ/mol
# Density = 2.750630 g / cm^3
# Si number density = 27.569050 Si / 1000 Ang^3
#
#
#
# Elastic Constant Matrix: (Units=GPa)
#
#
# Indices 1 2 3 4 5 6 
#
# 1 126.4001 31.8780 16.4801 0.0000 0.0000 0.0000
# 2 31.8780 394.4234 65.3577 0.0000 0.0000 0.0000
# 3 16.4801 65.3577 86.0145 0.0000 0.0000 0.0000
# 4 0.0000 0.0000 0.0000 51.6774 0.0000 0.0000
# 5 0.0000 0.0000 0.0000 0.0000 20.9286 0.0000
# 6 0.0000 0.0000 0.0000 0.0000 0.0000 11.7716
#
#
#
# Elastic Compliance Matrix: (Units=1/GPa)
#
#
# Indices 1 2 3 4 5 6 
#
# 1 0.008186 -0.000460 -0.001219 0.000000 0.000000 0.000000
# 2 -0.000460 0.002926 -0.002136 0.000000 0.000000 0.000000
# 3 -0.001219 -0.002136 0.013482 0.000000 0.000000 0.000000
# 4 0.000000 0.000000 0.000000 0.019351 0.000000 0.000000
# 5 0.000000 0.000000 0.000000 0.000000 0.047782 0.000000
# 6 0.000000 0.000000 0.000000 0.000000 0.000000 0.084951
#
#
# Mechanical properties :
#
#
# Convention : Reuss Voigt Hill
#
# Bulk Modulus (GPa) = 58.94098 92.69662 75.81880
# Shear Modulus (GPa) = 26.32108 49.75032 38.03570
#
# Velocity S-wave (km/s) = 3.09323 4.25263 3.71840
# Velocity P-wave (km/s) = 5.84664 7.60326 6.78207
#
# Compressibility (1/GPa) = 0.01696612
#
# Stress axis : x y z
#
# Youngs Moduli (GPa) = 122.15589 341.72178 74.17175
#
# Poissons Ratio (x) = 0.15705 0.09043
# Poissons Ratio (y) = 0.05614 0.15840
# Poissons Ratio (z) = 0.14894 0.72975
#
# Static dielectric constant tensor:
#      x y z
#    x 2.106050 0.000000 0.000000 
#    y 0.000000 2.218530 0.000000 
#    z 0.000000 0.000000 2.156920 
# 
# From -- ./inp_files/21857.got.cif
#   From: 2010.05.17/outbox.cif.g08.bks.cpg/sg23_11_cif.got.tgz:21857.got - 2010.06.04 12:02:01.
