data_PCOD9329927
_publ_section_title
;
Structure prediction by ZEFSAII (Michael W. Deem and Ramdas Pophale) SiO2 
 PCOD9329927
Probable space group: I 2 2 2
;
_chemical_formula_sum "Si O2"
_cell_formula_units_Z 64
_cell_length_a 12.900505
_cell_length_b 17.592772
_cell_length_c 11.793214
_cell_angle_alpha 90.000000
_cell_angle_beta 90.000000
_cell_angle_gamma 90.000000
_cell_volume 2676.536468
_symmetry_space_group_name_H-M "I 2 2 2"
_symmetry_group_IT_number 23
_symmetry_cell_setting 'orthorhombic'
loop_
_space_group_symop_operation_xyz
x,y,z
-x,-y,z
x,-y,-z
-x,y,-z
1/2+x,1/2+y,1/2+z
1/2-x,1/2-y,1/2+z
1/2+x,1/2-y,1/2-z
1/2-x,1/2+y,1/2-z
loop_
_atom_site_type_symbol
_atom_site_label
_atom_site_fract_x
_atom_site_fract_y
_atom_site_fract_z
Si Si1 0.861001 0.483723 0.812984
Si Si2 0.032027 0.841276 0.370245
Si Si3 0.495843 0.128904 0.379633
Si Si4 0.109623 0.572468 0.561156
Si Si5 0.367615 0.529585 0.740308
Si Si6 0.190507 0.163171 0.934589
Si Si7 0.653249 0.782250 0.244663
Si Si8 0.134599 0.859912 0.816994
O O1 0.919267 0.554813 0.869661
O O2 0.901792 0.459810 0.687730
O O3 0.740203 0.492464 0.800627
O O4 0.890263 0.406543 0.875908
O O5 0.067766 0.926074 0.335544
O O6 0.125759 0.782522 0.345887
O O7 0.000000 0.836597 0.500000
O O8 0.940138 0.824282 0.278782
O O9 0.500000 0.169779 0.500000
O O10 0.454003 0.175632 0.274205
O O11 0.161715 0.500000 0.500000
O O12 0.188297 0.641642 0.550027
O O13 0.000000 0.586625 0.500000
O O14 0.350792 0.593168 0.643049
O O15 0.395959 0.449124 0.684952
O O16 0.181970 0.238130 0.859748
O O17 0.130226 0.167168 0.053049
O O18 0.746000 0.839138 0.214328
#
# Coordination Sequence:
#
# PCOD9329927 Si02
#       8
#     8   8   8   8   8   8   8   8
#     4  10  20  39  64 106 139 180 232 304 365 425
#     4  11  29  52  74 108 149 201 249 304 384 454
#     4  11  23  40  66  99 141 187 245 292 369 440
#     4  10  19  34  67 102 137 173 227 294 357 422
#     4  10  22  47  77 109 141 183 253 312 365 443
#     4  10  24  44  70 104 142 190 241 302 374 436
#     4  11  28  47  69 105 148 198 246 299 373 457
#     4  12  25  47  78 105 146 191 248 310 369 446
#
# _framework density 23.911498999999999
#
# number of rings (size 3 to 8) (size 9 to 14) (size 15 to 20)
#    0.000    1.375    1.250    4.500    5.250    6.500 
#    2.250    3.125    0.000    0.000    0.000    0.000 
#    0.000    0.000    0.000    0.000    0.000    0.000 
#
# Total GULP energy -178717.922302 kJ/mol
# GULP energy per Si atom -5584.935072 kJ/mol
# Density = 2.385708 g / cm^3
# Si number density = 23.911499 Si / 1000 Ang^3
#
#
#
# Elastic Constant Matrix: (Units=GPa)
#
#
# Indices 1 2 3 4 5 6 
#
# 1 66.9257 5.7501 23.0515 0.0000 0.0000 0.0000
# 2 5.7501 88.9507 28.5016 0.0000 0.0000 0.0000
# 3 23.0515 28.5016 123.8698 0.0000 0.0000 0.0000
# 4 0.0000 0.0000 0.0000 5.6429 0.0000 0.0000
# 5 0.0000 0.0000 0.0000 0.0000 12.3677 0.0000
# 6 0.0000 0.0000 0.0000 0.0000 0.0000 24.3189
#
#
#
# Elastic Compliance Matrix: (Units=1/GPa)
#
#
# Indices 1 2 3 4 5 6 
#
# 1 0.015966 -0.000086 -0.002951 0.000000 0.000000 0.000000
# 2 -0.000086 0.012137 -0.002777 0.000000 0.000000 0.000000
# 3 -0.002951 -0.002777 0.009261 0.000000 0.000000 0.000000
# 4 0.000000 0.000000 0.000000 0.177213 0.000000 0.000000
# 5 0.000000 0.000000 0.000000 0.000000 0.080856 0.000000
# 6 0.000000 0.000000 0.000000 0.000000 0.000000 0.041120
#
#
# Mechanical properties :
#
#
# Convention : Reuss Voigt Hill
#
# Bulk Modulus (GPa) = 38.85655 43.81695 41.33675
# Shear Modulus (GPa) = 14.01500 23.29544 18.65522
#
# Velocity S-wave (km/s) = 2.42362 3.12466 2.79620
# Velocity P-wave (km/s) = 4.91094 5.60200 5.26782
#
# Compressibility (1/GPa) = 0.02573569
#
# Stress axis : x y z
#
# Youngs Moduli (GPa) = 62.63356 82.38956 107.97853
#
# Poissons Ratio (x) = 0.00712 0.31867
# Poissons Ratio (y) = 0.00541 0.29982
# Poissons Ratio (z) = 0.18485 0.22877
#
# Static dielectric constant tensor:
#      x y z
#    x 1.995550 0.000000 0.000000 
#    y 0.000000 1.950840 0.000000 
#    z 0.000000 0.000000 2.079930 
# 
# From -- ./inp_files/16978.got.cif
#   From: 2010.05.17/outbox.cif.g08.bks.cpg/sg23_9_cif.got.tgz:16978.got - 2010.06.04 12:02:01.
