data_PCOD9329579
_publ_section_title
;
Structure prediction by ZEFSAII (Michael W. Deem and Ramdas Pophale) SiO2 
 PCOD9329579
Probable space group: I 2 2 2
;
_chemical_formula_sum "Si O2"
_cell_formula_units_Z 64
_cell_length_a 8.211983
_cell_length_b 24.554693
_cell_length_c 16.055863
_cell_angle_alpha 90.000000
_cell_angle_beta 90.000000
_cell_angle_gamma 90.000000
_cell_volume 3237.547911
_symmetry_space_group_name_H-M "I 2 2 2"
_symmetry_group_IT_number 23
_symmetry_cell_setting 'orthorhombic'
loop_
_space_group_symop_operation_xyz
x,y,z
-x,-y,z
x,-y,-z
-x,y,-z
1/2+x,1/2+y,1/2+z
1/2-x,1/2-y,1/2+z
1/2+x,1/2-y,1/2-z
1/2-x,1/2+y,1/2-z
loop_
_atom_site_type_symbol
_atom_site_label
_atom_site_fract_x
_atom_site_fract_y
_atom_site_fract_z
Si Si1 0.306793 0.869280 0.842472
Si Si2 0.300785 0.133641 0.658067
Si Si3 0.196691 0.752499 0.902371
Si Si4 0.806794 0.369280 0.657528
Si Si5 0.306646 0.438696 0.500000
Si Si6 0.199228 0.562621 1.000000
Si Si7 0.699215 0.866359 0.341933
Si Si8 0.196691 0.752499 0.097629
O O1 0.266544 0.806206 0.860077
O O2 0.500000 0.875840 0.842333
O O3 0.245201 0.883595 0.749926
O O4 0.241197 0.905494 0.917672
O O5 0.250921 0.195787 0.638960
O O6 0.245201 0.116405 0.749926
O O7 0.248290 0.094837 0.582737
O O8 0.500000 0.133383 0.657803
O O9 1.000000 0.755287 0.898102
O O10 0.241765 0.752022 1.000000
O O11 0.741197 0.405494 0.582328
O O12 0.766544 0.306206 0.639923
O O13 0.237110 0.500000 0.500000
O O14 0.500000 0.442366 0.500000
O O15 0.251382 0.500000 0.000000
O O16 0.251710 0.594837 0.082738
O O17 0.000000 0.563191 0.000000
O O18 0.749079 0.804214 0.361041
#
# Coordination Sequence:
#
# PCOD9329579 Si02
#       8
#     8   8   8   8   8   8   8   8
#     4  11  22  35  56  86 117 140 175 232 284 326
#     4   9  18  32  51  81 115 148 181 220 272 325
#     4  10  18  32  56  80 112 152 186 217 262 330
#     4  11  22  35  56  86 117 140 175 232 284 326
#     4  11  25  44  61  76 102 147 196 231 272 337
#     4   9  16  29  50  75 106 143 182 219 262 323
#     4   9  18  32  51  81 115 148 181 220 272 325
#     4  10  18  32  56  80 112 152 186 217 262 330
#
# _framework density 19.768048
#
# number of rings (size 3 to 8) (size 9 to 14) (size 15 to 20)
#    0.000    2.000    2.500    1.875    0.000    2.000 
#    0.000    3.750    0.000    0.000    0.000    0.000 
#    0.000    7.000    0.000    0.000    0.000    0.000 
#
# Total GULP energy -178716.932371 kJ/mol
# GULP energy per Si atom -5584.904137 kJ/mol
# Density = 1.972305 g / cm^3
# Si number density = 19.768048 Si / 1000 Ang^3
#
#
#
# Elastic Constant Matrix: (Units=GPa)
#
#
# Indices 1 2 3 4 5 6 
#
# 1 14.9121 13.4995 24.1681 0.0000 0.0000 0.0000
# 2 13.4995 162.4400 101.0159 0.0000 0.0000 0.0000
# 3 24.1681 101.0159 216.7630 0.0001 0.0000 0.0001
# 4 0.0000 0.0000 0.0001 -1.2329 0.0000 0.0000
# 5 0.0000 0.0000 0.0000 0.0000 2.4112 0.0000
# 6 0.0000 0.0000 0.0001 0.0000 0.0000 -43.8902
#
#
#
# Elastic Compliance Matrix: (Units=1/GPa)
#
#
# Indices 1 2 3 4 5 6 
#
# 1 0.082142 -0.001593 -0.008416 0.000000 0.000000 0.000000
# 2 -0.001593 0.008699 -0.003876 0.000000 0.000000 0.000000
# 3 -0.008416 -0.003876 0.007358 0.000000 0.000000 0.000000
# 4 0.000000 0.000000 0.000000 -0.811094 0.000008 0.000000
# 5 0.000000 0.000000 0.000000 0.000008 0.414725 0.000000
# 6 0.000000 0.000000 0.000000 0.000000 0.000000 -0.022784
#
#
# Mechanical properties :
#
#
# Convention : Reuss Voigt Hill
#
# Bulk Modulus (GPa) = 14.19879 74.60915 44.40397
# Shear Modulus (GPa) = -18.53858 8.48639 -5.02610
#
# Velocity S-wave (km/s) = -3.06568 2.07420 -1.59626
# Velocity P-wave (km/s) = 2.30931 6.60005 4.37194
#
# Compressibility (1/GPa) = 0.07042855
#
# Stress axis : x y z
#
# Youngs Moduli (GPa) = 12.17408 114.95502 135.90323
#
# Poissons Ratio (x) = 0.18307 1.14380
# Poissons Ratio (y) = 0.01939 0.52681
# Poissons Ratio (z) = 0.10246 0.44561
#
# Static dielectric constant tensor:
#      x y z
#    x 1.690440 0.000000 0.000000 
#    y 0.000000 1.670780 0.000000 
#    z 0.000000 0.000000 1.706300 
# 
# From -- ./inp_files/20339.got.cif
#   From: 2010.05.17/outbox.cif.g08.bks.cpg/sg23_11_cif.got.tgz:20339.got - 2010.06.04 12:02:01.
