data_PCOD9329386
_publ_section_title
;
Structure prediction by ZEFSAII (Michael W. Deem and Ramdas Pophale) SiO2 
 PCOD9329386
Probable space group: I 2 2 2
;
_chemical_formula_sum "Si O2"
_cell_formula_units_Z 40
_cell_length_a 12.701620
_cell_length_b 15.037835
_cell_length_c 8.828010
_cell_angle_alpha 90.000000
_cell_angle_beta 90.000000
_cell_angle_gamma 90.000000
_cell_volume 1686.192865
_symmetry_space_group_name_H-M "I 2 2 2"
_symmetry_group_IT_number 23
_symmetry_cell_setting 'orthorhombic'
loop_
_space_group_symop_operation_xyz
x,y,z
-x,-y,z
x,-y,-z
-x,y,-z
1/2+x,1/2+y,1/2+z
1/2-x,1/2-y,1/2+z
1/2+x,1/2-y,1/2-z
1/2-x,1/2+y,1/2-z
loop_
_atom_site_type_symbol
_atom_site_label
_atom_site_fract_x
_atom_site_fract_y
_atom_site_fract_z
Si Si1 0.500000 0.500000 0.000000
Si Si2 0.000000 0.500000 0.500000
Si Si3 0.710236 0.373510 0.780543
Si Si4 0.458484 0.378374 0.754134
Si Si5 0.000000 0.000000 0.000000
Si Si6 0.500000 0.000000 0.500000
Si Si7 0.211327 0.787592 0.615126
Si Si8 0.655626 0.056727 0.745755
O O1 0.427577 0.440557 0.895647
O O2 0.080227 0.554116 0.392127
O O3 0.584407 0.380518 0.760204
O O4 0.745776 0.309824 0.644127
O O5 0.775486 0.465557 0.769515
O O6 0.723482 0.323558 0.943690
O O7 0.432343 0.432945 0.603550
O O8 0.405106 0.288404 0.806481
O O9 0.574610 0.057646 0.605904
O O10 0.272321 0.857472 0.723967
#
# Coordination Sequence:
#
# PCOD9329386 Si02
#       8
#     2   2   8   8   2   2   8   8
#     4  10  16  40  74  94 124 190 224 268 366 422
#     4  10  28  44  74 108 144 196 236 304 338 420
#     4  12  27  47  75 108 142 190 241 295 358 432
#     4  11  24  44  72 106 147 179 234 299 363 417
#     4  10  24  36  74 110 132 186 224 292 350 422
#     4  10  20  44  70 104 128 196 240 280 334 424
#     4  12  27  47  75 108 142 190 241 295 358 432
#     4  11  24  48  76  99 144 189 242 285 360 422
#
# _framework density 23.722079000000001
#
# number of rings (size 3 to 8) (size 9 to 14) (size 15 to 20)
#    0.000    0.800    4.000    2.400    5.600    4.800 
#    0.000    0.000    0.000    0.000    0.000    0.000 
#    0.000    0.000    0.000    0.000    0.000    0.000 
#
# Total GULP energy -111707.492679 kJ/mol
# GULP energy per Si atom -5585.374634 kJ/mol
# Density = 2.366809 g / cm^3
# Si number density = 23.722079 Si / 1000 Ang^3
#
#
#
# Elastic Constant Matrix: (Units=GPa)
#
#
# Indices 1 2 3 4 5 6 
#
# 1 113.2418 30.0121 18.0916 0.0000 0.0000 0.0000
# 2 30.0121 75.4330 7.6913 0.0000 0.0000 0.0000
# 3 18.0916 7.6913 118.5192 0.0000 0.0000 0.0000
# 4 0.0000 0.0000 0.0000 22.3402 0.0000 0.0000
# 5 0.0000 0.0000 0.0000 0.0000 31.5785 0.0000
# 6 0.0000 0.0000 0.0000 0.0000 0.0000 18.6865
#
#
#
# Elastic Compliance Matrix: (Units=1/GPa)
#
#
# Indices 1 2 3 4 5 6 
#
# 1 0.010062 -0.003872 -0.001285 0.000000 0.000000 0.000000
# 2 -0.003872 0.014835 -0.000372 0.000000 0.000000 0.000000
# 3 -0.001285 -0.000372 0.008658 0.000000 0.000000 0.000000
# 4 0.000000 0.000000 0.000000 0.044762 0.000000 0.000000
# 5 0.000000 0.000000 0.000000 0.000000 0.031667 0.000000
# 6 0.000000 0.000000 0.000000 0.000000 0.000000 0.053515
#
#
# Mechanical properties :
#
#
# Convention : Reuss Voigt Hill
#
# Bulk Modulus (GPa) = 44.44871 46.53157 45.49014
# Shear Modulus (GPa) = 27.46407 31.28096 29.37252
#
# Velocity S-wave (km/s) = 3.40625 3.63525 3.52261
# Velocity P-wave (km/s) = 5.85218 6.10557 5.98022
#
# Compressibility (1/GPa) = 0.02249784
#
# Stress axis : x y z
#
# Youngs Moduli (GPa) = 99.38194 67.40645 115.50457
#
# Poissons Ratio (x) = 0.26102 0.14838
# Poissons Ratio (y) = 0.38485 0.04292
# Poissons Ratio (z) = 0.12767 0.02505
#
# Static dielectric constant tensor:
#      x y z
#    x 1.964520 0.000000 0.000000 
#    y 0.000000 1.966520 0.000000 
#    z 0.000000 0.000000 1.961800 
# 
# From -- ./inp_files/8287.got.cif
#   From: 2010.05.17/outbox.cif.g08.bks.cpg/sg23_5_cif.got.tgz:8287.got - 2010.06.04 12:02:01.
