data_PCOD9329647
_publ_section_title
;
Structure prediction by ZEFSAII (Michael W. Deem and Ramdas Pophale) SiO2 
 PCOD9329647
Probable space group: I 2 2 2
;
_chemical_formula_sum "Si O2"
_cell_formula_units_Z 58
_cell_length_a 17.530985
_cell_length_b 15.259226
_cell_length_c 10.932755
_cell_angle_alpha 90.000000
_cell_angle_beta 90.000000
_cell_angle_gamma 90.000000
_cell_volume 2924.613223
_symmetry_space_group_name_H-M "I 2 2 2"
_symmetry_group_IT_number 23
_symmetry_cell_setting 'orthorhombic'
loop_
_space_group_symop_operation_xyz
x,y,z
-x,-y,z
x,-y,-z
-x,y,-z
1/2+x,1/2+y,1/2+z
1/2-x,1/2-y,1/2+z
1/2+x,1/2-y,1/2-z
1/2-x,1/2+y,1/2-z
loop_
_atom_site_type_symbol
_atom_site_label
_atom_site_fract_x
_atom_site_fract_y
_atom_site_fract_z
Si Si1 0.120897 0.543150 0.792925
Si Si2 0.163584 0.698164 0.619601
Si Si3 0.667069 0.369112 0.264369
Si Si4 0.000000 0.500000 0.000000
Si Si5 0.201914 0.962279 0.368296
Si Si6 0.663068 0.693933 0.281195
Si Si7 0.654250 0.865672 0.159537
Si Si8 0.910621 0.097008 0.002662
O O1 0.121560 0.630523 0.710860
O O2 0.206746 0.535766 0.847494
O O3 0.116791 0.457050 0.703610
O O4 0.058970 0.544874 0.902317
O O5 0.147131 0.798476 0.659524
O O6 0.254382 0.694160 0.651102
O O7 0.147827 0.663645 0.482205
O O8 0.659908 0.468973 0.220376
O O9 0.755286 0.365109 0.307920
O O10 0.618121 0.351722 0.384245
O O11 0.186133 0.000000 0.500000
O O12 0.175650 0.864333 0.339776
O O13 0.627697 0.786510 0.245806
O O14 0.610304 0.644391 0.374197
O O15 0.000000 0.088476 0.000000
O O16 0.873955 0.000000 0.000000
#
# Coordination Sequence:
#
# PCOD9329647 Si02
#       8
#     8   8   8   2   8   8   8   8
#     4  10  23  38  62  81 119 164 199 250 310 348
#     4  10  20  37  61  91 117 153 211 250 301 354
#     4  10  20  34  60  91 122 154 193 256 299 346
#     4  12  24  48  58  88 128 158 214 254 308 396
#     4  10  18  34  60  91 115 149 195 252 306 352
#     4  10  20  34  60  91 122 154 193 256 299 346
#     4  10  20  37  61  91 117 153 211 250 301 354
#     4  11  22  39  61  89 125 161 200 232 306 379
#
# _framework density 19.831683000000002
#
# number of rings (size 3 to 8) (size 9 to 14) (size 15 to 20)
#    0.000    1.793    3.448    1.241    0.000    1.103 
#    4.966    1.379    0.000    3.310    0.000    0.000 
#    0.000    0.000    0.000    0.000    0.000    0.000 
#
# Total GULP energy -161599.831842 kJ/mol
# GULP energy per Si atom -5572.407995 kJ/mol
# Density = 1.978655 g / cm^3
# Si number density = 19.831683 Si / 1000 Ang^3
#
#
#
# Elastic Constant Matrix: (Units=GPa)
#
#
# Indices 1 2 3 4 5 6 
#
# 1 27.2743 11.8618 11.0292 0.0000 0.0000 0.0000
# 2 11.8618 75.1971 0.6942 0.0000 0.0000 0.0000
# 3 11.0292 0.6942 84.4284 0.0000 0.0000 0.0000
# 4 0.0000 0.0000 0.0000 780.6111 0.0000 0.0000
# 5 0.0000 0.0000 0.0000 0.0000 -10.4211 0.0000
# 6 0.0000 0.0000 0.0000 0.0000 0.0000 -6.5905
#
#
#
# Elastic Compliance Matrix: (Units=1/GPa)
#
#
# Indices 1 2 3 4 5 6 
#
# 1 0.041683 -0.006525 -0.005392 0.000000 0.000000 0.000000
# 2 -0.006525 0.014321 0.000735 0.000000 0.000000 0.000000
# 3 -0.005392 0.000735 0.012543 0.000000 0.000000 0.000000
# 4 0.000000 0.000000 0.000000 0.001281 0.000000 0.000000
# 5 0.000000 0.000000 0.000000 0.000000 -0.095959 0.000000
# 6 0.000000 0.000000 0.000000 0.000000 0.000000 -0.151735
#
#
# Mechanical properties :
#
#
# Convention : Reuss Voigt Hill
#
# Bulk Modulus (GPa) = 21.65353 26.00781 23.83067
# Shear Modulus (GPa) = -35.68668 163.60755 63.96043
#
# Velocity S-wave (km/s) = -4.24663 9.09270 5.68521
# Velocity P-wave (km/s) = 3.61978 11.10761 7.42550
#
# Compressibility (1/GPa) = 0.04618186
#
# Stress axis : x y z
#
# Youngs Moduli (GPa) = 23.99079 69.82790 79.72814
#
# Poissons Ratio (x) = 0.45565 0.42985
# Poissons Ratio (y) = 0.15655 -0.05857
# Poissons Ratio (z) = 0.12935 -0.05130
#
# Static dielectric constant tensor:
#      x y z
#    x 1.601720 0.000000 0.000000 
#    y 0.000000 1.781570 0.000000 
#    z 0.000000 0.000000 1.770080 
# 
# From -- ./inp_files/17556.got.cif
#   From: 2010.05.17/outbox.cif.g08.bks.cpg/sg23_9_cif.got.tgz:17556.got - 2010.06.04 12:02:01.
