data_PCOD9329545
_publ_section_title
;
Structure prediction by ZEFSAII (Michael W. Deem and Ramdas Pophale) SiO2 
 PCOD9329545
Probable space group: I 2 2 2
;
_chemical_formula_sum "Si O2"
_cell_formula_units_Z 56
_cell_length_a 8.510210
_cell_length_b 14.834550
_cell_length_c 23.297175
_cell_angle_alpha 90.000000
_cell_angle_beta 90.000000
_cell_angle_gamma 90.000000
_cell_volume 2941.155021
_symmetry_space_group_name_H-M "I 2 2 2"
_symmetry_group_IT_number 23
_symmetry_cell_setting 'orthorhombic'
loop_
_space_group_symop_operation_xyz
x,y,z
-x,-y,z
x,-y,-z
-x,y,-z
1/2+x,1/2+y,1/2+z
1/2-x,1/2-y,1/2+z
1/2+x,1/2-y,1/2-z
1/2-x,1/2+y,1/2-z
loop_
_atom_site_type_symbol
_atom_site_label
_atom_site_fract_x
_atom_site_fract_y
_atom_site_fract_z
Si Si1 0.167788 0.193284 0.307088
Si Si2 0.320835 0.202196 0.916905
Si Si3 0.476760 0.392094 0.371923
Si Si4 0.135496 0.148008 0.754021
Si Si5 0.610721 0.083935 0.891475
Si Si6 0.162344 0.141965 0.026953
Si Si7 0.322897 0.037401 0.236612
O O1 0.199734 0.213921 0.374160
O O2 0.229557 0.280695 0.271306
O O3 0.270390 0.111523 0.282483
O O4 0.981927 0.175931 0.296816
O O5 0.202313 0.127068 0.891065
O O6 0.498348 0.168273 0.906949
O O7 0.255578 0.205087 0.982341
O O8 0.500000 0.500000 0.376487
O O9 0.483793 0.357997 0.307567
O O10 0.589393 0.328936 0.411270
O O11 0.211429 0.049012 0.753635
O O12 0.718649 0.070559 0.947300
O O13 0.687209 0.080937 0.827877
O O14 0.500000 0.000000 0.888695
O O15 0.000000 0.107336 0.000000
O O16 0.500000 0.000000 0.243222
#
# Coordination Sequence:
#
# PCOD9329545 Si02
#       7
#     8   8   8   8   8   8   8
#     4  11  21  36  55  80 119 151 190 240 283 341
#     4  10  22  33  47  75 111 152 192 228 273 326
#     4  10  18  31  50  76 108 145 192 234 276 338
#     4  11  21  35  56  83 113 154 191 236 292 341
#     4  11  20  34  52  77 113 150 187 233 281 341
#     4  10  21  33  48  71 106 148 193 228 268 329
#     4  11  22  38  60  87 118 153 191 237 291 346
#
# _framework density 19.040137999999999
#
# number of rings (size 3 to 8) (size 9 to 14) (size 15 to 20)
#    0.000    1.429    0.000    9.429    0.000    6.000 
#    0.000    1.429    0.000    0.000    0.000    0.000 
#    0.000  114.857    0.000    0.000    0.000    0.000 
#
# Total GULP energy -155881.899191 kJ/mol
# GULP energy per Si atom -5567.210685 kJ/mol
# Density = 1.899680 g / cm^3
# Si number density = 19.040138 Si / 1000 Ang^3
#
#
#
# Elastic Constant Matrix: (Units=GPa)
#
#
# Indices 1 2 3 4 5 6 
#
# 1 80.5760 27.2786 39.2053 0.0000 0.0000 0.0000
# 2 27.2786 75.6752 50.5634 0.0000 0.0000 0.0000
# 3 39.2053 50.5634 109.6904 0.0000 0.0000 0.0000
# 4 0.0000 0.0000 0.0000 29.2633 0.0000 0.0000
# 5 0.0000 0.0000 0.0000 0.0000 23.1940 0.0000
# 6 0.0000 0.0000 0.0000 0.0000 0.0000 26.6330
#
#
#
# Elastic Compliance Matrix: (Units=1/GPa)
#
#
# Indices 1 2 3 4 5 6 
#
# 1 0.015398 -0.002707 -0.004256 0.000000 0.000000 0.000000
# 2 -0.002707 0.019572 -0.008054 0.000000 0.000000 0.000000
# 3 -0.004256 -0.008054 0.014350 0.000000 0.000000 0.000000
# 4 0.000000 0.000000 0.000000 0.034172 0.000000 0.000000
# 5 0.000000 0.000000 0.000000 0.000000 0.043115 0.000000
# 6 0.000000 0.000000 0.000000 0.000000 0.000000 0.037547
#
#
# Mechanical properties :
#
#
# Convention : Reuss Voigt Hill
#
# Bulk Modulus (GPa) = 51.85117 55.55958 53.70538
# Shear Modulus (GPa) = 24.92312 25.74435 25.33374
#
# Velocity S-wave (km/s) = 3.62191 3.68109 3.65162
# Velocity P-wave (km/s) = 6.69198 6.87829 6.78577
#
# Compressibility (1/GPa) = 0.01928597
#
# Stress axis : x y z
#
# Youngs Moduli (GPa) = 64.94486 51.09392 69.68456
#
# Poissons Ratio (x) = 0.13831 0.29655
# Poissons Ratio (y) = 0.17580 0.56127
# Poissons Ratio (z) = 0.27638 0.41153
#
# Static dielectric constant tensor:
#      x y z
#    x 1.841080 0.000000 0.000000 
#    y 0.000000 1.661020 0.000000 
#    z 0.000000 0.000000 1.755800 
# 
# From -- ./inp_files/26265.got.cif
#   From: 2010.05.17/outbox.cif.g08.bks.cpg/sg23_14_cif.got.tgz:26265.got - 2010.06.04 12:02:01.
