data_PCOD9329106
_publ_section_title
;
Structure prediction by ZEFSAII (Michael W. Deem and Ramdas Pophale) SiO2 
 PCOD9329106
Probable space group: F 2 2 2
;
_chemical_formula_sum "Si O2"
_cell_formula_units_Z 72
_cell_length_a 20.401814
_cell_length_b 12.102474
_cell_length_c 12.105739
_cell_angle_alpha 90.000000
_cell_angle_beta 90.000000
_cell_angle_gamma 90.000000
_cell_volume 2989.057355
_symmetry_space_group_name_H-M "F 2 2 2"
_symmetry_group_IT_number 22
_symmetry_cell_setting 'orthorhombic'
loop_
_space_group_symop_operation_xyz
x,y,z
-x,-y,z
x,-y,-z
-x,y,-z
x,1/2+y,1/2+z
-x,1/2-y,1/2+z
x,1/2-y,1/2-z
-x,1/2+y,1/2-z
1/2+x,y,1/2+z
1/2-x,-y,1/2+z
1/2+x,-y,1/2-z
1/2-x,y,1/2-z
1/2+x,1/2+y,z
1/2-x,1/2-y,z
1/2+x,1/2-y,-z
1/2-x,1/2+y,-z
loop_
_atom_site_type_symbol
_atom_site_label
_atom_site_fract_x
_atom_site_fract_y
_atom_site_fract_z
Si Si1 0.320339 0.000000 0.000000
Si Si2 0.075360 0.823804 0.526282
Si Si3 0.086242 0.903601 0.784372
Si Si4 0.274597 0.359925 0.127662
Si Si5 0.438802 0.655888 0.161737
O O1 0.369589 0.098674 0.970858
O O2 0.267902 0.962709 0.910233
O O3 0.087271 0.855862 0.657731
O O4 0.079468 0.708142 0.456860
O O5 0.000000 0.859505 0.500000
O O6 0.148164 0.865508 0.856221
O O7 0.017568 0.861450 0.833698
O O8 0.087358 0.036700 0.798819
O O9 0.250000 0.349899 0.250000
O O10 0.250000 0.250000 0.064340
O O11 0.422065 0.750000 0.250000
#
# Coordination Sequence:
#
# PCOD9329106 Si02
#       5
#     8  16  16  16  16
#     4  12  27  48  82 113 150 222 274 324 418 497
#     4  12  25  45  84 119 157 215 268 339 427 483
#     4  11  26  52  74 118 168 206 272 350 410 487
#     4  11  27  49  77 108 159 214 266 327 403 509
#     4  11  25  45  80 118 158 205 270 344 410 493
#
# _framework density 24.087861
#
# number of rings (size 3 to 8) (size 9 to 14) (size 15 to 20)
#    0.000    0.667    4.444    1.667    9.333    1.778 
#    0.000    1.111    0.000    0.000    0.000    0.000 
#    0.000    0.000    0.000    0.000    0.000    0.000 
#
# Total GULP energy -100420.000177 kJ/mol
# GULP energy per Si atom -5578.888899 kJ/mol
# Density = 2.403304 g / cm^3
# Si number density = 24.087861 Si / 1000 Ang^3
#
#
#
# Elastic Constant Matrix: (Units=GPa)
#
#
# Indices 1 2 3 4 5 6 
#
# 1 161.1015 58.1094 72.2660 0.0000 0.0000 0.0000
# 2 58.1094 180.8163 97.8116 0.0000 0.0000 0.0000
# 3 72.2660 97.8116 160.0909 0.0000 0.0000 0.0000
# 4 0.0000 0.0000 0.0000 -48.6982 0.0000 0.0000
# 5 0.0000 0.0000 0.0000 0.0000 23.7877 0.0000
# 6 0.0000 0.0000 0.0000 0.0000 0.0000 52.4374
#
#
#
# Elastic Compliance Matrix: (Units=1/GPa)
#
#
# Indices 1 2 3 4 5 6 
#
# 1 0.007882 -0.000909 -0.003003 0.000000 0.000000 0.000000
# 2 -0.000909 0.008365 -0.004701 0.000000 0.000000 0.000000
# 3 -0.003003 -0.004701 0.010474 0.000000 0.000000 0.000000
# 4 0.000000 0.000000 0.000000 -0.020535 0.000000 0.000000
# 5 0.000000 0.000000 0.000000 0.000000 0.042039 0.000000
# 6 0.000000 0.000000 0.000000 0.000000 0.000000 0.019070
#
#
# Mechanical properties :
#
#
# Convention : Reuss Voigt Hill
#
# Bulk Modulus (GPa) = 105.29936 106.48698 105.89317
# Shear Modulus (GPa) = 57.02160 23.76016 40.39088
#
# Velocity S-wave (km/s) = 4.87070 3.14410 4.09934
# Velocity P-wave (km/s) = 8.68569 7.58183 8.15247
#
# Compressibility (1/GPa) = 0.00949673
#
# Stress axis : x y z
#
# Youngs Moduli (GPa) = 126.87114 119.53970 95.47415
#
# Poissons Ratio (x) = 0.10863 0.28669
# Poissons Ratio (y) = 0.11529 0.44881
# Poissons Ratio (z) = 0.38097 0.56194
#
# Static dielectric constant tensor:
#      x y z
#    x 2.925570 0.000000 0.000000 
#    y 0.000000 1.965520 0.000000 
#    z 0.000000 0.000000 1.997640 
# 
# From -- ./inp_files/37758.got.cif
#   From: 2010.05.17/outbox.cif.g08.bks.cpg/sg22_19_cif.got.tgz:37758.got - 2010.06.03 23:40:54.
