data_PCOD9329787
_publ_section_title
;
Structure prediction by ZEFSAII (Michael W. Deem and Ramdas Pophale) SiO2 
 PCOD9329787
Probable space group: I 2 2 2
;
_chemical_formula_sum "Si O2"
_cell_formula_units_Z 64
_cell_length_a 13.005880
_cell_length_b 8.746398
_cell_length_c 30.486946
_cell_angle_alpha 90.000000
_cell_angle_beta 90.000000
_cell_angle_gamma 90.000000
_cell_volume 3468.030433
_symmetry_space_group_name_H-M "I 2 2 2"
_symmetry_group_IT_number 23
_symmetry_cell_setting 'orthorhombic'
loop_
_space_group_symop_operation_xyz
x,y,z
-x,-y,z
x,-y,-z
-x,y,-z
1/2+x,1/2+y,1/2+z
1/2-x,1/2-y,1/2+z
1/2+x,1/2-y,1/2-z
1/2-x,1/2+y,1/2-z
loop_
_atom_site_type_symbol
_atom_site_label
_atom_site_fract_x
_atom_site_fract_y
_atom_site_fract_z
Si Si1 0.943201 0.654258 0.684100
Si Si2 0.145720 0.171983 0.283826
Si Si3 0.598531 0.221763 0.553635
Si Si4 0.117400 0.048448 0.637375
Si Si5 0.727211 0.468743 0.953611
Si Si6 0.125877 0.203024 0.041248
Si Si7 0.243470 0.990147 0.208483
Si Si8 0.384687 0.530765 0.621649
O O1 0.888816 0.772971 0.650805
O O2 0.849432 0.586421 0.712261
O O3 0.000000 0.500000 0.665821
O O4 0.032164 0.752337 0.708966
O O5 0.161999 0.066574 0.241340
O O6 0.224092 0.315068 0.282239
O O7 0.165945 0.058004 0.324721
O O8 0.476371 0.195678 0.551429
O O9 0.617124 0.330025 0.510741
O O10 0.622414 0.302419 0.599675
O O11 0.674196 0.081216 0.546781
O O12 0.166283 0.012279 0.590832
O O13 0.000000 0.000000 0.635133
O O14 0.771381 0.298887 0.953564
O O15 0.671974 0.500000 0.000000
O O16 0.124665 0.076694 0.078813
O O17 0.197854 0.996637 0.159346
O O18 0.500000 0.500000 0.639189
#
# Coordination Sequence:
#
# PCOD9329787 Si02
#       8
#     8   8   8   8   8   8   8   8
#     4   9  20  38  58  80 105 141 185 220 269 336
#     4  10  22  37  57  80 104 142 178 217 274 334
#     4   9  17  31  48  72 106 139 174 209 255 322
#     4  10  20  36  55  75 103 138 175 218 267 322
#     4  10  19  31  51  77 101 133 175 218 262 310
#     4   9  17  30  49  72 104 142 172 208 260 319
#     4  11  21  36  56  79 108 137 177 230 273 324
#     4  10  20  31  49  77 105 137 175 219 268 316
#
# _framework density 18.454279
#
# number of rings (size 3 to 8) (size 9 to 14) (size 15 to 20)
#    0.000    2.250    0.000    3.000    0.000    5.750 
#    0.000    0.000    0.000    3.000    0.000    7.000 
#    0.000    0.000    0.000    0.000    0.000    0.000 
#
# Total GULP energy -178155.301677 kJ/mol
# GULP energy per Si atom -5567.353177 kJ/mol
# Density = 1.841228 g / cm^3
# Si number density = 18.454279 Si / 1000 Ang^3
#
#
#
# Elastic Constant Matrix: (Units=GPa)
#
#
# Indices 1 2 3 4 5 6 
#
# 1 30.8963 26.7726 30.2777 0.0000 0.0000 0.0000
# 2 26.7726 78.1120 42.1195 0.0000 0.0000 0.0000
# 3 30.2777 42.1195 113.9210 0.0000 0.0000 0.0000
# 4 0.0000 0.0000 0.0000 19.6789 0.0000 0.0000
# 5 0.0000 0.0000 0.0000 0.0000 20.1878 0.0000
# 6 0.0000 0.0000 0.0000 0.0000 0.0000 17.1824
#
#
#
# Elastic Compliance Matrix: (Units=1/GPa)
#
#
# Indices 1 2 3 4 5 6 
#
# 1 0.052718 -0.013132 -0.009156 0.000000 0.000000 0.000000
# 2 -0.013132 0.019261 -0.003631 0.000000 0.000000 0.000000
# 3 -0.009156 -0.003631 0.012554 0.000000 0.000000 0.000000
# 4 0.000000 0.000000 0.000000 0.050816 0.000000 0.000000
# 5 0.000000 0.000000 0.000000 0.000000 0.049535 0.000000
# 6 0.000000 0.000000 0.000000 0.000000 0.000000 0.058199
#
#
# Mechanical properties :
#
#
# Convention : Reuss Voigt Hill
#
# Bulk Modulus (GPa) = 30.58563 46.80766 38.69664
# Shear Modulus (GPa) = 16.34949 19.66045 18.00497
#
# Velocity S-wave (km/s) = 2.97971 3.26753 3.12693
# Velocity P-wave (km/s) = 5.33366 6.29721 5.83536
#
# Compressibility (1/GPa) = 0.03269510
#
# Stress axis : x y z
#
# Youngs Moduli (GPa) = 18.96870 51.91835 79.65557
#
# Poissons Ratio (x) = 0.68178 0.72934
# Poissons Ratio (y) = 0.24909 0.28924
# Poissons Ratio (z) = 0.17368 0.18852
#
# Static dielectric constant tensor:
#      x y z
#    x 1.629390 0.000000 0.000000 
#    y 0.000000 1.691010 0.000000 
#    z 0.000000 0.000000 1.638970 
# 
# From -- ./inp_files/28554.got.cif
#   From: 2010.05.17/outbox.cif.g08.bks.cpg/sg23_15_cif.got.tgz:28554.got - 2010.06.04 12:02:01.
