data_PCOD9329825
_publ_section_title
;
Structure prediction by ZEFSAII (Michael W. Deem and Ramdas Pophale) SiO2 
 PCOD9329825
Probable space group: I 2 2 2
;
_chemical_formula_sum "Si O2"
_cell_formula_units_Z 48
_cell_length_a 4.947253
_cell_length_b 18.121729
_cell_length_c 21.551698
_cell_angle_alpha 90.000000
_cell_angle_beta 90.000000
_cell_angle_gamma 90.000000
_cell_volume 1932.169600
_symmetry_space_group_name_H-M "I 2 2 2"
_symmetry_group_IT_number 23
_symmetry_cell_setting 'orthorhombic'
loop_
_space_group_symop_operation_xyz
x,y,z
-x,-y,z
x,-y,-z
-x,y,-z
1/2+x,1/2+y,1/2+z
1/2-x,1/2-y,1/2+z
1/2+x,1/2-y,1/2-z
1/2-x,1/2+y,1/2-z
loop_
_atom_site_type_symbol
_atom_site_label
_atom_site_fract_x
_atom_site_fract_y
_atom_site_fract_z
Si Si1 0.355647 0.223190 0.869467
Si Si2 0.139259 0.290479 0.066137
Si Si3 0.950174 0.586380 0.568758
Si Si4 0.972411 0.587332 0.150899
Si Si5 0.965528 0.154298 0.714788
Si Si6 0.768112 0.054032 0.818538
O O1 0.054751 0.247473 0.885784
O O2 0.390835 0.136560 0.881498
O O3 0.440089 0.259718 0.804025
O O4 0.564060 0.259073 0.919948
O O5 0.127554 0.375709 0.086927
O O6 0.000000 0.278652 0.000000
O O7 0.679244 0.578662 0.609628
O O8 0.000000 0.500000 0.561852
O O9 0.000000 0.617408 0.500000
O O10 0.763235 0.621534 0.201657
O O11 0.000000 0.500000 0.152727
O O12 0.272765 0.616546 0.163369
O O13 0.824167 0.126159 0.777136
O O14 0.500000 0.000000 0.812529
O O15 0.000000 0.000000 0.796449
#
# Coordination Sequence:
#
# PCOD9329825 Si02
#       6
#     8   8   8   8   8   8
#     4  10  22  40  62  89 122 164 212 263 318 378
#     4  10  20  35  57  85 120 165 212 259 314 374
#     4  10  23  45  68  94 126 166 214 268 325 384
#     4  10  19  32  55  86 122 163 206 254 310 371
#     4  10  20  37  61  89 123 163 206 256 313 374
#     4  11  23  41  67  98 130 167 212 263 320 383
#
# _framework density 24.842538999999999
#
# number of rings (size 3 to 8) (size 9 to 14) (size 15 to 20)
#    0.000    1.833    0.000    4.500    0.000    3.000 
#    0.000   20.000    0.000    6.000    0.000    0.000 
#    0.000    0.000    0.000    0.333    0.000    0.000 
#
# Total GULP energy -133775.869623 kJ/mol
# GULP energy per Si atom -5573.994568 kJ/mol
# Density = 2.478600 g / cm^3
# Si number density = 24.842539 Si / 1000 Ang^3
#
#
#
# Elastic Constant Matrix: (Units=GPa)
#
#
# Indices 1 2 3 4 5 6 
#
# 1 117.6868 29.0630 9.8283 0.0000 0.0000 0.0000
# 2 29.0630 167.6295 47.1211 0.0000 0.0000 0.0000
# 3 9.8283 47.1211 125.5825 0.0000 0.0000 0.0000
# 4 0.0000 0.0000 0.0000 35.0444 0.0000 0.0000
# 5 0.0000 0.0000 0.0000 0.0000 8.7404 0.0000
# 6 0.0000 0.0000 0.0000 0.0000 0.0000 30.7431
#
#
#
# Elastic Compliance Matrix: (Units=1/GPa)
#
#
# Indices 1 2 3 4 5 6 
#
# 1 0.008879 -0.001503 -0.000131 0.000000 0.000000 0.000000
# 2 -0.001503 0.006923 -0.002480 0.000000 0.000000 0.000000
# 3 -0.000131 -0.002480 0.008904 0.000000 0.000000 0.000000
# 4 0.000000 0.000000 0.000000 0.028535 0.000000 0.000000
# 5 0.000000 0.000000 0.000000 0.000000 0.114412 0.000000
# 6 0.000000 0.000000 0.000000 0.000000 0.000000 0.032528
#
#
# Mechanical properties :
#
#
# Convention : Reuss Voigt Hill
#
# Bulk Modulus (GPa) = 60.68521 64.76929 62.72725
# Shear Modulus (GPa) = 23.37528 36.56465 29.96996
#
# Velocity S-wave (km/s) = 3.07080 3.84064 3.47709
# Velocity P-wave (km/s) = 6.08720 6.76727 6.43622
#
# Compressibility (1/GPa) = 0.01647848
#
# Stress axis : x y z
#
# Youngs Moduli (GPa) = 112.62348 144.44132 112.31213
#
# Poissons Ratio (x) = 0.21703 0.01472
# Poissons Ratio (y) = 0.16923 0.27855
# Poissons Ratio (z) = 0.01476 0.35824
#
# Static dielectric constant tensor:
#      x y z
#    x 2.004850 0.000000 0.000000 
#    y 0.000000 2.170670 0.000000 
#    z 0.000000 0.000000 2.081710 
# 
# From -- ./inp_files/27652.got.cif
#   From: 2010.05.17/outbox.cif.g08.bks.cpg/sg23_14_cif.got.tgz:27652.got - 2010.06.04 12:02:01.
