data_PCOD9329728
_publ_section_title
;
Structure prediction by ZEFSAII (Michael W. Deem and Ramdas Pophale) SiO2 
 PCOD9329728
Probable space group: I 2 2 2
;
_chemical_formula_sum "Si O2"
_cell_formula_units_Z 48
_cell_length_a 14.001621
_cell_length_b 6.838672
_cell_length_c 23.629553
_cell_angle_alpha 90.000000
_cell_angle_beta 90.000000
_cell_angle_gamma 90.000000
_cell_volume 2262.588620
_symmetry_space_group_name_H-M "I 2 2 2"
_symmetry_group_IT_number 23
_symmetry_cell_setting 'orthorhombic'
loop_
_space_group_symop_operation_xyz
x,y,z
-x,-y,z
x,-y,-z
-x,y,-z
1/2+x,1/2+y,1/2+z
1/2-x,1/2-y,1/2+z
1/2+x,1/2-y,1/2-z
1/2-x,1/2+y,1/2-z
loop_
_atom_site_type_symbol
_atom_site_label
_atom_site_fract_x
_atom_site_fract_y
_atom_site_fract_z
Si Si1 0.729618 0.329838 0.827010
Si Si2 0.274761 0.625504 0.554498
Si Si3 0.906197 0.218367 0.902639
Si Si4 0.372213 0.000000 0.500000
Si Si5 0.146916 0.822579 0.727435
Si Si6 0.103749 0.526619 0.637319
Si Si7 0.500000 0.500000 0.687838
O O1 0.816882 0.311851 0.869907
O O2 0.771486 0.271814 0.765790
O O3 0.690557 0.544289 0.820971
O O4 0.647816 0.180780 0.844886
O O5 0.242526 0.500000 0.500000
O O6 0.364123 0.493088 0.577411
O O7 0.187067 0.618548 0.598247
O O8 0.309238 0.839772 0.534965
O O9 0.926037 0.357389 0.955444
O O10 0.988007 0.181390 0.855884
O O11 0.090065 0.655432 0.694323
O O12 0.087429 0.962340 0.769763
O O13 0.000000 0.500000 0.609881
#
# Coordination Sequence:
#
# PCOD9329728 Si02
#       7
#     8   8   8   4   8   8   4
#     4  10  20  36  58  85 118 162 201 243 294 361
#     4   9  20  39  62  86 118 153 206 258 303 361
#     4   9  20  38  59  87 121 155 203 256 306 360
#     4  10  18  40  69  87 104 164 214 244 308 377
#     4  11  20  37  58  84 123 162 204 239 296 373
#     4  11  22  36  58  90 122 160 197 250 307 365
#     4  10  22  38  55  88 132 157 190 264 306 350
#
# _framework density 21.214639999999999
#
# number of rings (size 3 to 8) (size 9 to 14) (size 15 to 20)
#    0.000    2.000    1.667    2.000    0.000    0.333 
#    0.000    7.083    0.000    9.000    0.000    0.000 
#    0.000    0.000    0.000    0.000    0.000    0.000 
#
# Total GULP energy -133870.808304 kJ/mol
# GULP energy per Si atom -5577.950346 kJ/mol
# Density = 2.116635 g / cm^3
# Si number density = 21.214640 Si / 1000 Ang^3
#
#
#
# Elastic Constant Matrix: (Units=GPa)
#
#
# Indices 1 2 3 4 5 6 
#
# 1 60.4566 25.0195 16.7721 0.0000 0.0000 0.0000
# 2 25.0195 91.1218 35.2402 0.0000 0.0000 0.0000
# 3 16.7721 35.2402 84.9661 0.0000 0.0000 0.0000
# 4 0.0000 0.0000 0.0000 26.3498 0.0000 0.0000
# 5 0.0000 0.0000 0.0000 0.0000 11.6351 0.0000
# 6 0.0000 0.0000 0.0000 0.0000 0.0000 14.7294
#
#
#
# Elastic Compliance Matrix: (Units=1/GPa)
#
#
# Indices 1 2 3 4 5 6 
#
# 1 0.018910 -0.004465 -0.001881 0.000000 0.000000 0.000000
# 2 -0.004465 0.014125 -0.004977 0.000000 0.000000 0.000000
# 3 -0.001881 -0.004977 0.014205 0.000000 0.000000 0.000000
# 4 0.000000 0.000000 0.000000 0.037951 0.000000 0.000000
# 5 0.000000 0.000000 0.000000 0.000000 0.085947 0.000000
# 6 0.000000 0.000000 0.000000 0.000000 0.000000 0.067891
#
#
# Mechanical properties :
#
#
# Convention : Reuss Voigt Hill
#
# Bulk Modulus (GPa) = 40.65949 43.40091 42.03020
# Shear Modulus (GPa) = 18.52718 21.17704 19.85211
#
# Velocity S-wave (km/s) = 2.95841 3.16290 3.06236
# Velocity P-wave (km/s) = 5.55670 5.81730 5.68849
#
# Compressibility (1/GPa) = 0.02459451
#
# Stress axis : x y z
#
# Youngs Moduli (GPa) = 52.88104 70.79608 70.39771
#
# Poissons Ratio (x) = 0.31609 0.13242
# Poissons Ratio (y) = 0.23610 0.35038
# Poissons Ratio (z) = 0.09947 0.35236
#
# Static dielectric constant tensor:
#      x y z
#    x 1.765400 0.000000 0.000000 
#    y 0.000000 1.764230 0.000000 
#    z 0.000000 0.000000 1.789600 
# 
# From -- ./inp_files/22713.got.cif
#   From: 2010.05.17/outbox.cif.g08.bks.cpg/sg23_12_cif.got.tgz:22713.got - 2010.06.04 12:02:01.
