data_PCOD9329915
_publ_section_title
;
Structure prediction by ZEFSAII (Michael W. Deem and Ramdas Pophale) SiO2 
 PCOD9329915
Probable space group: I 2 2 2
;
_chemical_formula_sum "Si O2"
_cell_formula_units_Z 32
_cell_length_a 7.956735
_cell_length_b 34.901191
_cell_length_c 5.150215
_cell_angle_alpha 90.000000
_cell_angle_beta 90.000000
_cell_angle_gamma 90.000000
_cell_volume 1430.212274
_symmetry_space_group_name_H-M "I 2 2 2"
_symmetry_group_IT_number 23
_symmetry_cell_setting 'orthorhombic'
loop_
_space_group_symop_operation_xyz
x,y,z
-x,-y,z
x,-y,-z
-x,y,-z
1/2+x,1/2+y,1/2+z
1/2-x,1/2-y,1/2+z
1/2+x,1/2-y,1/2-z
1/2-x,1/2+y,1/2-z
loop_
_atom_site_type_symbol
_atom_site_label
_atom_site_fract_x
_atom_site_fract_y
_atom_site_fract_z
Si Si1 0.317980 0.855278 0.367536
Si Si2 0.308404 0.517537 0.253351
Si Si3 0.809098 0.771331 0.599933
Si Si4 0.179440 0.892772 0.869780
O O1 0.500000 0.856797 0.500000
O O2 0.263891 0.811982 0.307852
O O3 0.201427 0.869921 0.603348
O O4 0.303306 0.880136 0.104112
O O5 0.500000 0.500000 0.252010
O O6 0.220225 0.500000 0.500000
O O7 0.311970 0.562820 0.285589
O O8 0.227605 0.500000 0.000000
O O9 0.706207 0.756420 0.348704
O O10 0.000000 0.774611 0.500000
O O11 0.000000 0.885599 0.000000
#
# Coordination Sequence:
#
# PCOD9329915 Si02
#       4
#     8   8   8   8
#     4  12  27  45  65  99 147 187 227 282 361 414
#     4  10  19  34  61 100 127 161 222 284 343 397
#     4  12  25  46  73 103 139 184 236 284 343 416
#     4  12  23  41  70 103 132 174 236 298 339 411
#
# _framework density 22.374300999999999
#
# number of rings (size 3 to 8) (size 9 to 14) (size 15 to 20)
#    0.000    0.500    2.500    8.250    3.500    0.000 
#    0.000    0.000    0.000   11.250    0.000    0.000 
#    0.000    0.000    0.000    0.000    0.000    0.000 
#
# Total GULP energy -89472.765090 kJ/mol
# GULP energy per Si atom -5592.047818 kJ/mol
# Density = 2.232338 g / cm^3
# Si number density = 22.374301 Si / 1000 Ang^3
#
#
#
# Elastic Constant Matrix: (Units=GPa)
#
#
# Indices 1 2 3 4 5 6 
#
# 1 74.1500 23.8555 10.3901 0.0033 0.0220 0.0185
# 2 23.8555 119.6163 40.5579 0.0446 0.0099 -0.0036
# 3 10.3901 40.5579 167.2439 0.0435 0.0596 -0.0113
# 4 0.0033 0.0446 0.0435 48.3302 -0.0249 0.0142
# 5 0.0220 0.0099 0.0596 -0.0249 34.6711 -0.0186
# 6 0.0185 -0.0036 -0.0113 0.0142 -0.0186 2.6971
#
#
#
# Elastic Compliance Matrix: (Units=1/GPa)
#
#
# Indices 1 2 3 4 5 6 
#
# 1 0.014418 -0.002802 -0.000216 0.000002 -0.000008 -0.000104
# 2 -0.002802 0.009654 -0.002167 -0.000007 0.000003 0.000023
# 3 -0.000216 -0.002167 0.006518 -0.000004 -0.000010 0.000026
# 4 0.000002 -0.000007 -0.000004 0.020691 0.000015 -0.000109
# 5 -0.000008 0.000003 -0.000010 0.000015 0.028843 0.000198
# 6 -0.000104 0.000023 0.000026 -0.000109 0.000198 0.370772
#
#
# Mechanical properties :
#
#
# Convention : Reuss Voigt Hill
#
# Bulk Modulus (GPa) = 49.45778 56.73524 53.09651
# Shear Modulus (GPa) = 10.68362 36.22011 23.45187
#
# Velocity S-wave (km/s) = 2.18754 4.02783 3.24104
# Velocity P-wave (km/s) = 5.34164 6.85883 6.14722
#
# Compressibility (1/GPa) = 0.02021927
#
# Stress axis : x y z
#
# Youngs Moduli (GPa) = 69.35773 103.58758 153.41558
#
# Poissons Ratio (x) = 0.29027 0.03317
# Poissons Ratio (y) = 0.19435 0.33245
# Poissons Ratio (z) = 0.01499 0.22447
#
# Static dielectric constant tensor:
#      x y z
#    x 1.853420 0.000010 -0.000010 
#    y 0.000010 1.840780 -0.000020 
#    z -0.000010 -0.000020 1.852540 
# 
# From -- ./inp_files/812.got.cif
#   From: 2010.05.17/outbox.cif.g08.bks.cpg/sg23_1_cif.got.tgz:812.got - 2010.06.04 12:02:01.
