data_PCOD9329256
_publ_section_title
;
Structure prediction by ZEFSAII (Michael W. Deem and Ramdas Pophale) SiO2 
 PCOD9329256
Probable space group: F 2 2 2
;
_chemical_formula_sum "Si O2"
_cell_formula_units_Z 60
_cell_length_a 17.638099
_cell_length_b 17.483310
_cell_length_c 7.645231
_cell_angle_alpha 90.000000
_cell_angle_beta 90.000000
_cell_angle_gamma 90.000000
_cell_volume 2357.577870
_symmetry_space_group_name_H-M "F 2 2 2"
_symmetry_group_IT_number 22
_symmetry_cell_setting 'orthorhombic'
loop_
_space_group_symop_operation_xyz
x,y,z
-x,-y,z
x,-y,-z
-x,y,-z
x,1/2+y,1/2+z
-x,1/2-y,1/2+z
x,1/2-y,1/2-z
-x,1/2+y,1/2-z
1/2+x,y,1/2+z
1/2-x,-y,1/2+z
1/2+x,-y,1/2-z
1/2-x,y,1/2-z
1/2+x,1/2+y,z
1/2-x,1/2-y,z
1/2+x,1/2-y,-z
1/2-x,1/2+y,-z
loop_
_atom_site_type_symbol
_atom_site_label
_atom_site_fract_x
_atom_site_fract_y
_atom_site_fract_z
Si Si1 0.750000 0.382735 0.250000
Si Si2 0.556266 0.929783 0.271895
Si Si3 0.750000 0.250000 0.750000
Si Si4 0.000000 0.306182 0.000000
Si Si5 0.675922 0.000000 0.000000
Si Si6 0.631336 0.817741 0.518995
O O1 0.727058 0.436213 0.410348
O O2 0.822855 0.334738 0.305742
O O3 0.515450 0.861147 0.164975
O O4 0.588722 0.892993 0.448067
O O5 0.500000 0.000000 0.293802
O O6 0.623262 0.960881 0.146696
O O7 0.694832 0.201978 0.625829
O O8 0.071872 0.251143 0.974975
#
# Coordination Sequence:
#
# PCOD9329256 Si02
#       6
#     8  16   4   8   8  16
#     4  12  30  52  80 123 165 228 280 358 425 509
#     4  12  25  51  86 118 163 221 278 351 419 505
#     4  12  24  56  80 122 172 216 282 360 428 508
#     4  12  25  52  83 124 164 214 278 348 415 514
#     4  12  25  50  78 111 172 210 288 344 428 493
#     4  12  29  51  87 120 170 217 288 345 431 502
#
# _framework density 25.449849
#
# number of rings (size 3 to 8) (size 9 to 14) (size 15 to 20)
#    0.000    0.000    5.333    3.200    3.733    2.667 
#    0.000    0.000    0.000    0.000    0.000    0.000 
#    0.000    0.000    0.000    0.000    0.000    0.000 
#
# Total GULP energy -84392.013683 kJ/mol
# GULP energy per Si atom -5626.134246 kJ/mol
# Density = 2.539192 g / cm^3
# Si number density = 25.449849 Si / 1000 Ang^3
#
#
#
# Elastic Constant Matrix: (Units=GPa)
#
#
# Indices 1 2 3 4 5 6 
#
# 1 174.9175 109.8293 54.0850 0.0016 0.0000 0.0000
# 2 109.8293 192.2775 61.5345 0.0018 0.0000 0.0000
# 3 54.0850 61.5345 85.3503 -0.0003 0.0000 -0.0001
# 4 0.0016 0.0018 -0.0003-6117.0486 0.0032 0.0122
# 5 0.0000 0.0000 0.0000 0.0032 59.3078 0.0000
# 6 0.0000 0.0000 -0.0001 0.0122 0.0000 90.6121
#
#
#
# Elastic Compliance Matrix: (Units=1/GPa)
#
#
# Indices 1 2 3 4 5 6 
#
# 1 0.009370 -0.004487 -0.002702 0.000000 0.000000 0.000000
# 2 -0.004487 0.008910 -0.003580 0.000000 0.000000 0.000000
# 3 -0.002702 -0.003580 0.016010 0.000000 0.000000 0.000000
# 4 0.000000 0.000000 0.000000 -0.000163 0.000000 0.000000
# 5 0.000000 0.000000 0.000000 0.000000 0.016861 0.000000
# 6 0.000000 0.000000 0.000000 0.000000 0.000000 0.011036
#
#
# Mechanical properties :
#
#
# Convention : Reuss Voigt Hill
#
# Bulk Modulus (GPa) = 78.43049 100.38255 89.40652
# Shear Modulus (GPa) = 56.93883 -1178.28597 -560.67357
#
# Velocity S-wave (km/s) = 4.73514 -21.54039 -14.85879
# Velocity P-wave (km/s) = 7.79615 24.06496 16.09880
#
# Compressibility (1/GPa) = 0.01275014
#
# Stress axis : x y z
#
# Youngs Moduli (GPa) = 106.72123 112.23663 62.46104
#
# Poissons Ratio (x) = 0.50365 0.16880
# Poissons Ratio (y) = 0.47890 0.22361
# Poissons Ratio (z) = 0.28841 0.40181
#
# Static dielectric constant tensor:
#      x y z
#    x 10.044920 0.000000 0.000010 
#    y 0.000000 1.953730 0.000000 
#    z 0.000010 0.000000 1.932430 
# 
# From -- ./inp_files/11004.got.cif
#   From: 2010.05.17/outbox.cif.g08.bks.cpg/sg22_6_cif.got.tgz:11004.got - 2010.06.03 23:40:54.
