data_PCOD9329842
_publ_section_title
;
Structure prediction by ZEFSAII (Michael W. Deem and Ramdas Pophale) SiO2 
 PCOD9329842
Probable space group: I 2 2 2
;
_chemical_formula_sum "Si O2"
_cell_formula_units_Z 56
_cell_length_a 14.431948
_cell_length_b 28.639850
_cell_length_c 8.711204
_cell_angle_alpha 90.000000
_cell_angle_beta 90.000000
_cell_angle_gamma 90.000000
_cell_volume 3600.591722
_symmetry_space_group_name_H-M "I 2 2 2"
_symmetry_group_IT_number 23
_symmetry_cell_setting 'orthorhombic'
loop_
_space_group_symop_operation_xyz
x,y,z
-x,-y,z
x,-y,-z
-x,y,-z
1/2+x,1/2+y,1/2+z
1/2-x,1/2-y,1/2+z
1/2+x,1/2-y,1/2-z
1/2-x,1/2+y,1/2-z
loop_
_atom_site_type_symbol
_atom_site_label
_atom_site_fract_x
_atom_site_fract_y
_atom_site_fract_z
Si Si1 0.217525 0.705776 0.157951
Si Si2 0.852046 0.859141 0.178679
Si Si3 0.201863 0.865037 0.157545
Si Si4 0.471916 0.216849 0.169128
Si Si5 0.532409 0.327330 0.835826
Si Si6 0.388121 0.554954 0.490370
Si Si7 0.671784 0.205419 0.298749
O O1 0.284249 0.662396 0.196666
O O2 0.122587 0.699208 0.254030
O O3 0.272738 0.752371 0.213479
O O4 0.196500 0.708195 0.977891
O O5 0.857772 0.915233 0.159880
O O6 0.953408 0.839665 0.213643
O O7 0.818469 0.842407 0.010163
O O8 0.127398 0.848224 0.279851
O O9 0.296309 0.843607 0.221685
O O10 0.173298 0.918503 0.120152
O O11 0.455739 0.272149 0.151022
O O12 0.562477 0.211115 0.273763
O O13 0.500000 0.198242 0.000000
O O14 0.500000 0.345977 0.000000
O O15 0.372627 0.500000 0.500000
O O16 0.500000 0.562906 0.500000
#
# Coordination Sequence:
#
# PCOD9329842 Si02
#       7
#     8   8   8   8   8   8   8
#     4  12  23  34  50  75 108 145 184 218 261 317
#     4  10  19  33  52  75 100 142 177 217 263 314
#     4  10  19  33  52  75 100 142 177 217 263 314
#     4  11  23  35  49  73 107 147 189 219 254 308
#     4  11  19  29  47  74 108 145 181 217 260 313
#     4   9  18  34  58  83 105 137 185 230 269 319
#     4  12  23  34  50  75 108 145 184 218 261 317
#
# _framework density 15.552999
#
# number of rings (size 3 to 8) (size 9 to 14) (size 15 to 20)
#    0.857    0.429    4.286    4.286    0.000    1.143 
#    0.000    0.000    0.000    4.286    0.000    2.000 
#    0.000    2.286    0.000    0.000    0.000    0.000 
#
# Total GULP energy -155899.953950 kJ/mol
# GULP energy per Si atom -5567.855498 kJ/mol
# Density = 1.551760 g / cm^3
# Si number density = 15.552999 Si / 1000 Ang^3
#
#
#
# Elastic Constant Matrix: (Units=GPa)
#
#
# Indices 1 2 3 4 5 6 
#
# 1 54.1916 17.8051 -12.2284 -0.0010 -0.0002 -0.0004
# 2 17.8051 71.1505 14.1105 0.0007 0.0002 0.0003
# 3 -12.2284 14.1105 46.0471 0.0014 0.0006 0.0032
# 4 -0.0010 0.0007 0.0014 6.4388 0.0007 -0.0003
# 5 -0.0002 0.0002 0.0006 0.0007 25.2797 -0.0002
# 6 -0.0004 0.0003 0.0032 -0.0003 -0.0002 8.6049
#
#
#
# Elastic Compliance Matrix: (Units=1/GPa)
#
#
# Indices 1 2 3 4 5 6 
#
# 1 0.022731 -0.007331 0.008283 0.000003 0.000000 -0.000002
# 2 -0.007331 0.017328 -0.007257 -0.000002 0.000000 0.000002
# 3 0.008283 -0.007257 0.026140 -0.000003 0.000000 -0.000009
# 4 0.000003 -0.000002 -0.000003 0.155309 -0.000004 0.000005
# 5 0.000000 0.000000 0.000000 -0.000004 0.039557 0.000001
# 6 -0.000002 0.000002 -0.000009 0.000005 0.000001 0.116213
#
#
# Mechanical properties :
#
#
# Convention : Reuss Voigt Hill
#
# Bulk Modulus (GPa) = 18.66034 23.41819 21.03927
# Shear Modulus (GPa) = 12.26238 18.17815 15.22027
#
# Velocity S-wave (km/s) = 2.81094 3.42246 3.13166
# Velocity P-wave (km/s) = 4.74964 5.54142 5.16074
#
# Compressibility (1/GPa) = 0.05358960
#
# Stress axis : x y z
#
# Youngs Moduli (GPa) = 43.99330 57.70868 38.25516
#
# Poissons Ratio (x) = 0.42306 -0.31686
# Poissons Ratio (y) = 0.32251 0.27761
# Poissons Ratio (z) = -0.36439 0.41878
#
# Static dielectric constant tensor:
#      x y z
#    x 1.659520 0.000000 -0.000010 
#    y 0.000000 1.511250 0.000000 
#    z -0.000010 0.000000 1.564140 
# 
# From -- ./inp_files/10414.got.cif
#   From: 2010.05.17/outbox.cif.g08.bks.cpg/sg23_6_cif.got.tgz:10414.got - 2010.06.04 12:02:01.
