data_PCOD9329781
_publ_section_title
;
Structure prediction by ZEFSAII (Michael W. Deem and Ramdas Pophale) SiO2 
 PCOD9329781
Probable space group: I 2 2 2
;
_chemical_formula_sum "Si O2"
_cell_formula_units_Z 58
_cell_length_a 21.976018
_cell_length_b 5.453954
_cell_length_c 23.564653
_cell_angle_alpha 90.000000
_cell_angle_beta 90.000000
_cell_angle_gamma 90.000000
_cell_volume 2824.369557
_symmetry_space_group_name_H-M "I 2 2 2"
_symmetry_group_IT_number 23
_symmetry_cell_setting 'orthorhombic'
loop_
_space_group_symop_operation_xyz
x,y,z
-x,-y,z
x,-y,-z
-x,y,-z
1/2+x,1/2+y,1/2+z
1/2-x,1/2-y,1/2+z
1/2+x,1/2-y,1/2-z
1/2-x,1/2+y,1/2-z
loop_
_atom_site_type_symbol
_atom_site_label
_atom_site_fract_x
_atom_site_fract_y
_atom_site_fract_z
Si Si1 0.132791 0.431402 0.659612
Si Si2 0.000000 0.000000 0.000000
Si Si3 0.264275 0.978819 0.067522
Si Si4 0.169380 0.912534 0.779168
Si Si5 0.429468 0.433098 0.811129
Si Si6 0.295249 0.087028 0.280828
Si Si7 0.939212 0.608219 0.935972
Si Si8 0.693027 0.020141 0.431670
O O1 0.178318 0.473313 0.607910
O O2 0.101013 0.165422 0.656867
O O3 0.171187 0.423838 0.719081
O O4 0.087105 0.665176 0.663430
O O5 0.046819 0.115470 0.953850
O O6 0.218101 0.205842 0.078193
O O7 0.238524 0.706666 0.081543
O O8 0.278802 0.000000 0.000000
O O9 0.104223 0.922305 0.750060
O O10 0.223122 0.914085 0.730407
O O11 0.183223 0.165064 0.809594
O O12 0.183949 0.661056 0.810022
O O13 0.500000 0.500000 0.806543
O O14 0.875132 0.540039 0.910382
O O15 0.000000 0.500000 0.906772
O O16 0.940004 0.500000 0.000000
O O17 0.687859 0.000000 0.500000
#
# Coordination Sequence:
#
# PCOD9329781 Si02
#       8
#     8   2   8   8   8   8   8   8
#     4  10  19  32  49  68  96 124 159 196 240 286
#     4   8  14  20  36  54  84 108 130 160 228 300
#     4  10  20  32  46  64  86 122 162 211 253 282
#     4   8  14  25  42  68  95 115 141 169 212 270
#     4  10  19  31  50  73  97 123 149 188 236 291
#     4   8  14  25  43  66  92 119 140 175 216 264
#     4   8  15  22  35  57  81 108 132 170 226 285
#     4   9  18  28  43  61  85 111 152 198 249 292
#
# _framework density 20.535556
#
# number of rings (size 3 to 8) (size 9 to 14) (size 15 to 20)
#    0.000    3.172    0.000    1.241    6.759    0.000 
#    0.000    0.000    0.000    2.483    0.000    1.931 
#    0.000    0.000    0.000    0.000    0.000    0.000 
#
# Total GULP energy -161480.461557 kJ/mol
# GULP energy per Si atom -5568.291778 kJ/mol
# Density = 2.048882 g / cm^3
# Si number density = 20.535556 Si / 1000 Ang^3
#
#
#
# Elastic Constant Matrix: (Units=GPa)
#
#
# Indices 1 2 3 4 5 6 
#
# 1 94.9840 12.5596 -8.0831 0.0000 0.0000 0.0000
# 2 12.5596 132.5770 -16.6913 0.0000 0.0000 0.0000
# 3 -8.0831 -16.6913 44.0080 0.0000 0.0000 0.0000
# 4 0.0000 0.0000 0.0000 5.0998 0.0000 0.0000
# 5 0.0000 0.0000 0.0000 0.0000 18.8123 0.0000
# 6 0.0000 0.0000 0.0000 0.0000 0.0000 38.7359
#
#
#
# Elastic Compliance Matrix: (Units=1/GPa)
#
#
# Indices 1 2 3 4 5 6 
#
# 1 0.010778 -0.000810 0.001672 0.000000 0.000000 0.000000
# 2 -0.000810 0.007982 0.002879 0.000000 0.000000 0.000000
# 3 0.001672 0.002879 0.024122 0.000000 0.000000 0.000000
# 4 0.000000 0.000000 0.000000 0.196085 0.000000 0.000000
# 5 0.000000 0.000000 0.000000 0.000000 0.053157 0.000000
# 6 0.000000 0.000000 0.000000 0.000000 0.000000 0.025816
#
#
# Mechanical properties :
#
#
# Convention : Reuss Voigt Hill
#
# Bulk Modulus (GPa) = 19.85628 27.45995 23.65811
# Shear Modulus (GPa) = 15.27900 31.44852 23.36376
#
# Velocity S-wave (km/s) = 2.73064 3.91758 3.37667
# Velocity P-wave (km/s) = 4.43081 5.81929 5.17186
#
# Compressibility (1/GPa) = 0.05036191
#
# Stress axis : x y z
#
# Youngs Moduli (GPa) = 92.78541 125.28234 41.45589
#
# Poissons Ratio (x) = 0.10154 -0.06932
# Poissons Ratio (y) = 0.07520 -0.11933
# Poissons Ratio (z) = -0.15515 -0.36063
#
# Static dielectric constant tensor:
#      x y z
#    x 1.740650 0.000000 0.000000 
#    y 0.000000 2.295890 0.000000 
#    z 0.000000 0.000000 1.765430 
# 
# From -- ./inp_files/25476.got.cif
#   From: 2010.05.17/outbox.cif.g08.bks.cpg/sg23_13_cif.got.tgz:25476.got - 2010.06.04 12:02:01.
