data_PCOD9329852
_publ_section_title
;
Structure prediction by ZEFSAII (Michael W. Deem and Ramdas Pophale) SiO2 
 PCOD9329852
Probable space group: I 2 2 2
;
_chemical_formula_sum "Si O2"
_cell_formula_units_Z 64
_cell_length_a 11.698963
_cell_length_b 35.677357
_cell_length_c 8.214968
_cell_angle_alpha 90.000000
_cell_angle_beta 90.000000
_cell_angle_gamma 90.000000
_cell_volume 3428.829717
_symmetry_space_group_name_H-M "I 2 2 2"
_symmetry_group_IT_number 23
_symmetry_cell_setting 'orthorhombic'
loop_
_space_group_symop_operation_xyz
x,y,z
-x,-y,z
x,-y,-z
-x,y,-z
1/2+x,1/2+y,1/2+z
1/2-x,1/2-y,1/2+z
1/2+x,1/2-y,1/2-z
1/2-x,1/2+y,1/2-z
loop_
_atom_site_type_symbol
_atom_site_label
_atom_site_fract_x
_atom_site_fract_y
_atom_site_fract_z
Si Si1 0.369522 0.268694 0.808692
Si Si2 0.999997 0.456497 0.194902
Si Si3 0.868686 0.853340 0.806066
Si Si4 0.131373 0.853321 0.806209
Si Si5 0.761222 0.574007 0.303893
Si Si6 0.238767 0.574023 0.303946
Si Si7 0.630542 0.268718 0.808841
Si Si8 0.630609 0.499990 0.301042
O O1 0.356450 0.313110 0.776595
O O2 0.500059 0.258777 0.742593
O O3 0.250057 0.249973 0.749912
O O4 0.374824 0.261123 0.999938
O O5 0.110213 0.434814 0.257265
O O6 0.000000 0.500000 0.253533
O O7 0.889778 0.434821 0.257298
O O8 0.000000 0.457408 0.000000
O O9 0.787224 0.886369 0.744419
O O10 0.856476 0.813141 0.723149
O O11 0.000042 0.866091 0.786287
O O12 0.849570 0.847689 0.999918
O O13 0.212876 0.886336 0.744526
O O14 0.749947 0.574951 0.499973
O O15 0.690703 0.537929 0.244031
O O16 0.309361 0.537963 0.244068
O O17 0.500000 0.500000 0.252562
O O18 0.636013 0.500000 0.500000
#
# Coordination Sequence:
#
# PCOD9329852 Si02
#       8
#     8   8   8   8   8   8   8   8
#     4  10  21  38  61  88 117 151 189 229 277 335
#     4  11  23  37  51  69 103 147 187 229 275 321
#     4   9  18  34  57  85 114 142 175 222 277 328
#     4   9  18  34  57  85 114 142 175 222 277 328
#     4  10  19  33  55  79 104 138 181 223 267 322
#     4  10  19  33  55  79 104 138 181 223 267 322
#     4  10  21  38  61  88 117 151 189 229 277 335
#     4   9  16  27  49  80 106 129 168 221 266 311
#
# _framework density 18.665261999999998
#
# number of rings (size 3 to 8) (size 9 to 14) (size 15 to 20)
#    0.000    2.250    1.250    1.875    0.000    6.000 
#    2.250    0.000    0.000    3.000    0.000    0.000 
#    0.000    0.000    0.000    0.000    0.000    0.000 
#
# Total GULP energy -178357.175705 kJ/mol
# GULP energy per Si atom -5573.661741 kJ/mol
# Density = 1.862278 g / cm^3
# Si number density = 18.665262 Si / 1000 Ang^3
#
#
#
# Elastic Constant Matrix: (Units=GPa)
#
#
# Indices 1 2 3 4 5 6 
#
# 1 163.6946 74.3168 11.1351 0.0001 -0.0010 -0.0001
# 2 74.3168 85.9830 9.2229 0.0042 -0.0015 -0.0013
# 3 11.1351 9.2229 12.4446 0.0103 0.0002 -0.0018
# 4 0.0001 0.0042 0.0103 18.8844 -0.0020 -0.0015
# 5 -0.0010 -0.0015 0.0002 -0.0020 8.1850 0.0016
# 6 -0.0001 -0.0013 -0.0018 -0.0015 0.0016 43.7549
#
#
#
# Elastic Compliance Matrix: (Units=1/GPa)
#
#
# Indices 1 2 3 4 5 6 
#
# 1 0.010143 -0.008467 -0.002801 0.000003 0.000000 0.000000
# 2 -0.008467 0.019702 -0.007025 -0.000001 0.000003 0.000000
# 3 -0.002801 -0.007025 0.088069 -0.000046 -0.000004 0.000003
# 4 0.000003 -0.000001 -0.000046 0.052954 0.000013 0.000002
# 5 0.000000 0.000003 -0.000004 0.000013 0.122174 -0.000004
# 6 0.000000 0.000000 0.000003 0.000002 -0.000004 0.022855
#
#
# Mechanical properties :
#
#
# Convention : Reuss Voigt Hill
#
# Bulk Modulus (GPa) = 12.29599 50.16354 31.22977
# Shear Modulus (GPa) = 13.17203 25.32803 19.25003
#
# Velocity S-wave (km/s) = 2.65938 3.68769 3.21492
# Velocity P-wave (km/s) = 4.00396 6.71311 5.52709
#
# Compressibility (1/GPa) = 0.08132734
#
# Stress axis : x y z
#
# Youngs Moduli (GPa) = 98.58752 50.75736 11.35473
#
# Poissons Ratio (x) = 0.42974 0.03181
# Poissons Ratio (y) = 0.83470 0.07977
# Poissons Ratio (z) = 0.27617 0.35659
#
# Static dielectric constant tensor:
#      x y z
#    x 1.698850 0.000000 -0.000010 
#    y 0.000000 1.627360 0.000000 
#    z -0.000010 0.000000 1.679130 
# 
# From -- ./inp_files/8949.got.cif
#   From: 2010.05.17/outbox.cif.g08.bks.cpg/sg23_5_cif.got.tgz:8949.got - 2010.06.04 12:02:01.
