data_PCOD9329300
_publ_section_title
;
Structure prediction by ZEFSAII (Michael W. Deem and Ramdas Pophale) SiO2 
 PCOD9329300
Probable space group: F 2 2 2
;
_chemical_formula_sum "Si O2"
_cell_formula_units_Z 22
_cell_length_a 15.000000
_cell_length_b 12.000000
_cell_length_c 24.000000
_cell_angle_alpha 90.000000
_cell_angle_beta 90.000000
_cell_angle_gamma 90.000000
_cell_volume 4320.000000
_symmetry_space_group_name_H-M "F 2 2 2"
_symmetry_group_IT_number 22
_symmetry_cell_setting 'orthorhombic'
loop_
_space_group_symop_operation_xyz
x,y,z
-x,-y,z
x,-y,-z
-x,y,-z
x,1/2+y,1/2+z
-x,1/2-y,1/2+z
x,1/2-y,1/2-z
-x,1/2+y,1/2-z
1/2+x,y,1/2+z
1/2-x,-y,1/2+z
1/2+x,-y,1/2-z
1/2-x,y,1/2-z
1/2+x,1/2+y,z
1/2-x,1/2-y,z
1/2+x,1/2-y,-z
1/2-x,1/2+y,-z
loop_
_atom_site_type_symbol
_atom_site_label
_atom_site_fract_x
_atom_site_fract_y
_atom_site_fract_z
Si Si1 0.382148 0.133719 0.223881
Si Si2 0.807126 0.133030 0.021047
Si Si3 0.750000 0.563221 0.750000
Si Si4 0.500000 0.236238 0.500000
Si Si5 0.500000 0.000000 0.310833
Si Si6 0.857488 0.666801 0.646627
Si Si7 0.506703 0.137150 0.118903
O O1 0.347190 0.250000 0.250000
O O2 0.452449 0.087078 0.269278
O O3 0.430310 0.160141 0.165296
O O4 0.315938 0.027004 0.219782
O O5 0.750000 0.250000 0.003978
O O6 0.805734 0.139359 0.088975
O O7 0.909293 0.162927 0.003833
O O8 0.786285 0.000000 0.000000
O O9 0.799647 0.637853 0.702601
O O10 0.505484 0.311310 0.556713
O O11 0.565121 0.073798 0.348248
O O12 0.905944 0.789838 0.641565
O O13 0.500000 0.000000 0.115387
#
# Coordination Sequence:
#
# PCOD9329300 Si02
#       7
#    16  16   8   8   8  16  16
#     4  11  21  39  65 100 140 183 226 290 354 428
#     4  11  27  49  75 108 145 191 249 306 370 442
#     4  10  25  42  67 106 142 178 234 298 356 422
#     4  10  26  46  76 104 139 193 244 302 363 434
#     4  10  20  40  67 101 134 182 238 282 342 444
#     4  10  24  45  71 105 141 188 237 291 364 431
#     4  11  23  42  70 102 139 187 237 289 354 433
#
# _framework density 5.0925929999999999
#
# number of rings (size 3 to 8) (size 9 to 14) (size 15 to 20)
#    0.000    1.455    2.727    0.818    5.091    7.273 
#    3.273    0.909    0.000    0.000    0.000    0.000 
#    0.000    0.000    0.000    0.000    0.000    0.000 
#
# Total GULP energy -122597.054974 kJ/mol
# GULP energy per Si atom -5572.593408 kJ/mol
# Density = 0.508100 g / cm^3
# Si number density = 5.092593 Si / 1000 Ang^3
#
#
#
# Elastic Constant Matrix: (Units=GPa)
#
#
# Indices 1 2 3 4 5 6 
#
# 1 90.6895 50.7046 37.0826 0.0000 0.0000 0.0000
# 2 50.7046 180.4877 58.0641 0.0000 0.0000 0.0000
# 3 37.0826 58.0641 123.3201 0.0000 0.0000 0.0000
# 4 0.0000 0.0000 0.0000 42.8368 0.0000 0.0000
# 5 0.0000 0.0000 0.0000 0.0000 28.0715 0.0000
# 6 0.0000 0.0000 0.0000 0.0000 0.0000 42.1591
#
#
#
# Elastic Compliance Matrix: (Units=1/GPa)
#
#
# Indices 1 2 3 4 5 6 
#
# 1 0.013827 -0.003001 -0.002745 0.000000 0.000000 0.000000
# 2 -0.003001 0.007181 -0.002479 0.000000 0.000000 0.000000
# 3 -0.002745 -0.002479 0.010101 0.000000 0.000000 0.000000
# 4 0.000000 0.000000 0.000000 0.023344 0.000000 0.000000
# 5 0.000000 0.000000 0.000000 0.000000 0.035623 0.000000
# 6 0.000000 0.000000 0.000000 0.000000 0.000000 0.023720
#
#
# Mechanical properties :
#
#
# Convention : Reuss Voigt Hill
#
# Bulk Modulus (GPa) = 68.21242 76.24442 72.22842
# Shear Modulus (GPa) = 37.00061 39.18990 38.09526
#
# Velocity S-wave (km/s) = 4.26654 4.39095 4.32919
# Velocity P-wave (km/s) = 7.60460 7.95095 7.77970
#
# Compressibility (1/GPa) = 0.01466009
#
# Stress axis : x y z
#
# Youngs Moduli (GPa) = 72.32221 139.25357 98.99700
#
# Poissons Ratio (x) = 0.41797 0.27171
# Poissons Ratio (y) = 0.21707 0.24538
# Poissons Ratio (z) = 0.19849 0.34516
#
# Static dielectric constant tensor:
#      x y z
#    x 1.815190 0.000000 0.000000 
#    y 0.000000 1.754160 0.000000 
#    z 0.000000 0.000000 1.712840 
# 
# From -- ./inp_files/48820.got.cif
#   From: 2010.05.17/outbox.ucp.g08.bks.cvg/sg22_25_cif.got.tgz:48820.got - 2010.06.11 15:16:44.
