data_PCOD9329751
_publ_section_title
;
Structure prediction by ZEFSAII (Michael W. Deem and Ramdas Pophale) SiO2 
 PCOD9329751
Probable space group: I 2 2 2
;
_chemical_formula_sum "Si O2"
_cell_formula_units_Z 58
_cell_length_a 23.626789
_cell_length_b 21.151173
_cell_length_c 5.511029
_cell_angle_alpha 90.000000
_cell_angle_beta 90.000000
_cell_angle_gamma 90.000000
_cell_volume 2754.050228
_symmetry_space_group_name_H-M "I 2 2 2"
_symmetry_group_IT_number 23
_symmetry_cell_setting 'orthorhombic'
loop_
_space_group_symop_operation_xyz
x,y,z
-x,-y,z
x,-y,-z
-x,y,-z
1/2+x,1/2+y,1/2+z
1/2-x,1/2-y,1/2+z
1/2+x,1/2-y,1/2-z
1/2-x,1/2+y,1/2-z
loop_
_atom_site_type_symbol
_atom_site_label
_atom_site_fract_x
_atom_site_fract_y
_atom_site_fract_z
Si Si1 0.000000 0.000000 0.000000
Si Si2 0.563037 0.563332 0.891669
Si Si3 0.276868 0.072841 0.483825
Si Si4 0.609044 0.866020 0.479098
Si Si5 0.379969 0.304734 0.984756
Si Si6 0.725731 0.145682 0.016965
Si Si7 0.676720 0.267528 0.516126
Si Si8 0.089587 0.331658 0.480863
O O1 0.045503 0.047848 0.119290
O O2 0.591273 0.500000 0.000000
O O3 0.500000 0.566116 0.000000
O O4 0.593115 0.627134 0.955388
O O5 0.345712 0.077698 0.480417
O O6 0.259659 0.108652 0.733530
O O7 0.259040 0.000000 0.500000
O O8 0.259317 0.106607 0.229150
O O9 0.651386 0.803492 0.477323
O O10 0.572756 0.862176 0.234885
O O11 0.573344 0.861052 0.724445
O O12 0.348503 0.299581 0.242045
O O13 0.421259 0.243334 0.984832
O O14 0.344864 0.295052 0.738185
O O15 0.757502 0.213121 0.018701
O O16 0.658427 0.157677 0.017139
#
# Coordination Sequence:
#
# PCOD9329751 Si02
#       8
#     2   8   8   8   8   8   8   8
#     4   8  18  36  60  70  84 124 162 192 232 312
#     4   9  20  36  55  73  90 123 160 195 244 298
#     4  10  19  30  44  59  82 116 156 194 223 261
#     4   8  16  28  43  62  81 108 147 183 226 268
#     4  10  20  32  50  72  91 109 150 197 237 274
#     4  10  19  32  48  62  89 123 160 188 227 288
#     4  10  20  32  48  69  89 119 152 194 237 278
#     4   8  16  28  45  68  87 113 146 188 227 265
#
# _framework density 21.059894
#
# number of rings (size 3 to 8) (size 9 to 14) (size 15 to 20)
#    0.000    2.897    0.000    1.241    3.862    9.931 
#    0.000    4.138    0.000    0.000    0.000    0.000 
#    0.000    0.000    0.000    0.000    0.000  335.172 
#
# Total GULP energy -161453.290928 kJ/mol
# GULP energy per Si atom -5567.354860 kJ/mol
# Density = 2.101196 g / cm^3
# Si number density = 21.059894 Si / 1000 Ang^3
#
#
#
# Elastic Constant Matrix: (Units=GPa)
#
#
# Indices 1 2 3 4 5 6 
#
# 1 20.3201 9.6678 8.7954 0.0000 0.0000 0.0000
# 2 9.6678 79.1011 27.2082 0.0000 0.0000 0.0000
# 3 8.7954 27.2082 187.0273 0.0000 0.0000 0.0000
# 4 0.0000 0.0000 0.0000 29.7788 0.0000 0.0000
# 5 0.0000 0.0000 0.0000 0.0000 21.9539 0.0000
# 6 0.0000 0.0000 0.0000 0.0000 0.0000 -5.3612
#
#
#
# Elastic Compliance Matrix: (Units=1/GPa)
#
#
# Indices 1 2 3 4 5 6 
#
# 1 0.052714 -0.005885 -0.001623 0.000000 0.000000 0.000000
# 2 -0.005885 0.013965 -0.001755 0.000000 0.000000 0.000000
# 3 -0.001623 -0.001755 0.005678 0.000000 0.000000 0.000000
# 4 0.000000 0.000000 0.000000 0.033581 0.000000 0.000000
# 5 0.000000 0.000000 0.000000 0.000000 0.045550 0.000000
# 6 0.000000 0.000000 0.000000 0.000000 0.000000 -0.186525
#
#
# Mechanical properties :
#
#
# Convention : Reuss Voigt Hill
#
# Bulk Modulus (GPa) = 18.57594 41.97681 30.27637
# Shear Modulus (GPa) = 3490.17979 25.32610 1757.75295
#
# Velocity S-wave (km/s) = 40.75367 3.47158 28.92156
# Velocity P-wave (km/s) = 47.15211 6.00371 33.61076
#
# Compressibility (1/GPa) = 0.05383309
#
# Stress axis : x y z
#
# Youngs Moduli (GPa) = 18.97012 71.60830 176.10519
#
# Poissons Ratio (x) = 0.42138 0.28581
# Poissons Ratio (y) = 0.11163 0.30903
# Poissons Ratio (z) = 0.03079 0.12566
#
# Static dielectric constant tensor:
#      x y z
#    x 1.765400 0.000000 0.000000 
#    y 0.000000 1.766150 0.000000 
#    z 0.000000 0.000000 1.786540 
# 
# From -- ./inp_files/5438.got.cif
#   From: 2010.05.17/outbox.cif.g08.bks.cpg/sg23_3_cif.got.tgz:5438.got - 2010.06.04 12:02:01.
