data_PCOD9329299
_publ_section_title
;
Structure prediction by ZEFSAII (Michael W. Deem and Ramdas Pophale) SiO2 
 PCOD9329299
Probable space group: F 2 2 2
;
_chemical_formula_sum "Si O2"
_cell_formula_units_Z 25
_cell_length_a 24.000000
_cell_length_b 15.000000
_cell_length_c 15.000000
_cell_angle_alpha 90.000000
_cell_angle_beta 90.000000
_cell_angle_gamma 90.000000
_cell_volume 5400.000000
_symmetry_space_group_name_H-M "F 2 2 2"
_symmetry_group_IT_number 22
_symmetry_cell_setting 'orthorhombic'
loop_
_space_group_symop_operation_xyz
x,y,z
-x,-y,z
x,-y,-z
-x,y,-z
x,1/2+y,1/2+z
-x,1/2-y,1/2+z
x,1/2-y,1/2-z
-x,1/2+y,1/2-z
1/2+x,y,1/2+z
1/2-x,-y,1/2+z
1/2+x,-y,1/2-z
1/2-x,y,1/2-z
1/2+x,1/2+y,z
1/2-x,1/2-y,z
1/2+x,1/2-y,-z
1/2-x,1/2+y,-z
loop_
_atom_site_type_symbol
_atom_site_label
_atom_site_fract_x
_atom_site_fract_y
_atom_site_fract_z
Si Si1 0.568621 0.132437 0.367563
Si Si2 0.000000 0.500000 0.500000
Si Si3 0.050033 0.320732 0.320731
Si Si4 0.624549 0.231622 0.518951
Si Si5 0.836253 0.073900 0.573900
Si Si6 0.875452 0.981049 0.231623
Si Si7 0.296055 0.425003 0.074999
O O1 0.515822 0.177436 0.322565
O O2 0.605210 0.203572 0.421101
O O3 0.540289 0.061652 0.438348
O O4 0.605209 0.078900 0.296427
O O5 0.072593 0.250000 0.250000
O O6 0.073712 0.295095 0.416503
O O7 0.073711 0.416503 0.295095
O O8 0.639421 0.332717 0.539917
O O9 0.675460 0.167047 0.545644
O O10 0.860580 0.039918 0.667282
O O11 0.769768 0.083874 0.583875
O O12 0.847445 0.000000 0.500000
O O13 0.824540 0.954359 0.167049
O O14 0.308756 0.500000 0.000000
#
# Coordination Sequence:
#
# PCOD9329299 Si02
#       7
#    16   4  16  16  16  16  16
#     4  12  21  35  65  90 126 154 216 269 323 371
#     4  12  16  32  56 100 108 148 184 280 328 356
#     4  11  21  35  59  89 125 158 208 262 319 373
#     4  11  21  39  61  94 125 164 214 264 315 377
#     4  11  25  41  60  87 136 177 210 256 323 391
#     4  11  21  39  61  94 125 164 214 264 315 377
#     4  10  20  38  67  96 120 161 215 274 326 370
#
# _framework density 4.6296299999999997
#
# number of rings (size 3 to 8) (size 9 to 14) (size 15 to 20)
#    0.000    0.960    6.400    1.920    0.000    1.280 
#    0.000    1.600    0.000    0.000    0.000    0.000 
#    0.000    0.000    0.000    0.000    0.000    0.000 
#
# Total GULP energy -139616.368822 kJ/mol
# GULP energy per Si atom -5584.654753 kJ/mol
# Density = 0.461909 g / cm^3
# Si number density = 4.629630 Si / 1000 Ang^3
#
#
#
# Elastic Constant Matrix: (Units=GPa)
#
#
# Indices 1 2 3 4 5 6 
#
# 1 77.0095 67.8309 67.8275 0.0000 0.0000 0.0000
# 2 67.8309 77.8738 104.6056 0.0000 0.0000 0.0000
# 3 67.8275 104.6056 77.8589 0.0000 0.0000 0.0000
# 4 0.0000 0.0000 0.0000 37.4776 0.0000 0.0000
# 5 0.0000 0.0000 0.0000 0.0000 -32.9885 0.0000
# 6 0.0000 0.0000 0.0000 0.0000 0.0000 -32.9903
#
#
#
# Elastic Compliance Matrix: (Units=1/GPa)
#
#
# Indices 1 2 3 4 5 6 
#
# 1 0.037619 -0.013986 -0.013982 0.000000 0.000000 0.000000
# 2 -0.013986 -0.010758 0.026637 0.000000 0.000000 0.000000
# 3 -0.013982 0.026637 -0.010763 0.000000 0.000000 0.000000
# 4 0.000000 0.000000 0.000000 0.026683 0.000000 0.000000
# 5 0.000000 0.000000 0.000000 0.000000 -0.030314 0.000000
# 6 0.000000 0.000000 0.000000 0.000000 0.000000 -0.030312
#
#
# Mechanical properties :
#
#
# Convention : Reuss Voigt Hill
#
# Bulk Modulus (GPa) = 74.42328 79.25226 76.83777
# Shear Modulus (GPa) = -467.07104 -6.20169 -236.63636
#
# Velocity S-wave (km/s) = -15.89861 -1.83199 -11.31641
# Velocity P-wave (km/s) = 17.22630 6.19792 11.36510
#
# Compressibility (1/GPa) = 0.01343666
#
# Stress axis : x y z
#
# Youngs Moduli (GPa) = 26.58204 -92.95336 -92.90700
#
# Poissons Ratio (x) = -1.30001 -1.29907
# Poissons Ratio (y) = 0.37177 2.47481
# Poissons Ratio (z) = 0.37168 2.47604
#
# Static dielectric constant tensor:
#      x y z
#    x 1.614440 0.000000 0.000000 
#    y 0.000000 1.641920 0.000000 
#    z 0.000000 0.000000 1.641920 
# 
# From -- ./inp_files/29541.got.cif
#   From: 2010.05.17/outbox.ucp.g08.bks.cvg/sg22_15_cif.got.tgz:29541.got - 2010.06.11 15:16:44.
