data_PCOD9329763
_publ_section_title
;
Structure prediction by ZEFSAII (Michael W. Deem and Ramdas Pophale) SiO2 
 PCOD9329763
Probable space group: I 2 2 2
;
_chemical_formula_sum "Si O2"
_cell_formula_units_Z 32
_cell_length_a 10.374226
_cell_length_b 30.823346
_cell_length_c 5.220030
_cell_angle_alpha 90.000000
_cell_angle_beta 90.000000
_cell_angle_gamma 90.000000
_cell_volume 1669.200419
_symmetry_space_group_name_H-M "I 2 2 2"
_symmetry_group_IT_number 23
_symmetry_cell_setting 'orthorhombic'
loop_
_space_group_symop_operation_xyz
x,y,z
-x,-y,z
x,-y,-z
-x,y,-z
1/2+x,1/2+y,1/2+z
1/2-x,1/2-y,1/2+z
1/2+x,1/2-y,1/2-z
1/2-x,1/2+y,1/2-z
loop_
_atom_site_type_symbol
_atom_site_label
_atom_site_fract_x
_atom_site_fract_y
_atom_site_fract_z
Si Si1 0.854015 0.519678 0.259824
Si Si2 0.000000 0.272971 0.000000
Si Si3 0.500000 0.712601 0.000000
Si Si4 0.352312 0.116771 0.981592
Si Si5 0.762291 0.660554 0.987151
O O1 0.780220 0.500000 0.500000
O O2 0.863716 0.569779 0.340475
O O3 0.000000 0.500000 0.255552
O O4 0.797158 0.500000 0.000000
O O5 0.994494 0.243093 0.250877
O O6 0.875109 0.303662 0.021368
O O7 0.374953 0.682868 0.043269
O O8 0.270458 0.142775 0.775317
O O9 0.500000 0.132896 0.000000
O O10 0.293859 0.124511 0.265853
#
# Coordination Sequence:
#
# PCOD9329763 Si02
#       5
#     8   4   4   8   8
#     4  10  19  30  53  86 130 151 186 246 316 352
#     4  12  22  42  66  90 119 158 221 272 316 360
#     4  12  26  44  60  90 123 168 213 260 318 378
#     4  12  21  38  59  93 130 160 198 255 317 371
#     4  12  25  40  64  89 126 165 209 259 315 373
#
# _framework density 19.170856000000001
#
# number of rings (size 3 to 8) (size 9 to 14) (size 15 to 20)
#    0.000    0.500    5.000    6.000    3.500    0.000 
#    0.000    0.000    0.000    0.000    0.000   13.125 
#    0.000    0.000    0.000    0.000    0.000    0.000 
#
# Total GULP energy -89138.653492 kJ/mol
# GULP energy per Si atom -5571.165843 kJ/mol
# Density = 1.912722 g / cm^3
# Si number density = 19.170856 Si / 1000 Ang^3
#
#
#
# Elastic Constant Matrix: (Units=GPa)
#
#
# Indices 1 2 3 4 5 6 
#
# 1 87.1835 26.5963 1.0417 -0.0127 -0.0155 0.0975
# 2 26.5963 61.9126 12.6516 -0.0008 -0.0032 0.1200
# 3 1.0417 12.6516 159.3683 0.0257 -0.0541 0.5001
# 4 -0.0127 -0.0008 0.0257 56.2135 -0.0246 0.0005
# 5 -0.0155 -0.0032 -0.0541 -0.0246 2.3580 -0.0527
# 6 0.0975 0.1200 0.5001 0.0005 -0.0527 -32.3755
#
#
#
# Elastic Compliance Matrix: (Units=1/GPa)
#
#
# Indices 1 2 3 4 5 6 
#
# 1 0.013221 -0.005755 0.000370 0.000003 0.000088 0.000024
# 2 -0.005755 0.018923 -0.001465 0.000000 -0.000045 0.000030
# 3 0.000370 -0.001465 0.006388 -0.000003 0.000149 0.000094
# 4 0.000003 0.000000 -0.000003 0.017789 0.000185 0.000000
# 5 0.000088 -0.000045 0.000149 0.000185 0.424084 -0.000687
# 6 0.000024 0.000030 0.000094 0.000000 -0.000687 -0.030885
#
#
# Mechanical properties :
#
#
# Convention : Reuss Voigt Hill
#
# Bulk Modulus (GPa) = 40.26761 43.22705 41.74733
# Shear Modulus (GPa) = 10.60448 23.11751 16.86100
#
# Velocity S-wave (km/s) = 2.35448 3.47633 2.96887
# Velocity P-wave (km/s) = 5.33307 6.22177 5.79448
#
# Compressibility (1/GPa) = 0.02483386
#
# Stress axis : x y z
#
# Youngs Moduli (GPa) = 75.63514 52.84450 156.53405
#
# Poissons Ratio (x) = 0.30414 -0.05798
# Poissons Ratio (y) = 0.43531 0.22928
# Poissons Ratio (z) = -0.02802 0.07740
#
# Static dielectric constant tensor:
#      x y z
#    x 1.528050 0.000000 -0.001010 
#    y 0.000000 1.861260 -0.001150 
#    z -0.001010 -0.001150 2.429050 
# 
# From -- ./inp_files/841.got.cif
#   From: 2010.05.17/outbox.cif.g08.bks.cpg/sg23_1_cif.got.tgz:841.got - 2010.06.04 12:02:01.
