data_PCOD9329555
_publ_section_title
;
Structure prediction by ZEFSAII (Michael W. Deem and Ramdas Pophale) SiO2 
 PCOD9329555
Probable space group: I 2 2 2
;
_chemical_formula_sum "Si O2"
_cell_formula_units_Z 40
_cell_length_a 12.727457
_cell_length_b 5.004923
_cell_length_c 30.839387
_cell_angle_alpha 90.000000
_cell_angle_beta 90.000000
_cell_angle_gamma 90.000000
_cell_volume 1964.467172
_symmetry_space_group_name_H-M "I 2 2 2"
_symmetry_group_IT_number 23
_symmetry_cell_setting 'orthorhombic'
loop_
_space_group_symop_operation_xyz
x,y,z
-x,-y,z
x,-y,-z
-x,y,-z
1/2+x,1/2+y,1/2+z
1/2-x,1/2-y,1/2+z
1/2+x,1/2-y,1/2-z
1/2-x,1/2+y,1/2-z
loop_
_atom_site_type_symbol
_atom_site_label
_atom_site_fract_x
_atom_site_fract_y
_atom_site_fract_z
Si Si1 0.836181 0.055624 0.702930
Si Si2 0.889652 0.442759 0.243769
Si Si3 0.241273 0.042732 0.384433
Si Si4 0.121088 0.988174 0.895051
Si Si5 0.229119 0.757021 0.028407
O O1 0.873849 0.346465 0.717069
O O2 0.712365 0.023694 0.714307
O O3 0.844113 0.990351 0.652275
O O4 0.890493 0.846147 0.734658
O O5 0.000000 0.500000 0.221112
O O6 0.309358 0.298849 0.368660
O O7 0.201848 0.138416 0.431779
O O8 0.320953 0.795680 0.391380
O O9 0.134729 0.104273 0.944188
O O10 0.000000 0.000000 0.882585
O O11 0.198945 0.500000 0.000000
O O12 0.274634 0.000000 0.000000
#
# Coordination Sequence:
#
# PCOD9329555 Si02
#       5
#     8   8   8   8   8
#     4  10  21  38  57  81 115 145 178 230 272 313
#     4  10  21  37  60  84 109 146 182 220 277 332
#     4  10  20  33  48  69 102 140 176 224 261 315
#     4  10  20  31  43  67  97 140 183 221 263 310
#     4  10  18  32  45  66  99 139 182 223 263 318
#
# _framework density 20.361754000000001
#
# number of rings (size 3 to 8) (size 9 to 14) (size 15 to 20)
#    1.200    0.800    2.000    2.400    0.000    2.000 
#    3.600    0.000    0.000    0.000    0.000    0.000 
#    0.000   12.000    0.000    0.000    0.000    0.000 
#
# Total GULP energy -111337.347258 kJ/mol
# GULP energy per Si atom -5566.867363 kJ/mol
# Density = 2.031541 g / cm^3
# Si number density = 20.361754 Si / 1000 Ang^3
#
#
#
# Elastic Constant Matrix: (Units=GPa)
#
#
# Indices 1 2 3 4 5 6 
#
# 1 37.4608 -3.7152 0.2822 0.0000 0.0000 0.0000
# 2 -3.7152 112.0347 11.6750 0.0000 0.0000 0.0000
# 3 0.2822 11.6750 45.5889 0.0000 0.0000 0.0000
# 4 0.0000 0.0000 0.0000 26.4969 0.0000 0.0000
# 5 0.0000 0.0000 0.0000 0.0000 -0.1502 0.0000
# 6 0.0000 0.0000 0.0000 0.0000 0.0000 17.8087
#
#
#
# Elastic Compliance Matrix: (Units=1/GPa)
#
#
# Indices 1 2 3 4 5 6 
#
# 1 0.026790 0.000930 -0.000404 0.000000 0.000000 0.000000
# 2 0.000930 0.009203 -0.002363 0.000000 0.000000 0.000000
# 3 -0.000404 -0.002363 0.022543 0.000000 0.000000 0.000000
# 4 0.000000 0.000000 0.000000 0.037740 0.000000 0.000000
# 5 0.000000 0.000000 0.000000 0.000000 -6.658006 0.000000
# 6 0.000000 0.000000 0.000000 0.000000 0.000000 0.056152
#
#
# Mechanical properties :
#
#
# Convention : Reuss Voigt Hill
#
# Bulk Modulus (GPa) = 18.22719 23.50760 20.86740
# Shear Modulus (GPa) = -0.77117 21.28726 10.25804
#
# Velocity S-wave (km/s) = -0.61608 3.23685 2.24696
# Velocity P-wave (km/s) = 2.90947 5.05368 4.12339
#
# Compressibility (1/GPa) = 0.05486310
#
# Stress axis : x y z
#
# Youngs Moduli (GPa) = 37.32755 108.66189 44.36023
#
# Poissons Ratio (x) = -0.10111 0.01793
# Poissons Ratio (y) = -0.03473 0.10480
# Poissons Ratio (z) = 0.01508 0.25672
#
# Static dielectric constant tensor:
#      x y z
#    x 1.728790 0.000000 0.000000 
#    y 0.000000 1.722780 0.000000 
#    z 0.000000 0.000000 1.793690 
# 
# From -- ./inp_files/30409.got.cif
#   From: 2010.05.17/outbox.cif.g08.bks.cpg/sg23_16_cif.got.tgz:30409.got - 2010.06.04 12:02:01.
