data_PCOD9329199
_publ_section_title
;
Structure prediction by ZEFSAII (Michael W. Deem and Ramdas Pophale) SiO2 
 PCOD9329199
Probable space group: F 2 2 2
;
_chemical_formula_sum "Si O2"
_cell_formula_units_Z 80
_cell_length_a 13.785219
_cell_length_b 26.364387
_cell_length_c 10.565551
_cell_angle_alpha 90.000000
_cell_angle_beta 90.000000
_cell_angle_gamma 90.000000
_cell_volume 3839.931690
_symmetry_space_group_name_H-M "F 2 2 2"
_symmetry_group_IT_number 22
_symmetry_cell_setting 'orthorhombic'
loop_
_space_group_symop_operation_xyz
x,y,z
-x,-y,z
x,-y,-z
-x,y,-z
x,1/2+y,1/2+z
-x,1/2-y,1/2+z
x,1/2-y,1/2-z
-x,1/2+y,1/2-z
1/2+x,y,1/2+z
1/2-x,-y,1/2+z
1/2+x,-y,1/2-z
1/2-x,y,1/2-z
1/2+x,1/2+y,z
1/2-x,1/2-y,z
1/2+x,1/2-y,-z
1/2-x,1/2+y,-z
loop_
_atom_site_type_symbol
_atom_site_label
_atom_site_fract_x
_atom_site_fract_y
_atom_site_fract_z
Si Si1 0.000000 0.381980 0.000000
Si Si2 0.109302 0.420301 0.468690
Si Si3 0.920351 0.541216 0.199288
Si Si4 0.864948 0.689559 0.392452
Si Si5 0.735685 0.500000 0.500000
Si Si6 0.132707 0.196340 0.398929
O O1 0.018770 0.418275 0.117874
O O2 0.090663 0.343989 0.003136
O O3 0.125912 0.433181 0.321239
O O4 0.111530 0.359325 0.476769
O O5 0.192169 0.453474 0.537043
O O6 0.000000 0.436688 0.500000
O O7 0.000000 0.500000 0.237949
O O8 0.836716 0.517813 0.110898
O O9 0.895467 0.746076 0.432967
O O10 0.900165 0.684581 0.246070
O O11 0.748183 0.691929 0.392136
#
# Coordination Sequence:
#
# PCOD9329199 Si02
#       6
#     8  16  16  16   8  16
#     4  12  19  36  62  98 124 161 206 272 310 372
#     4  12  26  42  63  92 132 169 208 266 321 381
#     4  12  24  42  63  95 125 163 218 260 318 383
#     4   9  19  38  60  88 127 164 212 256 319 374
#     4  12  24  42  64  92 120 170 212 262 312 376
#     4   9  19  34  62  94 120 164 211 263 310 377
#
# _framework density 20.833704000000001
#
# number of rings (size 3 to 8) (size 9 to 14) (size 15 to 20)
#    0.000    1.200    4.000    4.500    4.200    0.000 
#    0.000    0.000    0.000    0.000    0.000    2.800 
#    0.000    0.000    0.000    0.000    0.000    0.000 
#
# Total GULP energy -111613.434555 kJ/mol
# GULP energy per Si atom -5580.671728 kJ/mol
# Density = 2.078629 g / cm^3
# Si number density = 20.833704 Si / 1000 Ang^3
#
#
#
# Elastic Constant Matrix: (Units=GPa)
#
#
# Indices 1 2 3 4 5 6 
#
# 1 78.7945 27.3028 16.0197 0.0000 0.0000 0.0000
# 2 27.3028 145.1482 16.8377 0.0000 0.0000 0.0000
# 3 16.0197 16.8377 43.6197 0.0000 0.0000 0.0000
# 4 0.0000 0.0000 0.0000 20.8423 0.0000 0.0000
# 5 0.0000 0.0000 0.0000 0.0000 24.8187 0.0000
# 6 0.0000 0.0000 0.0000 0.0000 0.0000 52.8914
#
#
#
# Elastic Compliance Matrix: (Units=1/GPa)
#
#
# Indices 1 2 3 4 5 6 
#
# 1 0.014348 -0.002186 -0.004426 0.000000 0.000000 0.000000
# 2 -0.002186 0.007545 -0.002110 0.000000 0.000000 0.000000
# 3 -0.004426 -0.002110 0.025365 0.000000 0.000000 0.000000
# 4 0.000000 0.000000 0.000000 0.047979 0.000000 0.000000
# 5 0.000000 0.000000 0.000000 0.000000 0.040292 0.000000
# 6 0.000000 0.000000 0.000000 0.000000 0.000000 0.018907
#
#
# Mechanical properties :
#
#
# Convention : Reuss Voigt Hill
#
# Bulk Modulus (GPa) = 33.53872 43.09809 38.31840
# Shear Modulus (GPa) = 27.49990 33.53731 30.51860
#
# Velocity S-wave (km/s) = 3.63708 4.01654 3.83151
# Velocity P-wave (km/s) = 5.81129 6.49936 6.16493
#
# Compressibility (1/GPa) = 0.02981628
#
# Stress axis : x y z
#
# Youngs Moduli (GPa) = 69.69433 132.53150 39.42393
#
# Poissons Ratio (x) = 0.28965 0.17449
# Poissons Ratio (y) = 0.15232 0.08318
# Poissons Ratio (z) = 0.30846 0.27963
#
# Static dielectric constant tensor:
#      x y z
#    x 1.745280 0.000000 0.000000 
#    y 0.000000 1.800530 0.000000 
#    z 0.000000 0.000000 1.660270 
# 
# From -- ./inp_files/18339.got.cif
#   From: 2010.05.17/outbox.cif.g08.bks.cpg/sg22_10_cif.got.tgz:18339.got - 2010.06.03 23:40:54.
