data_PCOD9329965
_publ_section_title
;
Structure prediction by ZEFSAII (Michael W. Deem and Ramdas Pophale) SiO2 
 PCOD9329965
Probable space group: I 2 2 2
;
_chemical_formula_sum "Si O2"
_cell_formula_units_Z 56
_cell_length_a 21.525321
_cell_length_b 12.139834
_cell_length_c 11.141645
_cell_angle_alpha 90.000000
_cell_angle_beta 90.000000
_cell_angle_gamma 90.000000
_cell_volume 2911.465858
_symmetry_space_group_name_H-M "I 2 2 2"
_symmetry_group_IT_number 23
_symmetry_cell_setting 'orthorhombic'
loop_
_space_group_symop_operation_xyz
x,y,z
-x,-y,z
x,-y,-z
-x,y,-z
1/2+x,1/2+y,1/2+z
1/2-x,1/2-y,1/2+z
1/2+x,1/2-y,1/2-z
1/2-x,1/2+y,1/2-z
loop_
_atom_site_type_symbol
_atom_site_label
_atom_site_fract_x
_atom_site_fract_y
_atom_site_fract_z
Si Si1 0.239933 0.036779 0.317318
Si Si2 0.669873 0.147206 0.878992
Si Si3 0.845532 0.362147 0.860967
Si Si4 0.715711 0.773128 0.874021
Si Si5 0.656783 0.638139 0.280049
Si Si6 0.434484 0.041540 0.253164
Si Si7 0.067673 0.255662 0.939770
O O1 0.276898 0.087516 0.201498
O O2 0.225705 0.143792 0.396205
O O3 0.286658 0.946098 0.374744
O O4 0.176592 0.977425 0.276974
O O5 0.657420 0.267174 0.821329
O O6 0.608819 0.077800 0.854922
O O7 0.685381 0.164289 0.015963
O O8 0.822869 0.288079 0.749077
O O9 0.900376 0.443265 0.821773
O O10 0.876947 0.292980 0.968248
O O11 0.782652 0.828442 0.856906
O O12 0.596131 0.654949 0.361708
O O13 0.439772 0.142286 0.347236
O O14 0.500000 0.000000 0.211605
O O15 0.000000 0.236418 0.000000
#
# Coordination Sequence:
#
# PCOD9329965 Si02
#       7
#     8   8   8   8   8   8   8
#     4   9  20  38  56  87 118 159 197 239 298 361
#     4   9  20  37  54  88 120 151 201 239 293 361
#     4  10  21  35  55  89 116 153 196 236 299 354
#     4  10  21  38  55  81 122 158 190 249 290 351
#     4   9  21  35  57  88 116 156 195 242 292 351
#     4  10  19  35  58  86 118 152 191 241 302 357
#     4  11  21  36  61  89 121 151 194 252 294 351
#
# _framework density 19.234297999999999
#
# number of rings (size 3 to 8) (size 9 to 14) (size 15 to 20)
#    0.000    2.286    1.429    1.286    6.000    5.714 
#    5.143    1.429    0.000    1.714    0.000    0.000 
#    4.286    0.000    0.000    0.000    0.000    0.000 
#
# Total GULP energy -156197.915627 kJ/mol
# GULP energy per Si atom -5578.496987 kJ/mol
# Density = 1.919052 g / cm^3
# Si number density = 19.234298 Si / 1000 Ang^3
#
#
#
# Elastic Constant Matrix: (Units=GPa)
#
#
# Indices 1 2 3 4 5 6 
#
# 1 63.6700 -2.4931 16.0581 0.0000 0.0000 0.0000
# 2 -2.4931 23.0797 12.1402 0.0000 0.0000 0.0000
# 3 16.0581 12.1402 58.3074 0.0000 0.0000 0.0000
# 4 0.0000 0.0000 0.0000 20.7326 0.0000 0.0000
# 5 0.0000 0.0000 0.0000 0.0000 22.2533 0.0000
# 6 0.0000 0.0000 0.0000 0.0000 0.0000 25.6381
#
#
#
# Elastic Compliance Matrix: (Units=1/GPa)
#
#
# Indices 1 2 3 4 5 6 
#
# 1 0.017364 0.004931 -0.005809 0.000000 0.000000 0.000000
# 2 0.004931 0.050057 -0.011781 0.000000 0.000000 0.000000
# 3 -0.005809 -0.011781 0.021203 0.000000 0.000000 0.000000
# 4 0.000000 0.000000 0.000000 0.048233 0.000000 0.000000
# 5 0.000000 0.000000 0.000000 0.000000 0.044937 0.000000
# 6 0.000000 0.000000 0.000000 0.000000 0.000000 0.039004
#
#
# Mechanical properties :
#
#
# Convention : Reuss Voigt Hill
#
# Bulk Modulus (GPa) = 15.79573 21.82972 18.81273
# Shear Modulus (GPa) = 18.71127 21.68159 20.19643
#
# Velocity S-wave (km/s) = 3.12237 3.36108 3.24392
# Velocity P-wave (km/s) = 4.60750 5.14164 4.88188
#
# Compressibility (1/GPa) = 0.06330825
#
# Stress axis : x y z
#
# Youngs Moduli (GPa) = 57.59005 19.97705 47.16295
#
# Poissons Ratio (x) = -0.09851 0.27396
# Poissons Ratio (y) = -0.28399 0.55561
# Poissons Ratio (z) = 0.33453 0.23534
#
# Static dielectric constant tensor:
#      x y z
#    x 1.663550 0.000000 0.000000 
#    y 0.000000 1.686840 0.000000 
#    z 0.000000 0.000000 1.730450 
# 
# From -- ./inp_files/15938.got.cif
#   From: 2010.05.17/outbox.cif.g08.bks.cpg/sg23_8_cif.got.tgz:15938.got - 2010.06.04 12:02:01.
