data_PCOD9329215
_publ_section_title
;
Structure prediction by ZEFSAII (Michael W. Deem and Ramdas Pophale) SiO2 
 PCOD9329215
Probable space group: F 2 2 2
;
_chemical_formula_sum "Si O2"
_cell_formula_units_Z 44
_cell_length_a 23.977117
_cell_length_b 10.693241
_cell_length_c 7.111122
_cell_angle_alpha 90.000000
_cell_angle_beta 90.000000
_cell_angle_gamma 90.000000
_cell_volume 1823.242547
_symmetry_space_group_name_H-M "F 2 2 2"
_symmetry_group_IT_number 22
_symmetry_cell_setting 'orthorhombic'
loop_
_space_group_symop_operation_xyz
x,y,z
-x,-y,z
x,-y,-z
-x,y,-z
x,1/2+y,1/2+z
-x,1/2-y,1/2+z
x,1/2-y,1/2-z
-x,1/2+y,1/2-z
1/2+x,y,1/2+z
1/2-x,-y,1/2+z
1/2+x,-y,1/2-z
1/2-x,y,1/2-z
1/2+x,1/2+y,z
1/2-x,1/2-y,z
1/2+x,1/2-y,-z
1/2-x,1/2+y,-z
loop_
_atom_site_type_symbol
_atom_site_label
_atom_site_fract_x
_atom_site_fract_y
_atom_site_fract_z
Si Si1 0.700786 0.869935 0.102414
Si Si2 0.649274 0.750000 0.750000
Si Si3 0.500000 0.000000 0.500000
Si Si4 0.910419 0.015197 0.716028
O O1 0.750000 0.859388 0.250000
O O2 0.687044 0.772868 0.935228
O O3 0.642767 0.105542 0.789103
O O4 0.712323 0.000000 0.000000
O O5 0.612153 0.876024 0.728636
O O6 0.457659 0.065009 0.354894
O O7 0.929708 0.000000 0.500000
#
# Coordination Sequence:
#
# PCOD9329215 Si02
#       4
#    16   8   4  16
#     4   9  19  39  75  98 146 183 226 283 352 410
#     4   8  18  44  69 102 134 178 239 274 344 422
#     4  12  22  40  72  90 142 176 226 286 360 382
#     4   9  21  42  67  99 136 181 228 283 348 409
#
# _framework density 24.132826999999999
#
# number of rings (size 3 to 8) (size 9 to 14) (size 15 to 20)
#    0.000    3.636    0.000    0.545    2.545    0.000 
#   13.091   14.545   48.000    0.000    0.000    0.000 
#    0.000    0.000    0.000    0.000    0.000    0.000 
#
# Total GULP energy -61416.095519 kJ/mol
# GULP energy per Si atom -5583.281411 kJ/mol
# Density = 2.407790 g / cm^3
# Si number density = 24.132827 Si / 1000 Ang^3
#
#
#
# Elastic Constant Matrix: (Units=GPa)
#
#
# Indices 1 2 3 4 5 6 
#
# 1 184.3286 20.5777 121.4730 0.0000 0.0000 0.0000
# 2 20.5777 115.5895 56.6012 0.0000 0.0000 0.0000
# 3 121.4730 56.6012 209.4734 0.0000 0.0000 0.0000
# 4 0.0000 0.0000 0.0000 47.9404 0.0000 0.0000
# 5 0.0000 0.0000 0.0000 0.0000 41.2733 0.0000
# 6 0.0000 0.0000 0.0000 0.0000 0.0000 -38.0849
#
#
#
# Elastic Compliance Matrix: (Units=1/GPa)
#
#
# Indices 1 2 3 4 5 6 
#
# 1 0.008897 0.001086 -0.005453 0.000000 0.000000 0.000000
# 2 0.001086 0.010103 -0.003360 0.000000 0.000000 0.000000
# 3 -0.005453 -0.003360 0.008844 0.000000 0.000000 0.000000
# 4 0.000000 0.000000 0.000000 0.020859 0.000000 0.000000
# 5 0.000000 0.000000 0.000000 0.000000 0.024229 0.000000
# 6 0.000000 0.000000 0.000000 0.000000 0.000000 -0.026257
#
#
# Mechanical properties :
#
#
# Convention : Reuss Voigt Hill
#
# Bulk Modulus (GPa) = 80.70261 100.74390 90.72326
# Shear Modulus (GPa) = 75.46113 30.94174 53.20144
#
# Velocity S-wave (km/s) = 5.59794 3.58459 4.70033
# Velocity P-wave (km/s) = 8.67734 7.67910 8.19344
#
# Compressibility (1/GPa) = 0.01239117
#
# Stress axis : x y z
#
# Youngs Moduli (GPa) = 112.39176 98.97888 113.07109
#
# Poissons Ratio (x) = -0.10752 0.61659
# Poissons Ratio (y) = -0.12209 0.37991
# Poissons Ratio (z) = 0.61289 0.33256
#
# Static dielectric constant tensor:
#      x y z
#    x 1.957650 0.000000 0.000000 
#    y 0.000000 2.269620 0.000000 
#    z 0.000000 0.000000 1.969340 
# 
# From -- ./inp_files/1549.got.cif
#   From: 2010.05.17/outbox.cif.g08.bks.cpg/sg22_1_cif.got.tgz:1549.got - 2010.06.03 23:40:54.
