data_PCOD9329063
_publ_section_title
;
Structure prediction by ZEFSAII (Michael W. Deem and Ramdas Pophale) SiO2 
 PCOD9329063
Probable space group: F 2 2 2
;
_chemical_formula_sum "Si O2"
_cell_formula_units_Z 112
_cell_length_a 14.345043
_cell_length_b 28.857983
_cell_length_c 12.510458
_cell_angle_alpha 90.000000
_cell_angle_beta 90.000000
_cell_angle_gamma 90.000000
_cell_volume 5178.941876
_symmetry_space_group_name_H-M "F 2 2 2"
_symmetry_group_IT_number 22
_symmetry_cell_setting 'orthorhombic'
loop_
_space_group_symop_operation_xyz
x,y,z
-x,-y,z
x,-y,-z
-x,y,-z
x,1/2+y,1/2+z
-x,1/2-y,1/2+z
x,1/2-y,1/2-z
-x,1/2+y,1/2-z
1/2+x,y,1/2+z
1/2-x,-y,1/2+z
1/2+x,-y,1/2-z
1/2-x,y,1/2-z
1/2+x,1/2+y,z
1/2-x,1/2-y,z
1/2+x,1/2-y,-z
1/2-x,1/2+y,-z
loop_
_atom_site_type_symbol
_atom_site_label
_atom_site_fract_x
_atom_site_fract_y
_atom_site_fract_z
Si Si1 0.390614 0.000050 0.726109
Si Si2 0.985382 0.177395 0.174476
Si Si3 0.634917 0.298562 0.979935
Si Si4 0.066132 0.796126 0.603601
Si Si5 0.806270 0.364768 0.988354
Si Si6 0.644406 0.393942 0.283023
Si Si7 0.777109 0.964885 0.410695
O O1 0.319296 0.987086 0.631804
O O2 0.355646 0.965088 0.818553
O O3 0.500000 0.000000 0.701380
O O4 0.367218 0.051330 0.769536
O O5 0.928467 0.132137 0.207819
O O6 0.076133 0.168923 0.101464
O O7 0.013000 0.202502 0.284273
O O8 0.920315 0.206160 0.092103
O O9 0.630142 0.249384 0.918162
O O10 0.729953 0.324642 0.006008
O O11 0.127012 0.842713 0.600098
O O12 0.000000 0.797509 0.500000
O O13 0.762451 0.413359 0.953501
O O14 0.863530 0.376138 0.095843
O O15 0.750000 0.381981 0.250000
O O16 0.812960 0.000000 0.500000
#
# Coordination Sequence:
#
# PCOD9329063 Si02
#       7
#    16  16  16  16  16  16  16
#     4  11  26  44  70 101 141 188 235 286 368 419
#     4  11  25  43  73 100 140 186 230 296 353 416
#     4  11  26  47  72 103 142 190 241 293 353 428
#     4  12  25  44  71 107 145 181 240 297 354 423
#     4  12  26  44  72 105 141 190 234 292 368 420
#     4  12  22  45  72 104 138 186 242 298 344 432
#     4  11  24  47  67 103 144 178 232 302 348 429
#
# _framework density 21.62604
#
# number of rings (size 3 to 8) (size 9 to 14) (size 15 to 20)
#    0.000    0.571    7.143    0.857    4.000    2.286 
#    0.000    1.429    0.000    0.000    0.000    0.000 
#    0.000    0.000    0.000    0.000    0.000    0.000 
#
# Total GULP energy -156385.513989 kJ/mol
# GULP energy per Si atom -5585.196928 kJ/mol
# Density = 2.157682 g / cm^3
# Si number density = 21.626040 Si / 1000 Ang^3
#
#
#
# Elastic Constant Matrix: (Units=GPa)
#
#
# Indices 1 2 3 4 5 6 
#
# 1 63.6589 25.5532 13.6048 0.0000 0.0000 0.0000
# 2 25.5532 102.3577 26.4683 0.0000 0.0000 0.0000
# 3 13.6048 26.4683 110.7037 0.0000 0.0000 0.0000
# 4 0.0000 0.0000 0.0000 27.8955 0.0000 0.0000
# 5 0.0000 0.0000 0.0000 0.0000 18.5839 0.0000
# 6 0.0000 0.0000 0.0000 0.0000 0.0000 34.5229
#
#
#
# Elastic Compliance Matrix: (Units=1/GPa)
#
#
# Indices 1 2 3 4 5 6 
#
# 1 0.017603 -0.004088 -0.001186 0.000000 0.000000 0.000000
# 2 -0.004088 0.011363 -0.002214 0.000000 0.000000 0.000000
# 3 -0.001186 -0.002214 0.009708 0.000000 0.000000 0.000000
# 4 0.000000 0.000000 0.000000 0.035848 0.000000 0.000000
# 5 0.000000 0.000000 0.000000 0.000000 0.053810 0.000000
# 6 0.000000 0.000000 0.000000 0.000000 0.000000 0.028966
#
#
# Mechanical properties :
#
#
# Convention : Reuss Voigt Hill
#
# Bulk Modulus (GPa) = 42.19802 45.33036 43.76419
# Shear Modulus (GPa) = 27.75092 30.27338 29.01215
#
# Velocity S-wave (km/s) = 3.58609 3.74553 3.66667
# Velocity P-wave (km/s) = 6.05819 6.30173 6.18116
#
# Compressibility (1/GPa) = 0.02369780
#
# Stress axis : x y z
#
# Youngs Moduli (GPa) = 56.80823 88.00653 103.00461
#
# Poissons Ratio (x) = 0.35976 0.12216
# Poissons Ratio (y) = 0.23223 0.22809
# Poissons Ratio (z) = 0.06737 0.19488
#
# Static dielectric constant tensor:
#      x y z
#    x 1.808160 0.000000 0.000000 
#    y 0.000000 1.759040 0.000000 
#    z 0.000000 0.000000 1.788070 
# 
# From -- ./inp_files/20284.got.cif
#   From: 2010.05.17/outbox.cif.g08.bks.cpg/sg22_11_cif.got.tgz:20284.got - 2010.06.03 23:40:54.
