data_PCOD9329820
_publ_section_title
;
Structure prediction by ZEFSAII (Michael W. Deem and Ramdas Pophale) SiO2 
 PCOD9329820
Probable space group: I 2 2 2
;
_chemical_formula_sum "Si O2"
_cell_formula_units_Z 48
_cell_length_a 9.188977
_cell_length_b 27.662063
_cell_length_c 7.751900
_cell_angle_alpha 90.000000
_cell_angle_beta 90.000000
_cell_angle_gamma 90.000000
_cell_volume 1970.424924
_symmetry_space_group_name_H-M "I 2 2 2"
_symmetry_group_IT_number 23
_symmetry_cell_setting 'orthorhombic'
loop_
_space_group_symop_operation_xyz
x,y,z
-x,-y,z
x,-y,-z
-x,y,-z
1/2+x,1/2+y,1/2+z
1/2-x,1/2-y,1/2+z
1/2+x,1/2-y,1/2-z
1/2-x,1/2+y,1/2-z
loop_
_atom_site_type_symbol
_atom_site_label
_atom_site_fract_x
_atom_site_fract_y
_atom_site_fract_z
Si Si1 0.072044 0.047851 0.691078
Si Si2 0.013674 0.153195 0.298635
Si Si3 0.593864 0.151129 0.242107
Si Si4 0.687876 0.187340 0.600237
Si Si5 0.077598 0.453184 0.188191
Si Si6 0.657916 0.296967 0.573634
O O1 0.246877 0.041764 0.676669
O O2 0.000000 0.048687 0.500000
O O3 0.032833 0.100344 0.774492
O O4 0.000000 0.000000 0.775562
O O5 0.178373 0.171875 0.279573
O O6 0.000000 0.144879 0.500000
O O7 0.904105 0.197684 0.267797
O O8 0.669199 0.152236 0.434775
O O9 0.455101 0.183605 0.282113
O O10 0.549463 0.096317 0.211978
O O11 0.698952 0.171016 0.094248
O O12 0.691412 0.242205 0.531458
O O13 0.000000 0.500000 0.266634
O O14 0.000000 0.448114 0.000000
O O15 0.500000 0.315613 0.500000
#
# Coordination Sequence:
#
# PCOD9329820 Si02
#       6
#     8   8   8   8   8   8
#     4  10  19  32  53  90 129 160 215 275 341 410
#     4  11  22  38  63  91 131 171 222 279 335 405
#     4  11  21  40  59  95 134 170 222 278 345 410
#     4  11  22  38  63  88 129 179 222 272 341 405
#     4  11  20  31  58  92 135 170 208 280 355 409
#     4  12  24  42  61  93 132 175 226 282 333 409
#
# _framework density 24.360226999999998
#
# number of rings (size 3 to 8) (size 9 to 14) (size 15 to 20)
#    0.000    1.000    6.667    4.000    2.333    0.000 
#    0.000    0.833    0.000    0.500    0.000    0.000 
#    0.000    0.000    0.000    0.000    0.000    0.000 
#
# Total GULP energy -133791.272063 kJ/mol
# GULP energy per Si atom -5574.636336 kJ/mol
# Density = 2.430478 g / cm^3
# Si number density = 24.360227 Si / 1000 Ang^3
#
#
#
# Elastic Constant Matrix: (Units=GPa)
#
#
# Indices 1 2 3 4 5 6 
#
# 1 143.5677 30.6546 -0.4586 -0.0069 -0.0005 -0.0064
# 2 30.6546 179.5111 3.0091 -0.0061 -0.0002 -0.0058
# 3 -0.4586 3.0091 23.0938 -0.0215 -0.0043 -0.0278
# 4 -0.0069 -0.0061 -0.0215 6.1352 -0.0002 -0.0115
# 5 -0.0005 -0.0002 -0.0043 -0.0002 37.8464 -0.0010
# 6 -0.0064 -0.0058 -0.0278 -0.0115 -0.0010 46.8657
#
#
#
# Elastic Compliance Matrix: (Units=1/GPa)
#
#
# Indices 1 2 3 4 5 6 
#
# 1 0.007231 -0.001240 0.000305 0.000008 0.000000 0.000001
# 2 -0.001240 0.005796 -0.000780 0.000002 0.000000 0.000000
# 3 0.000305 -0.000780 0.043410 0.000151 0.000005 0.000026
# 4 0.000008 0.000002 0.000151 0.162993 0.000001 0.000040
# 5 0.000000 0.000000 0.000005 0.000001 0.026423 0.000001
# 6 0.000001 0.000000 0.000026 0.000040 0.000001 0.021338
#
#
# Mechanical properties :
#
#
# Convention : Reuss Voigt Hill
#
# Bulk Modulus (GPa) = 18.86543 45.84254 32.35399
# Shear Modulus (GPa) = 17.34379 39.03396 28.18887
#
# Velocity S-wave (km/s) = 2.67117 4.00730 3.40541
# Velocity P-wave (km/s) = 4.15629 6.34592 5.36402
#
# Compressibility (1/GPa) = 0.05300699
#
# Stress axis : x y z
#
# Youngs Moduli (GPa) = 138.29182 172.54767 23.03642
#
# Poissons Ratio (x) = 0.21395 -0.00703
# Poissons Ratio (y) = 0.17147 0.01796
# Poissons Ratio (z) = -0.04220 0.13455
#
# Static dielectric constant tensor:
#      x y z
#    x 2.188030 0.000080 0.000200 
#    y 0.000080 2.068270 0.000030 
#    z 0.000200 0.000030 1.963050 
# 
# From -- ./inp_files/7335.got.cif
#   From: 2010.05.17/outbox.cif.g08.bks.cpg/sg23_4_cif.got.tgz:7335.got - 2010.06.04 12:02:01.
