data_PCOD9329943
_publ_section_title
;
Structure prediction by ZEFSAII (Michael W. Deem and Ramdas Pophale) SiO2 
 PCOD9329943
Probable space group: I 2 2 2
;
_chemical_formula_sum "Si O2"
_cell_formula_units_Z 48
_cell_length_a 15.155344
_cell_length_b 10.521358
_cell_length_c 14.460260
_cell_angle_alpha 90.000000
_cell_angle_beta 90.000000
_cell_angle_gamma 90.000000
_cell_volume 2305.757864
_symmetry_space_group_name_H-M "I 2 2 2"
_symmetry_group_IT_number 23
_symmetry_cell_setting 'orthorhombic'
loop_
_space_group_symop_operation_xyz
x,y,z
-x,-y,z
x,-y,-z
-x,y,-z
1/2+x,1/2+y,1/2+z
1/2-x,1/2-y,1/2+z
1/2+x,1/2-y,1/2-z
1/2-x,1/2+y,1/2-z
loop_
_atom_site_type_symbol
_atom_site_label
_atom_site_fract_x
_atom_site_fract_y
_atom_site_fract_z
Si Si1 0.220993 0.589642 0.743157
Si Si2 0.567225 0.300634 0.244187
Si Si3 0.916247 0.135342 0.950462
Si Si4 0.302282 0.252932 0.413841
Si Si5 0.573750 0.894933 0.279698
Si Si6 0.841877 0.036638 0.602919
O O1 0.152729 0.707148 0.754420
O O2 0.277650 0.628411 0.652980
O O3 0.155450 0.468252 0.731169
O O4 0.284702 0.559471 0.830884
O O5 0.564019 0.368053 0.343295
O O6 0.482413 0.211932 0.226243
O O7 0.582394 0.404070 0.166222
O O8 0.830009 0.208762 0.983519
O O9 0.000000 0.199194 0.000000
O O10 0.908706 0.000000 0.000000
O O11 0.381549 0.177112 0.364666
O O12 0.223151 0.155130 0.415065
O O13 0.500000 0.000000 0.306580
O O14 0.870227 0.000000 0.500000
#
# Coordination Sequence:
#
# PCOD9329943 Si02
#       6
#     8   8   8   8   8   8
#     4   9  19  34  57  84 119 162 201 247 301 356
#     4  10  19  35  55  83 124 158 199 254 299 362
#     4  11  21  32  51  86 123 154 196 245 312 356
#     4  10  19  35  56  86 122 158 199 246 304 364
#     4   9  18  34  56  86 118 158 200 244 302 357
#     4  10  20  35  57  86 120 159 205 246 298 365
#
# _framework density 20.817451999999999
#
# number of rings (size 3 to 8) (size 9 to 14) (size 15 to 20)
#    0.000    2.167    1.667    2.000    0.000    0.000 
#    0.000    2.500    0.000    2.000    0.000   17.500 
#    0.000    0.000    0.000    0.000    0.000    0.000 
#
# Total GULP energy -133790.515779 kJ/mol
# GULP energy per Si atom -5574.604824 kJ/mol
# Density = 2.077007 g / cm^3
# Si number density = 20.817452 Si / 1000 Ang^3
#
#
#
# Elastic Constant Matrix: (Units=GPa)
#
#
# Indices 1 2 3 4 5 6 
#
# 1 57.4221 37.5355 39.8298 0.0000 0.0000 0.0000
# 2 37.5355 72.7423 49.8362 0.0000 0.0000 0.0000
# 3 39.8298 49.8362 147.6022 0.0000 0.0000 0.0000
# 4 0.0000 0.0000 0.0000 17.8995 0.0000 0.0000
# 5 0.0000 0.0000 0.0000 0.0000 6.1448 0.0000
# 6 0.0000 0.0000 0.0000 0.0000 0.0000 20.8744
#
#
#
# Elastic Compliance Matrix: (Units=1/GPa)
#
#
# Indices 1 2 3 4 5 6 
#
# 1 0.027550 -0.011868 -0.003427 0.000000 0.000000 0.000000
# 2 -0.011868 0.022997 -0.004562 0.000000 0.000000 0.000000
# 3 -0.003427 -0.004562 0.009240 0.000000 0.000000 0.000000
# 4 0.000000 0.000000 0.000000 0.055867 0.000000 0.000000
# 5 0.000000 0.000000 0.000000 0.000000 0.162739 0.000000
# 6 0.000000 0.000000 0.000000 0.000000 0.000000 0.047906
#
#
# Mechanical properties :
#
#
# Convention : Reuss Voigt Hill
#
# Bulk Modulus (GPa) = 49.81990 59.12998 54.47494
# Shear Modulus (GPa) = 13.41550 19.02142 16.21846
#
# Velocity S-wave (km/s) = 2.54133 3.02607 2.79423
# Velocity P-wave (km/s) = 5.70919 6.37771 6.05269
#
# Compressibility (1/GPa) = 0.02007230
#
# Stress axis : x y z
#
# Youngs Moduli (GPa) = 36.29778 43.48477 108.22426
#
# Poissons Ratio (x) = 0.51608 0.37090
# Poissons Ratio (y) = 0.43078 0.49372
# Poissons Ratio (z) = 0.12440 0.19838
#
# Static dielectric constant tensor:
#      x y z
#    x 1.825290 0.000000 0.000000 
#    y 0.000000 1.800900 0.000000 
#    z 0.000000 0.000000 1.708860 
# 
# From -- ./inp_files/17398.got.cif
#   From: 2010.05.17/outbox.cif.g08.bks.cpg/sg23_9_cif.got.tgz:17398.got - 2010.06.04 12:02:01.
