data_PCOD9329651
_publ_section_title
;
Structure prediction by ZEFSAII (Michael W. Deem and Ramdas Pophale) SiO2 
 PCOD9329651
Probable space group: I 2 2 2
;
_chemical_formula_sum "Si O2"
_cell_formula_units_Z 40
_cell_length_a 8.726545
_cell_length_b 24.927997
_cell_length_c 7.650415
_cell_angle_alpha 90.000000
_cell_angle_beta 90.000000
_cell_angle_gamma 90.000000
_cell_volume 1664.235227
_symmetry_space_group_name_H-M "I 2 2 2"
_symmetry_group_IT_number 23
_symmetry_cell_setting 'orthorhombic'
loop_
_space_group_symop_operation_xyz
x,y,z
-x,-y,z
x,-y,-z
-x,y,-z
1/2+x,1/2+y,1/2+z
1/2-x,1/2-y,1/2+z
1/2+x,1/2-y,1/2-z
1/2-x,1/2+y,1/2-z
loop_
_atom_site_type_symbol
_atom_site_label
_atom_site_fract_x
_atom_site_fract_y
_atom_site_fract_z
Si Si1 0.749572 0.421531 0.072242
Si Si2 0.191739 0.190905 0.502466
Si Si3 0.500000 0.500000 0.500000
Si Si4 0.500000 0.000000 0.000000
Si Si5 0.500000 0.500000 0.000000
Si Si6 0.664377 0.189686 0.107229
Si Si7 0.500000 0.000000 0.500000
Si Si8 0.747721 0.423823 0.654158
O O1 0.745051 0.359070 0.120402
O O2 0.744203 0.417789 0.861783
O O3 0.894113 0.458934 0.108884
O O4 0.606290 0.459574 0.111002
O O5 0.295411 0.188494 0.681613
O O6 0.222855 0.251039 0.438572
O O7 0.000000 0.185236 0.500000
O O8 0.607593 0.459291 0.600265
O O9 0.607998 0.040961 0.102133
O O10 0.746828 0.133787 0.059528
O O11 0.500000 0.186770 0.000000
#
# Coordination Sequence:
#
# PCOD9329651 Si02
#       8
#     8   8   2   2   2   8   2   8
#     4  10  20  38  61  91 132 175 229 291 350 430
#     4  10  22  46  71 105 140 189 241 300 361 432
#     4  10  22  38  58 100 128 170 246 272 378 394
#     4  10  18  34  62  88 128 174 226 276 370 406
#     4  10  18  34  62  88 128 174 226 276 370 406
#     4  10  22  46  71 105 140 189 241 300 361 432
#     4  10  22  38  58 100 128 170 246 272 378 394
#     4  10  20  38  61  91 132 175 229 291 350 430
#
# _framework density 24.035064999999999
#
# number of rings (size 3 to 8) (size 9 to 14) (size 15 to 20)
#    0.000    2.000    2.000    1.200    0.000    0.000 
#   28.800    2.000    0.000    0.000    0.000    0.000 
#    0.000    0.000    0.000    0.000    0.000    0.000 
#
# Total GULP energy -111348.205775 kJ/mol
# GULP energy per Si atom -5567.410289 kJ/mol
# Density = 2.398036 g / cm^3
# Si number density = 24.035065 Si / 1000 Ang^3
#
#
#
# Elastic Constant Matrix: (Units=GPa)
#
#
# Indices 1 2 3 4 5 6 
#
# 1 130.0440 68.7131 40.0598 -0.0026 -0.0012 0.0005
# 2 68.7131 295.8297 40.3515 -0.0011 -0.0009 0.0005
# 3 40.0598 40.3515 80.1335 -0.0047 -0.0043 0.0029
# 4 -0.0026 -0.0011 -0.0047 30.6547 -0.0014 0.0010
# 5 -0.0012 -0.0009 -0.0043 -0.0014 36.3737 0.0000
# 6 0.0005 0.0005 0.0029 0.0010 0.0000 40.5674
#
#
#
# Elastic Compliance Matrix: (Units=1/GPa)
#
#
# Indices 1 2 3 4 5 6 
#
# 1 0.009856 -0.001736 -0.004053 0.000000 0.000000 0.000000
# 2 -0.001736 0.003936 -0.001114 0.000000 0.000000 0.000000
# 3 -0.004053 -0.001114 0.015066 0.000002 0.000002 -0.000001
# 4 0.000000 0.000000 0.000002 0.032621 0.000001 -0.000001
# 5 0.000000 0.000000 0.000002 0.000001 0.027492 0.000000
# 6 0.000000 0.000000 -0.000001 -0.000001 0.000000 0.024650
#
#
# Mechanical properties :
#
#
# Convention : Reuss Voigt Hill
#
# Bulk Modulus (GPa) = 66.43770 89.36178 77.89974
# Shear Modulus (GPa) = 37.75186 45.31134 41.53160
#
# Velocity S-wave (km/s) = 3.96750 4.34662 4.16138
# Velocity P-wave (km/s) = 6.97783 7.90261 7.45458
#
# Compressibility (1/GPa) = 0.01505169
#
# Stress axis : x y z
#
# Youngs Moduli (GPa) = 101.46546 254.09384 66.37504
#
# Poissons Ratio (x) = 0.44121 0.26899
# Poissons Ratio (y) = 0.17619 0.07392
# Poissons Ratio (z) = 0.41119 0.28299
#
# Static dielectric constant tensor:
#      x y z
#    x 1.944180 0.000000 0.000000 
#    y 0.000000 1.922840 0.000000 
#    z 0.000000 0.000000 2.027580 
# 
# From -- ./inp_files/7169.got.cif
#   From: 2010.05.17/outbox.cif.g08.bks.cpg/sg23_4_cif.got.tgz:7169.got - 2010.06.04 12:02:01.
