data_PCOD9329118
_publ_section_title
;
Structure prediction by ZEFSAII (Michael W. Deem and Ramdas Pophale) SiO2 
 PCOD9329118
Probable space group: F 2 2 2
;
_chemical_formula_sum "Si O2"
_cell_formula_units_Z 64
_cell_length_a 16.517050
_cell_length_b 18.467330
_cell_length_c 8.568525
_cell_angle_alpha 90.000000
_cell_angle_beta 90.000000
_cell_angle_gamma 90.000000
_cell_volume 2613.621304
_symmetry_space_group_name_H-M "F 2 2 2"
_symmetry_group_IT_number 22
_symmetry_cell_setting 'orthorhombic'
loop_
_space_group_symop_operation_xyz
x,y,z
-x,-y,z
x,-y,-z
-x,y,-z
x,1/2+y,1/2+z
-x,1/2-y,1/2+z
x,1/2-y,1/2-z
-x,1/2+y,1/2-z
1/2+x,y,1/2+z
1/2-x,-y,1/2+z
1/2+x,-y,1/2-z
1/2-x,y,1/2-z
1/2+x,1/2+y,z
1/2-x,1/2-y,z
1/2+x,1/2-y,-z
1/2-x,1/2+y,-z
loop_
_atom_site_type_symbol
_atom_site_label
_atom_site_fract_x
_atom_site_fract_y
_atom_site_fract_z
Si Si1 0.436839 0.102880 0.873108
Si Si2 0.444459 0.151980 0.367282
Si Si3 0.841382 0.766263 0.562813
Si Si4 0.339687 0.482669 0.182505
O O1 0.490780 0.159592 0.771077
O O2 0.365643 0.150075 0.948711
O O3 0.397463 0.039783 0.771174
O O4 0.500000 0.076205 0.000000
O O5 0.500000 0.114573 0.500000
O O6 0.402119 0.218749 0.456074
O O7 0.377130 0.097094 0.307005
O O8 0.843881 0.750000 0.750000
O O9 0.750000 0.750000 0.511651
O O10 0.250000 0.487507 0.250000
O O11 0.336854 0.500000 0.000000
#
# Coordination Sequence:
#
# PCOD9329118 Si02
#       4
#    16  16  16  16
#     4  12  29  49  82 117 157 209 272 323 394 481
#     4  12  25  50  77 111 158 210 257 328 391 464
#     4  11  25  46  79 115 160 207 259 322 398 468
#     4  12  29  50  79 115 163 209 262 332 406 471
#
# _framework density 24.487098
#
# number of rings (size 3 to 8) (size 9 to 14) (size 15 to 20)
#    0.000    0.250    5.000    1.500   10.500    1.000 
#    0.000    1.250    0.000    0.000    0.000    0.000 
#    0.000    0.000    0.000    0.000    0.000    0.000 
#
# Total GULP energy -89626.614428 kJ/mol
# GULP energy per Si atom -5601.663402 kJ/mol
# Density = 2.443136 g / cm^3
# Si number density = 24.487098 Si / 1000 Ang^3
#
#
#
# Elastic Constant Matrix: (Units=GPa)
#
#
# Indices 1 2 3 4 5 6 
#
# 1 150.5476 32.8968 71.3073 0.0000 0.0000 0.0000
# 2 32.8968 104.8041 51.4855 0.0000 0.0000 0.0000
# 3 71.3073 51.4855 127.0529 0.0000 0.0000 0.0000
# 4 0.0000 0.0000 0.0000 37.5277 0.0000 0.0000
# 5 0.0000 0.0000 0.0000 0.0000 55.3924 0.0000
# 6 0.0000 0.0000 0.0000 0.0000 0.0000 36.3468
#
#
#
# Elastic Compliance Matrix: (Units=1/GPa)
#
#
# Indices 1 2 3 4 5 6 
#
# 1 0.009063 -0.000432 -0.004912 0.000000 0.000000 0.000000
# 2 -0.000432 0.011934 -0.004593 0.000000 0.000000 0.000000
# 3 -0.004912 -0.004593 0.012489 0.000000 0.000000 0.000000
# 4 0.000000 0.000000 0.000000 0.026647 0.000000 0.000000
# 5 0.000000 0.000000 0.000000 0.000000 0.018053 0.000000
# 6 0.000000 0.000000 0.000000 0.000000 0.000000 0.027513
#
#
# Mechanical properties :
#
#
# Convention : Reuss Voigt Hill
#
# Bulk Modulus (GPa) = 73.46661 77.08708 75.27684
# Shear Modulus (GPa) = 38.42911 40.96771 39.69841
#
# Velocity S-wave (km/s) = 3.96581 4.09471 4.03078
# Velocity P-wave (km/s) = 7.14406 7.34197 7.24369
#
# Compressibility (1/GPa) = 0.01361163
#
# Stress axis : x y z
#
# Youngs Moduli (GPa) = 110.33631 83.79586 80.07228
#
# Poissons Ratio (x) = 0.03620 0.39328
# Poissons Ratio (y) = 0.04766 0.36781
# Poissons Ratio (z) = 0.54193 0.38491
#
# Static dielectric constant tensor:
#      x y z
#    x 1.950260 0.000000 0.000000 
#    y 0.000000 1.921190 0.000000 
#    z 0.000000 0.000000 2.001040 
# 
# From -- ./inp_files/9783.got.cif
#   From: 2010.05.17/outbox.cif.g08.bks.cpg/sg22_5_cif.got.tgz:9783.got - 2010.06.03 23:40:54.
