data_PCOD9329593
_publ_section_title
;
Structure prediction by ZEFSAII (Michael W. Deem and Ramdas Pophale) SiO2 
 PCOD9329593
Probable space group: I 2 2 2
;
_chemical_formula_sum "Si O2"
_cell_formula_units_Z 64
_cell_length_a 7.808795
_cell_length_b 23.728502
_cell_length_c 20.022708
_cell_angle_alpha 90.000000
_cell_angle_beta 90.000000
_cell_angle_gamma 90.000000
_cell_volume 3710.027744
_symmetry_space_group_name_H-M "I 2 2 2"
_symmetry_group_IT_number 23
_symmetry_cell_setting 'orthorhombic'
loop_
_space_group_symop_operation_xyz
x,y,z
-x,-y,z
x,-y,-z
-x,y,-z
1/2+x,1/2+y,1/2+z
1/2-x,1/2-y,1/2+z
1/2+x,1/2-y,1/2-z
1/2-x,1/2+y,1/2-z
loop_
_atom_site_type_symbol
_atom_site_label
_atom_site_fract_x
_atom_site_fract_y
_atom_site_fract_z
Si Si1 0.295162 0.837136 0.727795
Si Si2 0.703950 0.272533 0.646098
Si Si3 0.799636 0.129892 0.500182
Si Si4 0.293160 0.935834 0.635012
Si Si5 0.707029 0.272472 0.354492
Si Si6 0.198512 0.242123 0.999743
Si Si7 0.208162 0.337202 0.227198
Si Si8 0.207445 0.436037 0.134582
O O1 0.231843 0.784866 0.681867
O O2 0.234679 0.895257 0.695156
O O3 0.245134 0.822653 0.803288
O O4 0.501623 0.836657 0.724781
O O5 0.498534 0.266557 0.640916
O O6 0.773978 0.277389 0.571124
O O7 0.740811 0.322750 0.697400
O O8 0.755575 0.094157 0.565828
O O9 0.704165 0.189730 0.500112
O O10 0.755323 0.093756 0.434838
O O11 0.000000 0.142937 0.500000
O O12 0.500317 0.937712 0.637091
O O13 0.229283 0.999875 0.638007
O O14 0.775519 0.277435 0.429665
O O15 0.771219 0.214977 0.318931
O O16 0.000000 0.223844 0.000000
O O17 0.267530 0.395370 0.194394
#
# Coordination Sequence:
#
# PCOD9329593 Si02
#       8
#     8   8   8   8   8   8   8   8
#     4   9  17  30  47  68  92 118 152 193 232 272
#     4   9  17  29  48  68  91 120 151 190 233 275
#     4  12  23  31  44  69 100 127 157 197 236 266
#     4  10  20  35  52  66  88 129 169 193 222 273
#     4   9  17  29  48  68  91 120 151 190 233 275
#     4  10  18  33  51  68  93 128 164 188 222 283
#     4   9  17  30  47  68  92 118 152 193 232 272
#     4  10  20  35  52  66  88 129 169 193 222 273
#
# _framework density 17.250544000000001
#
# number of rings (size 3 to 8) (size 9 to 14) (size 15 to 20)
#    0.000    2.250    2.500    1.500    0.000    4.000 
#    0.000    0.000    0.000    0.000    0.000    0.875 
#    0.000    7.000    0.000    0.000    0.000    0.000 
#
# Total GULP energy -178477.232505 kJ/mol
# GULP energy per Si atom -5577.413516 kJ/mol
# Density = 1.721128 g / cm^3
# Si number density = 17.250544 Si / 1000 Ang^3
#
#
#
# Elastic Constant Matrix: (Units=GPa)
#
#
# Indices 1 2 3 4 5 6 
#
# 1 22.8261 -5.2132 1.2599 0.0000 0.0000 0.0000
# 2 -5.2132 65.2690 66.8064 0.0000 0.0000 0.0000
# 3 1.2599 66.8064 181.5575 0.0000 0.0000 0.0000
# 4 0.0000 0.0000 0.0000 18.1190 0.0000 0.0000
# 5 0.0000 0.0000 0.0000 0.0000 19.4185 0.0000
# 6 0.0000 0.0000 0.0000 0.0000 0.0000 12.3873
#
#
#
# Elastic Compliance Matrix: (Units=1/GPa)
#
#
# Indices 1 2 3 4 5 6 
#
# 1 0.045402 0.006335 -0.002646 0.000000 0.000000 0.000000
# 2 0.006335 0.025462 -0.009413 0.000000 0.000000 0.000000
# 3 -0.002646 -0.009413 0.008990 0.000000 0.000000 0.000000
# 4 0.000000 0.000000 0.000000 0.055191 0.000000 0.000000
# 5 0.000000 0.000000 0.000000 0.000000 0.051497 0.000000
# 6 0.000000 0.000000 0.000000 0.000000 0.000000 0.080728
#
#
# Mechanical properties :
#
#
# Convention : Reuss Voigt Hill
#
# Bulk Modulus (GPa) = 14.61869 43.92875 29.27372
# Shear Modulus (GPa) = 16.58264 23.77159 20.17711
#
# Velocity S-wave (km/s) = 3.10382 3.71620 3.42373
# Velocity P-wave (km/s) = 4.61927 6.62827 5.71277
#
# Compressibility (1/GPa) = 0.06840556
#
# Stress axis : x y z
#
# Youngs Moduli (GPa) = 22.02532 39.27437 111.23611
#
# Poissons Ratio (x) = -0.24879 0.29433
# Poissons Ratio (y) = -0.13953 1.04706
# Poissons Ratio (z) = 0.05828 0.36969
#
# Static dielectric constant tensor:
#      x y z
#    x 1.639890 0.000000 0.000000 
#    y 0.000000 1.569690 0.000000 
#    z 0.000000 0.000000 1.605450 
# 
# From -- ./inp_files/12776.got.cif
#   From: 2010.05.17/outbox.cif.g08.bks.cpg/sg23_7_cif.got.tgz:12776.got - 2010.06.04 12:02:01.
