data_PCOD9329541
_publ_section_title
;
Structure prediction by ZEFSAII (Michael W. Deem and Ramdas Pophale) SiO2 
 PCOD9329541
Probable space group: I 2 2 2
;
_chemical_formula_sum "Si O2"
_cell_formula_units_Z 64
_cell_length_a 15.792092
_cell_length_b 9.510770
_cell_length_c 26.332065
_cell_angle_alpha 90.000000
_cell_angle_beta 90.000000
_cell_angle_gamma 90.000000
_cell_volume 3954.943313
_symmetry_space_group_name_H-M "I 2 2 2"
_symmetry_group_IT_number 23
_symmetry_cell_setting 'orthorhombic'
loop_
_space_group_symop_operation_xyz
x,y,z
-x,-y,z
x,-y,-z
-x,y,-z
1/2+x,1/2+y,1/2+z
1/2-x,1/2-y,1/2+z
1/2+x,1/2-y,1/2-z
1/2-x,1/2+y,1/2-z
loop_
_atom_site_type_symbol
_atom_site_label
_atom_site_fract_x
_atom_site_fract_y
_atom_site_fract_z
Si Si1 0.508052 0.329571 0.441484
Si Si2 0.585497 0.449452 0.808719
Si Si3 0.501803 0.733751 0.720933
Si Si4 0.085758 0.552502 0.702083
Si Si5 0.371776 0.266465 0.362672
Si Si6 0.708066 0.714086 0.809185
Si Si7 0.633012 0.393836 0.356989
Si Si8 0.294717 0.789805 0.798837
O O1 0.500000 0.500000 0.440429
O O2 0.500000 0.286756 0.500000
O O3 0.430420 0.254357 0.412250
O O4 0.594198 0.319455 0.407620
O O5 0.500000 0.500000 0.837560
O O6 0.544045 0.369176 0.760542
O O7 0.647498 0.580842 0.799066
O O8 0.649287 0.328500 0.826484
O O9 0.550656 0.857137 0.750221
O O10 0.430641 0.787885 0.682930
O O11 0.565499 0.645424 0.686391
O O12 0.145880 0.661466 0.673602
O O13 0.143733 0.419575 0.714390
O O14 0.000000 0.500000 0.675303
O O15 0.281031 0.197405 0.351398
O O16 0.361172 0.436767 0.359291
O O17 0.752494 0.755736 0.755197
O O18 0.721590 0.336971 0.336933
#
# Coordination Sequence:
#
# PCOD9329541 Si02
#       8
#     8   8   8   8   8   8   8   8
#     4   8  16  31  53  77 104 130 163 209 261 310
#     4  12  21  32  43  60  95 138 168 199 243 284
#     4  11  19  30  45  59  96 136 170 196 243 292
#     4  12  21  31  43  63  93 134 174 202 243 282
#     4  10  18  31  47  73  98 130 170 209 252 296
#     4  12  21  29  46  65  96 131 174 204 239 290
#     4  10  19  29  49  71  98 133 169 207 252 299
#     4  12  21  31  45  66  99 131 174 211 240 289
#
# _framework density 16.182279000000001
#
# number of rings (size 3 to 8) (size 9 to 14) (size 15 to 20)
#    0.000    1.125    6.250    3.375    0.000    0.000 
#    0.000    0.000    0.000    0.000    0.000    1.750 
#    0.000    6.000    0.000    0.000    0.000    0.000 
#
# Total GULP energy -178158.583097 kJ/mol
# GULP energy per Si atom -5567.455722 kJ/mol
# Density = 1.614545 g / cm^3
# Si number density = 16.182279 Si / 1000 Ang^3
#
#
#
# Elastic Constant Matrix: (Units=GPa)
#
#
# Indices 1 2 3 4 5 6 
#
# 1 128.3025 29.1010 38.4839 0.0000 0.0000 0.0000
# 2 29.1010 51.9315 6.0917 0.0000 0.0000 0.0000
# 3 38.4839 6.0917 62.4331 0.0000 0.0000 0.0000
# 4 0.0000 0.0000 0.0000 9.1251 0.0000 0.0000
# 5 0.0000 0.0000 0.0000 0.0000 12.7103 0.0000
# 6 0.0000 0.0000 0.0000 0.0000 0.0000 39.6213
#
#
#
# Elastic Compliance Matrix: (Units=1/GPa)
#
#
# Indices 1 2 3 4 5 6 
#
# 1 0.010862 -0.005363 -0.006172 0.000000 0.000000 0.000000
# 2 -0.005363 0.022127 0.001147 0.000000 0.000000 0.000000
# 3 -0.006172 0.001147 0.019710 0.000000 0.000000 0.000000
# 4 0.000000 0.000000 0.000000 0.109588 0.000000 0.000000
# 5 0.000000 0.000000 0.000000 0.000000 0.078676 0.000000
# 6 0.000000 0.000000 0.000000 0.000000 0.000000 0.025239
#
#
# Mechanical properties :
#
#
# Convention : Reuss Voigt Hill
#
# Bulk Modulus (GPa) = 31.32622 43.33559 37.33090
# Shear Modulus (GPa) = 16.80009 23.55739 20.17874
#
# Velocity S-wave (km/s) = 3.22557 3.81957 3.53507
# Velocity P-wave (km/s) = 5.76826 6.80367 6.30725
#
# Compressibility (1/GPa) = 0.03192215
#
# Stress axis : x y z
#
# Youngs Moduli (GPa) = 92.06707 45.19431 50.73658
#
# Poissons Ratio (x) = 0.24236 0.31314
# Poissons Ratio (y) = 0.49372 -0.05817
# Poissons Ratio (z) = 0.56823 -0.05182
#
# Static dielectric constant tensor:
#      x y z
#    x 1.615250 0.000000 0.000000 
#    y 0.000000 1.595730 0.000000 
#    z 0.000000 0.000000 1.525420 
# 
# From -- ./inp_files/30589.got.cif
#   From: 2010.05.17/outbox.cif.g08.bks.cpg/sg23_16_cif.got.tgz:30589.got - 2010.06.04 12:02:01.
