data_PCOD9329043
_publ_section_title
;
Structure prediction by ZEFSAII (Michael W. Deem and Ramdas Pophale) SiO2 
 PCOD9329043
Probable space group: F 2 2 2
;
_chemical_formula_sum "Si O2"
_cell_formula_units_Z 64
_cell_length_a 25.163645
_cell_length_b 10.042375
_cell_length_c 12.280088
_cell_angle_alpha 90.000000
_cell_angle_beta 90.000000
_cell_angle_gamma 90.000000
_cell_volume 3103.212124
_symmetry_space_group_name_H-M "F 2 2 2"
_symmetry_group_IT_number 22
_symmetry_cell_setting 'orthorhombic'
loop_
_space_group_symop_operation_xyz
x,y,z
-x,-y,z
x,-y,-z
-x,y,-z
x,1/2+y,1/2+z
-x,1/2-y,1/2+z
x,1/2-y,1/2-z
-x,1/2+y,1/2-z
1/2+x,y,1/2+z
1/2-x,-y,1/2+z
1/2+x,-y,1/2-z
1/2-x,y,1/2-z
1/2+x,1/2+y,z
1/2-x,1/2-y,z
1/2+x,1/2-y,-z
1/2-x,1/2+y,-z
loop_
_atom_site_type_symbol
_atom_site_label
_atom_site_fract_x
_atom_site_fract_y
_atom_site_fract_z
Si Si1 0.551393 0.300817 0.067762
Si Si2 0.595290 0.976440 0.873079
Si Si3 0.000000 0.000000 0.239996
Si Si4 0.864168 0.500000 0.500000
Si Si5 0.188912 0.090111 0.774853
O O1 0.576561 0.176466 0.127475
O O2 0.530623 0.402149 0.158838
O O3 0.594729 0.375228 0.991695
O O4 0.500000 0.259867 0.000000
O O5 0.648847 0.986185 0.805376
O O6 0.546605 0.056262 0.817924
O O7 0.603030 0.000000 0.000000
O O8 0.829094 0.456767 0.395709
O O9 0.183338 0.250000 0.750000
O O10 0.250000 0.057566 0.750000
#
# Coordination Sequence:
#
# PCOD9329043 Si02
#       5
#    16  16   8   8  16
#     4  12  21  39  66  98 136 178 222 272 343 418
#     4  12  25  41  61 102 142 176 219 284 344 412
#     4  12  20  38  60  96 130 177 217 272 332 406
#     4  12  21  44  70 100 126 175 230 286 334 412
#     4  11  24  45  72  97 130 181 232 286 341 407
#
# _framework density 20.623792000000002
#
# number of rings (size 3 to 8) (size 9 to 14) (size 15 to 20)
#    0.000    0.250    7.500    2.625    1.750    0.000 
#    0.000    1.250    0.000    1.500    0.000    0.000 
#    0.000    0.000    0.000    0.000    0.000    0.000 
#
# Total GULP energy -89364.909840 kJ/mol
# GULP energy per Si atom -5585.306865 kJ/mol
# Density = 2.057685 g / cm^3
# Si number density = 20.623792 Si / 1000 Ang^3
#
#
#
# Elastic Constant Matrix: (Units=GPa)
#
#
# Indices 1 2 3 4 5 6 
#
# 1 188.0385 15.3702 81.9615 0.0000 0.0000 0.0000
# 2 15.3702 51.4407 33.3190 0.0000 0.0000 0.0000
# 3 81.9615 33.3190 163.8956 0.0000 0.0000 0.0000
# 4 0.0000 0.0000 0.0000 34.0884 0.0000 0.0000
# 5 0.0000 0.0000 0.0000 0.0000 31.7750 0.0000
# 6 0.0000 0.0000 0.0000 0.0000 0.0000 17.4297
#
#
#
# Elastic Compliance Matrix: (Units=1/GPa)
#
#
# Indices 1 2 3 4 5 6 
#
# 1 0.006802 0.000197 -0.003442 0.000000 0.000000 0.000000
# 2 0.000197 0.022394 -0.004651 0.000000 0.000000 0.000000
# 3 -0.003442 -0.004651 0.008768 0.000000 0.000000 0.000000
# 4 0.000000 0.000000 0.000000 0.029335 0.000000 0.000000
# 5 0.000000 0.000000 0.000000 0.000000 0.031471 0.000000
# 6 0.000000 0.000000 0.000000 0.000000 0.000000 0.057373
#
#
# Mechanical properties :
#
#
# Convention : Reuss Voigt Hill
#
# Bulk Modulus (GPa) = 45.10150 73.85291 59.47721
# Shear Modulus (GPa) = 27.88218 34.84022 31.36120
#
# Velocity S-wave (km/s) = 3.68087 4.11460 3.90376
# Velocity P-wave (km/s) = 6.32307 7.64595 7.01576
#
# Compressibility (1/GPa) = 0.02217221
#
# Stress axis : x y z
#
# Youngs Moduli (GPa) = 147.01354 44.65578 114.05062
#
# Poissons Ratio (x) = -0.00879 0.39252
# Poissons Ratio (y) = -0.02893 0.53043
# Poissons Ratio (z) = 0.50596 0.20769
#
# Static dielectric constant tensor:
#      x y z
#    x 1.735440 0.000000 0.000000 
#    y 0.000000 1.782370 0.000000 
#    z 0.000000 0.000000 1.784210 
# 
# From -- ./inp_files/9826.got.cif
#   From: 2010.05.17/outbox.cif.g08.bks.cpg/sg22_5_cif.got.tgz:9826.got - 2010.06.03 23:40:54.
