data_PCOD9329785
_publ_section_title
;
Structure prediction by ZEFSAII (Michael W. Deem and Ramdas Pophale) SiO2 
 PCOD9329785
Probable space group: I 2 2 2
;
_chemical_formula_sum "Si O2"
_cell_formula_units_Z 56
_cell_length_a 26.112457
_cell_length_b 21.017275
_cell_length_c 5.574055
_cell_angle_alpha 90.000000
_cell_angle_beta 90.000000
_cell_angle_gamma 90.000000
_cell_volume 3059.112117
_symmetry_space_group_name_H-M "I 2 2 2"
_symmetry_group_IT_number 23
_symmetry_cell_setting 'orthorhombic'
loop_
_space_group_symop_operation_xyz
x,y,z
-x,-y,z
x,-y,-z
-x,y,-z
1/2+x,1/2+y,1/2+z
1/2-x,1/2-y,1/2+z
1/2+x,1/2-y,1/2-z
1/2-x,1/2+y,1/2-z
loop_
_atom_site_type_symbol
_atom_site_label
_atom_site_fract_x
_atom_site_fract_y
_atom_site_fract_z
Si Si1 0.198686 0.196084 0.250000
Si Si2 0.752987 0.835196 0.750000
Si Si3 0.080399 0.516275 0.250000
Si Si4 0.195135 0.466725 0.250000
Si Si5 0.884384 0.284958 0.750000
Si Si6 0.601151 0.165401 0.750000
Si Si7 0.499446 0.253247 0.750000
O O1 0.215404 0.163622 0.499247
O O2 0.224732 0.266676 0.250000
O O3 0.138786 0.214272 0.250000
O O4 0.215404 0.163622 0.000753
O O5 0.715227 0.895177 0.750000
O O6 0.054454 0.500000 0.500000
O O7 0.133309 0.475084 0.250000
O O8 0.092363 0.590734 0.250000
O O9 0.054454 0.500000 0.000000
O O10 0.212070 0.500000 0.500000
O O11 0.212070 0.500000 0.000000
O O12 0.869990 0.315924 0.494896
O O13 0.946126 0.285087 0.750000
O O14 0.869990 0.315924 0.005104
O O15 0.547712 0.205013 0.750000
O O16 0.500000 0.290089 0.500000
O O17 0.500000 0.290089 0.000000
#
# Coordination Sequence:
#
# PCOD9329785 Si02
#       7
#     8   8   8   8   8   8   8
#     4  10  21  33  52  71  93 132 153 217 265 297
#     4  10  21  36  46  72 102 116 168 214 261 302
#     4  10  21  32  45  72  87 126 169 208 256 281
#     4  10  21  33  51  70  94 132 168 209 258 294
#     4  10  19  31  53  71  90 129 166 194 264 304
#     4  10  19  31  51  71  99 119 166 213 239 301
#     4   8  16  30  46  69  92 122 156 197 245 295
#
# _framework density 18.305965
#
# number of rings (size 3 to 8) (size 9 to 14) (size 15 to 20)
#    0.000    2.286    0.000    2.571    8.000    0.000 
#    0.000    0.000    0.000   23.143    0.000    0.000 
#    0.000    0.000    0.000    0.000    0.000  450.000 
#
# Total GULP energy -155976.139416 kJ/mol
# GULP energy per Si atom -5570.576408 kJ/mol
# Density = 1.826430 g / cm^3
# Si number density = 18.305965 Si / 1000 Ang^3
#
#
#
# Elastic Constant Matrix: (Units=GPa)
#
#
# Indices 1 2 3 4 5 6 
#
# 1 54.2289 37.8284 41.6514 0.0000 0.0000 0.0000
# 2 37.8284 49.9439 34.9317 0.0000 0.0000 0.0000
# 3 41.6514 34.9317 233.9248 0.0000 0.0000 0.0000
# 4 0.0000 0.0000 0.0000 28.9955 0.0000 0.0000
# 5 0.0000 0.0000 0.0000 0.0000-2943.6554 0.0000
# 6 0.0000 0.0000 0.0000 0.0000 0.0000-1295.8398
#
#
#
# Elastic Compliance Matrix: (Units=1/GPa)
#
#
# Indices 1 2 3 4 5 6 
#
# 1 0.040858 -0.028874 -0.002963 0.000000 0.000000 0.000000
# 2 -0.028874 0.042763 -0.001245 0.000000 0.000000 0.000000
# 3 -0.002963 -0.001245 0.004988 0.000000 0.000000 0.000000
# 4 0.000000 0.000000 0.000000 0.034488 0.000000 0.000000
# 5 0.000000 0.000000 0.000000 0.000000 -0.000340 0.000000
# 6 0.000000 0.000000 0.000000 0.000000 0.000000 -0.000772
#
#
# Mechanical properties :
#
#
# Convention : Reuss Voigt Hill
#
# Bulk Modulus (GPa) = 44.55262 62.99117 53.77189
# Shear Modulus (GPa) = 25.55838 -827.18756 -400.81459
#
# Velocity S-wave (km/s) = 3.74060 -21.28024 -14.81311
# Velocity P-wave (km/s) = 6.56100 23.86029 16.22139
#
# Compressibility (1/GPa) = 0.02244537
#
# Stress axis : x y z
#
# Youngs Moduli (GPa) = 24.47512 23.38495 200.46744
#
# Poissons Ratio (x) = 0.67521 0.59403
# Poissons Ratio (y) = 0.70669 0.24949
# Poissons Ratio (z) = 0.07253 0.02910
#
# Static dielectric constant tensor:
#      x y z
#    x 1.683370 0.000000 0.000000 
#    y 0.000000 1.572800 0.000000 
#    z 0.000000 0.000000 1.759040 
# 
# From -- ./inp_files/2739.got.cif
#   From: 2010.05.17/outbox.cif.g08.bks.cpg/sg23_2_cif.got.tgz:2739.got - 2010.06.04 12:02:01.
