data_PCOD9329963
_publ_section_title
;
Structure prediction by ZEFSAII (Michael W. Deem and Ramdas Pophale) SiO2 
 PCOD9329963
Probable space group: I 2 2 2
;
_chemical_formula_sum "Si O2"
_cell_formula_units_Z 48
_cell_length_a 24.611911
_cell_length_b 12.535568
_cell_length_c 7.654193
_cell_angle_alpha 90.000000
_cell_angle_beta 90.000000
_cell_angle_gamma 90.000000
_cell_volume 2361.504415
_symmetry_space_group_name_H-M "I 2 2 2"
_symmetry_group_IT_number 23
_symmetry_cell_setting 'orthorhombic'
loop_
_space_group_symop_operation_xyz
x,y,z
-x,-y,z
x,-y,-z
-x,y,-z
1/2+x,1/2+y,1/2+z
1/2-x,1/2-y,1/2+z
1/2+x,1/2-y,1/2-z
1/2-x,1/2+y,1/2-z
loop_
_atom_site_type_symbol
_atom_site_label
_atom_site_fract_x
_atom_site_fract_y
_atom_site_fract_z
Si Si1 0.671791 0.284487 0.580825
Si Si2 0.637150 0.616613 0.066775
Si Si3 0.936343 0.680074 0.528914
Si Si4 0.838306 0.568006 0.337498
Si Si5 0.718425 0.290140 0.214268
Si Si6 0.397460 0.911985 0.610478
O O1 0.651538 0.367895 0.727654
O O2 0.698326 0.329737 0.403729
O O3 0.717666 0.215300 0.681970
O O4 0.625414 0.197758 0.528578
O O5 0.589803 0.702296 0.031226
O O6 0.621848 0.500000 0.000000
O O7 0.688181 0.651416 0.945084
O O8 0.897273 0.614709 0.397118
O O9 0.927259 0.627465 0.717206
O O10 0.000000 0.680150 0.500000
O O11 0.816699 0.500000 0.500000
O O12 0.800395 0.666600 0.294610
O O13 0.848697 0.487174 0.181654
O O14 0.429830 0.000000 0.500000
#
# Coordination Sequence:
#
# PCOD9329963 Si02
#       6
#     8   8   8   8   8   8
#     4  11  22  36  58  86 123 164 199 247 293 350
#     4  10  23  41  59  86 117 161 207 248 300 355
#     4   9  20  39  62  85 114 146 194 253 304 360
#     4   9  19  34  55  81 119 150 187 238 299 357
#     4  11  21  37  56  84 124 156 203 247 288 346
#     4  10  19  35  58  85 117 154 186 237 306 368
#
# _framework density 20.326025999999999
#
# number of rings (size 3 to 8) (size 9 to 14) (size 15 to 20)
#    0.000    2.000    3.333    1.000    0.000    6.000 
#    0.000    1.667    0.000    0.000    0.000    4.667 
#    0.000    0.000    0.000    0.000    0.000    0.000 
#
# Total GULP energy -133892.603277 kJ/mol
# GULP energy per Si atom -5578.858470 kJ/mol
# Density = 2.027976 g / cm^3
# Si number density = 20.326026 Si / 1000 Ang^3
#
#
#
# Elastic Constant Matrix: (Units=GPa)
#
#
# Indices 1 2 3 4 5 6 
#
# 1 70.3980 21.3286 5.2974 0.0000 0.0000 0.0000
# 2 21.3286 114.7542 28.0261 0.0000 0.0000 0.0000
# 3 5.2974 28.0261 101.9617 0.0000 0.0000 0.0000
# 4 0.0000 0.0000 0.0000 28.0653 0.0000 0.0000
# 5 0.0000 0.0000 0.0000 0.0000 9.2646 0.0000
# 6 0.0000 0.0000 0.0000 0.0000 0.0000 1.5594
#
#
#
# Elastic Compliance Matrix: (Units=1/GPa)
#
#
# Indices 1 2 3 4 5 6 
#
# 1 0.015053 -0.002794 -0.000014 0.000000 0.000000 0.000000
# 2 -0.002794 0.009860 -0.002565 0.000000 0.000000 0.000000
# 3 -0.000014 -0.002565 0.010513 0.000000 0.000000 0.000000
# 4 0.000000 0.000000 0.000000 0.035631 0.000000 0.000000
# 5 0.000000 0.000000 0.000000 0.000000 0.107938 0.000000
# 6 0.000000 0.000000 0.000000 0.000000 0.000000 0.641291
#
#
# Mechanical properties :
#
#
# Convention : Reuss Voigt Hill
#
# Bulk Modulus (GPa) = 40.51967 44.04646 42.28307
# Shear Modulus (GPa) = 5.95763 23.27529 14.61646
#
# Velocity S-wave (km/s) = 1.71388 3.38760 2.68451
# Velocity P-wave (km/s) = 4.88822 6.08425 5.51873
#
# Compressibility (1/GPa) = 0.02467937
#
# Stress axis : x y z
#
# Youngs Moduli (GPa) = 66.43373 101.41887 95.11678
#
# Poissons Ratio (x) = 0.28340 0.00133
# Poissons Ratio (y) = 0.18564 0.24398
# Poissons Ratio (z) = 0.00093 0.26015
#
# Static dielectric constant tensor:
#      x y z
#    x 1.700450 0.000000 0.000000 
#    y 0.000000 1.738660 0.000000 
#    z 0.000000 0.000000 1.833730 
# 
# From -- ./inp_files/8697.got.cif
#   From: 2010.05.17/outbox.cif.g08.bks.cpg/sg23_5_cif.got.tgz:8697.got - 2010.06.04 12:02:01.
