data_PCOD9329259
_publ_section_title
;
Structure prediction by ZEFSAII (Michael W. Deem and Ramdas Pophale) SiO2 
 PCOD9329259
Probable space group: F 2 2 2
;
_chemical_formula_sum "Si O2"
_cell_formula_units_Z 48
_cell_length_a 4.765115
_cell_length_b 27.032094
_cell_length_c 15.774073
_cell_angle_alpha 90.000000
_cell_angle_beta 90.000000
_cell_angle_gamma 90.000000
_cell_volume 2031.874695
_symmetry_space_group_name_H-M "F 2 2 2"
_symmetry_group_IT_number 22
_symmetry_cell_setting 'orthorhombic'
loop_
_space_group_symop_operation_xyz
x,y,z
-x,-y,z
x,-y,-z
-x,y,-z
x,1/2+y,1/2+z
-x,1/2-y,1/2+z
x,1/2-y,1/2-z
-x,1/2+y,1/2-z
1/2+x,y,1/2+z
1/2-x,-y,1/2+z
1/2+x,-y,1/2-z
1/2-x,y,1/2-z
1/2+x,1/2+y,z
1/2-x,1/2-y,z
1/2+x,1/2-y,-z
1/2-x,1/2+y,-z
loop_
_atom_site_type_symbol
_atom_site_label
_atom_site_fract_x
_atom_site_fract_y
_atom_site_fract_z
Si Si1 0.537074 0.899422 0.399150
Si Si2 0.250000 0.750000 0.056267
Si Si3 0.500000 0.000000 0.311918
Si Si4 0.559713 0.158746 0.166969
O O1 0.500000 0.894131 0.500000
O O2 0.607166 0.954513 0.368895
O O3 0.225263 0.888028 0.368380
O O4 0.740183 0.860202 0.348966
O O5 0.395502 0.792805 0.110144
O O6 0.500000 0.727577 0.000000
O O7 0.750000 0.016525 0.250000
O O8 0.750000 0.170748 0.250000
#
# Coordination Sequence:
#
# PCOD9329259 Si02
#       4
#    16   8   8  16
#     4  12  25  44  69 100 137 182 234 293 357 429
#     4  12  25  44  69 100 138 184 236 296 361 432
#     4  12  25  44  69 100 138 184 236 296 361 432
#     4  12  25  44  69 100 137 182 234 293 357 429
#
# _framework density 23.623504000000001
#
# number of rings (size 3 to 8) (size 9 to 14) (size 15 to 20)
#    0.000    0.000    0.000   13.000    0.000    0.000 
#    0.000   10.000    0.000    0.000    0.000    0.000 
#    0.000    0.000    0.000    0.000    0.000    0.000 
#
# Total GULP energy -66951.829501 kJ/mol
# GULP energy per Si atom -5579.319125 kJ/mol
# Density = 2.356974 g / cm^3
# Si number density = 23.623504 Si / 1000 Ang^3
#
#
#
# Elastic Constant Matrix: (Units=GPa)
#
#
# Indices 1 2 3 4 5 6 
#
# 1 134.9316 13.0760 32.8447 0.0000 0.0000 0.0000
# 2 13.0760 133.3779 27.6243 0.0000 0.0000 0.0000
# 3 32.8447 27.6243 115.5190 0.0000 0.0000 0.0000
# 4 0.0000 0.0000 0.0000 34.0673 0.0000 0.0000
# 5 0.0000 0.0000 0.0000 0.0000 25.1320 0.0000
# 6 0.0000 0.0000 0.0000 0.0000 0.0000 44.2996
#
#
#
# Elastic Compliance Matrix: (Units=1/GPa)
#
#
# Indices 1 2 3 4 5 6 
#
# 1 0.007976 -0.000329 -0.002189 0.000000 0.000000 0.000000
# 2 -0.000329 0.007902 -0.001796 0.000000 0.000000 0.000000
# 3 -0.002189 -0.001796 0.009709 0.000000 0.000000 0.000000
# 4 0.000000 0.000000 0.000000 0.029354 0.000000 0.000000
# 5 0.000000 0.000000 0.000000 0.000000 0.039790 0.000000
# 6 0.000000 0.000000 0.000000 0.000000 0.000000 0.022574
#
#
# Mechanical properties :
#
#
# Convention : Reuss Voigt Hill
#
# Bulk Modulus (GPa) = 58.96767 58.99094 58.97930
# Shear Modulus (GPa) = 37.99860 41.38535 39.69198
#
# Velocity S-wave (km/s) = 4.01497 4.19008 4.10346
# Velocity P-wave (km/s) = 6.81975 6.95949 6.88997
#
# Compressibility (1/GPa) = 0.01695845
#
# Stress axis : x y z
#
# Youngs Moduli (GPa) = 125.37795 126.55500 103.00219
#
# Poissons Ratio (x) = 0.04158 0.22549
# Poissons Ratio (y) = 0.04119 0.18501
# Poissons Ratio (z) = 0.27447 0.22731
#
# Static dielectric constant tensor:
#      x y z
#    x 1.836820 0.000000 0.000000 
#    y 0.000000 1.819170 0.000000 
#    z 0.000000 0.000000 2.004120 
# 
# From -- ./inp_files/25961.got.cif
#   From: 2010.05.17/outbox.cif.g08.bks.cpg/sg22_13_cif.got.tgz:25961.got - 2010.06.03 23:40:54.
