data_PCOD9329866
_publ_section_title
;
Structure prediction by ZEFSAII (Michael W. Deem and Ramdas Pophale) SiO2 
 PCOD9329866
Probable space group: I 2 2 2
;
_chemical_formula_sum "Si O2"
_cell_formula_units_Z 56
_cell_length_a 17.389722
_cell_length_b 16.044810
_cell_length_c 11.395360
_cell_angle_alpha 90.000000
_cell_angle_beta 90.000000
_cell_angle_gamma 90.000000
_cell_volume 3179.473925
_symmetry_space_group_name_H-M "I 2 2 2"
_symmetry_group_IT_number 23
_symmetry_cell_setting 'orthorhombic'
loop_
_space_group_symop_operation_xyz
x,y,z
-x,-y,z
x,-y,-z
-x,y,-z
1/2+x,1/2+y,1/2+z
1/2-x,1/2-y,1/2+z
1/2+x,1/2-y,1/2-z
1/2-x,1/2+y,1/2-z
loop_
_atom_site_type_symbol
_atom_site_label
_atom_site_fract_x
_atom_site_fract_y
_atom_site_fract_z
Si Si1 0.821631 0.711594 0.879870
Si Si2 0.912678 0.410354 0.957848
Si Si3 0.684899 0.099476 0.243962
Si Si4 0.663899 0.694760 0.164073
Si Si5 0.270562 0.424757 0.743541
Si Si6 0.090381 0.984416 0.362066
Si Si7 0.718678 0.836347 0.004400
O O1 0.866159 0.745823 0.767428
O O2 0.755327 0.650596 0.828699
O O3 0.869614 0.659186 0.969652
O O4 0.791196 0.792813 0.944433
O O5 0.892112 0.396716 0.821657
O O6 0.881524 0.500000 0.000000
O O7 0.000000 0.408115 0.000000
O O8 0.749577 0.162251 0.299898
O O9 0.718731 0.006944 0.260410
O O10 0.677789 0.118012 0.105146
O O11 0.613948 0.611974 0.155166
O O12 0.671255 0.757250 0.054761
O O13 0.355417 0.457223 0.780083
O O14 0.249893 0.392100 0.612289
O O15 0.107217 0.000000 0.500000
O O16 0.000000 0.000000 0.341257
#
# Coordination Sequence:
#
# PCOD9329866 Si02
#       7
#     8   8   8   8   8   8   8
#     4  10  19  35  54  84 114 145 190 247 291 335
#     4  11  22  37  56  83 112 148 190 234 291 356
#     4  10  19  34  59  83 113 151 192 236 290 344
#     4   9  19  34  56  82 116 144 191 247 277 341
#     4  10  20  34  60  82 114 153 196 251 288 344
#     4  10  21  37  56  84 118 162 201 238 293 359
#     4  10  19  33  57  91 113 141 199 243 294 338
#
# _framework density 17.612976
#
# number of rings (size 3 to 8) (size 9 to 14) (size 15 to 20)
#    0.000    2.000    2.857    1.286    2.000    0.000 
#    2.571    1.429    0.000   10.286    0.000    0.000 
#    0.000    0.000    0.000    0.000    0.000    0.000 
#
# Total GULP energy -155886.113533 kJ/mol
# GULP energy per Si atom -5567.361198 kJ/mol
# Density = 1.757289 g / cm^3
# Si number density = 17.612976 Si / 1000 Ang^3
#
#
#
# Elastic Constant Matrix: (Units=GPa)
#
#
# Indices 1 2 3 4 5 6 
#
# 1 67.8689 30.9888 52.9043 0.0000 0.0000 0.0000
# 2 30.9888 70.9102 35.3372 0.0000 0.0000 0.0000
# 3 52.9043 35.3372 119.9708 0.0000 0.0000 0.0000
# 4 0.0000 0.0000 0.0000 38.6018 0.0000 0.0000
# 5 0.0000 0.0000 0.0000 0.0000 19.1974 0.0000
# 6 0.0000 0.0000 0.0000 0.0000 0.0000 -5.6851
#
#
#
# Elastic Compliance Matrix: (Units=1/GPa)
#
#
# Indices 1 2 3 4 5 6 
#
# 1 0.024621 -0.006269 -0.009010 0.000000 0.000000 0.000000
# 2 -0.006269 0.018125 -0.002574 0.000000 0.000000 0.000000
# 3 -0.009010 -0.002574 0.013067 0.000000 0.000000 0.000000
# 4 0.000000 0.000000 0.000000 0.025906 0.000000 0.000000
# 5 0.000000 0.000000 0.000000 0.000000 0.052090 0.000000
# 6 0.000000 0.000000 0.000000 0.000000 0.000000 -0.175899
#
#
# Mechanical properties :
#
#
# Convention : Reuss Voigt Hill
#
# Bulk Modulus (GPa) = 49.73948 55.24561 52.49255
# Shear Modulus (GPa) = 15684.78312 19.72414 7852.25363
#
# Velocity S-wave (km/s) = 94.46997 3.35007 66.84235
# Velocity P-wave (km/s) = 109.21417 6.81164 77.37614
#
# Compressibility (1/GPa) = 0.02010475
#
# Stress axis : x y z
#
# Youngs Moduli (GPa) = 40.61643 55.17284 76.52906
#
# Poissons Ratio (x) = 0.34590 0.68956
# Poissons Ratio (y) = 0.25464 0.19699
# Poissons Ratio (z) = 0.36597 0.14202
#
# Static dielectric constant tensor:
#      x y z
#    x 1.607680 0.000000 0.000000 
#    y 0.000000 1.611630 0.000000 
#    z 0.000000 0.000000 1.740140 
# 
# From -- ./inp_files/16801.got.cif
#   From: 2010.05.17/outbox.cif.g08.bks.cpg/sg23_9_cif.got.tgz:16801.got - 2010.06.04 12:02:01.
