data_PCOD9329061
_publ_section_title
;
Structure prediction by ZEFSAII (Michael W. Deem and Ramdas Pophale) SiO2 
 PCOD9329061
Probable space group: F 2 2 2
;
_chemical_formula_sum "Si O2"
_cell_formula_units_Z 56
_cell_length_a 7.384444
_cell_length_b 23.444352
_cell_length_c 12.683121
_cell_angle_alpha 90.000000
_cell_angle_beta 90.000000
_cell_angle_gamma 90.000000
_cell_volume 2195.746355
_symmetry_space_group_name_H-M "F 2 2 2"
_symmetry_group_IT_number 22
_symmetry_cell_setting 'orthorhombic'
loop_
_space_group_symop_operation_xyz
x,y,z
-x,-y,z
x,-y,-z
-x,y,-z
x,1/2+y,1/2+z
-x,1/2-y,1/2+z
x,1/2-y,1/2-z
-x,1/2+y,1/2-z
1/2+x,y,1/2+z
1/2-x,-y,1/2+z
1/2+x,-y,1/2-z
1/2-x,y,1/2-z
1/2+x,1/2+y,z
1/2-x,1/2-y,z
1/2+x,1/2-y,-z
1/2-x,1/2+y,-z
loop_
_atom_site_type_symbol
_atom_site_label
_atom_site_fract_x
_atom_site_fract_y
_atom_site_fract_z
Si Si1 0.500000 0.604076 0.500000
Si Si2 0.502867 0.250000 0.750000
Si Si3 0.536458 0.935622 0.233130
Si Si4 0.750000 0.347012 0.250000
Si Si5 0.681353 0.309306 0.947139
O O1 0.522780 0.569488 0.609250
O O2 0.667271 0.644184 0.466730
O O3 0.380544 0.299594 0.694598
O O4 0.615269 0.287217 0.832826
O O5 0.750000 0.922576 0.250000
O O6 0.401871 0.891287 0.291033
O O7 0.500000 0.000000 0.269107
O O8 0.750000 0.250000 0.996181
O O9 0.500000 0.330009 0.000000
#
# Coordination Sequence:
#
# PCOD9329061 Si02
#       5
#     8   8  16   8  16
#     4  12  27  48  78 114 162 216 285 342 418 508
#     4  11  25  44  79 111 166 221 269 342 429 505
#     4  12  26  51  80 114 163 220 289 355 423 501
#     4  11  24  46  76 116 156 215 270 338 416 499
#     4  12  25  45  67 111 159 210 271 332 411 511
#
# _framework density 25.503858000000001
#
# number of rings (size 3 to 8) (size 9 to 14) (size 15 to 20)
#    0.000    0.286    2.857    6.000    4.000    0.000 
#    0.000    3.571    0.000    0.000    0.000    0.000 
#    0.000    0.000    0.000    0.000    0.000    0.000 
#
# Total GULP energy -78134.679794 kJ/mol
# GULP energy per Si atom -5581.048557 kJ/mol
# Density = 2.544581 g / cm^3
# Si number density = 25.503858 Si / 1000 Ang^3
#
#
#
# Elastic Constant Matrix: (Units=GPa)
#
#
# Indices 1 2 3 4 5 6 
#
# 1 214.5090 76.5231 43.1824 0.0000 0.0000 0.0000
# 2 76.5231 180.6890 18.7592 0.0000 0.0000 0.0000
# 3 43.1824 18.7592 146.0277 0.0000 0.0000 0.0000
# 4 0.0000 0.0000 0.0000 36.7759 0.0000 0.0000
# 5 0.0000 0.0000 0.0000 0.0000 28.1564 0.0000
# 6 0.0000 0.0000 0.0000 0.0000 0.0000 -9.9032
#
#
#
# Elastic Compliance Matrix: (Units=1/GPa)
#
#
# Indices 1 2 3 4 5 6 
#
# 1 0.005764 -0.002295 -0.001410 0.000000 0.000000 0.000000
# 2 -0.002295 0.006523 -0.000159 0.000000 0.000000 0.000000
# 3 -0.001410 -0.000159 0.007285 0.000000 0.000000 0.000000
# 4 0.000000 0.000000 0.000000 0.027192 0.000000 0.000000
# 5 0.000000 0.000000 0.000000 0.000000 0.035516 0.000000
# 6 0.000000 0.000000 0.000000 0.000000 0.000000 -0.100977
#
#
# Mechanical properties :
#
#
# Convention : Reuss Voigt Hill
#
# Bulk Modulus (GPa) = 84.42694 90.90610 87.66652
# Shear Modulus (GPa) = -712.10946 37.85656 -337.12645
#
# Velocity S-wave (km/s) = -16.72790 3.85690 -11.50971
# Velocity P-wave (km/s) = 18.43695 7.45357 11.92404
#
# Compressibility (1/GPa) = 0.01184456
#
# Stress axis : x y z
#
# Youngs Moduli (GPa) = 173.48285 153.30851 137.26142
#
# Poissons Ratio (x) = 0.35182 0.19351
# Poissons Ratio (y) = 0.39812 0.02187
# Poissons Ratio (z) = 0.24457 0.02443
#
# Static dielectric constant tensor:
#      x y z
#    x 2.102450 0.000000 0.000000 
#    y 0.000000 1.966700 0.000000 
#    z 0.000000 0.000000 2.336110 
# 
# From -- ./inp_files/26697.got.cif
#   From: 2010.05.17/outbox.cif.g08.bks.cpg/sg22_14_cif.got.tgz:26697.got - 2010.06.03 23:40:54.
