data_PCOD9329452
_publ_section_title
;
Structure prediction by ZEFSAII (Michael W. Deem and Ramdas Pophale) SiO2 
 PCOD9329452
Probable space group: I 2 2 2
;
_chemical_formula_sum "Si O2"
_cell_formula_units_Z 58
_cell_length_a 8.282899
_cell_length_b 27.012585
_cell_length_c 12.123509
_cell_angle_alpha 90.000000
_cell_angle_beta 90.000000
_cell_angle_gamma 90.000000
_cell_volume 2712.544373
_symmetry_space_group_name_H-M "I 2 2 2"
_symmetry_group_IT_number 23
_symmetry_cell_setting 'orthorhombic'
loop_
_space_group_symop_operation_xyz
x,y,z
-x,-y,z
x,-y,-z
-x,y,-z
1/2+x,1/2+y,1/2+z
1/2-x,1/2-y,1/2+z
1/2+x,1/2-y,1/2-z
1/2-x,1/2+y,1/2-z
loop_
_atom_site_type_symbol
_atom_site_label
_atom_site_fract_x
_atom_site_fract_y
_atom_site_fract_z
Si Si1 0.500000 0.500000 0.000000
Si Si2 0.669031 0.971832 0.228084
Si Si3 0.308915 0.188885 0.521702
Si Si4 0.210569 0.349983 0.261785
Si Si5 0.865651 0.053148 0.327257
Si Si6 0.181267 0.582496 0.039091
Si Si7 0.103301 0.622073 0.389486
Si Si8 0.693183 0.701533 0.487744
O O1 0.525974 0.541740 0.898978
O O2 0.659370 0.944692 0.345885
O O3 0.696762 0.927923 0.141734
O O4 0.500000 0.000000 0.205880
O O5 0.807165 0.013031 0.239173
O O6 0.500000 0.192420 0.500000
O O7 0.291016 0.182714 0.652673
O O8 0.243259 0.138244 0.464579
O O9 0.241423 0.242204 0.487836
O O10 0.329399 0.395059 0.229002
O O11 0.268091 0.322488 0.370246
O O12 0.028941 0.368164 0.292982
O O13 0.751413 0.049825 0.437293
O O14 0.000000 0.592415 0.000000
O O15 0.218652 0.668171 0.418798
O O16 0.000000 0.613146 0.500000
O O17 0.500000 0.700863 0.500000
#
# Coordination Sequence:
#
# PCOD9329452 Si02
#       8
#     2   8   8   8   8   8   8   8
#     4  12  24  36  54  84 138 164 192 242 316 412
#     4  12  19  32  60  91 113 154 204 259 319 355
#     4   9  19  35  63  92 121 159 207 262 327 378
#     4  10  21  41  64  87 124 161 213 272 311 370
#     4  11  22  35  54  85 124 162 194 249 320 381
#     4  10  17  31  57  88 116 145 204 261 308 371
#     4  10  22  39  61  91 121 158 221 272 305 367
#     4  10  23  42  61  88 128 169 208 265 329 392
#
# _framework density 21.382138000000001
#
# number of rings (size 3 to 8) (size 9 to 14) (size 15 to 20)
#    0.000    1.655    4.138    1.655    0.000    4.690 
#    0.000    0.000   21.241    0.828    0.000    0.000 
#    0.000    0.000    0.000    0.000    0.000    0.000 
#
# Total GULP energy -161454.584390 kJ/mol
# GULP energy per Si atom -5567.399462 kJ/mol
# Density = 2.133347 g / cm^3
# Si number density = 21.382138 Si / 1000 Ang^3
#
#
#
# Elastic Constant Matrix: (Units=GPa)
#
#
# Indices 1 2 3 4 5 6 
#
# 1 29.6248 6.8573 -4.7917 0.0000 0.0000 0.0000
# 2 6.8573 142.3656 39.2152 0.0000 0.0000 0.0000
# 3 -4.7917 39.2152 45.8630 0.0002 0.0000 -0.0001
# 4 0.0000 0.0000 0.0002 7.7393 0.0000 0.0000
# 5 0.0000 0.0000 0.0000 0.0000 85.9381 0.0000
# 6 0.0000 0.0000 -0.0001 0.0000 0.0000 29.9301
#
#
#
# Elastic Compliance Matrix: (Units=1/GPa)
#
#
# Indices 1 2 3 4 5 6 
#
# 1 0.035687 -0.003592 0.006800 0.000000 0.000000 0.000000
# 2 -0.003592 0.009550 -0.008541 0.000000 0.000000 0.000000
# 3 0.006800 -0.008541 0.029817 -0.000001 0.000000 0.000000
# 4 0.000000 0.000000 -0.000001 0.129211 0.000000 0.000000
# 5 0.000000 0.000000 0.000000 0.000000 0.011636 0.000000
# 6 0.000000 0.000000 0.000000 0.000000 0.000000 0.033411
#
#
# Mechanical properties :
#
#
# Convention : Reuss Voigt Hill
#
# Bulk Modulus (GPa) = 15.53089 33.37946 24.45517
# Shear Modulus (GPa) = 17.76569 36.49300 27.12935
#
# Velocity S-wave (km/s) = 2.88560 4.13571 3.56587
# Velocity P-wave (km/s) = 4.28737 6.20083 5.33066
#
# Compressibility (1/GPa) = 0.06438783
#
# Stress axis : x y z
#
# Youngs Moduli (GPa) = 28.02160 104.71431 33.53755
#
# Poissons Ratio (x) = 0.37613 -0.22805
# Poissons Ratio (y) = 0.10065 0.28644
# Poissons Ratio (z) = -0.19054 0.89435
#
# Static dielectric constant tensor:
#      x y z
#    x 1.883990 0.000000 0.000000 
#    y 0.000000 1.812380 0.000000 
#    z 0.000000 0.000000 1.720680 
# 
# From -- ./inp_files/14966.got.cif
#   From: 2010.05.17/outbox.cif.g08.bks.cpg/sg23_8_cif.got.tgz:14966.got - 2010.06.04 12:02:01.
