data_PCOD9329922
_publ_section_title
;
Structure prediction by ZEFSAII (Michael W. Deem and Ramdas Pophale) SiO2 
 PCOD9329922
Probable space group: I 2 2 2
;
_chemical_formula_sum "Si O2"
_cell_formula_units_Z 64
_cell_length_a 14.163448
_cell_length_b 22.497330
_cell_length_c 9.055853
_cell_angle_alpha 90.000000
_cell_angle_beta 90.000000
_cell_angle_gamma 90.000000
_cell_volume 2885.554859
_symmetry_space_group_name_H-M "I 2 2 2"
_symmetry_group_IT_number 23
_symmetry_cell_setting 'orthorhombic'
loop_
_space_group_symop_operation_xyz
x,y,z
-x,-y,z
x,-y,-z
-x,y,-z
1/2+x,1/2+y,1/2+z
1/2-x,1/2-y,1/2+z
1/2+x,1/2-y,1/2-z
1/2-x,1/2+y,1/2-z
loop_
_atom_site_type_symbol
_atom_site_label
_atom_site_fract_x
_atom_site_fract_y
_atom_site_fract_z
Si Si1 0.936844 0.211993 0.246381
Si Si2 0.907004 0.529660 0.657867
Si Si3 0.894434 0.896960 0.540349
Si Si4 0.768283 0.468859 0.852626
Si Si5 0.840186 0.191386 0.707529
Si Si6 0.282998 0.729175 0.494960
Si Si7 0.567614 0.843892 0.261503
Si Si8 0.136147 0.651516 0.910367
O O1 0.901526 0.159058 0.349114
O O2 0.917513 0.278692 0.305900
O O3 0.050716 0.203866 0.243253
O O4 0.874396 0.212266 0.096303
O O5 0.906224 0.500000 0.500000
O O6 0.807612 0.511281 0.728218
O O7 0.921192 0.599947 0.657453
O O8 0.000000 0.500000 0.737629
O O9 0.839086 0.950771 0.616743
O O10 0.844845 0.867844 0.395559
O O11 0.000000 0.914551 0.500000
O O12 0.815090 0.404449 0.837692
O O13 0.805408 0.500000 0.000000
O O14 0.797589 0.244969 0.604519
O O15 0.778990 0.182853 0.858249
O O16 0.307991 0.787751 0.400042
O O17 0.463320 0.841620 0.331554
O O18 0.626743 0.855723 0.411936
#
# Coordination Sequence:
#
# PCOD9329922 Si02
#       8
#     8   8   8   8   8   8   8   8
#     4  10  22  41  64  94 132 173 219 277 343 401
#     4  11  24  41  60  98 140 171 218 275 341 414
#     4  10  24  45  65  97 132 168 233 292 342 400
#     4  12  23  42  70  90 125 179 232 280 330 391
#     4  11  21  38  59  91 134 173 218 268 326 411
#     4  11  21  36  62  95 133 177 217 264 333 408
#     4  10  19  37  63  91 130 174 216 264 319 407
#     4  10  19  34  63  93 121 169 225 255 313 398
#
# _framework density 22.179442999999999
#
# number of rings (size 3 to 8) (size 9 to 14) (size 15 to 20)
#    0.000    1.375    5.000    1.125    0.000    0.500 
#    9.000    3.750    0.000    0.000    0.000    0.875 
#    0.000    0.000    0.000    0.000    0.000    0.000 
#
# Total GULP energy -178562.673078 kJ/mol
# GULP energy per Si atom -5580.083534 kJ/mol
# Density = 2.212896 g / cm^3
# Si number density = 22.179443 Si / 1000 Ang^3
#
#
#
# Elastic Constant Matrix: (Units=GPa)
#
#
# Indices 1 2 3 4 5 6 
#
# 1 116.1142 1.3722 26.0315 0.0000 0.0000 0.0000
# 2 1.3722 74.1548 13.4240 0.0000 0.0000 0.0000
# 3 26.0315 13.4240 90.5831 0.0001 0.0000 0.0002
# 4 0.0000 0.0000 0.0001 22.6530 0.0000 0.0000
# 5 0.0000 0.0000 0.0000 0.0000 13.4158 0.0001
# 6 0.0000 0.0000 0.0002 0.0000 0.0001 44.6257
#
#
#
# Elastic Compliance Matrix: (Units=1/GPa)
#
#
# Indices 1 2 3 4 5 6 
#
# 1 0.009213 0.000317 -0.002694 0.000000 0.000000 0.000000
# 2 0.000317 0.013868 -0.002146 0.000000 0.000000 0.000000
# 3 -0.002694 -0.002146 0.012132 0.000000 0.000000 0.000000
# 4 0.000000 0.000000 0.000000 0.044144 0.000000 0.000000
# 5 0.000000 0.000000 0.000000 0.000000 0.074539 0.000000
# 6 0.000000 0.000000 0.000000 0.000000 0.000000 0.022409
#
#
# Mechanical properties :
#
#
# Convention : Reuss Voigt Hill
#
# Bulk Modulus (GPa) = 38.21837 40.27860 39.24848
# Shear Modulus (GPa) = 25.76346 32.14052 28.95199
#
# Velocity S-wave (km/s) = 3.41191 3.81085 3.61689
# Velocity P-wave (km/s) = 5.72629 6.12888 5.93100
#
# Compressibility (1/GPa) = 0.02616543
#
# Stress axis : x y z
#
# Youngs Moduli (GPa) = 108.54772 72.10851 82.42656
#
# Poissons Ratio (x) = -0.02288 0.22210
# Poissons Ratio (y) = -0.03444 0.17692
# Poissons Ratio (z) = 0.29248 0.15477
#
# Static dielectric constant tensor:
#      x y z
#    x 1.932610 0.000000 0.000000 
#    y 0.000000 1.837180 0.000000 
#    z 0.000000 0.000000 1.844430 
# 
# From -- ./inp_files/10343.got.cif
#   From: 2010.05.17/outbox.cif.g08.bks.cpg/sg23_6_cif.got.tgz:10343.got - 2010.06.04 12:02:01.
