data_PCOD9329765
_publ_section_title
;
Structure prediction by ZEFSAII (Michael W. Deem and Ramdas Pophale) SiO2 
 PCOD9329765
Probable space group: I 2 2 2
;
_chemical_formula_sum "Si O2"
_cell_formula_units_Z 40
_cell_length_a 5.068600
_cell_length_b 16.227063
_cell_length_c 25.504273
_cell_angle_alpha 90.000000
_cell_angle_beta 90.000000
_cell_angle_gamma 90.000000
_cell_volume 2097.687982
_symmetry_space_group_name_H-M "I 2 2 2"
_symmetry_group_IT_number 23
_symmetry_cell_setting 'orthorhombic'
loop_
_space_group_symop_operation_xyz
x,y,z
-x,-y,z
x,-y,-z
-x,y,-z
1/2+x,1/2+y,1/2+z
1/2-x,1/2-y,1/2+z
1/2+x,1/2-y,1/2-z
1/2-x,1/2+y,1/2-z
loop_
_atom_site_type_symbol
_atom_site_label
_atom_site_fract_x
_atom_site_fract_y
_atom_site_fract_z
Si Si1 0.879890 0.753798 0.625483
Si Si2 0.261241 0.054527 0.434022
Si Si3 0.369250 0.764432 0.553160
Si Si4 0.384049 0.801512 0.764608
Si Si5 0.362379 0.413247 0.820323
O O1 0.610602 0.766364 0.594155
O O2 0.854314 0.689124 0.673044
O O3 0.115043 0.730377 0.584966
O O4 0.953382 0.839335 0.656053
O O5 0.266052 0.143432 0.460620
O O6 0.306418 0.071096 0.372262
O O7 0.500000 0.000000 0.450562
O O8 0.000000 0.000000 0.439654
O O9 0.500000 0.728345 0.500000
O O10 0.678180 0.770370 0.752524
O O11 0.299648 0.877497 0.728338
O O12 0.500000 0.500000 0.807550
#
# Coordination Sequence:
#
# PCOD9329765 Si02
#       5
#     8   8   8   8   8
#     4  10  20  34  49  69  98 129 167 212 254 298
#     4  10  19  31  44  63  93 124 158 201 245 288
#     4  11  21  34  49  65  89 128 175 217 251 288
#     4  10  19  32  50  71  98 134 168 202 255 310
#     4   9  18  31  50  72  98 131 166 199 244 302
#
# _framework density 19.068612999999999
#
# number of rings (size 3 to 8) (size 9 to 14) (size 15 to 20)
#    0.000    2.000    0.000    7.800    0.000    3.600 
#    0.000    4.000    0.000    0.000    0.000    0.000 
#    0.000    0.800    0.000   13.200    0.000    7.600 
#
# Total GULP energy -111535.251108 kJ/mol
# GULP energy per Si atom -5576.762555 kJ/mol
# Density = 1.902521 g / cm^3
# Si number density = 19.068613 Si / 1000 Ang^3
#
#
#
# Elastic Constant Matrix: (Units=GPa)
#
#
# Indices 1 2 3 4 5 6 
#
# 1 100.4756 -1.1048 34.6254 0.0000 0.0000 0.0000
# 2 -1.1048 29.3243 30.9019 0.0000 0.0000 0.0000
# 3 34.6254 30.9019 127.9605 0.0000 0.0000 0.0000
# 4 0.0000 0.0000 0.0000 23.2996 0.0000 0.0000
# 5 0.0000 0.0000 0.0000 0.0000 46.0540 0.0000
# 6 0.0000 0.0000 0.0000 0.0000 0.0000 19.0679
#
#
#
# Elastic Compliance Matrix: (Units=1/GPa)
#
#
# Indices 1 2 3 4 5 6 
#
# 1 0.011493 0.004977 -0.004312 0.000000 0.000000 0.000000
# 2 0.004977 0.047898 -0.012914 0.000000 0.000000 0.000000
# 3 -0.004312 -0.012914 0.012100 0.000000 0.000000 0.000000
# 4 0.000000 0.000000 0.000000 0.042919 0.000000 0.000000
# 5 0.000000 0.000000 0.000000 0.000000 0.021714 0.000000
# 6 0.000000 0.000000 0.000000 0.000000 0.000000 0.052444
#
#
# Mechanical properties :
#
#
# Convention : Reuss Voigt Hill
#
# Bulk Modulus (GPa) = 21.27949 42.95617 32.11783
# Shear Modulus (GPa) = 21.85978 30.57346 26.21662
#
# Velocity S-wave (km/s) = 3.38949 4.00852 3.71193
# Velocity P-wave (km/s) = 5.14799 6.63327 5.93726
#
# Compressibility (1/GPa) = 0.04699360
#
# Stress axis : x y z
#
# Youngs Moduli (GPa) = 87.00680 20.87791 82.64232
#
# Poissons Ratio (x) = -0.10391 0.35635
# Poissons Ratio (y) = -0.43303 1.06723
# Poissons Ratio (z) = 0.37517 0.26961
#
# Static dielectric constant tensor:
#      x y z
#    x 1.696810 0.000000 0.000000 
#    y 0.000000 1.684560 0.000000 
#    z 0.000000 0.000000 1.733200 
# 
# From -- ./inp_files/27589.got.cif
#   From: 2010.05.17/outbox.cif.g08.bks.cpg/sg23_14_cif.got.tgz:27589.got - 2010.06.04 12:02:01.
