data_PCOD9329855
_publ_section_title
;
Structure prediction by ZEFSAII (Michael W. Deem and Ramdas Pophale) SiO2 
 PCOD9329855
Probable space group: I 2 2 2
;
_chemical_formula_sum "Si O2"
_cell_formula_units_Z 64
_cell_length_a 14.803033
_cell_length_b 7.395542
_cell_length_c 25.224428
_cell_angle_alpha 90.000000
_cell_angle_beta 90.000000
_cell_angle_gamma 90.000000
_cell_volume 2761.480888
_symmetry_space_group_name_H-M "I 2 2 2"
_symmetry_group_IT_number 23
_symmetry_cell_setting 'orthorhombic'
loop_
_space_group_symop_operation_xyz
x,y,z
-x,-y,z
x,-y,-z
-x,y,-z
1/2+x,1/2+y,1/2+z
1/2-x,1/2-y,1/2+z
1/2+x,1/2-y,1/2-z
1/2-x,1/2+y,1/2-z
loop_
_atom_site_type_symbol
_atom_site_label
_atom_site_fract_x
_atom_site_fract_y
_atom_site_fract_z
Si Si1 0.785010 0.645259 0.311328
Si Si2 0.826671 0.235899 0.289754
Si Si3 0.282116 0.717590 0.996737
Si Si4 0.481757 0.779282 0.170036
Si Si5 0.209077 0.662841 0.891335
Si Si6 0.671727 0.737072 0.410333
Si Si7 0.540214 0.201123 0.051431
Si Si8 0.483629 0.781357 0.438225
O O1 0.818573 0.449035 0.296429
O O2 0.710014 0.695319 0.268397
O O3 0.879196 0.757503 0.310072
O O4 0.736963 0.641540 0.368514
O O5 0.754715 0.168881 0.333911
O O6 0.931500 0.191250 0.301694
O O7 0.193377 0.783480 0.027292
O O8 0.356951 0.805807 0.033663
O O9 0.290248 0.500000 0.000000
O O10 0.278829 0.749075 0.934183
O O11 0.478637 0.719722 0.108534
O O12 0.500000 0.000000 0.170762
O O13 0.193094 0.449812 0.901138
O O14 0.112601 0.748281 0.909126
O O15 0.566131 0.700440 0.404181
O O16 0.500000 0.000000 0.053603
O O17 0.500000 0.298378 0.000000
O O18 0.500000 0.727739 0.500000
O O19 0.500000 0.000000 0.438272
#
# Coordination Sequence:
#
# PCOD9329855 Si02
#       8
#     8   8   8   8   8   8   8   8
#     4  11  23  43  65  86 117 158 203 253 303 359
#     4  11  24  42  63  89 115 157 206 254 302 357
#     4  10  19  33  58  90 126 155 195 250 303 352
#     4   9  20  39  62  85 113 150 201 243 292 365
#     4  10  20  36  59  93 126 157 201 247 295 356
#     4  10  19  36  61  90 122 159 198 246 299 353
#     4  10  19  33  55  86 118 158 199 239 292 363
#     4   9  16  31  59  89 122 165 204 239 285 356
#
# _framework density 23.175972000000002
#
# number of rings (size 3 to 8) (size 9 to 14) (size 15 to 20)
#    0.000    2.000    2.500    1.500    0.000    2.250 
#    0.000    8.125    0.000    0.750    0.000    0.000 
#    0.000    0.000    0.000    0.000    0.000    0.000 
#
# Total GULP energy -178477.005969 kJ/mol
# GULP energy per Si atom -5577.406437 kJ/mol
# Density = 2.312322 g / cm^3
# Si number density = 23.175972 Si / 1000 Ang^3
#
#
#
# Elastic Constant Matrix: (Units=GPa)
#
#
# Indices 1 2 3 4 5 6 
#
# 1 138.9259 0.5555 37.0626 0.0000 0.0000 0.0000
# 2 0.5555 38.2339 0.1060 0.0000 0.0000 0.0000
# 3 37.0626 0.1060 100.8643 0.0000 0.0000 0.0000
# 4 0.0000 0.0000 0.0000 36.9809 0.0000 0.0000
# 5 0.0000 0.0000 0.0000 0.0000 36.7520 0.0000
# 6 0.0000 0.0000 0.0000 0.0000 0.0000 9.5382
#
#
#
# Elastic Compliance Matrix: (Units=1/GPa)
#
#
# Indices 1 2 3 4 5 6 
#
# 1 0.007981 -0.000108 -0.002932 0.000000 0.000000 0.000000
# 2 -0.000108 0.026156 0.000012 0.000000 0.000000 0.000000
# 3 -0.002932 0.000012 0.010992 0.000000 0.000000 0.000000
# 4 0.000000 0.000000 0.000000 0.027041 0.000000 0.000000
# 5 0.000000 0.000000 0.000000 0.000000 0.027209 0.000000
# 6 0.000000 0.000000 0.000000 0.000000 0.000000 0.104841
#
#
# Mechanical properties :
#
#
# Convention : Reuss Voigt Hill
#
# Bulk Modulus (GPa) = 25.59329 39.27470 32.43399
# Shear Modulus (GPa) = 22.39128 32.67422 27.53275
#
# Velocity S-wave (km/s) = 3.11165 3.75885 3.45046
# Velocity P-wave (km/s) = 4.89662 5.98512 5.46802
#
# Compressibility (1/GPa) = 0.03907274
#
# Stress axis : x y z
#
# Youngs Moduli (GPa) = 125.30032 38.23161 90.97673
#
# Poissons Ratio (x) = 0.00412 0.26678
# Poissons Ratio (y) = 0.01351 -0.00110
# Poissons Ratio (z) = 0.36744 -0.00046
#
# Static dielectric constant tensor:
#      x y z
#    x 1.960250 0.000000 0.000000 
#    y 0.000000 1.908310 0.000000 
#    z 0.000000 0.000000 1.877310 
# 
# From -- ./inp_files/28562.got.cif
#   From: 2010.05.17/outbox.cif.g08.bks.cpg/sg23_15_cif.got.tgz:28562.got - 2010.06.04 12:02:01.
