data_PCOD9329756
_publ_section_title
;
Structure prediction by ZEFSAII (Michael W. Deem and Ramdas Pophale) SiO2 
 PCOD9329756
Probable space group: I 2 2 2
;
_chemical_formula_sum "Si O2"
_cell_formula_units_Z 52
_cell_length_a 23.788651
_cell_length_b 9.122000
_cell_length_c 12.982355
_cell_angle_alpha 90.000000
_cell_angle_beta 90.000000
_cell_angle_gamma 90.000000
_cell_volume 2817.172001
_symmetry_space_group_name_H-M "I 2 2 2"
_symmetry_group_IT_number 23
_symmetry_cell_setting 'orthorhombic'
loop_
_space_group_symop_operation_xyz
x,y,z
-x,-y,z
x,-y,-z
-x,y,-z
1/2+x,1/2+y,1/2+z
1/2-x,1/2-y,1/2+z
1/2+x,1/2-y,1/2-z
1/2-x,1/2+y,1/2-z
loop_
_atom_site_type_symbol
_atom_site_label
_atom_site_fract_x
_atom_site_fract_y
_atom_site_fract_z
Si Si1 0.934383 0.465679 0.117690
Si Si2 0.678314 0.000000 0.000000
Si Si3 0.856667 0.218286 0.141940
Si Si4 0.138230 0.625073 0.705499
Si Si5 0.721901 0.004458 0.348822
Si Si6 0.334176 0.563950 0.239279
Si Si7 0.284310 0.694231 0.449547
O O1 0.916624 0.296984 0.131973
O O2 0.901451 0.557860 0.205182
O O3 0.000000 0.500000 0.125249
O O4 0.915844 0.500000 0.000000
O O5 0.639386 0.954851 0.903814
O O6 0.722534 0.132812 0.976836
O O7 0.814065 0.355414 0.160464
O O8 0.858636 0.092406 0.227136
O O9 0.830066 0.157170 0.036678
O O10 0.201883 0.593036 0.746399
O O11 0.128557 0.799245 0.702903
O O12 0.713367 0.129549 0.434799
O O13 0.786427 0.963633 0.344423
O O14 0.303291 0.622355 0.342679
#
# Coordination Sequence:
#
# PCOD9329756 Si02
#       7
#     8   4   8   8   8   8   8
#     4  10  22  42  64  84 109 151 211 269 320 368
#     4  12  20  36  55  88 134 167 202 240 296 394
#     4  11  19  32  53  81 112 155 193 257 300 350
#     4  10  22  35  56  83 120 159 199 247 302 368
#     4  10  19  30  48  75 117 160 197 226 283 362
#     4  11  19  31  50  81 121 158 195 239 292 359
#     4  11  19  30  49  81 122 164 203 227 294 371
#
# _framework density 18.458227000000001
#
# number of rings (size 3 to 8) (size 9 to 14) (size 15 to 20)
#    0.000    1.385    3.077    6.000    2.154    0.000 
#    0.000    1.154    0.000    1.846    0.000    0.000 
#    4.615    0.000    0.000    0.000    0.000    0.000 
#
# Total GULP energy -144848.424403 kJ/mol
# GULP energy per Si atom -5571.093246 kJ/mol
# Density = 1.841622 g / cm^3
# Si number density = 18.458227 Si / 1000 Ang^3
#
#
#
# Elastic Constant Matrix: (Units=GPa)
#
#
# Indices 1 2 3 4 5 6 
#
# 1 67.4404 34.8163 32.1822 0.0000 0.0000 0.0000
# 2 34.8163 138.5044 40.8664 0.0000 0.0000 0.0000
# 3 32.1822 40.8664 78.8884 0.0000 0.0000 0.0000
# 4 0.0000 0.0000 0.0000 34.7620 0.0000 0.0000
# 5 0.0000 0.0000 0.0000 0.0000 22.5199 0.0000
# 6 0.0000 0.0000 0.0000 0.0000 0.0000 8.1389
#
#
#
# Elastic Compliance Matrix: (Units=1/GPa)
#
#
# Indices 1 2 3 4 5 6 
#
# 1 0.019415 -0.003002 -0.006365 0.000000 0.000000 0.000000
# 2 -0.003002 0.008987 -0.003431 0.000000 0.000000 0.000000
# 3 -0.006365 -0.003431 0.017050 0.000000 0.000000 0.000000
# 4 0.000000 0.000000 0.000000 0.028767 0.000000 0.000000
# 5 0.000000 0.000000 0.000000 0.000000 0.044405 0.000000
# 6 0.000000 0.000000 0.000000 0.000000 0.000000 0.122867
#
#
# Mechanical properties :
#
#
# Convention : Reuss Voigt Hill
#
# Bulk Modulus (GPa) = 50.36295 55.61811 52.99053
# Shear Modulus (GPa) = 18.26778 24.88204 21.57491
#
# Velocity S-wave (km/s) = 3.14933 3.67552 3.42255
# Velocity P-wave (km/s) = 6.36934 6.94334 6.66252
#
# Compressibility (1/GPa) = 0.01985587
#
# Stress axis : x y z
#
# Youngs Moduli (GPa) = 51.50576 111.27241 58.65132
#
# Poissons Ratio (x) = 0.33409 0.37332
# Poissons Ratio (y) = 0.15464 0.20121
# Poissons Ratio (z) = 0.32784 0.38174
#
# Static dielectric constant tensor:
#      x y z
#    x 1.628460 0.000000 0.000000 
#    y 0.000000 1.725970 0.000000 
#    z 0.000000 0.000000 1.711730 
# 
# From -- ./inp_files/22563.got.cif
#   From: 2010.05.17/outbox.cif.g08.bks.cpg/sg23_12_cif.got.tgz:22563.got - 2010.06.04 12:02:01.
