data_PCOD9329201
_publ_section_title
;
Structure prediction by ZEFSAII (Michael W. Deem and Ramdas Pophale) SiO2 
 PCOD9329201
Probable space group: F 2 2 2
;
_chemical_formula_sum "Si O2"
_cell_formula_units_Z 88
_cell_length_a 19.582161
_cell_length_b 19.445658
_cell_length_c 11.937830
_cell_angle_alpha 90.000000
_cell_angle_beta 90.000000
_cell_angle_gamma 90.000000
_cell_volume 4545.782478
_symmetry_space_group_name_H-M "F 2 2 2"
_symmetry_group_IT_number 22
_symmetry_cell_setting 'orthorhombic'
loop_
_space_group_symop_operation_xyz
x,y,z
-x,-y,z
x,-y,-z
-x,y,-z
x,1/2+y,1/2+z
-x,1/2-y,1/2+z
x,1/2-y,1/2-z
-x,1/2+y,1/2-z
1/2+x,y,1/2+z
1/2-x,-y,1/2+z
1/2+x,-y,1/2-z
1/2-x,y,1/2-z
1/2+x,1/2+y,z
1/2-x,1/2-y,z
1/2+x,1/2-y,-z
1/2-x,1/2+y,-z
loop_
_atom_site_type_symbol
_atom_site_label
_atom_site_fract_x
_atom_site_fract_y
_atom_site_fract_z
Si Si1 0.750000 0.250000 0.966538
Si Si2 0.051306 0.106734 0.896004
Si Si3 0.876019 0.759401 0.882046
Si Si4 0.862794 0.500000 0.500000
Si Si5 0.803740 0.885011 0.158415
Si Si6 0.500000 0.683636 0.500000
Si Si7 0.443520 0.166518 0.228233
O O1 0.771863 0.184783 0.893023
O O2 0.813410 0.268418 0.046470
O O3 0.113231 0.160370 0.906213
O O4 0.007138 0.130413 0.790550
O O5 0.086480 0.033167 0.907082
O O6 0.000000 0.114388 0.000000
O O7 0.867178 0.750000 0.750000
O O8 0.946126 0.726727 0.926762
O O9 0.819894 0.441931 0.564114
O O10 0.750000 0.911856 0.250000
O O11 0.874395 0.863035 0.218705
O O12 0.453860 0.649966 0.596885
O O13 0.443364 0.250000 0.250000
#
# Coordination Sequence:
#
# PCOD9329201 Si02
#       7
#     8  16  16   8  16   8  16
#     4  12  24  44  68  96 136 176 234 292 342 414
#     4  12  20  41  68 100 131 173 231 281 340 405
#     4  12  22  38  64 102 138 173 223 288 347 402
#     4  12  27  44  70  94 134 185 232 286 340 441
#     4  12  26  46  67  98 132 184 232 284 354 420
#     4  12  20  36  62 102 136 168 212 292 348 386
#     4  12  22  38  70 104 136 171 226 291 344 408
#
# _framework density 19.358604
#
# number of rings (size 3 to 8) (size 9 to 14) (size 15 to 20)
#    0.000    0.000    8.182    4.091    0.000    0.000 
#    3.273    0.000    0.000    1.091    0.000    0.000 
#    0.000    0.000    0.000    0.000    0.000    0.000 
#
# Total GULP energy -122875.427803 kJ/mol
# GULP energy per Si atom -5585.246718 kJ/mol
# Density = 1.931454 g / cm^3
# Si number density = 19.358604 Si / 1000 Ang^3
#
#
#
# Elastic Constant Matrix: (Units=GPa)
#
#
# Indices 1 2 3 4 5 6 
#
# 1 109.5031 39.1200 41.5238 0.0000 0.0000 0.0000
# 2 39.1200 92.0807 44.0225 0.0000 0.0000 0.0000
# 3 41.5238 44.0225 128.9205 0.0000 0.0000 0.0000
# 4 0.0000 0.0000 0.0000 25.5057 0.0000 0.0000
# 5 0.0000 0.0000 0.0000 0.0000 43.1217 0.0000
# 6 0.0000 0.0000 0.0000 0.0000 0.0000 -5.2503
#
#
#
# Elastic Compliance Matrix: (Units=1/GPa)
#
#
# Indices 1 2 3 4 5 6 
#
# 1 0.011356 -0.003676 -0.002402 0.000000 0.000000 0.000000
# 2 -0.003676 0.014169 -0.003654 0.000000 0.000000 0.000000
# 3 -0.002402 -0.003654 0.009778 0.000000 0.000000 0.000000
# 4 0.000000 0.000000 0.000000 0.039207 0.000000 0.000000
# 5 0.000000 0.000000 0.000000 0.000000 0.023190 0.000000
# 6 0.000000 0.000000 0.000000 0.000000 0.000000 -0.190466
#
#
# Mechanical properties :
#
#
# Convention : Reuss Voigt Hill
#
# Bulk Modulus (GPa) = 63.13929 64.42632 63.78280
# Shear Modulus (GPa) = -73.50783 26.39796 -23.55494
#
# Velocity S-wave (km/s) = -6.16880 3.69674 -3.49200
# Velocity P-wave (km/s) = 4.24881 7.18150 4.09399
#
# Compressibility (1/GPa) = 0.01583800
#
# Stress axis : x y z
#
# Youngs Moduli (GPa) = 88.05532 70.57736 102.26692
#
# Poissons Ratio (x) = 0.25945 0.24570
# Poissons Ratio (y) = 0.32370 0.37370
# Poissons Ratio (z) = 0.21155 0.25790
#
# Static dielectric constant tensor:
#      x y z
#    x 1.696920 0.000000 0.000000 
#    y 0.000000 1.695020 0.000000 
#    z 0.000000 0.000000 1.824180 
# 
# From -- ./inp_files/21444.got.cif
#   From: 2010.05.17/outbox.cif.g08.bks.cpg/sg22_11_cif.got.tgz:21444.got - 2010.06.03 23:40:54.
