data_PCOD9329069
_publ_section_title
;
Structure prediction by ZEFSAII (Michael W. Deem and Ramdas Pophale) SiO2 
 PCOD9329069
Probable space group: F 2 2 2
;
_chemical_formula_sum "Si O2"
_cell_formula_units_Z 72
_cell_length_a 16.072884
_cell_length_b 22.144413
_cell_length_c 8.059616
_cell_angle_alpha 90.000000
_cell_angle_beta 90.000000
_cell_angle_gamma 90.000000
_cell_volume 2868.615451
_symmetry_space_group_name_H-M "F 2 2 2"
_symmetry_group_IT_number 22
_symmetry_cell_setting 'orthorhombic'
loop_
_space_group_symop_operation_xyz
x,y,z
-x,-y,z
x,-y,-z
-x,y,-z
x,1/2+y,1/2+z
-x,1/2-y,1/2+z
x,1/2-y,1/2-z
-x,1/2+y,1/2-z
1/2+x,y,1/2+z
1/2-x,-y,1/2+z
1/2+x,-y,1/2-z
1/2-x,y,1/2-z
1/2+x,1/2+y,z
1/2-x,1/2-y,z
1/2+x,1/2-y,-z
1/2-x,1/2+y,-z
loop_
_atom_site_type_symbol
_atom_site_label
_atom_site_fract_x
_atom_site_fract_y
_atom_site_fract_z
Si Si1 0.443221 0.250000 0.750000
Si Si2 0.250000 0.644798 0.750000
Si Si3 0.190098 0.329424 0.905533
Si Si4 0.410487 0.548012 0.345083
Si Si5 0.090988 0.931541 0.808003
Si Si6 0.500000 0.654761 0.000000
O O1 0.385283 0.282223 0.613031
O O2 0.493843 0.198076 0.657574
O O3 0.258429 0.678558 0.575078
O O4 0.169302 0.602903 0.762040
O O5 0.250000 0.319902 0.750000
O O6 0.149267 0.396021 0.878862
O O7 0.405940 0.500000 0.500000
O O8 0.503801 0.571709 0.298027
O O9 0.389700 0.502428 0.193424
O O10 0.074300 0.892380 0.972697
#
# Coordination Sequence:
#
# PCOD9329069 Si02
#       6
#     8   8  16  16  16   8
#     4  12  29  54  80 113 166 218 292 355 416 498
#     4  12  28  46  85 118 162 207 278 330 430 484
#     4  12  28  53  79 124 167 217 274 351 418 493
#     4  11  24  47  82 112 167 212 262 340 417 497
#     4  11  25  48  72 124 154 213 265 329 415 496
#     4  12  28  51  86 118 153 226 284 344 416 502
#
# _framework density 25.099218
#
# number of rings (size 3 to 8) (size 9 to 14) (size 15 to 20)
#    0.000    0.444    4.444    3.000    4.667    1.778 
#    0.000    4.444    0.000    0.000    0.000    0.000 
#    0.000    0.000    0.000    0.000    0.000    0.000 
#
# Total GULP energy -100569.452198 kJ/mol
# GULP energy per Si atom -5587.191789 kJ/mol
# Density = 2.504209 g / cm^3
# Si number density = 25.099218 Si / 1000 Ang^3
#
#
#
# Elastic Constant Matrix: (Units=GPa)
#
#
# Indices 1 2 3 4 5 6 
#
# 1 34.2330 18.1546 27.9777 0.0000 0.0000 0.0000
# 2 18.1546 176.0854 58.1255 0.0000 0.0000 0.0000
# 3 27.9777 58.1255 147.1394 0.0000 0.0000 0.0000
# 4 0.0000 0.0000 0.0000 241.4717 0.0000 0.0000
# 5 0.0000 0.0000 0.0000 0.0000 44.6842 0.0000
# 6 0.0000 0.0000 0.0000 0.0000 0.0000 33.2245
#
#
#
# Elastic Compliance Matrix: (Units=1/GPa)
#
#
# Indices 1 2 3 4 5 6 
#
# 1 0.034985 -0.001623 -0.006011 0.000000 0.000000 0.000000
# 2 -0.001623 0.006606 -0.002301 0.000000 0.000000 0.000000
# 3 -0.006011 -0.002301 0.008848 0.000000 0.000000 0.000000
# 4 0.000000 0.000000 0.000000 0.004141 0.000000 0.000000
# 5 0.000000 0.000000 0.000000 0.000000 0.022379 0.000000
# 6 0.000000 0.000000 0.000000 0.000000 0.000000 0.030098
#
#
# Mechanical properties :
#
#
# Convention : Reuss Voigt Hill
#
# Bulk Modulus (GPa) = 32.71258 62.88593 47.79925
# Shear Modulus (GPa) = 36.46511 80.75608 58.61060
#
# Velocity S-wave (km/s) = 3.81575 5.67843 4.83759
# Velocity P-wave (km/s) = 5.69867 8.25240 7.09144
#
# Compressibility (1/GPa) = 0.03056928
#
# Stress axis : x y z
#
# Youngs Moduli (GPa) = 28.58381 151.37901 113.01666
#
# Poissons Ratio (x) = 0.24564 0.67936
# Poissons Ratio (y) = 0.04638 0.26006
# Poissons Ratio (z) = 0.17182 0.34833
#
# Static dielectric constant tensor:
#      x y z
#    x 1.950250 0.000000 0.000000 
#    y 0.000000 1.952460 0.000000 
#    z 0.000000 0.000000 2.182330 
# 
# From -- ./inp_files/10165.got.cif
#   From: 2010.05.17/outbox.cif.g08.bks.cpg/sg22_6_cif.got.tgz:10165.got - 2010.06.03 23:40:54.
