data_PCOD9329537
_publ_section_title
;
Structure prediction by ZEFSAII (Michael W. Deem and Ramdas Pophale) SiO2 
 PCOD9329537
Probable space group: I 2 2 2
;
_chemical_formula_sum "Si O2"
_cell_formula_units_Z 48
_cell_length_a 11.270288
_cell_length_b 15.832686
_cell_length_c 13.879946
_cell_angle_alpha 90.000000
_cell_angle_beta 90.000000
_cell_angle_gamma 90.000000
_cell_volume 2476.722727
_symmetry_space_group_name_H-M "I 2 2 2"
_symmetry_group_IT_number 23
_symmetry_cell_setting 'orthorhombic'
loop_
_space_group_symop_operation_xyz
x,y,z
-x,-y,z
x,-y,-z
-x,y,-z
1/2+x,1/2+y,1/2+z
1/2-x,1/2-y,1/2+z
1/2+x,1/2-y,1/2-z
1/2-x,1/2+y,1/2-z
loop_
_atom_site_type_symbol
_atom_site_label
_atom_site_fract_x
_atom_site_fract_y
_atom_site_fract_z
Si Si1 0.689781 0.704195 0.157391
Si Si2 0.526185 0.594124 0.783170
Si Si3 0.125339 0.317074 0.013712
Si Si4 0.890697 0.119859 0.932694
Si Si5 0.367909 0.148370 0.008815
Si Si6 0.706234 0.724724 0.848954
O O1 0.594276 0.647552 0.211727
O O2 0.775048 0.649791 0.086968
O O3 0.763612 0.749813 0.240895
O O4 0.630174 0.775759 0.088912
O O5 0.500000 0.500000 0.816434
O O6 0.579826 0.592037 0.675350
O O7 0.616171 0.647136 0.848393
O O8 0.105387 0.222460 0.057428
O O9 0.179226 0.303399 0.908580
O O10 0.000000 0.361242 0.000000
O O11 0.754603 0.098784 0.964633
O O12 0.000000 0.091072 0.000000
O O13 0.342957 0.195399 0.907840
O O14 0.500000 0.109262 0.000000
#
# Coordination Sequence:
#
# PCOD9329537 Si02
#       6
#     8   8   8   8   8   8
#     4  10  19  34  54  80 116 147 194 238 294 351
#     4  12  22  34  56  90 121 152 187 247 315 353
#     4   9  18  32  56  82 105 145 210 236 278 337
#     4   9  18  35  51  81 115 148 190 247 285 348
#     4  10  18  30  55  83 111 142 206 233 288 334
#     4  10  19  33  54  80 114 150 190 242 285 351
#
# _framework density 19.38045
#
# number of rings (size 3 to 8) (size 9 to 14) (size 15 to 20)
#    0.000    2.333    5.000    3.000    0.000    0.333 
#    0.000    6.667    0.000    2.000    0.000    4.667 
#    0.000    0.000    0.000    0.000    0.000    0.000 
#
# Total GULP energy -133662.151669 kJ/mol
# GULP energy per Si atom -5569.256320 kJ/mol
# Density = 1.933634 g / cm^3
# Si number density = 19.380450 Si / 1000 Ang^3
#
#
#
# Elastic Constant Matrix: (Units=GPa)
#
#
# Indices 1 2 3 4 5 6 
#
# 1 153.4678 11.4849 28.5903 0.0000 0.0000 0.0000
# 2 11.4849 49.2168 -2.4203 0.0000 0.0000 0.0000
# 3 28.5903 -2.4203 91.4602 0.0000 0.0000 0.0000
# 4 0.0000 0.0000 0.0000 7.1480 0.0000 0.0000
# 5 0.0000 0.0000 0.0000 0.0000 24.6277 0.0000
# 6 0.0000 0.0000 0.0000 0.0000 0.0000 -4.6021
#
#
#
# Elastic Compliance Matrix: (Units=1/GPa)
#
#
# Indices 1 2 3 4 5 6 
#
# 1 0.007068 -0.001760 -0.002256 0.000000 0.000000 0.000000
# 2 -0.001760 0.020783 0.001100 0.000000 0.000000 0.000000
# 3 -0.002256 0.001100 0.011668 0.000000 0.000000 0.000000
# 4 0.000000 0.000000 0.000000 0.139899 0.000000 0.000000
# 5 0.000000 0.000000 0.000000 0.000000 0.040605 0.000000
# 6 0.000000 0.000000 0.000000 0.000000 0.000000 -0.217292
#
#
# Mechanical properties :
#
#
# Convention : Reuss Voigt Hill
#
# Bulk Modulus (GPa) = 29.68498 41.05052 35.36775
# Shear Modulus (GPa) = 252.62863 22.53405 137.58134
#
# Velocity S-wave (km/s) = 11.42958 3.41357 8.43468
# Velocity P-wave (km/s) = 13.76701 6.06333 10.63707
#
# Compressibility (1/GPa) = 0.03368707
#
# Stress axis : x y z
#
# Youngs Moduli (GPa) = 141.48183 48.11591 85.70402
#
# Poissons Ratio (x) = 0.08470 0.19335
# Poissons Ratio (y) = 0.24905 -0.09430
# Poissons Ratio (z) = 0.31919 -0.05294
#
# Static dielectric constant tensor:
#      x y z
#    x 1.784370 0.000000 0.000000 
#    y 0.000000 1.659640 0.000000 
#    z 0.000000 0.000000 1.662860 
# 
# From -- ./inp_files/20847.got.cif
#   From: 2010.05.17/outbox.cif.g08.bks.cpg/sg23_11_cif.got.tgz:20847.got - 2010.06.04 12:02:01.
