data_PCOD9329238
_publ_section_title
;
Structure prediction by ZEFSAII (Michael W. Deem and Ramdas Pophale) SiO2 
 PCOD9329238
Probable space group: F 2 2 2
;
_chemical_formula_sum "Si O2"
_cell_formula_units_Z 48
_cell_length_a 4.777234
_cell_length_b 22.952650
_cell_length_c 16.029663
_cell_angle_alpha 90.000000
_cell_angle_beta 90.000000
_cell_angle_gamma 90.000000
_cell_volume 1757.655433
_symmetry_space_group_name_H-M "F 2 2 2"
_symmetry_group_IT_number 22
_symmetry_cell_setting 'orthorhombic'
loop_
_space_group_symop_operation_xyz
x,y,z
-x,-y,z
x,-y,-z
-x,y,-z
x,1/2+y,1/2+z
-x,1/2-y,1/2+z
x,1/2-y,1/2-z
-x,1/2+y,1/2-z
1/2+x,y,1/2+z
1/2-x,-y,1/2+z
1/2+x,-y,1/2-z
1/2-x,y,1/2-z
1/2+x,1/2+y,z
1/2-x,1/2-y,z
1/2+x,1/2-y,-z
1/2-x,1/2+y,-z
loop_
_atom_site_type_symbol
_atom_site_label
_atom_site_fract_x
_atom_site_fract_y
_atom_site_fract_z
Si Si1 0.000000 0.500000 0.000000
Si Si2 0.750000 0.750000 0.250000
Si Si3 0.237378 0.354899 0.138683
Si Si4 0.500000 0.710957 0.000000
Si Si5 0.768175 0.067087 0.156610
O O1 0.819403 0.536351 0.930639
O O2 0.633342 0.701018 0.187554
O O3 0.413348 0.412876 0.151678
O O4 0.925293 0.374372 0.159431
O O5 0.297419 0.332859 0.047971
O O6 0.750000 0.750000 0.958236
O O7 0.750000 0.039678 0.250000
#
# Coordination Sequence:
#
# PCOD9329238 Si02
#       5
#     4   4  16   8  16
#     4  12  32  56  92 116 164 222 278 366 428 458
#     4  12  24  46  80 114 172 216 244 330 412 488
#     4  12  26  46  75 116 164 213 267 320 408 503
#     4  12  24  39  66 107 158 215 269 314 386 478
#     4  12  27  52  79 118 160 210 281 342 407 497
#
# _framework density 27.309107000000001
#
# number of rings (size 3 to 8) (size 9 to 14) (size 15 to 20)
#    0.000    0.000    5.000    4.000    0.000    6.667 
#    0.000    0.000    0.000    0.000    0.000    0.000 
#    0.000    0.000    0.000    0.000    0.000    0.000 
#
# Total GULP energy -66829.472277 kJ/mol
# GULP energy per Si atom -5569.122690 kJ/mol
# Density = 2.724695 g / cm^3
# Si number density = 27.309107 Si / 1000 Ang^3
#
#
#
# Elastic Constant Matrix: (Units=GPa)
#
#
# Indices 1 2 3 4 5 6 
#
# 1 112.1257 25.5499 16.5346 0.0000 0.0000 0.0000
# 2 25.5499 108.2745 65.9345 0.0000 0.0000 0.0000
# 3 16.5346 65.9345 170.0741 0.0000 0.0000 0.0000
# 4 0.0000 0.0000 0.0000 53.0789 0.0000 0.0000
# 5 0.0000 0.0000 0.0000 0.0000 21.0575 0.0000
# 6 0.0000 0.0000 0.0000 0.0000 0.0000 46.3057
#
#
#
# Elastic Compliance Matrix: (Units=1/GPa)
#
#
# Indices 1 2 3 4 5 6 
#
# 1 0.009426 -0.002181 -0.000071 0.000000 0.000000 0.000000
# 2 -0.002181 0.012595 -0.004671 0.000000 0.000000 0.000000
# 3 -0.000071 -0.004671 0.007697 0.000000 0.000000 0.000000
# 4 0.000000 0.000000 0.000000 0.018840 0.000000 0.000000
# 5 0.000000 0.000000 0.000000 0.000000 0.047489 0.000000
# 6 0.000000 0.000000 0.000000 0.000000 0.000000 0.021596
#
#
# Mechanical properties :
#
#
# Convention : Reuss Voigt Hill
#
# Bulk Modulus (GPa) = 63.00066 67.39024 65.19545
# Shear Modulus (GPa) = 36.55531 42.91878 39.73704
#
# Velocity S-wave (km/s) = 3.66262 3.96863 3.81869
# Velocity P-wave (km/s) = 6.40359 6.76243 6.58545
#
# Compressibility (1/GPa) = 0.01587285
#
# Stress axis : x y z
#
# Youngs Moduli (GPa) = 106.08924 79.39823 129.91383
#
# Poissons Ratio (x) = 0.17318 0.00920
# Poissons Ratio (y) = 0.23140 0.60679
# Poissons Ratio (z) = 0.00751 0.37084
#
# Static dielectric constant tensor:
#      x y z
#    x 1.921950 0.000000 0.000000 
#    y 0.000000 2.158990 0.000000 
#    z 0.000000 0.000000 2.368830 
# 
# From -- ./inp_files/34015.got.cif
#   From: 2010.05.17/outbox.cif.g08.bks.cpg/sg22_18_cif.got.tgz:34015.got - 2010.06.03 23:40:54.
