data_PCOD9329701
_publ_section_title
;
Structure prediction by ZEFSAII (Michael W. Deem and Ramdas Pophale) SiO2 
 PCOD9329701
Probable space group: I 2 2 2
;
_chemical_formula_sum "Si O2"
_cell_formula_units_Z 32
_cell_length_a 5.215820
_cell_length_b 13.576858
_cell_length_c 18.395747
_cell_angle_alpha 90.000000
_cell_angle_beta 90.000000
_cell_angle_gamma 90.000000
_cell_volume 1302.684660
_symmetry_space_group_name_H-M "I 2 2 2"
_symmetry_group_IT_number 23
_symmetry_cell_setting 'orthorhombic'
loop_
_space_group_symop_operation_xyz
x,y,z
-x,-y,z
x,-y,-z
-x,y,-z
1/2+x,1/2+y,1/2+z
1/2-x,1/2-y,1/2+z
1/2+x,1/2-y,1/2-z
1/2-x,1/2+y,1/2-z
loop_
_atom_site_type_symbol
_atom_site_label
_atom_site_fract_x
_atom_site_fract_y
_atom_site_fract_z
Si Si1 0.614419 0.154388 0.924185
Si Si2 0.623586 0.324275 0.158574
Si Si3 0.621599 0.143163 0.425043
Si Si4 0.253915 0.438837 0.714965
O O1 0.412677 0.212965 0.871227
O O2 0.808982 0.242857 0.942078
O O3 0.738814 0.076168 0.871332
O O4 0.500000 0.120008 0.000000
O O5 0.386101 0.381595 0.118352
O O6 0.675077 0.335959 0.244383
O O7 0.886416 0.366993 0.128404
O O8 0.500000 0.103081 0.500000
O O9 0.500000 0.500000 0.735929
O O10 0.000000 0.500000 0.735692
#
# Coordination Sequence:
#
# PCOD9329701 Si02
#       4
#     8   8   8   8
#     4  10  24  43  76 104 137 181 254 293 347 409
#     4  10  22  40  72 101 136 185 241 296 338 418
#     4  10  18  37  70 107 130 162 236 306 346 385
#     4  12  29  45  66 105 157 193 225 287 374 439
#
# _framework density 24.564655999999999
#
# number of rings (size 3 to 8) (size 9 to 14) (size 15 to 20)
#    1.500    0.000    2.500    2.250    7.000    0.500 
#    0.000    1.250    0.000   18.000    0.000    0.000 
#    0.000    0.000    0.000    0.000    0.000    0.000 
#
# Total GULP energy -89084.653229 kJ/mol
# GULP energy per Si atom -5567.790827 kJ/mol
# Density = 2.450875 g / cm^3
# Si number density = 24.564656 Si / 1000 Ang^3
#
#
#
# Elastic Constant Matrix: (Units=GPa)
#
#
# Indices 1 2 3 4 5 6 
#
# 1 144.5564 17.7904 24.6712 0.0000 0.0000 0.0000
# 2 17.7904 37.3954 -8.1226 0.0000 0.0000 0.0000
# 3 24.6712 -8.1226 107.9093 0.0000 0.0000 0.0000
# 4 0.0000 0.0000 0.0000 -9.3831 0.0000 0.0000
# 5 0.0000 0.0000 0.0000 0.0000 -120.6371 0.0000
# 6 0.0000 0.0000 0.0000 0.0000 0.0000 10.0496
#
#
#
# Elastic Compliance Matrix: (Units=1/GPa)
#
#
# Indices 1 2 3 4 5 6 
#
# 1 0.007787 -0.004159 -0.002093 0.000000 0.000000 0.000000
# 2 -0.004159 0.029407 0.003164 0.000000 0.000000 0.000000
# 3 -0.002093 0.003164 0.009984 0.000000 0.000000 0.000000
# 4 0.000000 0.000000 0.000000 -0.106575 0.000000 0.000000
# 5 0.000000 0.000000 0.000000 0.000000 -0.008289 0.000000
# 6 0.000000 0.000000 0.000000 0.000000 0.000000 0.099507
#
#
# Mechanical properties :
#
#
# Convention : Reuss Voigt Hill
#
# Bulk Modulus (GPa) = 24.38916 39.83766 32.11341
# Shear Modulus (GPa) = 96.77899 -6.95931 44.90984
#
# Velocity S-wave (km/s) = 6.28356 -1.68500 4.28042
# Velocity P-wave (km/s) = 7.91166 3.53087 6.12623
#
# Compressibility (1/GPa) = 0.04100182
#
# Stress axis : x y z
#
# Youngs Moduli (GPa) = 128.42152 34.00516 100.16176
#
# Poissons Ratio (x) = 0.14143 0.20968
# Poissons Ratio (y) = 0.53413 -0.31696
# Poissons Ratio (z) = 0.26883 -0.10761
#
# Static dielectric constant tensor:
#      x y z
#    x 1.944680 0.000000 0.000000 
#    y 0.000000 2.769140 0.000000 
#    z 0.000000 0.000000 2.045590 
# 
# From -- ./inp_files/2119.got.cif
#   From: 2010.05.17/outbox.cif.g08.bks.cpg/sg23_2_cif.got.tgz:2119.got - 2010.06.04 12:02:01.
