data_PCOD9329649
_publ_section_title
;
Structure prediction by ZEFSAII (Michael W. Deem and Ramdas Pophale) SiO2 
 PCOD9329649
Probable space group: I 2 2 2
;
_chemical_formula_sum "Si O2"
_cell_formula_units_Z 32
_cell_length_a 12.216346
_cell_length_b 9.594355
_cell_length_c 11.114465
_cell_angle_alpha 90.000000
_cell_angle_beta 90.000000
_cell_angle_gamma 90.000000
_cell_volume 1302.703773
_symmetry_space_group_name_H-M "I 2 2 2"
_symmetry_group_IT_number 23
_symmetry_cell_setting 'orthorhombic'
loop_
_space_group_symop_operation_xyz
x,y,z
-x,-y,z
x,-y,-z
-x,y,-z
1/2+x,1/2+y,1/2+z
1/2-x,1/2-y,1/2+z
1/2+x,1/2-y,1/2-z
1/2-x,1/2+y,1/2-z
loop_
_atom_site_type_symbol
_atom_site_label
_atom_site_fract_x
_atom_site_fract_y
_atom_site_fract_z
Si Si1 0.191116 0.527837 0.331506
Si Si2 0.925507 0.863030 0.248447
Si Si3 0.834711 0.266064 0.515732
Si Si4 0.377203 0.117650 0.595488
O O1 0.301613 0.597633 0.286230
O O2 0.119542 0.639482 0.405916
O O3 0.221592 0.390724 0.408146
O O4 0.132028 0.468369 0.217447
O O5 0.912074 0.809813 0.387334
O O6 0.950837 0.748296 0.143436
O O7 0.000000 0.000000 0.243977
O O8 0.740840 0.173005 0.454499
O O9 0.402991 0.000000 0.500000
#
# Coordination Sequence:
#
# PCOD9329649 Si02
#       4
#     8   8   8   8
#     4   9  18  34  58  92 131 179 238 269 337 425
#     4  10  20  35  61 100 140 172 229 302 347 395
#     4   9  18  34  58  93 130 176 231 281 329 418
#     4  10  18  34  61  98 128 188 233 279 337 433
#
# _framework density 24.564295000000001
#
# number of rings (size 3 to 8) (size 9 to 14) (size 15 to 20)
#    0.000    2.500    2.500    0.000    0.000    0.000 
#    0.000   12.500    0.000    4.500    0.000   28.000 
#    0.000    0.000    0.000    0.000    0.000    0.000 
#
# Total GULP energy -89226.108461 kJ/mol
# GULP energy per Si atom -5576.631779 kJ/mol
# Density = 2.450839 g / cm^3
# Si number density = 24.564295 Si / 1000 Ang^3
#
#
#
# Elastic Constant Matrix: (Units=GPa)
#
#
# Indices 1 2 3 4 5 6 
#
# 1 50.5751 55.3766 32.4602 0.0000 0.0000 0.0000
# 2 55.3766 182.1562 101.1867 0.0000 0.0000 0.0000
# 3 32.4602 101.1867 183.3272 0.0000 0.0000 0.0000
# 4 0.0000 0.0000 0.0000 91.8606 0.0000 0.0000
# 5 0.0000 0.0000 0.0000 0.0000 14.8824 0.0000
# 6 0.0000 0.0000 0.0000 0.0000 0.0000 51.2801
#
#
#
# Elastic Compliance Matrix: (Units=1/GPa)
#
#
# Indices 1 2 3 4 5 6 
#
# 1 0.029658 -0.008796 -0.000396 0.000000 0.000000 0.000000
# 2 -0.008796 0.010526 -0.004252 0.000000 0.000000 0.000000
# 3 -0.000396 -0.004252 0.007872 0.000000 0.000000 0.000000
# 4 0.000000 0.000000 0.000000 0.010886 0.000000 0.000000
# 5 0.000000 0.000000 0.000000 0.000000 0.067194 0.000000
# 6 0.000000 0.000000 0.000000 0.000000 0.000000 0.019501
#
#
# Mechanical properties :
#
#
# Convention : Reuss Voigt Hill
#
# Bulk Modulus (GPa) = 47.24436 88.23394 67.73915
# Shear Modulus (GPa) = 27.84251 46.74027 37.29139
#
# Velocity S-wave (km/s) = 3.37033 4.36681 3.90052
# Velocity P-wave (km/s) = 5.86688 7.83728 6.92254
#
# Compressibility (1/GPa) = 0.02116655
#
# Stress axis : x y z
#
# Youngs Moduli (GPa) = 33.71760 95.00284 127.03296
#
# Poissons Ratio (x) = 0.83565 0.05035
# Poissons Ratio (y) = 0.29658 0.54019
# Poissons Ratio (z) = 0.01336 0.40398
#
# Static dielectric constant tensor:
#      x y z
#    x 1.894580 0.000000 0.000000 
#    y 0.000000 1.995370 0.000000 
#    z 0.000000 0.000000 1.834330 
# 
# From -- ./inp_files/16343.got.cif
#   From: 2010.05.17/outbox.cif.g08.bks.cpg/sg23_9_cif.got.tgz:16343.got - 2010.06.04 12:02:01.
