data_PCOD9329768
_publ_section_title
;
Structure prediction by ZEFSAII (Michael W. Deem and Ramdas Pophale) SiO2 
 PCOD9329768
Probable space group: I 2 2 2
;
_chemical_formula_sum "Si O2"
_cell_formula_units_Z 48
_cell_length_a 8.184646
_cell_length_b 14.674814
_cell_length_c 24.072880
_cell_angle_alpha 90.000000
_cell_angle_beta 90.000000
_cell_angle_gamma 90.000000
_cell_volume 2891.349267
_symmetry_space_group_name_H-M "I 2 2 2"
_symmetry_group_IT_number 23
_symmetry_cell_setting 'orthorhombic'
loop_
_space_group_symop_operation_xyz
x,y,z
-x,-y,z
x,-y,-z
-x,y,-z
1/2+x,1/2+y,1/2+z
1/2-x,1/2-y,1/2+z
1/2+x,1/2-y,1/2-z
1/2-x,1/2+y,1/2-z
loop_
_atom_site_type_symbol
_atom_site_label
_atom_site_fract_x
_atom_site_fract_y
_atom_site_fract_z
Si Si1 0.949881 0.394538 0.939289
Si Si2 0.059853 0.098338 0.562738
Si Si3 0.663543 0.558012 0.213983
Si Si4 0.034644 0.213322 0.342310
Si Si5 0.637532 0.112438 0.675023
Si Si6 0.060348 0.401526 0.288831
O O1 0.754247 0.390759 0.934469
O O2 0.000000 0.500000 0.942656
O O3 0.043303 0.365419 0.882481
O O4 0.000000 0.353712 0.000000
O O5 0.000000 0.097661 0.500000
O O6 0.972677 0.180297 0.594484
O O7 0.000000 0.000000 0.587148
O O8 0.500000 0.500000 0.223287
O O9 0.608294 0.650742 0.184199
O O10 0.786384 0.490932 0.179282
O O11 0.752438 0.584735 0.270855
O O12 0.207172 0.178000 0.319060
O O13 0.021987 0.319038 0.329497
O O14 0.526925 0.120810 0.729710
O O15 0.000000 0.500000 0.308568
#
# Coordination Sequence:
#
# PCOD9329768 Si02
#       6
#     8   8   8   8   8   8
#     4  11  19  29  46  69 101 134 160 187 231 290
#     4  11  21  33  50  74 102 128 157 195 242 293
#     4   9  18  31  48  70  98 130 162 199 241 287
#     4  11  19  31  50  72  98 129 165 199 240 289
#     4  10  19  31  47  70 100 131 162 198 241 286
#     4  10  20  33  49  69  97 130 167 205 240 283
#
# _framework density 16.601246
#
# number of rings (size 3 to 8) (size 9 to 14) (size 15 to 20)
#    0.000    1.667    0.000   10.000    0.000    0.000 
#    0.000    1.667    0.000    0.500    0.000    0.000 
#    0.000    1.333    0.000    0.000    0.000    0.000 
#
# Total GULP energy -133802.650695 kJ/mol
# GULP energy per Si atom -5575.110446 kJ/mol
# Density = 1.656346 g / cm^3
# Si number density = 16.601246 Si / 1000 Ang^3
#
#
#
# Elastic Constant Matrix: (Units=GPa)
#
#
# Indices 1 2 3 4 5 6 
#
# 1 77.8659 17.5617 19.0533 0.0000 0.0000 0.0000
# 2 17.5617 100.4322 49.1717 0.0000 0.0000 0.0000
# 3 19.0533 49.1717 69.9751 0.0000 0.0000 0.0000
# 4 0.0000 0.0000 0.0000 20.0971 0.0000 0.0000
# 5 0.0000 0.0000 0.0000 0.0000 5.6441 0.0000
# 6 0.0000 0.0000 0.0000 0.0000 0.0000 9.9456
#
#
#
# Elastic Compliance Matrix: (Units=1/GPa)
#
#
# Indices 1 2 3 4 5 6 
#
# 1 0.013810 -0.000875 -0.003145 0.000000 0.000000 0.000000
# 2 -0.000875 0.015235 -0.010467 0.000000 0.000000 0.000000
# 3 -0.003145 -0.010467 0.022503 0.000000 0.000000 0.000000
# 4 0.000000 0.000000 0.000000 0.049759 0.000000 0.000000
# 5 0.000000 0.000000 0.000000 0.000000 0.177178 0.000000
# 6 0.000000 0.000000 0.000000 0.000000 0.000000 0.100547
#
#
# Mechanical properties :
#
#
# Convention : Reuss Voigt Hill
#
# Bulk Modulus (GPa) = 44.30283 46.64962 45.47622
# Shear Modulus (GPa) = 12.03286 17.96978 15.00132
#
# Velocity S-wave (km/s) = 2.69516 3.29361 3.00930
# Velocity P-wave (km/s) = 6.03569 6.52877 6.28707
#
# Compressibility (1/GPa) = 0.02257192
#
# Stress axis : x y z
#
# Youngs Moduli (GPa) = 72.41365 65.63948 44.43916
#
# Poissons Ratio (x) = 0.05742 0.13978
# Poissons Ratio (y) = 0.06334 0.46516
# Poissons Ratio (z) = 0.22778 0.68707
#
# Static dielectric constant tensor:
#      x y z
#    x 1.630920 0.000000 0.000000 
#    y 0.000000 1.552770 0.000000 
#    z 0.000000 0.000000 1.609520 
# 
# From -- ./inp_files/26169.got.cif
#   From: 2010.05.17/outbox.cif.g08.bks.cpg/sg23_14_cif.got.tgz:26169.got - 2010.06.04 12:02:01.
