data_PCOD9329119
_publ_section_title
;
Structure prediction by ZEFSAII (Michael W. Deem and Ramdas Pophale) SiO2 
 PCOD9329119
Probable space group: F 2 2 2
;
_chemical_formula_sum "Si O2"
_cell_formula_units_Z 84
_cell_length_a 20.364520
_cell_length_b 16.815082
_cell_length_c 10.981045
_cell_angle_alpha 90.000000
_cell_angle_beta 90.000000
_cell_angle_gamma 90.000000
_cell_volume 3760.251030
_symmetry_space_group_name_H-M "F 2 2 2"
_symmetry_group_IT_number 22
_symmetry_cell_setting 'orthorhombic'
loop_
_space_group_symop_operation_xyz
x,y,z
-x,-y,z
x,-y,-z
-x,y,-z
x,1/2+y,1/2+z
-x,1/2-y,1/2+z
x,1/2-y,1/2-z
-x,1/2+y,1/2-z
1/2+x,y,1/2+z
1/2-x,-y,1/2+z
1/2+x,-y,1/2-z
1/2-x,y,1/2-z
1/2+x,1/2+y,z
1/2-x,1/2-y,z
1/2+x,1/2-y,-z
1/2-x,1/2+y,-z
loop_
_atom_site_type_symbol
_atom_site_label
_atom_site_fract_x
_atom_site_fract_y
_atom_site_fract_z
Si Si1 0.475798 0.750000 0.250000
Si Si2 0.327699 0.258444 0.106806
Si Si3 0.500000 0.500000 0.500000
Si Si4 0.867920 0.592679 0.526292
Si Si5 0.500000 0.677207 0.000000
Si Si6 0.758881 0.452032 0.125085
Si Si7 0.105898 0.365642 0.915527
O O1 0.515290 0.724288 0.126878
O O2 0.428137 0.684254 0.308833
O O3 0.336948 0.250000 0.250000
O O4 0.250000 0.250000 0.077258
O O5 0.345453 0.349813 0.080913
O O6 0.370135 0.196365 0.022921
O O7 0.552824 0.435368 0.445498
O O8 0.874227 0.500000 0.500000
O O9 0.807061 0.601115 0.618745
O O10 0.940155 0.624817 0.548756
O O11 0.750000 0.500808 0.250000
O O12 0.826666 0.406112 0.123800
O O13 0.759223 0.500000 0.000000
#
# Coordination Sequence:
#
# PCOD9329119 Si02
#       7
#     8  16   4  16   8  16  16
#     4  12  28  50  83 110 161 208 270 330 412 476
#     4  11  25  47  81 121 160 210 266 336 411 480
#     4  12  30  56  78 118 162 226 260 336 416 474
#     4  11  25  47  75 113 153 207 258 333 399 474
#     4  12  26  50  71 115 150 208 260 326 396 495
#     4  11  25  48  77 113 156 204 261 332 393 481
#     4  12  26  52  79 116 159 214 272 332 402 499
#
# _framework density 22.338933000000001
#
# number of rings (size 3 to 8) (size 9 to 14) (size 15 to 20)
#    0.000    0.571    4.762    2.000    1.333    3.048 
#   13.714    0.000    0.000    0.000    0.000    0.000 
#    0.000    0.000    0.000    0.000    0.000    0.000 
#
# Total GULP energy -116935.301507 kJ/mol
# GULP energy per Si atom -5568.347691 kJ/mol
# Density = 2.228809 g / cm^3
# Si number density = 22.338933 Si / 1000 Ang^3
#
#
#
# Elastic Constant Matrix: (Units=GPa)
#
#
# Indices 1 2 3 4 5 6 
#
# 1 186.7029 63.5564 61.2808 0.0000 0.0000 0.0000
# 2 63.5564 138.3918 83.4247 0.0000 0.0000 0.0000
# 3 61.2808 83.4247 186.4462 0.0000 0.0000 0.0000
# 4 0.0000 0.0000 0.0000 38.0231 0.0000 0.0000
# 5 0.0000 0.0000 0.0000 0.0000 38.4512 0.0000
# 6 0.0000 0.0000 0.0000 0.0000 0.0000 40.9195
#
#
#
# Elastic Compliance Matrix: (Units=1/GPa)
#
#
# Indices 1 2 3 4 5 6 
#
# 1 0.006509 -0.002327 -0.001098 0.000000 0.000000 0.000000
# 2 -0.002327 0.010727 -0.004035 0.000000 0.000000 0.000000
# 3 -0.001098 -0.004035 0.007530 0.000000 0.000000 0.000000
# 4 0.000000 0.000000 0.000000 0.026300 0.000000 0.000000
# 5 0.000000 0.000000 0.000000 0.000000 0.026007 0.000000
# 6 0.000000 0.000000 0.000000 0.000000 0.000000 0.024438
#
#
# Mechanical properties :
#
#
# Convention : Reuss Voigt Hill
#
# Bulk Modulus (GPa) = 101.57130 103.11834 102.34482
# Shear Modulus (GPa) = 41.76687 43.69736 42.73211
#
# Velocity S-wave (km/s) = 4.32868 4.42759 4.37841
# Velocity P-wave (km/s) = 8.39942 8.50877 8.45427
#
# Compressibility (1/GPa) = 0.00984530
#
# Stress axis : x y z
#
# Youngs Moduli (GPa) = 153.64020 93.22365 132.80740
#
# Poissons Ratio (x) = 0.21696 0.14582
# Poissons Ratio (y) = 0.35756 0.53585
# Poissons Ratio (z) = 0.16869 0.37614
#
# Static dielectric constant tensor:
#      x y z
#    x 2.010980 0.000000 0.000000 
#    y 0.000000 1.843470 0.000000 
#    z 0.000000 0.000000 1.877760 
# 
# From -- ./inp_files/22566.got.cif
#   From: 2010.05.17/outbox.cif.g08.bks.cpg/sg22_12_cif.got.tgz:22566.got - 2010.06.03 23:40:54.
