data_PCOD9329347
_publ_section_title
;
Structure prediction by ZEFSAII (Michael W. Deem and Ramdas Pophale) SiO2 
 PCOD9329347
Probable space group: I 2 2 2
;
_chemical_formula_sum "Si O2"
_cell_formula_units_Z 56
_cell_length_a 7.142417
_cell_length_b 19.487195
_cell_length_c 18.303378
_cell_angle_alpha 90.000000
_cell_angle_beta 90.000000
_cell_angle_gamma 90.000000
_cell_volume 2547.567982
_symmetry_space_group_name_H-M "I 2 2 2"
_symmetry_group_IT_number 23
_symmetry_cell_setting 'orthorhombic'
loop_
_space_group_symop_operation_xyz
x,y,z
-x,-y,z
x,-y,-z
-x,y,-z
1/2+x,1/2+y,1/2+z
1/2-x,1/2-y,1/2+z
1/2+x,1/2-y,1/2-z
1/2-x,1/2+y,1/2-z
loop_
_atom_site_type_symbol
_atom_site_label
_atom_site_fract_x
_atom_site_fract_y
_atom_site_fract_z
Si Si1 0.243115 0.137837 0.239003
Si Si2 0.802506 0.142106 0.285252
Si Si3 0.187096 0.661628 0.425752
Si Si4 0.280082 0.487075 0.299241
Si Si5 0.747624 0.116554 0.072493
Si Si6 0.264976 0.746013 0.662488
Si Si7 0.917267 0.806154 0.570539
O O1 0.251763 0.168492 0.157606
O O2 0.346682 0.183771 0.300982
O O3 0.025061 0.138923 0.263741
O O4 0.307357 0.060080 0.221363
O O5 0.719558 0.071597 0.256643
O O6 0.720888 0.203498 0.236324
O O7 0.795683 0.152944 0.371429
O O8 0.290297 0.614978 0.485978
O O9 0.190408 0.738726 0.457353
O O10 0.974303 0.633878 0.422929
O O11 0.500000 0.500000 0.289736
O O12 0.266779 0.452125 0.379469
O O13 0.844340 0.183225 0.111963
O O14 0.088535 0.774150 0.617238
O O15 0.000000 0.843786 0.500000
#
# Coordination Sequence:
#
# PCOD9329347 Si02
#       7
#     8   8   8   8   8   8   8
#     4  10  19  29  49  71  98 133 166 206 253 305
#     4   9  18  32  50  69  98 135 167 210 256 304
#     4  10  17  30  49  77 100 128 172 208 256 308
#     4   9  19  35  47  69 101 136 170 203 253 311
#     4   9  18  32  51  70 102 132 166 212 254 305
#     4   9  16  29  49  70  93 132 167 208 253 295
#     4  10  16  29  52  77  96 126 166 222 261 298
#
# _framework density 21.981749000000001
#
# number of rings (size 3 to 8) (size 9 to 14) (size 15 to 20)
#    0.000    2.571    4.286    0.000    0.000    1.143 
#    0.000   10.000    0.000   10.714    0.000    0.000 
#    0.000    0.000    0.000    0.714    0.000    0.000 
#
# Total GULP energy -155870.777163 kJ/mol
# GULP energy per Si atom -5566.813470 kJ/mol
# Density = 2.193172 g / cm^3
# Si number density = 21.981749 Si / 1000 Ang^3
#
#
#
# Elastic Constant Matrix: (Units=GPa)
#
#
# Indices 1 2 3 4 5 6 
#
# 1 41.2948 -18.4571 7.4381 0.0000 0.0000 0.0000
# 2 -18.4571 90.2956 56.4223 0.0000 0.0000 0.0000
# 3 7.4381 56.4223 133.6266 0.0000 0.0000 0.0000
# 4 0.0000 0.0000 0.0000 30.6289 0.0000 0.0000
# 5 0.0000 0.0000 0.0000 0.0000 25.4785 0.0000
# 6 0.0000 0.0000 0.0000 0.0000 0.0000 6.1215
#
#
#
# Elastic Compliance Matrix: (Units=1/GPa)
#
#
# Indices 1 2 3 4 5 6 
#
# 1 0.029530 0.009595 -0.005695 0.000000 0.000000 0.000000
# 2 0.009595 0.018161 -0.008203 0.000000 0.000000 0.000000
# 3 -0.005695 -0.008203 0.011264 0.000000 0.000000 0.000000
# 4 0.000000 0.000000 0.000000 0.032649 0.000000 0.000000
# 5 0.000000 0.000000 0.000000 0.000000 0.039249 0.000000
# 6 0.000000 0.000000 0.000000 0.000000 0.000000 0.163358
#
#
# Mechanical properties :
#
#
# Convention : Reuss Voigt Hill
#
# Bulk Modulus (GPa) = 19.86084 39.55819 29.70951
# Shear Modulus (GPa) = 15.64455 27.10004 21.37230
#
# Velocity S-wave (km/s) = 2.67068 3.51500 3.12151
# Velocity P-wave (km/s) = 4.30869 5.87440 5.15138
#
# Compressibility (1/GPa) = 0.05035035
#
# Stress axis : x y z
#
# Youngs Moduli (GPa) = 33.86335 55.06168 88.77852
#
# Poissons Ratio (x) = -0.52831 0.50560
# Poissons Ratio (y) = -0.32491 0.72821
# Poissons Ratio (z) = 0.19286 0.45165
#
# Static dielectric constant tensor:
#      x y z
#    x 1.932640 0.000000 0.000000 
#    y 0.000000 1.905110 0.000000 
#    z 0.000000 0.000000 1.836760 
# 
# From -- ./inp_files/23952.got.cif
#   From: 2010.05.17/outbox.cif.g08.bks.cpg/sg23_12_cif.got.tgz:23952.got - 2010.06.04 12:02:01.
