data_PCOD9329280
_publ_section_title
;
Structure prediction by ZEFSAII (Michael W. Deem and Ramdas Pophale) SiO2 
 PCOD9329280
Probable space group: F 2 2 2
;
_chemical_formula_sum "Si O2"
_cell_formula_units_Z 64
_cell_length_a 24.474067
_cell_length_b 14.491971
_cell_length_c 7.336742
_cell_angle_alpha 90.000000
_cell_angle_beta 90.000000
_cell_angle_gamma 90.000000
_cell_volume 2602.177085
_symmetry_space_group_name_H-M "F 2 2 2"
_symmetry_group_IT_number 22
_symmetry_cell_setting 'orthorhombic'
loop_
_space_group_symop_operation_xyz
x,y,z
-x,-y,z
x,-y,-z
-x,y,-z
x,1/2+y,1/2+z
-x,1/2-y,1/2+z
x,1/2-y,1/2-z
-x,1/2+y,1/2-z
1/2+x,y,1/2+z
1/2-x,-y,1/2+z
1/2+x,-y,1/2-z
1/2-x,y,1/2-z
1/2+x,1/2+y,z
1/2-x,1/2-y,z
1/2+x,1/2-y,-z
1/2-x,1/2+y,-z
loop_
_atom_site_type_symbol
_atom_site_label
_atom_site_fract_x
_atom_site_fract_y
_atom_site_fract_z
Si Si1 0.433882 0.995735 0.294562
Si Si2 0.435072 0.847334 0.994731
Si Si3 0.162597 0.760264 0.030724
Si Si4 0.747641 0.893175 0.966780
O O1 0.500000 0.000000 0.302830
O O2 0.412487 0.000000 0.500000
O O3 0.420133 0.082175 0.166711
O O4 0.420055 0.903382 0.180521
O O5 0.500000 0.830296 0.000000
O O6 0.399470 0.756070 0.975209
O O7 0.163517 0.750000 0.250000
O O8 0.194439 0.851377 0.969814
O O9 0.199685 0.673737 0.964379
O O10 0.750000 0.882202 0.750000
O O11 0.738882 0.000000 0.000000
#
# Coordination Sequence:
#
# PCOD9329280 Si02
#       4
#    16  16  16  16
#     4   8  15  29  53  92 133 173 228 268 303 383
#     4   9  17  31  60  90 130 187 213 256 336 384
#     4   9  19  37  63  92 127 167 215 267 324 393
#     4   9  19  38  68  93 117 163 215 271 337 380
#
# _framework density 24.594792000000002
#
# number of rings (size 3 to 8) (size 9 to 14) (size 15 to 20)
#    0.000    3.250    0.000    3.000    3.500    0.000 
#    0.000    7.500   22.000    0.750    0.000    0.000 
#    0.000    0.000    0.000    0.000    0.000    0.000 
#
# Total GULP energy -89481.292872 kJ/mol
# GULP energy per Si atom -5592.580804 kJ/mol
# Density = 2.453881 g / cm^3
# Si number density = 24.594792 Si / 1000 Ang^3
#
#
#
# Elastic Constant Matrix: (Units=GPa)
#
#
# Indices 1 2 3 4 5 6 
#
# 1 98.9584 45.5631 12.8820 0.0000 0.0000 0.0000
# 2 45.5631 95.5202 0.9120 0.0000 0.0000 0.0000
# 3 12.8820 0.9120 137.8563 0.0000 0.0000 0.0000
# 4 0.0000 0.0000 0.0000 21.4380 0.0000 0.0000
# 5 0.0000 0.0000 0.0000 0.0000 4.3729 0.0000
# 6 0.0000 0.0000 0.0000 0.0000 0.0000 41.3744
#
#
#
# Elastic Compliance Matrix: (Units=1/GPa)
#
#
# Indices 1 2 3 4 5 6 
#
# 1 0.013140 -0.006257 -0.001187 0.000000 0.000000 0.000000
# 2 -0.006257 0.013449 0.000496 0.000000 0.000000 0.000000
# 3 -0.001187 0.000496 0.007362 0.000000 0.000000 0.000000
# 4 0.000000 0.000000 0.000000 0.046646 0.000000 0.000000
# 5 0.000000 0.000000 0.000000 0.000000 0.228680 0.000000
# 6 0.000000 0.000000 0.000000 0.000000 0.000000 0.024170
#
#
# Mechanical properties :
#
#
# Convention : Reuss Voigt Hill
#
# Bulk Modulus (GPa) = 49.86121 50.11655 49.98888
# Shear Modulus (GPa) = 14.12323 31.63559 22.87941
#
# Velocity S-wave (km/s) = 2.39892 3.59035 3.05332
# Velocity P-wave (km/s) = 5.29058 6.13259 5.72708
#
# Compressibility (1/GPa) = 0.02005567
#
# Stress axis : x y z
#
# Youngs Moduli (GPa) = 76.10091 74.35667 135.84137
#
# Poissons Ratio (x) = 0.46522 0.16118
# Poissons Ratio (y) = 0.47614 -0.06733
# Poissons Ratio (z) = 0.09030 -0.03686
#
# Static dielectric constant tensor:
#      x y z
#    x 1.937020 0.000000 0.000000 
#    y 0.000000 1.961260 0.000000 
#    z 0.000000 0.000000 1.981090 
# 
# From -- ./inp_files/13407.got.cif
#   From: 2010.05.17/outbox.cif.g08.bks.cpg/sg22_7_cif.got.tgz:13407.got - 2010.06.03 23:40:54.
