data_PCOD9329281
_publ_section_title
;
Structure prediction by ZEFSAII (Michael W. Deem and Ramdas Pophale) SiO2 
 PCOD9329281
Probable space group: F 2 2 2
;
_chemical_formula_sum "Si O2"
_cell_formula_units_Z 80
_cell_length_a 6.106137
_cell_length_b 23.247812
_cell_length_c 23.448771
_cell_angle_alpha 90.000000
_cell_angle_beta 90.000000
_cell_angle_gamma 90.000000
_cell_volume 3328.654460
_symmetry_space_group_name_H-M "F 2 2 2"
_symmetry_group_IT_number 22
_symmetry_cell_setting 'orthorhombic'
loop_
_space_group_symop_operation_xyz
x,y,z
-x,-y,z
x,-y,-z
-x,y,-z
x,1/2+y,1/2+z
-x,1/2-y,1/2+z
x,1/2-y,1/2-z
-x,1/2+y,1/2-z
1/2+x,y,1/2+z
1/2-x,-y,1/2+z
1/2+x,-y,1/2-z
1/2-x,y,1/2-z
1/2+x,1/2+y,z
1/2-x,1/2-y,z
1/2+x,1/2-y,-z
1/2-x,1/2+y,-z
loop_
_atom_site_type_symbol
_atom_site_label
_atom_site_fract_x
_atom_site_fract_y
_atom_site_fract_z
Si Si1 0.137025 0.331567 0.806314
Si Si2 0.620859 0.304468 0.590476
Si Si3 0.009391 0.603545 0.621871
Si Si4 0.618001 0.411373 0.443507
Si Si5 0.397433 0.443177 0.323926
O O1 0.250000 0.308961 0.750000
O O2 0.332009 0.361660 0.841631
O O3 0.999025 0.290593 0.848819
O O4 0.973157 0.384935 0.792565
O O5 0.750000 0.250000 0.566160
O O6 0.810035 0.351273 0.601138
O O7 0.436284 0.342216 0.558452
O O8 0.141446 0.559093 0.661454
O O9 0.874312 0.579362 0.568021
O O10 0.500000 0.433070 0.500000
O O11 0.508191 0.437675 0.386872
O O12 0.500000 0.500000 0.297045
#
# Coordination Sequence:
#
# PCOD9329281 Si02
#       5
#    16  16  16  16  16
#     4   9  19  35  53  77 109 145 187 238 294 348
#     4   9  19  35  53  77 109 145 187 238 294 348
#     4   8  18  36  55  71 116 144 168 244 290 326
#     4   9  19  34  53  80 110 148 189 234 293 354
#     4   9  19  34  53  80 110 148 189 234 293 354
#
# _framework density 24.033736999999999
#
# number of rings (size 3 to 8) (size 9 to 14) (size 15 to 20)
#    0.000    4.000    0.000    0.000    0.000   13.200 
#    7.200    3.000    0.000    9.600    0.000    0.000 
#    0.000    0.000    0.000    0.000    0.000    0.000 
#
# Total GULP energy -111441.316075 kJ/mol
# GULP energy per Si atom -5572.065804 kJ/mol
# Density = 2.397904 g / cm^3
# Si number density = 24.033737 Si / 1000 Ang^3
#
#
#
# Elastic Constant Matrix: (Units=GPa)
#
#
# Indices 1 2 3 4 5 6 
#
# 1 138.5053 12.0450 13.2289 0.0000 0.0000 0.0000
# 2 12.0450 96.5812 -14.1777 0.0000 0.0000 0.0000
# 3 13.2289 -14.1777 83.3992 0.0000 0.0000 0.0000
# 4 0.0000 0.0000 0.0000 4.8569 0.0000 0.0000
# 5 0.0000 0.0000 0.0000 0.0000 25.9494 0.0000
# 6 0.0000 0.0000 0.0000 0.0000 0.0000 27.4557
#
#
#
# Elastic Compliance Matrix: (Units=1/GPa)
#
#
# Indices 1 2 3 4 5 6 
#
# 1 0.007449 -0.001131 -0.001374 0.000000 0.000000 0.000000
# 2 -0.001131 0.010791 0.002014 0.000000 0.000000 0.000000
# 3 -0.001374 0.002014 0.012551 0.000000 0.000000 0.000000
# 4 0.000000 0.000000 0.000000 0.205891 0.000000 0.000000
# 5 0.000000 0.000000 0.000000 0.000000 0.038537 0.000000
# 6 0.000000 0.000000 0.000000 0.000000 0.000000 0.036422
#
#
# Mechanical properties :
#
#
# Convention : Reuss Voigt Hill
#
# Bulk Modulus (GPa) = 33.54673 37.85311 35.69992
# Shear Modulus (GPa) = 15.50103 32.14503 23.82303
#
# Velocity S-wave (km/s) = 2.54238 3.66115 3.15180
# Velocity P-wave (km/s) = 4.75466 5.80139 5.30391
#
# Compressibility (1/GPa) = 0.02980916
#
# Stress axis : x y z
#
# Youngs Moduli (GPa) = 134.23729 92.67317 79.67631
#
# Poissons Ratio (x) = 0.10479 0.10946
# Poissons Ratio (y) = 0.15179 -0.16045
# Poissons Ratio (z) = 0.18442 -0.18662
#
# Static dielectric constant tensor:
#      x y z
#    x 1.988310 0.000000 0.000000 
#    y 0.000000 2.025980 0.000000 
#    z 0.000000 0.000000 2.024510 
# 
# From -- ./inp_files/6594.got.cif
#   From: 2010.05.17/outbox.cif.g08.bks.cpg/sg22_4_cif.got.tgz:6594.got - 2010.06.03 23:40:54.
