data_PCOD9329770
_publ_section_title
;
Structure prediction by ZEFSAII (Michael W. Deem and Ramdas Pophale) SiO2 
 PCOD9329770
Probable space group: I 2 2 2
;
_chemical_formula_sum "Si O2"
_cell_formula_units_Z 48
_cell_length_a 14.205838
_cell_length_b 16.054041
_cell_length_c 8.689534
_cell_angle_alpha 90.000000
_cell_angle_beta 90.000000
_cell_angle_gamma 90.000000
_cell_volume 1981.744732
_symmetry_space_group_name_H-M "I 2 2 2"
_symmetry_group_IT_number 23
_symmetry_cell_setting 'orthorhombic'
loop_
_space_group_symop_operation_xyz
x,y,z
-x,-y,z
x,-y,-z
-x,y,-z
1/2+x,1/2+y,1/2+z
1/2-x,1/2-y,1/2+z
1/2+x,1/2-y,1/2-z
1/2-x,1/2+y,1/2-z
loop_
_atom_site_type_symbol
_atom_site_label
_atom_site_fract_x
_atom_site_fract_y
_atom_site_fract_z
Si Si1 0.749369 0.250000 0.117863
Si Si2 0.499632 0.908260 0.241675
Si Si3 0.999632 0.908260 0.258325
Si Si4 0.396369 0.250000 0.105420
Si Si5 0.347201 0.910591 0.485137
Si Si6 0.847201 0.910591 0.014863
O O1 0.804518 0.250000 0.280140
O O2 0.640245 0.250000 0.069838
O O3 0.785865 0.333538 0.035331
O O4 0.785865 0.166462 0.035331
O O5 0.544704 0.832390 0.148618
O O6 0.397515 0.894426 0.321139
O O7 0.570762 0.916991 0.387064
O O8 0.500000 0.000000 0.168130
O O9 0.044704 0.832390 0.351382
O O10 0.897515 0.894427 0.178861
O O11 0.070762 0.916991 0.112936
O O12 0.000000 0.000000 0.331870
O O13 0.296736 0.000000 0.500000
O O14 0.796736 0.000000 0.000000
#
# Coordination Sequence:
#
# PCOD9329770 Si02
#       6
#     8   8   8   8   8   8
#     4  10  19  31  47  77 109 134 162 202 262 312
#     4   8  14  27  48  74  95 124 175 220 242 273
#     4   8  14  27  48  74  95 124 175 220 242 273
#     4  10  19  31  51  79 107 132 162 206 260 308
#     4   8  14  27  49  73  96 126 171 218 245 276
#     4   8  14  27  49  73  96 126 171 218 245 276
#
# _framework density 24.221083
#
# number of rings (size 3 to 8) (size 9 to 14) (size 15 to 20)
#    0.000    3.333    0.000    3.000    0.000    4.000 
#    0.000   15.000    0.000    4.000    0.000   25.667 
#    0.000    0.000    0.000    0.000    0.000    0.000 
#
# Total GULP energy -133961.239297 kJ/mol
# GULP energy per Si atom -5581.718304 kJ/mol
# Density = 2.416596 g / cm^3
# Si number density = 24.221083 Si / 1000 Ang^3
#
#
#
# Elastic Constant Matrix: (Units=GPa)
#
#
# Indices 1 2 3 4 5 6 
#
# 1 60.0836 48.1955 40.7659 0.0000 0.0000 0.0000
# 2 48.1955 200.5537 52.1346 0.0000 0.0000 0.0000
# 3 40.7659 52.1346 110.0853 0.0000 0.0000 0.0000
# 4 0.0000 0.0000 0.0000 62.7772 0.0000 0.0000
# 5 0.0000 0.0000 0.0000 0.0000 32.4103 0.0000
# 6 0.0000 0.0000 0.0000 0.0000 0.0000 -1.2108
#
#
#
# Elastic Compliance Matrix: (Units=1/GPa)
#
#
# Indices 1 2 3 4 5 6 
#
# 1 0.024850 -0.004082 -0.007269 0.000000 0.000000 0.000000
# 2 -0.004082 0.006357 -0.001499 0.000000 0.000000 0.000000
# 3 -0.007269 -0.001499 0.012485 0.000000 0.000000 0.000000
# 4 0.000000 0.000000 0.000000 0.015929 0.000000 0.000000
# 5 0.000000 0.000000 0.000000 0.000000 0.030854 0.000000
# 6 0.000000 0.000000 0.000000 0.000000 0.000000 -0.825906
#
#
# Mechanical properties :
#
#
# Convention : Reuss Voigt Hill
#
# Bulk Modulus (GPa) = 55.57940 72.54608 64.06274
# Shear Modulus (GPa) = -7.10497 34.10378 13.49941
#
# Velocity S-wave (km/s) = -1.71457 3.75643 2.36337
# Velocity P-wave (km/s) = 4.36771 6.98792 5.82700
#
# Compressibility (1/GPa) = 0.01799228
#
# Stress axis : x y z
#
# Youngs Moduli (GPa) = 40.24180 157.31172 80.09324
#
# Poissons Ratio (x) = 0.64217 0.58219
# Poissons Ratio (y) = 0.16427 0.12005
# Poissons Ratio (z) = 0.29251 0.23578
#
# Static dielectric constant tensor:
#      x y z
#    x 1.911920 0.000000 0.000000 
#    y 0.000000 1.941050 0.000000 
#    z 0.000000 0.000000 1.936590 
# 
# From -- ./inp_files/16690.got.cif
#   From: 2010.05.17/outbox.cif.g08.bks.cpg/sg23_9_cif.got.tgz:16690.got - 2010.06.04 12:02:01.
