data_PCOD9329902
_publ_section_title
;
Structure prediction by ZEFSAII (Michael W. Deem and Ramdas Pophale) SiO2 
 PCOD9329902
Probable space group: I 2 2 2
;
_chemical_formula_sum "Si O2"
_cell_formula_units_Z 48
_cell_length_a 15.524171
_cell_length_b 14.819677
_cell_length_c 9.495684
_cell_angle_alpha 90.000000
_cell_angle_beta 90.000000
_cell_angle_gamma 90.000000
_cell_volume 2184.607446
_symmetry_space_group_name_H-M "I 2 2 2"
_symmetry_group_IT_number 23
_symmetry_cell_setting 'orthorhombic'
loop_
_space_group_symop_operation_xyz
x,y,z
-x,-y,z
x,-y,-z
-x,y,-z
1/2+x,1/2+y,1/2+z
1/2-x,1/2-y,1/2+z
1/2+x,1/2-y,1/2-z
1/2-x,1/2+y,1/2-z
loop_
_atom_site_type_symbol
_atom_site_label
_atom_site_fract_x
_atom_site_fract_y
_atom_site_fract_z
Si Si1 0.064552 0.832156 0.623301
Si Si2 0.576263 0.750505 0.305582
Si Si3 0.830793 0.096585 0.071810
Si Si4 0.316455 0.479844 0.832171
Si Si5 0.217443 0.752005 0.439710
Si Si6 0.843513 0.400557 0.052353
O O1 0.103303 0.916767 0.706213
O O2 0.145498 0.782785 0.553186
O O3 0.000000 0.864666 0.500000
O O4 0.008294 0.766127 0.716573
O O5 0.590743 0.665663 0.407993
O O6 0.578750 0.844011 0.386176
O O7 0.661510 0.752798 0.203397
O O8 0.760158 0.158023 0.991041
O O9 0.809878 0.064824 0.231830
O O10 0.844694 0.000000 0.000000
O O11 0.228080 0.424589 0.828924
O O12 0.327354 0.500000 0.000000
O O13 0.291866 0.829827 0.450049
O O14 0.867054 0.500000 0.000000
#
# Coordination Sequence:
#
# PCOD9329902 Si02
#       6
#     8   8   8   8   8   8
#     4   9  18  34  58  86 114 149 194 237 284 343
#     4  10  19  34  57  83 118 154 188 239 294 342
#     4  11  22  35  57  90 121 152 193 243 293 345
#     4  10  19  34  58  85 116 155 195 237 287 345
#     4   9  19  34  56  87 116 150 196 242 284 335
#     4   9  17  31  53  81 111 148 194 233 276 341
#
# _framework density 21.971909
#
# number of rings (size 3 to 8) (size 9 to 14) (size 15 to 20)
#    0.000    2.333    0.000    5.000    0.000    2.333 
#    0.000    2.500    0.000   12.500    0.000    0.000 
#    0.000    0.000    0.000    0.000    0.000    0.000 
#
# Total GULP energy -133903.591543 kJ/mol
# GULP energy per Si atom -5579.316314 kJ/mol
# Density = 2.192190 g / cm^3
# Si number density = 21.971909 Si / 1000 Ang^3
#
#
#
# Elastic Constant Matrix: (Units=GPa)
#
#
# Indices 1 2 3 4 5 6 
#
# 1 36.1689 36.5665 26.1547 0.0000 0.0000 0.0000
# 2 36.5665 185.6595 58.4680 0.0000 0.0000 0.0000
# 3 26.1547 58.4680 72.9017 0.0000 0.0000 0.0000
# 4 0.0000 0.0000 0.0000 45.9190 0.0000 0.0000
# 5 0.0000 0.0000 0.0000 0.0000 10.0256 0.0000
# 6 0.0000 0.0000 0.0000 0.0000 0.0000 23.1136
#
#
#
# Elastic Compliance Matrix: (Units=1/GPa)
#
#
# Indices 1 2 3 4 5 6 
#
# 1 0.039946 -0.004488 -0.010732 0.000000 0.000000 0.000000
# 2 -0.004488 0.007710 -0.004574 0.000000 0.000000 0.000000
# 3 -0.010732 -0.004574 0.021236 0.000000 0.000000 0.000000
# 4 0.000000 0.000000 0.000000 0.021778 0.000000 0.000000
# 5 0.000000 0.000000 0.000000 0.000000 0.099745 0.000000
# 6 0.000000 0.000000 0.000000 0.000000 0.000000 0.043265
#
#
# Mechanical properties :
#
#
# Convention : Reuss Voigt Hill
#
# Bulk Modulus (GPa) = 34.12419 59.67872 46.90146
# Shear Modulus (GPa) = 17.66571 27.38102 22.52336
#
# Velocity S-wave (km/s) = 2.83859 3.53396 3.20519
# Velocity P-wave (km/s) = 5.12913 6.62361 5.92369
#
# Compressibility (1/GPa) = 0.02930472
#
# Stress axis : x y z
#
# Youngs Moduli (GPa) = 25.03402 129.69347 47.09065
#
# Poissons Ratio (x) = 0.58203 0.50537
# Poissons Ratio (y) = 0.11235 0.21539
# Poissons Ratio (z) = 0.26866 0.59320
#
# Static dielectric constant tensor:
#      x y z
#    x 1.803310 0.000000 0.000000 
#    y 0.000000 1.844990 0.000000 
#    z 0.000000 0.000000 1.921730 
# 
# From -- ./inp_files/11058.got.cif
#   From: 2010.05.17/outbox.cif.g08.bks.cpg/sg23_6_cif.got.tgz:11058.got - 2010.06.04 12:02:01.
