data_PCOD9329582
_publ_section_title
;
Structure prediction by ZEFSAII (Michael W. Deem and Ramdas Pophale) SiO2 
 PCOD9329582
Probable space group: I 2 2 2
;
_chemical_formula_sum "Si O2"
_cell_formula_units_Z 40
_cell_length_a 4.992303
_cell_length_b 14.529802
_cell_length_c 22.390728
_cell_angle_alpha 90.000000
_cell_angle_beta 90.000000
_cell_angle_gamma 90.000000
_cell_volume 1624.160135
_symmetry_space_group_name_H-M "I 2 2 2"
_symmetry_group_IT_number 23
_symmetry_cell_setting 'orthorhombic'
loop_
_space_group_symop_operation_xyz
x,y,z
-x,-y,z
x,-y,-z
-x,y,-z
1/2+x,1/2+y,1/2+z
1/2-x,1/2-y,1/2+z
1/2+x,1/2-y,1/2-z
1/2-x,1/2+y,1/2-z
loop_
_atom_site_type_symbol
_atom_site_label
_atom_site_fract_x
_atom_site_fract_y
_atom_site_fract_z
Si Si1 0.911666 0.363430 0.564976
Si Si2 0.424437 0.364399 0.638141
Si Si3 0.590093 0.400778 0.771666
Si Si4 0.265289 0.348130 0.960312
Si Si5 0.106110 0.659568 0.163897
O O1 0.625626 0.397313 0.586733
O O2 0.883706 0.252065 0.558506
O O3 0.000000 0.395916 0.500000
O O4 0.127229 0.384428 0.616220
O O5 0.526783 0.399039 0.701712
O O6 0.467195 0.254352 0.643837
O O7 0.500000 0.500000 0.795058
O O8 0.893961 0.385265 0.791108
O O9 0.386611 0.327491 0.801630
O O10 0.176869 0.392635 0.897678
O O11 0.500000 0.392186 0.000000
O O12 0.000000 0.335703 0.000000
#
# Coordination Sequence:
#
# PCOD9329582 Si02
#       5
#     8   8   8   8   8
#     4  10  18  32  56  89 119 142 180 236 290 337
#     4  11  21  36  60  87 115 148 191 237 280 337
#     4  12  25  40  57  81 118 156 193 237 287 336
#     4  10  18  32  57  91 120 143 181 237 293 338
#     4  11  21  38  61  86 113 149 194 235 280 340
#
# _framework density 24.628111000000001
#
# number of rings (size 3 to 8) (size 9 to 14) (size 15 to 20)
#    0.000    1.200    0.000   12.000    0.000    0.000 
#    0.000    0.000    0.000   12.600    0.000    1.400 
#    0.000    0.000    0.000    0.000    0.000    0.000 
#
# Total GULP energy -111907.938704 kJ/mol
# GULP energy per Si atom -5595.396935 kJ/mol
# Density = 2.457206 g / cm^3
# Si number density = 24.628111 Si / 1000 Ang^3
#
#
#
# Elastic Constant Matrix: (Units=GPa)
#
#
# Indices 1 2 3 4 5 6 
#
# 1 139.8378 5.3135 44.5535 0.0000 0.0000 0.0000
# 2 5.3135 46.2066 1.2519 0.0000 0.0000 0.0000
# 3 44.5535 1.2519 157.4299 0.0000 0.0000 0.0000
# 4 0.0000 0.0000 0.0000 -37.8167 0.0000 0.0000
# 5 0.0000 0.0000 0.0000 0.0000 60.2282 0.0000
# 6 0.0000 0.0000 0.0000 0.0000 0.0000 -2.1689
#
#
#
# Elastic Compliance Matrix: (Units=1/GPa)
#
#
# Indices 1 2 3 4 5 6 
#
# 1 0.007893 -0.000847 -0.002227 0.000000 0.000000 0.000000
# 2 -0.000847 0.021738 0.000067 0.000000 0.000000 0.000000
# 3 -0.002227 0.000067 0.006982 0.000000 0.000000 0.000000
# 4 0.000000 0.000000 0.000000 -0.026443 0.000000 0.000000
# 5 0.000000 0.000000 0.000000 0.000000 0.016604 0.000000
# 6 0.000000 0.000000 0.000000 0.000000 0.000000 -0.461054
#
#
# Mechanical properties :
#
#
# Convention : Reuss Voigt Hill
#
# Bulk Modulus (GPa) = 32.68244 49.52359 41.10301
# Shear Modulus (GPa) = -11.95978 23.53886 5.78954
#
# Velocity S-wave (km/s) = -2.20606 3.09491 1.53489
# Velocity P-wave (km/s) = 2.60965 5.73790 4.45723
#
# Compressibility (1/GPa) = 0.03059747
#
# Stress axis : x y z
#
# Youngs Moduli (GPa) = 126.69655 46.00331 143.23054
#
# Poissons Ratio (x) = 0.03898 0.31897
# Poissons Ratio (y) = 0.10735 -0.00959
# Poissons Ratio (z) = 0.28215 -0.00308
#
# Static dielectric constant tensor:
#      x y z
#    x 1.960720 0.000000 0.000000 
#    y 0.000000 2.038010 0.000000 
#    z 0.000000 0.000000 1.970060 
# 
# From -- ./inp_files/23014.got.cif
#   From: 2010.05.17/outbox.cif.g08.bks.cpg/sg23_12_cif.got.tgz:23014.got - 2010.06.04 12:02:01.
