data_PCOD9329423
_publ_section_title
;
Structure prediction by ZEFSAII (Michael W. Deem and Ramdas Pophale) SiO2 
 PCOD9329423
Probable space group: I 2 2 2
;
_chemical_formula_sum "Si O2"
_cell_formula_units_Z 64
_cell_length_a 11.713041
_cell_length_b 10.255606
_cell_length_c 31.812955
_cell_angle_alpha 90.000000
_cell_angle_beta 90.000000
_cell_angle_gamma 90.000000
_cell_volume 3821.510018
_symmetry_space_group_name_H-M "I 2 2 2"
_symmetry_group_IT_number 23
_symmetry_cell_setting 'orthorhombic'
loop_
_space_group_symop_operation_xyz
x,y,z
-x,-y,z
x,-y,-z
-x,y,-z
1/2+x,1/2+y,1/2+z
1/2-x,1/2-y,1/2+z
1/2+x,1/2-y,1/2-z
1/2-x,1/2+y,1/2-z
loop_
_atom_site_type_symbol
_atom_site_label
_atom_site_fract_x
_atom_site_fract_y
_atom_site_fract_z
Si Si1 0.367052 0.487504 0.282548
Si Si2 0.369752 0.252619 0.665564
Si Si3 0.633154 0.985027 0.727677
Si Si4 0.498721 0.658191 0.951582
Si Si5 0.873913 0.274880 0.164205
Si Si6 0.741304 0.653599 0.086011
Si Si7 0.260351 0.662498 0.083334
Si Si8 0.870967 0.658380 0.001377
O O1 0.500000 0.500000 0.264236
O O2 0.360993 0.601681 0.317167
O O3 0.250093 0.500601 0.254964
O O4 0.360905 0.347241 0.304800
O O5 0.496451 0.228346 0.647558
O O6 0.282251 0.215009 0.629316
O O7 0.359701 0.155693 0.705367
O O8 0.639964 0.094168 0.691331
O O9 0.500000 0.000000 0.745281
O O10 0.500000 0.500000 0.954190
O O11 0.385883 0.692961 0.926586
O O12 0.609716 0.697673 0.926076
O O13 0.500000 0.704470 0.000000
O O14 0.789936 0.274088 0.124931
O O15 0.748553 0.495327 0.088907
O O16 0.815401 0.694844 0.045602
O O17 0.194142 0.699332 0.040675
O O18 0.868591 0.500000 0.000000
O O19 0.000000 0.703534 0.000000
#
# Coordination Sequence:
#
# PCOD9329423 Si02
#       8
#     8   8   8   8   8   8   8   8
#     4  10  22  40  56  77 108 141 171 210 269 322
#     4  10  20  35  56  78 106 137 172 216 259 307
#     4  10  20  38  60  81 104 133 173 222 265 308
#     4   9  16  28  44  69 111 145 165 211 267 305
#     4  10  20  35  56  78 106 137 172 216 259 307
#     4  10  17  29  47  73 105 137 175 209 258 306
#     4  10  17  29  47  73 105 137 175 209 258 306
#     4   9  16  23  41  70 100 130 166 214 253 296
#
# _framework density 16.747306999999999
#
# number of rings (size 3 to 8) (size 9 to 14) (size 15 to 20)
#    0.000    2.250    2.500    1.500    0.000    1.000 
#    4.500    0.000    0.000    0.750    0.000    4.375 
#    0.000    0.000    0.000    0.000    0.000    0.000 
#
# Total GULP energy -178154.814992 kJ/mol
# GULP energy per Si atom -5567.337968 kJ/mol
# Density = 1.670919 g / cm^3
# Si number density = 16.747307 Si / 1000 Ang^3
#
#
#
# Elastic Constant Matrix: (Units=GPa)
#
#
# Indices 1 2 3 4 5 6 
#
# 1 154.7746 -9.4367 52.4974 0.0000 0.0000 0.0000
# 2 -9.4367 21.4607 -14.0747 0.0000 0.0000 0.0000
# 3 52.4974 -14.0747 45.9173 0.0000 0.0000 0.0000
# 4 0.0000 0.0000 0.0000 -0.3883 0.0000 0.0000
# 5 0.0000 0.0000 0.0000 0.0000 33.1660 0.0000
# 6 0.0000 0.0000 0.0000 0.0000 0.0000 14.5330
#
#
#
# Elastic Compliance Matrix: (Units=1/GPa)
#
#
# Indices 1 2 3 4 5 6 
#
# 1 0.010849 -0.004211 -0.013695 0.000000 0.000000 0.000000
# 2 -0.004211 0.059955 0.023192 -0.000001 0.000000 0.000000
# 3 -0.013695 0.023192 0.044545 -0.000001 0.000000 0.000000
# 4 0.000000 -0.000001 -0.000001 -2.575613 0.000000 0.000000
# 5 0.000000 0.000000 0.000000 0.000000 0.030151 0.000000
# 6 0.000000 0.000000 0.000000 0.000000 0.000000 0.068809
#
#
# Mechanical properties :
#
#
# Convention : Reuss Voigt Hill
#
# Bulk Modulus (GPa) = 7.94143 31.12495 19.53319
# Shear Modulus (GPa) = -2.14601 22.33992 10.09696
#
# Velocity S-wave (km/s) = -1.13322 3.65628 2.45807
# Velocity P-wave (km/s) = 1.74355 6.03737 4.44353
#
# Compressibility (1/GPa) = 0.12592190
#
# Stress axis : x y z
#
# Youngs Moduli (GPa) = 92.17120 16.67906 22.44945
#
# Poissons Ratio (x) = 0.07023 0.30744
# Poissons Ratio (y) = 0.38812 -0.52065
# Poissons Ratio (z) = 1.26227 -0.38682
#
# Static dielectric constant tensor:
#      x y z
#    x 1.584930 0.000000 0.000000 
#    y 0.000000 1.541500 0.000000 
#    z 0.000000 0.000000 1.536400 
# 
# From -- ./inp_files/30476.got.cif
#   From: 2010.05.17/outbox.cif.g08.bks.cpg/sg23_16_cif.got.tgz:30476.got - 2010.06.04 12:02:01.
