data_PCOD9329971
_publ_section_title
;
Structure prediction by ZEFSAII (Michael W. Deem and Ramdas Pophale) SiO2 
 PCOD9329971
Probable space group: I 2 2 2
;
_chemical_formula_sum "Si O2"
_cell_formula_units_Z 48
_cell_length_a 15.249617
_cell_length_b 7.680810
_cell_length_c 18.556270
_cell_angle_alpha 90.000000
_cell_angle_beta 90.000000
_cell_angle_gamma 90.000000
_cell_volume 2173.484971
_symmetry_space_group_name_H-M "I 2 2 2"
_symmetry_group_IT_number 23
_symmetry_cell_setting 'orthorhombic'
loop_
_space_group_symop_operation_xyz
x,y,z
-x,-y,z
x,-y,-z
-x,y,-z
1/2+x,1/2+y,1/2+z
1/2-x,1/2-y,1/2+z
1/2+x,1/2-y,1/2-z
1/2-x,1/2+y,1/2-z
loop_
_atom_site_type_symbol
_atom_site_label
_atom_site_fract_x
_atom_site_fract_y
_atom_site_fract_z
Si Si1 0.645248 0.094736 0.922624
Si Si2 0.314660 0.282023 0.646102
Si Si3 0.998069 0.787520 0.081130
Si Si4 0.852177 0.811008 0.809502
Si Si5 0.024020 0.807771 0.330086
Si Si6 0.667358 0.187606 0.202443
O O1 0.733360 0.209490 0.909129
O O2 0.558922 0.200211 0.898495
O O3 0.654824 0.956238 0.858346
O O4 0.642812 0.000000 0.000000
O O5 0.405255 0.230378 0.610907
O O6 0.332031 0.481800 0.676079
O O7 0.303920 0.158580 0.715094
O O8 0.078754 0.742055 0.132255
O O9 0.000000 0.000000 0.080347
O O10 0.000000 0.725541 0.000000
O O11 0.900726 0.797592 0.731919
O O12 0.758091 0.718859 0.820718
O O13 0.931957 0.755340 0.293600
O O14 0.000000 0.000000 0.355047
#
# Coordination Sequence:
#
# PCOD9329971 Si02
#       6
#     8   8   8   8   8   8
#     4  11  27  44  65  99 146 185 235 298 362 428
#     4  10  19  36  64  98 130 173 222 283 353 430
#     4   9  17  29  57  95 128 160 205 274 354 416
#     4  10  19  35  59  97 132 166 225 283 349 425
#     4  12  22  42  69  94 136 182 243 290 349 432
#     4  11  22  38  65  97 133 182 228 288 356 424
#
# _framework density 22.084349
#
# number of rings (size 3 to 8) (size 9 to 14) (size 15 to 20)
#    0.000    1.500    5.000    1.000    7.000    1.333 
#    0.000    1.667    0.000    0.000    0.000    2.333 
#    0.000    0.000    0.000    0.000    0.000    0.000 
#
# Total GULP energy -133694.307890 kJ/mol
# GULP energy per Si atom -5570.596162 kJ/mol
# Density = 2.203408 g / cm^3
# Si number density = 22.084349 Si / 1000 Ang^3
#
#
#
# Elastic Constant Matrix: (Units=GPa)
#
#
# Indices 1 2 3 4 5 6 
#
# 1 179.8086 26.0631 49.2573 0.0000 0.0000 0.0000
# 2 26.0631 47.0826 40.3306 0.0000 0.0000 0.0000
# 3 49.2573 40.3306 138.3797 0.0000 0.0000 0.0000
# 4 0.0000 0.0000 0.0000 25.1114 0.0000 0.0000
# 5 0.0000 0.0000 0.0000 0.0000 28.5512 0.0000
# 6 0.0000 0.0000 0.0000 0.0000 0.0000 9.2982
#
#
#
# Elastic Compliance Matrix: (Units=1/GPa)
#
#
# Indices 1 2 3 4 5 6 
#
# 1 0.006313 -0.002092 -0.001638 0.000000 0.000000 0.000000
# 2 -0.002092 0.028999 -0.007707 0.000000 0.000000 0.000000
# 3 -0.001638 -0.007707 0.010056 0.000000 0.000000 0.000000
# 4 0.000000 0.000000 0.000000 0.039823 0.000000 0.000000
# 5 0.000000 0.000000 0.000000 0.000000 0.035025 0.000000
# 6 0.000000 0.000000 0.000000 0.000000 0.000000 0.107548
#
#
# Mechanical properties :
#
#
# Convention : Reuss Voigt Hill
#
# Bulk Modulus (GPa) = 44.45497 66.28591 55.37044
# Shear Modulus (GPa) = 19.36972 29.23349 24.30161
#
# Velocity S-wave (km/s) = 2.96476 3.64224 3.32083
# Velocity P-wave (km/s) = 5.64740 6.91144 6.31114
#
# Compressibility (1/GPa) = 0.02249467
#
# Stress axis : x y z
#
# Youngs Moduli (GPa) = 158.39561 34.48369 99.44702
#
# Poissons Ratio (x) = 0.07214 0.16285
# Poissons Ratio (y) = 0.33138 0.76645
# Poissons Ratio (z) = 0.25938 0.26577
#
# Static dielectric constant tensor:
#      x y z
#    x 1.921140 0.000000 0.000000 
#    y 0.000000 1.966700 0.000000 
#    z 0.000000 0.000000 1.835850 
# 
# From -- ./inp_files/23749.got.cif
#   From: 2010.05.17/outbox.cif.g08.bks.cpg/sg23_12_cif.got.tgz:23749.got - 2010.06.04 12:02:01.
