data_PCOD9329534
_publ_section_title
;
Structure prediction by ZEFSAII (Michael W. Deem and Ramdas Pophale) SiO2 
 PCOD9329534
Probable space group: I 2 2 2
;
_chemical_formula_sum "Si O2"
_cell_formula_units_Z 36
_cell_length_a 20.450329
_cell_length_b 10.622221
_cell_length_c 8.548373
_cell_angle_alpha 90.000000
_cell_angle_beta 90.000000
_cell_angle_gamma 90.000000
_cell_volume 1856.945236
_symmetry_space_group_name_H-M "I 2 2 2"
_symmetry_group_IT_number 23
_symmetry_cell_setting 'orthorhombic'
loop_
_space_group_symop_operation_xyz
x,y,z
-x,-y,z
x,-y,-z
-x,y,-z
1/2+x,1/2+y,1/2+z
1/2-x,1/2-y,1/2+z
1/2+x,1/2-y,1/2-z
1/2-x,1/2+y,1/2-z
loop_
_atom_site_type_symbol
_atom_site_label
_atom_site_fract_x
_atom_site_fract_y
_atom_site_fract_z
Si Si1 0.753406 0.000000 0.000000
Si Si2 0.928432 0.555515 0.740780
Si Si3 0.801235 0.836023 0.236782
Si Si4 0.681489 0.859244 0.454815
Si Si5 0.131383 0.670126 0.554634
O O1 0.796969 0.970973 0.151368
O O2 0.702796 0.115895 0.008761
O O3 0.890910 0.621162 0.883175
O O4 0.890013 0.430256 0.686288
O O5 0.918038 0.647642 0.589765
O O6 0.000000 0.500000 0.770001
O O7 0.731024 0.816817 0.318944
O O8 0.855369 0.805057 0.368805
O O9 0.814542 0.735783 0.098642
O O10 0.703979 0.000000 0.500000
#
# Coordination Sequence:
#
# PCOD9329534 Si02
#       5
#     4   8   8   8   8
#     4  10  18  30  53  78 117 150 188 240 292 362
#     4  10  20  37  56  84 122 151 196 245 298 360
#     4  12  20  35  54  80 126 154 196 241 300 373
#     4  12  22  35  55  84 121 158 192 245 305 362
#     4  10  18  35  52  83 117 157 191 236 299 357
#
# _framework density 19.386678
#
# number of rings (size 3 to 8) (size 9 to 14) (size 15 to 20)
#    0.000    1.333    8.889    1.333    0.000    0.444 
#    0.000    0.000    0.000    0.000    0.000    3.111 
#    0.000    0.000    0.000    0.000    0.000    0.000 
#
# Total GULP energy -100203.856032 kJ/mol
# GULP energy per Si atom -5566.880891 kJ/mol
# Density = 1.934255 g / cm^3
# Si number density = 19.386678 Si / 1000 Ang^3
#
#
#
# Elastic Constant Matrix: (Units=GPa)
#
#
# Indices 1 2 3 4 5 6 
#
# 1 102.1209 25.5411 52.8789 0.0000 0.0000 0.0000
# 2 25.5411 16.0087 29.3720 0.0000 0.0000 0.0000
# 3 52.8789 29.3720 97.2113 0.0000 0.0000 0.0000
# 4 0.0000 0.0000 0.0000 54.4538 0.0000 0.0000
# 5 0.0000 0.0000 0.0000 0.0000 15.7759 0.0000
# 6 0.0000 0.0000 0.0000 0.0000 0.0000 24.4033
#
#
#
# Elastic Compliance Matrix: (Units=1/GPa)
#
#
# Indices 1 2 3 4 5 6 
#
# 1 0.016519 -0.022146 -0.002294 0.000000 0.000000 0.000000
# 2 -0.022146 0.169863 -0.039277 0.000000 0.000000 0.000000
# 3 -0.002294 -0.039277 0.023402 0.000000 0.000000 0.000000
# 4 0.000000 0.000000 0.000000 0.018364 0.000000 0.000000
# 5 0.000000 0.000000 0.000000 0.000000 0.063388 0.000000
# 6 0.000000 0.000000 0.000000 0.000000 0.000000 0.040978
#
#
# Mechanical properties :
#
#
# Convention : Reuss Voigt Hill
#
# Bulk Modulus (GPa) = 12.14335 47.88055 30.01195
# Shear Modulus (GPa) = 10.25854 26.09650 18.17752
#
# Velocity S-wave (km/s) = 2.30283 3.67291 3.06540
# Velocity P-wave (km/s) = 3.65350 6.53745 5.29558
#
# Compressibility (1/GPa) = 0.08234957
#
# Stress axis : x y z
#
# Youngs Moduli (GPa) = 60.53534 5.88711 42.73084
#
# Poissons Ratio (x) = 0.13038 0.09804
# Poissons Ratio (y) = 1.34062 1.67833
# Poissons Ratio (z) = 0.13890 0.23123
#
# Static dielectric constant tensor:
#      x y z
#    x 1.721530 0.000000 0.000000 
#    y 0.000000 1.713370 0.000000 
#    z 0.000000 0.000000 1.797200 
# 
# From -- ./inp_files/11763.got.cif
#   From: 2010.05.17/outbox.cif.g08.bks.cpg/sg23_6_cif.got.tgz:11763.got - 2010.06.04 12:02:01.
