data_PCOD9329862
_publ_section_title
;
Structure prediction by ZEFSAII (Michael W. Deem and Ramdas Pophale) SiO2 
 PCOD9329862
Probable space group: I 2 2 2
;
_chemical_formula_sum "Si O2"
_cell_formula_units_Z 48
_cell_length_a 20.916314
_cell_length_b 5.242017
_cell_length_c 19.360623
_cell_angle_alpha 90.000000
_cell_angle_beta 90.000000
_cell_angle_gamma 90.000000
_cell_volume 2122.769828
_symmetry_space_group_name_H-M "I 2 2 2"
_symmetry_group_IT_number 23
_symmetry_cell_setting 'orthorhombic'
loop_
_space_group_symop_operation_xyz
x,y,z
-x,-y,z
x,-y,-z
-x,y,-z
1/2+x,1/2+y,1/2+z
1/2-x,1/2-y,1/2+z
1/2+x,1/2-y,1/2-z
1/2-x,1/2+y,1/2-z
loop_
_atom_site_type_symbol
_atom_site_label
_atom_site_fract_x
_atom_site_fract_y
_atom_site_fract_z
Si Si1 0.767343 0.161572 0.435567
Si Si2 0.909832 0.133732 0.431797
Si Si3 0.177216 0.082250 0.161757
Si Si4 0.727709 0.272039 0.187723
Si Si5 0.039992 0.262327 0.196912
Si Si6 0.594069 0.115014 0.153584
O O1 0.839312 0.231959 0.456844
O O2 0.715669 0.359856 0.408260
O O3 0.741591 0.000000 0.500000
O O4 0.780591 0.996768 0.366786
O O5 0.933787 0.384700 0.392157
O O6 0.936535 0.000000 0.500000
O O7 0.912704 0.895582 0.379249
O O8 0.210449 0.189804 0.232348
O O9 0.105417 0.176220 0.159209
O O10 0.197206 0.791649 0.177499
O O11 0.671237 0.076886 0.163678
O O12 0.063217 0.366573 0.271266
O O13 0.000000 0.500000 0.165572
O O14 0.000000 0.000000 0.204472
#
# Coordination Sequence:
#
# PCOD9329862 Si02
#       6
#     8   8   8   8   8   8
#     4  10  21  34  55  95 136 163 198 251 324 403
#     4  10  19  33  56  91 129 162 191 237 313 394
#     4  11  21  36  64  89 130 162 210 265 318 393
#     4  10  20  33  60  93 124 161 201 252 336 376
#     4  11  26  42  62  89 118 165 219 273 318 367
#     4  10  20  36  59  84 126 157 199 257 308 378
#
# _framework density 22.611968000000001
#
# number of rings (size 3 to 8) (size 9 to 14) (size 15 to 20)
#    0.000    1.667    3.333    1.500    2.333    0.667 
#    0.000    0.000    0.000    8.000    0.000    0.000 
#    0.000    0.000    0.000    0.000    0.000    0.000 
#
# Total GULP energy -133683.374547 kJ/mol
# GULP energy per Si atom -5570.140606 kJ/mol
# Density = 2.256050 g / cm^3
# Si number density = 22.611968 Si / 1000 Ang^3
#
#
#
# Elastic Constant Matrix: (Units=GPa)
#
#
# Indices 1 2 3 4 5 6 
#
# 1 115.9293 30.7043 -2.8231 0.0000 0.0000 0.0000
# 2 30.7043 108.2592 4.6369 0.0000 0.0000 0.0000
# 3 -2.8231 4.6369 48.6017 0.0000 0.0000 0.0000
# 4 0.0000 0.0000 0.0000 16.8439 0.0000 0.0000
# 5 0.0000 0.0000 0.0000 0.0000 2.4127 0.0000
# 6 0.0000 0.0000 0.0000 0.0000 0.0000 38.4122
#
#
#
# Elastic Compliance Matrix: (Units=1/GPa)
#
#
# Indices 1 2 3 4 5 6 
#
# 1 0.009357 -0.002688 0.000800 0.000000 0.000000 0.000000
# 2 -0.002688 0.010047 -0.001115 0.000000 0.000000 0.000000
# 3 0.000800 -0.001115 0.020728 0.000000 0.000000 0.000000
# 4 0.000000 0.000000 0.000000 0.059369 0.000000 0.000000
# 5 0.000000 0.000000 0.000000 0.000000 0.414481 0.000000
# 6 0.000000 0.000000 0.000000 0.000000 0.000000 0.026033
#
#
# Mechanical properties :
#
#
# Convention : Reuss Voigt Hill
#
# Bulk Modulus (GPa) = 29.30224 37.53626 33.41925
# Shear Modulus (GPa) = 8.97026 27.55191 18.26108
#
# Velocity S-wave (km/s) = 1.99390 3.49444 2.84489
# Velocity P-wave (km/s) = 4.27642 5.73739 5.05991
#
# Compressibility (1/GPa) = 0.03412708
#
# Stress axis : x y z
#
# Youngs Moduli (GPa) = 106.86725 99.52962 48.24339
#
# Poissons Ratio (x) = 0.26756 -0.03860
# Poissons Ratio (y) = 0.28728 0.05378
# Poissons Ratio (z) = -0.08549 0.11095
#
# Static dielectric constant tensor:
#      x y z
#    x 2.017750 0.000000 0.000000 
#    y 0.000000 2.026210 0.000000 
#    z 0.000000 0.000000 1.692270 
# 
# From -- ./inp_files/3873.got.cif
#   From: 2010.05.17/outbox.cif.g08.bks.cpg/sg23_2_cif.got.tgz:3873.got - 2010.06.04 12:02:01.
