data_PCOD9329124
_publ_section_title
;
Structure prediction by ZEFSAII (Michael W. Deem and Ramdas Pophale) SiO2 
 PCOD9329124
Probable space group: F 2 2 2
;
_chemical_formula_sum "Si O2"
_cell_formula_units_Z 56
_cell_length_a 15.993171
_cell_length_b 13.769885
_cell_length_c 10.730422
_cell_angle_alpha 90.000000
_cell_angle_beta 90.000000
_cell_angle_gamma 90.000000
_cell_volume 2363.097801
_symmetry_space_group_name_H-M "F 2 2 2"
_symmetry_group_IT_number 22
_symmetry_cell_setting 'orthorhombic'
loop_
_space_group_symop_operation_xyz
x,y,z
-x,-y,z
x,-y,-z
-x,y,-z
x,1/2+y,1/2+z
-x,1/2-y,1/2+z
x,1/2-y,1/2-z
-x,1/2+y,1/2-z
1/2+x,y,1/2+z
1/2-x,-y,1/2+z
1/2+x,-y,1/2-z
1/2-x,y,1/2-z
1/2+x,1/2+y,z
1/2-x,1/2-y,z
1/2+x,1/2-y,-z
1/2-x,1/2+y,-z
loop_
_atom_site_type_symbol
_atom_site_label
_atom_site_fract_x
_atom_site_fract_y
_atom_site_fract_z
Si Si1 0.554806 0.095499 0.770755
Si Si2 0.934011 0.250000 0.250000
Si Si3 0.862932 0.681621 0.997505
Si Si4 0.683885 0.099635 0.567296
O O1 0.497481 0.170918 0.693237
O O2 0.569371 0.137743 0.908401
O O3 0.645319 0.086749 0.705439
O O4 0.500000 0.000000 0.776430
O O5 0.882032 0.188403 0.350658
O O6 0.780618 0.619438 0.032464
O O7 0.851527 0.795350 0.028013
O O8 0.657502 0.000000 0.500000
#
# Coordination Sequence:
#
# PCOD9329124 Si02
#       4
#    16   8  16  16
#     4  12  26  46  81 115 157 209 273 338 415 477
#     4  12  26  45  77 112 154 202 270 338 398 481
#     4  11  26  49  75 112 163 211 265 336 404 488
#     4  11  25  48  76 110 161 214 271 320 410 486
#
# _framework density 23.697707999999999
#
# number of rings (size 3 to 8) (size 9 to 14) (size 15 to 20)
#    0.000    0.571    2.857    3.429    4.000    8.571 
#    5.143    0.000    0.000    0.000    0.000    0.000 
#    0.000    0.000    0.000    0.000    0.000    0.000 
#
# Total GULP energy -78096.500556 kJ/mol
# GULP energy per Si atom -5578.321468 kJ/mol
# Density = 2.364377 g / cm^3
# Si number density = 23.697708 Si / 1000 Ang^3
#
#
#
# Elastic Constant Matrix: (Units=GPa)
#
#
# Indices 1 2 3 4 5 6 
#
# 1 118.2389 28.7471 69.0211 0.0000 0.0000 0.0000
# 2 28.7471 141.8649 16.2738 0.0000 0.0000 0.0000
# 3 69.0211 16.2738 136.1700 0.0000 0.0000 0.0000
# 4 0.0000 0.0000 0.0000 31.8271 0.0000 0.0000
# 5 0.0000 0.0000 0.0000 0.0000 21.1625 0.0000
# 6 0.0000 0.0000 0.0000 0.0000 0.0000 14.0963
#
#
#
# Elastic Compliance Matrix: (Units=1/GPa)
#
#
# Indices 1 2 3 4 5 6 
#
# 1 0.012461 -0.001826 -0.006098 0.000000 0.000000 0.000000
# 2 -0.001826 0.007414 0.000039 0.000000 0.000000 0.000000
# 3 -0.006098 0.000039 0.010430 0.000000 0.000000 0.000000
# 4 0.000000 0.000000 0.000000 0.031420 0.000000 0.000000
# 5 0.000000 0.000000 0.000000 0.000000 0.047253 0.000000
# 6 0.000000 0.000000 0.000000 0.000000 0.000000 0.070941
#
#
# Mechanical properties :
#
#
# Convention : Reuss Voigt Hill
#
# Bulk Modulus (GPa) = 68.79120 69.37309 69.08214
# Shear Modulus (GPa) = 24.93351 32.23262 28.58306
#
# Velocity S-wave (km/s) = 3.24720 3.69203 3.47674
# Velocity P-wave (km/s) = 6.56892 6.89293 6.73288
#
# Compressibility (1/GPa) = 0.01453674
#
# Stress axis : x y z
#
# Youngs Moduli (GPa) = 80.25088 134.87298 95.87751
#
# Poissons Ratio (x) = 0.24621 0.58466
# Poissons Ratio (y) = 0.14650 -0.00376
# Poissons Ratio (z) = 0.48937 -0.00529
#
# Static dielectric constant tensor:
#      x y z
#    x 1.950800 0.000000 0.000000 
#    y 0.000000 1.881050 0.000000 
#    z 0.000000 0.000000 1.953970 
# 
# From -- ./inp_files/19056.got.cif
#   From: 2010.05.17/outbox.cif.g08.bks.cpg/sg22_10_cif.got.tgz:19056.got - 2010.06.03 23:40:54.
