data_PCOD9329614
_publ_section_title
;
Structure prediction by ZEFSAII (Michael W. Deem and Ramdas Pophale) SiO2 
 PCOD9329614
Probable space group: I 2 2 2
;
_chemical_formula_sum "Si O2"
_cell_formula_units_Z 46
_cell_length_a 17.487802
_cell_length_b 11.875954
_cell_length_c 11.598843
_cell_angle_alpha 90.000000
_cell_angle_beta 90.000000
_cell_angle_gamma 90.000000
_cell_volume 2408.897962
_symmetry_space_group_name_H-M "I 2 2 2"
_symmetry_group_IT_number 23
_symmetry_cell_setting 'orthorhombic'
loop_
_space_group_symop_operation_xyz
x,y,z
-x,-y,z
x,-y,-z
-x,y,-z
1/2+x,1/2+y,1/2+z
1/2-x,1/2-y,1/2+z
1/2+x,1/2-y,1/2-z
1/2-x,1/2+y,1/2-z
loop_
_atom_site_type_symbol
_atom_site_label
_atom_site_fract_x
_atom_site_fract_y
_atom_site_fract_z
Si Si1 0.869462 0.807016 0.330762
Si Si2 0.137866 0.114888 0.881251
Si Si3 0.614031 0.873480 0.026354
Si Si4 0.610737 0.500000 0.000000
Si Si5 0.500000 0.500000 0.500000
Si Si6 0.953670 0.185813 0.327946
Si Si7 0.783931 0.128378 0.885808
O O1 0.869577 0.696962 0.410159
O O2 0.847553 0.912941 0.413418
O O3 0.814402 0.800614 0.221520
O O4 0.957883 0.826581 0.290788
O O5 0.113759 0.181172 0.767388
O O6 0.184607 0.998753 0.862171
O O7 0.179053 0.168784 0.992324
O O8 0.054988 0.075069 0.924141
O O9 0.555314 0.801431 0.102061
O O10 0.694091 0.876411 0.095497
O O11 0.590677 0.000000 0.000000
O O12 0.564810 0.415431 0.916385
#
# Coordination Sequence:
#
# PCOD9329614 Si02
#       7
#     8   8   8   4   2   8   8
#     4  11  22  37  61  88 117 154 198 254 298 344
#     4  10  18  33  58  88 117 146 187 240 314 346
#     4  11  24  40  56  83 123 166 203 227 287 364
#     4  10  19  32  54  92 118 136 191 252 311 338
#     4   8  16  28  52  86 120 138 166 240 306 380
#     4  11  21  35  62  87 118 155 196 256 291 350
#     4  10  21  36  59  87 121 156 190 247 303 363
#
# _framework density 19.095869
#
# number of rings (size 3 to 8) (size 9 to 14) (size 15 to 20)
#    0.000    1.739    3.478    5.217    2.435    1.391 
#    0.000    0.000    0.000    1.043    0.000    2.435 
#    0.000    0.000    0.000    0.000    0.000    0.000 
#
# Total GULP energy -128310.994748 kJ/mol
# GULP energy per Si atom -5578.738902 kJ/mol
# Density = 1.905241 g / cm^3
# Si number density = 19.095869 Si / 1000 Ang^3
#
#
#
# Elastic Constant Matrix: (Units=GPa)
#
#
# Indices 1 2 3 4 5 6 
#
# 1 75.5840 0.6177 14.8647 0.0000 0.0000 0.0000
# 2 0.6177 97.7637 34.6808 0.0000 0.0000 0.0000
# 3 14.8647 34.6808 94.2716 0.0000 0.0000 0.0000
# 4 0.0000 0.0000 0.0000 28.2453 0.0000 0.0000
# 5 0.0000 0.0000 0.0000 0.0000 26.6353 0.0000
# 6 0.0000 0.0000 0.0000 0.0000 0.0000 45.1124
#
#
#
# Elastic Compliance Matrix: (Units=1/GPa)
#
#
# Indices 1 2 3 4 5 6 
#
# 1 0.013706 0.000782 -0.002449 0.000000 0.000000 0.000000
# 2 0.000782 0.011809 -0.004467 0.000000 0.000000 0.000000
# 3 -0.002449 -0.004467 0.012637 0.000000 0.000000 0.000000
# 4 0.000000 0.000000 0.000000 0.035404 0.000000 0.000000
# 5 0.000000 0.000000 0.000000 0.000000 0.037544 0.000000
# 6 0.000000 0.000000 0.000000 0.000000 0.000000 0.022167
#
#
# Mechanical properties :
#
#
# Convention : Reuss Voigt Hill
#
# Bulk Modulus (GPa) = 38.63537 40.88285 39.75911
# Shear Modulus (GPa) = 32.43328 34.49566 33.46447
#
# Velocity S-wave (km/s) = 4.12569 4.25484 4.19076
# Velocity P-wave (km/s) = 6.55525 6.75233 6.65452
#
# Compressibility (1/GPa) = 0.02588302
#
# Stress axis : x y z
#
# Youngs Moduli (GPa) = 72.96332 84.68393 79.13093
#
# Poissons Ratio (x) = -0.06623 0.19378
# Poissons Ratio (y) = -0.05706 0.35352
# Poissons Ratio (z) = 0.17867 0.37833
#
# Static dielectric constant tensor:
#      x y z
#    x 1.682520 0.000000 0.000000 
#    y 0.000000 1.661640 0.000000 
#    z 0.000000 0.000000 1.745010 
# 
# From -- ./inp_files/17429.got.cif
#   From: 2010.05.17/outbox.cif.g08.bks.cpg/sg23_9_cif.got.tgz:17429.got - 2010.06.04 12:02:01.
