data_PCOD9329859
_publ_section_title
;
Structure prediction by ZEFSAII (Michael W. Deem and Ramdas Pophale) SiO2 
 PCOD9329859
Probable space group: I 2 2 2
;
_chemical_formula_sum "Si O2"
_cell_formula_units_Z 40
_cell_length_a 17.785460
_cell_length_b 5.539936
_cell_length_c 16.127616
_cell_angle_alpha 90.000000
_cell_angle_beta 90.000000
_cell_angle_gamma 90.000000
_cell_volume 1589.059006
_symmetry_space_group_name_H-M "I 2 2 2"
_symmetry_group_IT_number 23
_symmetry_cell_setting 'orthorhombic'
loop_
_space_group_symop_operation_xyz
x,y,z
-x,-y,z
x,-y,-z
-x,y,-z
1/2+x,1/2+y,1/2+z
1/2-x,1/2-y,1/2+z
1/2+x,1/2-y,1/2-z
1/2-x,1/2+y,1/2-z
loop_
_atom_site_type_symbol
_atom_site_label
_atom_site_fract_x
_atom_site_fract_y
_atom_site_fract_z
Si Si1 0.127344 0.750000 0.280021
Si Si2 0.650330 0.750000 0.728853
Si Si3 0.899744 0.250000 0.455819
Si Si4 0.782417 0.750000 0.045358
Si Si5 0.507053 0.250000 0.641229
O O1 0.168925 0.492904 0.279041
O O2 0.074778 0.750000 0.360462
O O3 0.083893 0.750000 0.192650
O O4 0.168925 0.007096 0.279041
O O5 0.686162 0.750000 0.638199
O O6 0.560143 0.750000 0.710019
O O7 0.920455 0.500000 0.500000
O O8 0.808375 0.250000 0.451787
O O9 0.920455 0.000000 0.500000
O O10 0.805868 0.500000 0.000000
O O11 0.805868 0.000000 0.000000
O O12 0.500000 0.500000 0.594448
O O13 0.500000 0.000000 0.594448
#
# Coordination Sequence:
#
# PCOD9329859 Si02
#       5
#     8   8   8   8   8
#     4  10  19  33  56  78 103 137 178 219 259 305
#     4  10  19  33  56  78 103 137 178 219 259 305
#     4  10  21  36  53  77 110 142 172 212 263 315
#     4  10  21  36  53  77 110 142 172 212 263 315
#     4   8  16  30  50  72  98 130 168 212 256 294
#
# _framework density 25.172131
#
# number of rings (size 3 to 8) (size 9 to 14) (size 15 to 20)
#    0.000    2.400    0.000    2.400    0.000    1.600 
#    0.000    0.000    0.000   64.800    0.000    0.000 
#    0.000    0.000    0.000    0.000    0.000    0.000 
#
# Total GULP energy -111787.534901 kJ/mol
# GULP energy per Si atom -5589.376745 kJ/mol
# Density = 2.511484 g / cm^3
# Si number density = 25.172131 Si / 1000 Ang^3
#
#
#
# Elastic Constant Matrix: (Units=GPa)
#
#
# Indices 1 2 3 4 5 6 
#
# 1 63.3683 1.8747 -3.4865 0.0000 0.0000 0.0000
# 2 1.8747 331.9664 82.1654 0.0000 0.0000 0.0000
# 3 -3.4865 82.1654 129.6378 0.0000 0.0000 0.0000
# 4 0.0000 0.0000 0.0000 55.1622 0.0000 0.0000
# 5 0.0000 0.0000 0.0000 0.0000 -11.9662 0.0000
# 6 0.0000 0.0000 0.0000 0.0000 0.0000 11.6385
#
#
#
# Elastic Compliance Matrix: (Units=1/GPa)
#
#
# Indices 1 2 3 4 5 6 
#
# 1 0.015819 -0.000231 0.000572 0.000000 0.000000 0.000000
# 2 -0.000231 0.003576 -0.002273 0.000000 0.000000 0.000000
# 3 0.000572 -0.002273 0.009170 0.000000 0.000000 0.000000
# 4 0.000000 0.000000 0.000000 0.018128 0.000000 0.000000
# 5 0.000000 0.000000 0.000000 0.000000 -0.083569 0.000000
# 6 0.000000 0.000000 0.000000 0.000000 0.000000 0.085922
#
#
# Mechanical properties :
#
#
# Convention : Reuss Voigt Hill
#
# Bulk Modulus (GPa) = 40.48400 76.23107 58.35753
# Shear Modulus (GPa) = 81.77381 40.59484 61.18432
#
# Velocity S-wave (km/s) = 5.70582 4.02019 4.93550
# Velocity P-wave (km/s) = 7.71533 7.20409 7.46409
#
# Compressibility (1/GPa) = 0.02470112
#
# Stress axis : x y z
#
# Youngs Moduli (GPa) = 63.21493 279.62579 109.05467
#
# Poissons Ratio (x) = 0.06455 -0.06235
# Poissons Ratio (y) = 0.01459 0.24786
# Poissons Ratio (z) = -0.03614 0.63554
#
# Static dielectric constant tensor:
#      x y z
#    x 2.011730 0.000000 0.000000 
#    y 0.000000 3.356720 0.000000 
#    z 0.000000 0.000000 1.900050 
# 
# From -- ./inp_files/2398.got.cif
#   From: 2010.05.17/outbox.cif.g08.bks.cpg/sg23_2_cif.got.tgz:2398.got - 2010.06.04 12:02:01.
