data_PCOD9329777
_publ_section_title
;
Structure prediction by ZEFSAII (Michael W. Deem and Ramdas Pophale) SiO2 
 PCOD9329777
Probable space group: I 2 2 2
;
_chemical_formula_sum "Si O2"
_cell_formula_units_Z 60
_cell_length_a 21.140058
_cell_length_b 8.955999
_cell_length_c 13.152421
_cell_angle_alpha 90.000000
_cell_angle_beta 90.000000
_cell_angle_gamma 90.000000
_cell_volume 2490.152317
_symmetry_space_group_name_H-M "I 2 2 2"
_symmetry_group_IT_number 23
_symmetry_cell_setting 'orthorhombic'
loop_
_space_group_symop_operation_xyz
x,y,z
-x,-y,z
x,-y,-z
-x,y,-z
1/2+x,1/2+y,1/2+z
1/2-x,1/2-y,1/2+z
1/2+x,1/2-y,1/2-z
1/2-x,1/2+y,1/2-z
loop_
_atom_site_type_symbol
_atom_site_label
_atom_site_fract_x
_atom_site_fract_y
_atom_site_fract_z
Si Si1 0.507149 0.178226 0.729331
Si Si2 0.372068 0.000000 0.000000
Si Si3 0.561626 0.702124 0.061430
Si Si4 0.632891 0.775186 0.702145
Si Si5 0.634862 0.131278 0.657901
Si Si6 0.790676 0.242137 0.982003
Si Si7 0.814907 0.860059 0.669571
Si Si8 0.222664 0.412115 0.338442
O O1 0.533667 0.230107 0.835934
O O2 0.440449 0.258713 0.714195
O O3 0.563589 0.195766 0.648297
O O4 0.500000 0.000000 0.735603
O O5 0.410408 0.844934 0.000650
O O6 0.330088 0.991306 0.897830
O O7 0.620100 0.601392 0.107234
O O8 0.500000 0.647408 0.000000
O O9 0.662306 0.690681 0.606668
O O10 0.681114 0.771363 0.796773
O O11 0.634115 0.955795 0.683558
O O12 0.671506 0.145981 0.553575
O O13 0.666071 0.231623 0.747534
O O14 0.732368 0.309674 0.919541
O O15 0.765950 0.130084 0.066564
O O16 0.768759 0.958006 0.744794
#
# Coordination Sequence:
#
# PCOD9329777 Si02
#       8
#     8   4   8   8   8   8   8   8
#     4   9  17  28  43  72 106 131 163 198 240 310
#     4  12  19  30  54  80 106 149 180 208 270 331
#     4  11  19  29  50  79 110 141 172 211 266 332
#     4  10  19  31  49  73 103 138 168 202 252 314
#     4   9  18  32  49  71 104 137 166 204 250 313
#     4  10  19  32  46  65 101 143 171 207 249 300
#     4   9  19  33  45  71 108 142 173 215 254 304
#     4  10  20  31  49  70 104 146 176 216 250 304
#
# _framework density 24.094912999999998
#
# number of rings (size 3 to 8) (size 9 to 14) (size 15 to 20)
#    0.000    2.133    1.333    4.600    0.000    0.533 
#    0.000    2.000    0.000    0.000    0.000    0.000 
#    0.000   53.333    0.000    0.000    0.000    0.000 
#
# Total GULP energy -167249.297397 kJ/mol
# GULP energy per Si atom -5574.976580 kJ/mol
# Density = 2.404007 g / cm^3
# Si number density = 24.094913 Si / 1000 Ang^3
#
#
#
# Elastic Constant Matrix: (Units=GPa)
#
#
# Indices 1 2 3 4 5 6 
#
# 1 189.7711 29.6431 72.0831 0.0000 0.0000 0.0000
# 2 29.6431 39.7383 21.2589 0.0000 0.0000 0.0000
# 3 72.0831 21.2589 137.7310 0.0000 0.0000 0.0000
# 4 0.0000 0.0000 0.0000 25.4582 0.0000 0.0000
# 5 0.0000 0.0000 0.0000 0.0000 8.9648 0.0000
# 6 0.0000 0.0000 0.0000 0.0000 0.0000 34.7430
#
#
#
# Elastic Compliance Matrix: (Units=1/GPa)
#
#
# Indices 1 2 3 4 5 6 
#
# 1 0.007011 -0.003561 -0.003119 0.000000 0.000000 0.000000
# 2 -0.003561 0.029238 -0.002649 0.000000 0.000000 0.000000
# 3 -0.003119 -0.002649 0.009302 0.000000 0.000000 0.000000
# 4 0.000000 0.000000 0.000000 0.039280 0.000000 0.000000
# 5 0.000000 0.000000 0.000000 0.000000 0.111547 0.000000
# 6 0.000000 0.000000 0.000000 0.000000 0.000000 0.028783
#
#
# Mechanical properties :
#
#
# Convention : Reuss Voigt Hill
#
# Bulk Modulus (GPa) = 37.18630 68.13451 52.66041
# Shear Modulus (GPa) = 19.77971 30.11689 24.94830
#
# Velocity S-wave (km/s) = 2.86826 3.53927 3.22128
# Velocity P-wave (km/s) = 5.14159 6.71125 5.97816
#
# Compressibility (1/GPa) = 0.02689162
#
# Stress axis : x y z
#
# Youngs Moduli (GPa) = 142.64053 34.20184 107.50286
#
# Poissons Ratio (x) = 0.12179 0.33535
# Poissons Ratio (y) = 0.50792 0.28481
# Poissons Ratio (z) = 0.44496 0.09061
#
# Static dielectric constant tensor:
#      x y z
#    x 2.046420 0.000000 0.000000 
#    y 0.000000 2.098050 0.000000 
#    z 0.000000 0.000000 1.869760 
# 
# From -- ./inp_files/18104.got.cif
#   From: 2010.05.17/outbox.cif.g08.bks.cpg/sg23_10_cif.got.tgz:18104.got - 2010.06.04 12:02:01.
