data_PCOD9329826
_publ_section_title
;
Structure prediction by ZEFSAII (Michael W. Deem and Ramdas Pophale) SiO2 
 PCOD9329826
Probable space group: I 2 2 2
;
_chemical_formula_sum "Si O2"
_cell_formula_units_Z 40
_cell_length_a 12.326643
_cell_length_b 9.399264
_cell_length_c 18.475532
_cell_angle_alpha 90.000000
_cell_angle_beta 90.000000
_cell_angle_gamma 90.000000
_cell_volume 2140.600482
_symmetry_space_group_name_H-M "I 2 2 2"
_symmetry_group_IT_number 23
_symmetry_cell_setting 'orthorhombic'
loop_
_space_group_symop_operation_xyz
x,y,z
-x,-y,z
x,-y,-z
-x,y,-z
1/2+x,1/2+y,1/2+z
1/2-x,1/2-y,1/2+z
1/2+x,1/2-y,1/2-z
1/2-x,1/2+y,1/2-z
loop_
_atom_site_type_symbol
_atom_site_label
_atom_site_fract_x
_atom_site_fract_y
_atom_site_fract_z
Si Si1 0.735491 0.565754 0.574596
Si Si2 0.782779 0.293112 0.282189
Si Si3 0.378481 0.049677 0.702579
Si Si4 0.560839 0.191263 0.428660
Si Si5 0.585792 0.375952 0.673823
O O1 0.781574 0.500000 0.500000
O O2 0.801905 0.654563 0.635377
O O3 0.641210 0.677931 0.553087
O O4 0.679480 0.442122 0.622820
O O5 0.669043 0.206243 0.276094
O O6 0.795501 0.432967 0.232810
O O7 0.869666 0.186732 0.248002
O O8 0.380753 0.066160 0.615549
O O9 0.500000 0.000000 0.726606
O O10 0.500000 0.150160 0.500000
O O11 0.474453 0.254371 0.371560
O O12 0.500000 0.500000 0.686445
#
# Coordination Sequence:
#
# PCOD9329826 Si02
#       5
#     8   8   8   8   8
#     4  10  19  33  57  86 124 161 201 245 302 378
#     4  11  22  38  56  86 126 163 209 244 304 368
#     4  11  23  37  56  87 124 165 201 251 303 367
#     4  10  19  32  56  90 129 155 187 246 325 379
#     4  10  19  33  57  89 125 158 196 250 307 364
#
# _framework density 18.686346
#
# number of rings (size 3 to 8) (size 9 to 14) (size 15 to 20)
#    0.000    1.600    6.000    0.000    0.000    0.400 
#    0.000    0.000    0.000    0.600    0.000    0.000 
#    6.000    0.000    0.000    0.000    0.000    0.000 
#
# Total GULP energy -111385.236352 kJ/mol
# GULP energy per Si atom -5569.261818 kJ/mol
# Density = 1.864382 g / cm^3
# Si number density = 18.686346 Si / 1000 Ang^3
#
#
#
# Elastic Constant Matrix: (Units=GPa)
#
#
# Indices 1 2 3 4 5 6 
#
# 1 42.6966 31.3475 47.7526 0.0000 0.0000 0.0000
# 2 31.3475 106.3997 58.9364 0.0000 0.0000 0.0000
# 3 47.7526 58.9364 153.2489 0.0000 0.0000 0.0000
# 4 0.0000 0.0000 0.0000 27.2837 0.0000 0.0000
# 5 0.0000 0.0000 0.0000 0.0000 33.8450 0.0000
# 6 0.0000 0.0000 0.0000 0.0000 0.0000 33.7892
#
#
#
# Elastic Compliance Matrix: (Units=1/GPa)
#
#
# Indices 1 2 3 4 5 6 
#
# 1 0.038754 -0.006009 -0.009765 0.000000 0.000000 0.000000
# 2 -0.006009 0.012874 -0.003079 0.000000 0.000000 0.000000
# 3 -0.009765 -0.003079 0.010752 0.000000 0.000000 0.000000
# 4 0.000000 0.000000 0.000000 0.036652 0.000000 0.000000
# 5 0.000000 0.000000 0.000000 0.000000 0.029546 0.000000
# 6 0.000000 0.000000 0.000000 0.000000 0.000000 0.029595
#
#
# Mechanical properties :
#
#
# Convention : Reuss Voigt Hill
#
# Bulk Modulus (GPa) = 40.52639 64.26868 52.39754
# Shear Modulus (GPa) = 24.49731 29.93748 27.21740
#
# Velocity S-wave (km/s) = 3.62467 4.00697 3.82060
# Velocity P-wave (km/s) = 6.26517 7.47501 6.89667
#
# Compressibility (1/GPa) = 0.02467528
#
# Stress axis : x y z
#
# Youngs Moduli (GPa) = 25.80388 77.67458 93.00457
#
# Poissons Ratio (x) = 0.46672 0.90818
# Poissons Ratio (y) = 0.15505 0.28635
# Poissons Ratio (z) = 0.25197 0.23915
#
# Static dielectric constant tensor:
#      x y z
#    x 1.690660 0.000000 0.000000 
#    y 0.000000 1.737480 0.000000 
#    z 0.000000 0.000000 1.660220 
# 
# From -- ./inp_files/9752.got.cif
#   From: 2010.05.17/outbox.cif.g08.bks.cpg/sg23_5_cif.got.tgz:9752.got - 2010.06.04 12:02:01.
