data_PCOD9329867
_publ_section_title
;
Structure prediction by ZEFSAII (Michael W. Deem and Ramdas Pophale) SiO2 
 PCOD9329867
Probable space group: I 2 2 2
;
_chemical_formula_sum "Si O2"
_cell_formula_units_Z 48
_cell_length_a 18.417874
_cell_length_b 11.703273
_cell_length_c 11.504140
_cell_angle_alpha 90.000000
_cell_angle_beta 90.000000
_cell_angle_gamma 90.000000
_cell_volume 2479.710561
_symmetry_space_group_name_H-M "I 2 2 2"
_symmetry_group_IT_number 23
_symmetry_cell_setting 'orthorhombic'
loop_
_space_group_symop_operation_xyz
x,y,z
-x,-y,z
x,-y,-z
-x,y,-z
1/2+x,1/2+y,1/2+z
1/2-x,1/2-y,1/2+z
1/2+x,1/2-y,1/2-z
1/2-x,1/2+y,1/2-z
loop_
_atom_site_type_symbol
_atom_site_label
_atom_site_fract_x
_atom_site_fract_y
_atom_site_fract_z
Si Si1 0.981825 0.244384 0.374795
Si Si2 0.738975 0.000000 0.500000
Si Si3 0.327270 0.277584 0.038010
Si Si4 0.375806 0.289149 0.767523
Si Si5 0.000000 0.500000 0.313282
Si Si6 0.844654 0.466015 0.782121
Si Si7 0.727834 0.433166 0.387586
O O1 0.895201 0.232972 0.373491
O O2 0.003111 0.379080 0.378664
O O3 0.000000 0.190092 0.500000
O O4 0.036749 0.196027 0.277983
O O5 0.788364 0.898648 0.547307
O O6 0.687854 0.030858 0.607454
O O7 0.352210 0.272301 0.902706
O O8 0.271665 0.177125 0.066580
O O9 0.354447 0.170536 0.704135
O O10 0.332786 0.389878 0.703376
O O11 0.925340 0.491120 0.243706
O O12 0.788784 0.491000 0.677722
O O13 0.698650 0.500000 0.500000
#
# Coordination Sequence:
#
# PCOD9329867 Si02
#       7
#     8   4   8   8   4   8   8
#     4   9  19  33  58  89 124 157 200 263 319 380
#     4  12  24  37  59  88 130 172 212 260 314 394
#     4  11  21  37  60  94 125 165 210 266 327 380
#     4  10  21  38  57  91 128 160 212 260 325 383
#     4  10  19  33  58  90 124 158 203 269 332 372
#     4  11  22  36  59  91 126 166 211 266 324 388
#     4  12  22  36  63  98 130 170 211 267 331 389
#
# _framework density 19.357098000000001
#
# number of rings (size 3 to 8) (size 9 to 14) (size 15 to 20)
#    0.000    1.333    6.667    0.250    0.000    0.333 
#    0.000    3.750    0.000    0.000    0.000    8.167 
#    0.000    0.000    0.000    0.000    0.000    0.000 
#
# Total GULP energy -133767.891145 kJ/mol
# GULP energy per Si atom -5573.662131 kJ/mol
# Density = 1.931304 g / cm^3
# Si number density = 19.357098 Si / 1000 Ang^3
#
#
#
# Elastic Constant Matrix: (Units=GPa)
#
#
# Indices 1 2 3 4 5 6 
#
# 1 128.2288 48.9183 49.7392 0.0000 0.0000 0.0000
# 2 48.9183 56.2069 15.4583 0.0000 0.0000 0.0000
# 3 49.7392 15.4583 66.7026 0.0000 0.0000 0.0000
# 4 0.0000 0.0000 0.0000 4.4956 0.0000 0.0000
# 5 0.0000 0.0000 0.0000 0.0000 26.2982 0.0000
# 6 0.0000 0.0000 0.0000 0.0000 0.0000 21.4246
#
#
#
# Elastic Compliance Matrix: (Units=1/GPa)
#
#
# Indices 1 2 3 4 5 6 
#
# 1 0.015487 -0.011004 -0.008998 0.000000 0.000000 0.000000
# 2 -0.011004 0.026821 0.001990 0.000000 0.000000 0.000000
# 3 -0.008998 0.001990 0.021241 0.000000 0.000000 0.000000
# 4 0.000000 0.000000 0.000000 0.222440 0.000000 0.000000
# 5 0.000000 0.000000 0.000000 0.000000 0.038025 0.000000
# 6 0.000000 0.000000 0.000000 0.000000 0.000000 0.046675
#
#
# Mechanical properties :
#
#
# Convention : Reuss Voigt Hill
#
# Bulk Modulus (GPa) = 36.33215 53.26331 44.79773
# Shear Modulus (GPa) = 12.02246 19.57851 15.80049
#
# Velocity S-wave (km/s) = 2.49487 3.18376 2.86013
# Velocity P-wave (km/s) = 5.20666 6.41023 5.83954
#
# Compressibility (1/GPa) = 0.02752383
#
# Stress axis : x y z
#
# Youngs Moduli (GPa) = 64.57127 37.28406 47.07962
#
# Poissons Ratio (x) = 0.41027 0.42363
# Poissons Ratio (y) = 0.71053 -0.09367
# Poissons Ratio (z) = 0.58102 -0.07418
#
# Static dielectric constant tensor:
#      x y z
#    x 1.718490 0.000000 0.000000 
#    y 0.000000 1.709200 0.000000 
#    z 0.000000 0.000000 1.695930 
# 
# From -- ./inp_files/17976.got.cif
#   From: 2010.05.17/outbox.cif.g08.bks.cpg/sg23_9_cif.got.tgz:17976.got - 2010.06.04 12:02:01.
