data_PCOD9329858
_publ_section_title
;
Structure prediction by ZEFSAII (Michael W. Deem and Ramdas Pophale) SiO2 
 PCOD9329858
Probable space group: I 2 2 2
;
_chemical_formula_sum "Si O2"
_cell_formula_units_Z 40
_cell_length_a 19.671528
_cell_length_b 22.834368
_cell_length_c 4.980037
_cell_angle_alpha 90.000000
_cell_angle_beta 90.000000
_cell_angle_gamma 90.000000
_cell_volume 2236.967429
_symmetry_space_group_name_H-M "I 2 2 2"
_symmetry_group_IT_number 23
_symmetry_cell_setting 'orthorhombic'
loop_
_space_group_symop_operation_xyz
x,y,z
-x,-y,z
x,-y,-z
-x,y,-z
1/2+x,1/2+y,1/2+z
1/2-x,1/2-y,1/2+z
1/2+x,1/2-y,1/2-z
1/2-x,1/2+y,1/2-z
loop_
_atom_site_type_symbol
_atom_site_label
_atom_site_fract_x
_atom_site_fract_y
_atom_site_fract_z
Si Si1 0.543152 0.659266 0.748706
Si Si2 0.301350 0.183258 0.385396
Si Si3 0.843534 0.751852 0.381450
Si Si4 0.642890 0.433213 0.531360
Si Si5 0.237570 0.066860 0.463219
O O1 0.500000 0.685531 0.500000
O O2 0.591237 0.706985 0.891963
O O3 0.588221 0.611462 0.587699
O O4 0.500000 0.633671 0.000000
O O5 0.223457 0.207044 0.397291
O O6 0.342813 0.221493 0.594685
O O7 0.294678 0.116365 0.476972
O O8 0.331846 0.201059 0.099396
O O9 0.617418 0.500000 0.500000
O O10 0.674955 0.423061 0.826241
O O11 0.707033 0.428023 0.333646
O O12 0.260549 0.000000 0.500000
#
# Coordination Sequence:
#
# PCOD9329858 Si02
#       5
#     8   8   8   8   8
#     4  12  24  37  55  73 109 148 191 231 257 308
#     4  10  19  33  56  77 104 134 174 225 266 337
#     4  10  21  33  53  78 101 137 184 218 273 312
#     4  10  21  36  52  74 106 144 190 226 255 304
#     4  10  19  33  56  81 110 139 172 221 276 322
#
# _framework density 17.881350000000001
#
# number of rings (size 3 to 8) (size 9 to 14) (size 15 to 20)
#    0.000    1.600    2.000    3.600    5.600    0.400 
#    0.000    1.000    0.000    0.000    0.000    0.000 
#    0.000   12.000    0.000    0.000    0.000    0.000 
#
# Total GULP energy -111520.102695 kJ/mol
# GULP energy per Si atom -5576.005135 kJ/mol
# Density = 1.784065 g / cm^3
# Si number density = 17.881350 Si / 1000 Ang^3
#
#
#
# Elastic Constant Matrix: (Units=GPa)
#
#
# Indices 1 2 3 4 5 6 
#
# 1 26.7379 27.2135 0.9073 0.0000 0.0000 0.0000
# 2 27.2135 80.9927 -6.8858 0.0000 0.0000 0.0000
# 3 0.9073 -6.8858 59.3569 0.0000 0.0000 0.0000
# 4 0.0000 0.0000 0.0000 18.8138 0.0000 0.0000
# 5 0.0000 0.0000 0.0000 0.0000 8.9089 0.0000
# 6 0.0000 0.0000 0.0000 0.0000 0.0000 10.5375
#
#
#
# Elastic Compliance Matrix: (Units=1/GPa)
#
#
# Indices 1 2 3 4 5 6 
#
# 1 0.057413 -0.019558 -0.003146 0.000000 0.000000 0.000000
# 2 -0.019558 0.019132 0.002518 0.000000 0.000000 0.000000
# 3 -0.003146 0.002518 0.017187 0.000000 0.000000 0.000000
# 4 0.000000 0.000000 0.000000 0.053153 0.000000 0.000000
# 5 0.000000 0.000000 0.000000 0.000000 0.112248 0.000000
# 6 0.000000 0.000000 0.000000 0.000000 0.000000 0.094900
#
#
# Mechanical properties :
#
#
# Convention : Reuss Voigt Hill
#
# Bulk Modulus (GPa) = 18.74050 23.28417 21.01233
# Shear Modulus (GPa) = 12.13027 17.37552 14.75289
#
# Velocity S-wave (km/s) = 2.60739 3.12061 2.87547
# Velocity P-wave (km/s) = 4.42356 5.10236 4.77503
#
# Compressibility (1/GPa) = 0.05336037
#
# Stress axis : x y z
#
# Youngs Moduli (GPa) = 17.41769 52.26718 58.18187
#
# Poissons Ratio (x) = 1.02225 0.18307
# Poissons Ratio (y) = 0.34066 -0.14653
# Poissons Ratio (z) = 0.05480 -0.13163
#
# Static dielectric constant tensor:
#      x y z
#    x 1.619590 0.000000 0.000000 
#    y 0.000000 1.670590 0.000000 
#    z 0.000000 0.000000 1.616230 
# 
# From -- ./inp_files/3252.got.cif
#   From: 2010.05.17/outbox.cif.g08.bks.cpg/sg23_2_cif.got.tgz:3252.got - 2010.06.04 12:02:01.
