data_PCOD9329810
_publ_section_title
;
Structure prediction by ZEFSAII (Michael W. Deem and Ramdas Pophale) SiO2 
 PCOD9329810
Probable space group: I 2 2 2
;
_chemical_formula_sum "Si O2"
_cell_formula_units_Z 40
_cell_length_a 12.295944
_cell_length_b 8.979061
_cell_length_c 16.668685
_cell_angle_alpha 90.000000
_cell_angle_beta 90.000000
_cell_angle_gamma 90.000000
_cell_volume 1840.323357
_symmetry_space_group_name_H-M "I 2 2 2"
_symmetry_group_IT_number 23
_symmetry_cell_setting 'orthorhombic'
loop_
_space_group_symop_operation_xyz
x,y,z
-x,-y,z
x,-y,-z
-x,y,-z
1/2+x,1/2+y,1/2+z
1/2-x,1/2-y,1/2+z
1/2+x,1/2-y,1/2-z
1/2-x,1/2+y,1/2-z
loop_
_atom_site_type_symbol
_atom_site_label
_atom_site_fract_x
_atom_site_fract_y
_atom_site_fract_z
Si Si1 0.915698 0.706293 0.652456
Si Si2 0.766152 0.413951 0.914794
Si Si3 0.349284 0.332032 0.489499
Si Si4 0.344530 0.129334 0.880944
Si Si5 0.850940 0.302566 0.171530
O O1 0.842844 0.839555 0.618954
O O2 0.860374 0.545811 0.633684
O O3 0.919927 0.711521 0.749013
O O4 0.037447 0.701967 0.618906
O O5 0.815942 0.530969 0.852342
O O6 0.749364 0.500000 0.000000
O O7 0.848304 0.279807 0.936857
O O8 0.384106 0.500000 0.500000
O O9 0.221555 0.341129 0.462524
O O10 0.402926 0.263709 0.409814
O O11 0.261215 0.206871 0.818509
#
# Coordination Sequence:
#
# PCOD9329810 Si02
#       5
#     8   8   8   8   8
#     4  11  19  35  52  75 116 146 185 214 264 341
#     4  10  19  32  51  77 111 145 173 225 270 325
#     4   9  17  36  51  80 112 142 172 219 282 334
#     4   9  21  33  52  78 106 148 176 209 281 316
#     4   9  20  34  51  80 110 143 184 222 265 317
#
# _framework density 21.735310999999999
#
# number of rings (size 3 to 8) (size 9 to 14) (size 15 to 20)
#    1.200    1.200    2.000    1.200    0.000    1.600 
#    3.600    0.000    0.000    0.000    0.000   68.600 
#   18.000    0.000    0.000    0.000    0.000    0.000 
#
# Total GULP energy -111557.670503 kJ/mol
# GULP energy per Si atom -5577.883525 kJ/mol
# Density = 2.168584 g / cm^3
# Si number density = 21.735311 Si / 1000 Ang^3
#
#
#
# Elastic Constant Matrix: (Units=GPa)
#
#
# Indices 1 2 3 4 5 6 
#
# 1 99.4319 36.3280 22.1510 0.0000 0.0000 0.0000
# 2 36.3280 96.2187 3.5221 0.0000 0.0000 0.0000
# 3 22.1510 3.5221 53.4400 0.0000 0.0000 0.0000
# 4 0.0000 0.0000 0.0000 27.2414 0.0000 0.0000
# 5 0.0000 0.0000 0.0000 0.0000 336.7181 0.0000
# 6 0.0000 0.0000 0.0000 0.0000 0.0000 -9.5707
#
#
#
# Elastic Compliance Matrix: (Units=1/GPa)
#
#
# Indices 1 2 3 4 5 6 
#
# 1 0.012889 -0.004682 -0.005034 0.000000 0.000000 0.000000
# 2 -0.004682 0.012119 0.001142 0.000000 0.000000 0.000000
# 3 -0.005034 0.001142 0.020724 0.000000 0.000000 0.000000
# 4 0.000000 0.000000 0.000000 0.036709 0.000000 0.000000
# 5 0.000000 0.000000 0.000000 0.000000 0.002970 0.000000
# 6 0.000000 0.000000 0.000000 0.000000 0.000000 -0.104486
#
#
# Mechanical properties :
#
#
# Convention : Reuss Voigt Hill
#
# Bulk Modulus (GPa) = 34.98483 41.45477 38.21980
# Shear Modulus (GPa) = 657.76847 83.35039 370.55943
#
# Velocity S-wave (km/s) = 17.41504 6.19929 13.07124
# Velocity P-wave (km/s) = 20.50632 8.38782 15.66628
#
# Compressibility (1/GPa) = 0.02858382
#
# Stress axis : x y z
#
# Youngs Moduli (GPa) = 77.58409 82.51531 48.25344
#
# Poissons Ratio (x) = 0.38635 0.24291
# Poissons Ratio (y) = 0.36326 -0.05511
# Poissons Ratio (z) = 0.39056 -0.09424
#
# Static dielectric constant tensor:
#      x y z
#    x 1.786540 0.000000 0.000000 
#    y 0.000000 1.776270 0.000000 
#    z 0.000000 0.000000 1.815150 
# 
# From -- ./inp_files/9761.got.cif
#   From: 2010.05.17/outbox.cif.g08.bks.cpg/sg23_5_cif.got.tgz:9761.got - 2010.06.04 12:02:01.
