data_PCOD9329856
_publ_section_title
;
Structure prediction by ZEFSAII (Michael W. Deem and Ramdas Pophale) SiO2 
 PCOD9329856
Probable space group: I 2 2 2
;
_chemical_formula_sum "Si O2"
_cell_formula_units_Z 40
_cell_length_a 15.135203
_cell_length_b 7.097925
_cell_length_c 15.539772
_cell_angle_alpha 90.000000
_cell_angle_beta 90.000000
_cell_angle_gamma 90.000000
_cell_volume 1669.414952
_symmetry_space_group_name_H-M "I 2 2 2"
_symmetry_group_IT_number 23
_symmetry_cell_setting 'orthorhombic'
loop_
_space_group_symop_operation_xyz
x,y,z
-x,-y,z
x,-y,-z
-x,y,-z
1/2+x,1/2+y,1/2+z
1/2-x,1/2-y,1/2+z
1/2+x,1/2-y,1/2-z
1/2-x,1/2+y,1/2-z
loop_
_atom_site_type_symbol
_atom_site_label
_atom_site_fract_x
_atom_site_fract_y
_atom_site_fract_z
Si Si1 0.544614 0.705535 0.081001
Si Si2 0.228578 0.271855 0.498308
Si Si3 0.834033 0.269000 0.845915
Si Si4 0.519708 0.272456 0.727127
Si Si5 0.286810 0.668598 0.682662
O O1 0.500000 0.500000 0.086474
O O2 0.645717 0.695880 0.052353
O O3 0.526953 0.790013 0.173717
O O4 0.500000 0.803399 0.000000
O O5 0.223189 0.500000 0.500000
O O6 0.309869 0.194093 0.554806
O O7 0.233960 0.235178 0.396162
O O8 0.934886 0.309200 0.820916
O O9 0.769236 0.343333 0.770422
O O10 0.813122 0.044996 0.839775
O O11 0.500000 0.500000 0.726319
O O12 0.617404 0.235662 0.691223
#
# Coordination Sequence:
#
# PCOD9329856 Si02
#       5
#     8   8   8   8   8
#     4  10  19  33  55  87 114 149 201 247 292 352
#     4  10  21  36  57  88 124 157 196 251 311 355
#     4  10  20  37  57  85 119 155 200 247 298 362
#     4   9  18  33  57  82 113 154 200 237 288 355
#     4  10  20  37  58  84 118 159 198 248 301 355
#
# _framework density 23.960488000000002
#
# number of rings (size 3 to 8) (size 9 to 14) (size 15 to 20)
#    0.000    2.200    2.000    1.200    0.000    2.800 
#    0.000    5.000    0.000    0.000    0.000    2.800 
#    0.000    0.000    0.000    0.000    0.000    0.000 
#
# Total GULP energy -111699.775020 kJ/mol
# GULP energy per Si atom -5584.988751 kJ/mol
# Density = 2.390595 g / cm^3
# Si number density = 23.960488 Si / 1000 Ang^3
#
#
#
# Elastic Constant Matrix: (Units=GPa)
#
#
# Indices 1 2 3 4 5 6 
#
# 1 135.2800 9.9494 36.1371 0.0000 0.0000 0.0000
# 2 9.9494 86.1124 13.1511 0.0000 0.0000 0.0000
# 3 36.1371 13.1511 124.5785 0.0000 0.0000 0.0000
# 4 0.0000 0.0000 0.0000 3.1416 0.0000 0.0000
# 5 0.0000 0.0000 0.0000 0.0000 -97.3770 0.0000
# 6 0.0000 0.0000 0.0000 0.0000 0.0000 14.4373
#
#
#
# Elastic Compliance Matrix: (Units=1/GPa)
#
#
# Indices 1 2 3 4 5 6 
#
# 1 0.008042 -0.000582 -0.002271 0.000000 0.000000 0.000000
# 2 -0.000582 0.011845 -0.001082 0.000000 0.000000 0.000000
# 3 -0.002271 -0.001082 0.008800 0.000000 0.000000 0.000000
# 4 0.000000 0.000000 0.000000 0.318310 0.000000 0.000000
# 5 0.000000 0.000000 0.000000 0.000000 -0.010269 0.000000
# 6 0.000000 0.000000 0.000000 0.000000 0.000000 0.069265
#
#
# Mechanical properties :
#
#
# Convention : Reuss Voigt Hill
#
# Bulk Modulus (GPa) = 48.03803 51.60511 49.82157
# Shear Modulus (GPa) = 11.88209 3.15593 7.51901
#
# Velocity S-wave (km/s) = 2.22930 1.14891 1.77339
# Velocity P-wave (km/s) = 5.16902 4.83160 5.00316
#
# Compressibility (1/GPa) = 0.02081684
#
# Stress axis : x y z
#
# Youngs Moduli (GPa) = 124.35337 84.42259 113.63567
#
# Poissons Ratio (x) = 0.04916 0.25809
# Poissons Ratio (y) = 0.07241 0.12290
# Poissons Ratio (z) = 0.28243 0.09131
#
# Static dielectric constant tensor:
#      x y z
#    x 1.943000 0.000000 0.000000 
#    y 0.000000 2.071640 0.000000 
#    z 0.000000 0.000000 1.911740 
# 
# From -- ./inp_files/9568.got.cif
#   From: 2010.05.17/outbox.cif.g08.bks.cpg/sg23_5_cif.got.tgz:9568.got - 2010.06.04 12:02:01.
