data_PCOD9329729
_publ_section_title
;
Structure prediction by ZEFSAII (Michael W. Deem and Ramdas Pophale) SiO2 
 PCOD9329729
Probable space group: I 2 2 2
;
_chemical_formula_sum "Si O2"
_cell_formula_units_Z 64
_cell_length_a 14.450914
_cell_length_b 11.671779
_cell_length_c 16.618291
_cell_angle_alpha 90.000000
_cell_angle_beta 90.000000
_cell_angle_gamma 90.000000
_cell_volume 2802.971822
_symmetry_space_group_name_H-M "I 2 2 2"
_symmetry_group_IT_number 23
_symmetry_cell_setting 'orthorhombic'
loop_
_space_group_symop_operation_xyz
x,y,z
-x,-y,z
x,-y,-z
-x,y,-z
1/2+x,1/2+y,1/2+z
1/2-x,1/2-y,1/2+z
1/2+x,1/2-y,1/2-z
1/2-x,1/2+y,1/2-z
loop_
_atom_site_type_symbol
_atom_site_label
_atom_site_fract_x
_atom_site_fract_y
_atom_site_fract_z
Si Si1 0.923063 0.643686 0.436108
Si Si2 0.372436 0.492948 0.759381
Si Si3 0.752856 0.869094 0.385146
Si Si4 0.438828 0.283397 0.168187
Si Si5 0.946173 0.381727 0.181574
Si Si6 0.276498 0.259430 0.044604
Si Si7 0.393569 0.729510 0.346632
Si Si8 0.303452 0.131129 0.800356
O O1 0.835340 0.668467 0.492934
O O2 0.880334 0.576152 0.360209
O O3 0.000000 0.608003 0.500000
O O4 0.975133 0.750690 0.390143
O O5 0.333435 0.438502 0.841669
O O6 0.440130 0.596459 0.784752
O O7 0.400356 0.393053 0.697178
O O8 0.280567 0.549699 0.720305
O O9 0.651561 0.908640 0.359132
O O10 0.762534 0.860559 0.480527
O O11 0.762823 0.741203 0.347520
O O12 0.431052 0.182259 0.233374
O O13 0.345511 0.289110 0.116622
O O14 0.009022 0.289338 0.133017
O O15 0.000000 0.500000 0.190247
O O16 0.178953 0.222509 0.080938
O O17 0.350455 0.815469 0.278873
#
# Coordination Sequence:
#
# PCOD9329729 Si02
#       8
#     8   8   8   8   8   8   8   8
#     4   9  20  38  68 100 145 185 231 300 358 430
#     4  11  22  41  75 104 140 194 242 293 368 443
#     4  10  23  41  65 100 142 190 233 296 357 448
#     4  11  21  42  73 104 143 180 234 305 355 431
#     4  12  25  44  73 103 138 181 248 302 346 431
#     4  10  22  44  66  97 150 182 231 287 372 432
#     4  11  23  41  69  99 137 193 240 289 355 438
#     4  10  18  41  64  97 142 183 238 280 357 437
#
# _framework density 22.832908
#
# number of rings (size 3 to 8) (size 9 to 14) (size 15 to 20)
#    0.000    1.500    3.750    1.500    0.000    1.500 
#    0.000    3.125    5.500    0.000    6.500    0.000 
#    0.000    0.000    0.000    0.000    0.000    0.000 
#
# Total GULP energy -178792.834690 kJ/mol
# GULP energy per Si atom -5587.276084 kJ/mol
# Density = 2.278094 g / cm^3
# Si number density = 22.832908 Si / 1000 Ang^3
#
#
#
# Elastic Constant Matrix: (Units=GPa)
#
#
# Indices 1 2 3 4 5 6 
#
# 1 59.2135 29.4953 45.4075 0.0000 0.0000 0.0000
# 2 29.4953 89.6774 12.7419 0.0000 0.0000 0.0000
# 3 45.4075 12.7419 80.5663 0.0000 0.0000 0.0000
# 4 0.0000 0.0000 0.0000 1.0177 0.0000 0.0000
# 5 0.0000 0.0000 0.0000 0.0000 50.0630 0.0000
# 6 0.0000 0.0000 0.0000 0.0000 0.0000 16.5539
#
#
#
# Elastic Compliance Matrix: (Units=1/GPa)
#
#
# Indices 1 2 3 4 5 6 
#
# 1 0.035789 -0.009110 -0.018730 0.000000 0.000000 0.000000
# 2 -0.009110 0.013726 0.002963 0.000000 0.000000 0.000000
# 3 -0.018730 0.002963 0.022500 0.000000 0.000000 0.000000
# 4 0.000000 0.000000 0.000000 0.982602 0.000000 0.000000
# 5 0.000000 0.000000 0.000000 0.000000 0.019975 0.000000
# 6 0.000000 0.000000 0.000000 0.000000 0.000000 0.060409
#
#
# Mechanical properties :
#
#
# Convention : Reuss Voigt Hill
#
# Bulk Modulus (GPa) = 44.91927 44.97186 44.94556
# Shear Modulus (GPa) = 4.19402 22.98110 13.58756
#
# Velocity S-wave (km/s) = 1.35677 3.17596 2.44209
# Velocity P-wave (km/s) = 4.70852 5.76089 5.26108
#
# Compressibility (1/GPa) = 0.02226216
#
# Stress axis : x y z
#
# Youngs Moduli (GPa) = 27.94178 72.85296 44.44505
#
# Poissons Ratio (x) = 0.66368 0.83245
# Poissons Ratio (y) = 0.25454 -0.13171
# Poissons Ratio (z) = 0.52335 -0.21590
#
# Static dielectric constant tensor:
#      x y z
#    x 1.907230 0.000000 0.000000 
#    y 0.000000 1.881980 0.000000 
#    z 0.000000 0.000000 1.858650 
# 
# From -- ./inp_files/24858.got.cif
#   From: 2010.05.17/outbox.cif.g08.bks.cpg/sg23_13_cif.got.tgz:24858.got - 2010.06.04 12:02:01.
