data_PCOD9329617
_publ_section_title
;
Structure prediction by ZEFSAII (Michael W. Deem and Ramdas Pophale) SiO2 
 PCOD9329617
Probable space group: I 2 2 2
;
_chemical_formula_sum "Si O2"
_cell_formula_units_Z 56
_cell_length_a 14.150943
_cell_length_b 11.776152
_cell_length_c 15.409866
_cell_angle_alpha 90.000000
_cell_angle_beta 90.000000
_cell_angle_gamma 90.000000
_cell_volume 2567.956404
_symmetry_space_group_name_H-M "I 2 2 2"
_symmetry_group_IT_number 23
_symmetry_cell_setting 'orthorhombic'
loop_
_space_group_symop_operation_xyz
x,y,z
-x,-y,z
x,-y,-z
-x,y,-z
1/2+x,1/2+y,1/2+z
1/2-x,1/2-y,1/2+z
1/2+x,1/2-y,1/2-z
1/2-x,1/2+y,1/2-z
loop_
_atom_site_type_symbol
_atom_site_label
_atom_site_fract_x
_atom_site_fract_y
_atom_site_fract_z
Si Si1 0.736653 0.630550 0.993263
Si Si2 0.569661 0.177995 0.580314
Si Si3 0.292627 0.269357 0.176467
Si Si4 0.388434 0.510086 0.767937
Si Si5 0.468343 0.871659 0.780726
Si Si6 0.349549 0.268084 0.835140
Si Si7 0.894174 0.947133 0.916558
O O1 0.834002 0.613683 0.940904
O O2 0.681327 0.725100 0.935432
O O3 0.696356 0.500000 0.000000
O O4 0.755514 0.695004 0.085288
O O5 0.500000 0.156759 0.500000
O O6 0.533402 0.147733 0.676050
O O7 0.593661 0.312558 0.581074
O O8 0.364399 0.373471 0.187748
O O9 0.363649 0.161917 0.184081
O O10 0.222264 0.273499 0.259336
O O11 0.500000 0.500000 0.761020
O O12 0.353036 0.401679 0.816380
O O13 0.346372 0.513388 0.671426
O O14 0.550239 0.791311 0.819758
O O15 0.500000 0.000000 0.798195
O O16 0.000000 0.000000 0.915123
O O17 0.845483 0.000000 0.000000
#
# Coordination Sequence:
#
# PCOD9329617 Si02
#       7
#     8   8   8   8   8   8   8
#     4  12  28  46  74 110 146 195 258 315 379 451
#     4  12  24  42  66 110 146 192 249 309 388 450
#     4  12  26  48  72 110 150 192 256 310 377 449
#     4  11  21  42  70  98 135 190 248 308 363 432
#     4  12  28  49  75 105 153 207 248 310 386 455
#     4  12  26  47  75 107 151 195 250 315 373 446
#     4  10  18  33  60  97 136 173 235 296 362 437
#
# _framework density 21.807223
#
# number of rings (size 3 to 8) (size 9 to 14) (size 15 to 20)
#    0.000    0.429    7.143    1.714    8.000    0.571 
#    0.000    2.857    0.000    0.000    0.000    0.000 
#    0.000    0.000    0.000    0.000    0.000    0.000 
#
# Total GULP energy -156280.545303 kJ/mol
# GULP energy per Si atom -5581.448047 kJ/mol
# Density = 2.175759 g / cm^3
# Si number density = 21.807223 Si / 1000 Ang^3
#
#
#
# Elastic Constant Matrix: (Units=GPa)
#
#
# Indices 1 2 3 4 5 6 
#
# 1 59.3417 0.5989 2.5858 0.0000 0.0000 0.0000
# 2 0.5989 83.4143 6.6726 0.0000 0.0000 0.0000
# 3 2.5858 6.6726 84.7818 0.0000 0.0000 0.0000
# 4 0.0000 0.0000 0.0000 37.4355 0.0000 0.0000
# 5 0.0000 0.0000 0.0000 0.0000 32.0392 0.0000
# 6 0.0000 0.0000 0.0000 0.0000 0.0000 23.9009
#
#
#
# Elastic Compliance Matrix: (Units=1/GPa)
#
#
# Indices 1 2 3 4 5 6 
#
# 1 0.016875 -0.000080 -0.000508 0.000000 0.000000 0.000000
# 2 -0.000080 0.012065 -0.000947 0.000000 0.000000 0.000000
# 3 -0.000508 -0.000947 0.011885 0.000000 0.000000 0.000000
# 4 0.000000 0.000000 0.000000 0.026713 0.000000 0.000000
# 5 0.000000 0.000000 0.000000 0.000000 0.031212 0.000000
# 6 0.000000 0.000000 0.000000 0.000000 0.000000 0.041839
#
#
# Mechanical properties :
#
#
# Convention : Reuss Voigt Hill
#
# Bulk Modulus (GPa) = 26.48837 27.47250 26.98043
# Shear Modulus (GPa) = 32.00124 33.18716 32.59420
#
# Velocity S-wave (km/s) = 3.83490 3.90531 3.87027
# Velocity P-wave (km/s) = 5.63752 5.74113 5.68956
#
# Compressibility (1/GPa) = 0.03775242
#
# Stress axis : x y z
#
# Youngs Moduli (GPa) = 59.26098 82.88649 84.13950
#
# Poissons Ratio (x) = 0.00667 0.04277
# Poissons Ratio (y) = 0.00477 0.07969
# Poissons Ratio (z) = 0.03012 0.07850
#
# Static dielectric constant tensor:
#      x y z
#    x 1.854980 0.000000 0.000000 
#    y 0.000000 1.802220 0.000000 
#    z 0.000000 0.000000 1.975380 
# 
# From -- ./inp_files/20916.got.cif
#   From: 2010.05.17/outbox.cif.g08.bks.cpg/sg23_11_cif.got.tgz:20916.got - 2010.06.04 12:02:01.
