data_PCOD9329155
_publ_section_title
;
Structure prediction by ZEFSAII (Michael W. Deem and Ramdas Pophale) SiO2 
 PCOD9329155
Probable space group: F 2 2 2
;
_chemical_formula_sum "Si O2"
_cell_formula_units_Z 40
_cell_length_a 7.154126
_cell_length_b 19.201222
_cell_length_c 12.684768
_cell_angle_alpha 90.000000
_cell_angle_beta 90.000000
_cell_angle_gamma 90.000000
_cell_volume 1742.480723
_symmetry_space_group_name_H-M "F 2 2 2"
_symmetry_group_IT_number 22
_symmetry_cell_setting 'orthorhombic'
loop_
_space_group_symop_operation_xyz
x,y,z
-x,-y,z
x,-y,-z
-x,y,-z
x,1/2+y,1/2+z
-x,1/2-y,1/2+z
x,1/2-y,1/2-z
-x,1/2+y,1/2-z
1/2+x,y,1/2+z
1/2-x,-y,1/2+z
1/2+x,-y,1/2-z
1/2-x,y,1/2-z
1/2+x,1/2+y,z
1/2-x,1/2-y,z
1/2+x,1/2-y,-z
1/2-x,1/2+y,-z
loop_
_atom_site_type_symbol
_atom_site_label
_atom_site_fract_x
_atom_site_fract_y
_atom_site_fract_z
Si Si1 0.250000 0.143076 0.750000
Si Si2 0.717228 0.578063 0.525703
Si Si3 0.640718 0.676589 0.154315
O O1 0.283414 0.095071 0.851070
O O2 0.430986 0.183654 0.701187
O O3 0.779706 0.500000 0.500000
O O4 0.500000 0.585168 0.500000
O O5 0.827473 0.631771 0.450292
O O6 0.750000 0.639349 0.250000
O O7 0.750000 0.750000 0.137908
#
# Coordination Sequence:
#
# PCOD9329155 Si02
#       3
#     8  16  16
#     4  12  26  49  80 108 151 210 246 322 388 449
#     4  11  26  47  79 115 153 204 256 314 381 461
#     4  11  26  50  74 112 154 195 260 315 378 452
#
# _framework density 22.955777999999999
#
# number of rings (size 3 to 8) (size 9 to 14) (size 15 to 20)
#    0.000    0.800    4.000    1.200    2.800    9.600 
#    0.000    0.000    0.000    0.000    0.000    0.000 
#    0.000    0.000    0.000    0.000    0.000    0.000 
#
# Total GULP energy -55774.635152 kJ/mol
# GULP energy per Si atom -5577.463515 kJ/mol
# Density = 2.290353 g / cm^3
# Si number density = 22.955778 Si / 1000 Ang^3
#
#
#
# Elastic Constant Matrix: (Units=GPa)
#
#
# Indices 1 2 3 4 5 6 
#
# 1 190.5553 76.9946 71.8655 0.0000 0.0000 0.0000
# 2 76.9946 162.1682 115.1886 0.0000 0.0000 0.0000
# 3 71.8655 115.1886 255.7242 0.0000 0.0000 0.0000
# 4 0.0000 0.0000 0.0000 1991.3352 0.0000 0.0000
# 5 0.0000 0.0000 0.0000 0.0000 46.8153 0.0000
# 6 0.0000 0.0000 0.0000 0.0000 0.0000 21.7867
#
#
#
# Elastic Compliance Matrix: (Units=1/GPa)
#
#
# Indices 1 2 3 4 5 6 
#
# 1 0.006566 -0.002657 -0.000648 0.000000 0.000000 0.000000
# 2 -0.002657 0.010143 -0.003822 0.000000 0.000000 0.000000
# 3 -0.000648 -0.003822 0.005814 0.000000 0.000000 0.000000
# 4 0.000000 0.000000 0.000000 0.000502 0.000000 0.000000
# 5 0.000000 0.000000 0.000000 0.000000 0.021361 0.000000
# 6 0.000000 0.000000 0.000000 0.000000 0.000000 0.045900
#
#
# Mechanical properties :
#
#
# Convention : Reuss Voigt Hill
#
# Bulk Modulus (GPa) = 120.94428 126.28281 123.61354
# Shear Modulus (GPa) = 46.60021 434.94738 240.77380
#
# Velocity S-wave (km/s) = 4.51044 13.77981 10.25249
# Velocity P-wave (km/s) = 8.94011 17.55871 13.93259
#
# Compressibility (1/GPa) = 0.00826827
#
# Stress axis : x y z
#
# Youngs Moduli (GPa) = 152.30322 98.59402 171.98975
#
# Poissons Ratio (x) = 0.26194 0.11153
# Poissons Ratio (y) = 0.40463 0.65735
# Poissons Ratio (z) = 0.09877 0.37683
#
# Static dielectric constant tensor:
#      x y z
#    x 1.152670 0.000000 0.000000 
#    y 0.000000 1.943170 0.000000 
#    z 0.000000 0.000000 1.806460 
# 
# From -- ./inp_files/16516.got.cif
#   From: 2010.05.17/outbox.cif.g08.bks.cpg/sg22_9_cif.got.tgz:16516.got - 2010.06.03 23:40:54.
