data_PCOD9329909
_publ_section_title
;
Structure prediction by ZEFSAII (Michael W. Deem and Ramdas Pophale) SiO2 
 PCOD9329909
Probable space group: I 2 2 2
;
_chemical_formula_sum "Si O2"
_cell_formula_units_Z 48
_cell_length_a 17.910614
_cell_length_b 22.540026
_cell_length_c 5.218464
_cell_angle_alpha 90.000000
_cell_angle_beta 90.000000
_cell_angle_gamma 90.000000
_cell_volume 2106.723689
_symmetry_space_group_name_H-M "I 2 2 2"
_symmetry_group_IT_number 23
_symmetry_cell_setting 'orthorhombic'
loop_
_space_group_symop_operation_xyz
x,y,z
-x,-y,z
x,-y,-z
-x,y,-z
1/2+x,1/2+y,1/2+z
1/2-x,1/2-y,1/2+z
1/2+x,1/2-y,1/2-z
1/2-x,1/2+y,1/2-z
loop_
_atom_site_type_symbol
_atom_site_label
_atom_site_fract_x
_atom_site_fract_y
_atom_site_fract_z
Si Si1 0.545947 0.236613 0.745753
Si Si2 0.466581 0.432131 0.247233
Si Si3 0.708925 0.561304 0.153665
Si Si4 0.211175 0.597774 0.332519
Si Si5 0.454104 0.092218 0.255403
Si Si6 0.792539 0.265994 0.402690
O O1 0.500000 0.257777 0.500000
O O2 0.550506 0.164406 0.722218
O O3 0.630110 0.259388 0.787943
O O4 0.500000 0.249403 0.000000
O O5 0.500000 0.500000 0.247554
O O6 0.500000 0.404109 0.500000
O O7 0.378127 0.432875 0.223304
O O8 0.500000 0.401510 0.000000
O O9 0.750777 0.565940 0.424673
O O10 0.718405 0.500000 0.000000
O O11 0.740520 0.603885 0.929541
O O12 0.130996 0.570376 0.260221
O O13 0.197122 0.663814 0.435163
O O14 0.500000 0.070914 0.500000
O O15 0.500000 0.078260 0.000000
O O16 0.768934 0.243548 0.681761
#
# Coordination Sequence:
#
# PCOD9329909 Si02
#       6
#     8   8   8   8   8   8
#     4   9  17  31  55  86 107 145 204 254 288 340
#     4  10  19  34  59  86 112 154 217 254 292 354
#     4  12  23  39  62  92 128 159 198 271 314 359
#     4  11  24  38  61  96 125 157 211 262 317 371
#     4   9  17  33  57  83 115 149 198 252 286 350
#     4  11  22  39  63  88 124 167 203 255 320 383
#
# _framework density 22.784193999999999
#
# number of rings (size 3 to 8) (size 9 to 14) (size 15 to 20)
#    0.000    1.667    1.667    4.500    2.333    5.333 
#    0.000    0.000    0.000   27.500    0.000    0.000 
#    0.000    0.000    0.000    0.000    0.000    0.000 
#
# Total GULP energy -134088.168252 kJ/mol
# GULP energy per Si atom -5587.007010 kJ/mol
# Density = 2.273234 g / cm^3
# Si number density = 22.784194 Si / 1000 Ang^3
#
#
#
# Elastic Constant Matrix: (Units=GPa)
#
#
# Indices 1 2 3 4 5 6 
#
# 1 180.0763 3.1491 81.1671 0.0000 0.0000 0.0000
# 2 3.1491 31.8996 -5.3657 0.0000 0.0000 0.0000
# 3 81.1671 -5.3657 199.9951 0.0000 0.0000 0.0000
# 4 0.0000 0.0000 0.0000 -0.7975 0.0000 0.0000
# 5 0.0000 0.0000 0.0000 0.0000 39.0172 0.0000
# 6 0.0000 0.0000 0.0000 0.0000 0.0000 32.3734
#
#
#
# Elastic Compliance Matrix: (Units=1/GPa)
#
#
# Indices 1 2 3 4 5 6 
#
# 1 0.006838 -0.001147 -0.002806 0.000000 0.000000 0.000000
# 2 -0.001147 0.031683 0.001316 0.000000 0.000000 0.000000
# 3 -0.002806 0.001316 0.006174 0.000000 0.000000 0.000000
# 4 0.000000 0.000000 0.000000 -1.253889 0.000000 0.000000
# 5 0.000000 0.000000 0.000000 0.000000 0.025630 0.000000
# 6 0.000000 0.000000 0.000000 0.000000 0.000000 0.030890
#
#
# Mechanical properties :
#
#
# Convention : Reuss Voigt Hill
#
# Bulk Modulus (GPa) = 25.36768 63.31912 44.34340
# Shear Modulus (GPa) = -4.40816 36.31999 15.95591
#
# Velocity S-wave (km/s) = -1.39246 3.99693 2.64920
# Velocity P-wave (km/s) = 2.92793 7.01083 5.37236
#
# Compressibility (1/GPa) = 0.03942025
#
# Stress axis : x y z
#
# Youngs Moduli (GPa) = 146.24150 31.56277 161.96437
#
# Poissons Ratio (x) = 0.03620 0.45446
# Poissons Ratio (y) = 0.16774 -0.21307
# Poissons Ratio (z) = 0.41035 -0.04152
#
# Static dielectric constant tensor:
#      x y z
#    x 1.860250 0.000000 0.000000 
#    y 0.000000 1.905700 0.000000 
#    z 0.000000 0.000000 1.775070 
# 
# From -- ./inp_files/2557.got.cif
#   From: 2010.05.17/outbox.cif.g08.bks.cpg/sg23_2_cif.got.tgz:2557.got - 2010.06.04 12:02:01.
