data_PCOD9329758
_publ_section_title
;
Structure prediction by ZEFSAII (Michael W. Deem and Ramdas Pophale) SiO2 
 PCOD9329758
Probable space group: I 2 2 2
;
_chemical_formula_sum "Si O2"
_cell_formula_units_Z 38
_cell_length_a 5.087510
_cell_length_b 17.712509
_cell_length_c 18.180189
_cell_angle_alpha 90.000000
_cell_angle_beta 90.000000
_cell_angle_gamma 90.000000
_cell_volume 1638.263493
_symmetry_space_group_name_H-M "I 2 2 2"
_symmetry_group_IT_number 23
_symmetry_cell_setting 'orthorhombic'
loop_
_space_group_symop_operation_xyz
x,y,z
-x,-y,z
x,-y,-z
-x,y,-z
1/2+x,1/2+y,1/2+z
1/2-x,1/2-y,1/2+z
1/2+x,1/2-y,1/2-z
1/2-x,1/2+y,1/2-z
loop_
_atom_site_type_symbol
_atom_site_label
_atom_site_fract_x
_atom_site_fract_y
_atom_site_fract_z
Si Si1 0.500000 0.759145 0.500000
Si Si2 0.218857 0.344221 0.295548
Si Si3 0.500000 0.000000 0.500000
Si Si4 0.336659 0.374007 0.072640
Si Si5 0.753997 0.388744 0.544008
Si Si6 0.712185 0.663186 0.796517
O O1 0.613056 0.808888 0.567453
O O2 0.283391 0.701756 0.530645
O O3 0.192808 0.393071 0.369313
O O4 0.003957 0.360096 0.230792
O O5 0.191435 0.253774 0.308297
O O6 0.518144 0.354843 0.270962
O O7 0.681727 0.950111 0.553425
O O8 0.552010 0.374436 0.136422
O O9 0.500000 0.356841 0.000000
O O10 0.500000 0.418225 0.500000
O O11 0.000000 0.416434 0.500000
#
# Coordination Sequence:
#
# PCOD9329758 Si02
#       6
#     4   8   2   8   8   8
#     4   9  20  27  56  72 102 138 194 244 294 348
#     4  10  20  33  46  80 106 145 182 233 291 363
#     4  10  26  40  60  74 108 140 232 272 324 326
#     4  11  22  38  55  77 100 148 202 265 310 345
#     4  10  19  30  49  73 106 147 183 225 266 346
#     4  10  22  31  52  71 111 138 186 244 302 345
#
# _framework density 23.195294000000001
#
# number of rings (size 3 to 8) (size 9 to 14) (size 15 to 20)
#    0.632    1.263    0.000    4.737   14.737    0.000 
#    0.000    0.000    0.000    0.000    0.000    0.000 
#    0.000    0.000    0.000    0.947    8.421    1.684 
#
# Total GULP energy -105969.018126 kJ/mol
# GULP energy per Si atom -5577.316743 kJ/mol
# Density = 2.314250 g / cm^3
# Si number density = 23.195294 Si / 1000 Ang^3
#
#
#
# Elastic Constant Matrix: (Units=GPa)
#
#
# Indices 1 2 3 4 5 6 
#
# 1 122.3961 12.3368 6.3804 0.0000 0.0000 0.0000
# 2 12.3368 62.5195 2.0280 0.0000 0.0000 0.0000
# 3 6.3804 2.0280 99.8173 0.0000 0.0000 0.0000
# 4 0.0000 0.0000 0.0000 -1.4485 0.0000 0.0000
# 5 0.0000 0.0000 0.0000 0.0000 47.9268 0.0000
# 6 0.0000 0.0000 0.0000 0.0000 0.0000 20.3403
#
#
#
# Elastic Compliance Matrix: (Units=1/GPa)
#
#
# Indices 1 2 3 4 5 6 
#
# 1 0.008361 -0.001634 -0.000501 0.000000 0.000000 0.000000
# 2 -0.001634 0.016325 -0.000227 0.000000 0.000000 0.000000
# 3 -0.000501 -0.000227 0.010055 0.000000 0.000000 0.000000
# 4 0.000000 0.000000 0.000000 -0.690374 0.000000 0.000001
# 5 0.000000 0.000000 0.000000 0.000000 0.020865 0.000000
# 6 0.000000 0.000000 0.000000 0.000001 0.000000 0.049163
#
#
# Mechanical properties :
#
#
# Convention : Reuss Voigt Hill
#
# Bulk Modulus (GPa) = 33.31500 36.24701 34.78101
# Shear Modulus (GPa) = -8.75849 30.96291 11.10221
#
# Velocity S-wave (km/s) = -1.94530 3.65756 2.19016
# Velocity P-wave (km/s) = 3.05752 5.78773 4.62851
#
# Compressibility (1/GPa) = 0.03001651
#
# Stress axis : x y z
#
# Youngs Moduli (GPa) = 119.60315 61.25671 99.45338
#
# Poissons Ratio (x) = 0.10007 0.04985
# Poissons Ratio (y) = 0.19538 0.02260
# Poissons Ratio (z) = 0.05995 0.01392
#
# Static dielectric constant tensor:
#      x y z
#    x 1.940590 0.000000 0.000000 
#    y 0.000000 1.893830 0.000000 
#    z 0.000000 0.000000 2.127420 
# 
# From -- ./inp_files/23164.got.cif
#   From: 2010.05.17/outbox.cif.g08.bks.cpg/sg23_12_cif.got.tgz:23164.got - 2010.06.04 12:02:01.
