data_PCOD9329151
_publ_section_title
;
Structure prediction by ZEFSAII (Michael W. Deem and Ramdas Pophale) SiO2 
 PCOD9329151
Probable space group: F 2 2 2
;
_chemical_formula_sum "Si O2"
_cell_formula_units_Z 64
_cell_length_a 20.585185
_cell_length_b 13.794898
_cell_length_c 10.370543
_cell_angle_alpha 90.000000
_cell_angle_beta 90.000000
_cell_angle_gamma 90.000000
_cell_volume 2944.928565
_symmetry_space_group_name_H-M "F 2 2 2"
_symmetry_group_IT_number 22
_symmetry_cell_setting 'orthorhombic'
loop_
_space_group_symop_operation_xyz
x,y,z
-x,-y,z
x,-y,-z
-x,y,-z
x,1/2+y,1/2+z
-x,1/2-y,1/2+z
x,1/2-y,1/2-z
-x,1/2+y,1/2-z
1/2+x,y,1/2+z
1/2-x,-y,1/2+z
1/2+x,-y,1/2-z
1/2-x,y,1/2-z
1/2+x,1/2+y,z
1/2-x,1/2-y,z
1/2+x,1/2-y,-z
1/2-x,1/2+y,-z
loop_
_atom_site_type_symbol
_atom_site_label
_atom_site_fract_x
_atom_site_fract_y
_atom_site_fract_z
Si Si1 0.491681 0.614467 0.353373
Si Si2 0.750000 0.981265 0.250000
Si Si3 0.402880 0.750000 0.750000
Si Si4 0.649959 0.360160 0.232270
Si Si5 0.694864 0.328774 0.955643
O O1 0.500000 0.500000 0.357006
O O2 0.500000 0.652492 0.500000
O O3 0.549710 0.660089 0.271991
O O4 0.422182 0.636825 0.290168
O O5 0.725470 0.911192 0.363731
O O6 0.693324 0.055138 0.204982
O O7 0.357342 0.729708 0.871154
O O8 0.673447 0.250000 0.250000
O O9 0.659506 0.374376 0.079195
O O10 0.750000 0.250000 0.990843
#
# Coordination Sequence:
#
# PCOD9329151 Si02
#       5
#    16   8   8  16  16
#     4  11  26  47  72 105 145 195 242 302 367 443
#     4  12  24  46  70 114 144 198 244 302 368 430
#     4  12  23  46  76 105 148 188 248 300 366 433
#     4  12  26  47  71 107 147 192 245 302 367 439
#     4  12  25  47  75 107 148 193 246 305 368 435
#
# _framework density 21.732275999999999
#
# number of rings (size 3 to 8) (size 9 to 14) (size 15 to 20)
#    0.000    0.250    3.750    5.625    0.000    0.000 
#    9.000    1.250    0.000    0.000    0.000    0.000 
#    0.000    0.000    0.000    0.000    0.000    0.000 
#
# Total GULP energy -89542.930092 kJ/mol
# GULP energy per Si atom -5596.433131 kJ/mol
# Density = 2.168281 g / cm^3
# Si number density = 21.732276 Si / 1000 Ang^3
#
#
#
# Elastic Constant Matrix: (Units=GPa)
#
#
# Indices 1 2 3 4 5 6 
#
# 1 175.0010 43.1365 67.2729 0.0000 0.0000 0.0000
# 2 43.1365 108.1667 22.2021 0.0000 0.0000 0.0000
# 3 67.2729 22.2021 110.8675 0.0000 0.0000 0.0000
# 4 0.0000 0.0000 0.0000 35.0970 0.0000 0.0000
# 5 0.0000 0.0000 0.0000 0.0000 41.6910 0.0000
# 6 0.0000 0.0000 0.0000 0.0000 0.0000 72.3996
#
#
#
# Elastic Compliance Matrix: (Units=1/GPa)
#
#
# Indices 1 2 3 4 5 6 
#
# 1 0.007956 -0.002275 -0.004372 0.000000 0.000000 0.000000
# 2 -0.002275 0.010292 -0.000680 0.000000 0.000000 0.000000
# 3 -0.004372 -0.000680 0.011809 0.000000 0.000000 0.000000
# 4 0.000000 0.000000 0.000000 0.028492 0.000000 0.000000
# 5 0.000000 0.000000 0.000000 0.000000 0.023986 0.000000
# 6 0.000000 0.000000 0.000000 0.000000 0.000000 0.013812
#
#
# Mechanical properties :
#
#
# Convention : Reuss Voigt Hill
#
# Bulk Modulus (GPa) = 64.92890 73.25091 69.08991
# Shear Modulus (GPa) = 43.05298 47.26576 45.15937
#
# Velocity S-wave (km/s) = 4.45574 4.66865 4.56344
# Velocity P-wave (km/s) = 7.51086 7.92723 7.72185
#
# Compressibility (1/GPa) = 0.01540146
#
# Stress axis : x y z
#
# Youngs Moduli (GPa) = 125.69654 97.16236 84.68306
#
# Poissons Ratio (x) = 0.22108 0.37021
# Poissons Ratio (y) = 0.28600 0.05762
# Poissons Ratio (z) = 0.54951 0.06611
#
# Static dielectric constant tensor:
#      x y z
#    x 1.789440 0.000000 0.000000 
#    y 0.000000 1.784840 0.000000 
#    z 0.000000 0.000000 1.834840 
# 
# From -- ./inp_files/20873.got.cif
#   From: 2010.05.17/outbox.cif.g08.bks.cpg/sg22_11_cif.got.tgz:20873.got - 2010.06.03 23:40:54.
