data_PCOD9329557
_publ_section_title
;
Structure prediction by ZEFSAII (Michael W. Deem and Ramdas Pophale) SiO2 
 PCOD9329557
Probable space group: I 2 2 2
;
_chemical_formula_sum "Si O2"
_cell_formula_units_Z 34
_cell_length_a 9.089015
_cell_length_b 8.781052
_cell_length_c 20.646306
_cell_angle_alpha 90.000000
_cell_angle_beta 90.000000
_cell_angle_gamma 90.000000
_cell_volume 1647.804668
_symmetry_space_group_name_H-M "I 2 2 2"
_symmetry_group_IT_number 23
_symmetry_cell_setting 'orthorhombic'
loop_
_space_group_symop_operation_xyz
x,y,z
-x,-y,z
x,-y,-z
-x,y,-z
1/2+x,1/2+y,1/2+z
1/2-x,1/2-y,1/2+z
1/2+x,1/2-y,1/2-z
1/2-x,1/2+y,1/2-z
loop_
_atom_site_type_symbol
_atom_site_label
_atom_site_fract_x
_atom_site_fract_y
_atom_site_fract_z
Si Si1 0.000000 0.000000 0.158983
Si Si2 0.500000 0.000000 0.500000
Si Si3 0.000000 0.500000 0.341979
Si Si4 0.249149 0.707671 0.715886
Si Si5 0.341814 0.039818 0.380666
Si Si6 0.251257 0.210020 0.133252
O O1 0.106352 0.110867 0.118606
O O2 0.892939 0.104977 0.202043
O O3 0.397917 0.095515 0.450936
O O4 0.891776 0.604226 0.299256
O O5 0.894853 0.387802 0.382372
O O6 0.249982 0.769015 0.788401
O O7 0.256364 0.844231 0.664058
O O8 0.259110 0.881017 0.392117
O O9 0.500000 0.000000 0.347503
#
# Coordination Sequence:
#
# PCOD9329557 Si02
#       6
#     4   2   4   8   8   8
#     4  10  18  32  48  71 112 161 184 238 280 362
#     4   8  20  38  68  92 108 154 232 258 264 324
#     4  10  24  33  48  87 118 156 184 238 316 368
#     4  11  21  33  55  83 126 155 196 241 308 362
#     4  10  20  38  63  90 109 154 211 257 278 338
#     4  11  21  33  55  83 126 155 196 241 308 362
#
# _framework density 20.633514999999999
#
# number of rings (size 3 to 8) (size 9 to 14) (size 15 to 20)
#    0.706    0.941    2.353    4.235    3.294    0.941 
#    0.000    0.000    0.000   29.647    0.000    0.000 
#    0.000    0.000    0.000    0.000    0.000    0.000 
#
# Total GULP energy -94857.952741 kJ/mol
# GULP energy per Si atom -5579.879573 kJ/mol
# Density = 2.058655 g / cm^3
# Si number density = 20.633515 Si / 1000 Ang^3
#
#
#
# Elastic Constant Matrix: (Units=GPa)
#
#
# Indices 1 2 3 4 5 6 
#
# 1 118.2844 50.7676 2.2647 0.0000 0.0000 0.0000
# 2 50.7676 126.6770 15.9497 0.0000 0.0000 0.0000
# 3 2.2647 15.9497 56.8705 0.0000 0.0000 0.0000
# 4 0.0000 0.0000 0.0000 6.9255 0.0000 0.0000
# 5 0.0000 0.0000 0.0000 0.0000 8.0613 0.0000
# 6 0.0000 0.0000 0.0000 0.0000 0.0000 48.4644
#
#
#
# Elastic Compliance Matrix: (Units=1/GPa)
#
#
# Indices 1 2 3 4 5 6 
#
# 1 0.010243 -0.004202 0.000771 0.000000 0.000000 0.000000
# 2 -0.004202 0.009907 -0.002611 0.000000 0.000000 0.000000
# 3 0.000771 -0.002611 0.018285 0.000000 0.000000 0.000000
# 4 0.000000 0.000000 0.000000 0.144393 0.000000 0.000000
# 5 0.000000 0.000000 0.000000 0.000000 0.124049 0.000000
# 6 0.000000 0.000000 0.000000 0.000000 0.000000 0.020634
#
#
# Mechanical properties :
#
#
# Convention : Reuss Voigt Hill
#
# Bulk Modulus (GPa) = 37.95044 48.86619 43.40832
# Shear Modulus (GPa) = 14.35215 28.21359 21.28287
#
# Velocity S-wave (km/s) = 2.64024 3.70180 3.21514
# Velocity P-wave (km/s) = 5.26564 6.48116 5.90476
#
# Compressibility (1/GPa) = 0.02635016
#
# Stress axis : x y z
#
# Youngs Moduli (GPa) = 97.62801 100.93997 54.68838
#
# Poissons Ratio (x) = 0.42415 -0.04214
# Poissons Ratio (y) = 0.41024 0.14280
# Poissons Ratio (z) = -0.07523 0.26357
#
# Static dielectric constant tensor:
#      x y z
#    x 1.770210 0.000000 0.000000 
#    y 0.000000 1.784360 0.000000 
#    z 0.000000 0.000000 1.715770 
# 
# From -- ./inp_files/6860.got.cif
#   From: 2010.05.17/outbox.cif.g08.bks.cpg/sg23_4_cif.got.tgz:6860.got - 2010.06.04 12:02:01.
