data_PCOD9329918
_publ_section_title
;
Structure prediction by ZEFSAII (Michael W. Deem and Ramdas Pophale) SiO2 
 PCOD9329918
Probable space group: I 2 2 2
;
_chemical_formula_sum "Si O2"
_cell_formula_units_Z 48
_cell_length_a 9.849650
_cell_length_b 13.995068
_cell_length_c 16.088296
_cell_angle_alpha 90.000000
_cell_angle_beta 90.000000
_cell_angle_gamma 90.000000
_cell_volume 2217.715641
_symmetry_space_group_name_H-M "I 2 2 2"
_symmetry_group_IT_number 23
_symmetry_cell_setting 'orthorhombic'
loop_
_space_group_symop_operation_xyz
x,y,z
-x,-y,z
x,-y,-z
-x,y,-z
1/2+x,1/2+y,1/2+z
1/2-x,1/2-y,1/2+z
1/2+x,1/2-y,1/2-z
1/2-x,1/2+y,1/2-z
loop_
_atom_site_type_symbol
_atom_site_label
_atom_site_fract_x
_atom_site_fract_y
_atom_site_fract_z
Si Si1 0.902046 0.167963 0.920086
Si Si2 0.902320 0.703336 0.236132
Si Si3 0.844861 0.773036 0.521270
Si Si4 0.616223 0.338658 0.802955
Si Si5 0.357491 0.909867 0.550333
Si Si6 0.000000 0.500000 0.797359
Si Si7 0.000000 0.000000 0.194455
O O1 0.936997 0.255951 0.856897
O O2 0.747586 0.184453 0.949096
O O3 0.921154 0.073761 0.864736
O O4 0.000000 0.164836 0.000000
O O5 0.741343 0.713762 0.241889
O O6 0.985738 0.771321 0.295774
O O7 0.937312 0.591827 0.247907
O O8 0.847898 0.844520 0.600666
O O9 0.750616 0.825355 0.453480
O O10 0.000000 0.751528 0.500000
O O11 0.591544 0.436269 0.755075
O O12 0.500000 0.888148 0.500000
O O13 0.392334 0.949713 0.640823
O O14 0.299969 0.000000 0.500000
#
# Coordination Sequence:
#
# PCOD9329918 Si02
#       7
#     8   8   8   8   8   4   4
#     4  10  20  41  65  88 114 159 215 249 284 349
#     4  10  22  37  60  87 123 159 199 250 298 359
#     4  11  23  36  59  92 128 156 185 251 319 362
#     4  10  23  42  58  88 122 161 202 242 301 357
#     4   9  17  32  53  81 115 151 195 238 282 349
#     4  10  19  34  62  90 111 156 208 250 295 352
#     4  10  23  40  67  86 116 164 212 250 279 350
#
# _framework density 21.643892999999998
#
# number of rings (size 3 to 8) (size 9 to 14) (size 15 to 20)
#    0.000    2.167    0.000    5.750    0.000   11.667 
#    0.000    0.000    0.000   12.000    0.000    0.000 
#    0.000    0.000    0.000    0.000    0.000    0.000 
#
# Total GULP energy -133960.288945 kJ/mol
# GULP energy per Si atom -5581.678706 kJ/mol
# Density = 2.159463 g / cm^3
# Si number density = 21.643893 Si / 1000 Ang^3
#
#
#
# Elastic Constant Matrix: (Units=GPa)
#
#
# Indices 1 2 3 4 5 6 
#
# 1 121.7203 40.6195 29.7982 0.0000 0.0000 0.0000
# 2 40.6195 107.6151 27.4458 0.0000 0.0000 0.0000
# 3 29.7982 27.4458 61.6946 0.0000 0.0000 0.0000
# 4 0.0000 0.0000 0.0000 15.5209 0.0000 0.0000
# 5 0.0000 0.0000 0.0000 0.0000 27.5297 0.0000
# 6 0.0000 0.0000 0.0000 0.0000 0.0000 19.1395
#
#
#
# Elastic Compliance Matrix: (Units=1/GPa)
#
#
# Indices 1 2 3 4 5 6 
#
# 1 0.010052 -0.002883 -0.003573 0.000000 0.000000 0.000000
# 2 -0.002883 0.011308 -0.003638 0.000000 0.000000 0.000000
# 3 -0.003573 -0.003638 0.019553 0.000000 0.000000 0.000000
# 4 0.000000 0.000000 0.000000 0.064429 0.000000 0.000000
# 5 0.000000 0.000000 0.000000 0.000000 0.036324 0.000000
# 6 0.000000 0.000000 0.000000 0.000000 0.000000 0.052248
#
#
# Mechanical properties :
#
#
# Convention : Reuss Voigt Hill
#
# Bulk Modulus (GPa) = 48.24895 54.08410 51.16652
# Shear Modulus (GPa) = 22.62320 25.31578 23.96949
#
# Velocity S-wave (km/s) = 3.23653 3.42372 3.33144
# Velocity P-wave (km/s) = 6.02557 6.37743 6.20399
#
# Compressibility (1/GPa) = 0.02072584
#
# Stress axis : x y z
#
# Youngs Moduli (GPa) = 99.47986 88.42917 51.14313
#
# Poissons Ratio (x) = 0.25495 0.18271
# Poissons Ratio (y) = 0.28681 0.18607
# Poissons Ratio (z) = 0.35540 0.32173
#
# Static dielectric constant tensor:
#      x y z
#    x 1.795700 0.000000 0.000000 
#    y 0.000000 1.794630 0.000000 
#    z 0.000000 0.000000 1.828110 
# 
# From -- ./inp_files/23762.got.cif
#   From: 2010.05.17/outbox.cif.g08.bks.cpg/sg23_12_cif.got.tgz:23762.got - 2010.06.04 12:02:01.
