data_PCOD9329528
_publ_section_title
;
Structure prediction by ZEFSAII (Michael W. Deem and Ramdas Pophale) SiO2 
 PCOD9329528
Probable space group: I 2 2 2
;
_chemical_formula_sum "Si O2"
_cell_formula_units_Z 34
_cell_length_a 18.820749
_cell_length_b 5.211173
_cell_length_c 16.760255
_cell_angle_alpha 90.000000
_cell_angle_beta 90.000000
_cell_angle_gamma 90.000000
_cell_volume 1643.815290
_symmetry_space_group_name_H-M "I 2 2 2"
_symmetry_group_IT_number 23
_symmetry_cell_setting 'orthorhombic'
loop_
_space_group_symop_operation_xyz
x,y,z
-x,-y,z
x,-y,-z
-x,y,-z
1/2+x,1/2+y,1/2+z
1/2-x,1/2-y,1/2+z
1/2+x,1/2-y,1/2-z
1/2-x,1/2+y,1/2-z
loop_
_atom_site_type_symbol
_atom_site_label
_atom_site_fract_x
_atom_site_fract_y
_atom_site_fract_z
Si Si1 0.432630 0.187015 0.364178
Si Si2 0.500000 0.500000 0.500000
Si Si3 0.277662 0.015547 0.349879
Si Si4 0.547365 0.256681 0.813484
Si Si5 0.301519 0.025939 0.157534
O O1 0.449639 0.351397 0.440311
O O2 0.357091 0.060488 0.378430
O O3 0.430369 0.328470 0.278000
O O4 0.500000 0.000000 0.357614
O O5 0.287192 0.013904 0.253182
O O6 0.221622 0.242384 0.370700
O O7 0.250766 0.739792 0.376754
O O8 0.500000 0.500000 0.843506
O O9 0.620180 0.150934 0.853488
O O10 0.500000 0.000000 0.812392
#
# Coordination Sequence:
#
# PCOD9329528 Si02
#       5
#     8   2   8   8   8
#     4  10  22  33  48  66  94 132 179 214 244 274
#     4  12  22  36  48  66  96 132 192 212 242 262
#     4   9  18  30  47  65  91 122 165 206 240 290
#     4  10  18  30  49  72 100 129 162 202 243 299
#     4   9  17  29  46  69  91 122 159 198 248 294
#
# _framework density 20.683589999999999
#
# number of rings (size 3 to 8) (size 9 to 14) (size 15 to 20)
#    0.000    2.353    1.176    1.765    3.294    5.647 
#    0.000    0.000    0.000    0.000    0.000    0.000 
#    0.000    0.000    0.000   15.882    0.471   12.941 
#
# Total GULP energy -94682.981427 kJ/mol
# GULP energy per Si atom -5569.587143 kJ/mol
# Density = 2.063651 g / cm^3
# Si number density = 20.683590 Si / 1000 Ang^3
#
#
#
# Elastic Constant Matrix: (Units=GPa)
#
#
# Indices 1 2 3 4 5 6 
#
# 1 66.8333 -17.7208 8.1893 0.0000 0.0000 0.0000
# 2 -17.7208 60.3899 0.4793 0.0000 0.0000 0.0000
# 3 8.1893 0.4793 5.4779 0.0000 0.0000 0.0000
# 4 0.0000 0.0000 0.0000 15.9130 0.0000 0.0000
# 5 0.0000 0.0000 0.0000 0.0000 17.3968 0.0000
# 6 0.0000 0.0000 0.0000 0.0000 0.0000 32.5794
#
#
#
# Elastic Compliance Matrix: (Units=1/GPa)
#
#
# Indices 1 2 3 4 5 6 
#
# 1 0.020426 0.006240 -0.031082 0.000000 0.000000 0.000000
# 2 0.006240 0.018477 -0.010946 0.000000 0.000000 0.000000
# 3 -0.031082 -0.010946 0.229976 0.000000 0.000000 0.000000
# 4 0.000000 0.000000 0.000000 0.062842 0.000000 0.000000
# 5 0.000000 0.000000 0.000000 0.000000 0.057482 0.000000
# 6 0.000000 0.000000 0.000000 0.000000 0.000000 0.030694
#
#
# Mechanical properties :
#
#
# Convention : Reuss Voigt Hill
#
# Bulk Modulus (GPa) = 5.06833 12.73295 8.90064
# Shear Modulus (GPa) = 8.97281 22.62807 15.80044
#
# Velocity S-wave (km/s) = 2.08508 3.31117 2.76689
# Velocity P-wave (km/s) = 2.87271 4.55938 3.81054
#
# Compressibility (1/GPa) = 0.19730376
#
# Stress axis : x y z
#
# Youngs Moduli (GPa) = 48.95766 54.12087 4.34828
#
# Poissons Ratio (x) = -0.33774 0.13515
# Poissons Ratio (y) = -0.30552 0.04760
# Poissons Ratio (z) = 1.52170 0.59241
#
# Static dielectric constant tensor:
#      x y z
#    x 1.657550 0.000000 0.000000 
#    y 0.000000 1.778860 0.000000 
#    z 0.000000 0.000000 1.781590 
# 
# From -- ./inp_files/2216.got.cif
#   From: 2010.05.17/outbox.cif.g08.bks.cpg/sg23_2_cif.got.tgz:2216.got - 2010.06.04 12:02:01.
