data_PCOD9329340
_publ_section_title
;
Structure prediction by ZEFSAII (Michael W. Deem and Ramdas Pophale) SiO2 
 PCOD9329340
Probable space group: I 2 2 2
;
_chemical_formula_sum "Si O2"
_cell_formula_units_Z 60
_cell_length_a 5.451690
_cell_length_b 19.462205
_cell_length_c 31.630302
_cell_angle_alpha 90.000000
_cell_angle_beta 90.000000
_cell_angle_gamma 90.000000
_cell_volume 3356.035405
_symmetry_space_group_name_H-M "I 2 2 2"
_symmetry_group_IT_number 23
_symmetry_cell_setting 'orthorhombic'
loop_
_space_group_symop_operation_xyz
x,y,z
-x,-y,z
x,-y,-z
-x,y,-z
1/2+x,1/2+y,1/2+z
1/2-x,1/2-y,1/2+z
1/2+x,1/2-y,1/2-z
1/2-x,1/2+y,1/2-z
loop_
_atom_site_type_symbol
_atom_site_label
_atom_site_fract_x
_atom_site_fract_y
_atom_site_fract_z
Si Si1 0.099290 0.391173 0.244937
Si Si2 0.090504 0.235706 0.207274
Si Si3 0.559517 0.177491 0.084751
Si Si4 0.422598 0.378478 0.548082
Si Si5 0.094225 0.236439 0.340751
Si Si6 0.000000 0.000000 0.894198
Si Si7 0.599238 0.382735 0.219692
Si Si8 0.873331 0.426264 0.657767
O O1 0.085108 0.310347 0.230469
O O2 0.343770 0.420295 0.224222
O O3 0.118462 0.400901 0.294784
O O4 0.846362 0.422480 0.228892
O O5 0.342649 0.236103 0.180947
O O6 0.089227 0.175557 0.242220
O O7 0.848336 0.231308 0.177877
O O8 0.324457 0.167043 0.054449
O O9 0.578452 0.249688 0.109452
O O10 0.513421 0.126618 0.124727
O O11 0.825968 0.156084 0.066450
O O12 0.500000 0.392659 0.500000
O O13 0.362313 0.449776 0.572770
O O14 0.109739 0.158505 0.324083
O O15 0.888727 0.944375 0.861962
O O16 0.000000 0.500000 0.655604
#
# Coordination Sequence:
#
# PCOD9329340 Si02
#       8
#     8   8   8   8   8   4   8   8
#     4  10  20  27  43  59  86 112 134 164 210 256
#     4  10  16  27  41  64  85 111 129 153 202 258
#     4  11  21  34  51  69  82 106 135 180 236 274
#     4  11  23  38  52  64  82 106 142 186 239 293
#     4  10  18  28  45  64  87 101 130 165 204 270
#     4  10  23  38  48  64  78 110 152 194 244 268
#     4  10  17  28  41  63  83 111 131 154 204 259
#     4  11  21  33  45  63  87 108 148 190 224 267
#
# _framework density 17.878236999999999
#
# number of rings (size 3 to 8) (size 9 to 14) (size 15 to 20)
#    0.000    1.600    1.333    7.800    1.867    1.067 
#    0.000    1.333    0.000    0.000    0.000    0.000 
#    0.000    0.000    0.000    0.000    0.000    0.000 
#
# Total GULP energy -167194.830055 kJ/mol
# GULP energy per Si atom -5573.161002 kJ/mol
# Density = 1.783755 g / cm^3
# Si number density = 17.878237 Si / 1000 Ang^3
#
#
#
# Elastic Constant Matrix: (Units=GPa)
#
#
# Indices 1 2 3 4 5 6 
#
# 1 136.3005 12.1877 12.9097 0.0000 0.0000 0.0000
# 2 12.1877 27.1535 16.0400 0.0000 0.0000 0.0000
# 3 12.9097 16.0400 27.6141 0.0000 0.0000 0.0000
# 4 0.0000 0.0000 0.0000 -19.7780 0.0000 0.0000
# 5 0.0000 0.0000 0.0000 0.0000 25.2040 0.0000
# 6 0.0000 0.0000 0.0000 0.0000 0.0000 11.4117
#
#
#
# Elastic Compliance Matrix: (Units=1/GPa)
#
#
# Indices 1 2 3 4 5 6 
#
# 1 0.007750 -0.002037 -0.002440 0.000000 0.000000 0.000000
# 2 -0.002037 0.056601 -0.031925 0.000000 0.000000 0.000000
# 3 -0.002440 -0.031925 0.055898 0.000000 0.000000 0.000000
# 4 0.000000 0.000000 0.000000 -0.050561 0.000000 0.000000
# 5 0.000000 0.000000 0.000000 0.000000 0.039676 0.000000
# 6 0.000000 0.000000 0.000000 0.000000 0.000000 0.087629
#
#
# Mechanical properties :
#
#
# Convention : Reuss Voigt Hill
#
# Bulk Modulus (GPa) = 21.07712 30.37144 25.72428
# Shear Modulus (GPa) = 17.50629 13.36294 15.43461
#
# Velocity S-wave (km/s) = 3.13260 2.73690 2.94142
# Velocity P-wave (km/s) = 4.98990 5.19734 5.09468
#
# Compressibility (1/GPa) = 0.04744480
#
# Stress axis : x y z
#
# Youngs Moduli (GPa) = 129.03255 17.66764 17.88972
#
# Poissons Ratio (x) = 0.03599 0.04365
# Poissons Ratio (y) = 0.26288 0.57113
# Poissons Ratio (z) = 0.31481 0.56404
#
# Static dielectric constant tensor:
#      x y z
#    x 1.932560 0.000000 0.000000 
#    y 0.000000 1.674450 0.000000 
#    z 0.000000 0.000000 1.593760 
# 
# From -- ./inp_files/27434.got.cif
#   From: 2010.05.17/outbox.cif.g08.bks.cpg/sg23_14_cif.got.tgz:27434.got - 2010.06.04 12:02:01.
