data_PCOD9329048
_publ_section_title
;
Structure prediction by ZEFSAII (Michael W. Deem and Ramdas Pophale) SiO2 
 PCOD9329048
Probable space group: F 2 2 2
;
_chemical_formula_sum "Si O2"
_cell_formula_units_Z 56
_cell_length_a 7.241900
_cell_length_b 19.451464
_cell_length_c 17.918414
_cell_angle_alpha 90.000000
_cell_angle_beta 90.000000
_cell_angle_gamma 90.000000
_cell_volume 2524.087371
_symmetry_space_group_name_H-M "F 2 2 2"
_symmetry_group_IT_number 22
_symmetry_cell_setting 'orthorhombic'
loop_
_space_group_symop_operation_xyz
x,y,z
-x,-y,z
x,-y,-z
-x,y,-z
x,1/2+y,1/2+z
-x,1/2-y,1/2+z
x,1/2-y,1/2-z
-x,1/2+y,1/2-z
1/2+x,y,1/2+z
1/2-x,-y,1/2+z
1/2+x,-y,1/2-z
1/2-x,y,1/2-z
1/2+x,1/2+y,z
1/2-x,1/2-y,z
1/2+x,1/2-y,-z
1/2-x,1/2+y,-z
loop_
_atom_site_type_symbol
_atom_site_label
_atom_site_fract_x
_atom_site_fract_y
_atom_site_fract_z
Si Si1 0.750000 0.357458 0.750000
Si Si2 0.791033 0.077886 0.027855
Si Si3 0.500000 0.304634 0.500000
Si Si4 0.750000 0.250000 0.881937
Si Si5 0.896993 0.064400 0.188773
O O1 0.767975 0.313230 0.825006
O O2 0.558026 0.396083 0.767244
O O3 0.791155 0.092384 0.117044
O O4 0.668105 0.140632 0.998724
O O5 0.000000 0.084728 0.000000
O O6 0.730920 0.000000 0.000000
O O7 0.434760 0.254961 0.432669
O O8 0.750000 0.042479 0.250000
O O9 0.000000 0.000000 0.153117
#
# Coordination Sequence:
#
# PCOD9329048 Si02
#       5
#     8  16   8   8  16
#     4  11  26  52  66 104 146 193 248 300 352 445
#     4  11  24  45  74 112 148 183 237 308 377 447
#     4  12  27  46  74 104 145 196 246 300 364 424
#     4  11  28  48  72  97 148 198 254 295 346 434
#     4  12  24  41  73 105 143 183 231 297 374 433
#
# _framework density 22.186235
#
# number of rings (size 3 to 8) (size 9 to 14) (size 15 to 20)
#    0.000    0.571    4.286    3.857    6.000    2.286 
#    0.000    1.429    0.000    0.000    0.000    0.000 
#    0.000    0.000    0.000    0.000    0.000    0.000 
#
# Total GULP energy -78000.124228 kJ/mol
# GULP energy per Si atom -5571.437445 kJ/mol
# Density = 2.213574 g / cm^3
# Si number density = 22.186235 Si / 1000 Ang^3
#
#
#
# Elastic Constant Matrix: (Units=GPa)
#
#
# Indices 1 2 3 4 5 6 
#
# 1 59.1865 25.7640 25.4660 0.0000 0.0000 0.0000
# 2 25.7640 70.8180 25.3614 0.0000 0.0000 0.0000
# 3 25.4660 25.3614 132.3592 0.0000 0.0000 0.0000
# 4 0.0000 0.0000 0.0000 -0.4410 0.0000 0.0000
# 5 0.0000 0.0000 0.0000 0.0000 -40.7340 0.0000
# 6 0.0000 0.0000 0.0000 0.0000 0.0000 35.5179
#
#
#
# Elastic Compliance Matrix: (Units=1/GPa)
#
#
# Indices 1 2 3 4 5 6 
#
# 1 0.020976 -0.006642 -0.002763 0.000000 0.000000 0.000000
# 2 -0.006642 0.017264 -0.002030 0.000000 0.000000 0.000000
# 3 -0.002763 -0.002030 0.008476 0.000000 0.000000 0.000000
# 4 0.000000 0.000000 0.000000 -2.267605 0.000000 0.000000
# 5 0.000000 0.000000 0.000000 0.000000 -0.024550 0.000000
# 6 0.000000 0.000000 0.000000 0.000000 0.000000 0.028155
#
#
# Mechanical properties :
#
#
# Convention : Reuss Voigt Hill
#
# Bulk Modulus (GPa) = 41.93599 46.17184 44.05392
# Shear Modulus (GPa) = -2.28680 11.25340 4.48330
#
# Velocity S-wave (km/s) = -1.01635 2.25461 1.42308
# Velocity P-wave (km/s) = 4.19113 5.25679 4.75392
#
# Compressibility (1/GPa) = 0.02384586
#
# Stress axis : x y z
#
# Youngs Moduli (GPa) = 47.67412 57.92410 117.98261
#
# Poissons Ratio (x) = 0.38471 0.32600
# Poissons Ratio (y) = 0.31663 0.23952
# Poissons Ratio (z) = 0.13173 0.11759
#
# Static dielectric constant tensor:
#      x y z
#    x 1.854970 0.000000 0.000000 
#    y 0.000000 1.916230 0.000000 
#    z 0.000000 0.000000 1.914770 
# 
# From -- ./inp_files/26742.got.cif
#   From: 2010.05.17/outbox.cif.g08.bks.cpg/sg22_14_cif.got.tgz:26742.got - 2010.06.03 23:40:54.
