data_PCOD9329081
_publ_section_title
;
Structure prediction by ZEFSAII (Michael W. Deem and Ramdas Pophale) SiO2 
 PCOD9329081
Probable space group: F 2 2 2
;
_chemical_formula_sum "Si O2"
_cell_formula_units_Z 48
_cell_length_a 10.725439
_cell_length_b 9.121598
_cell_length_c 17.995006
_cell_angle_alpha 90.000000
_cell_angle_beta 90.000000
_cell_angle_gamma 90.000000
_cell_volume 1760.507994
_symmetry_space_group_name_H-M "F 2 2 2"
_symmetry_group_IT_number 22
_symmetry_cell_setting 'orthorhombic'
loop_
_space_group_symop_operation_xyz
x,y,z
-x,-y,z
x,-y,-z
-x,y,-z
x,1/2+y,1/2+z
-x,1/2-y,1/2+z
x,1/2-y,1/2-z
-x,1/2+y,1/2-z
1/2+x,y,1/2+z
1/2-x,-y,1/2+z
1/2+x,-y,1/2-z
1/2-x,y,1/2-z
1/2+x,1/2+y,z
1/2-x,1/2-y,z
1/2+x,1/2-y,-z
1/2-x,1/2+y,-z
loop_
_atom_site_type_symbol
_atom_site_label
_atom_site_fract_x
_atom_site_fract_y
_atom_site_fract_z
Si Si1 0.435164 0.298595 0.420493
Si Si2 0.806694 0.106625 0.410765
Si Si3 0.862558 0.951747 0.194121
O O1 0.500000 0.256345 0.500000
O O2 0.559202 0.352444 0.378809
O O3 0.343824 0.437527 0.435143
O O4 0.383077 0.173289 0.368318
O O5 0.750000 0.250000 0.454234
O O6 0.699416 0.084138 0.350896
O O7 0.750000 0.910711 0.250000
O O8 0.000000 0.000000 0.221834
#
# Coordination Sequence:
#
# PCOD9329081 Si02
#       3
#    16  16  16
#     4  11  27  52  85 131 174 236 303 376 459 557
#     4  11  24  50  81 129 177 230 293 374 457 547
#     4  12  29  57  87 125 180 246 307 377 467 552
#
# _framework density 27.264856999999999
#
# number of rings (size 3 to 8) (size 9 to 14) (size 15 to 20)
#    0.000    0.667    3.333    3.000    4.667    9.333 
#    0.000    0.000    0.000    0.000    0.000    0.000 
#    0.000    0.000    0.000    0.000    0.000    0.000 
#
# Total GULP energy -66848.983736 kJ/mol
# GULP energy per Si atom -5570.748645 kJ/mol
# Density = 2.720280 g / cm^3
# Si number density = 27.264857 Si / 1000 Ang^3
#
#
#
# Elastic Constant Matrix: (Units=GPa)
#
#
# Indices 1 2 3 4 5 6 
#
# 1 273.7886 96.9518 84.0554 0.0000 0.0000 0.0000
# 2 96.9518 163.5255 90.9906 0.0000 0.0000 0.0000
# 3 84.0554 90.9906 144.3167 0.0000 0.0000 0.0000
# 4 0.0000 0.0000 0.0000-8236.1780 0.0000 0.0000
# 5 0.0000 0.0000 0.0000 0.0000 46.3242 0.0000
# 6 0.0000 0.0000 0.0000 0.0000 0.0000 78.2827
#
#
#
# Elastic Compliance Matrix: (Units=1/GPa)
#
#
# Indices 1 2 3 4 5 6 
#
# 1 0.004840 -0.002004 -0.001555 0.000000 0.000000 0.000000
# 2 -0.002004 0.010250 -0.005295 0.000000 0.000000 0.000000
# 3 -0.001555 -0.005295 0.011174 0.000000 0.000000 0.000000
# 4 0.000000 0.000000 0.000000 -0.000121 0.000000 0.000000
# 5 0.000000 0.000000 0.000000 0.000000 0.021587 0.000000
# 6 0.000000 0.000000 0.000000 0.000000 0.000000 0.012774
#
#
# Mechanical properties :
#
#
# Convention : Reuss Voigt Hill
#
# Bulk Modulus (GPa) = 116.90282 125.06963 120.98622
# Shear Modulus (GPa) = 61.68036 -1601.67201 -769.99583
#
# Velocity S-wave (km/s) = 4.76149 -24.26365 -16.82339
# Velocity P-wave (km/s) = 8.55563 27.18445 18.24549
#
# Compressibility (1/GPa) = 0.00855411
#
# Stress axis : x y z
#
# Youngs Moduli (GPa) = 206.63129 97.56308 89.49587
#
# Poissons Ratio (x) = 0.19550 0.13919
# Poissons Ratio (y) = 0.41406 0.47391
# Poissons Ratio (z) = 0.32137 0.51662
#
# Static dielectric constant tensor:
#      x y z
#    x 5.779000 0.000000 0.000000 
#    y 0.000000 2.256850 0.000000 
#    z 0.000000 0.000000 2.287910 
# 
# From -- ./inp_files/20630.got.cif
#   From: 2010.05.17/outbox.cif.g08.bks.cpg/sg22_11_cif.got.tgz:20630.got - 2010.06.03 23:40:54.
