data_PCOD9329863
_publ_section_title
;
Structure prediction by ZEFSAII (Michael W. Deem and Ramdas Pophale) SiO2 
 PCOD9329863
Probable space group: I 2 2 2
;
_chemical_formula_sum "Si O2"
_cell_formula_units_Z 52
_cell_length_a 29.559733
_cell_length_b 11.625290
_cell_length_c 8.603282
_cell_angle_alpha 90.000000
_cell_angle_beta 90.000000
_cell_angle_gamma 90.000000
_cell_volume 2956.435857
_symmetry_space_group_name_H-M "I 2 2 2"
_symmetry_group_IT_number 23
_symmetry_cell_setting 'orthorhombic'
loop_
_space_group_symop_operation_xyz
x,y,z
-x,-y,z
x,-y,-z
-x,y,-z
1/2+x,1/2+y,1/2+z
1/2-x,1/2-y,1/2+z
1/2+x,1/2-y,1/2-z
1/2-x,1/2+y,1/2-z
loop_
_atom_site_type_symbol
_atom_site_label
_atom_site_fract_x
_atom_site_fract_y
_atom_site_fract_z
Si Si1 0.824985 0.071644 0.854902
Si Si2 0.949196 0.496811 0.243389
Si Si3 0.623836 0.377932 0.045081
Si Si4 0.549541 0.809577 0.009948
Si Si5 0.869798 0.500000 0.000000
Si Si6 0.712150 0.637573 0.172510
Si Si7 0.295778 0.200601 0.465745
O O1 0.858805 0.109562 0.720325
O O2 0.805461 0.187375 0.928182
O O3 0.790361 0.981104 0.772606
O O4 0.845350 0.000000 0.000000
O O5 0.950711 0.591457 0.379277
O O6 0.943930 0.373352 0.326050
O O7 0.905422 0.520434 0.139491
O O8 0.000000 0.500000 0.172164
O O9 0.589176 0.276872 0.023279
O O10 0.602661 0.500000 0.000000
O O11 0.666518 0.359948 0.929938
O O12 0.500000 0.754039 0.000000
O O13 0.837171 0.609677 0.968066
O O14 0.713341 0.743896 0.295205
O O15 0.753010 0.642236 0.050460
#
# Coordination Sequence:
#
# PCOD9329863 Si02
#       7
#     8   8   8   8   4   8   8
#     4   9  20  38  54  76 106 151 188 223 290 342
#     4   9  19  36  55  78 114 145 173 223 287 341
#     4  10  19  33  57  77 107 145 181 229 274 335
#     4   9  18  35  57  81 108 143 183 223 275 339
#     4  12  23  32  56  88 108 138 189 238 276 336
#     4  10  22  37  55  75 108 149 186 228 294 336
#     4  11  23  35  55  78 109 140 190 243 273 347
#
# _framework density 17.588746
#
# number of rings (size 3 to 8) (size 9 to 14) (size 15 to 20)
#    0.000    2.154    0.000    3.923    5.385    0.308 
#    0.000    0.000    0.000    0.000    0.000    8.615 
#    0.000    0.000    0.000    0.000    0.000    0.000 
#
# Total GULP energy -144908.408544 kJ/mol
# GULP energy per Si atom -5573.400329 kJ/mol
# Density = 1.754871 g / cm^3
# Si number density = 17.588746 Si / 1000 Ang^3
#
#
#
# Elastic Constant Matrix: (Units=GPa)
#
#
# Indices 1 2 3 4 5 6 
#
# 1 98.3171 50.3690 32.4277 0.0000 0.0000 0.0000
# 2 50.3690 84.8100 30.5678 0.0000 0.0000 0.0000
# 3 32.4277 30.5678 90.2281 0.0000 0.0000 0.0000
# 4 0.0000 0.0000 0.0000 19.0704 0.0000 0.0000
# 5 0.0000 0.0000 0.0000 0.0000 17.4511 0.0000
# 6 0.0000 0.0000 0.0000 0.0000 0.0000 24.5029
#
#
#
# Elastic Compliance Matrix: (Units=1/GPa)
#
#
# Indices 1 2 3 4 5 6 
#
# 1 0.015190 -0.008035 -0.002737 0.000000 0.000000 0.000000
# 2 -0.008035 0.017681 -0.003102 0.000000 0.000000 0.000000
# 3 -0.002737 -0.003102 0.013118 0.000000 0.000000 0.000000
# 4 0.000000 0.000000 0.000000 0.052437 0.000000 0.000000
# 5 0.000000 0.000000 0.000000 0.000000 0.057303 0.000000
# 6 0.000000 0.000000 0.000000 0.000000 0.000000 0.040812
#
#
# Mechanical properties :
#
#
# Convention : Reuss Voigt Hill
#
# Bulk Modulus (GPa) = 54.82398 55.56491 55.19445
# Shear Modulus (GPa) = 21.70414 22.87092 22.28753
#
# Velocity S-wave (km/s) = 3.51661 3.60990 3.56356
# Velocity P-wave (km/s) = 6.90843 7.00250 6.95562
#
# Compressibility (1/GPa) = 0.01824019
#
# Stress axis : x y z
#
# Youngs Moduli (GPa) = 65.83073 56.55686 76.23230
#
# Poissons Ratio (x) = 0.45444 0.20867
# Poissons Ratio (y) = 0.52896 0.23650
# Poissons Ratio (z) = 0.18020 0.17546
#
# Static dielectric constant tensor:
#      x y z
#    x 1.579050 0.000000 0.000000 
#    y 0.000000 1.607970 0.000000 
#    z 0.000000 0.000000 1.624010 
# 
# From -- ./inp_files/13007.got.cif
#   From: 2010.05.17/outbox.cif.g08.bks.cpg/sg23_7_cif.got.tgz:13007.got - 2010.06.04 12:02:01.
