data_PCOD9329366
_publ_section_title
;
Structure prediction by ZEFSAII (Michael W. Deem and Ramdas Pophale) SiO2 
 PCOD9329366
Probable space group: I 2 2 2
;
_chemical_formula_sum "Si O2"
_cell_formula_units_Z 52
_cell_length_a 7.954374
_cell_length_b 10.769961
_cell_length_c 27.136849
_cell_angle_alpha 90.000000
_cell_angle_beta 90.000000
_cell_angle_gamma 90.000000
_cell_volume 2324.767660
_symmetry_space_group_name_H-M "I 2 2 2"
_symmetry_group_IT_number 23
_symmetry_cell_setting 'orthorhombic'
loop_
_space_group_symop_operation_xyz
x,y,z
-x,-y,z
x,-y,-z
-x,y,-z
1/2+x,1/2+y,1/2+z
1/2-x,1/2-y,1/2+z
1/2+x,1/2-y,1/2-z
1/2-x,1/2+y,1/2-z
loop_
_atom_site_type_symbol
_atom_site_label
_atom_site_fract_x
_atom_site_fract_y
_atom_site_fract_z
Si Si1 0.500000 0.000000 0.167704
Si Si2 0.108462 0.255569 0.811885
Si Si3 0.262385 0.500000 0.500000
Si Si4 0.003711 0.221617 0.292264
Si Si5 0.839450 0.920755 0.617821
Si Si6 0.000000 0.500000 0.150206
Si Si7 0.061505 0.726493 0.450996
Si Si8 0.237267 0.888429 0.099033
O O1 0.484104 0.129216 0.197621
O O2 0.664745 0.010323 0.132672
O O3 0.299297 0.299892 0.801832
O O4 0.994115 0.375567 0.818399
O O5 0.115145 0.179419 0.862764
O O6 0.047025 0.186971 0.763081
O O7 0.149532 0.602873 0.471961
O O8 0.342636 0.568960 0.547198
O O9 0.895885 0.141321 0.330524
O O10 0.672954 0.002231 0.620539
O O11 0.813584 0.807661 0.580651
O O12 0.000000 0.000000 0.601183
O O13 0.000000 0.795541 0.500000
O O14 0.897981 0.695139 0.418005
#
# Coordination Sequence:
#
# PCOD9329366 Si02
#       8
#     4   8   4   8   8   4   8   8
#     4  10  17  33  62  94 128 170 232 301 357 414
#     4  11  23  40  63  96 139 186 240 298 353 435
#     4  10  17  32  72 107 136 173 235 306 383 433
#     4  11  22  39  63  98 139 186 239 291 359 425
#     4  12  23  44  68 101 143 193 236 292 356 437
#     4  12  25  44  68  93 144 194 243 290 353 418
#     4  10  18  34  66 102 133 176 236 296 366 441
#     4  10  16  33  60 103 134 168 224 293 361 435
#
# _framework density 22.367826999999998
#
# number of rings (size 3 to 8) (size 9 to 14) (size 15 to 20)
#    0.000    1.231    6.154    3.000    0.000    1.538 
#    0.000    0.000    0.000   17.538    0.000    1.077 
#    0.000    0.000    0.000    0.000    0.000    0.000 
#
# Total GULP energy -145182.950751 kJ/mol
# GULP energy per Si atom -5583.959644 kJ/mol
# Density = 2.231692 g / cm^3
# Si number density = 22.367827 Si / 1000 Ang^3
#
#
#
# Elastic Constant Matrix: (Units=GPa)
#
#
# Indices 1 2 3 4 5 6 
#
# 1 70.2927 3.3109 2.8784 0.0000 0.0000 0.0000
# 2 3.3109 57.4326 25.7675 0.0000 0.0000 0.0000
# 3 2.8784 25.7675 152.3640 0.0000 0.0000 0.0000
# 4 0.0000 0.0000 0.0000 28.9619 0.0000 0.0000
# 5 0.0000 0.0000 0.0000 0.0000 -2.4124 0.0000
# 6 0.0000 0.0000 0.0000 0.0000 0.0000 34.9870
#
#
#
# Elastic Compliance Matrix: (Units=1/GPa)
#
#
# Indices 1 2 3 4 5 6 
#
# 1 0.014268 -0.000759 -0.000141 0.000000 0.000000 0.000000
# 2 -0.000759 0.018882 -0.003179 0.000000 0.000000 0.000000
# 3 -0.000141 -0.003179 0.007104 0.000000 0.000000 0.000000
# 4 0.000000 0.000000 0.000000 0.034528 0.000000 0.000000
# 5 0.000000 0.000000 0.000000 0.000000 -0.414524 0.000000
# 6 0.000000 0.000000 0.000000 0.000000 0.000000 0.028582
#
#
# Mechanical properties :
#
#
# Convention : Reuss Voigt Hill
#
# Bulk Modulus (GPa) = 31.15796 38.22253 34.69025
# Shear Modulus (GPa) = -17.10549 28.84945 5.87198
#
# Velocity S-wave (km/s) = -2.76839 3.59524 1.62200
# Velocity P-wave (km/s) = 1.93428 5.86171 4.36469
#
# Compressibility (1/GPa) = 0.03209453
#
# Stress axis : x y z
#
# Youngs Moduli (GPa) = 70.08806 52.96130 140.77557
#
# Poissons Ratio (x) = 0.04021 0.01987
# Poissons Ratio (y) = 0.05321 0.44751
# Poissons Ratio (z) = 0.00989 0.16836
#
# Static dielectric constant tensor:
#      x y z
#    x 1.860540 0.000000 0.000000 
#    y 0.000000 1.865800 0.000000 
#    z 0.000000 0.000000 1.867690 
# 
# From -- ./inp_files/29268.got.cif
#   From: 2010.05.17/outbox.cif.g08.bks.cpg/sg23_15_cif.got.tgz:29268.got - 2010.06.04 12:02:01.
