data_PCOD9329244
_publ_section_title
;
Structure prediction by ZEFSAII (Michael W. Deem and Ramdas Pophale) SiO2 
 PCOD9329244
Probable space group: F 2 2 2
;
_chemical_formula_sum "Si O2"
_cell_formula_units_Z 116
_cell_length_a 22.395826
_cell_length_b 25.748306
_cell_length_c 9.451389
_cell_angle_alpha 90.000000
_cell_angle_beta 90.000000
_cell_angle_gamma 90.000000
_cell_volume 5450.186763
_symmetry_space_group_name_H-M "F 2 2 2"
_symmetry_group_IT_number 22
_symmetry_cell_setting 'orthorhombic'
loop_
_space_group_symop_operation_xyz
x,y,z
-x,-y,z
x,-y,-z
-x,y,-z
x,1/2+y,1/2+z
-x,1/2-y,1/2+z
x,1/2-y,1/2-z
-x,1/2+y,1/2-z
1/2+x,y,1/2+z
1/2-x,-y,1/2+z
1/2+x,-y,1/2-z
1/2-x,y,1/2-z
1/2+x,1/2+y,z
1/2-x,1/2-y,z
1/2+x,1/2-y,-z
1/2-x,1/2+y,-z
loop_
_atom_site_type_symbol
_atom_site_label
_atom_site_fract_x
_atom_site_fract_y
_atom_site_fract_z
Si Si1 0.074875 0.383142 0.753555
Si Si2 0.882244 0.558445 0.487859
Si Si3 0.943525 0.082346 0.704906
Si Si4 0.151636 0.750802 0.916228
Si Si5 0.342824 0.133248 0.021299
Si Si6 0.500000 0.500000 0.500000
Si Si7 0.452060 0.781668 0.387018
Si Si8 0.279298 0.139931 0.408554
O O1 0.089996 0.426799 0.639576
O O2 0.117686 0.381669 0.887090
O O3 0.084236 0.329223 0.674536
O O4 0.005069 0.385009 0.796034
O O5 0.858596 0.500000 0.500000
O O6 0.931044 0.562409 0.362616
O O7 0.833576 0.600950 0.440700
O O8 0.885974 0.114080 0.648468
O O9 0.958339 0.035354 0.598785
O O10 0.136600 0.750000 0.750000
O O11 0.193612 0.801696 0.937181
O O12 0.174823 0.693753 0.954748
O O13 0.093410 0.751025 0.014660
O O14 0.275634 0.113402 0.005908
O O15 0.500000 0.801346 0.500000
O O16 0.474959 0.750000 0.250000
O O17 0.250000 0.140262 0.250000
#
# Coordination Sequence:
#
# PCOD9329244 Si02
#       8
#    16  16  16  16  16   4  16  16
#     4  12  26  48  69 107 149 192 238 307 375 437
#     4  12  27  50  76 106 144 194 248 306 374 443
#     4  12  25  47  75 108 147 188 250 301 375 454
#     4  12  24  44  74 104 144 199 247 299 367 447
#     4  12  26  45  75 108 149 191 245 306 363 442
#     4  12  24  44  78 116 140 196 242 316 380 456
#     4  12  26  41  67 106 151 191 237 295 372 443
#     4  12  25  49  74 107 142 198 255 302 367 447
#
# _framework density 21.283674999999999
#
# number of rings (size 3 to 8) (size 9 to 14) (size 15 to 20)
#    0.000    0.000    6.897    2.897    3.862    1.103 
#    3.724    0.000    0.000    0.000    0.000    0.000 
#    0.000    0.000    0.000    0.000    0.000    0.000 
#
# Total GULP energy -161811.270852 kJ/mol
# GULP energy per Si atom -5579.698995 kJ/mol
# Density = 2.123523 g / cm^3
# Si number density = 21.283675 Si / 1000 Ang^3
#
#
#
# Elastic Constant Matrix: (Units=GPa)
#
#
# Indices 1 2 3 4 5 6 
#
# 1 91.7487 11.2284 38.3044 0.0001 0.0001 0.0000
# 2 11.2284 87.5567 18.9777 0.0001 -0.0003 0.0000
# 3 38.3044 18.9777 127.2323 0.0003 0.0008 -0.0004
# 4 0.0001 0.0001 0.0003 34.0332 -0.0001 -0.0002
# 5 0.0001 -0.0003 0.0008 -0.0001 37.2363 0.0003
# 6 0.0000 0.0000 -0.0004 -0.0002 0.0003 18.9778
#
#
#
# Elastic Compliance Matrix: (Units=1/GPa)
#
#
# Indices 1 2 3 4 5 6 
#
# 1 0.012522 -0.000815 -0.003648 0.000000 0.000000 0.000000
# 2 -0.000815 0.011856 -0.001523 0.000000 0.000000 0.000000
# 3 -0.003648 -0.001523 0.009185 0.000000 0.000000 0.000000
# 4 0.000000 0.000000 0.000000 0.029383 0.000000 0.000000
# 5 0.000000 0.000000 0.000000 0.000000 0.026855 0.000000
# 6 0.000000 0.000000 0.000000 0.000000 0.000000 0.052693
#
#
# Mechanical properties :
#
#
# Convention : Reuss Voigt Hill
#
# Bulk Modulus (GPa) = 46.31703 49.28430 47.80066
# Shear Modulus (GPa) = 30.92824 33.91796 32.42310
#
# Velocity S-wave (km/s) = 3.81615 3.99634 3.90728
# Velocity P-wave (km/s) = 6.42077 6.67087 6.54702
#
# Compressibility (1/GPa) = 0.02159033
#
# Stress axis : x y z
#
# Youngs Moduli (GPa) = 79.85788 84.34692 108.87110
#
# Poissons Ratio (x) = 0.06875 0.39720
# Poissons Ratio (y) = 0.06509 0.16581
# Poissons Ratio (z) = 0.29135 0.12846
#
# Static dielectric constant tensor:
#      x y z
#    x 1.847720 0.000000 0.000000 
#    y 0.000000 1.029710 0.000000 
#    z 0.000000 0.000000 1.809320 
# 
# From -- ./inp_files/14104.got.cif
#   From: 2010.05.17/outbox.cif.g08.bks.cpg/sg22_8_cif.got.tgz:14104.got - 2010.06.03 23:40:54.
