data_PCOD9329140
_publ_section_title
;
Structure prediction by ZEFSAII (Michael W. Deem and Ramdas Pophale) SiO2 
 PCOD9329140
Probable space group: F 2 2 2
;
_chemical_formula_sum "Si O2"
_cell_formula_units_Z 64
_cell_length_a 21.844842
_cell_length_b 8.604791
_cell_length_c 14.268715
_cell_angle_alpha 90.000000
_cell_angle_beta 90.000000
_cell_angle_gamma 90.000000
_cell_volume 2682.094637
_symmetry_space_group_name_H-M "F 2 2 2"
_symmetry_group_IT_number 22
_symmetry_cell_setting 'orthorhombic'
loop_
_space_group_symop_operation_xyz
x,y,z
-x,-y,z
x,-y,-z
-x,y,-z
x,1/2+y,1/2+z
-x,1/2-y,1/2+z
x,1/2-y,1/2-z
-x,1/2+y,1/2-z
1/2+x,y,1/2+z
1/2-x,-y,1/2+z
1/2+x,-y,1/2-z
1/2-x,y,1/2-z
1/2+x,1/2+y,z
1/2-x,1/2-y,z
1/2+x,1/2-y,-z
1/2-x,1/2+y,-z
loop_
_atom_site_type_symbol
_atom_site_label
_atom_site_fract_x
_atom_site_fract_y
_atom_site_fract_z
Si Si1 0.138134 0.877196 0.815387
Si Si2 0.619772 0.109865 0.178295
Si Si3 0.248238 0.435611 0.896908
Si Si4 0.572516 0.310400 0.999061
O O1 0.168346 0.750000 0.750000
O O2 0.091535 0.977324 0.748500
O O3 0.190221 0.989241 0.856874
O O4 0.104972 0.783019 0.899500
O O5 0.626992 0.250000 0.250000
O O6 0.685190 0.034970 0.155536
O O7 0.596164 0.195066 0.082445
O O8 0.250000 0.250000 0.898582
O O9 0.242093 0.500000 0.000000
O O10 0.582275 0.500000 0.000000
O O11 0.500000 0.286982 0.000000
#
# Coordination Sequence:
#
# PCOD9329140 Si02
#       4
#    16  16  16  16
#     4  12  28  49  75 118 158 206 265 318 397 481
#     4  12  25  47  76 109 154 205 257 315 397 464
#     4  12  26  45  75 108 158 204 246 321 398 469
#     4  11  25  52  80 112 157 207 267 334 389 459
#
# _framework density 23.861948999999999
#
# number of rings (size 3 to 8) (size 9 to 14) (size 15 to 20)
#    0.000    0.250    5.000    3.000    7.000    2.000 
#    0.000    1.250    0.000    0.000    0.000    0.000 
#    0.000    0.000    0.000    0.000    0.000    0.000 
#
# Total GULP energy -89233.995359 kJ/mol
# GULP energy per Si atom -5577.124710 kJ/mol
# Density = 2.380764 g / cm^3
# Si number density = 23.861949 Si / 1000 Ang^3
#
#
#
# Elastic Constant Matrix: (Units=GPa)
#
#
# Indices 1 2 3 4 5 6 
#
# 1 91.3798 24.0567 45.7913 0.0000 0.0000 0.0000
# 2 24.0567 93.4543 57.8367 0.0000 0.0000 0.0000
# 3 45.7913 57.8367 185.5767 0.0000 0.0000 0.0000
# 4 0.0000 0.0000 0.0000 65.0794 0.0000 0.0000
# 5 0.0000 0.0000 0.0000 0.0000 -17.2471 0.0000
# 6 0.0000 0.0000 0.0000 0.0000 0.0000 13.5623
#
#
#
# Elastic Compliance Matrix: (Units=1/GPa)
#
#
# Indices 1 2 3 4 5 6 
#
# 1 0.012689 -0.001646 -0.002618 0.000000 0.000000 0.000000
# 2 -0.001646 0.013471 -0.003792 0.000000 0.000000 0.000000
# 3 -0.002618 -0.003792 0.007216 0.000000 0.000000 0.000000
# 4 0.000000 0.000000 0.000000 0.015366 0.000000 0.000000
# 5 0.000000 0.000000 0.000000 0.000000 -0.057981 0.000000
# 6 0.000000 0.000000 0.000000 0.000000 0.000000 0.073734
#
#
# Mechanical properties :
#
#
# Convention : Reuss Voigt Hill
#
# Bulk Modulus (GPa) = 57.92512 69.53114 63.72813
# Shear Modulus (GPa) = 57.89590 28.46066 43.17828
#
# Velocity S-wave (km/s) = 4.93108 3.45733 4.25844
# Velocity P-wave (km/s) = 7.53316 6.71860 7.13751
#
# Compressibility (1/GPa) = 0.01726367
#
# Stress axis : x y z
#
# Youngs Moduli (GPa) = 78.81123 74.23321 138.57222
#
# Poissons Ratio (x) = 0.12220 0.36277
# Poissons Ratio (y) = 0.12973 0.52549
# Poissons Ratio (z) = 0.20632 0.28151
#
# Static dielectric constant tensor:
#      x y z
#    x 1.890580 0.000000 0.000000 
#    y 0.000000 1.970200 0.000000 
#    z 0.000000 0.000000 2.044040 
# 
# From -- ./inp_files/32117.got.cif
#   From: 2010.05.17/outbox.cif.g08.bks.cpg/sg22_17_cif.got.tgz:32117.got - 2010.06.03 23:40:54.
