data_PCOD9329827
_publ_section_title
;
Structure prediction by ZEFSAII (Michael W. Deem and Ramdas Pophale) SiO2 
 PCOD9329827
Probable space group: I 2 2 2
;
_chemical_formula_sum "Si O2"
_cell_formula_units_Z 28
_cell_length_a 7.392610
_cell_length_b 28.658463
_cell_length_c 5.406676
_cell_angle_alpha 90.000000
_cell_angle_beta 90.000000
_cell_angle_gamma 90.000000
_cell_volume 1145.462920
_symmetry_space_group_name_H-M "I 2 2 2"
_symmetry_group_IT_number 23
_symmetry_cell_setting 'orthorhombic'
loop_
_space_group_symop_operation_xyz
x,y,z
-x,-y,z
x,-y,-z
-x,y,-z
1/2+x,1/2+y,1/2+z
1/2-x,1/2-y,1/2+z
1/2+x,1/2-y,1/2-z
1/2-x,1/2+y,1/2-z
loop_
_atom_site_type_symbol
_atom_site_label
_atom_site_fract_x
_atom_site_fract_y
_atom_site_fract_z
Si Si1 0.000000 0.269961 0.000000
Si Si2 0.778663 0.945968 0.500299
Si Si3 0.857615 0.813365 0.691381
Si Si4 0.708673 0.600066 0.498080
O O1 0.949353 0.234537 0.220321
O O2 0.172898 0.300784 0.057703
O O3 0.710190 0.923257 0.754061
O O4 0.000000 0.945276 0.500000
O O5 0.725283 0.000000 0.500000
O O6 0.717357 0.916811 0.259504
O O7 0.806028 0.845331 0.927011
O O8 0.000000 0.836822 0.500000
O O9 0.500000 0.583677 0.500000
#
# Coordination Sequence:
#
# PCOD9329827 Si02
#       4
#     4   8   8   8
#     4  12  26  42  66  94 132 190 242 302 352 430
#     4   9  17  30  51  86 128 169 213 271 343 410
#     4  12  24  42  64  95 135 182 244 295 360 416
#     4  10  19  32  57  86 127 174 218 280 341 408
#
# _framework density 24.444265000000001
#
# number of rings (size 3 to 8) (size 9 to 14) (size 15 to 20)
#    0.000    1.429    4.286    3.429    0.000    3.429 
#    0.000    0.000    0.000    0.000    0.000    1.000 
#    0.000   43.429    0.000    0.000    0.000    0.000 
#
# Total GULP energy -78325.700828 kJ/mol
# GULP energy per Si atom -5594.692916 kJ/mol
# Density = 2.438863 g / cm^3
# Si number density = 24.444265 Si / 1000 Ang^3
#
#
#
# Elastic Constant Matrix: (Units=GPa)
#
#
# Indices 1 2 3 4 5 6 
#
# 1 118.3930 27.2501 30.0973 -0.0007 -0.0013 -0.0052
# 2 27.2501 129.3897 75.8507 0.0013 0.0019 0.0024
# 3 30.0973 75.8507 191.3773 -0.0068 0.0112 -0.0041
# 4 -0.0007 0.0013 -0.0068 45.2209 -0.0024 -0.0036
# 5 -0.0013 0.0019 0.0112 -0.0024 5.1343 -0.0006
# 6 -0.0052 0.0024 -0.0041 -0.0036 -0.0006 -51.1503
#
#
#
# Elastic Compliance Matrix: (Units=1/GPa)
#
#
# Indices 1 2 3 4 5 6 
#
# 1 0.008985 -0.001386 -0.000864 0.000000 0.000005 -0.000001
# 2 -0.001386 0.010282 -0.003857 -0.000001 0.000004 0.000001
# 3 -0.000864 -0.003857 0.006890 0.000001 -0.000014 -0.000001
# 4 0.000000 -0.000001 0.000001 0.022114 0.000011 -0.000002
# 5 0.000005 0.000004 -0.000014 0.000011 0.194770 -0.000002
# 6 -0.000001 0.000001 -0.000001 -0.000002 -0.000002 -0.019550
#
#
# Mechanical properties :
#
#
# Convention : Reuss Voigt Hill
#
# Bulk Modulus (GPa) = 71.72088 78.39512 75.05800
# Shear Modulus (GPa) = 20.80289 20.23845 20.52067
#
# Velocity S-wave (km/s) = 2.92041 2.88052 2.90054
# Velocity P-wave (km/s) = 6.38561 6.57296 6.47996
#
# Compressibility (1/GPa) = 0.01394294
#
# Stress axis : x y z
#
# Youngs Moduli (GPa) = 111.29642 97.26171 145.14178
#
# Poissons Ratio (x) = 0.13480 0.12536
# Poissons Ratio (y) = 0.15425 0.55982
# Poissons Ratio (z) = 0.09613 0.37514
#
# Static dielectric constant tensor:
#      x y z
#    x 1.921200 0.000000 -0.000010 
#    y 0.000000 1.925710 0.000000 
#    z -0.000010 0.000000 1.994430 
# 
# From -- ./inp_files/594.got.cif
#   From: 2010.05.17/outbox.cif.g08.bks.cpg/sg23_1_cif.got.tgz:594.got - 2010.06.04 12:02:01.
