data_PCOD9329606
_publ_section_title
;
Structure prediction by ZEFSAII (Michael W. Deem and Ramdas Pophale) SiO2 
 PCOD9329606
Probable space group: I 2 2 2
;
_chemical_formula_sum "Si O2"
_cell_formula_units_Z 48
_cell_length_a 8.063093
_cell_length_b 11.805342
_cell_length_c 22.767612
_cell_angle_alpha 90.000000
_cell_angle_beta 90.000000
_cell_angle_gamma 90.000000
_cell_volume 2167.193671
_symmetry_space_group_name_H-M "I 2 2 2"
_symmetry_group_IT_number 23
_symmetry_cell_setting 'orthorhombic'
loop_
_space_group_symop_operation_xyz
x,y,z
-x,-y,z
x,-y,-z
-x,y,-z
1/2+x,1/2+y,1/2+z
1/2-x,1/2-y,1/2+z
1/2+x,1/2-y,1/2-z
1/2-x,1/2+y,1/2-z
loop_
_atom_site_type_symbol
_atom_site_label
_atom_site_fract_x
_atom_site_fract_y
_atom_site_fract_z
Si Si1 0.956572 0.707092 0.735057
Si Si2 0.682986 0.887717 0.526669
Si Si3 0.088293 0.122269 0.626168
Si Si4 0.875532 0.904695 0.219002
Si Si5 0.667368 0.938553 0.853119
Si Si6 0.125955 0.290074 0.456012
O O1 0.907067 0.797956 0.683925
O O2 0.795918 0.632427 0.751618
O O3 0.024437 0.787970 0.786069
O O4 0.101709 0.631001 0.704690
O O5 0.500000 0.891545 0.500000
O O6 0.731414 0.890793 0.595323
O O7 0.753307 0.774837 0.498765
O O8 0.769955 0.000000 0.500000
O O9 0.978585 0.195985 0.580455
O O10 0.000000 0.000000 0.632946
O O11 0.801004 0.967604 0.162834
O O12 0.000000 0.000000 0.243872
O O13 0.718202 0.859931 0.906175
O O14 0.500000 0.000000 0.873196
O O15 0.000000 0.353419 0.500000
#
# Coordination Sequence:
#
# PCOD9329606 Si02
#       6
#     8   8   8   8   8   8
#     4  10  22  38  61  90 118 163 218 262 326 391
#     4  10  19  31  52  84 126 160 201 260 324 370
#     4  10  18  33  56  83 119 163 211 254 315 394
#     4  11  22  40  63  86 123 164 210 274 331 384
#     4   9  20  38  60  89 122 159 210 263 320 385
#     4   9  18  32  56  84 118 168 208 256 314 393
#
# _framework density 22.148458000000002
#
# number of rings (size 3 to 8) (size 9 to 14) (size 15 to 20)
#    0.000    2.167    1.667    1.500    0.000    1.667 
#    0.000    0.000    3.667    0.000    0.000    4.667 
#    0.000    0.000    0.000    0.000    0.000    0.000 
#
# Total GULP energy -133668.959022 kJ/mol
# GULP energy per Si atom -5569.539959 kJ/mol
# Density = 2.209805 g / cm^3
# Si number density = 22.148458 Si / 1000 Ang^3
#
#
#
# Elastic Constant Matrix: (Units=GPa)
#
#
# Indices 1 2 3 4 5 6 
#
# 1 89.2714 28.2740 33.1552 0.0000 0.0000 0.0000
# 2 28.2740 90.2345 32.0032 0.0000 0.0000 0.0000
# 3 33.1552 32.0032 54.7558 0.0000 0.0000 0.0000
# 4 0.0000 0.0000 0.0000 42.2902 0.0000 0.0000
# 5 0.0000 0.0000 0.0000 0.0000 9.3748 0.0000
# 6 0.0000 0.0000 0.0000 0.0000 0.0000 42.3924
#
#
#
# Elastic Compliance Matrix: (Units=1/GPa)
#
#
# Indices 1 2 3 4 5 6 
#
# 1 0.014687 -0.001826 -0.007825 0.000000 0.000000 0.000000
# 2 -0.001826 0.014207 -0.007198 0.000000 0.000000 0.000000
# 3 -0.007825 -0.007198 0.027208 0.000000 0.000000 0.000000
# 4 0.000000 0.000000 0.000000 0.023646 0.000000 0.000000
# 5 0.000000 0.000000 0.000000 0.000000 0.106669 0.000000
# 6 0.000000 0.000000 0.000000 0.000000 0.000000 0.023589
#
#
# Mechanical properties :
#
#
# Convention : Reuss Voigt Hill
#
# Bulk Modulus (GPa) = 44.63735 46.79184 45.71460
# Shear Modulus (GPa) = 19.90658 28.20009 24.05334
#
# Velocity S-wave (km/s) = 3.00122 3.57211 3.29903
# Velocity P-wave (km/s) = 5.67514 6.17945 5.93265
#
# Compressibility (1/GPa) = 0.02240276
#
# Stress axis : x y z
#
# Youngs Moduli (GPa) = 68.08924 70.38585 36.75361
#
# Poissons Ratio (x) = 0.12856 0.28761
# Poissons Ratio (y) = 0.12436 0.26455
# Poissons Ratio (z) = 0.53282 0.50663
#
# Static dielectric constant tensor:
#      x y z
#    x 1.828580 0.000000 0.000000 
#    y 0.000000 1.867160 0.000000 
#    z 0.000000 0.000000 1.814930 
# 
# From -- ./inp_files/27977.got.cif
#   From: 2010.05.17/outbox.cif.g08.bks.cpg/sg23_14_cif.got.tgz:27977.got - 2010.06.04 12:02:01.
