data_PCOD9329547
_publ_section_title
;
Structure prediction by ZEFSAII (Michael W. Deem and Ramdas Pophale) SiO2 
 PCOD9329547
Probable space group: I 2 2 2
;
_chemical_formula_sum "Si O2"
_cell_formula_units_Z 64
_cell_length_a 17.118723
_cell_length_b 11.419587
_cell_length_c 13.803254
_cell_angle_alpha 90.000000
_cell_angle_beta 90.000000
_cell_angle_gamma 90.000000
_cell_volume 2698.380824
_symmetry_space_group_name_H-M "I 2 2 2"
_symmetry_group_IT_number 23
_symmetry_cell_setting 'orthorhombic'
loop_
_space_group_symop_operation_xyz
x,y,z
-x,-y,z
x,-y,-z
-x,y,-z
1/2+x,1/2+y,1/2+z
1/2-x,1/2-y,1/2+z
1/2+x,1/2-y,1/2-z
1/2-x,1/2+y,1/2-z
loop_
_atom_site_type_symbol
_atom_site_label
_atom_site_fract_x
_atom_site_fract_y
_atom_site_fract_z
Si Si1 0.245007 0.867157 0.494578
Si Si2 0.873825 0.788085 0.222351
Si Si3 0.364995 0.647061 0.666120
Si Si4 0.583220 0.788471 0.511714
Si Si5 0.477903 0.378214 0.160001
Si Si6 0.206533 0.316025 0.680578
Si Si7 0.301192 0.841843 0.123666
Si Si8 0.581570 0.148917 0.952623
O O1 0.338941 0.864702 0.499314
O O2 0.223010 0.787666 0.400165
O O3 0.214758 0.791753 0.584845
O O4 0.215823 0.000000 0.500000
O O5 0.910142 0.767679 0.117643
O O6 0.793295 0.860488 0.205967
O O7 0.839547 0.669492 0.271301
O O8 0.942421 0.827979 0.293517
O O9 0.411146 0.689285 0.571790
O O10 0.420148 0.591571 0.748498
O O11 0.332380 0.758789 0.725858
O O12 0.282634 0.595694 0.627202
O O13 0.500000 0.849242 0.500000
O O14 0.500000 0.500000 0.111077
O O15 0.440670 0.279659 0.090173
O O16 0.137880 0.395331 0.635129
O O17 0.361653 0.874947 0.042253
O O18 0.500000 0.113416 0.000000
#
# Coordination Sequence:
#
# PCOD9329547 Si02
#       8
#     8   8   8   8   8   8   8   8
#     4   9  18  31  50  78 102 127 160 209 276 326
#     4  10  18  33  49  73 101 144 186 210 257 321
#     4   9  18  35  50  71 101 146 192 211 248 317
#     4  10  18  31  53  69  96 135 174 221 247 288
#     4  11  22  33  52  83 115 144 173 223 282 340
#     4   8  18  32  50  70 105 144 174 215 258 327
#     4   9  18  32  52  71 106 148 174 215 260 324
#     4  10  18  33  51  82 107 134 173 218 278 330
#
# _framework density 23.717928000000001
#
# number of rings (size 3 to 8) (size 9 to 14) (size 15 to 20)
#    0.000    2.500    2.500    0.750    0.000    3.500 
#    0.000    1.250    0.000    0.000    0.000    0.000 
#    0.000    2.000    6.750    0.000    5.500    0.000 
#
# Total GULP energy -178175.273261 kJ/mol
# GULP energy per Si atom -5567.977289 kJ/mol
# Density = 2.366394 g / cm^3
# Si number density = 23.717928 Si / 1000 Ang^3
#
#
#
# Elastic Constant Matrix: (Units=GPa)
#
#
# Indices 1 2 3 4 5 6 
#
# 1 182.4557 2.6777 20.9702 0.0000 0.0000 0.0000
# 2 2.6777 79.1342 14.4839 0.0000 0.0000 0.0000
# 3 20.9702 14.4839 127.4721 0.0000 0.0000 0.0000
# 4 0.0000 0.0000 0.0000 6.7656 0.0000 0.0000
# 5 0.0000 0.0000 0.0000 0.0000 35.1672 0.0000
# 6 0.0000 0.0000 0.0000 0.0000 0.0000 -16.3714
#
#
#
# Elastic Compliance Matrix: (Units=1/GPa)
#
#
# Indices 1 2 3 4 5 6 
#
# 1 0.005586 -0.000021 -0.000917 0.000000 0.000000 0.000000
# 2 -0.000021 0.012905 -0.001463 0.000000 0.000000 0.000000
# 3 -0.000917 -0.001463 0.008162 0.000000 0.000000 0.000000
# 4 0.000000 0.000000 0.000000 0.147807 0.000000 0.000000
# 5 0.000000 0.000000 0.000000 0.000000 0.028436 0.000000
# 6 0.000000 0.000000 0.000000 0.000000 0.000000 -0.061082
#
#
# Mechanical properties :
#
#
# Convention : Reuss Voigt Hill
#
# Bulk Modulus (GPa) = 45.76220 51.70285 48.73252
# Shear Modulus (GPa) = 32.48881 28.50764 30.49822
#
# Velocity S-wave (km/s) = 3.70510 3.47067 3.58980
# Velocity P-wave (km/s) = 6.13513 6.15687 6.14601
#
# Compressibility (1/GPa) = 0.02185210
#
# Stress axis : x y z
#
# Youngs Moduli (GPa) = 179.00477 77.48803 122.52112
#
# Poissons Ratio (x) = 0.00165 0.11230
# Poissons Ratio (y) = 0.00381 0.17923
# Poissons Ratio (z) = 0.16408 0.11335
#
# Static dielectric constant tensor:
#      x y z
#    x 2.014680 0.000000 0.000000 
#    y 0.000000 1.985090 0.000000 
#    z 0.000000 0.000000 1.930060 
# 
# From -- ./inp_files/22220.got.cif
#   From: 2010.05.17/outbox.cif.g08.bks.cpg/sg23_12_cif.got.tgz:22220.got - 2010.06.04 12:02:01.
