data_PCOD9329054
_publ_section_title
;
Structure prediction by ZEFSAII (Michael W. Deem and Ramdas Pophale) SiO2 
 PCOD9329054
Probable space group: F 2 2 2
;
_chemical_formula_sum "Si O2"
_cell_formula_units_Z 100
_cell_length_a 28.311100
_cell_length_b 15.294376
_cell_length_c 11.479778
_cell_angle_alpha 90.000000
_cell_angle_beta 90.000000
_cell_angle_gamma 90.000000
_cell_volume 4970.750858
_symmetry_space_group_name_H-M "F 2 2 2"
_symmetry_group_IT_number 22
_symmetry_cell_setting 'orthorhombic'
loop_
_space_group_symop_operation_xyz
x,y,z
-x,-y,z
x,-y,-z
-x,y,-z
x,1/2+y,1/2+z
-x,1/2-y,1/2+z
x,1/2-y,1/2-z
-x,1/2+y,1/2-z
1/2+x,y,1/2+z
1/2-x,-y,1/2+z
1/2+x,-y,1/2-z
1/2-x,y,1/2-z
1/2+x,1/2+y,z
1/2-x,1/2-y,z
1/2+x,1/2-y,-z
1/2-x,1/2+y,-z
loop_
_atom_site_type_symbol
_atom_site_label
_atom_site_fract_x
_atom_site_fract_y
_atom_site_fract_z
Si Si1 0.444012 0.603346 0.480452
Si Si2 0.250000 0.250000 0.250000
Si Si3 0.391921 0.648769 0.242713
Si Si4 0.297997 0.550955 0.174881
Si Si5 0.944039 0.401600 0.493358
Si Si6 0.893657 0.742346 0.384890
Si Si7 0.305881 0.635902 0.934930
O O1 0.436327 0.500000 0.500000
O O2 0.500000 0.620939 0.500000
O O3 0.425017 0.624238 0.351636
O O4 0.414426 0.667936 0.564763
O O5 0.275634 0.313901 0.160099
O O6 0.378968 0.750000 0.250000
O O7 0.343283 0.593758 0.238070
O O8 0.422983 0.635138 0.126412
O O9 0.250000 0.541578 0.250000
O O10 0.315929 0.457310 0.126264
O O11 0.286020 0.610088 0.061142
O O12 0.924500 0.500000 0.500000
O O13 0.930531 0.336133 0.596851
O O14 0.000000 0.406588 0.500000
O O15 0.880792 0.750000 0.250000
O O16 0.849349 0.702045 0.453890
#
# Coordination Sequence:
#
# PCOD9329054 Si02
#       7
#    16   4  16  16  16  16  16
#     4  11  28  46  66 103 147 193 235 289 356 425
#     4  12  24  44  70 104 138 180 224 282 356 428
#     4  12  25  45  71 101 142 182 241 299 344 425
#     4  11  25  47  74 102 141 186 233 296 360 417
#     4  11  25  42  71 104 135 185 234 287 354 419
#     4  12  25  43  71 101 140 184 226 292 352 416
#     4  11  24  46  71 105 141 174 232 293 353 429
#
# _framework density 20.117685999999999
#
# number of rings (size 3 to 8) (size 9 to 14) (size 15 to 20)
#    0.000    0.640    4.800    1.440    6.720    4.160 
#    2.880    0.000    0.000    0.000    0.000    0.000 
#    0.000    0.000    0.000    0.000    0.000    0.000 
#
# Total GULP energy -139537.104281 kJ/mol
# GULP energy per Si atom -5581.484171 kJ/mol
# Density = 2.007190 g / cm^3
# Si number density = 20.117686 Si / 1000 Ang^3
#
#
#
# Elastic Constant Matrix: (Units=GPa)
#
#
# Indices 1 2 3 4 5 6 
#
# 1 101.1539 39.0791 33.0110 0.0000 0.0000 0.0000
# 2 39.0791 132.8033 32.1325 0.0000 0.0000 0.0000
# 3 33.0110 32.1325 99.9402 0.0000 0.0000 0.0000
# 4 0.0000 0.0000 0.0000 21.2660 0.0000 0.0000
# 5 0.0000 0.0000 0.0000 0.0000 22.2020 0.0000
# 6 0.0000 0.0000 0.0000 0.0000 0.0000 24.9356
#
#
#
# Elastic Compliance Matrix: (Units=1/GPa)
#
#
# Indices 1 2 3 4 5 6 
#
# 1 0.011957 -0.002779 -0.003056 0.000000 0.000000 0.000000
# 2 -0.002779 0.008811 -0.001915 0.000000 0.000000 0.000000
# 3 -0.003056 -0.001915 0.011631 0.000000 0.000000 0.000000
# 4 0.000000 0.000000 0.000000 0.047023 0.000000 0.000000
# 5 0.000000 0.000000 0.000000 0.000000 0.045041 0.000000
# 6 0.000000 0.000000 0.000000 0.000000 0.000000 0.040103
#
#
# Mechanical properties :
#
#
# Convention : Reuss Voigt Hill
#
# Bulk Modulus (GPa) = 59.17483 60.26030 59.71757
# Shear Modulus (GPa) = 26.92522 28.99238 27.95880
#
# Velocity S-wave (km/s) = 3.66236 3.80035 3.73200
# Velocity P-wave (km/s) = 6.88201 7.01967 6.95118
#
# Compressibility (1/GPa) = 0.01689908
#
# Stress axis : x y z
#
# Youngs Moduli (GPa) = 83.63405 113.49388 85.97662
#
# Poissons Ratio (x) = 0.31541 0.26274
# Poissons Ratio (y) = 0.23242 0.16464
# Poissons Ratio (z) = 0.25558 0.21734
#
# Static dielectric constant tensor:
#      x y z
#    x 1.774830 0.000000 0.000000 
#    y 0.000000 1.806110 0.000000 
#    z 0.000000 0.000000 1.791270 
# 
# From -- ./inp_files/25363.got.cif
#   From: 2010.05.17/outbox.cif.g08.bks.cpg/sg22_13_cif.got.tgz:25363.got - 2010.06.03 23:40:54.
