data_PCOD9329846
_publ_section_title
;
Structure prediction by ZEFSAII (Michael W. Deem and Ramdas Pophale) SiO2 
 PCOD9329846
Probable space group: I 2 2 2
;
_chemical_formula_sum "Si O2"
_cell_formula_units_Z 64
_cell_length_a 17.486200
_cell_length_b 14.385566
_cell_length_c 15.513482
_cell_angle_alpha 90.000000
_cell_angle_beta 90.000000
_cell_angle_gamma 90.000000
_cell_volume 3902.399087
_symmetry_space_group_name_H-M "I 2 2 2"
_symmetry_group_IT_number 23
_symmetry_cell_setting 'orthorhombic'
loop_
_space_group_symop_operation_xyz
x,y,z
-x,-y,z
x,-y,-z
-x,y,-z
1/2+x,1/2+y,1/2+z
1/2-x,1/2-y,1/2+z
1/2+x,1/2-y,1/2-z
1/2-x,1/2+y,1/2-z
loop_
_atom_site_type_symbol
_atom_site_label
_atom_site_fract_x
_atom_site_fract_y
_atom_site_fract_z
Si Si1 0.592615 0.894990 0.500000
Si Si2 0.410500 0.209694 0.325425
Si Si3 0.413671 0.887293 1.000000
Si Si4 0.324650 0.110223 0.827849
Si Si5 0.175350 0.389777 0.672151
Si Si6 0.347948 0.607436 0.603757
Si Si7 0.652053 0.607436 0.603756
Si Si8 0.410499 0.209694 0.674575
O O1 0.500000 0.896790 0.500000
O O2 0.614134 0.842917 0.412895
O O3 0.614134 0.842918 0.587106
O O4 0.621253 0.000000 0.500000
O O5 0.356349 0.172227 0.249781
O O6 0.400830 0.317772 0.349177
O O7 0.500000 0.188658 0.306626
O O8 0.370298 0.860795 0.086462
O O9 0.500000 0.853005 0.000000
O O10 0.370298 0.860795 0.913537
O O11 0.414600 0.000000 0.000000
O O12 0.235811 0.118319 0.853295
O O13 0.356349 0.172227 0.750219
O O14 0.339777 0.000000 0.810040
O O15 0.264188 0.381681 0.646704
O O16 0.371812 0.500000 0.614505
O O17 0.343883 0.624417 0.500000
O O18 0.599171 0.682228 0.650823
#
# Coordination Sequence:
#
# PCOD9329846 Si02
#       8
#     8   8   8   8   8   8   8   8
#     4   9  18  31  45  67 103 138 165 199 250 311
#     4  11  21  33  51  77 106 139 175 216 264 311
#     4   9  16  27  46  74 104 131 162 204 254 309
#     4  10  19  33  53  77 105 137 171 213 266 319
#     4  10  19  33  53  77 105 137 171 213 266 319
#     4  10  20  36  55  74 102 141 182 220 259 305
#     4  10  20  36  55  74 102 141 182 220 259 305
#     4  11  21  33  51  77 106 139 175 216 264 311
#
# _framework density 16.400167
#
# number of rings (size 3 to 8) (size 9 to 14) (size 15 to 20)
#    0.000    2.000    2.500    2.250    0.000    3.000 
#    0.000    1.250    0.000    0.000    0.000    0.875 
#    0.000    3.000    0.000    0.000    0.000    0.000 
#
# Total GULP energy -178398.070645 kJ/mol
# GULP energy per Si atom -5574.939708 kJ/mol
# Density = 1.636284 g / cm^3
# Si number density = 16.400167 Si / 1000 Ang^3
#
#
#
# Elastic Constant Matrix: (Units=GPa)
#
#
# Indices 1 2 3 4 5 6 
#
# 1 18.2085 6.8183 8.1370 0.0000 0.0000 0.0000
# 2 6.8183 69.6674 35.4057 0.0000 0.0000 0.0000
# 3 8.1370 35.4057 103.4909 0.0000 0.0000 0.0000
# 4 0.0000 0.0000 0.0000 25.1075 0.0000 0.0000
# 5 0.0000 0.0000 0.0000 0.0000 6.1921 0.0000
# 6 0.0000 0.0000 0.0000 0.0000 0.0000 23.3700
#
#
#
# Elastic Compliance Matrix: (Units=1/GPa)
#
#
# Indices 1 2 3 4 5 6 
#
# 1 0.057851 -0.004055 -0.003161 0.000000 0.000000 0.000000
# 2 -0.004055 0.017659 -0.005723 0.000000 0.000000 0.000000
# 3 -0.003161 -0.005723 0.011869 0.000000 0.000000 0.000000
# 4 0.000000 0.000000 0.000000 0.039829 0.000000 0.000000
# 5 0.000000 0.000000 0.000000 0.000000 0.161495 0.000000
# 6 0.000000 0.000000 0.000000 0.000000 0.000000 0.042790
#
#
# Mechanical properties :
#
#
# Convention : Reuss Voigt Hill
#
# Bulk Modulus (GPa) = 16.25999 32.45432 24.35715
# Shear Modulus (GPa) = 13.23206 20.33433 16.78319
#
# Velocity S-wave (km/s) = 2.84355 3.52502 3.20246
# Velocity P-wave (km/s) = 4.55160 6.03321 5.34400
#
# Compressibility (1/GPa) = 0.06150065
#
# Stress axis : x y z
#
# Youngs Moduli (GPa) = 17.28593 56.62808 84.25305
#
# Poissons Ratio (x) = 0.22964 0.26634
# Poissons Ratio (y) = 0.07010 0.48214
# Poissons Ratio (z) = 0.05464 0.32406
#
# Static dielectric constant tensor:
#      x y z
#    x 1.552460 0.000000 0.000000 
#    y 0.000000 1.559360 0.000000 
#    z 0.000000 0.000000 1.529650 
# 
# From -- ./inp_files/21784.got.cif
#   From: 2010.05.17/outbox.cif.g08.bks.cpg/sg23_11_cif.got.tgz:21784.got - 2010.06.04 12:02:01.
