data_PCOD9329972
_publ_section_title
;
Structure prediction by ZEFSAII (Michael W. Deem and Ramdas Pophale) SiO2 
 PCOD9329972
Probable space group: I 2 2 2
;
_chemical_formula_sum "Si O2"
_cell_formula_units_Z 48
_cell_length_a 8.969972
_cell_length_b 15.724892
_cell_length_c 18.215098
_cell_angle_alpha 90.000000
_cell_angle_beta 90.000000
_cell_angle_gamma 90.000000
_cell_volume 2569.273106
_symmetry_space_group_name_H-M "I 2 2 2"
_symmetry_group_IT_number 23
_symmetry_cell_setting 'orthorhombic'
loop_
_space_group_symop_operation_xyz
x,y,z
-x,-y,z
x,-y,-z
-x,y,-z
1/2+x,1/2+y,1/2+z
1/2-x,1/2-y,1/2+z
1/2+x,1/2-y,1/2-z
1/2-x,1/2+y,1/2-z
loop_
_atom_site_type_symbol
_atom_site_label
_atom_site_fract_x
_atom_site_fract_y
_atom_site_fract_z
Si Si1 0.350995 0.270960 0.042404
Si Si2 0.084371 0.580588 0.765077
Si Si3 0.677381 0.718797 0.407258
Si Si4 0.466628 0.743746 0.186163
Si Si5 0.080887 0.090531 0.787612
Si Si6 0.061478 0.368881 0.072958
O O1 0.410630 0.243195 0.121947
O O2 0.231277 0.343378 0.057481
O O3 0.500000 0.299456 0.000000
O O4 0.263465 0.208269 0.985547
O O5 0.031431 0.671284 0.734381
O O6 0.258714 0.574398 0.748760
O O7 0.055583 0.583261 0.851282
O O8 0.000000 0.500000 0.731390
O O9 0.804600 0.758371 0.353394
O O10 0.614616 0.636085 0.365859
O O11 0.542284 0.784558 0.417812
O O12 0.498612 0.660820 0.235809
O O13 0.000000 0.000000 0.793893
O O14 0.000000 0.411104 0.000000
#
# Coordination Sequence:
#
# PCOD9329972 Si02
#       6
#     8   8   8   8   8   8
#     4   9  18  36  64  89 117 159 208 248 311 377
#     4  11  24  37  59  92 122 163 211 255 319 375
#     4   9  20  36  61  91 117 164 206 252 314 376
#     4  10  20  39  63  88 120 166 205 260 314 376
#     4  11  23  37  60  94 127 162 208 260 322 383
#     4  10  19  35  60  85 119 158 202 249 309 368
#
# _framework density 18.682326
#
# number of rings (size 3 to 8) (size 9 to 14) (size 15 to 20)
#    0.000    2.000    3.333    0.000    2.333    1.667 
#    0.000    0.000    0.000   35.500    0.000    0.000 
#    0.000    0.000    0.000    0.000    0.000    0.000 
#
# Total GULP energy -133740.524343 kJ/mol
# GULP energy per Si atom -5572.521848 kJ/mol
# Density = 1.863980 g / cm^3
# Si number density = 18.682326 Si / 1000 Ang^3
#
#
#
# Elastic Constant Matrix: (Units=GPa)
#
#
# Indices 1 2 3 4 5 6 
#
# 1 99.4239 69.4796 41.9041 0.0000 0.0000 0.0000
# 2 69.4796 137.1951 58.7956 0.0000 0.0000 0.0000
# 3 41.9041 58.7956 114.8593 0.0000 0.0000 0.0000
# 4 0.0000 0.0000 0.0000 -0.2112 0.0000 0.0000
# 5 0.0000 0.0000 0.0000 0.0000 15.4094 0.0000
# 6 0.0000 0.0000 0.0000 0.0000 0.0000 4.5078
#
#
#
# Elastic Compliance Matrix: (Units=1/GPa)
#
#
# Indices 1 2 3 4 5 6 
#
# 1 0.015975 -0.007164 -0.002161 0.000000 0.000000 0.000000
# 2 -0.007164 0.012550 -0.003811 0.000000 0.000000 0.000000
# 3 -0.002161 -0.003811 0.011445 0.000000 0.000000 0.000000
# 4 0.000000 0.000000 0.000000 -4.735711 0.000000 0.000000
# 5 0.000000 0.000000 0.000000 0.000000 0.064895 0.000000
# 6 0.000000 0.000000 0.000000 0.000000 0.000000 0.221836
#
#
# Mechanical properties :
#
#
# Convention : Reuss Voigt Hill
#
# Bulk Modulus (GPa) = 72.99731 76.87078 74.93404
# Shear Modulus (GPa) = -1.14203 16.02782 7.44290
#
# Velocity S-wave (km/s) = -0.78270 2.93219 1.99814
# Velocity P-wave (km/s) = 6.19200 7.25943 6.74686
#
# Compressibility (1/GPa) = 0.01369914
#
# Stress axis : x y z
#
# Youngs Moduli (GPa) = 62.59690 79.68050 87.37232
#
# Poissons Ratio (x) = 0.57085 0.18880
# Poissons Ratio (y) = 0.44846 0.33294
# Poissons Ratio (z) = 0.13527 0.30363
#
# Static dielectric constant tensor:
#      x y z
#    x 1.654240 0.000000 0.000000 
#    y 0.000000 1.616570 0.000000 
#    z 0.000000 0.000000 1.703300 
# 
# From -- ./inp_files/9938.got.cif
#   From: 2010.05.17/outbox.cif.g08.bks.cpg/sg23_5_cif.got.tgz:9938.got - 2010.06.04 12:02:01.
