data_PCOD9329474
_publ_section_title
;
Structure prediction by ZEFSAII (Michael W. Deem and Ramdas Pophale) SiO2 
 PCOD9329474
Probable space group: I 2 2 2
;
_chemical_formula_sum "Si O2"
_cell_formula_units_Z 40
_cell_length_a 15.136077
_cell_length_b 15.167153
_cell_length_c 7.162997
_cell_angle_alpha 90.000000
_cell_angle_beta 90.000000
_cell_angle_gamma 90.000000
_cell_volume 1644.417786
_symmetry_space_group_name_H-M "I 2 2 2"
_symmetry_group_IT_number 23
_symmetry_cell_setting 'orthorhombic'
loop_
_space_group_symop_operation_xyz
x,y,z
-x,-y,z
x,-y,-z
-x,y,-z
1/2+x,1/2+y,1/2+z
1/2-x,1/2-y,1/2+z
1/2+x,1/2-y,1/2-z
1/2-x,1/2+y,1/2-z
loop_
_atom_site_type_symbol
_atom_site_label
_atom_site_fract_x
_atom_site_fract_y
_atom_site_fract_z
Si Si1 0.023473 0.712235 0.190130
Si Si2 0.157669 0.216786 0.358744
Si Si3 0.092561 0.464054 0.783939
Si Si4 0.830153 0.164265 0.208719
Si Si5 0.289549 0.522453 0.223719
O O1 0.086552 0.638728 0.276712
O O2 0.086394 0.789135 0.116035
O O3 0.936557 0.742640 0.297202
O O4 0.000000 0.661028 0.000000
O O5 0.153649 0.186975 0.573097
O O6 0.237355 0.287346 0.336519
O O7 0.180560 0.123977 0.253344
O O8 0.188401 0.491070 0.715516
O O9 0.000000 0.500000 0.710818
O O10 0.097506 0.500000 0.000000
O O11 0.836780 0.060114 0.181316
O O12 0.294783 0.500000 0.000000
#
# Coordination Sequence:
#
# PCOD9329474 Si02
#       5
#     8   8   8   8   8
#     4  12  23  39  65  97 129 168 211 267 317 379
#     4  11  23  41  65  94 131 167 218 266 318 383
#     4  10  17  33  63  93 115 158 228 251 297 377
#     4  11  23  42  65  95 127 170 218 263 321 379
#     4   9  20  38  63  88 123 174 216 253 308 399
#
# _framework density 24.324718000000001
#
# number of rings (size 3 to 8) (size 9 to 14) (size 15 to 20)
#    0.000    1.400    4.000    3.000    2.800    0.800 
#    0.000    8.000    0.000    1.200    0.000    0.000 
#    0.000    0.000    0.000    0.000    0.000    0.000 
#
# Total GULP energy -111575.126608 kJ/mol
# GULP energy per Si atom -5578.756330 kJ/mol
# Density = 2.426935 g / cm^3
# Si number density = 24.324718 Si / 1000 Ang^3
#
#
#
# Elastic Constant Matrix: (Units=GPa)
#
#
# Indices 1 2 3 4 5 6 
#
# 1 95.9342 36.6971 -2.8704 0.0000 0.0000 0.0000
# 2 36.6971 150.1283 9.0354 0.0000 0.0000 0.0000
# 3 -2.8704 9.0354 72.0605 0.0000 0.0000 0.0000
# 4 0.0000 0.0000 0.0000 24.9404 0.0000 0.0000
# 5 0.0000 0.0000 0.0000 0.0000 17.6064 0.0000
# 6 0.0000 0.0000 0.0000 0.0000 0.0000 11.8782
#
#
#
# Elastic Compliance Matrix: (Units=1/GPa)
#
#
# Indices 1 2 3 4 5 6 
#
# 1 0.011547 -0.002872 0.000820 0.000000 0.000000 0.000000
# 2 -0.002872 0.007426 -0.001046 0.000000 0.000000 0.000000
# 3 0.000820 -0.001046 0.014041 0.000000 0.000000 0.000000
# 4 0.000000 0.000000 0.000000 0.040096 0.000000 0.000000
# 5 0.000000 0.000000 0.000000 0.000000 0.056797 0.000000
# 6 0.000000 0.000000 0.000000 0.000000 0.000000 0.084188
#
#
# Mechanical properties :
#
#
# Convention : Reuss Voigt Hill
#
# Bulk Modulus (GPa) = 37.28683 44.87192 41.07937
# Shear Modulus (GPa) = 21.81225 29.23573 25.52399
#
# Velocity S-wave (km/s) = 2.99776 3.47060 3.24281
# Velocity P-wave (km/s) = 5.22916 5.87768 5.56288
#
# Compressibility (1/GPa) = 0.02681912
#
# Stress axis : x y z
#
# Youngs Moduli (GPa) = 86.60334 134.66408 71.22007
#
# Poissons Ratio (x) = 0.38674 -0.05840
# Poissons Ratio (y) = 0.24871 0.07446
# Poissons Ratio (z) = -0.07102 0.14079
#
# Static dielectric constant tensor:
#      x y z
#    x 1.920450 0.000000 0.000000 
#    y 0.000000 2.023650 0.000000 
#    z 0.000000 0.000000 2.081710 
# 
# From -- ./inp_files/9567.got.cif
#   From: 2010.05.17/outbox.cif.g08.bks.cpg/sg23_5_cif.got.tgz:9567.got - 2010.06.04 12:02:01.
