data_PCOD9329767
_publ_section_title
;
Structure prediction by ZEFSAII (Michael W. Deem and Ramdas Pophale) SiO2 
 PCOD9329767
Probable space group: I 2 2 2
;
_chemical_formula_sum "Si O2"
_cell_formula_units_Z 64
_cell_length_a 9.257614
_cell_length_b 21.833926
_cell_length_c 13.944038
_cell_angle_alpha 90.000000
_cell_angle_beta 90.000000
_cell_angle_gamma 90.000000
_cell_volume 2818.509224
_symmetry_space_group_name_H-M "I 2 2 2"
_symmetry_group_IT_number 23
_symmetry_cell_setting 'orthorhombic'
loop_
_space_group_symop_operation_xyz
x,y,z
-x,-y,z
x,-y,-z
-x,y,-z
1/2+x,1/2+y,1/2+z
1/2-x,1/2-y,1/2+z
1/2+x,1/2-y,1/2-z
1/2-x,1/2+y,1/2-z
loop_
_atom_site_type_symbol
_atom_site_label
_atom_site_fract_x
_atom_site_fract_y
_atom_site_fract_z
Si Si1 0.350438 0.262883 0.191532
Si Si2 0.673373 0.398193 0.187540
Si Si3 0.839465 0.246020 0.642201
Si Si4 0.847736 0.095366 0.318583
Si Si5 0.337711 0.908870 0.496151
Si Si6 0.832648 0.926864 0.893634
Si Si7 0.827806 0.925393 0.102573
Si Si8 0.342349 0.239557 0.530748
O O1 0.301574 0.267650 0.300389
O O2 0.502853 0.230402 0.172976
O O3 0.364506 0.332728 0.157215
O O4 0.208034 0.239559 0.135696
O O5 0.660392 0.326192 0.165072
O O6 0.512934 0.427417 0.186527
O O7 0.736176 0.405255 0.294965
O O8 0.763598 0.422101 0.097766
O O9 0.795314 0.257648 0.533702
O O10 0.754323 0.068503 0.405043
O O11 0.777713 0.090543 0.212525
O O12 0.500000 0.931619 0.500000
O O13 0.349277 0.834464 0.481542
O O14 0.001972 0.908224 0.894242
O O15 0.824201 0.000648 0.896526
O O16 0.771053 0.905103 0.997161
O O17 0.500000 0.262804 0.500000
#
# Coordination Sequence:
#
# PCOD9329767 Si02
#       8
#     8   8   8   8   8   8   8   8
#     4  10  19  31  46  68  97 129 162 200 242 290
#     4   9  17  30  49  73  97 125 163 203 243 289
#     4  10  19  31  46  68  97 129 162 200 242 290
#     4   9  17  30  49  73  97 125 163 203 243 289
#     4   9  17  29  48  70  93 126 160 195 241 290
#     4   8  14  27  49  75 100 125 157 200 247 291
#     4   8  14  27  49  75 100 125 157 200 247 291
#     4   9  17  31  49  66  86 121 163 201 242 288
#
# _framework density 22.707038000000001
#
# number of rings (size 3 to 8) (size 9 to 14) (size 15 to 20)
#    0.000    3.000    0.000    2.250    0.000    4.000 
#    2.250    0.625    0.000    5.250    0.000    1.750 
#    0.000    0.000    0.000    0.000    0.000    0.000 
#
# Total GULP energy -178254.887783 kJ/mol
# GULP energy per Si atom -5570.465243 kJ/mol
# Density = 2.265536 g / cm^3
# Si number density = 22.707038 Si / 1000 Ang^3
#
#
#
# Elastic Constant Matrix: (Units=GPa)
#
#
# Indices 1 2 3 4 5 6 
#
# 1 89.0087 7.5737 47.0171 0.0000 0.0000 0.0000
# 2 7.5737 49.4095 -0.5696 0.0000 0.0000 0.0000
# 3 47.0171 -0.5696 194.7366 0.0000 0.0000 0.0000
# 4 0.0000 0.0000 0.0000 9.3287 0.0000 0.0000
# 5 0.0000 0.0000 0.0000 0.0000 20.7796 0.0000
# 6 0.0000 0.0000 0.0000 0.0000 0.0000 -1.6582
#
#
#
# Elastic Compliance Matrix: (Units=1/GPa)
#
#
# Indices 1 2 3 4 5 6 
#
# 1 0.013080 -0.002041 -0.003164 0.000000 0.000000 0.000000
# 2 -0.002041 0.020558 0.000553 0.000000 0.000000 0.000000
# 3 -0.003164 0.000553 0.005901 0.000000 0.000000 0.000000
# 4 0.000000 0.000000 0.000000 0.107196 0.000000 0.000000
# 5 0.000000 0.000000 0.000000 0.000000 0.048124 0.000000
# 6 0.000000 0.000000 0.000000 0.000000 0.000000 -0.603046
#
#
# Mechanical properties :
#
#
# Convention : Reuss Voigt Hill
#
# Bulk Modulus (GPa) = 33.07524 49.02192 41.04858
# Shear Modulus (GPa) = -12.85994 24.29891 5.71949
#
# Velocity S-wave (km/s) = -2.38238 3.27479 1.58880
# Velocity P-wave (km/s) = 2.65143 5.99456 4.63491
#
# Compressibility (1/GPa) = 0.03023409
#
# Stress axis : x y z
#
# Youngs Moduli (GPa) = 76.45338 48.64211 169.47241
#
# Poissons Ratio (x) = 0.09930 0.53620
# Poissons Ratio (y) = 0.15607 -0.09372
# Poissons Ratio (z) = 0.24190 -0.02690
#
# Static dielectric constant tensor:
#      x y z
#    x 1.841620 0.000000 0.000000 
#    y 0.000000 1.901700 0.000000 
#    z 0.000000 0.000000 1.868040 
# 
# From -- ./inp_files/15007.got.cif
#   From: 2010.05.17/outbox.cif.g08.bks.cpg/sg23_8_cif.got.tgz:15007.got - 2010.06.04 12:02:01.
