data_PCOD9329440
_publ_section_title
;
Structure prediction by ZEFSAII (Michael W. Deem and Ramdas Pophale) SiO2 
 PCOD9329440
Probable space group: I 2 2 2
;
_chemical_formula_sum "Si O2"
_cell_formula_units_Z 46
_cell_length_a 11.428540
_cell_length_b 12.230925
_cell_length_c 16.908439
_cell_angle_alpha 90.000000
_cell_angle_beta 90.000000
_cell_angle_gamma 90.000000
_cell_volume 2363.488921
_symmetry_space_group_name_H-M "I 2 2 2"
_symmetry_group_IT_number 23
_symmetry_cell_setting 'orthorhombic'
loop_
_space_group_symop_operation_xyz
x,y,z
-x,-y,z
x,-y,-z
-x,y,-z
1/2+x,1/2+y,1/2+z
1/2-x,1/2-y,1/2+z
1/2+x,1/2-y,1/2-z
1/2-x,1/2+y,1/2-z
loop_
_atom_site_type_symbol
_atom_site_label
_atom_site_fract_x
_atom_site_fract_y
_atom_site_fract_z
Si Si1 0.800808 0.423045 0.255293
Si Si2 0.410436 0.397021 0.620365
Si Si3 0.500000 0.500000 0.000000
Si Si4 0.900569 0.864824 0.356866
Si Si5 0.926653 0.797044 0.775265
Si Si6 0.733122 0.500000 0.500000
Si Si7 0.682963 0.880802 0.846791
O O1 0.701558 0.404469 0.322476
O O2 0.718037 0.419038 0.177984
O O3 0.887615 0.321072 0.254164
O O4 0.862977 0.535051 0.280606
O O5 0.500000 0.500000 0.628994
O O6 0.482566 0.294532 0.651784
O O7 0.353779 0.407201 0.534608
O O8 0.430767 0.578680 0.060669
O O9 0.878330 0.734494 0.361005
O O10 0.008470 0.867618 0.293280
O O11 0.810183 0.851388 0.810352
O O12 0.805416 0.554675 0.429565
#
# Coordination Sequence:
#
# PCOD9329440 Si02
#       7
#     8   8   2   8   8   4   8
#     4   9  19  35  57  82 108 142 189 244 273 323
#     4  10  17  30  55  82 107 147 185 236 281 329
#     4  12  24  36  56  78 116 156 184 216 270 356
#     4  10  23  38  57  82 111 152 192 225 281 345
#     4  10  19  34  56  80 109 145 191 233 280 326
#     4  10  19  30  58  87 116 140 187 236 285 342
#     4  10  20  36  57  84 113 143 185 242 286 326
#
# _framework density 19.462751000000001
#
# number of rings (size 3 to 8) (size 9 to 14) (size 15 to 20)
#    0.000    2.087    3.478    1.304    2.435    3.478 
#    0.000    1.739    0.000    0.000    0.000    0.000 
#    0.000    2.783    0.000    0.000    0.000    0.000 
#
# Total GULP energy -128077.658592 kJ/mol
# GULP energy per Si atom -5568.593852 kJ/mol
# Density = 1.941845 g / cm^3
# Si number density = 19.462751 Si / 1000 Ang^3
#
#
#
# Elastic Constant Matrix: (Units=GPa)
#
#
# Indices 1 2 3 4 5 6 
#
# 1 52.8843 29.5887 21.4021 0.0000 0.0000 0.0000
# 2 29.5887 122.4003 48.0542 0.0000 0.0000 0.0000
# 3 21.4021 48.0542 107.0046 0.0000 0.0000 0.0000
# 4 0.0000 0.0000 0.0000 27.3537 0.0000 0.0000
# 5 0.0000 0.0000 0.0000 0.0000 -3.7500 0.0000
# 6 0.0000 0.0000 0.0000 0.0000 0.0000 28.6555
#
#
#
# Elastic Compliance Matrix: (Units=1/GPa)
#
#
# Indices 1 2 3 4 5 6 
#
# 1 0.022399 -0.004438 -0.002487 0.000000 0.000000 0.000000
# 2 -0.004438 0.010798 -0.003962 0.000000 0.000000 0.000000
# 3 -0.002487 -0.003962 0.011622 0.000000 0.000000 0.000000
# 4 0.000000 0.000000 0.000000 0.036558 0.000000 0.000000
# 5 0.000000 0.000000 0.000000 0.000000 -0.266670 0.000000
# 6 0.000000 0.000000 0.000000 0.000000 0.000000 0.034897
#
#
# Mechanical properties :
#
#
# Convention : Reuss Voigt Hill
#
# Bulk Modulus (GPa) = 43.39257 53.37546 48.38401
# Shear Modulus (GPa) = -41.34264 22.66814 -9.33725
#
# Velocity S-wave (km/s) = -4.61390 3.41646 -2.19270
# Velocity P-wave (km/s) = 2.45774 6.56101 4.30154
#
# Compressibility (1/GPa) = 0.02304542
#
# Stress axis : x y z
#
# Youngs Moduli (GPa) = 44.64515 92.60870 86.04468
#
# Poissons Ratio (x) = 0.41103 0.21398
# Poissons Ratio (y) = 0.19815 0.34087
# Poissons Ratio (z) = 0.11103 0.36688
#
# Static dielectric constant tensor:
#      x y z
#    x 1.726820 0.000000 0.000000 
#    y 0.000000 1.743630 0.000000 
#    z 0.000000 0.000000 1.705260 
# 
# From -- ./inp_files/24336.got.cif
#   From: 2010.05.17/outbox.cif.g08.bks.cpg/sg23_13_cif.got.tgz:24336.got - 2010.06.04 12:02:01.
