data_PCOD9329836
_publ_section_title
;
Structure prediction by ZEFSAII (Michael W. Deem and Ramdas Pophale) SiO2 
 PCOD9329836
Probable space group: I 2 2 2
;
_chemical_formula_sum "Si O2"
_cell_formula_units_Z 48
_cell_length_a 30.903209
_cell_length_b 17.153569
_cell_length_c 5.539132
_cell_angle_alpha 90.000000
_cell_angle_beta 90.000000
_cell_angle_gamma 90.000000
_cell_volume 2936.295689
_symmetry_space_group_name_H-M "I 2 2 2"
_symmetry_group_IT_number 23
_symmetry_cell_setting 'orthorhombic'
loop_
_space_group_symop_operation_xyz
x,y,z
-x,-y,z
x,-y,-z
-x,y,-z
1/2+x,1/2+y,1/2+z
1/2-x,1/2-y,1/2+z
1/2+x,1/2-y,1/2-z
1/2-x,1/2+y,1/2-z
loop_
_atom_site_type_symbol
_atom_site_label
_atom_site_fract_x
_atom_site_fract_y
_atom_site_fract_z
Si Si1 0.795280 0.398234 0.113618
Si Si2 0.383231 0.919295 0.858551
Si Si3 0.017426 0.410403 0.751958
Si Si4 0.178126 0.221132 0.896624
Si Si5 0.155642 0.271299 0.400005
Si Si6 0.761531 0.621130 0.387927
O O1 0.845655 0.418038 0.156618
O O2 0.795785 0.303484 0.108595
O O3 0.771259 0.420823 0.359560
O O4 0.774940 0.421986 0.859492
O O5 0.430848 0.910893 0.751755
O O6 0.372787 0.848281 0.043463
O O7 0.380580 0.000000 0.000000
O O8 0.000000 0.500000 0.751269
O O9 0.000000 0.375667 0.500000
O O10 0.000000 0.374279 0.000000
O O11 0.152334 0.220751 0.643873
O O12 0.213100 0.152832 0.892814
O O13 0.150545 0.228401 0.144003
O O14 0.204622 0.305909 0.391730
#
# Coordination Sequence:
#
# PCOD9329836 Si02
#       6
#     8   8   8   8   8   8
#     4   9  17  24  36  58  67  92 116 133 195 228
#     4  10  19  33  43  55  80  98 124 184 202 250
#     4  10  20  34  44  56  61  91 141 165 218 257
#     4   9  14  25  38  53  74  89 107 135 164 234
#     4   9  17  24  36  58  67  92 116 133 195 228
#     4   9  14  25  38  53  74  89 107 135 164 234
#
# _framework density 16.347127
#
# number of rings (size 3 to 8) (size 9 to 14) (size 15 to 20)
#    0.000    3.000    1.667    5.000    0.000    5.333 
#    0.000    0.000    0.000    0.000    0.000    0.000 
#    0.000    0.000    0.000    0.000    0.000    0.000 
#
# Total GULP energy -133615.014767 kJ/mol
# GULP energy per Si atom -5567.292282 kJ/mol
# Density = 1.630992 g / cm^3
# Si number density = 16.347127 Si / 1000 Ang^3
#
#
#
# Elastic Constant Matrix: (Units=GPa)
#
#
# Indices 1 2 3 4 5 6 
#
# 1 92.7393 36.6633 52.3894 0.0000 0.0000 0.0000
# 2 36.6633 23.6589 32.1027 0.0000 0.0000 0.0000
# 3 52.3894 32.1027 201.6669 0.0000 -0.0001 0.0000
# 4 0.0000 0.0000 0.0000 6.3879 0.0000 0.0000
# 5 0.0000 0.0000 -0.0001 0.0000 16.3977 0.0000
# 6 0.0000 0.0000 0.0000 0.0000 0.0000 15.8624
#
#
#
# Elastic Compliance Matrix: (Units=1/GPa)
#
#
# Indices 1 2 3 4 5 6 
#
# 1 0.027871 -0.042559 -0.000466 0.000000 0.000000 0.000000
# 2 -0.042559 0.118900 -0.007871 0.000000 0.000000 0.000000
# 3 -0.000466 -0.007871 0.006333 0.000000 0.000000 0.000000
# 4 0.000000 0.000000 0.000000 0.156546 0.000000 0.000000
# 5 0.000000 0.000000 0.000000 0.000000 0.060984 0.000000
# 6 0.000000 0.000000 0.000000 0.000000 0.000000 0.063042
#
#
# Mechanical properties :
#
#
# Convention : Reuss Voigt Hill
#
# Bulk Modulus (GPa) = 19.48865 62.26401 40.87633
# Shear Modulus (GPa) = 9.04862 20.85692 14.95277
#
# Velocity S-wave (km/s) = 2.35527 3.57582 3.02769
# Velocity P-wave (km/s) = 4.39819 7.43101 6.10590
#
# Compressibility (1/GPa) = 0.05131191
#
# Stress axis : x y z
#
# Youngs Moduli (GPa) = 35.87959 8.41045 157.91257
#
# Poissons Ratio (x) = 0.35794 0.07352
# Poissons Ratio (y) = 1.52699 1.24297
# Poissons Ratio (z) = 0.01670 0.06620
#
# Static dielectric constant tensor:
#      x y z
#    x 1.524020 0.000000 0.000000 
#    y 0.000000 1.556550 0.000000 
#    z 0.000000 0.000000 1.676410 
# 
# From -- ./inp_files/4499.got.cif
#   From: 2010.05.17/outbox.cif.g08.bks.cpg/sg23_3_cif.got.tgz:4499.got - 2010.06.04 12:02:01.
