data_PCOD9329796
_publ_section_title
;
Structure prediction by ZEFSAII (Michael W. Deem and Ramdas Pophale) SiO2 
 PCOD9329796
Probable space group: I 2 2 2
;
_chemical_formula_sum "Si O2"
_cell_formula_units_Z 28
_cell_length_a 27.623288
_cell_length_b 8.299203
_cell_length_c 5.118550
_cell_angle_alpha 90.000000
_cell_angle_beta 90.000000
_cell_angle_gamma 90.000000
_cell_volume 1173.434112
_symmetry_space_group_name_H-M "I 2 2 2"
_symmetry_group_IT_number 23
_symmetry_cell_setting 'orthorhombic'
loop_
_space_group_symop_operation_xyz
x,y,z
-x,-y,z
x,-y,-z
-x,y,-z
1/2+x,1/2+y,1/2+z
1/2-x,1/2-y,1/2+z
1/2+x,1/2-y,1/2-z
1/2-x,1/2+y,1/2-z
loop_
_atom_site_type_symbol
_atom_site_label
_atom_site_fract_x
_atom_site_fract_y
_atom_site_fract_z
Si Si1 0.315545 0.287451 0.393514
Si Si2 0.743889 0.500000 0.000000
Si Si3 0.367236 0.181793 0.915568
Si Si4 0.022292 0.317549 0.253437
O O1 0.286440 0.428028 0.242784
O O2 0.335268 0.267355 0.690313
O O3 0.277887 0.139335 0.383831
O O4 0.360980 0.268791 0.194134
O O5 0.420657 0.171509 0.793941
O O6 0.352542 0.000000 0.000000
O O7 0.000000 0.500000 0.251782
O O8 0.000000 0.230843 0.500000
O O9 0.000000 0.238936 0.000000
#
# Coordination Sequence:
#
# PCOD9329796 Si02
#       4
#     8   4   8   8
#     4  12  28  44  73  97 153 189 258 308 370 451
#     4  12  28  50  70 110 140 208 254 314 376 438
#     4  12  22  41  64 106 143 192 234 308 377 435
#     4  10  19  31  56  94 143 176 226 291 370 428
#
# _framework density 23.861585999999999
#
# number of rings (size 3 to 8) (size 9 to 14) (size 15 to 20)
#    0.000    0.571    5.714    3.429    4.000    5.714 
#    0.000    0.000    0.000    0.000    0.000   15.000 
#    0.000    0.000    0.000    0.000    0.000    0.000 
#
# Total GULP energy -78099.496980 kJ/mol
# GULP energy per Si atom -5578.535499 kJ/mol
# Density = 2.380728 g / cm^3
# Si number density = 23.861586 Si / 1000 Ang^3
#
#
#
# Elastic Constant Matrix: (Units=GPa)
#
#
# Indices 1 2 3 4 5 6 
#
# 1 125.7331 57.5877 44.6693 0.0001 0.0000 0.0000
# 2 57.5877 85.8599 41.9385 -0.0002 -0.0001 0.0000
# 3 44.6693 41.9385 236.3317 -0.0005 -0.0001 0.0000
# 4 0.0001 -0.0002 -0.0005 28.4007 -0.0001 0.0000
# 5 0.0000 -0.0001 -0.0001 -0.0001 39.4828 0.0000
# 6 0.0000 0.0000 0.0000 0.0000 0.0000 3.6962
#
#
#
# Elastic Compliance Matrix: (Units=1/GPa)
#
#
# Indices 1 2 3 4 5 6 
#
# 1 0.011649 -0.007377 -0.000893 0.000000 0.000000 0.000000
# 2 -0.007377 0.017424 -0.001698 0.000000 0.000000 0.000000
# 3 -0.000893 -0.001698 0.004701 0.000000 0.000000 0.000000
# 4 0.000000 0.000000 0.000000 0.035210 0.000000 0.000000
# 5 0.000000 0.000000 0.000000 0.000000 0.025327 0.000000
# 6 0.000000 0.000000 0.000000 0.000000 0.000000 0.270547
#
#
# Mechanical properties :
#
#
# Convention : Reuss Voigt Hill
#
# Bulk Modulus (GPa) = 72.25691 81.81286 77.03489
# Shear Modulus (GPa) = 12.83997 34.56455 23.70226
#
# Velocity S-wave (km/s) = 2.32222 3.81010 3.15512
# Velocity P-wave (km/s) = 6.12680 7.32917 6.75479
#
# Compressibility (1/GPa) = 0.01383951
#
# Stress axis : x y z
#
# Youngs Moduli (GPa) = 85.84060 57.39121 212.70600
#
# Poissons Ratio (x) = 0.42340 0.18988
# Poissons Ratio (y) = 0.63329 0.36109
# Poissons Ratio (z) = 0.07663 0.09743
#
# Static dielectric constant tensor:
#      x y z
#    x 1.947820 0.000000 0.000000 
#    y 0.000000 2.008060 0.000000 
#    z 0.000000 0.000000 1.967660 
# 
# From -- ./inp_files/4690.got.cif
#   From: 2010.05.17/outbox.cif.g08.bks.cpg/sg23_3_cif.got.tgz:4690.got - 2010.06.04 12:02:01.
