data_PCOD9329122
_publ_section_title
;
Structure prediction by ZEFSAII (Michael W. Deem and Ramdas Pophale) SiO2 
 PCOD9329122
Probable space group: F 2 2 2
;
_chemical_formula_sum "Si O2"
_cell_formula_units_Z 72
_cell_length_a 25.197646
_cell_length_b 16.145233
_cell_length_c 7.635562
_cell_angle_alpha 90.000000
_cell_angle_beta 90.000000
_cell_angle_gamma 90.000000
_cell_volume 3106.313579
_symmetry_space_group_name_H-M "F 2 2 2"
_symmetry_group_IT_number 22
_symmetry_cell_setting 'orthorhombic'
loop_
_space_group_symop_operation_xyz
x,y,z
-x,-y,z
x,-y,-z
-x,y,-z
x,1/2+y,1/2+z
-x,1/2-y,1/2+z
x,1/2-y,1/2-z
-x,1/2+y,1/2-z
1/2+x,y,1/2+z
1/2-x,-y,1/2+z
1/2+x,-y,1/2-z
1/2-x,y,1/2-z
1/2+x,1/2+y,z
1/2-x,1/2-y,z
1/2+x,1/2-y,-z
1/2-x,1/2+y,-z
loop_
_atom_site_type_symbol
_atom_site_label
_atom_site_fract_x
_atom_site_fract_y
_atom_site_fract_z
Si Si1 0.750000 0.595119 0.250000
Si Si2 0.923547 0.000000 0.000000
Si Si3 0.571923 0.250000 0.750000
Si Si4 0.355080 0.509011 0.311765
Si Si5 0.250000 0.250000 0.495567
Si Si6 0.865674 0.196345 0.398149
Si Si7 0.000000 0.638505 0.500000
O O1 0.701744 0.536321 0.308091
O O2 0.762982 0.662354 0.398975
O O3 0.886782 0.968218 0.154653
O O4 0.958230 0.073331 0.081167
O O5 0.606755 0.293946 0.591978
O O6 0.532814 0.310415 0.857899
O O7 0.381868 0.500000 0.500000
O O8 0.355036 0.607882 0.305945
O O9 0.193512 0.230458 0.576933
O O10 0.895675 0.250000 0.250000
#
# Coordination Sequence:
#
# PCOD9329122 Si02
#       7
#     8   8   8  16   8  16   8
#     4  11  26  44  71 112 158 208 251 314 370 461
#     4  11  28  52  74 112 152 192 258 333 382 460
#     4  12  28  53  80 116 148 201 268 330 402 470
#     4  12  27  47  75 109 150 205 249 308 388 457
#     4  11  25  48  72 115 163 208 253 311 384 467
#     4  12  28  47  79 117 158 208 258 321 390 480
#     4  11  28  52  80 107 148 198 256 335 396 450
#
# _framework density 23.178598999999998
#
# number of rings (size 3 to 8) (size 9 to 14) (size 15 to 20)
#    0.000    0.444    2.222    4.333   15.556    0.000 
#    0.000    1.111    0.000    0.000    0.000    0.000 
#    0.000    0.000    0.000    0.000    0.000    0.000 
#
# Total GULP energy -100356.661928 kJ/mol
# GULP energy per Si atom -5575.370107 kJ/mol
# Density = 2.312584 g / cm^3
# Si number density = 23.178599 Si / 1000 Ang^3
#
#
#
# Elastic Constant Matrix: (Units=GPa)
#
#
# Indices 1 2 3 4 5 6 
#
# 1 99.9779 39.8530 40.0287 0.0000 0.0000 0.0000
# 2 39.8530 150.0558 24.3247 0.0001 0.0000 0.0000
# 3 40.0287 24.3247 110.2884 0.0002 0.0000 -0.0001
# 4 0.0000 0.0001 0.0002 42.7002 0.0000 0.0000
# 5 0.0000 0.0000 0.0000 0.0000 -115.3468 0.0000
# 6 0.0000 0.0000 -0.0001 0.0000 0.0000 35.2023
#
#
#
# Elastic Compliance Matrix: (Units=1/GPa)
#
#
# Indices 1 2 3 4 5 6 
#
# 1 0.012691 -0.002721 -0.004006 0.000000 0.000000 0.000000
# 2 -0.002721 0.007495 -0.000665 0.000000 0.000000 0.000000
# 3 -0.004006 -0.000665 0.010668 0.000000 0.000000 0.000000
# 4 0.000000 0.000000 0.000000 0.023419 0.000000 0.000000
# 5 0.000000 0.000000 0.000000 0.000000 -0.008670 0.000000
# 6 0.000000 0.000000 0.000000 0.000000 0.000000 0.028407
#
#
# Mechanical properties :
#
#
# Convention : Reuss Voigt Hill
#
# Bulk Modulus (GPa) = 62.23361 63.19279 62.71320
# Shear Modulus (GPa) = 53.10608 9.58552 31.34580
#
# Velocity S-wave (km/s) = 4.79181 2.03580 3.68143
# Velocity P-wave (km/s) = 7.58440 5.73137 6.72204
#
# Compressibility (1/GPa) = 0.01606849
#
# Stress axis : x y z
#
# Youngs Moduli (GPa) = 78.79741 133.42664 93.73991
#
# Poissons Ratio (x) = 0.36307 0.37551
# Poissons Ratio (y) = 0.21442 0.06237
# Poissons Ratio (z) = 0.31565 0.08878
#
# Static dielectric constant tensor:
#      x y z
#    x 1.850620 0.000000 0.000000 
#    y 0.000000 2.145930 0.000000 
#    z 0.000000 0.000000 1.978020 
# 
# From -- ./inp_files/14548.got.cif
#   From: 2010.05.17/outbox.cif.g08.bks.cpg/sg22_8_cif.got.tgz:14548.got - 2010.06.03 23:40:54.
