data_PCOD9329285
_publ_section_title
;
Structure prediction by ZEFSAII (Michael W. Deem and Ramdas Pophale) SiO2 
 PCOD9329285
Probable space group: F 2 2 2
;
_chemical_formula_sum "Si O2"
_cell_formula_units_Z 21
_cell_length_a 24.000000
_cell_length_b 12.000000
_cell_length_c 15.000000
_cell_angle_alpha 90.000000
_cell_angle_beta 90.000000
_cell_angle_gamma 90.000000
_cell_volume 4320.000000
_symmetry_space_group_name_H-M "F 2 2 2"
_symmetry_group_IT_number 22
_symmetry_cell_setting 'orthorhombic'
loop_
_space_group_symop_operation_xyz
x,y,z
-x,-y,z
x,-y,-z
-x,y,-z
x,1/2+y,1/2+z
-x,1/2-y,1/2+z
x,1/2-y,1/2-z
-x,1/2+y,1/2-z
1/2+x,y,1/2+z
1/2-x,-y,1/2+z
1/2+x,-y,1/2-z
1/2-x,y,1/2-z
1/2+x,1/2+y,z
1/2-x,1/2-y,z
1/2+x,1/2-y,-z
1/2-x,1/2+y,-z
loop_
_atom_site_type_symbol
_atom_site_label
_atom_site_fract_x
_atom_site_fract_y
_atom_site_fract_z
Si Si1 0.250000 0.750000 0.250000
Si Si2 0.750000 0.250000 0.750000
Si Si3 0.000000 0.500000 0.500000
Si Si4 0.000000 0.000000 0.698532
Si Si5 0.832814 0.143847 0.901507
Si Si6 0.549206 0.649579 0.855552
Si Si7 0.329311 0.124297 0.610879
Si Si8 0.559886 0.711521 0.351589
O O1 0.285144 0.829617 0.317389
O O2 0.790953 0.185883 0.821799
O O3 0.040722 0.565033 0.435838
O O4 0.045562 0.921503 0.647780
O O5 0.966700 0.915023 0.764321
O O6 0.888604 0.223757 0.898823
O O7 0.840074 0.010437 0.882633
O O8 0.814105 0.148720 0.006457
O O9 0.612716 0.685076 0.861682
O O10 0.500297 0.737010 0.875154
O O11 0.569881 0.750000 0.250000
#
# Coordination Sequence:
#
# PCOD9329285 Si02
#       8
#     4   4   4   8  16  16  16  16
#     4  12  28  44  62  92 136 172 232 278 346 374
#     4  12  24  40  66  96 124 172 212 298 332 368
#     4  10  16  32  56  98 114 152 206 274 296 392
#     4   9  20  33  58  97 137 158 204 257 336 398
#     4  11  23  42  69  94 128 165 230 269 332 386
#     4  10  19  32  61  89 123 158 209 252 325 383
#     4  11  24  43  64  94 125 176 220 280 319 402
#     4  10  19  35  59 102 127 166 204 266 320 409
#
# _framework density 4.8611110000000002
#
# number of rings (size 3 to 8) (size 9 to 14) (size 15 to 20)
#    0.000    1.524    0.952    6.857    4.000    0.000 
#    0.000    0.000    0.000    7.429    0.000    0.000 
#    0.000    0.000    0.000    0.000    0.000    0.000 
#
# Total GULP energy -116948.345743 kJ/mol
# GULP energy per Si atom -5568.968845 kJ/mol
# Density = 0.485005 g / cm^3
# Si number density = 4.861111 Si / 1000 Ang^3
#
#
#
# Elastic Constant Matrix: (Units=GPa)
#
#
# Indices 1 2 3 4 5 6 
#
# 1 123.5723 41.2448 53.9276 0.0000 0.0000 0.0000
# 2 41.2448 98.8339 38.4177 0.0000 0.0000 0.0000
# 3 53.9276 38.4177 119.5002 0.0000 0.0000 0.0000
# 4 0.0000 0.0000 0.0000 32.4228 0.0000 0.0000
# 5 0.0000 0.0000 0.0000 0.0000 -15.4513 0.0000
# 6 0.0000 0.0000 0.0000 0.0000 0.0000 31.4034
#
#
#
# Elastic Compliance Matrix: (Units=1/GPa)
#
#
# Indices 1 2 3 4 5 6 
#
# 1 0.010796 -0.002984 -0.003913 0.000000 0.000000 0.000000
# 2 -0.002984 0.012388 -0.002636 0.000000 0.000000 0.000000
# 3 -0.003913 -0.002636 0.010981 0.000000 0.000000 0.000000
# 4 0.000000 0.000000 0.000000 0.030842 0.000000 0.000000
# 5 0.000000 0.000000 0.000000 0.000000 -0.064719 0.000000
# 6 0.000000 0.000000 0.000000 0.000000 0.000000 0.031844
#
#
# Mechanical properties :
#
#
# Convention : Reuss Voigt Hill
#
# Bulk Modulus (GPa) = 66.22659 67.67629 66.95144
# Shear Modulus (GPa) = 88.91936 23.56273 56.24104
#
# Velocity S-wave (km/s) = 6.76973 3.48486 5.38394
# Velocity P-wave (km/s) = 9.75905 7.14653 8.55312
#
# Compressibility (1/GPa) = 0.01509968
#
# Stress axis : x y z
#
# Youngs Moduli (GPa) = 92.62686 80.72332 91.06501
#
# Poissons Ratio (x) = 0.24092 0.35629
# Poissons Ratio (y) = 0.27644 0.24002
# Poissons Ratio (z) = 0.36240 0.21277
#
# Static dielectric constant tensor:
#      x y z
#    x 1.744370 0.000000 0.000000 
#    y 0.000000 1.768730 0.000000 
#    z 0.000000 0.000000 1.698420 
# 
# From -- ./inp_files/32384.got.cif
#   From: 2010.05.17/outbox.ucp.g08.bks.cvg/sg22_17_cif.got.tgz:32384.got - 2010.06.11 15:16:44.
