data_PCOD9329549
_publ_section_title
;
Structure prediction by ZEFSAII (Michael W. Deem and Ramdas Pophale) SiO2 
 PCOD9329549
Probable space group: I 2 2 2
;
_chemical_formula_sum "Si O2"
_cell_formula_units_Z 44
_cell_length_a 12.742536
_cell_length_b 24.088079
_cell_length_c 8.031999
_cell_angle_alpha 90.000000
_cell_angle_beta 90.000000
_cell_angle_gamma 90.000000
_cell_volume 2465.367587
_symmetry_space_group_name_H-M "I 2 2 2"
_symmetry_group_IT_number 23
_symmetry_cell_setting 'orthorhombic'
loop_
_space_group_symop_operation_xyz
x,y,z
-x,-y,z
x,-y,-z
-x,y,-z
1/2+x,1/2+y,1/2+z
1/2-x,1/2-y,1/2+z
1/2+x,1/2-y,1/2-z
1/2-x,1/2+y,1/2-z
loop_
_atom_site_type_symbol
_atom_site_label
_atom_site_fract_x
_atom_site_fract_y
_atom_site_fract_z
Si Si1 0.907766 0.083187 0.243150
Si Si2 0.505868 0.800761 0.797676
Si Si3 0.735707 0.825426 0.806452
Si Si4 0.000000 0.000000 0.000000
Si Si5 0.054519 0.822160 0.681145
Si Si6 0.724223 0.799298 0.201656
Si Si7 0.000000 0.000000 0.500000
O O1 0.807039 0.122635 0.242355
O O2 0.005228 0.125782 0.227714
O O3 0.926752 0.042785 0.399349
O O4 0.921326 0.039999 0.096808
O O5 0.613153 0.832479 0.758626
O O6 0.523556 0.737157 0.740772
O O7 0.390953 0.819575 0.742568
O O8 0.500000 0.798735 0.000000
O O9 0.773859 0.767815 0.721596
O O10 0.741465 0.814973 0.007212
O O11 0.180133 0.822301 0.688155
O O12 0.000000 0.823931 0.500000
#
# Coordination Sequence:
#
# PCOD9329549 Si02
#       7
#     8   8   8   2   8   8   2
#     4  11  20  38  52  82 107 150 187 251 283 331
#     4   8  16  31  48  80 111 148 176 203 261 368
#     4  10  20  32  55  78 120 149 182 227 285 338
#     4  10  24  34  52  78 110 130 216 246 292 326
#     4  10  18  31  55  76 114 150 183 221 286 333
#     4  10  19  32  53  85 117 155 177 215 274 373
#     4  10  24  34  60  74 102 154 208 234 302 316
#
# _framework density 17.847238000000001
#
# number of rings (size 3 to 8) (size 9 to 14) (size 15 to 20)
#    0.000    2.182    2.727    2.182    0.000    0.000 
#    0.000    0.000    0.000    0.000    0.000   28.636 
#    0.000    0.000    0.000    0.000    0.000    0.000 
#
# Total GULP energy -122570.619724 kJ/mol
# GULP energy per Si atom -5571.391806 kJ/mol
# Density = 1.780662 g / cm^3
# Si number density = 17.847238 Si / 1000 Ang^3
#
#
#
# Elastic Constant Matrix: (Units=GPa)
#
#
# Indices 1 2 3 4 5 6 
#
# 1 190.6925 72.0768 36.7232 -0.0004 -0.0002 0.0001
# 2 72.0768 119.5769 38.5575 0.0006 0.0000 -0.0001
# 3 36.7232 38.5575 51.9000 0.0034 0.0026 -0.0014
# 4 -0.0004 0.0006 0.0034 -7.4325 -0.0007 -0.0001
# 5 -0.0002 0.0000 0.0026 -0.0007 4.4715 0.0002
# 6 0.0001 -0.0001 -0.0014 -0.0001 0.0002 28.0731
#
#
#
# Elastic Compliance Matrix: (Units=1/GPa)
#
#
# Indices 1 2 3 4 5 6 
#
# 1 0.007011 -0.003454 -0.002395 -0.000002 0.000002 0.000000
# 2 -0.003454 0.012699 -0.006990 -0.000002 0.000004 0.000000
# 3 -0.002395 -0.006990 0.026156 0.000012 -0.000015 0.000001
# 4 -0.000002 -0.000002 0.000012 -0.134543 -0.000022 -0.000001
# 5 0.000002 0.000004 -0.000015 -0.000022 0.223639 -0.000002
# 6 0.000000 0.000000 0.000001 -0.000001 -0.000002 0.035621
#
#
# Mechanical properties :
#
#
# Convention : Reuss Voigt Hill
#
# Bulk Modulus (GPa) = 49.53605 72.98715 61.26160
# Shear Modulus (GPa) = 24.63202 19.34321 21.98761
#
# Velocity S-wave (km/s) = 3.71908 3.29572 3.51378
# Velocity P-wave (km/s) = 6.80132 7.44759 7.13178
#
# Compressibility (1/GPa) = 0.02018732
#
# Stress axis : x y z
#
# Youngs Moduli (GPa) = 142.64166 78.74935 38.23270
#
# Poissons Ratio (x) = 0.27196 0.09156
# Poissons Ratio (y) = 0.49262 0.26726
# Poissons Ratio (z) = 0.34160 0.55049
#
# Static dielectric constant tensor:
#      x y z
#    x 1.645390 0.000000 0.000000 
#    y 0.000000 1.566690 0.000000 
#    z 0.000000 0.000000 1.699620 
# 
# From -- ./inp_files/8642.got.cif
#   From: 2010.05.17/outbox.cif.g08.bks.cpg/sg23_5_cif.got.tgz:8642.got - 2010.06.04 12:02:01.
