data_PCOD9329470
_publ_section_title
;
Structure prediction by ZEFSAII (Michael W. Deem and Ramdas Pophale) SiO2 
 PCOD9329470
Probable space group: I 2 2 2
;
_chemical_formula_sum "Si O2"
_cell_formula_units_Z 44
_cell_length_a 24.879666
_cell_length_b 11.122167
_cell_length_c 8.986424
_cell_angle_alpha 90.000000
_cell_angle_beta 90.000000
_cell_angle_gamma 90.000000
_cell_volume 2486.685508
_symmetry_space_group_name_H-M "I 2 2 2"
_symmetry_group_IT_number 23
_symmetry_cell_setting 'orthorhombic'
loop_
_space_group_symop_operation_xyz
x,y,z
-x,-y,z
x,-y,-z
-x,y,-z
1/2+x,1/2+y,1/2+z
1/2-x,1/2-y,1/2+z
1/2+x,1/2-y,1/2-z
1/2-x,1/2+y,1/2-z
loop_
_atom_site_type_symbol
_atom_site_label
_atom_site_fract_x
_atom_site_fract_y
_atom_site_fract_z
Si Si1 0.723743 0.828949 0.268003
Si Si2 0.755052 0.500000 0.000000
Si Si3 0.923899 0.910220 0.250580
Si Si4 0.659809 0.383860 0.838473
Si Si5 0.657795 0.760576 0.853986
Si Si6 0.500000 0.500000 0.500000
Si Si7 0.000000 0.000000 0.500000
Si Si8 0.689980 0.000000 0.000000
O O1 0.711995 0.899078 0.419832
O O2 0.678544 0.727555 0.257939
O O3 0.782935 0.770906 0.290260
O O4 0.720813 0.915051 0.121358
O O5 0.714771 0.544533 0.128201
O O6 0.887936 0.790697 0.247059
O O7 0.961015 0.924935 0.107307
O O8 0.884125 0.026076 0.273293
O O9 0.963226 0.919154 0.392866
O O10 0.647698 0.323524 0.999197
O O11 0.657916 0.899297 0.904517
#
# Coordination Sequence:
#
# PCOD9329470 Si02
#       8
#     8   4   8   8   8   2   2   4
#     4  10  20  32  54  84 126 158 195 232 271 362
#     4  10  17  34  46  79 118 159 192 215 278 338
#     4  11  19  40  58  89 110 152 194 262 304 357
#     4  10  17  33  56  80 108 157 198 228 282 350
#     4  10  19  34  57  82 118 156 198 237 280 355
#     4  10  28  36  56  98 118 130 210 254 336 334
#     4  10  18  34  72  76 100 146 212 268 294 336
#     4  10  22  35  50  89 120 161 203 228 276 358
#
# _framework density 17.694236
#
# number of rings (size 3 to 8) (size 9 to 14) (size 15 to 20)
#    0.000    1.818    5.455    1.091    0.000    0.727 
#    9.818    0.000    0.000    0.545    0.000    5.091 
#    0.000    0.000    0.000    0.000    0.000    0.000 
#
# Total GULP energy -122518.214624 kJ/mol
# GULP energy per Si atom -5569.009756 kJ/mol
# Density = 1.765396 g / cm^3
# Si number density = 17.694236 Si / 1000 Ang^3
#
#
#
# Elastic Constant Matrix: (Units=GPa)
#
#
# Indices 1 2 3 4 5 6 
#
# 1 82.9453 51.5705 50.0394 0.0000 0.0000 0.0000
# 2 51.5705 114.1030 39.0121 0.0000 0.0000 0.0000
# 3 50.0394 39.0121 71.1277 0.0000 0.0000 0.0000
# 4 0.0000 0.0000 0.0000 33.7778 0.0000 0.0000
# 5 0.0000 0.0000 0.0000 0.0000 31.5407 0.0000
# 6 0.0000 0.0000 0.0000 0.0000 0.0000 -7.8812
#
#
#
# Elastic Compliance Matrix: (Units=1/GPa)
#
#
# Indices 1 2 3 4 5 6 
#
# 1 0.024117 -0.006276 -0.013525 0.000000 0.000000 0.000000
# 2 -0.006276 0.012420 -0.002397 0.000000 0.000000 0.000000
# 3 -0.013525 -0.002397 0.024889 0.000000 0.000000 0.000000
# 4 0.000000 0.000000 0.000000 0.029605 0.000000 0.000000
# 5 0.000000 0.000000 0.000000 0.000000 0.031705 0.000000
# 6 0.000000 0.000000 0.000000 0.000000 0.000000 -0.126884
#
#
# Mechanical properties :
#
#
# Convention : Reuss Voigt Hill
#
# Bulk Modulus (GPa) = 58.71660 61.04667 59.88164
# Shear Modulus (GPa) = 108.87467 19.99106 64.43287
#
# Velocity S-wave (km/s) = 7.85269 3.36491 6.04100
# Velocity P-wave (km/s) = 10.74596 7.04788 9.08703
#
# Compressibility (1/GPa) = 0.01703096
#
# Stress axis : x y z
#
# Youngs Moduli (GPa) = 41.46373 80.51486 40.17893
#
# Poissons Ratio (x) = 0.50532 0.54341
# Poissons Ratio (y) = 0.26023 0.09630
# Poissons Ratio (z) = 0.56078 0.19298
#
# Static dielectric constant tensor:
#      x y z
#    x 1.600340 0.000000 0.000000 
#    y 0.000000 1.700520 0.000000 
#    z 0.000000 0.000000 1.682380 
# 
# From -- ./inp_files/12565.got.cif
#   From: 2010.05.17/outbox.cif.g08.bks.cpg/sg23_7_cif.got.tgz:12565.got - 2010.06.04 12:02:01.
