data_PCOD9329134
_publ_section_title
;
Structure prediction by ZEFSAII (Michael W. Deem and Ramdas Pophale) SiO2 
 PCOD9329134
Probable space group: F 2 2 2
;
_chemical_formula_sum "Si O2"
_cell_formula_units_Z 56
_cell_length_a 14.517825
_cell_length_b 5.083401
_cell_length_c 30.992851
_cell_angle_alpha 90.000000
_cell_angle_beta 90.000000
_cell_angle_gamma 90.000000
_cell_volume 2287.270114
_symmetry_space_group_name_H-M "F 2 2 2"
_symmetry_group_IT_number 22
_symmetry_cell_setting 'orthorhombic'
loop_
_space_group_symop_operation_xyz
x,y,z
-x,-y,z
x,-y,-z
-x,y,-z
x,1/2+y,1/2+z
-x,1/2-y,1/2+z
x,1/2-y,1/2-z
-x,1/2+y,1/2-z
1/2+x,y,1/2+z
1/2-x,-y,1/2+z
1/2+x,-y,1/2-z
1/2-x,y,1/2-z
1/2+x,1/2+y,z
1/2-x,1/2-y,z
1/2+x,1/2-y,-z
1/2-x,1/2+y,-z
loop_
_atom_site_type_symbol
_atom_site_label
_atom_site_fract_x
_atom_site_fract_y
_atom_site_fract_z
Si Si1 0.500000 0.500000 0.000000
Si Si2 0.907914 0.901474 0.191095
Si Si3 0.146025 0.624823 0.140252
Si Si4 0.353915 0.651987 0.455238
Si Si5 0.750000 0.250000 0.750000
O O1 0.432067 0.358969 0.966392
O O2 0.887345 0.610601 0.171588
O O3 0.819038 0.928111 0.221866
O O4 0.909079 0.115179 0.152848
O O5 0.000000 0.000000 0.215841
O O6 0.250000 0.750000 0.143351
O O7 0.129218 0.526170 0.091453
O O8 0.355812 0.500000 0.500000
O O9 0.250000 0.750000 0.451782
#
# Coordination Sequence:
#
# PCOD9329134 Si02
#       5
#     4  16  16  16   4
#     4  12  26  44  72 108 144 220 250 324 382 454
#     4  12  28  49  83 118 153 211 263 331 400 495
#     4  11  25  50  78 113 162 208 264 330 400 466
#     4  11  26  45  75 110 156 207 264 323 385 464
#     4  12  28  58  80 116 168 202 264 338 420 488
#
# _framework density 24.483336000000001
#
# number of rings (size 3 to 8) (size 9 to 14) (size 15 to 20)
#    0.000    0.571    4.286    1.286    6.000    6.857 
#    0.000    0.000    0.000    0.000    0.000    0.000 
#    0.000    0.000    0.000    0.000    0.000    0.000 
#
# Total GULP energy -78038.317576 kJ/mol
# GULP energy per Si atom -5574.165541 kJ/mol
# Density = 2.442761 g / cm^3
# Si number density = 24.483336 Si / 1000 Ang^3
#
#
#
# Elastic Constant Matrix: (Units=GPa)
#
#
# Indices 1 2 3 4 5 6 
#
# 1 194.4977 51.8829 50.6046 0.0000 0.0000 0.0000
# 2 51.8829 107.2786 42.9545 0.0000 0.0000 0.0000
# 3 50.6046 42.9545 128.6035 0.0000 0.0000 0.0000
# 4 0.0000 0.0000 0.0000 33.8580 0.0000 0.0000
# 5 0.0000 0.0000 0.0000 0.0000 -23.7815 0.0000
# 6 0.0000 0.0000 0.0000 0.0000 0.0000 34.9083
#
#
#
# Elastic Compliance Matrix: (Units=1/GPa)
#
#
# Indices 1 2 3 4 5 6 
#
# 1 0.006195 -0.002332 -0.001659 0.000000 0.000000 0.000000
# 2 -0.002332 0.011638 -0.002970 0.000000 0.000000 0.000000
# 3 -0.001659 -0.002970 0.009420 0.000000 0.000000 0.000000
# 4 0.000000 0.000000 0.000000 0.029535 0.000000 0.000000
# 5 0.000000 0.000000 0.000000 0.000000 -0.042049 0.000000
# 6 0.000000 0.000000 0.000000 0.000000 0.000000 0.028646
#
#
# Mechanical properties :
#
#
# Convention : Reuss Voigt Hill
#
# Bulk Modulus (GPa) = 75.00182 80.14043 77.57112
# Shear Modulus (GPa) = 80.96984 27.99281 54.48132
#
# Velocity S-wave (km/s) = 5.75701 3.38500 4.72236
# Velocity P-wave (km/s) = 8.65397 6.93407 7.84132
#
# Compressibility (1/GPa) = 0.01333301
#
# Stress axis : x y z
#
# Youngs Moduli (GPa) = 161.41798 85.92259 106.15158
#
# Poissons Ratio (x) = 0.20036 0.17609
# Poissons Ratio (y) = 0.37641 0.31524
# Poissons Ratio (z) = 0.26777 0.25517
#
# Static dielectric constant tensor:
#      x y z
#    x 2.189450 0.000000 0.000000 
#    y 0.000000 2.110420 0.000000 
#    z 0.000000 0.000000 2.157940 
# 
# From -- ./inp_files/56288.got.cif
#   From: 2010.05.17/outbox.cif.g08.bks.cpg/sg22_29_cif.got.tgz:56288.got - 2010.06.03 23:40:54.
