data_PCOD9329466
_publ_section_title
;
Structure prediction by ZEFSAII (Michael W. Deem and Ramdas Pophale) SiO2 
 PCOD9329466
Probable space group: I 2 2 2
;
_chemical_formula_sum "Si O2"
_cell_formula_units_Z 48
_cell_length_a 11.883985
_cell_length_b 6.985320
_cell_length_c 22.811998
_cell_angle_alpha 90.000000
_cell_angle_beta 90.000000
_cell_angle_gamma 90.000000
_cell_volume 1893.702384
_symmetry_space_group_name_H-M "I 2 2 2"
_symmetry_group_IT_number 23
_symmetry_cell_setting 'orthorhombic'
loop_
_space_group_symop_operation_xyz
x,y,z
-x,-y,z
x,-y,-z
-x,y,-z
1/2+x,1/2+y,1/2+z
1/2-x,1/2-y,1/2+z
1/2+x,1/2-y,1/2-z
1/2-x,1/2+y,1/2-z
loop_
_atom_site_type_symbol
_atom_site_label
_atom_site_fract_x
_atom_site_fract_y
_atom_site_fract_z
Si Si1 0.407055 0.168873 0.326017
Si Si2 0.113577 0.369664 0.693358
Si Si3 0.741051 0.729406 0.013992
Si Si4 0.531484 0.227258 0.434692
Si Si5 0.781241 0.334967 0.612272
Si Si6 0.970339 0.790515 0.583535
O O1 0.375401 0.211318 0.258721
O O2 0.470478 0.298354 0.375627
O O3 0.285086 0.158149 0.357502
O O4 0.500000 0.000000 0.320576
O O5 0.210541 0.501231 0.662758
O O6 0.090274 0.205187 0.646378
O O7 0.000000 0.500000 0.695138
O O8 0.834854 0.751147 0.064084
O O9 0.620418 0.791499 0.038757
O O10 0.738826 0.500000 0.000000
O O11 0.770053 0.837964 0.953535
O O12 0.500000 0.295597 0.500000
O O13 0.500000 0.000000 0.436231
O O14 0.911422 0.308054 0.595134
O O15 0.000000 0.000000 0.563546
#
# Coordination Sequence:
#
# PCOD9329466 Si02
#       6
#     8   8   8   8   8   8
#     4  10  20  39  66  94 134 183 232 292 351 438
#     4   9  23  45  60  94 137 185 235 277 367 432
#     4  12  20  35  61 101 131 164 230 294 358 417
#     4  10  17  32  59  94 127 163 221 291 349 405
#     4  11  22  39  66  94 135 177 225 297 358 430
#     4  11  24  38  62  98 132 174 226 288 348 435
#
# _framework density 25.347169000000001
#
# number of rings (size 3 to 8) (size 9 to 14) (size 15 to 20)
#    0.000    1.500    5.000    1.500    0.000    2.000 
#    6.000    2.500    0.000    0.000    0.000    0.000 
#    0.000    0.000    0.000    0.000    0.000    0.000 
#
# Total GULP energy -133724.102367 kJ/mol
# GULP energy per Si atom -5571.837599 kJ/mol
# Density = 2.528948 g / cm^3
# Si number density = 25.347169 Si / 1000 Ang^3
#
#
#
# Elastic Constant Matrix: (Units=GPa)
#
#
# Indices 1 2 3 4 5 6 
#
# 1 134.4425 22.6825 61.9232 0.0000 0.0000 0.0000
# 2 22.6825 89.4948 33.1905 0.0000 0.0000 0.0000
# 3 61.9232 33.1905 264.2540 0.0000 0.0000 0.0000
# 4 0.0000 0.0000 0.0000 33.8384 0.0000 0.0000
# 5 0.0000 0.0000 0.0000 0.0000 38.9793 0.0000
# 6 0.0000 0.0000 0.0000 0.0000 0.0000 13.6627
#
#
#
# Elastic Compliance Matrix: (Units=1/GPa)
#
#
# Indices 1 2 3 4 5 6 
#
# 1 0.008523 -0.001489 -0.001810 0.000000 0.000000 0.000000
# 2 -0.001489 0.011980 -0.001156 0.000000 0.000000 0.000000
# 3 -0.001810 -0.001156 0.004354 0.000000 0.000000 0.000000
# 4 0.000000 0.000000 0.000000 0.029552 0.000000 0.000000
# 5 0.000000 0.000000 0.000000 0.000000 0.025655 0.000000
# 6 0.000000 0.000000 0.000000 0.000000 0.000000 0.073192
#
#
# Mechanical properties :
#
#
# Convention : Reuss Voigt Hill
#
# Bulk Modulus (GPa) = 62.70851 80.42041 71.56446
# Shear Modulus (GPa) = 29.85418 41.98909 35.92163
#
# Velocity S-wave (km/s) = 3.43565 4.07450 3.76864
# Velocity P-wave (km/s) = 6.36646 7.34383 6.87254
#
# Compressibility (1/GPa) = 0.01594680
#
# Stress axis : x y z
#
# Youngs Moduli (GPa) = 117.32834 83.47371 229.69480
#
# Poissons Ratio (x) = 0.12428 0.41580
# Poissons Ratio (y) = 0.17468 0.26548
# Poissons Ratio (z) = 0.21239 0.09648
#
# Static dielectric constant tensor:
#      x y z
#    x 2.065590 0.000000 0.000000 
#    y 0.000000 2.046440 0.000000 
#    z 0.000000 0.000000 2.034600 
# 
# From -- ./inp_files/28283.got.cif
#   From: 2010.05.17/outbox.cif.g08.bks.cpg/sg23_15_cif.got.tgz:28283.got - 2010.06.04 12:02:01.
