data_PCOD9329128
_publ_section_title
;
Structure prediction by ZEFSAII (Michael W. Deem and Ramdas Pophale) SiO2 
 PCOD9329128
Probable space group: F 2 2 2
;
_chemical_formula_sum "Si O2"
_cell_formula_units_Z 48
_cell_length_a 8.331858
_cell_length_b 10.976557
_cell_length_c 24.320929
_cell_angle_alpha 90.000000
_cell_angle_beta 90.000000
_cell_angle_gamma 90.000000
_cell_volume 2224.273340
_symmetry_space_group_name_H-M "F 2 2 2"
_symmetry_group_IT_number 22
_symmetry_cell_setting 'orthorhombic'
loop_
_space_group_symop_operation_xyz
x,y,z
-x,-y,z
x,-y,-z
-x,y,-z
x,1/2+y,1/2+z
-x,1/2-y,1/2+z
x,1/2-y,1/2-z
-x,1/2+y,1/2-z
1/2+x,y,1/2+z
1/2-x,-y,1/2+z
1/2+x,-y,1/2-z
1/2-x,y,1/2-z
1/2+x,1/2+y,z
1/2-x,1/2-y,z
1/2+x,1/2-y,-z
1/2-x,1/2+y,-z
loop_
_atom_site_type_symbol
_atom_site_label
_atom_site_fract_x
_atom_site_fract_y
_atom_site_fract_z
Si Si1 0.750000 0.250000 0.443924
Si Si2 0.906335 0.662351 0.099036
Si Si3 0.779598 0.000000 0.500000
Si Si4 0.571084 0.874430 0.227821
O O1 0.581407 0.281056 0.414361
O O2 0.704071 0.124927 0.476233
O O3 0.750000 0.750000 0.096933
O O4 0.866292 0.561069 0.053033
O O5 0.920349 0.621985 0.162051
O O6 0.490047 0.750000 0.250000
O O7 0.750000 0.871391 0.250000
O O8 0.500000 0.000000 0.249257
#
# Coordination Sequence:
#
# PCOD9329128 Si02
#       4
#     8  16   8  16
#     4  12  26  44  75 106 153 204 248 308 380 444
#     4  12  26  49  75 111 157 195 256 314 373 453
#     4  12  27  49  72 115 159 202 253 311 370 463
#     4  11  25  49  75 107 147 196 250 317 374 443
#
# _framework density 21.580081
#
# number of rings (size 3 to 8) (size 9 to 14) (size 15 to 20)
#    0.000    0.333    5.000    5.000    0.000    8.667 
#    0.000    0.000    0.000    0.000    0.000    0.000 
#    0.000    0.000    0.000    0.000    0.000    0.000 
#
# Total GULP energy -66824.309371 kJ/mol
# GULP energy per Si atom -5568.692448 kJ/mol
# Density = 2.153096 g / cm^3
# Si number density = 21.580081 Si / 1000 Ang^3
#
#
#
# Elastic Constant Matrix: (Units=GPa)
#
#
# Indices 1 2 3 4 5 6 
#
# 1 105.7800 61.9274 26.1901 0.0000 0.0000 0.0000
# 2 61.9274 197.8994 52.2890 0.0000 0.0000 0.0000
# 3 26.1901 52.2890 147.5465 0.0000 0.0000 0.0000
# 4 0.0000 0.0000 0.0000 42.0714 0.0000 0.0000
# 5 0.0000 0.0000 0.0000 0.0000-1148.7658 0.0000
# 6 0.0000 0.0000 0.0000 0.0000 0.0000 15.3096
#
#
#
# Elastic Compliance Matrix: (Units=1/GPa)
#
#
# Indices 1 2 3 4 5 6 
#
# 1 0.011671 -0.003426 -0.000858 0.000000 0.000000 0.000000
# 2 -0.003426 0.006581 -0.001724 0.000000 0.000000 0.000000
# 3 -0.000858 -0.001724 0.007541 0.000000 0.000000 0.000000
# 4 0.000000 0.000000 0.000000 0.023769 0.000000 0.000000
# 5 0.000000 0.000000 0.000000 0.000000 -0.000870 0.000000
# 6 0.000000 0.000000 0.000000 0.000000 0.000000 0.065318
#
#
# Mechanical properties :
#
#
# Convention : Reuss Voigt Hill
#
# Bulk Modulus (GPa) = 72.57950 81.33764 76.95857
# Shear Modulus (GPa) = 38.27981 -197.55565 -79.63792
#
# Velocity S-wave (km/s) = 4.21628 -9.57831 -6.08141
# Velocity P-wave (km/s) = 7.57683 9.19525 3.68404
#
# Compressibility (1/GPa) = 0.01377799
#
# Stress axis : x y z
#
# Youngs Moduli (GPa) = 85.67923 151.96288 132.61291
#
# Poissons Ratio (x) = 0.52057 0.11374
# Poissons Ratio (y) = 0.29351 0.22863
# Poissons Ratio (z) = 0.07349 0.26199
#
# Static dielectric constant tensor:
#      x y z
#    x 1.819780 0.000000 0.000000 
#    y 0.000000 2.626380 0.000000 
#    z 0.000000 0.000000 1.772180 
# 
# From -- ./inp_files/8202.got.cif
#   From: 2010.05.17/outbox.cif.g08.bks.cpg/sg22_5_cif.got.tgz:8202.got - 2010.06.03 23:40:54.
