data_PCOD9329001
_publ_section_title
;
Structure prediction by ZEFSAII (Michael W. Deem and Ramdas Pophale) SiO2 
 PCOD9329001
Probable space group: F 2 2 2
;
_chemical_formula_sum "Si O2"
_cell_formula_units_Z 64
_cell_length_a 16.193025
_cell_length_b 20.482007
_cell_length_c 9.066032
_cell_angle_alpha 90.000000
_cell_angle_beta 90.000000
_cell_angle_gamma 90.000000
_cell_volume 3006.891409
_symmetry_space_group_name_H-M "F 2 2 2"
_symmetry_group_IT_number 22
_symmetry_cell_setting 'orthorhombic'
loop_
_space_group_symop_operation_xyz
x,y,z
-x,-y,z
x,-y,-z
-x,y,-z
x,1/2+y,1/2+z
-x,1/2-y,1/2+z
x,1/2-y,1/2-z
-x,1/2+y,1/2-z
1/2+x,y,1/2+z
1/2-x,-y,1/2+z
1/2+x,-y,1/2-z
1/2-x,y,1/2-z
1/2+x,1/2+y,z
1/2-x,1/2-y,z
1/2+x,1/2-y,-z
1/2-x,1/2+y,-z
loop_
_atom_site_type_symbol
_atom_site_label
_atom_site_fract_x
_atom_site_fract_y
_atom_site_fract_z
Si Si1 0.986231 0.144540 0.331349
Si Si2 0.500000 0.000000 0.244533
Si Si3 0.250000 0.250000 0.011011
Si Si4 0.182539 0.876504 0.146572
Si Si5 0.867723 0.500000 0.500000
Si Si6 0.390706 0.250000 0.250000
O O1 0.897947 0.144169 0.244346
O O2 0.000000 0.169862 0.500000
O O3 0.049513 0.187480 0.234441
O O4 0.006807 0.067924 0.338258
O O5 0.422345 0.998223 0.353359
O O6 0.329447 0.237425 0.113844
O O7 0.225057 0.188210 0.914900
O O8 0.250000 0.910677 0.250000
O O9 0.171678 0.928308 0.013542
#
# Coordination Sequence:
#
# PCOD9329001 Si02
#       6
#    16   8   8  16   8   8
#     4  11  24  41  68 100 132 175 225 274 338 395
#     4   9  19  42  68  92 127 169 220 282 322 403
#     4  11  25  46  66  98 137 173 228 270 344 392
#     4  11  24  43  66  97 134 178 219 281 331 402
#     4   9  20  42  64  94 125 172 222 264 345 392
#     4  11  26  42  67 102 130 178 217 284 328 413
#
# _framework density 21.284438999999999
#
# number of rings (size 3 to 8) (size 9 to 14) (size 15 to 20)
#    0.000    1.500    0.000    3.750    7.000    2.000 
#   22.500    0.000    0.000    0.000    0.000    0.000 
#    0.000    0.000    0.000    0.000    0.000    0.000 
#
# Total GULP energy -89174.838605 kJ/mol
# GULP energy per Si atom -5573.427413 kJ/mol
# Density = 2.123599 g / cm^3
# Si number density = 21.284439 Si / 1000 Ang^3
#
#
#
# Elastic Constant Matrix: (Units=GPa)
#
#
# Indices 1 2 3 4 5 6 
#
# 1 110.6646 49.1489 24.4724 0.0000 0.0000 0.0000
# 2 49.1489 143.5936 31.3172 0.0000 0.0000 0.0000
# 3 24.4724 31.3172 71.1915 0.0000 0.0000 0.0000
# 4 0.0000 0.0000 0.0000 40.2990 0.0000 0.0000
# 5 0.0000 0.0000 0.0000 0.0000 6.6513 0.0000
# 6 0.0000 0.0000 0.0000 0.0000 0.0000 27.7713
#
#
#
# Elastic Compliance Matrix: (Units=1/GPa)
#
#
# Indices 1 2 3 4 5 6 
#
# 1 0.011001 -0.003253 -0.002351 0.000000 0.000000 0.000000
# 2 -0.003253 0.008665 -0.002694 0.000000 0.000000 0.000000
# 3 -0.002351 -0.002694 0.016040 0.000000 0.000000 0.000000
# 4 0.000000 0.000000 0.000000 0.024815 0.000000 0.000000
# 5 0.000000 0.000000 0.000000 0.000000 0.150346 0.000000
# 6 0.000000 0.000000 0.000000 0.000000 0.000000 0.036008
#
#
# Mechanical properties :
#
#
# Convention : Reuss Voigt Hill
#
# Bulk Modulus (GPa) = 52.32492 59.48074 55.90283
# Shear Modulus (GPa) = 18.52961 29.64507 24.08734
#
# Velocity S-wave (km/s) = 2.95374 3.73608 3.36771
# Velocity P-wave (km/s) = 6.02244 6.82769 6.43767
#
# Compressibility (1/GPa) = 0.01911135
#
# Stress axis : x y z
#
# Youngs Moduli (GPa) = 90.90317 115.40875 62.34572
#
# Poissons Ratio (x) = 0.37538 0.14656
# Poissons Ratio (y) = 0.29567 0.16793
# Poissons Ratio (z) = 0.21369 0.31086
#
# Static dielectric constant tensor:
#      x y z
#    x 1.816210 0.000000 0.000000 
#    y 0.000000 1.741910 0.000000 
#    z 0.000000 0.000000 1.796150 
# 
# From -- ./inp_files/9866.got.cif
#   From: 2010.05.17/outbox.cif.g08.bks.cpg/sg22_5_cif.got.tgz:9866.got - 2010.06.03 23:40:54.
