data_PCOD9329819
_publ_section_title
;
Structure prediction by ZEFSAII (Michael W. Deem and Ramdas Pophale) SiO2 
 PCOD9329819
Probable space group: I 2 2 2
;
_chemical_formula_sum "Si O2"
_cell_formula_units_Z 58
_cell_length_a 15.151139
_cell_length_b 7.134257
_cell_length_c 23.525091
_cell_angle_alpha 90.000000
_cell_angle_beta 90.000000
_cell_angle_gamma 90.000000
_cell_volume 2542.876947
_symmetry_space_group_name_H-M "I 2 2 2"
_symmetry_group_IT_number 23
_symmetry_cell_setting 'orthorhombic'
loop_
_space_group_symop_operation_xyz
x,y,z
-x,-y,z
x,-y,-z
-x,y,-z
1/2+x,1/2+y,1/2+z
1/2-x,1/2-y,1/2+z
1/2+x,1/2-y,1/2-z
1/2-x,1/2+y,1/2-z
loop_
_atom_site_type_symbol
_atom_site_label
_atom_site_fract_x
_atom_site_fract_y
_atom_site_fract_z
Si Si1 0.304562 0.367394 0.400177
Si Si2 0.843271 0.283887 0.523133
Si Si3 0.681682 0.215898 0.441612
Si Si4 0.655107 0.682950 0.275948
Si Si5 0.526435 0.787960 0.709866
Si Si6 0.704039 0.104402 0.311988
Si Si7 0.007392 0.223739 0.923835
Si Si8 0.000000 0.000000 0.500000
O O1 0.208283 0.295913 0.416789
O O2 0.316357 0.560582 0.433133
O O3 0.315484 0.417883 0.334066
O O4 0.386857 0.240557 0.422281
O O5 0.861956 0.500000 0.500000
O O6 0.765214 0.194269 0.483304
O O7 0.929020 0.150409 0.526569
O O8 0.702741 0.130475 0.379567
O O9 0.576547 0.181783 0.456002
O O10 0.551460 0.663618 0.266252
O O11 0.705374 0.643477 0.218668
O O12 0.675947 0.894507 0.296499
O O13 0.629714 0.768066 0.719626
O O14 0.516839 0.764895 0.641797
O O15 0.500000 0.000000 0.725619
O O16 0.000000 0.000000 0.934098
#
# Coordination Sequence:
#
# PCOD9329819 Si02
#       8
#     8   8   8   8   8   8   8   2
#     4   9  18  34  57  86 118 149 191 235 297 362
#     4  10  23  42  65  90 116 157 203 254 307 363
#     4   9  18  34  57  86 118 149 191 235 297 362
#     4  10  19  32  53  78 110 149 190 236 290 349
#     4   8  16  30  46  70 104 143 177 216 276 334
#     4  10  19  32  53  78 110 149 190 236 290 349
#     4   8  14  27  52  84 116 148 172 216 276 347
#     4  12  26  44  68  80 116 156 214 264 324 346
#
# _framework density 22.808810999999999
#
# number of rings (size 3 to 8) (size 9 to 14) (size 15 to 20)
#    0.000    2.759    0.000    1.034    1.931    1.655 
#    0.000    4.138    0.000    4.138    0.000    0.000 
#    0.000    0.000    0.000    0.000    0.000    0.000 
#
# Total GULP energy -161543.784123 kJ/mol
# GULP energy per Si atom -5570.475315 kJ/mol
# Density = 2.275690 g / cm^3
# Si number density = 22.808811 Si / 1000 Ang^3
#
#
#
# Elastic Constant Matrix: (Units=GPa)
#
#
# Indices 1 2 3 4 5 6 
#
# 1 139.5268 52.0150 21.2981 0.0000 0.0000 0.0000
# 2 52.0150 83.2350 17.5471 0.0000 0.0000 0.0000
# 3 21.2981 17.5471 44.9224 0.0000 0.0000 0.0000
# 4 0.0000 0.0000 0.0000 18.8780 0.0000 0.0000
# 5 0.0000 0.0000 0.0000 0.0000 23.7424 0.0000
# 6 0.0000 0.0000 0.0000 0.0000 0.0000 32.0567
#
#
#
# Elastic Compliance Matrix: (Units=1/GPa)
#
#
# Indices 1 2 3 4 5 6 
#
# 1 0.009576 -0.005478 -0.002400 0.000000 0.000000 0.000000
# 2 -0.005478 0.016226 -0.003741 0.000000 0.000000 0.000000
# 3 -0.002400 -0.003741 0.024860 0.000000 0.000000 0.000000
# 4 0.000000 0.000000 0.000000 0.052972 0.000000 0.000000
# 5 0.000000 0.000000 0.000000 0.000000 0.042119 0.000000
# 6 0.000000 0.000000 0.000000 0.000000 0.000000 0.031195
#
#
# Mechanical properties :
#
#
# Convention : Reuss Voigt Hill
#
# Bulk Modulus (GPa) = 36.46517 49.93384 43.19950
# Shear Modulus (GPa) = 23.88620 26.72369 25.30494
#
# Velocity S-wave (km/s) = 3.23961 3.42663 3.33444
# Velocity P-wave (km/s) = 5.47864 6.13153 5.81425
#
# Compressibility (1/GPa) = 0.02742343
#
# Stress axis : x y z
#
# Youngs Moduli (GPa) = 104.43189 61.62912 40.22569
#
# Poissons Ratio (x) = 0.33760 0.09655
# Poissons Ratio (y) = 0.57208 0.15048
# Poissons Ratio (z) = 0.25065 0.23055
#
# Static dielectric constant tensor:
#      x y z
#    x 1.885260 0.000000 0.000000 
#    y 0.000000 2.115590 0.000000 
#    z 0.000000 0.000000 1.849160 
# 
# From -- ./inp_files/28527.got.cif
#   From: 2010.05.17/outbox.cif.g08.bks.cpg/sg23_15_cif.got.tgz:28527.got - 2010.06.04 12:02:01.
