data_PCOD9329629
_publ_section_title
;
Structure prediction by ZEFSAII (Michael W. Deem and Ramdas Pophale) SiO2 
 PCOD9329629
Probable space group: I 2 2 2
;
_chemical_formula_sum "Si O2"
_cell_formula_units_Z 64
_cell_length_a 21.459822
_cell_length_b 16.491837
_cell_length_c 7.979787
_cell_angle_alpha 90.000000
_cell_angle_beta 90.000000
_cell_angle_gamma 90.000000
_cell_volume 2824.141471
_symmetry_space_group_name_H-M "I 2 2 2"
_symmetry_group_IT_number 23
_symmetry_cell_setting 'orthorhombic'
loop_
_space_group_symop_operation_xyz
x,y,z
-x,-y,z
x,-y,-z
-x,y,-z
1/2+x,1/2+y,1/2+z
1/2-x,1/2-y,1/2+z
1/2+x,1/2-y,1/2-z
1/2-x,1/2+y,1/2-z
loop_
_atom_site_type_symbol
_atom_site_label
_atom_site_fract_x
_atom_site_fract_y
_atom_site_fract_z
Si Si1 0.016126 0.409566 0.796430
Si Si2 0.350134 0.447935 0.170584
Si Si3 0.646389 0.840304 0.163394
Si Si4 0.670066 0.271446 0.519394
Si Si5 0.544052 0.249451 0.336075
Si Si6 0.216525 0.096136 0.158796
Si Si7 0.304770 0.297055 0.983891
Si Si8 0.013024 0.088671 0.697453
O O1 0.085822 0.388324 0.729758
O O2 0.000000 0.500000 0.735841
O O3 0.975885 0.331674 0.737364
O O4 0.000000 0.412304 0.000000
O O5 0.312173 0.511370 0.283204
O O6 0.310700 0.373146 0.105853
O O7 0.413715 0.405302 0.231131
O O8 0.367490 0.500000 0.000000
O O9 0.657297 0.772884 0.306983
O O10 0.708018 0.897676 0.147272
O O11 0.646494 0.777567 0.005164
O O12 0.613758 0.244952 0.401744
O O13 0.681186 0.367667 0.502809
O O14 0.738202 0.239983 0.472915
O O15 0.500000 0.250523 0.500000
O O16 0.528041 0.335859 0.255442
O O17 0.197183 0.160601 0.303602
O O18 0.000000 0.085330 0.500000
O O19 0.000000 0.000000 0.772439
#
# Coordination Sequence:
#
# PCOD9329629 Si02
#       8
#     8   8   8   8   8   8   8   8
#     4  10  20  36  56  84 113 149 190 239 287 340
#     4  10  18  34  52  81 110 138 192 226 278 333
#     4  10  18  37  57  83 113 144 187 238 286 338
#     4  10  19  35  53  81 115 139 192 230 279 344
#     4  11  22  37  57  84 116 155 189 232 292 343
#     4   9  20  34  56  84 110 148 183 236 282 336
#     4   9  20  33  58  80 109 149 184 236 283 333
#     4  11  22  37  58  81 115 153 190 235 278 345
#
# _framework density 22.661754999999999
#
# number of rings (size 3 to 8) (size 9 to 14) (size 15 to 20)
#    0.000    2.000    3.750    1.500    1.750    1.250 
#    4.500    0.625    0.000    0.375    0.000    2.625 
#    0.000    0.000    0.000    0.000    0.000    0.000 
#
# Total GULP energy -178420.738581 kJ/mol
# GULP energy per Si atom -5575.648081 kJ/mol
# Density = 2.261018 g / cm^3
# Si number density = 22.661755 Si / 1000 Ang^3
#
#
#
# Elastic Constant Matrix: (Units=GPa)
#
#
# Indices 1 2 3 4 5 6 
#
# 1 107.4055 32.2457 19.0741 0.0000 0.0000 0.0000
# 2 32.2457 123.3415 28.6194 0.0000 0.0000 0.0000
# 3 19.0741 28.6194 41.5992 0.0000 0.0000 0.0000
# 4 0.0000 0.0000 0.0000 12.9385 0.0000 0.0000
# 5 0.0000 0.0000 0.0000 0.0000 9.0707 0.0000
# 6 0.0000 0.0000 0.0000 0.0000 0.0000 27.0854
#
#
#
# Elastic Compliance Matrix: (Units=1/GPa)
#
#
# Indices 1 2 3 4 5 6 
#
# 1 0.010512 -0.001939 -0.003486 0.000000 0.000000 0.000000
# 2 -0.001939 0.010005 -0.005994 0.000000 0.000000 0.000000
# 3 -0.003486 -0.005994 0.029761 0.000000 0.000000 0.000000
# 4 0.000000 0.000000 0.000000 0.077289 0.000000 0.000000
# 5 0.000000 0.000000 0.000000 0.000000 0.110246 0.000000
# 6 0.000000 0.000000 0.000000 0.000000 0.000000 0.036920
#
#
# Mechanical properties :
#
#
# Convention : Reuss Voigt Hill
#
# Bulk Modulus (GPa) = 36.44346 48.02495 42.23421
# Shear Modulus (GPa) = 16.30159 22.64603 19.47381
#
# Velocity S-wave (km/s) = 2.68497 3.16461 2.93460
# Velocity P-wave (km/s) = 5.07232 5.88142 5.49179
#
# Compressibility (1/GPa) = 0.02743977
#
# Stress axis : x y z
#
# Youngs Moduli (GPa) = 95.13158 99.94526 33.60086
#
# Poissons Ratio (x) = 0.19383 0.11712
# Poissons Ratio (y) = 0.18449 0.20141
# Poissons Ratio (z) = 0.33159 0.59911
#
# Static dielectric constant tensor:
#      x y z
#    x 1.604270 0.000000 0.000000 
#    y 0.000000 2.180780 0.000000 
#    z 0.000000 0.000000 2.012190 
# 
# From -- ./inp_files/12722.got.cif
#   From: 2010.05.17/outbox.cif.g08.bks.cpg/sg23_7_cif.got.tgz:12722.got - 2010.06.04 12:02:01.
