data_PCOD9329296
_publ_section_title
;
Structure prediction by ZEFSAII (Michael W. Deem and Ramdas Pophale) SiO2 
 PCOD9329296
Probable space group: F 2 2 2
;
_chemical_formula_sum "Si O2"
_cell_formula_units_Z 29
_cell_length_a 18.000000
_cell_length_b 18.000000
_cell_length_c 18.000000
_cell_angle_alpha 90.000000
_cell_angle_beta 90.000000
_cell_angle_gamma 90.000000
_cell_volume 5832.000000
_symmetry_space_group_name_H-M "F 2 2 2"
_symmetry_group_IT_number 22
_symmetry_cell_setting 'orthorhombic'
loop_
_space_group_symop_operation_xyz
x,y,z
-x,-y,z
x,-y,-z
-x,y,-z
x,1/2+y,1/2+z
-x,1/2-y,1/2+z
x,1/2-y,1/2-z
-x,1/2+y,1/2-z
1/2+x,y,1/2+z
1/2-x,-y,1/2+z
1/2+x,-y,1/2-z
1/2-x,y,1/2-z
1/2+x,1/2+y,z
1/2-x,1/2-y,z
1/2+x,1/2-y,-z
1/2-x,1/2+y,-z
loop_
_atom_site_type_symbol
_atom_site_label
_atom_site_fract_x
_atom_site_fract_y
_atom_site_fract_z
Si Si1 0.015505 0.911555 0.911817
Si Si2 0.412311 0.179020 0.012961
Si Si3 0.845531 0.310957 0.614624
Si Si4 0.386397 0.851692 0.312234
Si Si5 0.643806 0.187209 0.154557
Si Si6 0.750000 0.250000 0.750000
Si Si7 0.725615 0.091607 0.948710
Si Si8 0.239716 0.559141 0.381837
O O1 0.097473 0.881257 0.890347
O O2 0.958696 0.862148 0.863044
O O3 0.000000 0.000000 0.898292
O O4 0.000000 0.899423 0.000000
O O5 0.389691 0.245311 0.070387
O O6 0.361409 0.109709 0.040133
O O7 0.500000 0.167487 0.000000
O O8 0.385757 0.193196 0.928922
O O9 0.809333 0.291278 0.694748
O O10 0.770864 0.335318 0.572346
O O11 0.405017 0.841819 0.224848
O O12 0.341534 0.774653 0.328597
O O13 0.334889 0.920869 0.337315
O O14 0.704236 0.121175 0.150319
O O15 0.737178 0.027584 0.886398
O O16 0.761365 0.073504 0.029273
#
# Coordination Sequence:
#
# PCOD9329296 Si02
#       8
#    16  16  16  16  16   4  16  16
#     4  11  24  42  69 103 137 184 238 302 365 425
#     4  11  22  41  69  96 126 176 232 289 354 421
#     4  12  23  45  66  99 138 181 241 289 359 435
#     4  11  21  38  59  97 134 172 224 292 361 411
#     4  10  22  37  60  94 128 171 225 283 355 419
#     4  12  28  44  68 108 140 194 244 296 348 448
#     4  10  21  40  63  91 130 174 228 276 339 422
#     4  10  20  37  62  91 127 175 222 281 341 420
#
# _framework density 4.9725650000000003
#
# number of rings (size 3 to 8) (size 9 to 14) (size 15 to 20)
#    0.000    1.241    1.379    5.379    0.000    7.724 
#    4.966    5.517    0.000    0.000    0.000    0.000 
#    0.000    0.000    0.000    0.000    0.000    0.000 
#
# Total GULP energy -161455.747778 kJ/mol
# GULP energy per Si atom -5567.439579 kJ/mol
# Density = 0.496125 g / cm^3
# Si number density = 4.972565 Si / 1000 Ang^3
#
#
#
# Elastic Constant Matrix: (Units=GPa)
#
#
# Indices 1 2 3 4 5 6 
#
# 1 100.3066 30.7872 34.0010 0.0000 0.0000 0.0000
# 2 30.7872 94.5361 34.6013 0.0000 0.0000 0.0000
# 3 34.0010 34.6013 98.6385 0.0000 0.0000 0.0000
# 4 0.0000 0.0000 0.0000 32.5738 0.0000 0.0000
# 5 0.0000 0.0000 0.0000 0.0000 24.7831 0.0000
# 6 0.0000 0.0000 0.0000 0.0000 0.0000 16.4042
#
#
#
# Elastic Compliance Matrix: (Units=1/GPa)
#
#
# Indices 1 2 3 4 5 6 
#
# 1 0.011867 -0.002716 -0.003138 0.000000 0.000000 0.000000
# 2 -0.002716 0.012758 -0.003539 0.000000 0.000000 0.000000
# 3 -0.003138 -0.003539 0.012461 0.000000 0.000000 0.000000
# 4 0.000000 0.000000 0.000000 0.030700 0.000000 0.000000
# 5 0.000000 0.000000 0.000000 0.000000 0.040350 0.000000
# 6 0.000000 0.000000 0.000000 0.000000 0.000000 0.060960
#
#
# Mechanical properties :
#
#
# Convention : Reuss Voigt Hill
#
# Bulk Modulus (GPa) = 54.64531 54.69557 54.67044
# Shear Modulus (GPa) = 25.77573 27.69167 26.73370
#
# Velocity S-wave (km/s) = 3.60376 3.73530 3.67012
# Velocity P-wave (km/s) = 6.69695 6.79424 6.74577
#
# Compressibility (1/GPa) = 0.01829983
#
# Stress axis : x y z
#
# Youngs Moduli (GPa) = 84.26954 78.38304 80.25001
#
# Poissons Ratio (x) = 0.21290 0.25180
# Poissons Ratio (y) = 0.22889 0.28401
# Poissons Ratio (z) = 0.26441 0.27740
#
# Static dielectric constant tensor:
#      x y z
#    x 1.740780 0.000000 0.000000 
#    y 0.000000 1.806230 0.000000 
#    z 0.000000 0.000000 1.709530 
# 
# From -- ./inp_files/38165.got.cif
#   From: 2010.05.17/outbox.ucp.g08.bks.cvg/sg22_20_cif.got.tgz:38165.got - 2010.06.11 15:16:44.
