data_PCOD9329499
_publ_section_title
;
Structure prediction by ZEFSAII (Michael W. Deem and Ramdas Pophale) SiO2 
 PCOD9329499
Probable space group: I 2 2 2
;
_chemical_formula_sum "Si O2"
_cell_formula_units_Z 52
_cell_length_a 17.485972
_cell_length_b 12.253499
_cell_length_c 12.076646
_cell_angle_alpha 90.000000
_cell_angle_beta 90.000000
_cell_angle_gamma 90.000000
_cell_volume 2587.594590
_symmetry_space_group_name_H-M "I 2 2 2"
_symmetry_group_IT_number 23
_symmetry_cell_setting 'orthorhombic'
loop_
_space_group_symop_operation_xyz
x,y,z
-x,-y,z
x,-y,-z
-x,y,-z
1/2+x,1/2+y,1/2+z
1/2-x,1/2-y,1/2+z
1/2+x,1/2-y,1/2-z
1/2-x,1/2+y,1/2-z
loop_
_atom_site_type_symbol
_atom_site_label
_atom_site_fract_x
_atom_site_fract_y
_atom_site_fract_z
Si Si1 0.164882 0.656836 0.014473
Si Si2 0.815496 0.105114 0.384913
Si Si3 0.000000 0.282948 0.000000
Si Si4 0.780193 0.703403 0.765992
Si Si5 0.698347 0.608333 0.566763
Si Si6 0.869746 0.855794 0.380911
Si Si7 0.534919 0.380531 0.312723
O O1 0.172983 0.634867 0.144306
O O2 0.228865 0.603183 0.935900
O O3 0.187847 0.784858 0.007927
O O4 0.077062 0.648857 0.980219
O O5 0.814426 0.183073 0.278533
O O6 0.865702 0.154480 0.486589
O O7 0.844659 0.983222 0.363042
O O8 0.009062 0.203327 0.892984
O O9 0.763129 0.634396 0.655977
O O10 0.696718 0.716331 0.824110
O O11 0.712335 0.500000 0.500000
O O12 0.617618 0.603462 0.630204
O O13 0.946890 0.839214 0.311449
O O14 0.500000 0.500000 0.308811
#
# Coordination Sequence:
#
# PCOD9329499 Si02
#       7
#     8   8   4   8   8   8   8
#     4   9  18  31  48  74 103 135 169 210 260 305
#     4   9  18  34  50  71 107 139 179 220 246 320
#     4  10  19  30  50  77 112 132 164 218 265 323
#     4   9  18  29  50  72  96 136 174 214 257 299
#     4   9  17  28  44  72 104 132 165 205 249 304
#     4   9  19  33  51  73 107 143 170 213 268 303
#     4  10  18  28  46  77 108 140 161 196 261 331
#
# _framework density 20.095884999999999
#
# number of rings (size 3 to 8) (size 9 to 14) (size 15 to 20)
#    0.000    2.769    0.000    3.000    6.462    0.000 
#    0.000    1.538    0.000    7.385    0.000    0.000 
#    4.615    0.000    0.000    0.000    0.000    0.000 
#
# Total GULP energy -144956.876668 kJ/mol
# GULP energy per Si atom -5575.264487 kJ/mol
# Density = 2.005015 g / cm^3
# Si number density = 20.095885 Si / 1000 Ang^3
#
#
#
# Elastic Constant Matrix: (Units=GPa)
#
#
# Indices 1 2 3 4 5 6 
#
# 1 38.5214 -3.2778 9.3318 0.0000 0.0000 0.0000
# 2 -3.2778 42.7296 11.2120 0.0000 0.0000 0.0000
# 3 9.3318 11.2120 82.9478 0.0000 0.0000 0.0000
# 4 0.0000 0.0000 0.0000 29.3745 0.0000 0.0000
# 5 0.0000 0.0000 0.0000 0.0000 30.8741 0.0000
# 6 0.0000 0.0000 0.0000 0.0000 0.0000 20.3147
#
#
#
# Elastic Compliance Matrix: (Units=1/GPa)
#
#
# Indices 1 2 3 4 5 6 
#
# 1 0.027048 0.002979 -0.003446 0.000000 0.000000 0.000000
# 2 0.002979 0.024592 -0.003659 0.000000 0.000000 0.000000
# 3 -0.003446 -0.003659 0.012938 0.000000 0.000000 0.000000
# 4 0.000000 0.000000 0.000000 0.034043 0.000000 0.000000
# 5 0.000000 0.000000 0.000000 0.000000 0.032390 0.000000
# 6 0.000000 0.000000 0.000000 0.000000 0.000000 0.049225
#
#
# Mechanical properties :
#
#
# Convention : Reuss Voigt Hill
#
# Bulk Modulus (GPa) = 17.75387 22.08120 19.91753
# Shear Modulus (GPa) = 24.12401 25.90818 25.01610
#
# Velocity S-wave (km/s) = 3.46850 3.59448 3.53205
# Velocity P-wave (km/s) = 4.98943 5.31402 5.15428
#
# Compressibility (1/GPa) = 0.05632576
#
# Stress axis : x y z
#
# Youngs Moduli (GPa) = 36.97166 40.66426 77.29159
#
# Poissons Ratio (x) = -0.12114 0.26631
# Poissons Ratio (y) = -0.11014 0.28282
# Poissons Ratio (z) = 0.12739 0.14880
#
# Static dielectric constant tensor:
#      x y z
#    x 1.761060 0.000000 0.000000 
#    y 0.000000 1.741430 0.000000 
#    z 0.000000 0.000000 1.810050 
# 
# From -- ./inp_files/17513.got.cif
#   From: 2010.05.17/outbox.cif.g08.bks.cpg/sg23_9_cif.got.tgz:17513.got - 2010.06.04 12:02:01.
