data_PCOD9329219
_publ_section_title
;
Structure prediction by ZEFSAII (Michael W. Deem and Ramdas Pophale) SiO2 
 PCOD9329219
Probable space group: F 2 2 2
;
_chemical_formula_sum "Si O2"
_cell_formula_units_Z 48
_cell_length_a 8.826113
_cell_length_b 12.719562
_cell_length_c 16.873784
_cell_angle_alpha 90.000000
_cell_angle_beta 90.000000
_cell_angle_gamma 90.000000
_cell_volume 1894.323406
_symmetry_space_group_name_H-M "F 2 2 2"
_symmetry_group_IT_number 22
_symmetry_cell_setting 'orthorhombic'
loop_
_space_group_symop_operation_xyz
x,y,z
-x,-y,z
x,-y,-z
-x,y,-z
x,1/2+y,1/2+z
-x,1/2-y,1/2+z
x,1/2-y,1/2-z
-x,1/2+y,1/2-z
1/2+x,y,1/2+z
1/2-x,-y,1/2+z
1/2+x,-y,1/2-z
1/2-x,y,1/2-z
1/2+x,1/2+y,z
1/2-x,1/2-y,z
1/2+x,1/2-y,-z
1/2-x,1/2+y,-z
loop_
_atom_site_type_symbol
_atom_site_label
_atom_site_fract_x
_atom_site_fract_y
_atom_site_fract_z
Si Si1 0.000000 0.169210 0.000000
Si Si2 0.250000 0.590649 0.750000
Si Si3 0.001941 0.290796 0.849052
Si Si4 0.689265 0.907137 0.636582
O O1 0.935929 0.246065 0.931917
O O2 0.121447 0.101182 0.951456
O O3 0.129075 0.658621 0.797765
O O4 0.325426 0.514181 0.815526
O O5 0.135025 0.374695 0.864772
O O6 0.094742 0.313552 0.679571
#
# Coordination Sequence:
#
# PCOD9329219 Si02
#       4
#     8   8  16  16
#     4   8  18  48  83 108 165 240 254 348 432 488
#     4  12  22  43  92 129 156 220 286 350 430 508
#     4   9  21  44  81 121 167 218 278 346 423 499
#     4   9  21  45  81 116 173 213 276 352 416 497
#
# _framework density 25.338864000000001
#
# number of rings (size 3 to 8) (size 9 to 14) (size 15 to 20)
#    2.000    0.667    0.000    1.000    0.000    2.667 
#    0.000   16.667   14.667    4.000    0.000    2.333 
#    0.000    0.000    0.000    0.000    0.000    0.000 
#
# Total GULP energy -67133.962898 kJ/mol
# GULP energy per Si atom -5594.496908 kJ/mol
# Density = 2.528119 g / cm^3
# Si number density = 25.338864 Si / 1000 Ang^3
#
#
#
# Elastic Constant Matrix: (Units=GPa)
#
#
# Indices 1 2 3 4 5 6 
#
# 1 201.6746 97.4342 125.9248 0.0000 0.0000 0.0000
# 2 97.4342 151.5059 100.9673 0.0000 0.0000 0.0000
# 3 125.9248 100.9673 203.1626 0.0000 0.0000 0.0000
# 4 0.0000 0.0000 0.0000 10.2547 0.0000 0.0000
# 5 0.0000 0.0000 0.0000 0.0000 62.6966 0.0000
# 6 0.0000 0.0000 0.0000 0.0000 0.0000 42.7882
#
#
#
# Elastic Compliance Matrix: (Units=1/GPa)
#
#
# Indices 1 2 3 4 5 6 
#
# 1 0.008958 -0.003081 -0.004021 0.000000 0.000000 0.000000
# 2 -0.003081 0.010929 -0.003522 0.000000 0.000000 0.000000
# 3 -0.004021 -0.003522 0.009165 0.000000 0.000000 0.000000
# 4 0.000000 0.000000 0.000000 0.097516 0.000000 0.000000
# 5 0.000000 0.000000 0.000000 0.000000 0.015950 0.000000
# 6 0.000000 0.000000 0.000000 0.000000 0.000000 0.023371
#
#
# Mechanical properties :
#
#
# Convention : Reuss Voigt Hill
#
# Bulk Modulus (GPa) = 128.14355 133.88842 131.01599
# Shear Modulus (GPa) = 26.35230 38.61570 32.48400
#
# Velocity S-wave (km/s) = 3.22839 3.90804 3.58436
# Velocity P-wave (km/s) = 8.03607 8.56257 8.30349
#
# Compressibility (1/GPa) = 0.00780375
#
# Stress axis : x y z
#
# Youngs Moduli (GPa) = 111.63581 91.50175 109.11533
#
# Poissons Ratio (x) = 0.28192 0.43875
# Poissons Ratio (y) = 0.34396 0.38426
# Poissons Ratio (z) = 0.44888 0.32223
#
# Static dielectric constant tensor:
#      x y z
#    x 1.990170 0.000000 0.000000 
#    y 0.000000 2.003800 0.000000 
#    z 0.000000 0.000000 2.091030 
# 
# From -- ./inp_files/26561.got.cif
#   From: 2010.05.17/outbox.cif.g08.bks.cpg/sg22_14_cif.got.tgz:26561.got - 2010.06.03 23:40:54.
