data_PCOD9329893
_publ_section_title
;
Structure prediction by ZEFSAII (Michael W. Deem and Ramdas Pophale) SiO2 
 PCOD9329893
Probable space group: I 2 2 2
;
_chemical_formula_sum "Si O2"
_cell_formula_units_Z 64
_cell_length_a 11.443888
_cell_length_b 14.120053
_cell_length_c 16.918358
_cell_angle_alpha 90.000000
_cell_angle_beta 90.000000
_cell_angle_gamma 90.000000
_cell_volume 2733.808794
_symmetry_space_group_name_H-M "I 2 2 2"
_symmetry_group_IT_number 23
_symmetry_cell_setting 'orthorhombic'
loop_
_space_group_symop_operation_xyz
x,y,z
-x,-y,z
x,-y,-z
-x,y,-z
1/2+x,1/2+y,1/2+z
1/2-x,1/2-y,1/2+z
1/2+x,1/2-y,1/2-z
1/2-x,1/2+y,1/2-z
loop_
_atom_site_type_symbol
_atom_site_label
_atom_site_fract_x
_atom_site_fract_y
_atom_site_fract_z
Si Si1 0.964552 0.704325 0.317045
Si Si2 0.763963 0.775729 0.916073
Si Si3 0.118872 0.505120 0.682351
Si Si4 0.643497 0.484278 0.593851
Si Si5 0.103902 0.160781 0.194581
Si Si6 0.624295 0.535785 0.089609
Si Si7 0.292781 0.096571 0.323376
Si Si8 0.805719 0.746925 0.596245
O O1 0.867033 0.737816 0.380329
O O2 0.889778 0.613354 0.287875
O O3 0.987569 0.777367 0.245200
O O4 0.086219 0.690541 0.363747
O O5 0.838767 0.869862 0.894467
O O6 0.826459 0.682455 0.880715
O O7 0.736606 0.779780 0.008771
O O8 0.228483 0.486943 0.627496
O O9 0.114497 0.440692 0.760290
O O10 0.000000 0.500000 0.633273
O O11 0.629238 0.500000 0.500000
O O12 0.571271 0.570464 0.638970
O O13 0.186753 0.123127 0.264601
O O14 0.189084 0.231122 0.147116
O O15 0.500000 0.500000 0.125685
O O16 0.737215 0.488348 0.127824
O O17 0.642156 0.647361 0.094199
O O18 0.621912 0.500000 0.000000
#
# Coordination Sequence:
#
# PCOD9329893 Si02
#       8
#     8   8   8   8   8   8   8   8
#     4  10  21  35  55  89 129 164 206 253 315 386
#     4  10  20  33  57  88 123 164 202 260 323 376
#     4  10  21  36  57  86 124 170 205 248 308 383
#     4  10  19  34  55  88 125 158 203 264 321 382
#     4  10  21  36  57  84 126 167 203 251 320 381
#     4  11  22  34  58  90 123 154 193 253 325 376
#     4  10  20  39  54  84 127 162 203 252 310 391
#     4  12  21  36  60  91 125 163 203 262 315 380
#
# _framework density 23.410561000000001
#
# number of rings (size 3 to 8) (size 9 to 14) (size 15 to 20)
#    0.000    1.625    2.500    4.125    1.750    1.250 
#    0.000    0.000    0.000    0.375    3.250    2.625 
#   33.750    4.875    0.000    0.000    0.000    0.000 
#
# Total GULP energy -178289.867004 kJ/mol
# GULP energy per Si atom -5571.558344 kJ/mol
# Density = 2.335728 g / cm^3
# Si number density = 23.410561 Si / 1000 Ang^3
#
#
#
# Elastic Constant Matrix: (Units=GPa)
#
#
# Indices 1 2 3 4 5 6 
#
# 1 55.5770 24.0360 23.4102 0.0000 0.0000 0.0000
# 2 24.0360 118.6423 34.1237 0.0000 0.0000 0.0000
# 3 23.4102 34.1237 114.2694 0.0000 0.0000 0.0000
# 4 0.0000 0.0000 0.0000 39.6048 0.0000 0.0000
# 5 0.0000 0.0000 0.0000 0.0000 17.6572 0.0000
# 6 0.0000 0.0000 0.0000 0.0000 0.0000 13.3006
#
#
#
# Elastic Compliance Matrix: (Units=1/GPa)
#
#
# Indices 1 2 3 4 5 6 
#
# 1 0.020789 -0.003267 -0.003283 0.000000 0.000000 0.000000
# 2 -0.003267 0.009734 -0.002237 0.000000 0.000000 0.000000
# 3 -0.003283 -0.002237 0.010092 0.000000 0.000000 0.000000
# 4 0.000000 0.000000 0.000000 0.025249 0.000000 0.000000
# 5 0.000000 0.000000 0.000000 0.000000 0.056634 0.000000
# 6 0.000000 0.000000 0.000000 0.000000 0.000000 0.075185
#
#
# Mechanical properties :
#
#
# Convention : Reuss Voigt Hill
#
# Bulk Modulus (GPa) = 43.40463 50.18095 46.79279
# Shear Modulus (GPa) = 22.42759 27.90710 25.16735
#
# Velocity S-wave (km/s) = 3.09853 3.45639 3.28234
# Velocity P-wave (km/s) = 5.60197 6.11641 5.86484
#
# Compressibility (1/GPa) = 0.02303902
#
# Stress axis : x y z
#
# Youngs Moduli (GPa) = 48.10210 102.73072 99.08780
#
# Poissons Ratio (x) = 0.33566 0.32534
# Poissons Ratio (y) = 0.15717 0.22171
# Poissons Ratio (z) = 0.15793 0.22986
#
# Static dielectric constant tensor:
#      x y z
#    x 2.000540 0.000000 0.000000 
#    y 0.000000 2.156530 0.000000 
#    z 0.000000 0.000000 1.932660 
# 
# From -- ./inp_files/24444.got.cif
#   From: 2010.05.17/outbox.cif.g08.bks.cpg/sg23_13_cif.got.tgz:24444.got - 2010.06.04 12:02:01.
