data_PCOD9329525
_publ_section_title
;
Structure prediction by ZEFSAII (Michael W. Deem and Ramdas Pophale) SiO2 
 PCOD9329525
Probable space group: I 2 2 2
;
_chemical_formula_sum "Si O2"
_cell_formula_units_Z 52
_cell_length_a 9.762069
_cell_length_b 16.420338
_cell_length_c 17.101072
_cell_angle_alpha 90.000000
_cell_angle_beta 90.000000
_cell_angle_gamma 90.000000
_cell_volume 2741.241519
_symmetry_space_group_name_H-M "I 2 2 2"
_symmetry_group_IT_number 23
_symmetry_cell_setting 'orthorhombic'
loop_
_space_group_symop_operation_xyz
x,y,z
-x,-y,z
x,-y,-z
-x,y,-z
1/2+x,1/2+y,1/2+z
1/2-x,1/2-y,1/2+z
1/2+x,1/2-y,1/2-z
1/2-x,1/2+y,1/2-z
loop_
_atom_site_type_symbol
_atom_site_label
_atom_site_fract_x
_atom_site_fract_y
_atom_site_fract_z
Si Si1 0.375858 0.299878 0.940254
Si Si2 0.787094 0.332977 0.778874
Si Si3 0.130791 0.687437 0.947636
Si Si4 0.730882 0.874984 0.886204
Si Si5 0.540726 0.325299 0.225795
Si Si6 0.560412 0.628466 0.606778
Si Si7 0.722500 0.500000 0.500000
O O1 0.335997 0.209675 0.910953
O O2 0.408049 0.348395 0.860525
O O3 0.500000 0.295609 0.000000
O O4 0.252890 0.329976 0.993289
O O5 0.841131 0.356035 0.864576
O O6 0.796263 0.392810 0.704717
O O7 0.623933 0.311593 0.781102
O O8 0.880388 0.256701 0.752089
O O9 0.118966 0.784150 0.923301
O O10 0.000000 0.667603 0.000000
O O11 0.895441 0.867406 0.900660
O O12 0.686719 0.944893 0.944098
O O13 0.576775 0.382757 0.299528
O O14 0.630682 0.557568 0.556777
#
# Coordination Sequence:
#
# PCOD9329525 Si02
#       7
#     8   8   8   8   8   8   4
#     4  11  19  31  49  72 101 134 166 210 266 308
#     4   9  19  31  45  70 104 134 165 212 257 304
#     4  11  18  31  51  74 100 132 172 212 255 313
#     4  10  19  31  47  72 103 135 170 204 251 299
#     4   9  19  30  44  69 103 135 165 212 260 303
#     4  10  18  30  48  73 102 133 174 209 243 301
#     4  12  19  30  55  78  99 142 181 210 241 300
#
# _framework density 18.969507
#
# number of rings (size 3 to 8) (size 9 to 14) (size 15 to 20)
#    0.000    1.846    4.615    1.385    2.154    0.000 
#    0.000    0.385    0.000    0.000    0.000    1.077 
#    0.000    1.231    0.000    0.000    0.000    0.000 
#
# Total GULP energy -144770.683305 kJ/mol
# GULP energy per Si atom -5568.103204 kJ/mol
# Density = 1.892633 g / cm^3
# Si number density = 18.969507 Si / 1000 Ang^3
#
#
#
# Elastic Constant Matrix: (Units=GPa)
#
#
# Indices 1 2 3 4 5 6 
#
# 1 56.1212 -0.4170 31.0448 0.0000 0.0000 0.0000
# 2 -0.4170 18.9027 23.6123 0.0000 0.0000 0.0000
# 3 31.0448 23.6123 209.9924 0.0000 0.0000 0.0000
# 4 0.0000 0.0000 0.0000 28.4929 0.0000 0.0000
# 5 0.0000 0.0000 0.0000 0.0000 37.6052 0.0000
# 6 0.0000 0.0000 0.0000 0.0000 0.0000 7.9677
#
#
#
# Elastic Compliance Matrix: (Units=1/GPa)
#
#
# Indices 1 2 3 4 5 6 
#
# 1 0.019766 0.004754 -0.003457 0.000000 0.000000 0.000000
# 2 0.004754 0.062691 -0.007752 0.000000 0.000000 0.000000
# 3 -0.003457 -0.007752 0.006145 0.000000 0.000000 0.000000
# 4 0.000000 0.000000 0.000000 0.035097 0.000000 0.000000
# 5 0.000000 0.000000 0.000000 0.000000 0.026592 0.000000
# 6 0.000000 0.000000 0.000000 0.000000 0.000000 0.125507
#
#
# Mechanical properties :
#
#
# Convention : Reuss Voigt Hill
#
# Bulk Modulus (GPa) = 13.21139 43.72184 28.46661
# Shear Modulus (GPa) = 15.92672 30.19822 23.06247
#
# Velocity S-wave (km/s) = 2.90072 3.99423 3.49057
# Velocity P-wave (km/s) = 4.26598 6.66111 5.59325
#
# Compressibility (1/GPa) = 0.07569225
#
# Stress axis : x y z
#
# Youngs Moduli (GPa) = 50.59177 15.95130 162.73987
#
# Poissons Ratio (x) = -0.07583 0.56255
# Poissons Ratio (y) = -0.24052 1.26156
# Poissons Ratio (z) = 0.17488 0.12365
#
# Static dielectric constant tensor:
#      x y z
#    x 1.619910 0.000000 0.000000 
#    y 0.000000 1.671830 0.000000 
#    z 0.000000 0.000000 1.726120 
# 
# From -- ./inp_files/23873.got.cif
#   From: 2010.05.17/outbox.cif.g08.bks.cpg/sg23_12_cif.got.tgz:23873.got - 2010.06.04 12:02:01.
