data_PCOD9329648
_publ_section_title
;
Structure prediction by ZEFSAII (Michael W. Deem and Ramdas Pophale) SiO2 
 PCOD9329648
Probable space group: I 2 2 2
;
_chemical_formula_sum "Si O2"
_cell_formula_units_Z 56
_cell_length_a 10.361543
_cell_length_b 15.064496
_cell_length_c 15.594088
_cell_angle_alpha 90.000000
_cell_angle_beta 90.000000
_cell_angle_gamma 90.000000
_cell_volume 2434.103388
_symmetry_space_group_name_H-M "I 2 2 2"
_symmetry_group_IT_number 23
_symmetry_cell_setting 'orthorhombic'
loop_
_space_group_symop_operation_xyz
x,y,z
-x,-y,z
x,-y,-z
-x,y,-z
1/2+x,1/2+y,1/2+z
1/2-x,1/2-y,1/2+z
1/2+x,1/2-y,1/2-z
1/2-x,1/2+y,1/2-z
loop_
_atom_site_type_symbol
_atom_site_label
_atom_site_fract_x
_atom_site_fract_y
_atom_site_fract_z
Si Si1 0.605086 0.341750 0.063490
Si Si2 0.721530 0.127040 0.812407
Si Si3 0.471859 0.894703 0.286529
Si Si4 0.863120 0.645223 0.497682
Si Si5 0.252359 0.085694 0.836216
Si Si6 0.990170 0.892548 0.248241
Si Si7 0.633698 0.896656 0.528343
O O1 0.607605 0.236508 0.051368
O O2 0.552903 0.370792 0.155312
O O3 0.500000 0.382315 0.000000
O O4 0.744827 0.366322 0.026606
O O5 0.613835 0.145661 0.738051
O O6 0.870350 0.153491 0.800004
O O7 0.734537 0.019448 0.817274
O O8 0.677084 0.160939 0.904753
O O9 0.382300 0.875705 0.205331
O O10 0.378950 0.880700 0.369625
O O11 0.500000 0.000000 0.293826
O O12 0.757885 0.597590 0.438407
O O13 0.000000 0.595528 0.500000
O O14 0.129474 0.130949 0.790786
O O15 0.000000 0.000000 0.240960
O O16 0.500000 0.852398 0.500000
O O17 0.627514 0.000000 0.500000
#
# Coordination Sequence:
#
# PCOD9329648 Si02
#       7
#     8   8   8   8   8   8   8
#     4  11  26  43  61  91 133 178 218 258 332 400
#     4  10  21  39  70  96 129 165 218 278 325 393
#     4  10  18  34  61  97 119 154 206 267 322 370
#     4  11  23  45  61  96 132 173 218 267 335 406
#     4  10  21  38  69  95 125 163 221 272 328 389
#     4  10  23  42  65  99 125 168 225 276 331 395
#     4  11  22  38  65  95 127 162 212 274 321 384
#
# _framework density 23.006418
#
# number of rings (size 3 to 8) (size 9 to 14) (size 15 to 20)
#    0.000    1.571    2.857    2.143    6.000    1.143 
#   10.286    2.143    0.000    0.000    0.000    0.000 
#    0.000    0.000    0.000    0.000    0.000    0.000 
#
# Total GULP energy -156004.029656 kJ/mol
# GULP energy per Si atom -5571.572488 kJ/mol
# Density = 2.295405 g / cm^3
# Si number density = 23.006418 Si / 1000 Ang^3
#
#
#
# Elastic Constant Matrix: (Units=GPa)
#
#
# Indices 1 2 3 4 5 6 
#
# 1 151.3046 10.2848 40.4526 0.0000 0.0000 0.0000
# 2 10.2848 34.5445 -5.8932 0.0000 0.0000 0.0000
# 3 40.4526 -5.8932 119.9020 0.0000 0.0000 0.0000
# 4 0.0000 0.0000 0.0000 33.8258 0.0000 0.0000
# 5 0.0000 0.0000 0.0000 0.0000 19.4490 0.0000
# 6 0.0000 0.0000 0.0000 0.0000 0.0000 8.4176
#
#
#
# Elastic Compliance Matrix: (Units=1/GPa)
#
#
# Indices 1 2 3 4 5 6 
#
# 1 0.007504 -0.002689 -0.002664 0.000000 0.000000 0.000000
# 2 -0.002689 0.030156 0.002389 0.000000 0.000000 0.000000
# 3 -0.002664 0.002389 0.009356 0.000000 0.000000 0.000000
# 4 0.000000 0.000000 0.000000 0.029563 0.000000 0.000000
# 5 0.000000 0.000000 0.000000 0.000000 0.051417 0.000000
# 6 0.000000 0.000000 0.000000 0.000000 0.000000 0.118799
#
#
# Mechanical properties :
#
#
# Convention : Reuss Voigt Hill
#
# Bulk Modulus (GPa) = 24.33668 43.93771 34.13720
# Shear Modulus (GPa) = 18.76741 29.73225 24.24983
#
# Velocity S-wave (km/s) = 2.85923 3.59882 3.25013
# Velocity P-wave (km/s) = 4.63696 6.03392 5.38097
#
# Compressibility (1/GPa) = 0.04109024
#
# Stress axis : x y z
#
# Youngs Moduli (GPa) = 133.25936 33.16060 106.87947
#
# Poissons Ratio (x) = 0.08916 0.28472
# Poissons Ratio (y) = 0.35829 -0.25537
# Poissons Ratio (z) = 0.35499 -0.07923
#
# Static dielectric constant tensor:
#      x y z
#    x 1.925270 0.000000 0.000000 
#    y 0.000000 2.061880 0.000000 
#    z 0.000000 0.000000 1.966040 
# 
# From -- ./inp_files/20212.got.cif
#   From: 2010.05.17/outbox.cif.g08.bks.cpg/sg23_11_cif.got.tgz:20212.got - 2010.06.04 12:02:01.
