data_PCOD9329653
_publ_section_title
;
Structure prediction by ZEFSAII (Michael W. Deem and Ramdas Pophale) SiO2 
 PCOD9329653
Probable space group: I 2 2 2
;
_chemical_formula_sum "Si O2"
_cell_formula_units_Z 48
_cell_length_a 13.718376
_cell_length_b 20.110895
_cell_length_c 8.639356
_cell_angle_alpha 90.000000
_cell_angle_beta 90.000000
_cell_angle_gamma 90.000000
_cell_volume 2383.501726
_symmetry_space_group_name_H-M "I 2 2 2"
_symmetry_group_IT_number 23
_symmetry_cell_setting 'orthorhombic'
loop_
_space_group_symop_operation_xyz
x,y,z
-x,-y,z
x,-y,-z
-x,y,-z
1/2+x,1/2+y,1/2+z
1/2-x,1/2-y,1/2+z
1/2+x,1/2-y,1/2-z
1/2-x,1/2+y,1/2-z
loop_
_atom_site_type_symbol
_atom_site_label
_atom_site_fract_x
_atom_site_fract_y
_atom_site_fract_z
Si Si1 0.500000 0.000000 0.500000
Si Si2 0.000000 0.500000 0.500000
Si Si3 0.733283 0.687002 0.145299
Si Si4 0.020026 0.850192 0.330053
Si Si5 0.500000 0.500000 0.239183
Si Si6 0.696492 0.325822 0.227851
Si Si7 0.364974 0.066873 0.740291
Si Si8 0.286119 0.470263 0.663459
O O1 0.564150 0.951036 0.602070
O O2 0.069121 0.453505 0.390631
O O3 0.626981 0.672046 0.220638
O O4 0.761297 0.761958 0.186997
O O5 0.814904 0.638637 0.220605
O O6 0.720376 0.675622 0.958268
O O7 0.024213 0.930389 0.342508
O O8 0.000000 0.821640 0.500000
O O9 0.920964 0.829915 0.243704
O O10 0.401231 0.518169 0.326304
O O11 0.736634 0.394105 0.301076
O O12 0.274158 0.016201 0.721397
O O13 0.256265 0.500000 0.500000
#
# Coordination Sequence:
#
# PCOD9329653 Si02
#       8
#     2   2   8   8   4   8   8   8
#     4  10  24  42  64  96 132 158 242 274 328 380
#     4  10  24  42  64 100 128 170 236 264 328 396
#     4  11  23  45  67  96 134 180 215 275 338 397
#     4   9  19  38  61  95 125 168 216 267 326 392
#     4  10  18  34  64 100 130 163 211 274 324 389
#     4  10  25  41  65  98 134 172 223 269 333 397
#     4  11  22  43  68  95 126 177 218 282 326 398
#     4  11  22  39  68  99 130 168 221 272 333 393
#
# _framework density 20.138437
#
# number of rings (size 3 to 8) (size 9 to 14) (size 15 to 20)
#    0.000    1.667    2.500    1.500    2.333    0.000 
#   13.500    0.000    0.000    0.000    0.000    0.000 
#    0.000    0.000    0.000    0.000    0.000    0.000 
#
# Total GULP energy -133684.524620 kJ/mol
# GULP energy per Si atom -5570.188526 kJ/mol
# Density = 2.009260 g / cm^3
# Si number density = 20.138437 Si / 1000 Ang^3
#
#
#
# Elastic Constant Matrix: (Units=GPa)
#
#
# Indices 1 2 3 4 5 6 
#
# 1 99.8475 46.5544 33.7115 0.0000 0.0000 0.0000
# 2 46.5544 154.3384 41.2732 0.0000 0.0000 0.0000
# 3 33.7115 41.2732 72.8432 0.0000 0.0000 0.0000
# 4 0.0000 0.0000 0.0000 20.0880 0.0000 0.0000
# 5 0.0000 0.0000 0.0000 0.0000 25.2981 0.0000
# 6 0.0000 0.0000 0.0000 0.0000 0.0000 39.9276
#
#
#
# Elastic Compliance Matrix: (Units=1/GPa)
#
#
# Indices 1 2 3 4 5 6 
#
# 1 0.012740 -0.002671 -0.004383 0.000000 0.000000 0.000000
# 2 -0.002671 0.008196 -0.003408 0.000000 0.000000 0.000000
# 3 -0.004383 -0.003408 0.017687 0.000000 0.000000 0.000000
# 4 0.000000 0.000000 0.000000 0.049781 0.000000 0.000000
# 5 0.000000 0.000000 0.000000 0.000000 0.039529 0.000000
# 6 0.000000 0.000000 0.000000 0.000000 0.000000 0.025045
#
#
# Mechanical properties :
#
#
# Convention : Reuss Voigt Hill
#
# Bulk Modulus (GPa) = 56.49503 63.34525 59.92014
# Shear Modulus (GPa) = 27.80826 30.76208 29.28517
#
# Velocity S-wave (km/s) = 3.72002 3.91260 3.81752
# Velocity P-wave (km/s) = 6.82390 7.20656 7.01784
#
# Compressibility (1/GPa) = 0.01770067
#
# Stress axis : x y z
#
# Youngs Moduli (GPa) = 78.49057 122.00662 56.53733
#
# Poissons Ratio (x) = 0.32587 0.24779
# Poissons Ratio (y) = 0.20964 0.19268
# Poissons Ratio (z) = 0.34401 0.41579
#
# Static dielectric constant tensor:
#      x y z
#    x 1.730360 0.000000 0.000000 
#    y 0.000000 1.640540 0.000000 
#    z 0.000000 0.000000 1.277920 
# 
# From -- ./inp_files/10009.got.cif
#   From: 2010.05.17/outbox.cif.g08.bks.cpg/sg23_6_cif.got.tgz:10009.got - 2010.06.04 12:02:01.
