data_PCOD9329301
_publ_section_title
;
Structure prediction by ZEFSAII (Michael W. Deem and Ramdas Pophale) SiO2 
 PCOD9329301
Probable space group: F 2 2 2
;
_chemical_formula_sum "Si O2"
_cell_formula_units_Z 26
_cell_length_a 27.000000
_cell_length_b 9.000000
_cell_length_c 21.000000
_cell_angle_alpha 90.000000
_cell_angle_beta 90.000000
_cell_angle_gamma 90.000000
_cell_volume 5103.000000
_symmetry_space_group_name_H-M "F 2 2 2"
_symmetry_group_IT_number 22
_symmetry_cell_setting 'orthorhombic'
loop_
_space_group_symop_operation_xyz
x,y,z
-x,-y,z
x,-y,-z
-x,y,-z
x,1/2+y,1/2+z
-x,1/2-y,1/2+z
x,1/2-y,1/2-z
-x,1/2+y,1/2-z
1/2+x,y,1/2+z
1/2-x,-y,1/2+z
1/2+x,-y,1/2-z
1/2-x,y,1/2-z
1/2+x,1/2+y,z
1/2-x,1/2-y,z
1/2+x,1/2-y,-z
1/2-x,1/2+y,-z
loop_
_atom_site_type_symbol
_atom_site_label
_atom_site_fract_x
_atom_site_fract_y
_atom_site_fract_z
Si Si1 0.878853 0.170426 0.480000
Si Si2 0.274476 0.528413 0.814912
Si Si3 0.363666 0.784781 0.620963
Si Si4 0.032650 0.650997 0.685512
Si Si5 0.328565 0.750000 0.250000
Si Si6 0.017254 0.172651 0.570648
Si Si7 0.331256 0.948203 0.135712
O O1 0.870384 0.271579 0.542930
O O2 0.924842 0.208970 0.434791
O O3 0.835066 0.143703 0.429952
O O4 0.891667 0.000000 0.500000
O O5 0.250000 0.593937 0.750000
O O6 0.314655 0.629816 0.852141
O O7 0.298731 0.374048 0.790475
O O8 0.226364 0.487579 0.855608
O O9 0.410790 0.858652 0.657267
O O10 0.358868 0.608087 0.636530
O O11 0.033799 0.750000 0.750000
O O12 0.000000 0.500000 0.695563
O O13 0.005923 0.740102 0.628761
O O14 0.352261 0.851105 0.194663
O O15 0.000000 0.219415 0.500000
O O16 0.000000 0.000000 0.577218
#
# Coordination Sequence:
#
# PCOD9329301 Si02
#       7
#    16  16  16  16   8  16  16
#     4  10  20  40  68 100 129 180 221 275 343 419
#     4  10  22  42  67 103 136 186 230 287 348 406
#     4  11  24  44  72 100 135 185 242 280 346 424
#     4  12  29  48  68 104 140 179 235 303 352 418
#     4  10  23  42  64  96 134 182 224 280 350 396
#     4  11  19  43  75  97 134 179 227 275 355 424
#     4  10  21  40  68 101 140 175 234 280 344 419
#
# _framework density 5.0950420000000003
#
# number of rings (size 3 to 8) (size 9 to 14) (size 15 to 20)
#    0.000    1.385    3.077    3.923    4.308    3.385 
#    2.769   11.538    0.000    0.000    0.000    0.000 
#    0.000    0.000    0.000    0.000    0.000    0.000 
#
# Total GULP energy -144915.158216 kJ/mol
# GULP energy per Si atom -5573.659931 kJ/mol
# Density = 0.508345 g / cm^3
# Si number density = 5.095042 Si / 1000 Ang^3
#
#
#
# Elastic Constant Matrix: (Units=GPa)
#
#
# Indices 1 2 3 4 5 6 
#
# 1 117.9501 26.0197 74.1593 0.0000 0.0000 0.0000
# 2 26.0197 80.0034 45.2610 0.0000 0.0000 0.0000
# 3 74.1593 45.2610 130.7339 0.0000 0.0000 0.0000
# 4 0.0000 0.0000 0.0000 26.9616 0.0000 0.0000
# 5 0.0000 0.0000 0.0000 0.0000 41.4012 0.0000
# 6 0.0000 0.0000 0.0000 0.0000 0.0000 18.2036
#
#
#
# Elastic Compliance Matrix: (Units=1/GPa)
#
#
# Indices 1 2 3 4 5 6 
#
# 1 0.013179 -0.000071 -0.007451 0.000000 0.000000 0.000000
# 2 -0.000071 0.015544 -0.005341 0.000000 0.000000 0.000000
# 3 -0.007451 -0.005341 0.013725 0.000000 0.000000 0.000000
# 4 0.000000 0.000000 0.000000 0.037090 0.000000 0.000000
# 5 0.000000 0.000000 0.000000 0.000000 0.024154 0.000000
# 6 0.000000 0.000000 0.000000 0.000000 0.000000 0.054934
#
#
# Mechanical properties :
#
#
# Convention : Reuss Voigt Hill
#
# Bulk Modulus (GPa) = 59.80366 68.84083 64.32224
# Shear Modulus (GPa) = 26.32603 29.52977 27.92790
#
# Velocity S-wave (km/s) = 3.59799 3.81063 3.70584
# Velocity P-wave (km/s) = 6.83143 7.29472 7.06687
#
# Compressibility (1/GPa) = 0.01672139
#
# Stress axis : x y z
#
# Youngs Moduli (GPa) = 75.88104 64.33222 72.85961
#
# Poissons Ratio (x) = 0.00455 0.54288
# Poissons Ratio (y) = 0.00537 0.38917
# Poissons Ratio (z) = 0.56540 0.34363
#
# Static dielectric constant tensor:
#      x y z
#    x 1.864130 0.000000 0.000000 
#    y 0.000000 1.744160 0.000000 
#    z 0.000000 0.000000 1.751490 
# 
# From -- ./inp_files/45773.got.cif
#   From: 2010.05.17/outbox.ucp.g08.bks.cvg/sg22_23_cif.got.tgz:45773.got - 2010.06.11 15:16:44.
