data_PCOD9329760
_publ_section_title
;
Structure prediction by ZEFSAII (Michael W. Deem and Ramdas Pophale) SiO2 
 PCOD9329760
Probable space group: I 2 2 2
;
_chemical_formula_sum "Si O2"
_cell_formula_units_Z 52
_cell_length_a 8.860767
_cell_length_b 16.334570
_cell_length_c 19.584610
_cell_angle_alpha 90.000000
_cell_angle_beta 90.000000
_cell_angle_gamma 90.000000
_cell_volume 2834.614149
_symmetry_space_group_name_H-M "I 2 2 2"
_symmetry_group_IT_number 23
_symmetry_cell_setting 'orthorhombic'
loop_
_space_group_symop_operation_xyz
x,y,z
-x,-y,z
x,-y,-z
-x,y,-z
1/2+x,1/2+y,1/2+z
1/2-x,1/2-y,1/2+z
1/2+x,1/2-y,1/2-z
1/2-x,1/2+y,1/2-z
loop_
_atom_site_type_symbol
_atom_site_label
_atom_site_fract_x
_atom_site_fract_y
_atom_site_fract_z
Si Si1 0.359904 0.346343 0.545215
Si Si2 0.668921 0.211739 0.200769
Si Si3 0.486068 0.678644 0.310727
Si Si4 0.174569 0.498520 0.600592
Si Si5 0.863134 0.326336 0.552829
Si Si6 0.000000 0.000000 0.749275
Si Si7 0.663797 0.971924 0.742897
O O1 0.500000 0.372505 0.500000
O O2 0.409794 0.307881 0.616412
O O3 0.263783 0.426481 0.565324
O O4 0.262295 0.287281 0.496247
O O5 0.607307 0.281682 0.249427
O O6 0.593151 0.212861 0.125295
O O7 0.646467 0.124472 0.239025
O O8 0.847777 0.217326 0.189435
O O9 0.498755 0.581645 0.295641
O O10 0.218828 0.590179 0.579849
O O11 0.176338 0.486671 0.681855
O O12 0.000000 0.500000 0.580232
O O13 0.000000 0.338294 0.500000
O O14 0.832774 0.991687 0.712605
O O15 0.500000 0.000000 0.712929
#
# Coordination Sequence:
#
# PCOD9329760 Si02
#       7
#     8   8   8   8   8   4   8
#     4  12  23  35  53  81 117 154 192 240 282 347
#     4  10  24  39  54  83 112 160 203 238 294 347
#     4  11  24  39  58  81 119 156 199 245 296 347
#     4  10  19  30  49  78 112 154 187 217 269 341
#     4  11  22  34  52  79 116 151 194 227 282 352
#     4  10  20  36  55  84 111 152 198 238 282 352
#     4   9  19  34  54  77 112 149 196 231 273 341
#
# _framework density 18.344647999999999
#
# number of rings (size 3 to 8) (size 9 to 14) (size 15 to 20)
#    0.000    1.538    4.615    0.462    4.308    2.462 
#    0.000    0.000    0.000    0.000    0.000    0.538 
#    0.000    3.385    0.000    0.000    0.000    0.000 
#
# Total GULP energy -144798.767646 kJ/mol
# GULP energy per Si atom -5569.183371 kJ/mol
# Density = 1.830289 g / cm^3
# Si number density = 18.344648 Si / 1000 Ang^3
#
#
#
# Elastic Constant Matrix: (Units=GPa)
#
#
# Indices 1 2 3 4 5 6 
#
# 1 118.4126 16.7420 31.8277 0.0000 0.0000 0.0000
# 2 16.7420 33.8704 32.8336 0.0000 0.0000 0.0000
# 3 31.8277 32.8336 88.9746 0.0000 0.0000 0.0000
# 4 0.0000 0.0000 0.0000 3.3142 0.0000 0.0000
# 5 0.0000 0.0000 0.0000 0.0000 25.6481 0.0000
# 6 0.0000 0.0000 0.0000 0.0000 0.0000 20.7048
#
#
#
# Elastic Compliance Matrix: (Units=1/GPa)
#
#
# Indices 1 2 3 4 5 6 
#
# 1 0.009445 -0.002169 -0.002578 0.000000 0.000000 0.000000
# 2 -0.002169 0.046467 -0.016371 0.000000 0.000000 0.000000
# 3 -0.002578 -0.016371 0.018203 0.000000 0.000000 0.000000
# 4 0.000000 0.000000 0.000000 0.301731 0.000000 0.000000
# 5 0.000000 0.000000 0.000000 0.000000 0.038989 0.000000
# 6 0.000000 0.000000 0.000000 0.000000 0.000000 0.048298
#
#
# Mechanical properties :
#
#
# Convention : Reuss Voigt Hill
#
# Bulk Modulus (GPa) = 31.37066 44.89601 38.13334
# Shear Modulus (GPa) = 9.69002 20.59037 15.14019
#
# Velocity S-wave (km/s) = 2.30080 3.35389 2.87595
# Velocity P-wave (km/s) = 4.91895 6.28688 5.64451
#
# Compressibility (1/GPa) = 0.03187692
#
# Stress axis : x y z
#
# Youngs Moduli (GPa) = 105.87957 21.52077 54.93702
#
# Poissons Ratio (x) = 0.04669 0.14162
# Poissons Ratio (y) = 0.22970 0.89938
# Poissons Ratio (z) = 0.27295 0.35232
#
# Static dielectric constant tensor:
#      x y z
#    x 1.782170 0.000000 0.000000 
#    y 0.000000 1.645710 0.000000 
#    z 0.000000 0.000000 1.651120 
# 
# From -- ./inp_files/23862.got.cif
#   From: 2010.05.17/outbox.cif.g08.bks.cpg/sg23_12_cif.got.tgz:23862.got - 2010.06.04 12:02:01.
