data_PCOD9329698
_publ_section_title
;
Structure prediction by ZEFSAII (Michael W. Deem and Ramdas Pophale) SiO2 
 PCOD9329698
Probable space group: I 2 2 2
;
_chemical_formula_sum "Si O2"
_cell_formula_units_Z 48
_cell_length_a 7.940149
_cell_length_b 13.531136
_cell_length_c 17.686059
_cell_angle_alpha 90.000000
_cell_angle_beta 90.000000
_cell_angle_gamma 90.000000
_cell_volume 1900.176666
_symmetry_space_group_name_H-M "I 2 2 2"
_symmetry_group_IT_number 23
_symmetry_cell_setting 'orthorhombic'
loop_
_space_group_symop_operation_xyz
x,y,z
-x,-y,z
x,-y,-z
-x,y,-z
1/2+x,1/2+y,1/2+z
1/2-x,1/2-y,1/2+z
1/2+x,1/2-y,1/2-z
1/2-x,1/2+y,1/2-z
loop_
_atom_site_type_symbol
_atom_site_label
_atom_site_fract_x
_atom_site_fract_y
_atom_site_fract_z
Si Si1 0.849981 0.081104 0.286496
Si Si2 0.809495 0.043855 0.077439
Si Si3 0.657304 0.124005 0.849694
Si Si4 0.518920 0.298968 0.088922
Si Si5 0.659077 0.106304 0.675893
Si Si6 0.027752 0.793379 0.137808
O O1 0.878878 0.146898 0.360113
O O2 0.884551 0.152068 0.212683
O O3 0.692269 0.009621 0.308955
O O4 0.000000 0.000000 0.277051
O O5 0.849838 0.159278 0.074725
O O6 0.688298 0.993073 0.138281
O O7 0.000000 0.000000 0.088242
O O8 0.743163 0.000000 0.000000
O O9 0.514721 0.182724 0.894764
O O10 0.640759 0.143374 0.761636
O O11 0.839047 0.168838 0.871011
O O12 0.681646 0.347539 0.129734
O O13 0.500000 0.318788 0.000000
O O14 0.520641 0.175659 0.636998
#
# Coordination Sequence:
#
# PCOD9329698 Si02
#       6
#     8   8   8   8   8   8
#     4  10  18  37  62  87 121 167 218 252 307 396
#     4   9  19  33  58  88 116 157 202 254 324 388
#     4  11  19  38  64  88 125 163 213 264 318 397
#     4  11  25  40  61  94 133 167 211 271 336 384
#     4  11  21  37  64  91 120 170 219 264 311 387
#     4  11  19  36  64  92 120 162 220 266 314 381
#
# _framework density 25.260808000000001
#
# number of rings (size 3 to 8) (size 9 to 14) (size 15 to 20)
#    0.000    1.500    6.667    0.500    2.333    3.000 
#    0.000    1.667    0.000    0.000    0.000    7.000 
#    0.000    0.000    0.000    0.000    0.000    0.000 
#
# Total GULP energy -133718.932167 kJ/mol
# GULP energy per Si atom -5571.622174 kJ/mol
# Density = 2.520331 g / cm^3
# Si number density = 25.260808 Si / 1000 Ang^3
#
#
#
# Elastic Constant Matrix: (Units=GPa)
#
#
# Indices 1 2 3 4 5 6 
#
# 1 54.7110 6.9188 -22.7754 0.0000 0.0000 0.0000
# 2 6.9188 115.2918 -10.4209 0.0000 0.0000 0.0000
# 3 -22.7754 -10.4209 90.2695 0.0000 0.0000 0.0000
# 4 0.0000 0.0000 0.0000 54.8555 0.0000 0.0000
# 5 0.0000 0.0000 0.0000 0.0000 11.0487 0.0000
# 6 0.0000 0.0000 0.0000 0.0000 0.0000 47.5396
#
#
#
# Elastic Compliance Matrix: (Units=1/GPa)
#
#
# Indices 1 2 3 4 5 6 
#
# 1 0.020490 -0.000770 0.005081 0.000000 0.000000 0.000000
# 2 -0.000770 0.008794 0.000821 0.000000 0.000000 0.000000
# 3 0.005081 0.000821 0.012455 0.000000 0.000000 0.000000
# 4 0.000000 0.000000 0.000000 0.018230 0.000000 0.000000
# 5 0.000000 0.000000 0.000000 0.000000 0.090509 0.000000
# 6 0.000000 0.000000 0.000000 0.000000 0.000000 0.021035
#
#
# Mechanical properties :
#
#
# Convention : Reuss Voigt Hill
#
# Bulk Modulus (GPa) = 19.23014 23.07970 21.15492
# Shear Modulus (GPa) = 27.99804 41.79207 34.89505
#
# Velocity S-wave (km/s) = 3.33281 4.07187 3.72074
# Velocity P-wave (km/s) = 4.73702 5.59136 5.18183
#
# Compressibility (1/GPa) = 0.05200171
#
# Stress axis : x y z
#
# Youngs Moduli (GPa) = 48.80337 113.71303 80.29138
#
# Poissons Ratio (x) = 0.08761 -0.40795
# Poissons Ratio (y) = 0.03760 -0.06591
# Poissons Ratio (z) = -0.24796 -0.09334
#
# Static dielectric constant tensor:
#      x y z
#    x 2.105080 0.000000 0.000000 
#    y 0.000000 2.099800 0.000000 
#    z 0.000000 0.000000 1.971850 
# 
# From -- ./inp_files/23733.got.cif
#   From: 2010.05.17/outbox.cif.g08.bks.cpg/sg23_12_cif.got.tgz:23733.got - 2010.06.04 12:02:01.
