data_PCOD9329757
_publ_section_title
;
Structure prediction by ZEFSAII (Michael W. Deem and Ramdas Pophale) SiO2 
 PCOD9329757
Probable space group: I 2 2 2
;
_chemical_formula_sum "Si O2"
_cell_formula_units_Z 64
_cell_length_a 11.840258
_cell_length_b 30.714123
_cell_length_c 7.721570
_cell_angle_alpha 90.000000
_cell_angle_beta 90.000000
_cell_angle_gamma 90.000000
_cell_volume 2808.050396
_symmetry_space_group_name_H-M "I 2 2 2"
_symmetry_group_IT_number 23
_symmetry_cell_setting 'orthorhombic'
loop_
_space_group_symop_operation_xyz
x,y,z
-x,-y,z
x,-y,-z
-x,y,-z
1/2+x,1/2+y,1/2+z
1/2-x,1/2-y,1/2+z
1/2+x,1/2-y,1/2-z
1/2-x,1/2+y,1/2-z
loop_
_atom_site_type_symbol
_atom_site_label
_atom_site_fract_x
_atom_site_fract_y
_atom_site_fract_z
Si Si1 0.258571 0.058809 0.316264
Si Si2 0.050435 0.721462 0.191220
Si Si3 0.592476 0.845084 0.854407
Si Si4 0.014023 0.564663 0.708305
Si Si5 0.806964 0.872513 0.744369
Si Si6 0.250921 0.466834 0.214850
Si Si7 0.502172 0.314292 0.292196
Si Si8 0.763780 0.157203 0.648629
O O1 0.393882 0.059500 0.295384
O O2 0.228228 0.046239 0.514056
O O3 0.227433 0.108334 0.268917
O O4 0.212148 0.014836 0.224710
O O5 0.154392 0.687107 0.195192
O O6 0.943930 0.701257 0.289404
O O7 0.067308 0.770465 0.257823
O O8 0.000000 0.724394 0.000000
O O9 0.563085 0.887559 0.739095
O O10 0.725445 0.848032 0.882126
O O11 0.500000 0.852836 0.000000
O O12 0.000000 0.560011 0.500000
O O13 0.115422 0.533441 0.761293
O O14 0.798016 0.922934 0.799669
O O15 0.760695 0.855644 0.556216
O O16 0.933859 0.856713 0.737315
O O17 0.500000 0.315446 0.500000
O O18 0.625328 0.316492 0.207494
#
# Coordination Sequence:
#
# PCOD9329757 Si02
#       8
#     8   8   8   8   8   8   8   8
#     4  10  19  35  57  88 117 157 209 254 308 364
#     4  11  23  42  64  95 124 158 211 257 316 374
#     4  10  21  35  60  93 124 163 201 254 308 369
#     4  10  19  30  48  84 127 161 194 241 310 373
#     4  10  22  43  64  89 127 165 212 253 318 382
#     4   9  20  34  58  86 119 158 204 260 302 367
#     4  11  28  43  62  92 125 164 213 271 315 372
#     4  11  23  41  69  88 125 169 208 261 317 384
#
# _framework density 22.791613999999999
#
# number of rings (size 3 to 8) (size 9 to 14) (size 15 to 20)
#    0.000    1.750    2.500    1.125    3.500    4.000 
#    0.000    0.625    0.000    3.750    0.000    0.000 
#    0.000    0.000    0.000    0.000    0.000    0.000 
#
# Total GULP energy -178186.474268 kJ/mol
# GULP energy per Si atom -5568.327321 kJ/mol
# Density = 2.273974 g / cm^3
# Si number density = 22.791614 Si / 1000 Ang^3
#
#
#
# Elastic Constant Matrix: (Units=GPa)
#
#
# Indices 1 2 3 4 5 6 
#
# 1 77.0482 35.5773 3.3343 -0.0003 0.0014 0.0001
# 2 35.5773 138.7614 2.8425 -0.0021 0.0018 0.0002
# 3 3.3343 2.8425 34.7396 -0.0061 0.0093 0.0010
# 4 -0.0003 -0.0021 -0.0061 15.4211 0.0015 0.0003
# 5 0.0014 0.0018 0.0093 0.0015 21.9482 -0.0006
# 6 0.0001 0.0002 0.0010 0.0003 -0.0006 16.8017
#
#
#
# Elastic Compliance Matrix: (Units=1/GPa)
#
#
# Indices 1 2 3 4 5 6 
#
# 1 0.014764 -0.003763 -0.001109 -0.000001 0.000000 0.000000
# 2 -0.003763 0.008178 -0.000308 0.000001 0.000000 0.000000
# 3 -0.001109 -0.000308 0.028917 0.000011 -0.000012 -0.000002
# 4 -0.000001 0.000001 0.000011 0.064846 -0.000004 -0.000001
# 5 0.000000 0.000000 -0.000012 -0.000004 0.045562 0.000002
# 6 0.000000 0.000000 -0.000002 -0.000001 0.000002 0.059518
#
#
# Mechanical properties :
#
#
# Convention : Reuss Voigt Hill
#
# Bulk Modulus (GPa) = 24.09672 37.11751 30.60711
# Shear Modulus (GPa) = 20.32700 24.75386 22.54043
#
# Velocity S-wave (km/s) = 2.98965 3.29917 3.14822
# Velocity P-wave (km/s) = 4.74478 5.55281 5.16462
#
# Compressibility (1/GPa) = 0.04149942
#
# Stress axis : x y z
#
# Youngs Moduli (GPa) = 67.73071 122.28439 34.58143
#
# Poissons Ratio (x) = 0.46012 0.03836
# Poissons Ratio (y) = 0.25485 0.01065
# Poissons Ratio (z) = 0.07513 0.03766
#
# Static dielectric constant tensor:
#      x y z
#    x 1.763350 0.000000 0.000000 
#    y 0.000000 1.982410 0.000000 
#    z 0.000000 0.000000 1.946330 
# 
# From -- ./inp_files/8965.got.cif
#   From: 2010.05.17/outbox.cif.g08.bks.cpg/sg23_5_cif.got.tgz:8965.got - 2010.06.04 12:02:01.
