data_PCOD9329226
_publ_section_title
;
Structure prediction by ZEFSAII (Michael W. Deem and Ramdas Pophale) SiO2 
 PCOD9329226
Probable space group: F 2 2 2
;
_chemical_formula_sum "Si O2"
_cell_formula_units_Z 88
_cell_length_a 5.569541
_cell_length_b 26.919010
_cell_length_c 24.656764
_cell_angle_alpha 90.000000
_cell_angle_beta 90.000000
_cell_angle_gamma 90.000000
_cell_volume 3696.703064
_symmetry_space_group_name_H-M "F 2 2 2"
_symmetry_group_IT_number 22
_symmetry_cell_setting 'orthorhombic'
loop_
_space_group_symop_operation_xyz
x,y,z
-x,-y,z
x,-y,-z
-x,y,-z
x,1/2+y,1/2+z
-x,1/2-y,1/2+z
x,1/2-y,1/2-z
-x,1/2+y,1/2-z
1/2+x,y,1/2+z
1/2-x,-y,1/2+z
1/2+x,-y,1/2-z
1/2-x,y,1/2-z
1/2+x,1/2+y,z
1/2-x,1/2-y,z
1/2+x,1/2-y,-z
1/2-x,1/2+y,-z
loop_
_atom_site_type_symbol
_atom_site_label
_atom_site_fract_x
_atom_site_fract_y
_atom_site_fract_z
Si Si1 0.250000 0.750000 0.250000
Si Si2 0.750000 0.659617 0.250000
Si Si3 0.500000 0.000000 0.000000
Si Si4 0.806677 0.591984 0.451330
Si Si5 0.000000 0.500000 0.275889
Si Si6 0.083754 0.295981 0.059267
Si Si7 0.057666 0.404772 0.664952
Si Si8 0.359292 0.684540 0.332729
O O1 0.156648 0.712026 0.297029
O O2 0.600840 0.623908 0.209559
O O3 0.587597 0.690241 0.293218
O O4 0.653579 0.958903 0.035608
O O5 0.680529 0.646967 0.447891
O O6 0.000000 0.594865 0.500000
O O7 0.933786 0.589544 0.393042
O O8 0.250000 0.479554 0.250000
O O9 0.113882 0.542371 0.312160
O O10 0.250000 0.250000 0.077440
O O11 0.888084 0.298371 0.106453
O O12 0.000000 0.281120 0.000000
O O13 0.298798 0.372920 0.662142
#
# Coordination Sequence:
#
# PCOD9329226 Si02
#       8
#     4   8   4  16   8  16  16  16
#     4  12  28  42  74 112 162 206 256 320 400 482
#     4  12  22  51  71 108 150 201 248 327 396 478
#     4  12  30  54  80 122 148 210 282 334 426 490
#     4  12  28  52  79 113 156 205 269 339 409 491
#     4  12  28  47  77 116 163 215 276 342 430 502
#     4  12  28  50  79 113 159 212 271 336 413 498
#     4  12  27  48  75 112 154 204 268 335 409 490
#     4  12  28  47  76 113 158 208 266 329 402 497
#
# _framework density 23.804995999999999
#
# number of rings (size 3 to 8) (size 9 to 14) (size 15 to 20)
#    0.000    0.000    5.455    3.000    8.909    0.727 
#    0.000    0.000    0.000    0.000    0.000    0.000 
#    0.000    0.000    0.000    0.000    0.000    0.000 
#
# Total GULP energy -122586.704782 kJ/mol
# GULP energy per Si atom -5572.122945 kJ/mol
# Density = 2.375081 g / cm^3
# Si number density = 23.804996 Si / 1000 Ang^3
#
#
#
# Elastic Constant Matrix: (Units=GPa)
#
#
# Indices 1 2 3 4 5 6 
#
# 1 61.2368 33.7322 29.7412 0.0000 0.0000 0.0000
# 2 33.7322 177.8422 31.3517 0.0000 0.0000 0.0000
# 3 29.7412 31.3517 168.3345 0.0000 0.0000 0.0000
# 4 0.0000 0.0000 0.0000 33.2385 0.0000 0.0000
# 5 0.0000 0.0000 0.0000 0.0000 2.9148 0.0000
# 6 0.0000 0.0000 0.0000 0.0000 0.0000 51.7776
#
#
#
# Elastic Compliance Matrix: (Units=1/GPa)
#
#
# Indices 1 2 3 4 5 6 
#
# 1 0.019470 -0.003191 -0.002846 0.000000 0.000000 0.000000
# 2 -0.003191 0.006337 -0.000616 0.000000 0.000000 0.000000
# 3 -0.002846 -0.000616 0.006558 0.000000 0.000000 0.000000
# 4 0.000000 0.000000 0.000000 0.030086 0.000000 0.000000
# 5 0.000000 0.000000 0.000000 0.000000 0.343075 0.000000
# 6 0.000000 0.000000 0.000000 0.000000 0.000000 0.019313
#
#
# Mechanical properties :
#
#
# Convention : Reuss Voigt Hill
#
# Bulk Modulus (GPa) = 52.47009 66.34044 59.40527
# Shear Modulus (GPa) = 11.24863 38.42541 24.83702
#
# Velocity S-wave (km/s) = 2.17614 4.02204 3.23360
# Velocity P-wave (km/s) = 5.32950 7.03547 6.24105
#
# Compressibility (1/GPa) = 0.01905848
#
# Stress axis : x y z
#
# Youngs Moduli (GPa) = 51.36097 157.80481 152.48301
#
# Poissons Ratio (x) = 0.50361 0.43390
# Poissons Ratio (y) = 0.16391 0.09399
# Poissons Ratio (z) = 0.14615 0.09727
#
# Static dielectric constant tensor:
#      x y z
#    x 2.440280 0.000000 0.000000 
#    y 0.000000 1.980500 0.000000 
#    z 0.000000 0.000000 1.867600 
# 
# From -- ./inp_files/46743.got.cif
#   From: 2010.05.17/outbox.cif.g08.bks.cpg/sg22_24_cif.got.tgz:46743.got - 2010.06.03 23:40:54.
