data_PCOD9329816
_publ_section_title
;
Structure prediction by ZEFSAII (Michael W. Deem and Ramdas Pophale) SiO2 
 PCOD9329816
Probable space group: I 2 2 2
;
_chemical_formula_sum "Si O2"
_cell_formula_units_Z 64
_cell_length_a 18.447834
_cell_length_b 20.818434
_cell_length_c 9.564066
_cell_angle_alpha 90.000000
_cell_angle_beta 90.000000
_cell_angle_gamma 90.000000
_cell_volume 3673.127507
_symmetry_space_group_name_H-M "I 2 2 2"
_symmetry_group_IT_number 23
_symmetry_cell_setting 'orthorhombic'
loop_
_space_group_symop_operation_xyz
x,y,z
-x,-y,z
x,-y,-z
-x,y,-z
1/2+x,1/2+y,1/2+z
1/2-x,1/2-y,1/2+z
1/2+x,1/2-y,1/2-z
1/2-x,1/2+y,1/2-z
loop_
_atom_site_type_symbol
_atom_site_label
_atom_site_fract_x
_atom_site_fract_y
_atom_site_fract_z
Si Si1 0.075327 0.134981 0.839556
Si Si2 0.067078 0.283898 0.905953
Si Si3 0.571556 0.796516 0.079894
Si Si4 0.229225 0.324931 0.591885
Si Si5 0.772608 0.704019 0.915679
Si Si6 0.129079 0.848861 0.456828
Si Si7 0.342190 0.561471 0.425598
Si Si8 0.049327 0.063275 0.319838
O O1 0.072502 0.206118 0.903507
O O2 0.130220 0.134028 0.707309
O O3 0.000430 0.113581 0.766771
O O4 0.099225 0.088003 0.962438
O O5 0.055585 0.299847 0.744069
O O6 0.144407 0.312517 0.952509
O O7 0.000000 0.303656 0.000000
O O8 0.645161 0.836072 0.054997
O O9 0.591660 0.722147 0.039527
O O10 0.500000 0.816484 0.000000
O O11 0.230698 0.294386 0.747520
O O12 0.258255 0.273546 0.481425
O O13 0.281477 0.385250 0.596043
O O14 0.708640 0.659468 0.976315
O O15 0.082230 0.900258 0.545247
O O16 0.308965 0.500000 0.500000
O O17 0.384098 0.546081 0.282507
O O18 0.000000 0.000000 0.343545
#
# Coordination Sequence:
#
# PCOD9329816 Si02
#       8
#     8   8   8   8   8   8   8   8
#     4  11  22  34  49  76 107 146 197 235 272 338
#     4  10  19  32  52  79 109 143 180 227 292 357
#     4   9  19  35  54  82 109 137 178 236 298 346
#     4  10  21  36  58  79 111 150 187 242 299 347
#     4  10  20  35  54  82 110 147 192 238 297 346
#     4  10  21  37  53  76 115 148 188 242 286 339
#     4  12  23  39  53  78 114 155 196 241 277 342
#     4  12  23  37  55  75 109 160 200 230 278 333
#
# _framework density 17.423843999999999
#
# number of rings (size 3 to 8) (size 9 to 14) (size 15 to 20)
#    0.000    1.500    3.750    3.750    0.000    3.000 
#    0.000    0.000    0.000    0.375    0.000    0.000 
#    0.000    0.000    0.000    0.000    0.250    0.000 
#
# Total GULP energy -178607.532629 kJ/mol
# GULP energy per Si atom -5581.485395 kJ/mol
# Density = 1.738419 g / cm^3
# Si number density = 17.423844 Si / 1000 Ang^3
#
#
#
# Elastic Constant Matrix: (Units=GPa)
#
#
# Indices 1 2 3 4 5 6 
#
# 1 139.3920 31.7872 57.6121 0.0000 0.0000 0.0000
# 2 31.7872 50.2900 19.0899 0.0000 0.0000 0.0000
# 3 57.6121 19.0899 75.2715 0.0000 0.0000 0.0000
# 4 0.0000 0.0000 0.0000 16.7938 0.0000 0.0000
# 5 0.0000 0.0000 0.0000 0.0000 32.7807 0.0000
# 6 0.0000 0.0000 0.0000 0.0000 0.0000 19.4592
#
#
#
# Elastic Compliance Matrix: (Units=1/GPa)
#
#
# Indices 1 2 3 4 5 6 
#
# 1 0.011261 -0.004256 -0.007539 0.000000 0.000000 0.000000
# 2 -0.004256 0.023611 -0.002731 0.000000 0.000000 0.000000
# 3 -0.007539 -0.002731 0.019748 0.000000 0.000000 0.000000
# 4 0.000000 0.000000 0.000000 0.059546 0.000000 0.000000
# 5 0.000000 0.000000 0.000000 0.000000 0.030506 0.000000
# 6 0.000000 0.000000 0.000000 0.000000 0.000000 0.051390
#
#
# Mechanical properties :
#
#
# Convention : Reuss Voigt Hill
#
# Bulk Modulus (GPa) = 39.11098 53.54799 46.32948
# Shear Modulus (GPa) = 21.40077 24.23767 22.81922
#
# Velocity S-wave (km/s) = 3.50844 3.73374 3.62284
# Velocity P-wave (km/s) = 6.23760 7.02759 6.64435
#
# Compressibility (1/GPa) = 0.02556827
#
# Stress axis : x y z
#
# Youngs Moduli (GPa) = 88.80507 42.35273 50.63680
#
# Poissons Ratio (x) = 0.18024 0.38178
# Poissons Ratio (y) = 0.37792 0.13828
# Poissons Ratio (z) = 0.66954 0.11566
#
# Static dielectric constant tensor:
#      x y z
#    x 1.618070 0.000000 0.000000 
#    y 0.000000 1.594850 0.000000 
#    z 0.000000 0.000000 1.604740 
# 
# From -- ./inp_files/11416.got.cif
#   From: 2010.05.17/outbox.cif.g08.bks.cpg/sg23_6_cif.got.tgz:11416.got - 2010.06.04 12:02:01.
