data_PCOD9329652
_publ_section_title
;
Structure prediction by ZEFSAII (Michael W. Deem and Ramdas Pophale) SiO2 
 PCOD9329652
Probable space group: I 2 2 2
;
_chemical_formula_sum "Si O2"
_cell_formula_units_Z 44
_cell_length_a 14.595565
_cell_length_b 15.641226
_cell_length_c 9.007810
_cell_angle_alpha 90.000000
_cell_angle_beta 90.000000
_cell_angle_gamma 90.000000
_cell_volume 2056.415742
_symmetry_space_group_name_H-M "I 2 2 2"
_symmetry_group_IT_number 23
_symmetry_cell_setting 'orthorhombic'
loop_
_space_group_symop_operation_xyz
x,y,z
-x,-y,z
x,-y,-z
-x,y,-z
1/2+x,1/2+y,1/2+z
1/2-x,1/2-y,1/2+z
1/2+x,1/2-y,1/2-z
1/2-x,1/2+y,1/2-z
loop_
_atom_site_type_symbol
_atom_site_label
_atom_site_fract_x
_atom_site_fract_y
_atom_site_fract_z
Si Si1 0.563395 0.378200 0.752267
Si Si2 0.549657 0.226086 0.165162
Si Si3 0.185353 0.500000 0.000000
Si Si4 0.195770 0.500000 0.500000
Si Si5 0.260197 0.868582 0.246075
Si Si6 0.071502 0.424575 0.736064
Si Si7 0.000000 0.000000 0.500000
Si Si8 0.500000 0.500000 0.500000
O O1 0.473925 0.318906 0.770193
O O2 0.659316 0.326901 0.751938
O O3 0.554786 0.437200 0.608498
O O4 0.560605 0.440867 0.893805
O O5 0.653848 0.192335 0.197196
O O6 0.486452 0.159701 0.252795
O O7 0.500000 0.225376 0.000000
O O8 0.228132 0.423729 0.101859
O O9 0.126143 0.551886 0.118490
O O10 0.244886 0.556999 0.621870
O O11 0.136142 0.431403 0.593055
O O12 0.000000 0.500000 0.708121
#
# Coordination Sequence:
#
# PCOD9329652 Si02
#       8
#     8   8   4   4   8   8   2   2
#     4  11  25  48  71  99 130 182 233 280 342 397
#     4  12  23  42  68 102 139 177 220 280 348 402
#     4  10  22  34  61 101 134 180 219 267 327 391
#     4  10  18  34  63  91 132 178 223 263 313 413
#     4  11  23  40  67 104 136 179 229 274 332 410
#     4  11  18  34  60  93 140 180 208 259 341 407
#     4  10  22  50  78  82 142 188 234 286 322 414
#     4  10  26  54  74  94 128 178 234 298 334 374
#
# _framework density 21.396453000000001
#
# number of rings (size 3 to 8) (size 9 to 14) (size 15 to 20)
#    0.000    1.091    6.364    1.636    0.000    1.455 
#    6.545    1.818    0.000    0.000    0.000    0.000 
#    0.000    0.000    0.000    0.000    0.000    0.000 
#
# Total GULP energy -122569.046250 kJ/mol
# GULP energy per Si atom -5571.320284 kJ/mol
# Density = 2.134775 g / cm^3
# Si number density = 21.396453 Si / 1000 Ang^3
#
#
#
# Elastic Constant Matrix: (Units=GPa)
#
#
# Indices 1 2 3 4 5 6 
#
# 1 135.8299 30.5489 39.5983 0.0000 0.0000 0.0000
# 2 30.5489 73.2840 8.5671 0.0000 0.0000 0.0000
# 3 39.5983 8.5671 108.2069 0.0000 0.0000 0.0000
# 4 0.0000 0.0000 0.0000 8.6054 0.0000 0.0000
# 5 0.0000 0.0000 0.0000 0.0000 -25.9737 0.0000
# 6 0.0000 0.0000 0.0000 0.0000 0.0000 24.5158
#
#
#
# Elastic Compliance Matrix: (Units=1/GPa)
#
#
# Indices 1 2 3 4 5 6 
#
# 1 0.009010 -0.003402 -0.003028 0.000000 0.000000 0.000000
# 2 -0.003402 0.015057 0.000053 0.000000 0.000000 0.000000
# 3 -0.003028 0.000053 0.010345 0.000000 0.000000 0.000000
# 4 0.000000 0.000000 0.000000 0.116206 0.000000 0.000000
# 5 0.000000 0.000000 0.000000 0.000000 -0.038501 0.000000
# 6 0.000000 0.000000 0.000000 0.000000 0.000000 0.040790
#
#
# Mechanical properties :
#
#
# Convention : Reuss Voigt Hill
#
# Bulk Modulus (GPa) = 46.17041 52.74995 49.46018
# Shear Modulus (GPa) = 28.92151 17.33661 23.12906
#
# Velocity S-wave (km/s) = 3.68053 2.84959 3.29139
# Velocity P-wave (km/s) = 6.29977 5.96104 6.13274
#
# Compressibility (1/GPa) = 0.02165889
#
# Stress axis : x y z
#
# Youngs Moduli (GPa) = 110.98823 66.41222 96.66113
#
# Poissons Ratio (x) = 0.22593 0.29268
# Poissons Ratio (y) = 0.37757 -0.00510
# Poissons Ratio (z) = 0.33606 -0.00350
#
# Static dielectric constant tensor:
#      x y z
#    x 1.836860 0.000000 0.000000 
#    y 0.000000 1.777810 0.000000 
#    z 0.000000 0.000000 1.789540 
# 
# From -- ./inp_files/9903.got.cif
#   From: 2010.05.17/outbox.cif.g08.bks.cpg/sg23_5_cif.got.tgz:9903.got - 2010.06.04 12:02:01.
