data_PCOD9329000
_publ_section_title
;
Structure prediction by ZEFSAII (Michael W. Deem and Ramdas Pophale) SiO2 
 PCOD9329000
Probable space group: F 2 2 2
;
_chemical_formula_sum "Si O2"
_cell_formula_units_Z 68
_cell_length_a 25.449683
_cell_length_b 5.015383
_cell_length_c 23.873672
_cell_angle_alpha 90.000000
_cell_angle_beta 90.000000
_cell_angle_gamma 90.000000
_cell_volume 3047.233285
_symmetry_space_group_name_H-M "F 2 2 2"
_symmetry_group_IT_number 22
_symmetry_cell_setting 'orthorhombic'
loop_
_space_group_symop_operation_xyz
x,y,z
-x,-y,z
x,-y,-z
-x,y,-z
x,1/2+y,1/2+z
-x,1/2-y,1/2+z
x,1/2-y,1/2-z
-x,1/2+y,1/2-z
1/2+x,y,1/2+z
1/2-x,-y,1/2+z
1/2+x,-y,1/2-z
1/2-x,y,1/2-z
1/2+x,1/2+y,z
1/2-x,1/2-y,z
1/2+x,1/2-y,-z
1/2-x,1/2+y,-z
loop_
_atom_site_type_symbol
_atom_site_label
_atom_site_fract_x
_atom_site_fract_y
_atom_site_fract_z
Si Si1 0.750000 0.250000 0.750000
Si Si2 0.896743 0.010819 0.211764
Si Si3 0.695645 0.136435 0.161519
Si Si4 0.877235 0.437324 0.060358
Si Si5 0.559217 0.072249 0.590698
O O1 0.784934 0.435937 0.790417
O O2 0.891273 0.750000 0.250000
O O3 0.931498 0.945894 0.157624
O O4 0.919236 0.250000 0.250000
O O5 0.842072 0.136134 0.187881
O O6 0.750000 0.250000 0.137909
O O7 0.661987 0.009292 0.111870
O O8 0.925656 0.636935 0.069513
O O9 0.899742 0.139815 0.064978
O O10 0.853429 0.500000 0.000000
O O11 0.500000 0.000000 0.576544
#
# Coordination Sequence:
#
# PCOD9329000 Si02
#       5
#     4  16  16  16  16
#     4  12  26  44  70 104 134 184 222 282 334 420
#     4  11  24  41  66  97 142 182 219 282 345 411
#     4  11  27  42  70 103 140 179 234 276 342 410
#     4  11  26  48  70 100 139 181 231 288 342 403
#     4  11  25  44  70 102 134 178 236 286 345 411
#
# _framework density 22.315322999999999
#
# number of rings (size 3 to 8) (size 9 to 14) (size 15 to 20)
#    0.000    0.941    0.000    6.000   16.471    3.765 
#    2.118    0.000    0.000    0.000    0.000    0.000 
#    0.000    0.000    0.000    0.000    0.000    0.000 
#
# Total GULP energy -95212.861625 kJ/mol
# GULP energy per Si atom -5600.756566 kJ/mol
# Density = 2.226453 g / cm^3
# Si number density = 22.315323 Si / 1000 Ang^3
#
#
#
# Elastic Constant Matrix: (Units=GPa)
#
#
# Indices 1 2 3 4 5 6 
#
# 1 71.9955 -1.8812 27.7175 -0.0024 0.0005 0.0048
# 2 -1.8812 94.9006 33.0067 -0.0015 0.0051 -0.0135
# 3 27.7175 33.0067 147.5609 -0.0006 0.0015 0.0005
# 4 -0.0024 -0.0015 -0.0006 38.0761 0.0028 -0.0002
# 5 0.0005 0.0051 0.0015 0.0028 -1.4186 0.0005
# 6 0.0048 -0.0135 0.0005 -0.0002 0.0005 30.7241
#
#
#
# Elastic Compliance Matrix: (Units=1/GPa)
#
#
# Indices 1 2 3 4 5 6 
#
# 1 0.015142 0.001398 -0.003157 0.000001 0.000007 -0.000002
# 2 0.001398 0.011555 -0.002847 0.000001 0.000039 0.000005
# 3 -0.003157 -0.002847 0.008007 0.000000 -0.000003 -0.000001
# 4 0.000001 0.000001 0.000000 0.026263 0.000052 0.000000
# 5 0.000007 0.000039 -0.000003 0.000052 -0.704922 0.000012
# 6 -0.000002 0.000005 -0.000001 0.000000 0.000012 0.032548
#
#
# Mechanical properties :
#
#
# Convention : Reuss Voigt Hill
#
# Bulk Modulus (GPa) = 39.22869 48.01587 43.62228
# Shear Modulus (GPa) = -8.42179 30.51725 11.04773
#
# Velocity S-wave (km/s) = -1.94479 3.70205 2.22744
# Velocity P-wave (km/s) = 3.54606 6.31168 5.11917
#
# Compressibility (1/GPa) = 0.02549155
#
# Stress axis : x y z
#
# Youngs Moduli (GPa) = 66.04292 86.53982 124.89457
#
# Poissons Ratio (x) = -0.12099 0.39428
# Poissons Ratio (y) = -0.09234 0.35562
# Poissons Ratio (z) = 0.20849 0.24641
#
# Static dielectric constant tensor:
#      x y z
#    x 1.812590 0.000000 0.000000 
#    y 0.000000 1.827570 -0.000010 
#    z 0.000000 -0.000010 1.841560 
# 
# From -- ./inp_files/45575.got.cif
#   From: 2010.05.17/outbox.cif.g08.bks.cpg/sg22_23_cif.got.tgz:45575.got - 2010.06.03 23:40:54.
