data_PCOD9329685
_publ_section_title
;
Structure prediction by ZEFSAII (Michael W. Deem and Ramdas Pophale) SiO2 
 PCOD9329685
Probable space group: I 2 2 2
;
_chemical_formula_sum "Si O2"
_cell_formula_units_Z 44
_cell_length_a 5.190655
_cell_length_b 22.456229
_cell_length_c 16.658152
_cell_angle_alpha 90.000000
_cell_angle_beta 90.000000
_cell_angle_gamma 90.000000
_cell_volume 1941.716465
_symmetry_space_group_name_H-M "I 2 2 2"
_symmetry_group_IT_number 23
_symmetry_cell_setting 'orthorhombic'
loop_
_space_group_symop_operation_xyz
x,y,z
-x,-y,z
x,-y,-z
-x,y,-z
1/2+x,1/2+y,1/2+z
1/2-x,1/2-y,1/2+z
1/2+x,1/2-y,1/2-z
1/2-x,1/2+y,1/2-z
loop_
_atom_site_type_symbol
_atom_site_label
_atom_site_fract_x
_atom_site_fract_y
_atom_site_fract_z
Si Si1 0.991843 0.927465 0.593158
Si Si2 0.109469 0.263718 0.580408
Si Si3 0.493377 0.071546 0.303544
Si Si4 0.000000 0.145240 0.000000
Si Si5 0.260520 0.867714 0.153174
Si Si6 0.508800 0.715573 0.766076
O O1 0.231800 0.909449 0.650561
O O2 0.000000 0.907844 0.500000
O O3 0.725982 0.912504 0.636842
O O4 0.000000 0.000000 0.590723
O O5 0.333495 0.307783 0.552149
O O6 0.122686 0.213193 0.646714
O O7 0.000000 0.236548 0.500000
O O8 0.913572 0.310712 0.619889
O O9 0.558357 0.096273 0.214346
O O10 0.500000 0.000000 0.295945
O O11 0.147903 0.107401 0.931240
O O12 0.038127 0.841032 0.210448
O O13 0.809839 0.733316 0.769048
#
# Coordination Sequence:
#
# PCOD9329685 Si02
#       6
#     8   8   8   4   8   8
#     4   9  18  35  59  83 111 149 195 240 296 359
#     4   9  19  34  56  82 110 150 195 239 294 361
#     4  10  21  35  58  89 118 157 200 251 295 354
#     4  10  18  36  58  83 108 156 203 240 296 364
#     4  10  21  34  59  84 118 155 205 243 300 364
#     4  10  19  34  55  83 109 144 187 236 287 347
#
# _framework density 22.660361000000002
#
# number of rings (size 3 to 8) (size 9 to 14) (size 15 to 20)
#    0.000    2.364    1.818    0.545    2.545    2.182 
#    0.000    0.909    4.000    6.000    0.000    0.000 
#    0.000    0.000    0.000    0.000    0.000    0.000 
#
# Total GULP energy -122542.782692 kJ/mol
# GULP energy per Si atom -5570.126486 kJ/mol
# Density = 2.260879 g / cm^3
# Si number density = 22.660361 Si / 1000 Ang^3
#
#
#
# Elastic Constant Matrix: (Units=GPa)
#
#
# Indices 1 2 3 4 5 6 
#
# 1 120.6557 11.9529 61.2250 0.0000 0.0000 0.0000
# 2 11.9529 51.9973 37.6746 0.0000 0.0000 0.0000
# 3 61.2250 37.6746 229.1219 0.0000 0.0000 0.0000
# 4 0.0000 0.0000 0.0000 21.7439 0.0000 0.0000
# 5 0.0000 0.0000 0.0000 0.0000 48.5338 0.0000
# 6 0.0000 0.0000 0.0000 0.0000 0.0000 10.2305
#
#
#
# Elastic Compliance Matrix: (Units=1/GPa)
#
#
# Indices 1 2 3 4 5 6 
#
# 1 0.009595 -0.000395 -0.002499 0.000000 0.000000 0.000000
# 2 -0.000395 0.021849 -0.003487 0.000000 0.000000 0.000000
# 3 -0.002499 -0.003487 0.005606 0.000000 0.000000 0.000000
# 4 0.000000 0.000000 0.000000 0.045990 0.000000 0.000000
# 5 0.000000 0.000000 0.000000 0.000000 0.020604 0.000000
# 6 0.000000 0.000000 0.000000 0.000000 0.000000 0.097747
#
#
# Mechanical properties :
#
#
# Convention : Reuss Voigt Hill
#
# Bulk Modulus (GPa) = 41.17308 69.27555 55.22431
# Shear Modulus (GPa) = 22.49722 35.49648 28.99685
#
# Velocity S-wave (km/s) = 3.15429 3.96214 3.58107
# Velocity P-wave (km/s) = 5.61027 7.18116 6.44377
#
# Compressibility (1/GPa) = 0.02428772
#
# Stress axis : x y z
#
# Youngs Moduli (GPa) = 104.21779 45.76836 178.39099
#
# Poissons Ratio (x) = 0.01808 0.44581
# Poissons Ratio (y) = 0.04117 0.62207
# Poissons Ratio (z) = 0.26045 0.15960
#
# Static dielectric constant tensor:
#      x y z
#    x 1.923500 0.000000 0.000000 
#    y 0.000000 1.894830 0.000000 
#    z 0.000000 0.000000 1.987070 
# 
# From -- ./inp_files/19180.got.cif
#   From: 2010.05.17/outbox.cif.g08.bks.cpg/sg23_10_cif.got.tgz:19180.got - 2010.06.04 12:02:01.
