data_PCOD9329957
_publ_section_title
;
Structure prediction by ZEFSAII (Michael W. Deem and Ramdas Pophale) SiO2 
 PCOD9329957
Probable space group: I 2 2 2
;
_chemical_formula_sum "Si O2"
_cell_formula_units_Z 56
_cell_length_a 6.801263
_cell_length_b 12.805847
_cell_length_c 23.641488
_cell_angle_alpha 90.000000
_cell_angle_beta 90.000000
_cell_angle_gamma 90.000000
_cell_volume 2059.077464
_symmetry_space_group_name_H-M "I 2 2 2"
_symmetry_group_IT_number 23
_symmetry_cell_setting 'orthorhombic'
loop_
_space_group_symop_operation_xyz
x,y,z
-x,-y,z
x,-y,-z
-x,y,-z
1/2+x,1/2+y,1/2+z
1/2-x,1/2-y,1/2+z
1/2+x,1/2-y,1/2-z
1/2-x,1/2+y,1/2-z
loop_
_atom_site_type_symbol
_atom_site_label
_atom_site_fract_x
_atom_site_fract_y
_atom_site_fract_z
Si Si1 0.246677 0.373222 0.347998
Si Si2 0.999999 0.622889 0.882220
Si Si3 0.500000 0.126412 0.062944
Si Si4 0.500001 0.328164 0.564176
Si Si5 0.270891 0.377825 0.780380
Si Si6 0.253322 0.126778 0.152002
Si Si7 0.270889 0.622174 0.780380
O O1 0.254056 0.353634 0.421498
O O2 0.499999 0.353367 0.359948
O O3 0.251379 0.500000 0.343523
O O4 0.228822 0.334589 0.282206
O O5 0.820884 0.653589 0.840602
O O6 0.000000 0.500000 0.895580
O O7 1.000000 0.701210 0.933955
O O8 0.179113 0.653590 0.840602
O O9 0.500000 0.148471 0.135074
O O10 0.500000 0.000000 0.057407
O O11 0.500000 0.175949 0.000000
O O12 0.500000 0.371359 0.500000
O O13 0.254057 0.353634 0.578502
O O14 0.228825 0.334589 0.717794
O O15 0.209646 0.500000 0.777279
O O16 0.500001 0.374770 0.787317
#
# Coordination Sequence:
#
# PCOD9329957 Si02
#       7
#     8   8   8   8   8   8   8
#     4  10  19  35  57  86 123 152 184 236 294 361
#     4  10  23  42  62  85 115 153 202 257 299 340
#     4   9  17  29  48  74 111 164 201 218 264 334
#     4  12  25  38  55  84 117 160 206 234 284 350
#     4   9  17  35  62  89 115 145 185 240 308 362
#     4  10  19  35  57  86 123 152 184 236 294 361
#     4   9  17  35  62  89 115 145 185 240 308 362
#
# _framework density 27.196645
#
# number of rings (size 3 to 8) (size 9 to 14) (size 15 to 20)
#    0.000    2.143    1.429    2.143    0.000    7.143 
#    2.571    0.000    0.000    0.000    0.000    4.000 
#    0.000    0.000    0.000    0.000    0.000    0.000 
#
# Total GULP energy -156334.504534 kJ/mol
# GULP energy per Si atom -5583.375162 kJ/mol
# Density = 2.713474 g / cm^3
# Si number density = 27.196645 Si / 1000 Ang^3
#
#
#
# Elastic Constant Matrix: (Units=GPa)
#
#
# Indices 1 2 3 4 5 6 
#
# 1 264.4019 25.2466 95.6045 0.0000 0.0000 0.0000
# 2 25.2466 106.0049 32.5127 0.0000 0.0000 0.0000
# 3 95.6045 32.5127 222.5779 0.0000 0.0000 0.0000
# 4 0.0000 0.0000 0.0000 17.3116 0.0000 0.0000
# 5 0.0000 0.0000 0.0000 0.0000 50.8842 0.0000
# 6 0.0000 0.0000 0.0000 0.0000 0.0000 45.8605
#
#
#
# Elastic Compliance Matrix: (Units=1/GPa)
#
#
# Indices 1 2 3 4 5 6 
#
# 1 0.004503 -0.000502 -0.001861 0.000000 0.000000 0.000000
# 2 -0.000502 0.009932 -0.001235 0.000000 0.000000 0.000000
# 3 -0.001861 -0.001235 0.005473 0.000000 0.000000 0.000000
# 4 0.000000 0.000000 0.000000 0.057765 0.000000 0.000000
# 5 0.000000 0.000000 0.000000 0.000000 0.019652 0.000000
# 6 0.000000 0.000000 0.000000 0.000000 0.000000 0.021805
#
#
# Mechanical properties :
#
#
# Convention : Reuss Voigt Hill
#
# Bulk Modulus (GPa) = 78.66794 99.96801 89.31797
# Shear Modulus (GPa) = 38.29574 52.11931 45.20753
#
# Velocity S-wave (km/s) = 3.75654 4.38241 4.08149
# Velocity P-wave (km/s) = 6.91404 7.90219 7.42457
#
# Compressibility (1/GPa) = 0.01271166
#
# Stress axis : x y z
#
# Youngs Moduli (GPa) = 222.07978 100.68581 182.73016
#
# Poissons Ratio (x) = 0.05051 0.34003
# Poissons Ratio (y) = 0.11141 0.22573
# Poissons Ratio (z) = 0.41326 0.12438
#
# Static dielectric constant tensor:
#      x y z
#    x 2.378030 0.000000 0.000000 
#    y 0.000000 2.082090 0.000000 
#    z 0.000000 0.000000 2.088820 
# 
# From -- ./inp_files/26266.got.cif
#   From: 2010.05.17/outbox.cif.g08.bks.cpg/sg23_14_cif.got.tgz:26266.got - 2010.06.04 12:02:01.
