data_PCOD9329594
_publ_section_title
;
Structure prediction by ZEFSAII (Michael W. Deem and Ramdas Pophale) SiO2 
 PCOD9329594
Probable space group: I 2 2 2
;
_chemical_formula_sum "Si O2"
_cell_formula_units_Z 40
_cell_length_a 13.745853
_cell_length_b 7.122444
_cell_length_c 17.691829
_cell_angle_alpha 90.000000
_cell_angle_beta 90.000000
_cell_angle_gamma 90.000000
_cell_volume 1732.102033
_symmetry_space_group_name_H-M "I 2 2 2"
_symmetry_group_IT_number 23
_symmetry_cell_setting 'orthorhombic'
loop_
_space_group_symop_operation_xyz
x,y,z
-x,-y,z
x,-y,-z
-x,y,-z
1/2+x,1/2+y,1/2+z
1/2-x,1/2-y,1/2+z
1/2+x,1/2-y,1/2-z
1/2-x,1/2+y,1/2-z
loop_
_atom_site_type_symbol
_atom_site_label
_atom_site_fract_x
_atom_site_fract_y
_atom_site_fract_z
Si Si1 0.220143 0.864802 0.649599
Si Si2 0.685211 0.792683 0.193733
Si Si3 0.656775 0.688227 0.469469
Si Si4 0.111392 0.130391 0.124992
Si Si5 0.026220 0.778648 0.714939
O O1 0.290246 0.804897 0.717824
O O2 0.272517 0.827374 0.571361
O O3 0.120612 0.751081 0.663111
O O4 0.198254 0.082602 0.662315
O O5 0.776024 0.895905 0.154189
O O6 0.570163 0.833564 0.191730
O O7 0.711930 0.500000 0.500000
O O8 0.608209 0.752347 0.547733
O O9 0.588480 0.581923 0.407160
O O10 0.060569 0.226710 0.197060
O O11 0.000000 0.000000 0.707372
#
# Coordination Sequence:
#
# PCOD9329594 Si02
#       5
#     8   8   8   8   8
#     4  10  18  33  51  78 108 141 176 225 262 317
#     4  10  19  32  56  77 106 136 185 223 262 314
#     4   8  18  34  56  72 109 141 177 211 272 316
#     4   8  18  35  51  76 106 138 175 221 262 319
#     4   9  17  30  53  78 101 134 184 217 254 312
#
# _framework density 23.093329000000001
#
# number of rings (size 3 to 8) (size 9 to 14) (size 15 to 20)
#    1.200    1.600    0.000    3.600    0.000    0.800 
#    0.000   17.000    4.400    3.600    0.000   22.400 
#    0.000    0.000    0.000    0.000    0.000    0.000 
#
# Total GULP energy -111335.618388 kJ/mol
# GULP energy per Si atom -5566.780919 kJ/mol
# Density = 2.304077 g / cm^3
# Si number density = 23.093329 Si / 1000 Ang^3
#
#
#
# Elastic Constant Matrix: (Units=GPa)
#
#
# Indices 1 2 3 4 5 6 
#
# 1 100.1116 13.8116 10.6312 0.0000 0.0000 0.0000
# 2 13.8116 44.3371 15.2176 0.0000 0.0000 0.0000
# 3 10.6312 15.2176 84.3763 0.0000 0.0000 0.0000
# 4 0.0000 0.0000 0.0000 62.5352 0.0000 0.0000
# 5 0.0000 0.0000 0.0000 0.0000 31.2168 0.0000
# 6 0.0000 0.0000 0.0000 0.0000 0.0000 1495.0706
#
#
#
# Elastic Compliance Matrix: (Units=1/GPa)
#
#
# Indices 1 2 3 4 5 6 
#
# 1 0.010485 -0.002999 -0.000780 0.000000 0.000000 0.000000
# 2 -0.002999 0.024900 -0.004113 0.000000 0.000000 0.000000
# 3 -0.000780 -0.004113 0.012692 0.000000 0.000000 0.000000
# 4 0.000000 0.000000 0.000000 0.015991 0.000000 0.000000
# 5 0.000000 0.000000 0.000000 0.000000 0.032034 0.000000
# 6 0.000000 0.000000 0.000000 0.000000 0.000000 0.000669
#
#
# Mechanical properties :
#
#
# Convention : Reuss Voigt Hill
#
# Bulk Modulus (GPa) = 30.96589 34.23845 32.60217
# Shear Modulus (GPa) = 40.54502 330.37551 185.46027
#
# Velocity S-wave (km/s) = 4.19466 11.97379 8.97125
# Velocity P-wave (km/s) = 6.07440 14.35341 11.02086
#
# Compressibility (1/GPa) = 0.03229360
#
# Stress axis : x y z
#
# Youngs Moduli (GPa) = 95.37063 40.16024 78.79107
#
# Poissons Ratio (x) = 0.12042 0.06148
# Poissons Ratio (y) = 0.28597 0.32407
# Poissons Ratio (z) = 0.07442 0.16518
#
# Static dielectric constant tensor:
#      x y z
#    x 1.995780 0.000000 0.000000 
#    y 0.000000 1.967590 0.000000 
#    z 0.000000 0.000000 1.341630 
# 
# From -- ./inp_files/24164.got.cif
#   From: 2010.05.17/outbox.cif.g08.bks.cpg/sg23_13_cif.got.tgz:24164.got - 2010.06.04 12:02:01.
