data_PCOD9329224
_publ_section_title
;
Structure prediction by ZEFSAII (Michael W. Deem and Ramdas Pophale) SiO2 
 PCOD9329224
Probable space group: F 2 2 2
;
_chemical_formula_sum "Si O2"
_cell_formula_units_Z 96
_cell_length_a 21.355626
_cell_length_b 13.025578
_cell_length_c 14.854889
_cell_angle_alpha 90.000000
_cell_angle_beta 90.000000
_cell_angle_gamma 90.000000
_cell_volume 4132.175147
_symmetry_space_group_name_H-M "F 2 2 2"
_symmetry_group_IT_number 22
_symmetry_cell_setting 'orthorhombic'
loop_
_space_group_symop_operation_xyz
x,y,z
-x,-y,z
x,-y,-z
-x,y,-z
x,1/2+y,1/2+z
-x,1/2-y,1/2+z
x,1/2-y,1/2-z
-x,1/2+y,1/2-z
1/2+x,y,1/2+z
1/2-x,-y,1/2+z
1/2+x,-y,1/2-z
1/2-x,y,1/2-z
1/2+x,1/2+y,z
1/2-x,1/2-y,z
1/2+x,1/2-y,-z
1/2-x,1/2+y,-z
loop_
_atom_site_type_symbol
_atom_site_label
_atom_site_fract_x
_atom_site_fract_y
_atom_site_fract_z
Si Si1 0.250000 0.750000 0.750000
Si Si2 0.127932 0.228905 0.481095
Si Si3 0.308153 0.429561 0.361905
Si Si4 0.557325 0.932432 0.673688
Si Si5 0.832002 0.557107 0.407957
Si Si6 0.903888 0.113265 0.359936
Si Si7 0.500000 0.000000 0.000000
Si Si8 0.500000 0.817181 0.500000
O O1 0.297428 0.667704 0.704225
O O2 0.159947 0.125635 0.446961
O O3 0.164249 0.323620 0.436140
O O4 0.125151 0.211778 0.588578
O O5 0.055705 0.251533 0.455383
O O6 0.237573 0.467395 0.376162
O O7 0.352282 0.525093 0.343316
O O8 0.571545 0.863448 0.760329
O O9 0.533396 0.882362 0.579403
O O10 0.500000 0.000000 0.706858
O O11 0.614095 0.011373 0.654285
O O12 0.843682 0.500000 0.500000
O O13 0.955311 0.065927 0.431135
#
# Coordination Sequence:
#
# PCOD9329224 Si02
#       8
#     4  16  16  16  16  16   4   8
#     4  12  24  44  72 116 138 190 268 328 394 468
#     4  12  24  45  72 102 150 197 254 316 396 473
#     4  12  26  45  74 109 150 199 265 322 396 482
#     4  12  24  46  76 109 152 201 255 327 402 462
#     4  12  23  46  77 105 148 203 255 327 395 476
#     4  12  27  46  73 108 152 201 252 321 398 475
#     4  12  22  48  62 102 142 188 240 296 378 474
#     4  12  26  46  76 112 154 202 272 322 394 494
#
# _framework density 23.232315
#
# number of rings (size 3 to 8) (size 9 to 14) (size 15 to 20)
#    0.000    0.000    7.500    2.750    0.000    0.667 
#    0.000    0.000    0.000    0.000    0.000    0.000 
#    0.000    0.000    0.000    0.000    0.000    0.000 
#
# Total GULP energy -133966.209201 kJ/mol
# GULP energy per Si atom -5581.925383 kJ/mol
# Density = 2.317944 g / cm^3
# Si number density = 23.232315 Si / 1000 Ang^3
#
#
#
# Elastic Constant Matrix: (Units=GPa)
#
#
# Indices 1 2 3 4 5 6 
#
# 1 136.5335 39.5515 34.2129 0.0000 0.0000 0.0000
# 2 39.5515 88.2403 44.1304 0.0000 0.0000 0.0000
# 3 34.2129 44.1304 135.5599 0.0000 0.0000 0.0000
# 4 0.0000 0.0000 0.0000 -25.8427 0.0000 0.0000
# 5 0.0000 0.0000 0.0000 0.0000 570.6622 0.0000
# 6 0.0000 0.0000 0.0000 0.0000 0.0000 41.4005
#
#
#
# Elastic Compliance Matrix: (Units=1/GPa)
#
#
# Indices 1 2 3 4 5 6 
#
# 1 0.008549 -0.003288 -0.001087 0.000000 0.000000 0.000000
# 2 -0.003288 0.014801 -0.003989 0.000000 0.000000 0.000000
# 3 -0.001087 -0.003989 0.008950 0.000000 0.000000 0.000000
# 4 0.000000 0.000000 0.000000 -0.038696 0.000000 0.000000
# 5 0.000000 0.000000 0.000000 0.000000 0.001752 0.000000
# 6 0.000000 0.000000 0.000000 0.000000 0.000000 0.024154
#
#
# Mechanical properties :
#
#
# Convention : Reuss Voigt Hill
#
# Bulk Modulus (GPa) = 64.21718 66.23593 65.22656
# Shear Modulus (GPa) = 120.68599 133.40660 127.04630
#
# Velocity S-wave (km/s) = 7.21528 7.58601 7.40296
# Velocity P-wave (km/s) = 9.85469 10.26168 10.06025
#
# Compressibility (1/GPa) = 0.01557216
#
# Stress axis : x y z
#
# Youngs Moduli (GPa) = 116.97014 67.56165 111.73633
#
# Poissons Ratio (x) = 0.22216 0.12148
# Poissons Ratio (y) = 0.38462 0.44567
# Poissons Ratio (z) = 0.12717 0.26947
#
# Static dielectric constant tensor:
#      x y z
#    x 1.850030 0.000000 0.000000 
#    y 0.000000 1.030250 0.000000 
#    z 0.000000 0.000000 1.964070 
# 
# From -- ./inp_files/31592.got.cif
#   From: 2010.05.17/outbox.cif.g08.bks.cpg/sg22_16_cif.got.tgz:31592.got - 2010.06.03 23:40:54.
