data_PCOD9329515
_publ_section_title
;
Structure prediction by ZEFSAII (Michael W. Deem and Ramdas Pophale) SiO2 
 PCOD9329515
Probable space group: I 2 2 2
;
_chemical_formula_sum "Si O2"
_cell_formula_units_Z 40
_cell_length_a 20.743682
_cell_length_b 5.394545
_cell_length_c 21.230107
_cell_angle_alpha 90.000000
_cell_angle_beta 90.000000
_cell_angle_gamma 90.000000
_cell_volume 2375.706847
_symmetry_space_group_name_H-M "I 2 2 2"
_symmetry_group_IT_number 23
_symmetry_cell_setting 'orthorhombic'
loop_
_space_group_symop_operation_xyz
x,y,z
-x,-y,z
x,-y,-z
-x,y,-z
1/2+x,1/2+y,1/2+z
1/2-x,1/2-y,1/2+z
1/2+x,1/2-y,1/2-z
1/2-x,1/2+y,1/2-z
loop_
_atom_site_type_symbol
_atom_site_label
_atom_site_fract_x
_atom_site_fract_y
_atom_site_fract_z
Si Si1 0.330345 0.750000 0.723733
Si Si2 0.964893 0.750000 0.099327
Si Si3 0.176909 0.750000 0.959239
Si Si4 0.732752 0.750000 0.668849
Si Si5 0.481904 0.750000 0.739975
O O1 0.303935 0.500414 0.690924
O O2 0.300311 0.750000 0.793976
O O3 0.407122 0.750000 0.722335
O O4 0.303935 0.999586 0.690924
O O5 0.891400 0.750000 0.077990
O O6 0.000000 0.500000 0.076658
O O7 0.975367 0.750000 0.175303
O O8 0.000000 0.000000 0.076658
O O9 0.232055 0.750000 0.906195
O O10 0.179558 0.500000 0.000000
O O11 0.179558 0.000000 0.000000
O O12 0.500000 0.500000 0.774916
O O13 0.500000 0.000000 0.774916
#
# Coordination Sequence:
#
# PCOD9329515 Si02
#       5
#     8   8   8   8   8
#     4  10  19  34  56  74  95 130 169 219 265 297
#     4  10  19  31  45  62  93 131 167 200 233 275
#     4  12  24  35  48  69 102 139 174 203 234 290
#     4  10  20  35  53  73  96 129 177 218 255 294
#     4  10  18  29  48  71  98 125 155 201 257 300
#
# _framework density 16.837095000000001
#
# number of rings (size 3 to 8) (size 9 to 14) (size 15 to 20)
#    0.000    1.600    0.000    8.400    0.000    2.400 
#    0.000    0.000    0.000    0.000    0.000    0.000 
#    0.000    4.800    0.000    0.000    0.000    0.000 
#
# Total GULP energy -111639.843349 kJ/mol
# GULP energy per Si atom -5581.992167 kJ/mol
# Density = 1.679877 g / cm^3
# Si number density = 16.837095 Si / 1000 Ang^3
#
#
#
# Elastic Constant Matrix: (Units=GPa)
#
#
# Indices 1 2 3 4 5 6 
#
# 1 47.1448 24.4167 35.5035 0.0000 0.0000 0.0000
# 2 24.4167 165.2788 27.7879 0.0000 0.0000 0.0000
# 3 35.5035 27.7879 74.8324 0.0000 0.0000 0.0000
# 4 0.0000 0.0000 0.0000 -2.4213 0.0000 0.0000
# 5 0.0000 0.0000 0.0000 0.0000 30.2129 0.0000
# 6 0.0000 0.0000 0.0000 0.0000 0.0000 16.6310
#
#
#
# Elastic Compliance Matrix: (Units=1/GPa)
#
#
# Indices 1 2 3 4 5 6 
#
# 1 0.033914 -0.002458 -0.015177 0.000000 0.000000 0.000000
# 2 -0.002458 0.006631 -0.001296 0.000000 0.000000 0.000000
# 3 -0.015177 -0.001296 0.021045 0.000000 0.000000 0.000000
# 4 0.000000 0.000000 0.000000 -0.412998 0.000000 0.000000
# 5 0.000000 0.000000 0.000000 0.000000 0.033098 0.000000
# 6 0.000000 0.000000 0.000000 0.000000 0.000000 0.060129
#
#
# Mechanical properties :
#
#
# Convention : Reuss Voigt Hill
#
# Bulk Modulus (GPa) = 42.14595 51.40804 46.77699
# Shear Modulus (GPa) = -23.53970 22.18771 -0.67600
#
# Velocity S-wave (km/s) = -3.74316 3.63407 -0.63432
# Velocity P-wave (km/s) = 2.53068 6.94316 5.22551
#
# Compressibility (1/GPa) = 0.02372707
#
# Stress axis : x y z
#
# Youngs Moduli (GPa) = 29.48621 150.79593 47.51670
#
# Poissons Ratio (x) = 0.37072 0.72118
# Poissons Ratio (y) = 0.07249 0.06159
# Poissons Ratio (z) = 0.44752 0.19545
#
# Static dielectric constant tensor:
#      x y z
#    x 1.553370 0.000000 0.000000 
#    y 0.000000 1.668800 0.000000 
#    z 0.000000 0.000000 1.574360 
# 
# From -- ./inp_files/3238.got.cif
#   From: 2010.05.17/outbox.cif.g08.bks.cpg/sg23_2_cif.got.tgz:3238.got - 2010.06.04 12:02:01.
