data_PCOD9329888
_publ_section_title
;
Structure prediction by ZEFSAII (Michael W. Deem and Ramdas Pophale) SiO2 
 PCOD9329888
Probable space group: I 2 2 2
;
_chemical_formula_sum "Si O2"
_cell_formula_units_Z 38
_cell_length_a 18.870277
_cell_length_b 17.361141
_cell_length_c 5.467588
_cell_angle_alpha 90.000000
_cell_angle_beta 90.000000
_cell_angle_gamma 90.000000
_cell_volume 1791.233988
_symmetry_space_group_name_H-M "I 2 2 2"
_symmetry_group_IT_number 23
_symmetry_cell_setting 'orthorhombic'
loop_
_space_group_symop_operation_xyz
x,y,z
-x,-y,z
x,-y,-z
-x,y,-z
1/2+x,1/2+y,1/2+z
1/2-x,1/2-y,1/2+z
1/2+x,1/2-y,1/2-z
1/2-x,1/2+y,1/2-z
loop_
_atom_site_type_symbol
_atom_site_label
_atom_site_fract_x
_atom_site_fract_y
_atom_site_fract_z
Si Si1 0.335461 0.698519 0.967294
Si Si2 0.461681 0.346470 0.740792
Si Si3 0.000000 0.000000 0.000000
Si Si4 0.810397 0.500000 0.000000
Si Si5 0.201278 0.925947 0.118576
Si Si6 0.803079 0.652251 0.777897
O O1 0.348834 0.629441 0.774660
O O2 0.348233 0.780530 0.843588
O O3 0.383004 0.684437 0.204973
O O4 0.251357 0.690377 0.026594
O O5 0.500000 0.311698 0.500000
O O6 0.462881 0.437551 0.680580
O O7 0.500000 0.331635 0.000000
O O8 0.758454 0.464419 0.798409
O O9 0.844024 0.577425 0.884544
O O10 0.248566 0.879882 0.925405
O O11 0.164988 0.000000 0.000000
#
# Coordination Sequence:
#
# PCOD9329888 Si02
#       6
#     8   8   2   4   8   8
#     4  11  21  35  60  84 121 170 221 274 326 390
#     4  10  24  44  59  84 122 176 235 275 320 369
#     4   8  22  48  54  80 122 168 250 266 312 356
#     4   8  18  34  46  80 121 155 192 248 332 408
#     4   9  18  34  49  80 120 153 205 252 321 391
#     4  10  19  34  54  88 118 161 208 267 340 397
#
# _framework density 21.214424000000001
#
# number of rings (size 3 to 8) (size 9 to 14) (size 15 to 20)
#    0.632    1.684    2.105    0.316    2.947    0.000 
#   34.105    0.000    0.000    0.000    0.000    0.000 
#    0.000    9.263    0.000    0.842    0.000    2.105 
#
# Total GULP energy -105896.983274 kJ/mol
# GULP energy per Si atom -5573.525435 kJ/mol
# Density = 2.116614 g / cm^3
# Si number density = 21.214424 Si / 1000 Ang^3
#
#
#
# Elastic Constant Matrix: (Units=GPa)
#
#
# Indices 1 2 3 4 5 6 
#
# 1 35.5241 22.3502 15.7130 0.0000 0.0000 0.0000
# 2 22.3502 159.5979 48.3819 0.0000 0.0000 0.0000
# 3 15.7130 48.3819 100.5339 0.0000 0.0000 0.0000
# 4 0.0000 0.0000 0.0000 32.7787 0.0000 0.0000
# 5 0.0000 0.0000 0.0000 0.0000 7.1206 0.0000
# 6 0.0000 0.0000 0.0000 0.0000 0.0000 10.9591
#
#
#
# Elastic Compliance Matrix: (Units=1/GPa)
#
#
# Indices 1 2 3 4 5 6 
#
# 1 0.031782 -0.003448 -0.003308 0.000000 0.000000 0.000000
# 2 -0.003448 0.007710 -0.003172 0.000000 0.000000 0.000000
# 3 -0.003308 -0.003172 0.011990 0.000000 0.000000 0.000000
# 4 0.000000 0.000000 0.000000 0.030508 0.000000 0.000000
# 5 0.000000 0.000000 0.000000 0.000000 0.140437 0.000000
# 6 0.000000 0.000000 0.000000 0.000000 0.000000 0.091248
#
#
# Mechanical properties :
#
#
# Convention : Reuss Voigt Hill
#
# Bulk Modulus (GPa) = 31.61812 52.06067 41.83940
# Shear Modulus (GPa) = 14.53178 24.11908 19.32543
#
# Velocity S-wave (km/s) = 2.62008 3.37548 3.02148
# Velocity P-wave (km/s) = 4.90811 6.30756 5.65132
#
# Compressibility (1/GPa) = 0.03162743
#
# Stress axis : x y z
#
# Youngs Moduli (GPa) = 31.46391 129.70074 83.40112
#
# Poissons Ratio (x) = 0.44721 0.27590
# Poissons Ratio (y) = 0.10849 0.26451
# Poissons Ratio (z) = 0.10409 0.41135
#
# Static dielectric constant tensor:
#      x y z
#    x 1.805620 0.000000 0.000000 
#    y 0.000000 1.870840 0.000000 
#    z 0.000000 0.000000 1.889280 
# 
# From -- ./inp_files/3146.got.cif
#   From: 2010.05.17/outbox.cif.g08.bks.cpg/sg23_2_cif.got.tgz:3146.got - 2010.06.04 12:02:01.
