data_PCOD9329421
_publ_section_title
;
Structure prediction by ZEFSAII (Michael W. Deem and Ramdas Pophale) SiO2 
 PCOD9329421
Probable space group: I 2 2 2
;
_chemical_formula_sum "Si O2"
_cell_formula_units_Z 56
_cell_length_a 19.510904
_cell_length_b 19.710175
_cell_length_c 7.204399
_cell_angle_alpha 90.000000
_cell_angle_beta 90.000000
_cell_angle_gamma 90.000000
_cell_volume 2770.547686
_symmetry_space_group_name_H-M "I 2 2 2"
_symmetry_group_IT_number 23
_symmetry_cell_setting 'orthorhombic'
loop_
_space_group_symop_operation_xyz
x,y,z
-x,-y,z
x,-y,-z
-x,y,-z
1/2+x,1/2+y,1/2+z
1/2-x,1/2-y,1/2+z
1/2+x,1/2-y,1/2-z
1/2-x,1/2+y,1/2-z
loop_
_atom_site_type_symbol
_atom_site_label
_atom_site_fract_x
_atom_site_fract_y
_atom_site_fract_z
Si Si1 0.564877 0.463209 0.703831
Si Si2 0.660780 0.260398 0.644059
Si Si3 0.759969 0.852182 0.357886
Si Si4 0.777534 0.633024 0.288285
Si Si5 0.623375 0.249923 0.206604
Si Si6 0.479804 0.305280 0.286059
Si Si7 0.220093 0.000351 0.284897
O O1 0.500000 0.500000 0.795809
O O2 0.569639 0.500000 0.500000
O O3 0.541798 0.384798 0.714434
O O4 0.641058 0.475116 0.780227
O O5 0.704623 0.198874 0.726692
O O6 0.711274 0.324711 0.645080
O O7 0.639519 0.251819 0.429045
O O8 0.590999 0.268056 0.756097
O O9 0.731034 0.864874 0.563909
O O10 0.828601 0.808438 0.377668
O O11 0.774202 0.919896 0.242021
O O12 0.845201 0.675762 0.344921
O O13 0.765955 0.553418 0.327337
O O14 0.545563 0.275414 0.179787
O O15 0.500000 0.293011 0.500000
O O16 0.241460 0.000000 0.500000
#
# Coordination Sequence:
#
# PCOD9329421 Si02
#       7
#     8   8   8   8   8   8   8
#     4  11  20  29  44  67  97 121 149 179 224 277
#     4   9  17  30  48  64  88 117 153 189 228 262
#     4   9  18  30  45  66  89 118 154 187 221 270
#     4   9  17  32  46  64  88 122 152 187 222 268
#     4   9  18  30  48  67  87 116 157 190 222 266
#     4  10  17  29  46  68  90 119 148 189 228 264
#     4  10  20  31  45  64  95 125 150 180 227 271
#
# _framework density 20.212610000000002
#
# number of rings (size 3 to 8) (size 9 to 14) (size 15 to 20)
#    0.000    2.429    2.857    0.857    2.000    0.286 
#    0.000    0.714    0.000    0.857    0.000    6.000 
#    0.000    0.000    0.000   15.571    0.000   16.286 
#
# Total GULP energy -155976.212278 kJ/mol
# GULP energy per Si atom -5570.579010 kJ/mol
# Density = 2.016661 g / cm^3
# Si number density = 20.212610 Si / 1000 Ang^3
#
#
#
# Elastic Constant Matrix: (Units=GPa)
#
#
# Indices 1 2 3 4 5 6 
#
# 1 135.4873 78.7536 -1.5928 0.0000 0.0000 0.0000
# 2 78.7536 147.4830 2.7819 0.0000 0.0000 0.0000
# 3 -1.5928 2.7819 49.1128 0.0000 0.0000 0.0000
# 4 0.0000 0.0000 0.0000 7.8777 0.0000 0.0000
# 5 0.0000 0.0000 0.0000 0.0000 -9.3922 0.0000
# 6 0.0000 0.0000 0.0000 0.0000 0.0000 23.7430
#
#
#
# Elastic Compliance Matrix: (Units=1/GPa)
#
#
# Indices 1 2 3 4 5 6 
#
# 1 0.010725 -0.005740 0.000673 0.000000 0.000000 0.000000
# 2 -0.005740 0.009859 -0.000745 0.000000 0.000000 0.000000
# 3 0.000673 -0.000745 0.020425 0.000000 0.000000 0.000000
# 4 0.000000 0.000000 0.000000 0.126940 0.000000 0.000000
# 5 0.000000 0.000000 0.000000 0.000000 -0.106471 0.000000
# 6 0.000000 0.000000 0.000000 0.000000 0.000000 0.042118
#
#
# Mechanical properties :
#
#
# Convention : Reuss Voigt Hill
#
# Bulk Modulus (GPa) = 34.02870 54.66317 44.34594
# Shear Modulus (GPa) = 39.99540 21.25506 30.62523
#
# Velocity S-wave (km/s) = 4.45312 3.24632 3.89672
# Velocity P-wave (km/s) = 6.58121 6.41516 6.49871
#
# Compressibility (1/GPa) = 0.02938696
#
# Stress axis : x y z
#
# Youngs Moduli (GPa) = 93.24101 101.42655 48.95890
#
# Poissons Ratio (x) = 0.58215 -0.03295
# Poissons Ratio (y) = 0.53517 0.03645
# Poissons Ratio (z) = -0.06274 0.07552
#
# Static dielectric constant tensor:
#      x y z
#    x 1.716540 0.000000 0.000000 
#    y 0.000000 1.915890 0.000000 
#    z 0.000000 0.000000 1.843660 
# 
# From -- ./inp_files/11360.got.cif
#   From: 2010.05.17/outbox.cif.g08.bks.cpg/sg23_6_cif.got.tgz:11360.got - 2010.06.04 12:02:01.
