data_PCOD9329845
_publ_section_title
;
Structure prediction by ZEFSAII (Michael W. Deem and Ramdas Pophale) SiO2 
 PCOD9329845
Probable space group: I 2 2 2
;
_chemical_formula_sum "Si O2"
_cell_formula_units_Z 48
_cell_length_a 18.376879
_cell_length_b 14.282523
_cell_length_c 8.658410
_cell_angle_alpha 90.000000
_cell_angle_beta 90.000000
_cell_angle_gamma 90.000000
_cell_volume 2272.557261
_symmetry_space_group_name_H-M "I 2 2 2"
_symmetry_group_IT_number 23
_symmetry_cell_setting 'orthorhombic'
loop_
_space_group_symop_operation_xyz
x,y,z
-x,-y,z
x,-y,-z
-x,y,-z
1/2+x,1/2+y,1/2+z
1/2-x,1/2-y,1/2+z
1/2+x,1/2-y,1/2-z
1/2-x,1/2+y,1/2-z
loop_
_atom_site_type_symbol
_atom_site_label
_atom_site_fract_x
_atom_site_fract_y
_atom_site_fract_z
Si Si1 0.500000 0.152291 0.500000
Si Si2 0.239546 0.389241 0.853370
Si Si3 0.875730 0.500000 0.000000
Si Si4 0.847719 0.907945 0.908472
Si Si5 0.902663 0.034302 0.666128
Si Si6 0.737385 0.205832 0.305667
Si Si7 0.916821 0.782862 0.182153
O O1 0.570592 0.087727 0.494375
O O2 0.485989 0.220240 0.643245
O O3 0.316863 0.438658 0.837692
O O4 0.230911 0.311080 0.720972
O O5 0.178665 0.469584 0.863240
O O6 0.239381 0.334691 0.019878
O O7 0.785474 0.858517 0.807138
O O8 0.907582 0.954038 0.794669
O O9 0.884114 0.835059 0.028272
O O10 0.819514 0.000000 0.000000
O O11 0.937856 0.132432 0.708483
O O12 0.923009 0.000000 0.500000
O O13 0.652340 0.221453 0.261003
#
# Coordination Sequence:
#
# PCOD9329845 Si02
#       7
#     4   8   4   8   8   8   8
#     4  11  22  38  57  80 118 166 217 244 268 373
#     4  11  20  33  56  92 122 149 190 248 320 368
#     4  11  20  36  58  86 118 164 211 244 284 353
#     4  10  19  33  52  84 119 148 188 252 325 376
#     4  10  19  33  60  90 122 143 188 267 324 376
#     4  11  18  33  53  85 125 149 188 246 320 369
#     4  10  22  36  55  85 119 160 204 246 314 367
#
# _framework density 21.121580999999999
#
# number of rings (size 3 to 8) (size 9 to 14) (size 15 to 20)
#    0.000    1.500    5.833    0.000    0.000    0.000 
#    0.000    3.750    0.000    2.000    0.000    0.000 
#   10.000    0.000    0.000    0.000    0.000    0.000 
#
# Total GULP energy -133912.834873 kJ/mol
# GULP energy per Si atom -5579.701453 kJ/mol
# Density = 2.107351 g / cm^3
# Si number density = 21.121581 Si / 1000 Ang^3
#
#
#
# Elastic Constant Matrix: (Units=GPa)
#
#
# Indices 1 2 3 4 5 6 
#
# 1 74.0719 45.1513 -1.6539 0.0000 0.0000 0.0000
# 2 45.1513 107.0827 29.1519 0.0000 0.0000 0.0000
# 3 -1.6539 29.1519 71.6351 0.0000 0.0000 0.0000
# 4 0.0000 0.0000 0.0000 47.0465 0.0000 0.0000
# 5 0.0000 0.0000 0.0000 0.0000 17.1151 0.0000
# 6 0.0000 0.0000 0.0000 0.0000 0.0000 4.9243
#
#
#
# Elastic Compliance Matrix: (Units=1/GPa)
#
#
# Indices 1 2 3 4 5 6 
#
# 1 0.019238 -0.009258 0.004212 0.000000 0.000000 0.000000
# 2 -0.009258 0.014958 -0.006301 0.000000 0.000000 0.000000
# 3 0.004212 -0.006301 0.016621 0.000000 0.000000 0.000000
# 4 0.000000 0.000000 0.000000 0.021256 0.000000 0.000000
# 5 0.000000 0.000000 0.000000 0.000000 0.058428 0.000000
# 6 0.000000 0.000000 0.000000 0.000000 0.000000 0.203073
#
#
# Mechanical properties :
#
#
# Convention : Reuss Voigt Hill
#
# Bulk Modulus (GPa) = 35.55925 44.23203 39.89564
# Shear Modulus (GPa) = 13.67458 25.82653 19.75056
#
# Velocity S-wave (km/s) = 2.54721 3.50059 3.06124
# Velocity P-wave (km/s) = 5.05204 6.10949 5.60576
#
# Compressibility (1/GPa) = 0.02812207
#
# Stress axis : x y z
#
# Youngs Moduli (GPa) = 51.98073 66.85564 60.16499
#
# Poissons Ratio (x) = 0.61897 -0.25340
# Poissons Ratio (y) = 0.48125 0.37908
# Poissons Ratio (z) = -0.21893 0.42124
#
# Static dielectric constant tensor:
#      x y z
#    x 1.785910 0.000000 0.000000 
#    y 0.000000 1.820840 0.000000 
#    z 0.000000 0.000000 1.790390 
# 
# From -- ./inp_files/11090.got.cif
#   From: 2010.05.17/outbox.cif.g08.bks.cpg/sg23_6_cif.got.tgz:11090.got - 2010.06.04 12:02:01.
