data_PCOD9329986
_publ_section_title
;
Structure prediction by ZEFSAII (Michael W. Deem and Ramdas Pophale) SiO2 
 PCOD9329986
Probable space group: I 2 2 2
;
_chemical_formula_sum "Si O2"
_cell_formula_units_Z 58
_cell_length_a 9.095100
_cell_length_b 25.600551
_cell_length_c 11.996638
_cell_angle_alpha 90.000000
_cell_angle_beta 90.000000
_cell_angle_gamma 90.000000
_cell_volume 2793.292050
_symmetry_space_group_name_H-M "I 2 2 2"
_symmetry_group_IT_number 23
_symmetry_cell_setting 'orthorhombic'
loop_
_space_group_symop_operation_xyz
x,y,z
-x,-y,z
x,-y,-z
-x,y,-z
1/2+x,1/2+y,1/2+z
1/2-x,1/2-y,1/2+z
1/2+x,1/2-y,1/2-z
1/2-x,1/2+y,1/2-z
loop_
_atom_site_type_symbol
_atom_site_label
_atom_site_fract_x
_atom_site_fract_y
_atom_site_fract_z
Si Si1 0.344249 0.544049 0.932644
Si Si2 0.790780 0.202284 0.284042
Si Si3 0.125501 0.611745 0.648310
Si Si4 0.706247 0.106919 0.887327
Si Si5 0.822738 0.844473 0.497069
Si Si6 0.213649 0.011952 0.814059
Si Si7 0.141338 0.187792 0.256830
Si Si8 0.500000 0.500000 0.500000
O O1 0.277571 0.600688 0.948286
O O2 0.356121 0.524287 0.806512
O O3 0.257698 0.500000 0.000000
O O4 0.500000 0.549241 0.000000
O O5 0.716721 0.154143 0.217996
O O6 0.762435 0.197749 0.417127
O O7 0.723003 0.257001 0.248423
O O8 0.966555 0.197491 0.266583
O O9 0.177965 0.611861 0.519483
O O10 0.150711 0.551529 0.683529
O O11 0.953224 0.622475 0.660705
O O12 0.823813 0.148557 0.843775
O O13 0.749063 0.048145 0.845133
O O14 0.792842 0.840053 0.367350
O O15 0.000000 0.839924 0.500000
O O16 0.103259 0.030124 0.912917
#
# Coordination Sequence:
#
# PCOD9329986 Si02
#       8
#     8   8   8   8   8   8   8   2
#     4  10  19  35  61  93 130 175 210 258 329 395
#     4  11  24  44  69  99 132 175 225 278 336 394
#     4  11  24  45  67  94 136 183 219 274 338 399
#     4  11  25  44  67  96 136 181 223 268 340 402
#     4   9  20  40  64  93 130 170 213 267 330 395
#     4  12  23  39  66  99 138 172 221 278 332 404
#     4  11  25  43  70 100 132 175 226 279 334 400
#     4  12  24  32  60 108 136 160 230 286 332 394
#
# _framework density 20.764029000000001
#
# number of rings (size 3 to 8) (size 9 to 14) (size 15 to 20)
#    0.000    1.241    2.759    2.897    3.862    2.759 
#    0.000    2.069    0.000    0.828    0.000    0.000 
#    0.000    0.000    0.000    0.000    0.000    0.000 
#
# Total GULP energy -161678.085813 kJ/mol
# GULP energy per Si atom -5575.106407 kJ/mol
# Density = 2.071677 g / cm^3
# Si number density = 20.764029 Si / 1000 Ang^3
#
#
#
# Elastic Constant Matrix: (Units=GPa)
#
#
# Indices 1 2 3 4 5 6 
#
# 1 70.1533 24.0091 18.6338 0.0000 0.0000 0.0000
# 2 24.0091 102.9575 22.9261 0.0000 0.0000 0.0000
# 3 18.6338 22.9261 115.6810 -0.0004 -0.0002 0.0001
# 4 0.0000 0.0000 -0.0004 24.2142 0.0000 0.0000
# 5 0.0000 0.0000 -0.0002 0.0000 19.9120 0.0000
# 6 0.0000 0.0000 0.0001 0.0000 0.0000 17.5927
#
#
#
# Elastic Compliance Matrix: (Units=1/GPa)
#
#
# Indices 1 2 3 4 5 6 
#
# 1 0.015884 -0.003279 -0.001909 0.000000 0.000000 0.000000
# 2 -0.003279 0.010838 -0.001620 0.000000 0.000000 0.000000
# 3 -0.001909 -0.001620 0.009273 0.000000 0.000000 0.000000
# 4 0.000000 0.000000 0.000000 0.041298 0.000000 0.000000
# 5 0.000000 0.000000 0.000000 0.000000 0.050221 0.000000
# 6 0.000000 0.000000 0.000000 0.000000 0.000000 0.056842
#
#
# Mechanical properties :
#
#
# Convention : Reuss Voigt Hill
#
# Bulk Modulus (GPa) = 44.68309 46.65886 45.67097
# Shear Modulus (GPa) = 24.33918 27.22531 25.78225
#
# Velocity S-wave (km/s) = 3.42743 3.62495 3.52757
# Velocity P-wave (km/s) = 6.10157 6.32772 6.21568
#
# Compressibility (1/GPa) = 0.02237983
#
# Stress axis : x y z
#
# Youngs Moduli (GPa) = 62.95777 92.26747 107.84084
#
# Poissons Ratio (x) = 0.30254 0.20584
# Poissons Ratio (y) = 0.20644 0.17468
# Poissons Ratio (z) = 0.12017 0.14945
#
# Static dielectric constant tensor:
#      x y z
#    x 1.763460 0.000000 0.000000 
#    y 0.000000 1.793260 0.000000 
#    z 0.000000 0.000000 1.783280 
# 
# From -- ./inp_files/14916.got.cif
#   From: 2010.05.17/outbox.cif.g08.bks.cpg/sg23_8_cif.got.tgz:14916.got - 2010.06.04 12:02:01.
