data_PCOD9329982
_publ_section_title
;
Structure prediction by ZEFSAII (Michael W. Deem and Ramdas Pophale) SiO2 
 PCOD9329982
Probable space group: I 2 2 2
;
_chemical_formula_sum "Si O2"
_cell_formula_units_Z 36
_cell_length_a 5.028125
_cell_length_b 17.903415
_cell_length_c 19.825120
_cell_angle_alpha 90.000000
_cell_angle_beta 90.000000
_cell_angle_gamma 90.000000
_cell_volume 1784.669367
_symmetry_space_group_name_H-M "I 2 2 2"
_symmetry_group_IT_number 23
_symmetry_cell_setting 'orthorhombic'
loop_
_space_group_symop_operation_xyz
x,y,z
-x,-y,z
x,-y,-z
-x,y,-z
1/2+x,1/2+y,1/2+z
1/2-x,1/2-y,1/2+z
1/2+x,1/2-y,1/2-z
1/2-x,1/2+y,1/2-z
loop_
_atom_site_type_symbol
_atom_site_label
_atom_site_fract_x
_atom_site_fract_y
_atom_site_fract_z
Si Si1 0.258568 0.908854 0.451146
Si Si2 0.445734 0.806774 0.175877
Si Si3 0.067129 0.147723 0.252721
Si Si4 0.749017 0.758726 0.047933
Si Si5 0.500000 0.500000 0.160060
O O1 0.500000 0.923173 0.500000
O O2 0.312946 0.824268 0.423730
O O3 0.000000 0.910114 0.500000
O O4 0.218984 0.967626 0.391763
O O5 0.148409 0.836841 0.192207
O O6 0.452626 0.719986 0.198589
O O7 0.610253 0.809103 0.105653
O O8 0.634903 0.851371 0.225691
O O9 0.039884 0.071383 0.292773
O O10 0.500000 0.746385 0.000000
O O11 0.000000 0.782682 0.000000
#
# Coordination Sequence:
#
# PCOD9329982 Si02
#       5
#     8   8   8   8   4
#     4  10  23  37  54  82 123 163 199 240 288 361
#     4  10  20  41  54  89 114 161 199 266 290 368
#     4  10  23  35  62  79 124 160 208 243 314 343
#     4  10  19  35  61  87 114 155 200 249 305 367
#     4  12  23  42  58  92 119 180 206 252 298 388
#
# _framework density 20.171804999999999
#
# number of rings (size 3 to 8) (size 9 to 14) (size 15 to 20)
#    0.000    1.778    2.222    1.667    0.000    6.222 
#    0.000    0.000    0.000    0.000    0.000   11.667 
#    0.000    0.000    0.000    0.000    0.000    0.000 
#
# Total GULP energy -100240.400241 kJ/mol
# GULP energy per Si atom -5568.911124 kJ/mol
# Density = 2.012589 g / cm^3
# Si number density = 20.171805 Si / 1000 Ang^3
#
#
#
# Elastic Constant Matrix: (Units=GPa)
#
#
# Indices 1 2 3 4 5 6 
#
# 1 82.8191 2.4522 -9.9035 0.0000 0.0000 0.0000
# 2 2.4522 79.3815 27.1988 0.0000 0.0000 0.0000
# 3 -9.9035 27.1988 42.5446 0.0000 0.0000 0.0000
# 4 0.0000 0.0000 0.0000 38.9869 0.0000 0.0000
# 5 0.0000 0.0000 0.0000 0.0000 18.3674 0.0000
# 6 0.0000 0.0000 0.0000 0.0000 0.0000 13.4717
#
#
#
# Elastic Compliance Matrix: (Units=1/GPa)
#
#
# Indices 1 2 3 4 5 6 
#
# 1 0.012615 -0.001787 0.004079 0.000000 0.000000 0.000000
# 2 -0.001787 0.016384 -0.010890 0.000000 0.000000 0.000000
# 3 0.004079 -0.010890 0.031417 0.000000 0.000000 0.000000
# 4 0.000000 0.000000 0.000000 0.025650 0.000000 0.000000
# 5 0.000000 0.000000 0.000000 0.000000 0.054444 0.000000
# 6 0.000000 0.000000 0.000000 0.000000 0.000000 0.074230
#
#
# Mechanical properties :
#
#
# Convention : Reuss Voigt Hill
#
# Bulk Modulus (GPa) = 23.13809 27.13779 25.13794
# Shear Modulus (GPa) = 20.29691 26.49838 23.39765
#
# Velocity S-wave (km/s) = 3.17551 3.62834 3.40945
# Velocity P-wave (km/s) = 4.99405 5.57097 5.29038
#
# Compressibility (1/GPa) = 0.04321877
#
# Stress axis : x y z
#
# Youngs Moduli (GPa) = 79.26927 61.03512 31.83035
#
# Poissons Ratio (x) = 0.10909 -0.12984
# Poissons Ratio (y) = 0.14169 0.34664
# Poissons Ratio (z) = -0.32336 0.66470
#
# Static dielectric constant tensor:
#      x y z
#    x 1.296830 0.000000 0.000000 
#    y 0.000000 1.737450 0.000000 
#    z 0.000000 0.000000 1.197320 
# 
# From -- ./inp_files/23094.got.cif
#   From: 2010.05.17/outbox.cif.g08.bks.cpg/sg23_12_cif.got.tgz:23094.got - 2010.06.04 12:02:01.
