data_PCOD9329015
_publ_section_title
;
Structure prediction by ZEFSAII (Michael W. Deem and Ramdas Pophale) SiO2 
 PCOD9329015
Probable space group: F 2 2 2
;
_chemical_formula_sum "Si O2"
_cell_formula_units_Z 112
_cell_length_a 14.382025
_cell_length_b 24.876847
_cell_length_c 14.150064
_cell_angle_alpha 90.000000
_cell_angle_beta 90.000000
_cell_angle_gamma 90.000000
_cell_volume 5062.601910
_symmetry_space_group_name_H-M "F 2 2 2"
_symmetry_group_IT_number 22
_symmetry_cell_setting 'orthorhombic'
loop_
_space_group_symop_operation_xyz
x,y,z
-x,-y,z
x,-y,-z
-x,y,-z
x,1/2+y,1/2+z
-x,1/2-y,1/2+z
x,1/2-y,1/2-z
-x,1/2+y,1/2-z
1/2+x,y,1/2+z
1/2-x,-y,1/2+z
1/2+x,-y,1/2-z
1/2-x,y,1/2-z
1/2+x,1/2+y,z
1/2-x,1/2-y,z
1/2+x,1/2-y,-z
1/2-x,1/2+y,-z
loop_
_atom_site_type_symbol
_atom_site_label
_atom_site_fract_x
_atom_site_fract_y
_atom_site_fract_z
Si Si1 0.476811 0.062092 0.890339
Si Si2 0.355793 0.731280 0.517658
Si Si3 0.978413 0.394996 0.699901
Si Si4 0.015254 0.272651 0.647610
Si Si5 0.211046 0.448648 0.356408
Si Si6 0.683393 0.929458 0.659844
Si Si7 0.805856 0.388993 0.024787
O O1 0.528141 0.099376 0.814279
O O2 0.368883 0.077086 0.901633
O O3 0.500000 0.000000 0.866785
O O4 0.500000 0.070690 0.000000
O O5 0.250000 0.750000 0.533107
O O6 0.422762 0.744152 0.605816
O O7 0.404393 0.760597 0.428541
O O8 0.351686 0.667908 0.495640
O O9 0.992519 0.335027 0.663085
O O10 0.889801 0.420886 0.649254
O O11 0.075012 0.426114 0.683563
O O12 0.041251 0.250000 0.750000
O O13 0.250000 0.445863 0.250000
O O14 0.200296 0.511099 0.380834
O O15 0.280348 0.420355 0.429561
O O16 0.750000 0.921587 0.750000
O O17 0.709503 0.884933 0.582204
#
# Coordination Sequence:
#
# PCOD9329015 Si02
#       7
#    16  16  16  16  16  16  16
#     4  11  25  39  72 105 144 187 242 293 359 430
#     4  11  26  51  72  99 145 187 244 308 361 427
#     4  12  24  47  72 100 148 200 234 303 373 424
#     4  11  27  46  73 109 138 184 253 310 363 433
#     4  11  26  42  69 108 150 188 236 291 363 446
#     4  11  24  43  70 107 150 186 239 291 359 448
#     4  12  25  44  73 103 141 192 239 298 359 433
#
# _framework density 22.123011999999999
#
# number of rings (size 3 to 8) (size 9 to 14) (size 15 to 20)
#    0.000    0.714    1.429    5.143   12.000    2.286 
#    0.000    1.429    0.000    0.000    0.000    0.000 
#    0.000    0.000    0.000    0.000    0.000    0.000 
#
# Total GULP energy -156583.488877 kJ/mol
# GULP energy per Si atom -5592.267460 kJ/mol
# Density = 2.207266 g / cm^3
# Si number density = 22.123012 Si / 1000 Ang^3
#
#
#
# Elastic Constant Matrix: (Units=GPa)
#
#
# Indices 1 2 3 4 5 6 
#
# 1 90.4206 27.8738 3.4581 0.0000 0.0000 0.0000
# 2 27.8738 147.0400 27.4129 0.0000 0.0000 0.0000
# 3 3.4581 27.4129 86.6937 0.0000 0.0000 0.0000
# 4 0.0000 0.0000 0.0000 32.7493 0.0000 0.0000
# 5 0.0000 0.0000 0.0000 0.0000 40.2614 0.0000
# 6 0.0000 0.0000 0.0000 0.0000 0.0000 33.8085
#
#
#
# Elastic Compliance Matrix: (Units=1/GPa)
#
#
# Indices 1 2 3 4 5 6 
#
# 1 0.011751 -0.002274 0.000250 0.000000 0.000000 0.000000
# 2 -0.002274 0.007667 -0.002334 0.000000 0.000000 0.000000
# 3 0.000250 -0.002334 0.012263 0.000000 0.000000 0.000000
# 4 0.000000 0.000000 0.000000 0.030535 0.000000 0.000000
# 5 0.000000 0.000000 0.000000 0.000000 0.024838 0.000000
# 6 0.000000 0.000000 0.000000 0.000000 0.000000 0.029578
#
#
# Mechanical properties :
#
#
# Convention : Reuss Voigt Hill
#
# Bulk Modulus (GPa) = 43.54306 49.07156 46.30731
# Shear Modulus (GPa) = 37.59340 39.05781 38.32561
#
# Velocity S-wave (km/s) = 4.12672 4.20632 4.16671
# Velocity P-wave (km/s) = 6.51394 6.76907 6.64273
#
# Compressibility (1/GPa) = 0.02296577
#
# Stress axis : x y z
#
# Youngs Moduli (GPa) = 85.09963 130.42817 81.54758
#
# Poissons Ratio (x) = 0.29663 -0.02042
# Poissons Ratio (y) = 0.19354 0.19030
# Poissons Ratio (z) = -0.02131 0.30437
#
# Static dielectric constant tensor:
#      x y z
#    x 1.975060 0.000000 0.000000 
#    y 0.000000 1.787080 0.000000 
#    z 0.000000 0.000000 1.857010 
# 
# From -- ./inp_files/29601.got.cif
#   From: 2010.05.17/outbox.cif.g08.bks.cpg/sg22_15_cif.got.tgz:29601.got - 2010.06.03 23:40:54.
