data_PCOD9329966
_publ_section_title
;
Structure prediction by ZEFSAII (Michael W. Deem and Ramdas Pophale) SiO2 
 PCOD9329966
Probable space group: I 2 2 2
;
_chemical_formula_sum "Si O2"
_cell_formula_units_Z 56
_cell_length_a 19.637020
_cell_length_b 17.008197
_cell_length_c 8.023519
_cell_angle_alpha 90.000000
_cell_angle_beta 90.000000
_cell_angle_gamma 90.000000
_cell_volume 2679.777555
_symmetry_space_group_name_H-M "I 2 2 2"
_symmetry_group_IT_number 23
_symmetry_cell_setting 'orthorhombic'
loop_
_space_group_symop_operation_xyz
x,y,z
-x,-y,z
x,-y,-z
-x,y,-z
1/2+x,1/2+y,1/2+z
1/2-x,1/2-y,1/2+z
1/2+x,1/2-y,1/2-z
1/2-x,1/2+y,1/2-z
loop_
_atom_site_type_symbol
_atom_site_label
_atom_site_fract_x
_atom_site_fract_y
_atom_site_fract_z
Si Si1 0.224535 0.500000 0.000000
Si Si2 0.144098 0.568457 0.693954
Si Si3 0.398105 0.757140 0.238299
Si Si4 0.500000 0.000000 0.214269
Si Si5 0.215846 0.155615 0.377033
Si Si6 0.155705 0.232331 0.907173
Si Si7 0.969026 0.674558 0.814525
Si Si8 0.277081 0.412111 0.502773
O O1 0.176637 0.485085 0.160702
O O2 0.271027 0.576684 0.020660
O O3 0.135220 0.656837 0.760262
O O4 0.069000 0.539740 0.643714
O O5 0.198691 0.578223 0.549422
O O6 0.355040 0.703231 0.112832
O O7 0.386175 0.720518 0.420836
O O8 0.476005 0.778905 0.202173
O O9 0.468575 0.080003 0.294488
O O10 0.276379 0.215411 0.422375
O O11 0.222193 0.127182 0.184537
O O12 0.103512 0.283237 0.797272
O O13 0.184558 0.145384 0.872880
O O14 0.000000 0.683955 0.000000
O O15 0.306863 0.500000 0.500000
#
# Coordination Sequence:
#
# PCOD9329966 Si02
#       8
#     4   8   8   4   8   8   8   8
#     4  12  22  33  60  86 115 148 206 236 290 346
#     4  11  21  36  54  85 118 158 190 241 293 355
#     4   9  19  34  55  84 118 146 190 240 294 345
#     4  10  21  30  57  86 124 156 194 238 298 360
#     4  11  21  35  59  87 116 154 198 243 295 353
#     4  10  19  35  59  84 114 159 194 238 293 360
#     4   9  18  31  53  86 119 149 189 243 295 350
#     4  11  23  38  56  85 124 149 198 254 293 344
#
# _framework density 20.897255999999999
#
# number of rings (size 3 to 8) (size 9 to 14) (size 15 to 20)
#    0.000    1.714    4.286    1.071    4.000    0.000 
#    0.000    0.357    0.000   10.714    0.000    1.000 
#    0.000    0.000    0.000    0.000    0.000    0.000 
#
# Total GULP energy -155968.056657 kJ/mol
# GULP energy per Si atom -5570.287738 kJ/mol
# Density = 2.084969 g / cm^3
# Si number density = 20.897256 Si / 1000 Ang^3
#
#
#
# Elastic Constant Matrix: (Units=GPa)
#
#
# Indices 1 2 3 4 5 6 
#
# 1 102.2037 70.1271 0.6237 0.0000 0.0000 0.0000
# 2 70.1271 148.2389 2.3854 0.0000 0.0000 0.0000
# 3 0.6237 2.3854 31.5087 0.0000 0.0000 0.0000
# 4 0.0000 0.0000 0.0000 25.2704 0.0000 0.0000
# 5 0.0000 0.0000 0.0000 0.0000 5.2170 0.0000
# 6 0.0000 0.0000 0.0000 0.0000 0.0000 18.5711
#
#
#
# Elastic Compliance Matrix: (Units=1/GPa)
#
#
# Indices 1 2 3 4 5 6 
#
# 1 0.014488 -0.006858 0.000232 0.000000 0.000000 0.000000
# 2 -0.006858 0.010000 -0.000621 0.000000 0.000000 0.000000
# 3 0.000232 -0.000621 0.031780 0.000000 0.000000 0.000000
# 4 0.000000 0.000000 0.000000 0.039572 0.000000 0.000000
# 5 0.000000 0.000000 0.000000 0.000000 0.191679 0.000000
# 6 0.000000 0.000000 0.000000 0.000000 0.000000 0.053847
#
#
# Mechanical properties :
#
#
# Convention : Reuss Voigt Hill
#
# Bulk Modulus (GPa) = 23.93790 47.58042 35.75916
# Shear Modulus (GPa) = 13.52138 23.73270 18.62704
#
# Velocity S-wave (km/s) = 2.54646 3.37365 2.98881
# Velocity P-wave (km/s) = 4.48618 6.16389 5.39070
#
# Compressibility (1/GPa) = 0.04177476
#
# Stress axis : x y z
#
# Youngs Moduli (GPa) = 69.02066 99.99946 31.46667
#
# Poissons Ratio (x) = 0.68577 -0.00731
# Poissons Ratio (y) = 0.47333 0.01955
# Poissons Ratio (z) = -0.01604 0.06213
#
# Static dielectric constant tensor:
#      x y z
#    x 1.775180 0.000000 0.000000 
#    y 0.000000 1.793180 0.000000 
#    z 0.000000 0.000000 1.942770 
# 
# From -- ./inp_files/12080.got.cif
#   From: 2010.05.17/outbox.cif.g08.bks.cpg/sg23_7_cif.got.tgz:12080.got - 2010.06.04 12:02:01.
