data_PCOD9329071
_publ_section_title
;
Structure prediction by ZEFSAII (Michael W. Deem and Ramdas Pophale) SiO2 
 PCOD9329071
Probable space group: F 2 2 2
;
_chemical_formula_sum "Si O2"
_cell_formula_units_Z 96
_cell_length_a 11.371003
_cell_length_b 22.155892
_cell_length_c 16.312582
_cell_angle_alpha 90.000000
_cell_angle_beta 90.000000
_cell_angle_gamma 90.000000
_cell_volume 4109.705687
_symmetry_space_group_name_H-M "F 2 2 2"
_symmetry_group_IT_number 22
_symmetry_cell_setting 'orthorhombic'
loop_
_space_group_symop_operation_xyz
x,y,z
-x,-y,z
x,-y,-z
-x,y,-z
x,1/2+y,1/2+z
-x,1/2-y,1/2+z
x,1/2-y,1/2-z
-x,1/2+y,1/2-z
1/2+x,y,1/2+z
1/2-x,-y,1/2+z
1/2+x,-y,1/2-z
1/2-x,y,1/2-z
1/2+x,1/2+y,z
1/2-x,1/2-y,z
1/2+x,1/2-y,-z
1/2-x,1/2+y,-z
loop_
_atom_site_type_symbol
_atom_site_label
_atom_site_fract_x
_atom_site_fract_y
_atom_site_fract_z
Si Si1 0.202070 0.848004 0.614308
Si Si2 0.196363 0.420106 0.662005
Si Si3 0.015111 0.233542 0.338589
Si Si4 0.370488 0.482498 0.403540
Si Si5 0.189346 0.812083 0.430548
Si Si6 0.026439 0.133042 0.096157
O O1 0.139855 0.800140 0.674192
O O2 0.137648 0.911575 0.609560
O O3 0.186499 0.814008 0.527739
O O4 0.337197 0.868270 0.621726
O O5 0.250000 0.403328 0.750000
O O6 0.261054 0.482288 0.637822
O O7 0.240469 0.370174 0.597753
O O8 0.056218 0.410415 0.651568
O O9 0.965558 0.250000 0.250000
O O10 0.005798 0.295384 0.389635
O O11 0.936275 0.186474 0.388052
O O12 0.500000 0.500000 0.371794
O O13 0.365610 0.500000 0.500000
O O14 0.250000 0.750000 0.403344
O O15 0.000000 0.119127 0.000000
#
# Coordination Sequence:
#
# PCOD9329071 Si02
#       6
#    16  16  16  16  16  16
#     4  12  25  44  75 103 145 204 251 310 386 464
#     4  12  26  47  73 110 151 192 258 324 386 459
#     4  12  26  42  67 112 157 191 243 318 396 465
#     4  11  24  48  73 102 141 198 261 308 366 468
#     4  12  22  42  74 108 144 191 249 310 380 462
#     4  12  23  46  72 107 149 194 253 312 384 477
#
# _framework density 23.359338000000001
#
# number of rings (size 3 to 8) (size 9 to 14) (size 15 to 20)
#    0.000    0.167    5.000    5.000    2.333    2.000 
#    6.000    1.667    0.000    0.000    0.000    0.000 
#    0.000    0.000    0.000    0.000    0.000    0.000 
#
# Total GULP energy -134176.606134 kJ/mol
# GULP energy per Si atom -5590.691922 kJ/mol
# Density = 2.330617 g / cm^3
# Si number density = 23.359338 Si / 1000 Ang^3
#
#
#
# Elastic Constant Matrix: (Units=GPa)
#
#
# Indices 1 2 3 4 5 6 
#
# 1 163.2034 34.7617 18.6454 0.0000 0.0000 0.0000
# 2 34.7617 99.8575 4.1300 0.0000 0.0000 0.0000
# 3 18.6454 4.1300 46.3175 0.0000 0.0000 0.0000
# 4 0.0000 0.0000 0.0000 4.4968 0.0000 0.0000
# 5 0.0000 0.0000 0.0000 0.0000 25.2797 0.0000
# 6 0.0000 0.0000 0.0000 0.0000 0.0000 40.4244
#
#
#
# Elastic Compliance Matrix: (Units=1/GPa)
#
#
# Indices 1 2 3 4 5 6 
#
# 1 0.006912 -0.002299 -0.002577 0.000000 0.000000 0.000000
# 2 -0.002299 0.010816 -0.000039 0.000000 0.000000 0.000000
# 3 -0.002577 -0.000039 0.022631 0.000000 0.000000 0.000000
# 4 0.000000 0.000000 0.000000 0.222381 0.000000 0.000000
# 5 0.000000 0.000000 0.000000 0.000000 0.039557 0.000000
# 6 0.000000 0.000000 0.000000 0.000000 0.000000 0.024738
#
#
# Mechanical properties :
#
#
# Convention : Reuss Voigt Hill
#
# Bulk Modulus (GPa) = 32.75684 47.16140 39.95912
# Shear Modulus (GPa) = 14.40747 30.82958 22.61853
#
# Velocity S-wave (km/s) = 2.48619 3.63684 3.11511
# Velocity P-wave (km/s) = 4.72176 6.15377 5.48470
#
# Compressibility (1/GPa) = 0.03052797
#
# Stress axis : x y z
#
# Youngs Moduli (GPa) = 144.68577 92.45279 44.18704
#
# Poissons Ratio (x) = 0.21259 0.11388
# Poissons Ratio (y) = 0.33269 0.00172
# Poissons Ratio (z) = 0.37289 0.00359
#
# Static dielectric constant tensor:
#      x y z
#    x 2.103280 0.000000 0.000000 
#    y 0.000000 1.784580 0.000000 
#    z 0.000000 0.000000 1.956530 
# 
# From -- ./inp_files/36212.got.cif
#   From: 2010.05.17/outbox.cif.g08.bks.cpg/sg22_19_cif.got.tgz:36212.got - 2010.06.03 23:40:54.
