data_PCOD9329085
_publ_section_title
;
Structure prediction by ZEFSAII (Michael W. Deem and Ramdas Pophale) SiO2 
 PCOD9329085
Probable space group: F 2 2 2
;
_chemical_formula_sum "Si O2"
_cell_formula_units_Z 72
_cell_length_a 15.129026
_cell_length_b 27.345354
_cell_length_c 7.872999
_cell_angle_alpha 90.000000
_cell_angle_beta 90.000000
_cell_angle_gamma 90.000000
_cell_volume 3257.127171
_symmetry_space_group_name_H-M "F 2 2 2"
_symmetry_group_IT_number 22
_symmetry_cell_setting 'orthorhombic'
loop_
_space_group_symop_operation_xyz
x,y,z
-x,-y,z
x,-y,-z
-x,y,-z
x,1/2+y,1/2+z
-x,1/2-y,1/2+z
x,1/2-y,1/2-z
-x,1/2+y,1/2-z
1/2+x,y,1/2+z
1/2-x,-y,1/2+z
1/2+x,-y,1/2-z
1/2-x,y,1/2-z
1/2+x,1/2+y,z
1/2-x,1/2-y,z
1/2+x,1/2-y,-z
1/2-x,1/2+y,-z
loop_
_atom_site_type_symbol
_atom_site_label
_atom_site_fract_x
_atom_site_fract_y
_atom_site_fract_z
Si Si1 0.500000 0.356174 0.000000
Si Si2 0.896845 0.390877 0.982113
Si Si3 0.855918 0.691659 0.249302
Si Si4 0.117323 0.067552 0.822496
Si Si5 0.156880 0.964711 0.804701
O O1 0.420334 0.327507 0.096874
O O2 0.541595 0.393374 0.135283
O O3 0.888109 0.334855 0.923502
O O4 0.861513 0.422018 0.825242
O O5 0.845386 0.408200 0.151050
O O6 0.000000 0.403194 0.000000
O O7 0.864280 0.750000 0.250000
O O8 0.750000 0.680186 0.250000
O O9 0.093051 0.011184 0.784589
O O10 0.160878 0.058111 0.007520
O O11 0.250000 0.987412 0.750000
#
# Coordination Sequence:
#
# PCOD9329085 Si02
#       5
#     8  16  16  16  16
#     4  12  24  47  76 106 150 196 247 322 378 452
#     4  12  24  44  72 106 140 196 247 303 377 452
#     4  11  27  51  77 109 149 192 249 326 391 457
#     4  11  25  40  70 103 142 198 249 290 369 452
#     4  11  26  43  64 105 157 199 246 312 361 440
#
# _framework density 22.105367999999999
#
# number of rings (size 3 to 8) (size 9 to 14) (size 15 to 20)
#    0.000    0.667    4.444    1.333    7.778    7.111 
#    0.000    0.000    0.000    2.667    0.000    0.000 
#    0.000    0.000    0.000    0.000    0.000    0.000 
#
# Total GULP energy -100354.888378 kJ/mol
# GULP energy per Si atom -5575.271577 kJ/mol
# Density = 2.205506 g / cm^3
# Si number density = 22.105368 Si / 1000 Ang^3
#
#
#
# Elastic Constant Matrix: (Units=GPa)
#
#
# Indices 1 2 3 4 5 6 
#
# 1 120.7281 47.9036 37.0693 0.0000 0.0000 0.0000
# 2 47.9036 141.3861 66.8464 0.0000 0.0000 0.0000
# 3 37.0693 66.8464 179.4284 0.0000 0.0000 0.0000
# 4 0.0000 0.0000 0.0000 27.0542 0.0000 0.0000
# 5 0.0000 0.0000 0.0000 0.0000 33.9761 0.0000
# 6 0.0000 0.0000 0.0000 0.0000 0.0000 53.1619
#
#
#
# Elastic Compliance Matrix: (Units=1/GPa)
#
#
# Indices 1 2 3 4 5 6 
#
# 1 0.009700 -0.002839 -0.000946 0.000000 0.000000 0.000000
# 2 -0.002839 0.009416 -0.002921 0.000000 0.000000 0.000000
# 3 -0.000946 -0.002921 0.006857 0.000000 0.000000 0.000000
# 4 0.000000 0.000000 0.000000 0.036963 0.000000 0.000000
# 5 0.000000 0.000000 0.000000 0.000000 0.029432 0.000000
# 6 0.000000 0.000000 0.000000 0.000000 0.000000 0.018810
#
#
# Mechanical properties :
#
#
# Convention : Reuss Voigt Hill
#
# Bulk Modulus (GPa) = 79.62021 82.79790 81.20905
# Shear Modulus (GPa) = 38.82612 42.15332 40.48972
#
# Velocity S-wave (km/s) = 4.19550 4.37157 4.28444
# Velocity P-wave (km/s) = 7.71792 7.93840 7.82894
#
# Compressibility (1/GPa) = 0.01255963
#
# Stress axis : x y z
#
# Youngs Moduli (GPa) = 103.09087 106.20239 145.83374
#
# Poissons Ratio (x) = 0.30152 0.13800
# Poissons Ratio (y) = 0.29269 0.42604
# Poissons Ratio (z) = 0.09755 0.31026
#
# Static dielectric constant tensor:
#      x y z
#    x 1.966560 0.000000 0.000000 
#    y 0.000000 1.775070 0.000000 
#    z 0.000000 0.000000 1.831830 
# 
# From -- ./inp_files/10125.got.cif
#   From: 2010.05.17/outbox.cif.g08.bks.cpg/sg22_6_cif.got.tgz:10125.got - 2010.06.03 23:40:54.
