data_PCOD9329548
_publ_section_title
;
Structure prediction by ZEFSAII (Michael W. Deem and Ramdas Pophale) SiO2 
 PCOD9329548
Probable space group: I 2 2 2
;
_chemical_formula_sum "Si O2"
_cell_formula_units_Z 60
_cell_length_a 10.918221
_cell_length_b 14.106075
_cell_length_c 21.769465
_cell_angle_alpha 90.000000
_cell_angle_beta 90.000000
_cell_angle_gamma 90.000000
_cell_volume 3352.785931
_symmetry_space_group_name_H-M "I 2 2 2"
_symmetry_group_IT_number 23
_symmetry_cell_setting 'orthorhombic'
loop_
_space_group_symop_operation_xyz
x,y,z
-x,-y,z
x,-y,-z
-x,y,-z
1/2+x,1/2+y,1/2+z
1/2-x,1/2-y,1/2+z
1/2+x,1/2-y,1/2-z
1/2-x,1/2+y,1/2-z
loop_
_atom_site_type_symbol
_atom_site_label
_atom_site_fract_x
_atom_site_fract_y
_atom_site_fract_z
Si Si1 0.610137 0.631680 0.786305
Si Si2 0.857822 0.483031 0.646165
Si Si3 0.203774 0.163553 0.149521
Si Si4 0.490587 0.215757 0.571817
Si Si5 0.000000 0.500000 0.111721
Si Si6 0.845642 0.813180 0.710319
Si Si7 0.779367 0.785830 0.849040
Si Si8 0.693912 0.980661 0.710668
O O1 0.628222 0.654254 0.713645
O O2 0.471559 0.638473 0.806476
O O3 0.684259 0.705076 0.828521
O O4 0.676487 0.532061 0.791633
O O5 0.758500 0.563327 0.626293
O O6 0.797228 0.380073 0.632244
O O7 0.858092 0.490089 0.721011
O O8 0.000000 0.500000 0.625942
O O9 0.120444 0.223933 0.102841
O O10 0.326165 0.217395 0.173237
O O11 0.500000 0.237281 0.500000
O O12 0.617089 0.249609 0.604408
O O13 0.474915 0.100506 0.578491
O O14 0.109804 0.522742 0.158590
O O15 0.846455 0.804614 0.783799
O O16 0.722462 0.871932 0.697042
#
# Coordination Sequence:
#
# PCOD9329548 Si02
#       8
#     8   8   8   8   4   8   8   8
#     4  10  18  31  54  84 124 153 185 244 309 357
#     4  10  20  34  57  90 124 156 184 247 310 361
#     4  10  21  34  55  86 117 156 199 243 292 358
#     4  12  25  43  62  83 119 164 207 245 285 348
#     4  12  21  40  60  90 120 152 197 244 286 360
#     4  10  18  31  54  84 124 153 185 244 309 357
#     4  10  21  34  55  86 117 156 199 243 292 358
#     4  10  19  29  55  89 126 151 185 234 312 372
#
# _framework density 17.895565999999999
#
# number of rings (size 3 to 8) (size 9 to 14) (size 15 to 20)
#    0.000    1.600    4.667    1.400    0.000    0.533 
#    0.000    1.333    0.000    4.000    0.000    1.867 
#    0.000    0.000    0.000    0.000    0.000    0.000 
#
# Total GULP energy -167021.939749 kJ/mol
# GULP energy per Si atom -5567.397992 kJ/mol
# Density = 1.785484 g / cm^3
# Si number density = 17.895566 Si / 1000 Ang^3
#
#
#
# Elastic Constant Matrix: (Units=GPa)
#
#
# Indices 1 2 3 4 5 6 
#
# 1 94.1876 29.3012 23.2211 0.0000 0.0000 0.0000
# 2 29.3012 96.7802 19.2400 0.0000 0.0000 0.0000
# 3 23.2211 19.2400 66.0496 0.0000 0.0000 0.0000
# 4 0.0000 0.0000 0.0000 12.0765 0.0000 0.0000
# 5 0.0000 0.0000 0.0000 0.0000 30.8257 0.0000
# 6 0.0000 0.0000 0.0000 0.0000 0.0000 15.6072
#
#
#
# Elastic Compliance Matrix: (Units=1/GPa)
#
#
# Indices 1 2 3 4 5 6 
#
# 1 0.012430 -0.003072 -0.003475 0.000000 0.000000 0.000000
# 2 -0.003072 0.011727 -0.002336 0.000000 0.000000 0.000000
# 3 -0.003475 -0.002336 0.017042 0.000000 0.000000 0.000000
# 4 0.000000 0.000000 0.000000 0.082805 0.000000 0.000000
# 5 0.000000 0.000000 0.000000 0.000000 0.032440 0.000000
# 6 0.000000 0.000000 0.000000 0.000000 0.000000 0.064073
#
#
# Mechanical properties :
#
#
# Convention : Reuss Voigt Hill
#
# Bulk Modulus (GPa) = 42.67546 44.50467 43.59006
# Shear Modulus (GPa) = 20.31730 24.05221 22.18475
#
# Velocity S-wave (km/s) = 3.37312 3.67008 3.52473
# Velocity P-wave (km/s) = 6.25054 6.54847 6.40124
#
# Compressibility (1/GPa) = 0.02343267
#
# Stress axis : x y z
#
# Youngs Moduli (GPa) = 80.45298 85.27127 58.67759
#
# Poissons Ratio (x) = 0.26199 0.20390
# Poissons Ratio (y) = 0.24718 0.13707
# Poissons Ratio (z) = 0.27957 0.19919
#
# Static dielectric constant tensor:
#      x y z
#    x 1.632080 0.000000 0.000000 
#    y 0.000000 1.595250 0.000000 
#    z 0.000000 0.000000 1.569390 
# 
# From -- ./inp_files/26808.got.cif
#   From: 2010.05.17/outbox.cif.g08.bks.cpg/sg23_14_cif.got.tgz:26808.got - 2010.06.04 12:02:01.
