data_PCOD9329832
_publ_section_title
;
Structure prediction by ZEFSAII (Michael W. Deem and Ramdas Pophale) SiO2 
 PCOD9329832
Probable space group: I 2 2 2
;
_chemical_formula_sum "Si O2"
_cell_formula_units_Z 54
_cell_length_a 14.429340
_cell_length_b 14.491605
_cell_length_c 13.338611
_cell_angle_alpha 90.000000
_cell_angle_beta 90.000000
_cell_angle_gamma 90.000000
_cell_volume 2789.160859
_symmetry_space_group_name_H-M "I 2 2 2"
_symmetry_group_IT_number 23
_symmetry_cell_setting 'orthorhombic'
loop_
_space_group_symop_operation_xyz
x,y,z
-x,-y,z
x,-y,-z
-x,y,-z
1/2+x,1/2+y,1/2+z
1/2-x,1/2-y,1/2+z
1/2+x,1/2-y,1/2-z
1/2-x,1/2+y,1/2-z
loop_
_atom_site_type_symbol
_atom_site_label
_atom_site_fract_x
_atom_site_fract_y
_atom_site_fract_z
Si Si1 0.901008 0.333410 0.111404
Si Si2 0.219993 0.221645 0.509854
Si Si3 0.554912 0.370663 0.101021
Si Si4 0.500000 0.685186 0.500000
Si Si5 0.894121 0.999316 0.772719
Si Si6 0.000000 0.500000 0.000000
Si Si7 0.192048 0.907014 0.946547
Si Si8 0.122179 0.799941 0.283973
O O1 0.869032 0.295204 0.221112
O O2 0.815400 0.317091 0.035387
O O3 0.980375 0.256479 0.089873
O O4 0.942366 0.431782 0.075462
O O5 0.139082 0.193138 0.434295
O O6 0.235666 0.329609 0.525162
O O7 0.190496 0.190879 0.621135
O O8 0.593834 0.458975 0.161249
O O9 0.481547 0.316946 0.171727
O O10 0.500000 0.395396 0.000000
O O11 0.408734 0.626349 0.484306
O O12 0.827023 0.067680 0.831456
O O13 0.860855 0.893914 0.778915
O O14 0.000000 0.000000 0.814488
O O15 0.218425 0.000000 0.000000
#
# Coordination Sequence:
#
# PCOD9329832 Si02
#       8
#     8   8   8   4   8   2   8   8
#     4  10  21  40  61  88 123 162 210 252 308 378
#     4  10  23  38  58  89 129 158 203 261 316 368
#     4   9  20  38  61  89 125 160 198 254 319 380
#     4   9  17  33  59  80 114 148 185 251 307 345
#     4  10  19  32  60  90 112 151 206 250 308 368
#     4  10  24  44  62  88 130 180 214 248 308 398
#     4  11  20  34  55  87 118 155 198 252 305 365
#     4  10  21  39  61  88 119 164 205 257 323 370
#
# _framework density 19.360662000000001
#
# number of rings (size 3 to 8) (size 9 to 14) (size 15 to 20)
#    0.000    2.074    0.000    4.667    2.074    8.000 
#    0.000    1.481    0.000    3.111    0.000    0.000 
#    0.000    0.000    0.000    0.000    0.000    0.000 
#
# Total GULP energy -150410.789342 kJ/mol
# GULP energy per Si atom -5570.769976 kJ/mol
# Density = 1.931660 g / cm^3
# Si number density = 19.360662 Si / 1000 Ang^3
#
#
#
# Elastic Constant Matrix: (Units=GPa)
#
#
# Indices 1 2 3 4 5 6 
#
# 1 54.1200 42.7808 23.9514 0.0000 0.0000 0.0000
# 2 42.7808 126.9037 38.1948 0.0000 0.0000 0.0000
# 3 23.9514 38.1948 94.7177 0.0000 0.0000 0.0000
# 4 0.0000 0.0000 0.0000 34.9959 0.0000 0.0000
# 5 0.0000 0.0000 0.0000 0.0000 20.1038 0.0000
# 6 0.0000 0.0000 0.0000 0.0000 0.0000 29.4246
#
#
#
# Elastic Compliance Matrix: (Units=1/GPa)
#
#
# Indices 1 2 3 4 5 6 
#
# 1 0.026162 -0.007771 -0.003482 0.000000 0.000000 0.000000
# 2 -0.007771 0.011277 -0.002582 0.000000 0.000000 0.000000
# 3 -0.003482 -0.002582 0.012479 0.000000 0.000000 0.000000
# 4 0.000000 0.000000 0.000000 0.028575 0.000000 0.000000
# 5 0.000000 0.000000 0.000000 0.000000 0.049742 0.000000
# 6 0.000000 0.000000 0.000000 0.000000 0.000000 0.033985
#
#
# Mechanical properties :
#
#
# Convention : Reuss Voigt Hill
#
# Bulk Modulus (GPa) = 44.94957 53.95503 49.45230
# Shear Modulus (GPa) = 25.34131 28.29249 26.81690
#
# Velocity S-wave (km/s) = 3.62181 3.82689 3.72576
# Velocity P-wave (km/s) = 6.38415 6.88881 6.64127
#
# Compressibility (1/GPa) = 0.02224716
#
# Stress axis : x y z
#
# Youngs Moduli (GPa) = 38.22411 88.67571 80.13202
#
# Poissons Ratio (x) = 0.68914 0.27899
# Poissons Ratio (y) = 0.29706 0.20692
# Poissons Ratio (z) = 0.13308 0.22899
#
# Static dielectric constant tensor:
#      x y z
#    x 1.688870 0.000000 0.000000 
#    y 0.000000 1.687820 0.000000 
#    z 0.000000 0.000000 1.778360 
# 
# From -- ./inp_files/21639.got.cif
#   From: 2010.05.17/outbox.cif.g08.bks.cpg/sg23_11_cif.got.tgz:21639.got - 2010.06.04 12:02:01.
