data_PCOD9329202
_publ_section_title
;
Structure prediction by ZEFSAII (Michael W. Deem and Ramdas Pophale) SiO2 
 PCOD9329202
Probable space group: F 2 2 2
;
_chemical_formula_sum "Si O2"
_cell_formula_units_Z 88
_cell_length_a 21.747844
_cell_length_b 21.747847
_cell_length_c 9.015504
_cell_angle_alpha 90.000000
_cell_angle_beta 90.000000
_cell_angle_gamma 90.000000
_cell_volume 4264.051963
_symmetry_space_group_name_H-M "F 2 2 2"
_symmetry_group_IT_number 22
_symmetry_cell_setting 'orthorhombic'
loop_
_space_group_symop_operation_xyz
x,y,z
-x,-y,z
x,-y,-z
-x,y,-z
x,1/2+y,1/2+z
-x,1/2-y,1/2+z
x,1/2-y,1/2-z
-x,1/2+y,1/2-z
1/2+x,y,1/2+z
1/2-x,-y,1/2+z
1/2+x,-y,1/2-z
1/2-x,y,1/2-z
1/2+x,1/2+y,z
1/2-x,1/2-y,z
1/2+x,1/2-y,-z
1/2-x,1/2+y,-z
loop_
_atom_site_type_symbol
_atom_site_label
_atom_site_fract_x
_atom_site_fract_y
_atom_site_fract_z
Si Si1 0.681571 0.181571 0.491639
Si Si2 0.500000 0.500000 0.000000
Si Si3 0.129824 0.025107 0.666545
Si Si4 0.750000 0.750000 0.250000
Si Si5 0.604182 0.250000 0.250000
Si Si6 0.913064 0.586936 0.371197
Si Si7 0.750000 0.104182 0.250000
Si Si8 0.974893 0.629824 0.833455
O O1 0.710154 0.210154 0.637950
O O2 0.647143 0.231327 0.388532
O O3 0.633065 0.133065 0.553758
O O4 0.731327 0.147143 0.388532
O O5 0.447342 0.552658 0.003822
O O6 0.190409 0.062756 0.714003
O O7 0.070844 0.070844 0.668628
O O8 0.137288 0.000000 0.500000
O O9 0.117924 0.965977 0.770444
O O10 0.562756 0.309591 0.285997
O O11 0.965977 0.617924 0.270444
O O12 0.000000 0.637288 0.000000
#
# Coordination Sequence:
#
# PCOD9329202 Si02
#       8
#    16   4  16   4   8  16   8  16
#     4  12  29  51  75 109 147 204 256 312 368 442
#     4  12  20  40  66 100 148 184 224 302 372 444
#     4  12  26  47  76 111 151 199 245 307 380 448
#     4  12  32  46  80 104 148 206 268 312 348 446
#     4  12  28  52  76 106 151 201 248 308 380 442
#     4  12  26  43  73 112 150 187 247 304 377 442
#     4  12  28  52  76 106 151 201 248 308 380 442
#     4  12  26  47  76 111 151 199 245 307 380 448
#
# _framework density 20.637647999999999
#
# number of rings (size 3 to 8) (size 9 to 14) (size 15 to 20)
#    0.000    0.000    5.455    3.273   10.182    0.000 
#    0.000    0.000    0.000    0.000    0.000    0.000 
#    0.000    0.000    0.000    0.000    0.000    0.000 
#
# Total GULP energy -122857.900523 kJ/mol
# GULP energy per Si atom -5584.450024 kJ/mol
# Density = 2.059068 g / cm^3
# Si number density = 20.637648 Si / 1000 Ang^3
#
#
#
# Elastic Constant Matrix: (Units=GPa)
#
#
# Indices 1 2 3 4 5 6 
#
# 1 128.9804 70.7464 58.7981 0.0001 -0.0001 -0.0001
# 2 70.7464 128.9808 58.7984 0.0001 -0.0001 -0.0001
# 3 58.7981 58.7984 124.5979 0.0002 -0.0003 -0.0003
# 4 0.0001 0.0001 0.0002 51.3975 -0.0001 -0.0001
# 5 -0.0001 -0.0001 -0.0003 -0.0001 51.3976 0.0001
# 6 -0.0001 -0.0001 -0.0003 -0.0001 0.0001 65.0077
#
#
#
# Elastic Compliance Matrix: (Units=1/GPa)
#
#
# Indices 1 2 3 4 5 6 
#
# 1 0.012053 -0.005119 -0.003272 0.000000 0.000000 0.000000
# 2 -0.005119 0.012053 -0.003272 0.000000 0.000000 0.000000
# 3 -0.003272 -0.003272 0.011114 0.000000 0.000000 0.000000
# 4 0.000000 0.000000 0.000000 0.019456 0.000000 0.000000
# 5 0.000000 0.000000 0.000000 0.000000 0.019456 0.000000
# 6 0.000000 0.000000 0.000000 0.000000 0.000000 0.015383
#
#
# Mechanical properties :
#
#
# Convention : Reuss Voigt Hill
#
# Bulk Modulus (GPa) = 84.08327 84.36056 84.22191
# Shear Modulus (GPa) = 42.80651 46.50830 44.65740
#
# Velocity S-wave (km/s) = 4.55927 4.75232 4.65680
# Velocity P-wave (km/s) = 8.27932 8.43081 8.35541
#
# Compressibility (1/GPa) = 0.01189297
#
# Stress axis : x y z
#
# Youngs Moduli (GPa) = 82.96931 82.96938 89.97831
#
# Poissons Ratio (x) = 0.42475 0.29439
# Poissons Ratio (y) = 0.42475 0.29439
# Poissons Ratio (z) = 0.27146 0.27146
#
# Static dielectric constant tensor:
#      x y z
#    x 1.637170 0.000000 0.000000 
#    y 0.000000 1.637170 0.000000 
#    z 0.000000 0.000000 1.740330 
# 
# From -- ./inp_files/13814.got.cif
#   From: 2010.05.17/outbox.cif.g08.bks.cpg/sg22_7_cif.got.tgz:13814.got - 2010.06.03 23:40:54.
