data_PCOD9329508
_publ_section_title
;
Structure prediction by ZEFSAII (Michael W. Deem and Ramdas Pophale) SiO2 
 PCOD9329508
Probable space group: I 2 2 2
;
_chemical_formula_sum "Si O2"
_cell_formula_units_Z 40
_cell_length_a 13.691323
_cell_length_b 16.039124
_cell_length_c 6.971874
_cell_angle_alpha 90.000000
_cell_angle_beta 90.000000
_cell_angle_gamma 90.000000
_cell_volume 1531.001411
_symmetry_space_group_name_H-M "I 2 2 2"
_symmetry_group_IT_number 23
_symmetry_cell_setting 'orthorhombic'
loop_
_space_group_symop_operation_xyz
x,y,z
-x,-y,z
x,-y,-z
-x,y,-z
1/2+x,1/2+y,1/2+z
1/2-x,1/2-y,1/2+z
1/2+x,1/2-y,1/2-z
1/2-x,1/2+y,1/2-z
loop_
_atom_site_type_symbol
_atom_site_label
_atom_site_fract_x
_atom_site_fract_y
_atom_site_fract_z
Si Si1 0.584084 0.344102 0.227693
Si Si2 0.507317 0.158537 0.284303
Si Si3 0.788832 0.321229 0.192733
Si Si4 0.211441 0.635130 0.745199
Si Si5 0.601252 0.426495 0.843643
O O1 0.546997 0.254192 0.293181
O O2 0.694264 0.361160 0.296034
O O3 0.497813 0.408976 0.271530
O O4 0.598473 0.347972 0.994856
O O5 0.500000 0.124393 0.500000
O O6 0.395287 0.165310 0.216143
O O7 0.600532 0.114963 0.183822
O O8 0.755088 0.224411 0.177733
O O9 0.797415 0.356144 0.977480
O O10 0.300778 0.571758 0.723357
O O11 0.601829 0.500000 0.000000
#
# Coordination Sequence:
#
# PCOD9329508 Si02
#       5
#     8   8   8   8   8
#     4   9  16  26  42  64  87 116 155 186 231 271
#     4   9  16  27  44  65  93 119 144 197 246 283
#     4   9  16  27  43  65  93 119 150 197 236 286
#     4   9  17  28  44  68  89 124 153 189 246 279
#     4  10  18  29  46  65  91 122 159 193 219 281
#
# _framework density 26.12669
#
# number of rings (size 3 to 8) (size 9 to 14) (size 15 to 20)
#    0.000    2.800    2.000    1.200    0.000    0.000 
#    0.000    0.000    0.000   18.600    0.000    0.000 
#    0.000    0.000    0.000   55.200    0.800    0.000 
#
# Total GULP energy -111387.471620 kJ/mol
# GULP energy per Si atom -5569.373581 kJ/mol
# Density = 2.606722 g / cm^3
# Si number density = 26.126690 Si / 1000 Ang^3
#
#
#
# Elastic Constant Matrix: (Units=GPa)
#
#
# Indices 1 2 3 4 5 6 
#
# 1 356.9387 22.8044 -1.7713 0.0000 0.0000 0.0000
# 2 22.8044 32.4052 -9.2256 0.0000 0.0000 0.0000
# 3 -1.7713 -9.2256 90.9224 0.0000 0.0000 0.0000
# 4 0.0000 0.0000 0.0000 15.0459 0.0000 0.0000
# 5 0.0000 0.0000 0.0000 0.0000 1.0615 0.0000
# 6 0.0000 0.0000 0.0000 0.0000 0.0000 2.0409
#
#
#
# Elastic Compliance Matrix: (Units=1/GPa)
#
#
# Indices 1 2 3 4 5 6 
#
# 1 0.002936 -0.002111 -0.000157 0.000000 0.000000 0.000000
# 2 -0.002111 0.033295 0.003337 0.000000 0.000000 0.000000
# 3 -0.000157 0.003337 0.011334 0.000000 0.000000 0.000000
# 4 0.000000 0.000000 0.000000 0.066463 0.000000 0.000000
# 5 0.000000 0.000000 0.000000 0.000000 0.942103 0.000000
# 6 0.000000 0.000000 0.000000 0.000000 0.000000 0.489972
#
#
# Mechanical properties :
#
#
# Convention : Reuss Voigt Hill
#
# Bulk Modulus (GPa) = 20.11936 55.98682 38.05309
# Shear Modulus (GPa) = 3.20404 34.86025 19.03215
#
# Velocity S-wave (km/s) = 1.10861 3.65674 2.70192
# Velocity P-wave (km/s) = 3.05877 6.26933 4.93257
#
# Compressibility (1/GPa) = 0.04970337
#
# Stress axis : x y z
#
# Youngs Moduli (GPa) = 340.63827 30.03495 88.23058
#
# Poissons Ratio (x) = 0.06339 0.01385
# Poissons Ratio (y) = 0.71895 -0.29444
# Poissons Ratio (z) = 0.05347 -0.10023
#
# Static dielectric constant tensor:
#      x y z
#    x 2.304060 0.000000 0.000000 
#    y 0.000000 2.093920 0.000000 
#    z 0.000000 0.000000 2.068640 
# 
# From -- ./inp_files/9747.got.cif
#   From: 2010.05.17/outbox.cif.g08.bks.cpg/sg23_5_cif.got.tgz:9747.got - 2010.06.04 12:02:01.
