data_PCOD9329298
_publ_section_title
;
Structure prediction by ZEFSAII (Michael W. Deem and Ramdas Pophale) SiO2 
 PCOD9329298
Probable space group: F 2 2 2
;
_chemical_formula_sum "Si O2"
_cell_formula_units_Z 26
_cell_length_a 27.000000
_cell_length_b 21.000000
_cell_length_c 9.000000
_cell_angle_alpha 90.000000
_cell_angle_beta 90.000000
_cell_angle_gamma 90.000000
_cell_volume 5103.000000
_symmetry_space_group_name_H-M "F 2 2 2"
_symmetry_group_IT_number 22
_symmetry_cell_setting 'orthorhombic'
loop_
_space_group_symop_operation_xyz
x,y,z
-x,-y,z
x,-y,-z
-x,y,-z
x,1/2+y,1/2+z
-x,1/2-y,1/2+z
x,1/2-y,1/2-z
-x,1/2+y,1/2-z
1/2+x,y,1/2+z
1/2-x,-y,1/2+z
1/2+x,-y,1/2-z
1/2-x,y,1/2-z
1/2+x,1/2+y,z
1/2-x,1/2-y,z
1/2+x,1/2-y,-z
1/2-x,1/2+y,-z
loop_
_atom_site_type_symbol
_atom_site_label
_atom_site_fract_x
_atom_site_fract_y
_atom_site_fract_z
Si Si1 0.378014 0.684843 0.085508
Si Si2 0.511028 0.183626 0.325170
Si Si3 0.171659 0.464384 0.340695
Si Si4 0.910950 0.869371 0.230173
Si Si5 0.750000 0.142568 0.750000
Si Si6 0.664129 0.814704 0.038280
Si Si7 0.807317 0.402539 0.225221
O O1 0.428814 0.679906 0.183983
O O2 0.340330 0.633044 0.150646
O O3 0.395805 0.666659 0.920994
O O4 0.349486 0.752224 0.060002
O O5 0.500000 0.185950 0.500000
O O6 0.496629 0.250000 0.250000
O O7 0.470926 0.132699 0.260763
O O8 0.170415 0.500000 0.500000
O O9 0.118402 0.435925 0.291411
O O10 0.211512 0.406276 0.332860
O O11 0.186866 0.521561 0.231378
O O12 0.883777 0.831787 0.362636
O O13 0.713196 0.184342 0.855168
O O14 0.674661 0.872891 0.928322
O O15 0.750000 0.386518 0.250000
#
# Coordination Sequence:
#
# PCOD9329298 Si02
#       7
#    16  16  16  16   8  16  16
#     4  11  23  43  64  97 133 170 216 273 340 398
#     4  10  20  38  67  94 131 170 211 272 337 410
#     4  11  21  41  64  88 131 175 227 272 320 396
#     4  10  22  40  65  96 128 170 224 270 335 399
#     4  10  24  38  65  92 131 184 216 270 330 386
#     4  11  24  41  64 101 135 173 224 279 335 407
#     4  12  25  42  65  91 135 180 229 270 329 400
#
# _framework density 5.0950420000000003
#
# number of rings (size 3 to 8) (size 9 to 14) (size 15 to 20)
#    0.000    1.231    2.308    4.615    2.154    3.077 
#    2.769    0.769    0.000    0.000    0.000    8.615 
#    0.000    0.000    0.000    0.000    0.000    0.000 
#
# Total GULP energy -145154.970884 kJ/mol
# GULP energy per Si atom -5582.883496 kJ/mol
# Density = 0.508345 g / cm^3
# Si number density = 5.095042 Si / 1000 Ang^3
#
#
#
# Elastic Constant Matrix: (Units=GPa)
#
#
# Indices 1 2 3 4 5 6 
#
# 1 177.8070 58.4766 30.7752 0.0000 0.0000 0.0000
# 2 58.4766 64.3454 8.9169 0.0000 0.0000 0.0000
# 3 30.7752 8.9169 49.0596 -0.0004 0.0001 0.0001
# 4 0.0000 0.0000 -0.0004 26.3347 0.0000 0.0000
# 5 0.0000 0.0000 0.0001 0.0000 18.6409 0.0000
# 6 0.0000 0.0000 0.0001 0.0000 0.0000 31.5039
#
#
#
# Elastic Compliance Matrix: (Units=1/GPa)
#
#
# Indices 1 2 3 4 5 6 
#
# 1 0.008778 -0.007401 -0.004162 0.000000 0.000000 0.000000
# 2 -0.007401 0.022182 0.000611 0.000000 0.000000 0.000000
# 3 -0.004162 0.000611 0.022883 0.000000 0.000000 0.000000
# 4 0.000000 0.000000 0.000000 0.037973 0.000000 0.000000
# 5 0.000000 0.000000 0.000000 0.000000 0.053646 0.000000
# 6 0.000000 0.000000 0.000000 0.000000 0.000000 0.031742
#
#
# Mechanical properties :
#
#
# Convention : Reuss Voigt Hill
#
# Bulk Modulus (GPa) = 31.30831 54.17214 42.74022
# Shear Modulus (GPa) = 23.83741 28.16544 26.00143
#
# Velocity S-wave (km/s) = 3.42371 3.72156 3.57574
# Velocity P-wave (km/s) = 5.56997 6.71604 6.16967
#
# Compressibility (1/GPa) = 0.03194041
#
# Stress axis : x y z
#
# Youngs Moduli (GPa) = 113.91604 45.08059 43.70083
#
# Poissons Ratio (x) = 0.33364 0.18186
# Poissons Ratio (y) = 0.84310 -0.02670
# Poissons Ratio (z) = 0.47406 -0.02754
#
# Static dielectric constant tensor:
#      x y z
#    x 1.750530 0.000000 0.000000 
#    y 0.000000 1.723920 0.000000 
#    z 0.000000 0.000000 1.789880 
# 
# From -- ./inp_files/14801.got.cif
#   From: 2010.05.17/outbox.ucp.g08.bks.cvg/sg22_8_cif.got.tgz:14801.got - 2010.06.11 15:16:44.
