data_PCOD9329655
_publ_section_title
;
Structure prediction by ZEFSAII (Michael W. Deem and Ramdas Pophale) SiO2 
 PCOD9329655
Probable space group: I 2 2 2
;
_chemical_formula_sum "Si O2"
_cell_formula_units_Z 38
_cell_length_a 8.505485
_cell_length_b 22.020176
_cell_length_c 9.744569
_cell_angle_alpha 90.000000
_cell_angle_beta 90.000000
_cell_angle_gamma 90.000000
_cell_volume 1825.082513
_symmetry_space_group_name_H-M "I 2 2 2"
_symmetry_group_IT_number 23
_symmetry_cell_setting 'orthorhombic'
loop_
_space_group_symop_operation_xyz
x,y,z
-x,-y,z
x,-y,-z
-x,y,-z
1/2+x,1/2+y,1/2+z
1/2-x,1/2-y,1/2+z
1/2+x,1/2-y,1/2-z
1/2-x,1/2+y,1/2-z
loop_
_atom_site_type_symbol
_atom_site_label
_atom_site_fract_x
_atom_site_fract_y
_atom_site_fract_z
Si Si1 0.333480 0.382741 0.897229
Si Si2 0.000000 0.000000 0.500000
Si Si3 0.500000 0.000000 0.000000
Si Si4 0.253252 0.912867 0.884374
Si Si5 0.657148 0.692575 0.133019
Si Si6 0.000000 0.000000 0.000000
Si Si7 0.816554 0.204902 0.045527
O O1 0.395602 0.451530 0.915782
O O2 0.232002 0.380994 0.761806
O O3 0.480498 0.336734 0.864125
O O4 0.260399 0.360469 0.040952
O O5 0.603322 0.956563 0.091863
O O6 0.232030 0.862335 0.999999
O O7 0.102867 0.956421 0.903781
O O8 0.699054 0.707729 0.289602
O O9 0.702233 0.750330 0.039339
O O10 0.000000 0.215204 0.000000
#
# Coordination Sequence:
#
# PCOD9329655 Si02
#       7
#     8   2   2   8   8   2   8
#     4  10  20  40  66  92 131 178 226 275 333 412
#     4   8  18  32  70 100 118 164 232 278 314 388
#     4  10  28  38  66 104 144 166 232 302 340 406
#     4  11  21  43  65  99 131 183 227 284 348 400
#     4  10  23  38  63 100 127 175 228 280 326 404
#     4  10  18  34  72  92 130 170 246 268 338 426
#     4  12  23  41  68  97 135 181 225 279 340 410
#
# _framework density 20.820978
#
# number of rings (size 3 to 8) (size 9 to 14) (size 15 to 20)
#    0.000    1.684    3.158    1.895    2.947    6.737 
#    3.789    0.000    0.000    1.263    0.000    0.000 
#    0.000    0.000    0.000    0.000    0.000    0.000 
#
# Total GULP energy -105835.311899 kJ/mol
# GULP energy per Si atom -5570.279574 kJ/mol
# Density = 2.077359 g / cm^3
# Si number density = 20.820978 Si / 1000 Ang^3
#
#
#
# Elastic Constant Matrix: (Units=GPa)
#
#
# Indices 1 2 3 4 5 6 
#
# 1 62.8766 44.1884 32.8727 0.0002 0.0002 -0.0001
# 2 44.1884 146.4785 57.1224 -0.0001 0.0000 0.0001
# 3 32.8727 57.1224 211.5890 -0.0009 0.0002 0.0001
# 4 0.0002 -0.0001 -0.0009 34.6807 -0.0002 0.0004
# 5 0.0002 0.0000 0.0002 -0.0002 -61.3755 -0.0002
# 6 -0.0001 0.0001 0.0001 0.0004 -0.0002 -1.2899
#
#
#
# Elastic Compliance Matrix: (Units=1/GPa)
#
#
# Indices 1 2 3 4 5 6 
#
# 1 0.020724 -0.005584 -0.001712 0.000000 0.000000 -0.000002
# 2 -0.005584 0.009135 -0.001599 0.000000 0.000000 0.000001
# 3 -0.001712 -0.001599 0.005424 0.000000 0.000000 0.000001
# 4 0.000000 0.000000 0.000000 0.028834 0.000000 0.000009
# 5 0.000000 0.000000 0.000000 0.000000 -0.016293 0.000003
# 6 -0.000002 0.000001 0.000001 0.000009 0.000003 -0.775276
#
#
# Mechanical properties :
#
#
# Convention : Reuss Voigt Hill
#
# Bulk Modulus (GPa) = 57.16664 76.59009 66.87837
# Shear Modulus (GPa) = -7.10397 13.52046 3.20824
#
# Velocity S-wave (km/s) = -1.84915 2.55103 1.24266
# Velocity P-wave (km/s) = 4.79132 6.74848 5.85229
#
# Compressibility (1/GPa) = 0.01749272
#
# Stress axis : x y z
#
# Youngs Moduli (GPa) = 48.25402 109.47035 184.37560
#
# Poissons Ratio (x) = 0.61129 0.31567
# Poissons Ratio (y) = 0.26945 0.29474
# Poissons Ratio (z) = 0.08262 0.17500
#
# Static dielectric constant tensor:
#      x y z
#    x 1.793840 0.000000 0.000000 
#    y 0.000000 1.785370 0.000000 
#    z 0.000000 0.000000 1.812500 
# 
# From -- ./inp_files/6985.got.cif
#   From: 2010.05.17/outbox.cif.g08.bks.cpg/sg23_4_cif.got.tgz:6985.got - 2010.06.04 12:02:01.
