data_PCOD9329323
_publ_section_title
;
Structure prediction by ZEFSAII (Michael W. Deem and Ramdas Pophale) SiO2 
 PCOD9329323
Probable space group: F 2 2 2
;
_chemical_formula_sum "Si O2"
_cell_formula_units_Z 22
_cell_length_a 15.000000
_cell_length_b 24.000000
_cell_length_c 12.000000
_cell_angle_alpha 90.000000
_cell_angle_beta 90.000000
_cell_angle_gamma 90.000000
_cell_volume 4320.000000
_symmetry_space_group_name_H-M "F 2 2 2"
_symmetry_group_IT_number 22
_symmetry_cell_setting 'orthorhombic'
loop_
_space_group_symop_operation_xyz
x,y,z
-x,-y,z
x,-y,-z
-x,y,-z
x,1/2+y,1/2+z
-x,1/2-y,1/2+z
x,1/2-y,1/2-z
-x,1/2+y,1/2-z
1/2+x,y,1/2+z
1/2-x,-y,1/2+z
1/2+x,-y,1/2-z
1/2-x,y,1/2-z
1/2+x,1/2+y,z
1/2-x,1/2-y,z
1/2+x,1/2-y,-z
1/2-x,1/2+y,-z
loop_
_atom_site_type_symbol
_atom_site_label
_atom_site_fract_x
_atom_site_fract_y
_atom_site_fract_z
Si Si1 0.750000 0.893084 0.750000
Si Si2 0.964840 0.847427 0.125191
Si Si3 0.431891 0.453329 0.785689
Si Si4 0.763850 0.113182 0.883783
Si Si5 0.932550 0.250000 0.250000
Si Si6 0.296735 0.308339 0.568518
Si Si7 0.829513 0.500000 0.500000
O O1 0.660731 0.930271 0.770071
O O2 0.761227 0.850905 0.854331
O O3 0.858847 0.854826 0.115482
O O4 0.006599 0.900300 0.189112
O O5 0.004434 0.793154 0.184886
O O6 0.000000 0.848312 0.000000
O O7 0.500000 0.500000 0.735636
O O8 0.392539 0.478145 0.900772
O O9 0.750000 0.103767 0.750000
O O10 0.695298 0.153354 0.955184
O O11 0.775567 0.053162 0.947832
O O12 0.873359 0.285259 0.157038
O O13 0.250000 0.250000 0.537511
#
# Coordination Sequence:
#
# PCOD9329323 Si02
#       7
#     8  16  16  16   8  16   8
#     4  12  21  40  74 112 136 187 250 310 358 426
#     4  12  23  44  69 106 143 194 250 302 366 440
#     4  12  22  39  70 106 139 182 247 309 355 433
#     4  12  29  46  70 111 153 192 239 315 390 439
#     4  12  25  42  75 110 142 196 256 311 364 447
#     4  12  22  43  74 106 142 187 253 299 358 444
#     4  12  23  40  72 100 135 184 247 288 360 450
#
# _framework density 5.0925929999999999
#
# number of rings (size 3 to 8) (size 9 to 14) (size 15 to 20)
#    0.000    0.000    9.091    1.364    1.273    3.273 
#    0.000    0.000    0.000    0.000    4.727    0.000 
#    0.000    0.000    0.000    0.000    0.000    0.000 
#
# Total GULP energy -122786.319629 kJ/mol
# GULP energy per Si atom -5581.196347 kJ/mol
# Density = 0.508100 g / cm^3
# Si number density = 5.092593 Si / 1000 Ang^3
#
#
#
# Elastic Constant Matrix: (Units=GPa)
#
#
# Indices 1 2 3 4 5 6 
#
# 1 84.6041 41.9730 13.1512 0.0000 0.0000 0.0000
# 2 41.9730 150.0180 30.7719 0.0000 0.0000 0.0000
# 3 13.1512 30.7719 79.9077 0.0000 0.0000 0.0000
# 4 0.0000 0.0000 0.0000 36.3101 0.0000 0.0000
# 5 0.0000 0.0000 0.0000 0.0000 26.5408 0.0000
# 6 0.0000 0.0000 0.0000 0.0000 0.0000 32.1294
#
#
#
# Elastic Compliance Matrix: (Units=1/GPa)
#
#
# Indices 1 2 3 4 5 6 
#
# 1 0.013778 -0.003680 -0.000850 0.000000 0.000000 0.000000
# 2 -0.003680 0.008221 -0.002560 0.000000 0.000000 0.000000
# 3 -0.000850 -0.002560 0.013640 0.000000 0.000000 0.000000
# 4 0.000000 0.000000 0.000000 0.027541 0.000000 0.000000
# 5 0.000000 0.000000 0.000000 0.000000 0.037678 0.000000
# 6 0.000000 0.000000 0.000000 0.000000 0.000000 0.031124
#
#
# Mechanical properties :
#
#
# Convention : Reuss Voigt Hill
#
# Bulk Modulus (GPa) = 46.60404 54.03578 50.31991
# Shear Modulus (GPa) = 32.61256 34.23832 33.42544
#
# Velocity S-wave (km/s) = 4.00557 4.10419 4.05518
# Velocity P-wave (km/s) = 6.65738 7.00310 6.83243
#
# Compressibility (1/GPa) = 0.02145737
#
# Stress axis : x y z
#
# Youngs Moduli (GPa) = 72.58037 121.64387 73.31264
#
# Poissons Ratio (x) = 0.44770 0.06233
# Poissons Ratio (y) = 0.26713 0.18768
# Poissons Ratio (z) = 0.06171 0.31141
#
# Static dielectric constant tensor:
#      x y z
#    x 1.751000 0.000000 0.000000 
#    y 0.000000 1.750030 0.000000 
#    z 0.000000 0.000000 1.748540 
# 
# From -- ./inp_files/20007.got.cif
#   From: 2010.05.17/outbox.ucp.g08.bks.cvg/sg22_11_cif.got.tgz:20007.got - 2010.06.11 15:16:44.
