data_PCOD9329793
_publ_section_title
;
Structure prediction by ZEFSAII (Michael W. Deem and Ramdas Pophale) SiO2 
 PCOD9329793
Probable space group: I 2 2 2
;
_chemical_formula_sum "Si O2"
_cell_formula_units_Z 34
_cell_length_a 7.283963
_cell_length_b 23.262617
_cell_length_c 9.290926
_cell_angle_alpha 90.000000
_cell_angle_beta 90.000000
_cell_angle_gamma 90.000000
_cell_volume 1574.292051
_symmetry_space_group_name_H-M "I 2 2 2"
_symmetry_group_IT_number 23
_symmetry_cell_setting 'orthorhombic'
loop_
_space_group_symop_operation_xyz
x,y,z
-x,-y,z
x,-y,-z
-x,y,-z
1/2+x,1/2+y,1/2+z
1/2-x,1/2-y,1/2+z
1/2+x,1/2-y,1/2-z
1/2-x,1/2+y,1/2-z
loop_
_atom_site_type_symbol
_atom_site_label
_atom_site_fract_x
_atom_site_fract_y
_atom_site_fract_z
Si Si1 0.764244 0.228331 0.015047
Si Si2 0.455357 0.286717 0.203198
Si Si3 0.500000 0.500000 0.000000
Si Si4 0.286513 0.906201 0.974320
Si Si5 0.520217 0.418482 0.745297
O O1 0.602846 0.246695 0.127233
O O2 0.930528 0.227005 0.128689
O O3 0.725653 0.274248 0.890814
O O4 0.729347 0.163424 0.960010
O O5 0.500973 0.353640 0.197806
O O6 0.583312 0.543440 0.119267
O O7 0.173212 0.932338 0.838227
O O8 0.500000 0.921501 0.000000
O O9 0.170466 0.919957 0.118186
#
# Coordination Sequence:
#
# PCOD9329793 Si02
#       5
#     8   8   2   8   8
#     4  10  19  31  54  85 130 160 198 233 296 355
#     4  10  19  33  54  90 120 164 194 242 286 367
#     4  12  24  50  66  88 120 156 200 276 322 344
#     4  10  20  42  63  93 122 163 202 247 292 382
#     4  10  24  40  67  87 123 162 209 250 307 352
#
# _framework density 21.597009
#
# number of rings (size 3 to 8) (size 9 to 14) (size 15 to 20)
#    0.000    1.882    2.353    2.824    0.000    4.706 
#    0.000    4.706    0.000    0.000    0.000    0.000 
#    0.000    0.000    0.000    0.000    0.000    0.000 
#
# Total GULP energy -94678.801884 kJ/mol
# GULP energy per Si atom -5569.341287 kJ/mol
# Density = 2.154785 g / cm^3
# Si number density = 21.597009 Si / 1000 Ang^3
#
#
#
# Elastic Constant Matrix: (Units=GPa)
#
#
# Indices 1 2 3 4 5 6 
#
# 1 84.9809 8.1036 5.1594 -0.0003 0.0001 -0.0004
# 2 8.1036 74.1651 37.5399 -0.0007 0.0001 0.0014
# 3 5.1594 37.5399 154.3417 -0.0017 0.0010 0.0095
# 4 -0.0003 -0.0007 -0.0017 -13.9215 0.0006 -0.0010
# 5 0.0001 0.0001 0.0010 0.0006 24.0878 0.0013
# 6 -0.0004 0.0014 0.0095 -0.0010 0.0013 -109.0014
#
#
#
# Elastic Compliance Matrix: (Units=1/GPa)
#
#
# Indices 1 2 3 4 5 6 
#
# 1 0.011892 -0.001252 -0.000093 0.000000 0.000000 0.000000
# 2 -0.001252 0.015508 -0.003730 0.000000 0.000000 0.000000
# 3 -0.000093 -0.003730 0.007390 -0.000001 0.000000 0.000001
# 4 0.000000 0.000000 -0.000001 -0.071832 0.000002 0.000001
# 5 0.000000 0.000000 0.000000 0.000002 0.041515 0.000000
# 6 0.000000 0.000000 0.000001 0.000001 0.000000 -0.009174
#
#
# Mechanical properties :
#
#
# Convention : Reuss Voigt Hill
#
# Bulk Modulus (GPa) = 40.58555 46.12152 43.35354
# Shear Modulus (GPa) = 365.94200 -2.25469 181.84365
#
# Velocity S-wave (km/s) = 13.03107 -1.02286 9.18593
# Velocity P-wave (km/s) = 15.66030 4.47290 11.51633
#
# Compressibility (1/GPa) = 0.02463931
#
# Stress axis : x y z
#
# Youngs Moduli (GPa) = 84.08722 64.48135 135.32699
#
# Poissons Ratio (x) = 0.08076 0.01258
# Poissons Ratio (y) = 0.10531 0.50479
# Poissons Ratio (z) = 0.00781 0.24053
#
# Static dielectric constant tensor:
#      x y z
#    x 2.229650 0.000000 0.000000 
#    y 0.000000 1.781920 0.000000 
#    z 0.000000 0.000000 1.867360 
# 
# From -- ./inp_files/6840.got.cif
#   From: 2010.05.17/outbox.cif.g08.bks.cpg/sg23_4_cif.got.tgz:6840.got - 2010.06.04 12:02:01.
