data_PCOD9329371
_publ_section_title
;
Structure prediction by ZEFSAII (Michael W. Deem and Ramdas Pophale) SiO2 
 PCOD9329371
Probable space group: I 2 2 2
;
_chemical_formula_sum "Si O2"
_cell_formula_units_Z 38
_cell_length_a 8.671497
_cell_length_b 23.978583
_cell_length_c 8.409671
_cell_angle_alpha 90.000000
_cell_angle_beta 90.000000
_cell_angle_gamma 90.000000
_cell_volume 1748.624662
_symmetry_space_group_name_H-M "I 2 2 2"
_symmetry_group_IT_number 23
_symmetry_cell_setting 'orthorhombic'
loop_
_space_group_symop_operation_xyz
x,y,z
-x,-y,z
x,-y,-z
-x,y,-z
1/2+x,1/2+y,1/2+z
1/2-x,1/2-y,1/2+z
1/2+x,1/2-y,1/2-z
1/2-x,1/2+y,1/2-z
loop_
_atom_site_type_symbol
_atom_site_label
_atom_site_fract_x
_atom_site_fract_y
_atom_site_fract_z
Si Si1 0.539855 0.937851 0.749015
Si Si2 0.750241 0.419254 0.053445
Si Si3 0.500000 0.500000 0.000000
Si Si4 0.568516 0.270006 0.668718
Si Si5 0.000000 0.171286 0.500000
Si Si6 0.590813 0.818297 0.840163
O O1 0.375235 0.914610 0.689792
O O2 0.653963 0.943331 0.597141
O O3 0.612065 0.885414 0.841574
O O4 0.500000 0.000000 0.811799
O O5 0.612026 0.460822 0.100093
O O6 0.658153 0.364476 0.002892
O O7 0.500000 0.289015 0.500000
O O8 0.504046 0.298912 0.828762
O O9 0.514164 0.206080 0.696714
O O10 0.748065 0.285482 0.665589
O O11 0.500000 0.804814 0.000000
#
# Coordination Sequence:
#
# PCOD9329371 Si02
#       6
#     8   8   2   8   4   8
#     4  11  22  41  67 101 142 187 247 290 357 427
#     4  10  20  36  67 102 140 183 236 299 346 432
#     4  10  16  34  60 100 142 178 238 294 350 410
#     4  12  28  48  75 109 146 188 245 304 371 437
#     4  11  24  45  72 108 143 184 243 296 366 428
#     4  12  28  48  73 103 146 195 241 303 371 434
#
# _framework density 21.731362000000001
#
# number of rings (size 3 to 8) (size 9 to 14) (size 15 to 20)
#    0.000    0.842    5.263    1.895    8.842    0.421 
#    0.000    0.000    0.000    0.000    0.000    0.000 
#    0.000    0.000    0.000    0.000    0.000    0.000 
#
# Total GULP energy -105953.055146 kJ/mol
# GULP energy per Si atom -5576.476587 kJ/mol
# Density = 2.168190 g / cm^3
# Si number density = 21.731362 Si / 1000 Ang^3
#
#
#
# Elastic Constant Matrix: (Units=GPa)
#
#
# Indices 1 2 3 4 5 6 
#
# 1 139.9351 54.6160 34.8067 -0.0007 0.0002 -0.0002
# 2 54.6160 121.7977 35.9367 -0.0018 0.0000 0.0000
# 3 34.8067 35.9367 106.7182 -0.0031 0.0004 -0.0021
# 4 -0.0007 -0.0018 -0.0031 101.1893 -0.0032 0.0064
# 5 0.0002 0.0000 0.0004 -0.0032 21.2309 -0.0004
# 6 -0.0002 0.0000 -0.0021 0.0064 -0.0004 19.5787
#
#
#
# Elastic Compliance Matrix: (Units=1/GPa)
#
#
# Indices 1 2 3 4 5 6 
#
# 1 0.008944 -0.003497 -0.001739 0.000000 0.000000 0.000000
# 2 -0.003497 0.010484 -0.002390 0.000000 0.000000 0.000000
# 3 -0.001739 -0.002390 0.010742 0.000000 0.000000 0.000001
# 4 0.000000 0.000000 0.000000 0.009882 0.000001 -0.000003
# 5 0.000000 0.000000 0.000000 0.000001 0.047101 0.000001
# 6 0.000000 0.000000 0.000001 -0.000003 0.000001 0.051076
#
#
# Mechanical properties :
#
#
# Convention : Reuss Voigt Hill
#
# Bulk Modulus (GPa) = 67.03640 68.79664 67.91652
# Shear Modulus (GPa) = 31.55480 44.60590 38.08035
#
# Velocity S-wave (km/s) = 3.81470 4.53548 4.19062
# Velocity P-wave (km/s) = 7.09347 7.69116 7.39835
#
# Compressibility (1/GPa) = 0.01491727
#
# Stress axis : x y z
#
# Youngs Moduli (GPa) = 111.80931 95.38649 93.08844
#
# Poissons Ratio (x) = 0.33360 0.16191
# Poissons Ratio (y) = 0.39103 0.22245
# Poissons Ratio (z) = 0.19448 0.22794
#
# Static dielectric constant tensor:
#      x y z
#    x 1.723110 0.000000 0.000000 
#    y 0.000000 1.927410 0.000000 
#    z 0.000000 0.000000 1.789290 
# 
# From -- ./inp_files/6962.got.cif
#   From: 2010.05.17/outbox.cif.g08.bks.cpg/sg23_4_cif.got.tgz:6962.got - 2010.06.04 12:02:01.
