data_PCOD9329142
_publ_section_title
;
Structure prediction by ZEFSAII (Michael W. Deem and Ramdas Pophale) SiO2 
 PCOD9329142
Probable space group: F 2 2 2
;
_chemical_formula_sum "Si O2"
_cell_formula_units_Z 88
_cell_length_a 30.214732
_cell_length_b 11.484119
_cell_length_c 11.730814
_cell_angle_alpha 90.000000
_cell_angle_beta 90.000000
_cell_angle_gamma 90.000000
_cell_volume 4070.470198
_symmetry_space_group_name_H-M "F 2 2 2"
_symmetry_group_IT_number 22
_symmetry_cell_setting 'orthorhombic'
loop_
_space_group_symop_operation_xyz
x,y,z
-x,-y,z
x,-y,-z
-x,y,-z
x,1/2+y,1/2+z
-x,1/2-y,1/2+z
x,1/2-y,1/2-z
-x,1/2+y,1/2-z
1/2+x,y,1/2+z
1/2-x,-y,1/2+z
1/2+x,-y,1/2-z
1/2-x,y,1/2-z
1/2+x,1/2+y,z
1/2-x,1/2-y,z
1/2+x,1/2-y,-z
1/2-x,1/2+y,-z
loop_
_atom_site_type_symbol
_atom_site_label
_atom_site_fract_x
_atom_site_fract_y
_atom_site_fract_z
Si Si1 0.411650 0.750000 0.250000
Si Si2 0.794972 0.465431 0.185122
Si Si3 0.051527 0.130932 0.531436
Si Si4 0.887429 0.791517 0.121771
Si Si5 0.366827 0.966287 0.375628
Si Si6 0.202460 0.810651 0.524494
O O1 0.438673 0.831582 0.161769
O O2 0.385619 0.658773 0.165343
O O3 0.750000 0.434927 0.250000
O O4 0.830783 0.490932 0.280298
O O5 0.790600 0.580541 0.109007
O O6 0.809059 0.362624 0.099739
O O7 0.078808 0.217515 0.451766
O O8 0.000000 0.138293 0.500000
O O9 0.066861 0.000000 0.500000
O O10 0.886439 0.750000 0.250000
O O11 0.901409 0.927139 0.125573
O O12 0.838299 0.765416 0.070530
O O13 0.346625 0.000000 0.500000
O O14 0.250000 0.750000 0.516659
#
# Coordination Sequence:
#
# PCOD9329142 Si02
#       6
#     8  16  16  16  16  16
#     4  12  26  52  77 112 158 190 255 324 380 464
#     4  11  26  42  65  97 144 196 251 319 378 441
#     4  11  27  50  79 116 157 202 253 319 391 464
#     4  12  24  45  77 105 146 195 257 310 384 457
#     4  12  26  46  73 108 143 198 250 318 383 460
#     4  11  26  44  67 101 143 197 258 313 376 454
#
# _framework density 21.619123999999999
#
# number of rings (size 3 to 8) (size 9 to 14) (size 15 to 20)
#    0.000    0.545    3.636    3.273    8.909    0.364 
#    0.000    0.909    0.000    0.000    0.000    0.000 
#    0.000    0.000    0.000    0.000    0.000    0.000 
#
# Total GULP energy -122872.070271 kJ/mol
# GULP energy per Si atom -5585.094103 kJ/mol
# Density = 2.156992 g / cm^3
# Si number density = 21.619124 Si / 1000 Ang^3
#
#
#
# Elastic Constant Matrix: (Units=GPa)
#
#
# Indices 1 2 3 4 5 6 
#
# 1 44.7211 32.1708 33.6035 0.0000 0.0000 0.0000
# 2 32.1708 136.6156 63.1407 0.0000 0.0000 0.0000
# 3 33.6035 63.1407 186.1697 0.0000 0.0000 0.0000
# 4 0.0000 0.0000 0.0000 29.3423 0.0000 0.0000
# 5 0.0000 0.0000 0.0000 0.0000 28.0196 0.0000
# 6 0.0000 0.0000 0.0000 0.0000 0.0000 32.9139
#
#
#
# Elastic Compliance Matrix: (Units=1/GPa)
#
#
# Indices 1 2 3 4 5 6 
#
# 1 0.028645 -0.005166 -0.003419 0.000000 0.000000 0.000000
# 2 -0.005166 0.009612 -0.002328 0.000000 0.000000 0.000000
# 3 -0.003419 -0.002328 0.006778 0.000000 0.000000 0.000000
# 4 0.000000 0.000000 0.000000 0.034080 0.000000 0.000000
# 5 0.000000 0.000000 0.000000 0.000000 0.035689 0.000000
# 6 0.000000 0.000000 0.000000 0.000000 0.000000 0.030382
#
#
# Mechanical properties :
#
#
# Convention : Reuss Voigt Hill
#
# Bulk Modulus (GPa) = 43.08132 69.48184 56.28158
# Shear Modulus (GPa) = 28.61260 33.96125 31.28693
#
# Velocity S-wave (km/s) = 3.64192 3.96774 3.80832
# Velocity P-wave (km/s) = 6.13640 7.29380 6.73999
#
# Compressibility (1/GPa) = 0.02321192
#
# Stress axis : x y z
#
# Youngs Moduli (GPa) = 34.90957 104.03678 147.53829
#
# Poissons Ratio (x) = 0.53741 0.50436
# Poissons Ratio (y) = 0.18033 0.34341
# Poissons Ratio (z) = 0.11934 0.24215
#
# Static dielectric constant tensor:
#      x y z
#    x 1.768700 0.000000 0.000000 
#    y 0.000000 1.870240 0.000000 
#    z 0.000000 0.000000 1.760530 
# 
# From -- ./inp_files/25212.got.cif
#   From: 2010.05.17/outbox.cif.g08.bks.cpg/sg22_13_cif.got.tgz:25212.got - 2010.06.03 23:40:54.
