data_PCOD9329411
_publ_section_title
;
Structure prediction by ZEFSAII (Michael W. Deem and Ramdas Pophale) SiO2 
 PCOD9329411
Probable space group: I 2 2 2
;
_chemical_formula_sum "Si O2"
_cell_formula_units_Z 48
_cell_length_a 12.128200
_cell_length_b 22.197635
_cell_length_c 7.129054
_cell_angle_alpha 90.000000
_cell_angle_beta 90.000000
_cell_angle_gamma 90.000000
_cell_volume 1919.265074
_symmetry_space_group_name_H-M "I 2 2 2"
_symmetry_group_IT_number 23
_symmetry_cell_setting 'orthorhombic'
loop_
_space_group_symop_operation_xyz
x,y,z
-x,-y,z
x,-y,-z
-x,y,-z
1/2+x,1/2+y,1/2+z
1/2-x,1/2-y,1/2+z
1/2+x,1/2-y,1/2-z
1/2-x,1/2+y,1/2-z
loop_
_atom_site_type_symbol
_atom_site_label
_atom_site_fract_x
_atom_site_fract_y
_atom_site_fract_z
Si Si1 0.330791 0.393367 0.671548
Si Si2 0.629611 0.285149 0.595214
Si Si3 0.118673 0.410883 0.459579
Si Si4 0.868308 0.856948 0.578144
Si Si5 0.801501 0.978108 0.709417
Si Si6 0.845167 0.302541 0.780051
O O1 0.369366 0.350992 0.502379
O O2 0.197080 0.393851 0.636848
O O3 0.354098 0.464260 0.688264
O O4 0.380817 0.364265 0.858586
O O5 0.757204 0.268109 0.646320
O O6 0.583386 0.300989 0.801922
O O7 0.598450 0.240726 0.427883
O O8 0.198867 0.452847 0.331892
O O9 0.090569 0.349080 0.347310
O O10 0.000000 0.437452 0.500000
O O11 0.884418 0.922792 0.669594
O O12 0.737497 0.845598 0.604081
O O13 0.766430 0.000000 0.500000
#
# Coordination Sequence:
#
# PCOD9329411 Si02
#       6
#     8   8   8   8   8   8
#     4  10  17  28  46  62  91 118 158 212 251 290
#     4   9  16  26  44  62  86 105 157 206 256 306
#     4  10  20  32  46  65  95 135 178 213 253 298
#     4   8  17  27  41  65  82 113 154 197 253 301
#     4   9  17  31  44  60  90 125 167 209 252 291
#     4   8  16  29  44  62  87 114 158 213 256 300
#
# _framework density 25.009575000000002
#
# number of rings (size 3 to 8) (size 9 to 14) (size 15 to 20)
#    1.000    2.000    1.667    1.500    0.000    1.333 
#    0.000   10.000    0.000    0.000    0.000    0.000 
#    0.000    0.000    0.000    0.000    0.000  114.167 
#
# Total GULP energy -133617.316209 kJ/mol
# GULP energy per Si atom -5567.388175 kJ/mol
# Density = 2.495265 g / cm^3
# Si number density = 25.009575 Si / 1000 Ang^3
#
#
#
# Elastic Constant Matrix: (Units=GPa)
#
#
# Indices 1 2 3 4 5 6 
#
# 1 87.5640 22.6439 25.1563 0.0000 0.0002 0.0000
# 2 22.6439 114.1115 73.5932 0.0004 -0.0003 0.0000
# 3 25.1563 73.5932 138.4141 0.0031 -0.0009 -0.0007
# 4 0.0000 0.0004 0.0031 39.4982 -0.0005 -0.0003
# 5 0.0002 -0.0003 -0.0009 -0.0005 11.6466 0.0000
# 6 0.0000 0.0000 -0.0007 -0.0003 0.0000 -2.5163
#
#
#
# Elastic Compliance Matrix: (Units=1/GPa)
#
#
# Indices 1 2 3 4 5 6 
#
# 1 0.012218 -0.001510 -0.001418 0.000000 0.000000 0.000000
# 2 -0.001510 0.013523 -0.006916 0.000000 0.000000 0.000002
# 3 -0.001418 -0.006916 0.011159 -0.000001 0.000001 -0.000003
# 4 0.000000 0.000000 -0.000001 0.025318 0.000001 -0.000003
# 5 0.000000 0.000000 0.000001 0.000001 0.085862 0.000001
# 6 0.000000 0.000002 -0.000003 -0.000003 0.000001 -0.397409
#
#
# Mechanical properties :
#
#
# Convention : Reuss Voigt Hill
#
# Bulk Modulus (GPa) = 58.09393 64.76405 61.42899
# Shear Modulus (GPa) = -22.33097 24.30545 0.98724
#
# Velocity S-wave (km/s) = -2.99138 3.12083 0.62897
# Velocity P-wave (km/s) = 3.36867 6.24003 5.01428
#
# Compressibility (1/GPa) = 0.01721350
#
# Stress axis : x y z
#
# Youngs Moduli (GPa) = 81.84621 73.94769 89.61154
#
# Poissons Ratio (x) = 0.11168 0.12703
# Poissons Ratio (y) = 0.12361 0.61972
# Poissons Ratio (z) = 0.11602 0.51139
#
# Static dielectric constant tensor:
#      x y z
#    x 2.043340 0.000000 0.000000 
#    y 0.000000 2.010350 0.000000 
#    z 0.000000 0.000000 1.994430 
# 
# From -- ./inp_files/11302.got.cif
#   From: 2010.05.17/outbox.cif.g08.bks.cpg/sg23_6_cif.got.tgz:11302.got - 2010.06.04 12:02:01.
