data_PCOD9329042
_publ_section_title
;
Structure prediction by ZEFSAII (Michael W. Deem and Ramdas Pophale) SiO2 
 PCOD9329042
Probable space group: F 2 2 2
;
_chemical_formula_sum "Si O2"
_cell_formula_units_Z 64
_cell_length_a 8.979727
_cell_length_b 21.637782
_cell_length_c 13.360568
_cell_angle_alpha 90.000000
_cell_angle_beta 90.000000
_cell_angle_gamma 90.000000
_cell_volume 2595.976736
_symmetry_space_group_name_H-M "F 2 2 2"
_symmetry_group_IT_number 22
_symmetry_cell_setting 'orthorhombic'
loop_
_space_group_symop_operation_xyz
x,y,z
-x,-y,z
x,-y,-z
-x,y,-z
x,1/2+y,1/2+z
-x,1/2-y,1/2+z
x,1/2-y,1/2-z
-x,1/2+y,1/2-z
1/2+x,y,1/2+z
1/2-x,-y,1/2+z
1/2+x,-y,1/2-z
1/2-x,y,1/2-z
1/2+x,1/2+y,z
1/2-x,1/2-y,z
1/2+x,1/2-y,-z
1/2-x,1/2+y,-z
loop_
_atom_site_type_symbol
_atom_site_label
_atom_site_fract_x
_atom_site_fract_y
_atom_site_fract_z
Si Si1 0.100930 0.138504 0.289371
Si Si2 0.563496 0.115298 0.394360
Si Si3 0.572990 0.741735 0.601956
Si Si4 0.676417 0.070262 0.990729
O O1 0.250000 0.171160 0.250000
O O2 0.180043 0.101015 0.381020
O O3 0.011362 0.094580 0.209886
O O4 0.984950 0.191400 0.320912
O O5 0.500000 0.089812 0.500000
O O6 0.519086 0.187600 0.390409
O O7 0.738263 0.106324 0.419548
O O8 0.500000 0.717643 0.500000
O O9 0.750000 0.750000 0.600462
O O10 0.500000 0.068616 0.000000
O O11 0.731317 0.000000 0.000000
#
# Coordination Sequence:
#
# PCOD9329042 Si02
#       4
#    16  16  16  16
#     4  12  25  47  78 116 156 209 262 323 404 476
#     4  11  24  45  72 110 152 201 257 315 395 465
#     4  11  25  43  76 109 154 202 254 327 394 475
#     4  11  26  52  76 111 158 203 267 331 386 471
#
# _framework density 24.653531999999998
#
# number of rings (size 3 to 8) (size 9 to 14) (size 15 to 20)
#    0.000    0.750    2.500    4.500    3.500    6.500 
#    9.000    0.000    0.000    0.000    0.000    0.000 
#    0.000    0.000    0.000    0.000    0.000    0.000 
#
# Total GULP energy -89209.914704 kJ/mol
# GULP energy per Si atom -5575.619669 kJ/mol
# Density = 2.459742 g / cm^3
# Si number density = 24.653532 Si / 1000 Ang^3
#
#
#
# Elastic Constant Matrix: (Units=GPa)
#
#
# Indices 1 2 3 4 5 6 
#
# 1 178.7076 36.6590 64.5794 0.0000 0.0000 0.0000
# 2 36.6590 103.7524 43.6064 0.0000 0.0000 0.0000
# 3 64.5794 43.6064 140.9536 0.0000 0.0000 0.0000
# 4 0.0000 0.0000 0.0000 5.7555 0.0000 0.0000
# 5 0.0000 0.0000 0.0000 0.0000 53.7222 0.0000
# 6 0.0000 0.0000 0.0000 0.0000 0.0000 39.7502
#
#
#
# Elastic Compliance Matrix: (Units=1/GPa)
#
#
# Indices 1 2 3 4 5 6 
#
# 1 0.006848 -0.001265 -0.002746 0.000000 0.000000 0.000000
# 2 -0.001265 0.011313 -0.002920 0.000000 0.000000 0.000000
# 3 -0.002746 -0.002920 0.009256 0.000000 0.000000 0.000000
# 4 0.000000 0.000000 0.000000 0.173747 0.000000 0.000000
# 5 0.000000 0.000000 0.000000 0.000000 0.018614 0.000000
# 6 0.000000 0.000000 0.000000 0.000000 0.000000 0.025157
#
#
# Mechanical properties :
#
#
# Convention : Reuss Voigt Hill
#
# Bulk Modulus (GPa) = 73.78059 79.23370 76.50715
# Shear Modulus (GPa) = 18.98869 38.41682 28.70275
#
# Velocity S-wave (km/s) = 2.77830 3.95177 3.41581
# Velocity P-wave (km/s) = 6.34696 7.28222 6.83061
#
# Compressibility (1/GPa) = 0.01355370
#
# Stress axis : x y z
#
# Youngs Moduli (GPa) = 146.03739 88.39616 108.03913
#
# Poissons Ratio (x) = 0.11186 0.29665
# Poissons Ratio (y) = 0.18480 0.31548
# Poissons Ratio (z) = 0.40099 0.25812
#
# Static dielectric constant tensor:
#      x y z
#    x 2.104350 0.000000 0.000000 
#    y 0.000000 1.968010 0.000000 
#    z 0.000000 0.000000 2.273230 
# 
# From -- ./inp_files/26875.got.cif
#   From: 2010.05.17/outbox.cif.g08.bks.cpg/sg22_14_cif.got.tgz:26875.got - 2010.06.03 23:40:54.
