data_PCOD9329088
_publ_section_title
;
Structure prediction by ZEFSAII (Michael W. Deem and Ramdas Pophale) SiO2 
 PCOD9329088
Probable space group: F 2 2 2
;
_chemical_formula_sum "Si O2"
_cell_formula_units_Z 88
_cell_length_a 11.402577
_cell_length_b 26.721737
_cell_length_c 12.485866
_cell_angle_alpha 90.000000
_cell_angle_beta 90.000000
_cell_angle_gamma 90.000000
_cell_volume 3804.401714
_symmetry_space_group_name_H-M "F 2 2 2"
_symmetry_group_IT_number 22
_symmetry_cell_setting 'orthorhombic'
loop_
_space_group_symop_operation_xyz
x,y,z
-x,-y,z
x,-y,-z
-x,y,-z
x,1/2+y,1/2+z
-x,1/2-y,1/2+z
x,1/2-y,1/2-z
-x,1/2+y,1/2-z
1/2+x,y,1/2+z
1/2-x,-y,1/2+z
1/2+x,-y,1/2-z
1/2-x,y,1/2-z
1/2+x,1/2+y,z
1/2-x,1/2-y,z
1/2+x,1/2-y,-z
1/2-x,1/2+y,-z
loop_
_atom_site_type_symbol
_atom_site_label
_atom_site_fract_x
_atom_site_fract_y
_atom_site_fract_z
Si Si1 0.626416 0.160890 0.546765
Si Si2 0.831193 0.043953 0.912751
Si Si3 0.750000 0.679262 0.250000
Si Si4 0.976640 0.356007 0.875492
Si Si5 0.207484 0.806765 0.360099
Si Si6 0.423380 0.042897 0.178082
O O1 0.500000 0.176287 0.500000
O O2 0.622197 0.100823 0.569043
O O3 0.661452 0.194293 0.652050
O O4 0.728078 0.167894 0.459214
O O5 0.691916 0.050638 0.893466
O O6 0.881849 0.028513 0.797120
O O7 0.853569 0.000000 0.000000
O O8 0.848282 0.655397 0.171535
O O9 0.002592 0.407582 0.815270
O O10 0.067896 0.311641 0.856920
O O11 0.000000 0.367077 0.000000
O O12 0.250000 0.830839 0.250000
O O13 0.250000 0.750000 0.363505
O O14 0.500000 0.000000 0.129239
#
# Coordination Sequence:
#
# PCOD9329088 Si02
#       6
#    16  16   8  16  16  16
#     4  12  25  47  77 104 154 207 254 325 393 461
#     4  11  25  44  63 104 153 191 258 317 378 470
#     4  12  22  48  77 118 148 196 264 316 389 488
#     4  12  23  46  79 106 156 206 255 328 398 472
#     4  11  27  49  75 113 153 202 265 332 399 478
#     4  11  25  41  65 106 147 199 256 309 382 469
#
# _framework density 23.131101000000001
#
# number of rings (size 3 to 8) (size 9 to 14) (size 15 to 20)
#    0.000    0.545    5.455    1.091    7.636    0.727 
#    0.000    0.455    0.000    0.000    0.000    0.000 
#    0.000    0.000    0.000    0.000    0.000    0.000 
#
# Total GULP energy -122578.763036 kJ/mol
# GULP energy per Si atom -5571.761956 kJ/mol
# Density = 2.307845 g / cm^3
# Si number density = 23.131101 Si / 1000 Ang^3
#
#
#
# Elastic Constant Matrix: (Units=GPa)
#
#
# Indices 1 2 3 4 5 6 
#
# 1 124.0489 32.0296 24.6723 0.0000 0.0000 0.0000
# 2 32.0296 47.7198 -3.6161 0.0000 0.0000 0.0000
# 3 24.6723 -3.6161 153.9852 0.0000 0.0000 0.0000
# 4 0.0000 0.0000 0.0000 3.8068 0.0000 0.0000
# 5 0.0000 0.0000 0.0000 0.0000 42.4142 0.0000
# 6 0.0000 0.0000 0.0000 0.0000 0.0000 21.0024
#
#
#
# Elastic Compliance Matrix: (Units=1/GPa)
#
#
# Indices 1 2 3 4 5 6 
#
# 1 0.010228 -0.007002 -0.001803 0.000000 0.000000 0.000000
# 2 -0.007002 0.025786 0.001727 0.000000 0.000000 0.000000
# 3 -0.001803 0.001727 0.006824 0.000000 0.000000 0.000000
# 4 0.000000 0.000000 0.000000 0.262690 0.000000 0.000000
# 5 0.000000 0.000000 0.000000 0.000000 0.023577 0.000000
# 6 0.000000 0.000000 0.000000 0.000000 0.000000 0.047614
#
#
# Mechanical properties :
#
#
# Convention : Reuss Voigt Hill
#
# Bulk Modulus (GPa) = 34.86418 47.99171 41.42794
# Shear Modulus (GPa) = 12.48645 31.62256 22.05451
#
# Velocity S-wave (km/s) = 2.32591 3.70144 3.09116
# Velocity P-wave (km/s) = 4.72422 6.24983 5.53979
#
# Compressibility (1/GPa) = 0.02868274
#
# Stress axis : x y z
#
# Youngs Moduli (GPa) = 97.77296 38.78070 146.55000
#
# Poissons Ratio (x) = 0.27152 0.26425
# Poissons Ratio (y) = 0.68456 -0.25315
# Poissons Ratio (z) = 0.17630 -0.06699
#
# Static dielectric constant tensor:
#      x y z
#    x 1.891130 0.000000 0.000000 
#    y 0.000000 1.903980 0.000000 
#    z 0.000000 0.000000 1.911190 
# 
# From -- ./inp_files/18378.got.cif
#   From: 2010.05.17/outbox.cif.g08.bks.cpg/sg22_10_cif.got.tgz:18378.got - 2010.06.03 23:40:54.
