data_PCOD9329973
_publ_section_title
;
Structure prediction by ZEFSAII (Michael W. Deem and Ramdas Pophale) SiO2 
 PCOD9329973
Probable space group: I 2 2 2
;
_chemical_formula_sum "Si O2"
_cell_formula_units_Z 60
_cell_length_a 12.615497
_cell_length_b 12.226752
_cell_length_c 20.875851
_cell_angle_alpha 90.000000
_cell_angle_beta 90.000000
_cell_angle_gamma 90.000000
_cell_volume 3220.028061
_symmetry_space_group_name_H-M "I 2 2 2"
_symmetry_group_IT_number 23
_symmetry_cell_setting 'orthorhombic'
loop_
_space_group_symop_operation_xyz
x,y,z
-x,-y,z
x,-y,-z
-x,y,-z
1/2+x,1/2+y,1/2+z
1/2-x,1/2-y,1/2+z
1/2+x,1/2-y,1/2-z
1/2-x,1/2+y,1/2-z
loop_
_atom_site_type_symbol
_atom_site_label
_atom_site_fract_x
_atom_site_fract_y
_atom_site_fract_z
Si Si1 0.964809 0.253746 0.068031
Si Si2 0.000000 0.500000 0.897317
Si Si3 0.709837 0.117630 0.813927
Si Si4 0.375612 0.027963 0.926171
Si Si5 0.153234 0.845160 0.268789
Si Si6 0.245023 0.723796 0.633194
Si Si7 0.789372 0.536576 0.819419
Si Si8 0.042453 0.882172 0.816031
O O1 0.845041 0.220886 0.085188
O O2 0.982113 0.384274 0.068008
O O3 0.028717 0.205246 0.127887
O O4 0.000000 0.208251 0.000000
O O5 0.110897 0.509213 0.858770
O O6 0.670707 0.241285 0.813666
O O7 0.660271 0.067468 0.749544
O O8 0.834972 0.113049 0.800148
O O9 0.685164 0.051931 0.877485
O O10 0.345300 0.150105 0.900409
O O11 0.500000 0.000000 0.919816
O O12 0.346500 0.000000 0.000000
O O13 0.220069 0.828373 0.202059
O O14 0.033110 0.854190 0.243838
O O15 0.199332 0.948281 0.305752
O O16 0.238620 0.853412 0.649634
O O17 0.000000 0.000000 0.839157
#
# Coordination Sequence:
#
# PCOD9329973 Si02
#       8
#     8   4   8   8   8   8   8   8
#     4  10  21  36  58  86 120 165 193 246 301 352
#     4  10  21  36  56  90 123 150 214 244 294 370
#     4  11  22  36  61  88 115 163 200 243 308 356
#     4  11  25  44  63  86 118 159 210 254 291 356
#     4  10  20  37  58  88 125 151 196 246 309 369
#     4   9  20  38  58  89 118 154 206 242 300 360
#     4  10  19  35  60  85 123 160 190 255 303 361
#     4  11  21  38  54  88 126 151 199 247 294 372
#
# _framework density 18.633379000000001
#
# number of rings (size 3 to 8) (size 9 to 14) (size 15 to 20)
#    0.000    1.733    2.667    2.600    2.800    2.400 
#    0.000    0.000    0.000    0.000    0.000    1.867 
#    0.000    0.000    0.000    0.000    0.000    0.000 
#
# Total GULP energy -167238.842464 kJ/mol
# GULP energy per Si atom -5574.628082 kJ/mol
# Density = 1.859097 g / cm^3
# Si number density = 18.633379 Si / 1000 Ang^3
#
#
#
# Elastic Constant Matrix: (Units=GPa)
#
#
# Indices 1 2 3 4 5 6 
#
# 1 82.1670 30.1591 38.1872 0.0000 0.0000 0.0000
# 2 30.1591 91.0029 32.2301 0.0000 0.0000 0.0000
# 3 38.1872 32.2301 78.4699 0.0000 0.0000 0.0000
# 4 0.0000 0.0000 0.0000 28.8340 0.0000 0.0000
# 5 0.0000 0.0000 0.0000 0.0000 7.4161 0.0000
# 6 0.0000 0.0000 0.0000 0.0000 0.0000 29.6506
#
#
#
# Elastic Compliance Matrix: (Units=1/GPa)
#
#
# Indices 1 2 3 4 5 6 
#
# 1 0.016423 -0.003057 -0.006737 0.000000 0.000000 0.000000
# 2 -0.003057 0.013428 -0.004028 0.000000 0.000000 0.000000
# 3 -0.006737 -0.004028 0.017677 0.000000 0.000000 0.000000
# 4 0.000000 0.000000 0.000000 0.034681 0.000000 0.000000
# 5 0.000000 0.000000 0.000000 0.000000 0.134842 0.000000
# 6 0.000000 0.000000 0.000000 0.000000 0.000000 0.033726
#
#
# Mechanical properties :
#
#
# Convention : Reuss Voigt Hill
#
# Bulk Modulus (GPa) = 50.28881 50.31029 50.29955
# Shear Modulus (GPa) = 17.54084 23.25101 20.39592
#
# Velocity S-wave (km/s) = 3.07150 3.53627 3.31205
# Velocity P-wave (km/s) = 6.29492 6.61304 6.45594
#
# Compressibility (1/GPa) = 0.01988514
#
# Stress axis : x y z
#
# Youngs Moduli (GPa) = 60.88916 74.46989 56.57214
#
# Poissons Ratio (x) = 0.22764 0.38112
# Poissons Ratio (y) = 0.18613 0.22786
# Poissons Ratio (z) = 0.41020 0.29995
#
# Static dielectric constant tensor:
#      x y z
#    x 1.640520 0.000000 0.000000 
#    y 0.000000 1.691720 0.000000 
#    z 0.000000 0.000000 1.643880 
# 
# From -- ./inp_files/26757.got.cif
#   From: 2010.05.17/outbox.cif.g08.bks.cpg/sg23_14_cif.got.tgz:26757.got - 2010.06.04 12:02:01.
