data_PCOD9329516
_publ_section_title
;
Structure prediction by ZEFSAII (Michael W. Deem and Ramdas Pophale) SiO2 
 PCOD9329516
Probable space group: I 2 2 2
;
_chemical_formula_sum "Si O2"
_cell_formula_units_Z 64
_cell_length_a 15.020799
_cell_length_b 8.883864
_cell_length_c 25.551553
_cell_angle_alpha 90.000000
_cell_angle_beta 90.000000
_cell_angle_gamma 90.000000
_cell_volume 3409.669128
_symmetry_space_group_name_H-M "I 2 2 2"
_symmetry_group_IT_number 23
_symmetry_cell_setting 'orthorhombic'
loop_
_space_group_symop_operation_xyz
x,y,z
-x,-y,z
x,-y,-z
-x,y,-z
1/2+x,1/2+y,1/2+z
1/2-x,1/2-y,1/2+z
1/2+x,1/2-y,1/2-z
1/2-x,1/2+y,1/2-z
loop_
_atom_site_type_symbol
_atom_site_label
_atom_site_fract_x
_atom_site_fract_y
_atom_site_fract_z
Si Si1 0.658909 0.179964 1.000000
Si Si2 0.000000 0.820221 0.689376
Si Si3 0.500000 0.316879 0.308893
Si Si4 0.146565 0.818978 0.108576
Si Si5 0.855589 0.679113 0.615413
Si Si6 0.853813 0.677795 0.000000
Si Si7 0.646565 0.681022 0.608576
Si Si8 0.855589 0.679114 0.384587
O O1 0.613099 0.209452 0.055522
O O2 0.613099 0.209452 0.944478
O O3 0.749481 0.275042 1.000000
O O4 0.682414 0.000000 0.000000
O O5 0.085598 0.763174 0.657601
O O6 1.000000 0.763725 0.749248
O O7 0.914403 0.763173 0.657601
O O8 0.000000 0.000000 0.690263
O O9 0.500000 0.500000 0.307394
O O10 0.413865 0.271796 0.342643
O O11 0.586135 0.271796 0.342642
O O12 0.250670 0.781270 0.117205
O O13 0.141714 0.000000 0.103127
O O14 0.112646 0.747855 0.054343
O O15 0.750671 0.718730 0.617205
O O16 0.863664 0.500000 0.623989
O O17 0.887354 0.747854 0.054344
O O18 0.865667 0.500000 0.000000
#
# Coordination Sequence:
#
# PCOD9329516 Si02
#       8
#     8   8   8   8   8   8   8   8
#     4   8  16  33  56  79 104 138 178 211 249 313
#     4  11  23  36  51  76 108 139 176 223 268 307
#     4   9  20  38  57  76 100 137 186 225 252 301
#     4   9  18  36  59  78 101 139 181 214 251 309
#     4   9  18  34  56  79 103 135 174 216 260 310
#     4  10  18  29  50  83 116 136 160 209 269 317
#     4   9  18  36  59  78 101 139 181 214 251 309
#     4   9  18  34  56  79 103 135 174 216 260 310
#
# _framework density 18.770149
#
# number of rings (size 3 to 8) (size 9 to 14) (size 15 to 20)
#    0.000    2.750    0.000    3.000    0.000    6.000 
#    0.000    8.125    0.000    0.000    0.000    0.000 
#    0.000    0.000    0.000    0.000    0.000    0.000 
#
# Total GULP energy -178442.593889 kJ/mol
# GULP energy per Si atom -5576.331059 kJ/mol
# Density = 1.872743 g / cm^3
# Si number density = 18.770149 Si / 1000 Ang^3
#
#
#
# Elastic Constant Matrix: (Units=GPa)
#
#
# Indices 1 2 3 4 5 6 
#
# 1 98.3711 32.7848 88.3582 0.0000 0.0000 0.0000
# 2 32.7848 28.9844 53.1540 0.0000 0.0000 0.0000
# 3 88.3582 53.1540 217.0512 0.0000 0.0000 0.0000
# 4 0.0000 0.0000 0.0000 27.2465 0.0000 0.0000
# 5 0.0000 0.0000 0.0000 0.0000 29.7568 0.0000
# 6 0.0000 0.0000 0.0000 0.0000 0.0000 14.6187
#
#
#
# Elastic Compliance Matrix: (Units=1/GPa)
#
#
# Indices 1 2 3 4 5 6 
#
# 1 0.018308 -0.012781 -0.004323 0.000000 0.000000 0.000000
# 2 -0.012781 0.071549 -0.012319 0.000000 0.000000 0.000000
# 3 -0.004323 -0.012319 0.009384 0.000000 0.000000 0.000000
# 4 0.000000 0.000000 0.000000 0.036702 0.000000 0.000000
# 5 0.000000 0.000000 0.000000 0.000000 0.033606 0.000000
# 6 0.000000 0.000000 0.000000 0.000000 0.000000 0.068405
#
#
# Mechanical properties :
#
#
# Convention : Reuss Voigt Hill
#
# Bulk Modulus (GPa) = 24.75503 77.00006 50.87755
# Shear Modulus (GPa) = 16.11526 25.66506 20.89016
#
# Velocity S-wave (km/s) = 2.93329 3.70176 3.33970
# Velocity P-wave (km/s) = 4.96885 7.70600 6.48351
#
# Compressibility (1/GPa) = 0.04039583
#
# Stress axis : x y z
#
# Youngs Moduli (GPa) = 54.62066 13.97641 106.56552
#
# Poissons Ratio (x) = 0.17863 0.46069
# Poissons Ratio (y) = 0.69808 1.31278
# Poissons Ratio (z) = 0.23613 0.17218
#
# Static dielectric constant tensor:
#      x y z
#    x 1.674000 0.000000 0.000000 
#    y 0.000000 1.626580 0.000000 
#    z 0.000000 0.000000 1.657430 
# 
# From -- ./inp_files/28577.got.cif
#   From: 2010.05.17/outbox.cif.g08.bks.cpg/sg23_15_cif.got.tgz:28577.got - 2010.06.04 12:02:01.
