data_PCOD9329713
_publ_section_title
;
Structure prediction by ZEFSAII (Michael W. Deem and Ramdas Pophale) SiO2 
 PCOD9329713
Probable space group: I 2 2 2
;
_chemical_formula_sum "Si O2"
_cell_formula_units_Z 40
_cell_length_a 15.379411
_cell_length_b 14.744779
_cell_length_c 8.314545
_cell_angle_alpha 90.000000
_cell_angle_beta 90.000000
_cell_angle_gamma 90.000000
_cell_volume 1885.456247
_symmetry_space_group_name_H-M "I 2 2 2"
_symmetry_group_IT_number 23
_symmetry_cell_setting 'orthorhombic'
loop_
_space_group_symop_operation_xyz
x,y,z
-x,-y,z
x,-y,-z
-x,y,-z
1/2+x,1/2+y,1/2+z
1/2-x,1/2-y,1/2+z
1/2+x,1/2-y,1/2-z
1/2-x,1/2+y,1/2-z
loop_
_atom_site_type_symbol
_atom_site_label
_atom_site_fract_x
_atom_site_fract_y
_atom_site_fract_z
Si Si1 0.000000 0.500000 0.000000
Si Si2 0.729563 0.627816 0.761704
Si Si3 0.000000 0.500000 0.500000
Si Si4 0.638321 0.026279 0.263425
Si Si5 0.500000 0.716202 0.000000
Si Si6 0.526669 0.395400 0.318159
Si Si7 0.817090 0.304178 0.560130
O O1 0.932152 0.442842 0.895204
O O2 0.787060 0.542866 0.818580
O O3 0.629940 0.606992 0.715631
O O4 0.773061 0.661437 0.599204
O O5 0.728290 0.712062 0.882363
O O6 0.925012 0.525082 0.633944
O O7 0.682898 0.113869 0.186710
O O8 0.486695 0.657901 0.835958
O O9 0.582778 0.778607 0.968635
O O10 0.500000 0.500000 0.310593
O O11 0.500000 0.362638 0.500000
#
# Coordination Sequence:
#
# PCOD9329713 Si02
#       7
#     2   8   2   8   4   8   8
#     4  10  28  42  72 110 130 188 224 294 356 430
#     4  11  26  43  69 104 131 183 230 289 350 417
#     4  10  18  38  72  92 122 188 210 266 348 424
#     4  11  23  46  69  97 142 173 233 280 356 425
#     4  10  24  46  65 103 138 184 231 296 354 421
#     4  10  24  44  72 100 136 190 239 291 353 421
#     4  11  25  43  70  99 136 181 229 291 354 420
#
# _framework density 21.215024
#
# number of rings (size 3 to 8) (size 9 to 14) (size 15 to 20)
#    0.000    1.400    2.000    0.900   14.000    0.000 
#   10.800    0.000    0.000    0.000    0.000    0.000 
#    0.000    0.000    0.000    0.000    0.000    0.000 
#
# Total GULP energy -111479.380229 kJ/mol
# GULP energy per Si atom -5573.969011 kJ/mol
# Density = 2.116674 g / cm^3
# Si number density = 21.215024 Si / 1000 Ang^3
#
#
#
# Elastic Constant Matrix: (Units=GPa)
#
#
# Indices 1 2 3 4 5 6 
#
# 1 67.1558 36.7504 9.8447 0.0000 0.0000 0.0000
# 2 36.7504 108.2825 29.5671 0.0000 0.0000 0.0000
# 3 9.8447 29.5671 83.1166 0.0000 0.0000 0.0000
# 4 0.0000 0.0000 0.0000 40.3647 0.0000 0.0000
# 5 0.0000 0.0000 0.0000 0.0000 60.7647 0.0000
# 6 0.0000 0.0000 0.0000 0.0000 0.0000 26.0326
#
#
#
# Elastic Compliance Matrix: (Units=1/GPa)
#
#
# Indices 1 2 3 4 5 6 
#
# 1 0.018287 -0.006219 0.000046 0.000000 0.000000 0.000000
# 2 -0.006219 0.012344 -0.003654 0.000000 0.000000 0.000000
# 3 0.000046 -0.003654 0.013326 0.000000 0.000000 0.000000
# 4 0.000000 0.000000 0.000000 0.024774 0.000000 0.000000
# 5 0.000000 0.000000 0.000000 0.000000 0.016457 0.000000
# 6 0.000000 0.000000 0.000000 0.000000 0.000000 0.038413
#
#
# Mechanical properties :
#
#
# Convention : Reuss Voigt Hill
#
# Bulk Modulus (GPa) = 41.14846 45.65326 43.40086
# Shear Modulus (GPa) = 33.03452 37.59190 35.31321
#
# Velocity S-wave (km/s) = 3.95033 4.21402 4.08430
# Velocity P-wave (km/s) = 6.34388 6.72631 6.53789
#
# Compressibility (1/GPa) = 0.02430225
#
# Stress axis : x y z
#
# Youngs Moduli (GPa) = 54.68245 81.01269 75.04244
#
# Poissons Ratio (x) = 0.50384 -0.00348
# Poissons Ratio (y) = 0.34009 0.27424
# Poissons Ratio (z) = -0.00253 0.29605
#
# Static dielectric constant tensor:
#      x y z
#    x 1.747220 0.000000 0.000000 
#    y 0.000000 1.583120 0.000000 
#    z 0.000000 0.000000 1.828010 
# 
# From -- ./inp_files/9651.got.cif
#   From: 2010.05.17/outbox.cif.g08.bks.cpg/sg23_5_cif.got.tgz:9651.got - 2010.06.04 12:02:01.
