data_PCOD9329050
_publ_section_title
;
Structure prediction by ZEFSAII (Michael W. Deem and Ramdas Pophale) SiO2 
 PCOD9329050
Probable space group: F 2 2 2
;
_chemical_formula_sum "Si O2"
_cell_formula_units_Z 64
_cell_length_a 11.165706
_cell_length_b 19.351491
_cell_length_c 12.039966
_cell_angle_alpha 90.000000
_cell_angle_beta 90.000000
_cell_angle_gamma 90.000000
_cell_volume 2601.512286
_symmetry_space_group_name_H-M "F 2 2 2"
_symmetry_group_IT_number 22
_symmetry_cell_setting 'orthorhombic'
loop_
_space_group_symop_operation_xyz
x,y,z
-x,-y,z
x,-y,-z
-x,y,-z
x,1/2+y,1/2+z
-x,1/2-y,1/2+z
x,1/2-y,1/2-z
-x,1/2+y,1/2-z
1/2+x,y,1/2+z
1/2-x,-y,1/2+z
1/2+x,-y,1/2-z
1/2-x,y,1/2-z
1/2+x,1/2+y,z
1/2-x,1/2-y,z
1/2+x,1/2-y,-z
1/2-x,1/2+y,-z
loop_
_atom_site_type_symbol
_atom_site_label
_atom_site_fract_x
_atom_site_fract_y
_atom_site_fract_z
Si Si1 0.645074 0.275172 0.011799
Si Si2 0.429841 0.931629 0.181235
Si Si3 0.865683 0.679224 0.185164
Si Si4 0.823347 0.430997 0.428102
O O1 0.750000 0.250000 0.101058
O O2 0.639655 0.359007 0.015446
O O3 0.500000 0.262040 0.000000
O O4 0.678766 0.207579 0.931666
O O5 0.523074 0.869474 0.176356
O O6 0.316666 0.925020 0.101903
O O7 0.387542 0.937530 0.308939
O O8 0.500000 0.000000 0.149466
O O9 0.897181 0.750000 0.250000
O O10 0.750000 0.648553 0.250000
O O11 0.845106 0.500000 0.500000
#
# Coordination Sequence:
#
# PCOD9329050 Si02
#       4
#    16  16  16  16
#     4  12  26  46  77 115 154 201 262 329 390 480
#     4  11  28  50  76 111 163 203 262 339 397 471
#     4  11  24  45  75 109 151 201 258 317 396 474
#     4  11  29  49  77 116 153 211 268 330 402 475
#
# _framework density 24.601075000000002
#
# number of rings (size 3 to 8) (size 9 to 14) (size 15 to 20)
#    0.000    0.750    2.500    3.000   14.000    0.500 
#    0.000    2.500    0.000    0.000    0.000    0.000 
#    0.000    0.000    0.000    0.000    0.000    0.000 
#
# Total GULP energy -89174.189980 kJ/mol
# GULP energy per Si atom -5573.386874 kJ/mol
# Density = 2.454508 g / cm^3
# Si number density = 24.601075 Si / 1000 Ang^3
#
#
#
# Elastic Constant Matrix: (Units=GPa)
#
#
# Indices 1 2 3 4 5 6 
#
# 1 122.1345 62.7907 1.2972 0.0000 0.0000 0.0000
# 2 62.7907 109.4325 19.9267 0.0000 0.0000 0.0000
# 3 1.2972 19.9267 68.8042 0.0000 0.0000 0.0000
# 4 0.0000 0.0000 0.0000 18.7300 0.0000 0.0000
# 5 0.0000 0.0000 0.0000 0.0000 18.4355 0.0000
# 6 0.0000 0.0000 0.0000 0.0000 0.0000 70.1234
#
#
#
# Elastic Compliance Matrix: (Units=1/GPa)
#
#
# Indices 1 2 3 4 5 6 
#
# 1 0.011830 -0.007123 0.001840 0.000000 0.000000 0.000000
# 2 -0.007123 0.013936 -0.003902 0.000000 0.000000 0.000000
# 3 0.001840 -0.003902 0.015629 0.000000 0.000000 0.000000
# 4 0.000000 0.000000 0.000000 0.053390 0.000000 0.000000
# 5 0.000000 0.000000 0.000000 0.000000 0.054243 0.000000
# 6 0.000000 0.000000 0.000000 0.000000 0.000000 0.014261
#
#
# Mechanical properties :
#
#
# Convention : Reuss Voigt Hill
#
# Bulk Modulus (GPa) = 43.43009 52.04447 47.73728
# Shear Modulus (GPa) = 26.40839 35.88156 31.14497
#
# Velocity S-wave (km/s) = 3.27993 3.82322 3.56195
# Velocity P-wave (km/s) = 5.66004 6.37892 6.03020
#
# Compressibility (1/GPa) = 0.02302551
#
# Stress axis : x y z
#
# Youngs Moduli (GPa) = 84.52963 71.75878 63.98244
#
# Poissons Ratio (x) = 0.51114 -0.11772
# Poissons Ratio (y) = 0.60210 0.24964
# Poissons Ratio (z) = -0.15553 0.27998
#
# Static dielectric constant tensor:
#      x y z
#    x 3.138770 0.000000 0.000000 
#    y 0.000000 1.883430 0.000000 
#    z 0.000000 0.000000 1.919620 
# 
# From -- ./inp_files/17760.got.cif
#   From: 2010.05.17/outbox.cif.g08.bks.cpg/sg22_9_cif.got.tgz:17760.got - 2010.06.03 23:40:54.
