data_PCOD9329950
_publ_section_title
;
Structure prediction by ZEFSAII (Michael W. Deem and Ramdas Pophale) SiO2 
 PCOD9329950
Probable space group: I 2 2 2
;
_chemical_formula_sum "Si O2"
_cell_formula_units_Z 60
_cell_length_a 21.725098
_cell_length_b 17.920893
_cell_length_c 7.385854
_cell_angle_alpha 90.000000
_cell_angle_beta 90.000000
_cell_angle_gamma 90.000000
_cell_volume 2875.557853
_symmetry_space_group_name_H-M "I 2 2 2"
_symmetry_group_IT_number 23
_symmetry_cell_setting 'orthorhombic'
loop_
_space_group_symop_operation_xyz
x,y,z
-x,-y,z
x,-y,-z
-x,y,-z
1/2+x,1/2+y,1/2+z
1/2-x,1/2-y,1/2+z
1/2+x,1/2-y,1/2-z
1/2-x,1/2+y,1/2-z
loop_
_atom_site_type_symbol
_atom_site_label
_atom_site_fract_x
_atom_site_fract_y
_atom_site_fract_z
Si Si1 0.663837 0.500000 0.000000
Si Si2 0.307380 0.686523 0.468637
Si Si3 0.646048 0.656456 0.910683
Si Si4 0.751439 0.948445 0.822789
Si Si5 0.609473 0.077570 0.265273
Si Si6 0.100962 0.587492 0.183437
Si Si7 0.782363 0.330446 0.160562
Si Si8 0.569294 0.202718 0.980029
O O1 0.624810 0.575290 0.973015
O O2 0.708002 0.491137 0.825589
O O3 0.355053 0.666515 0.308798
O O4 0.292216 0.621831 0.609516
O O5 0.243783 0.694766 0.354214
O O6 0.319520 0.764690 0.564230
O O7 0.719781 0.654899 0.948677
O O8 0.614127 0.726941 0.000860
O O9 0.684258 0.923118 0.750820
O O10 0.742006 0.000000 0.000000
O O11 0.587235 0.090082 0.470964
O O12 0.587417 0.992674 0.228834
O O13 0.585534 0.141331 0.133369
O O14 0.174920 0.598871 0.188633
O O15 0.074786 0.655791 0.295843
O O16 0.500000 0.229675 0.000000
#
# Coordination Sequence:
#
# PCOD9329950 Si02
#       8
#     4   8   8   8   8   8   8   8
#     4  12  24  38  65  98 138 173 218 270 352 416
#     4  10  22  31  56  88 137 177 211 261 324 405
#     4  10  23  41  59  95 128 170 224 279 335 405
#     4  12  21  38  58  98 142 177 205 264 339 419
#     4  11  23  39  64  95 136 169 225 269 327 403
#     4  11  23  39  65 101 128 177 218 274 337 393
#     4  10  19  35  56  96 132 171 207 261 339 406
#     4  12  27  47  67  89 131 183 235 281 330 392
#
# _framework density 20.865516
#
# number of rings (size 3 to 8) (size 9 to 14) (size 15 to 20)
#    0.800    0.267    1.333    7.600    5.600    1.600 
#    0.000    1.667    0.000    0.000    0.000    0.000 
#    0.000    0.000    0.000    0.000    0.000    0.000 
#
# Total GULP energy -167624.907796 kJ/mol
# GULP energy per Si atom -5587.496927 kJ/mol
# Density = 2.081803 g / cm^3
# Si number density = 20.865516 Si / 1000 Ang^3
#
#
#
# Elastic Constant Matrix: (Units=GPa)
#
#
# Indices 1 2 3 4 5 6 
#
# 1 45.9692 15.4723 -1.1861 0.0000 0.0000 0.0000
# 2 15.4723 134.2848 37.6105 0.0000 0.0000 0.0000
# 3 -1.1861 37.6105 98.5913 0.0000 0.0000 0.0000
# 4 0.0000 0.0000 0.0000 40.7034 0.0000 0.0000
# 5 0.0000 0.0000 0.0000 0.0000 0.8176 0.0000
# 6 0.0000 0.0000 0.0000 0.0000 0.0000 3.4886
#
#
#
# Elastic Compliance Matrix: (Units=1/GPa)
#
#
# Indices 1 2 3 4 5 6 
#
# 1 0.022810 -0.003029 0.001430 0.000000 0.000000 0.000000
# 2 -0.003029 0.008740 -0.003370 0.000000 0.000000 0.000000
# 3 0.001430 -0.003370 0.011446 0.000000 0.000000 0.000000
# 4 0.000000 0.000000 0.000000 0.024568 0.000000 0.000000
# 5 0.000000 0.000000 0.000000 0.000000 1.223147 0.000000
# 6 0.000000 0.000000 0.000000 0.000000 0.000000 0.286648
#
#
# Mechanical properties :
#
#
# Convention : Reuss Voigt Hill
#
# Bulk Modulus (GPa) = 30.25080 42.51541 36.38311
# Shear Modulus (GPa) = 3.12829 24.13182 13.63005
#
# Velocity S-wave (km/s) = 1.22577 3.40448 2.55862
# Velocity P-wave (km/s) = 4.06606 5.98951 5.11894
#
# Compressibility (1/GPa) = 0.03305698
#
# Stress axis : x y z
#
# Youngs Moduli (GPa) = 43.84047 114.41880 87.36789
#
# Poissons Ratio (x) = 0.34653 -0.12492
# Poissons Ratio (y) = 0.13278 0.29447
# Poissons Ratio (z) = -0.06268 0.38565
#
# Static dielectric constant tensor:
#      x y z
#    x 1.733820 0.000000 0.000000 
#    y 0.000000 1.782070 0.000000 
#    z 0.000000 0.000000 1.802550 
# 
# From -- ./inp_files/12191.got.cif
#   From: 2010.05.17/outbox.cif.g08.bks.cpg/sg23_7_cif.got.tgz:12191.got - 2010.06.04 12:02:01.
