data_PCOD9329361
_publ_section_title
;
Structure prediction by ZEFSAII (Michael W. Deem and Ramdas Pophale) SiO2 
 PCOD9329361
Probable space group: I 2 2 2
;
_chemical_formula_sum "Si O2"
_cell_formula_units_Z 40
_cell_length_a 5.240333
_cell_length_b 12.352050
_cell_length_c 28.531626
_cell_angle_alpha 90.000000
_cell_angle_beta 90.000000
_cell_angle_gamma 90.000000
_cell_volume 1846.819489
_symmetry_space_group_name_H-M "I 2 2 2"
_symmetry_group_IT_number 23
_symmetry_cell_setting 'orthorhombic'
loop_
_space_group_symop_operation_xyz
x,y,z
-x,-y,z
x,-y,-z
-x,y,-z
1/2+x,1/2+y,1/2+z
1/2-x,1/2-y,1/2+z
1/2+x,1/2-y,1/2-z
1/2-x,1/2+y,1/2-z
loop_
_atom_site_type_symbol
_atom_site_label
_atom_site_fract_x
_atom_site_fract_y
_atom_site_fract_z
Si Si1 0.249921 0.296924 0.531065
Si Si2 0.998179 0.251717 0.810774
Si Si3 0.509871 0.370697 0.789584
Si Si4 0.248377 0.570521 0.377208
Si Si5 0.253738 0.952406 0.446114
O O1 0.500000 0.322477 0.500000
O O2 0.191955 0.379690 0.572261
O O3 0.278686 0.175541 0.551197
O O4 0.000000 0.292228 0.500000
O O5 0.789485 0.345496 0.808883
O O6 0.006339 0.184415 0.762052
O O7 0.860280 0.167604 0.845691
O O8 0.277991 0.307365 0.816683
O O9 0.500000 0.500000 0.786318
O O10 0.500000 0.500000 0.382460
O O11 0.000000 0.500000 0.360699
O O12 0.500000 0.000000 0.421803
O O13 0.252011 0.000000 0.500000
O O14 0.000000 0.000000 0.423796
#
# Coordination Sequence:
#
# PCOD9329361 Si02
#       5
#     8   8   8   8   8
#     4  12  23  39  64  89 119 159 218 268 309 381
#     4  10  22  40  64  97 130 173 215 256 320 393
#     4  10  20  38  69  98 131 166 212 264 313 383
#     4  12  27  45  63  88 128 170 217 269 324 381
#     4  10  16  32  58  84 108 143 189 248 301 383
#
# _framework density 21.658857000000001
#
# number of rings (size 3 to 8) (size 9 to 14) (size 15 to 20)
#    0.000    1.200    4.000    3.600    0.000    5.600 
#    0.000    3.000    0.000    0.000    0.000    0.000 
#    0.000    0.000    0.000    0.000    0.000    0.000 
#
# Total GULP energy -111592.954905 kJ/mol
# GULP energy per Si atom -5579.647745 kJ/mol
# Density = 2.160956 g / cm^3
# Si number density = 21.658857 Si / 1000 Ang^3
#
#
#
# Elastic Constant Matrix: (Units=GPa)
#
#
# Indices 1 2 3 4 5 6 
#
# 1 144.4869 11.4230 10.1377 0.0000 0.0000 0.0000
# 2 11.4230 81.1272 -4.3773 0.0000 0.0000 0.0000
# 3 10.1377 -4.3773 8.6853 0.0000 0.0000 0.0000
# 4 0.0000 0.0000 0.0000 -18.3092 0.0000 0.0000
# 5 0.0000 0.0000 0.0000 0.0000 -75.3390 0.0000
# 6 0.0000 0.0000 0.0000 0.0000 0.0000 53.1094
#
#
#
# Elastic Compliance Matrix: (Units=1/GPa)
#
#
# Indices 1 2 3 4 5 6 
#
# 1 0.007740 -0.001621 -0.009852 0.000000 0.000000 0.000000
# 2 -0.001621 0.013011 0.008450 0.000000 0.000000 0.000000
# 3 -0.009852 0.008450 0.130895 0.000000 0.000000 0.000000
# 4 0.000000 0.000000 0.000000 -0.054617 0.000000 0.000000
# 5 0.000000 0.000000 0.000000 0.000000 -0.013273 0.000000
# 6 0.000000 0.000000 0.000000 0.000000 0.000000 0.018829
#
#
# Mechanical properties :
#
#
# Convention : Reuss Voigt Hill
#
# Bulk Modulus (GPa) = 6.86820 29.85182 18.36001
# Shear Modulus (GPa) = 31.81374 6.36662 19.09018
#
# Velocity S-wave (km/s) = 3.83672 1.71636 2.97206
# Velocity P-wave (km/s) = 4.77548 4.21195 4.50254
#
# Compressibility (1/GPa) = 0.14559848
#
# Stress axis : x y z
#
# Youngs Moduli (GPa) = 129.19086 76.86073 7.63971
#
# Poissons Ratio (x) = 0.12463 0.07527
# Poissons Ratio (y) = 0.20948 -0.06455
# Poissons Ratio (z) = 1.27280 -0.64945
#
# Static dielectric constant tensor:
#      x y z
#    x 1.753470 0.000000 0.000000 
#    y 0.000000 2.103100 0.000000 
#    z 0.000000 0.000000 1.814800 
# 
# From -- ./inp_files/28864.got.cif
#   From: 2010.05.17/outbox.cif.g08.bks.cpg/sg23_15_cif.got.tgz:28864.got - 2010.06.04 12:02:01.
