data_PCOD9329500
_publ_section_title
;
Structure prediction by ZEFSAII (Michael W. Deem and Ramdas Pophale) SiO2 
 PCOD9329500
Probable space group: I 2 2 2
;
_chemical_formula_sum "Si O2"
_cell_formula_units_Z 32
_cell_length_a 31.265456
_cell_length_b 7.128468
_cell_length_c 5.841537
_cell_angle_alpha 90.000000
_cell_angle_beta 90.000000
_cell_angle_gamma 90.000000
_cell_volume 1301.931406
_symmetry_space_group_name_H-M "I 2 2 2"
_symmetry_group_IT_number 23
_symmetry_cell_setting 'orthorhombic'
loop_
_space_group_symop_operation_xyz
x,y,z
-x,-y,z
x,-y,-z
-x,y,-z
1/2+x,1/2+y,1/2+z
1/2-x,1/2-y,1/2+z
1/2+x,1/2-y,1/2-z
1/2-x,1/2+y,1/2-z
loop_
_atom_site_type_symbol
_atom_site_label
_atom_site_fract_x
_atom_site_fract_y
_atom_site_fract_z
Si Si1 0.984156 0.220764 0.248446
Si Si2 0.694808 0.788117 0.636199
Si Si3 0.611872 0.305356 0.633179
Si Si4 0.834047 0.000000 0.500000
Si Si5 0.260999 0.000000 0.000000
O O1 0.933726 0.263563 0.220506
O O2 0.000000 0.288372 0.500000
O O3 0.000000 0.000000 0.250080
O O4 0.000000 0.291032 0.000000
O O5 0.647358 0.795449 0.526136
O O6 0.691617 0.626137 0.828214
O O7 0.709665 0.973339 0.772391
O O8 0.730782 0.683853 0.486094
O O9 0.602023 0.500000 0.500000
O O10 0.637226 0.358277 0.859243
#
# Coordination Sequence:
#
# PCOD9329500 Si02
#       5
#     8   8   8   4   4
#     4  10  18  28  50  87 128 181 213 276 345 430
#     4  11  24  40  62  90 129 182 233 299 348 424
#     4  10  19  34  54  87 131 180 225 277 367 410
#     4  10  18  38  59  86 122 178 210 296 343 412
#     4  12  24  44  64  92 129 187 248 290 360 412
#
# _framework density 24.578866999999999
#
# number of rings (size 3 to 8) (size 9 to 14) (size 15 to 20)
#    0.000    1.500    6.250    3.000    3.500    0.000 
#    0.000    0.000    0.000    0.000    0.000    0.000 
#    0.000    6.000   10.500    0.000    0.000    0.000 
#
# Total GULP energy -89246.880024 kJ/mol
# GULP energy per Si atom -5577.930001 kJ/mol
# Density = 2.452292 g / cm^3
# Si number density = 24.578867 Si / 1000 Ang^3
#
#
#
# Elastic Constant Matrix: (Units=GPa)
#
#
# Indices 1 2 3 4 5 6 
#
# 1 192.1578 49.5362 81.6068 0.0000 -0.0001 0.0000
# 2 49.5362 96.7414 35.4114 0.0000 -0.0002 0.0000
# 3 81.6068 35.4114 158.2466 0.0000 -0.0004 0.0000
# 4 0.0000 0.0000 0.0000 23.5031 -0.0003 0.0000
# 5 -0.0001 -0.0002 -0.0004 -0.0003 0.5461 -0.0002
# 6 0.0000 0.0000 0.0000 0.0000 -0.0002 8.7871
#
#
#
# Elastic Compliance Matrix: (Units=1/GPa)
#
#
# Indices 1 2 3 4 5 6 
#
# 1 0.007191 -0.002532 -0.003142 0.000000 -0.000002 0.000000
# 2 -0.002532 0.012151 -0.001413 0.000000 0.000003 0.000000
# 3 -0.003142 -0.001413 0.008256 0.000000 0.000005 0.000000
# 4 0.000000 0.000000 0.000000 0.042548 0.000023 0.000000
# 5 -0.000002 0.000003 0.000005 0.000023 1.831320 0.000042
# 6 0.000000 0.000000 0.000000 0.000000 0.000042 0.113803
#
#
# Mechanical properties :
#
#
# Convention : Reuss Voigt Hill
#
# Bulk Modulus (GPa) = 74.49767 86.69495 80.59631
# Shear Modulus (GPa) = 2.45831 25.27335 13.86583
#
# Velocity S-wave (km/s) = 1.00117 3.21012 2.37773
# Velocity P-wave (km/s) = 5.63133 7.00632 6.35612
#
# Compressibility (1/GPa) = 0.01342324
#
# Stress axis : x y z
#
# Youngs Moduli (GPa) = 139.06103 82.29972 121.12886
#
# Poissons Ratio (x) = 0.20840 0.38056
# Poissons Ratio (y) = 0.35213 0.17118
# Poissons Ratio (z) = 0.43690 0.11630
#
# Static dielectric constant tensor:
#      x y z
#    x 1.966920 0.000000 0.000000 
#    y 0.000000 2.019810 0.000000 
#    z 0.000000 0.000000 2.318880 
# 
# From -- ./inp_files/825.got.cif
#   From: 2010.05.17/outbox.cif.g08.bks.cpg/sg23_1_cif.got.tgz:825.got - 2010.06.04 12:02:01.
