data_PCOD9329177
_publ_section_title
;
Structure prediction by ZEFSAII (Michael W. Deem and Ramdas Pophale) SiO2 
 PCOD9329177
Probable space group: F 2 2 2
;
_chemical_formula_sum "Si O2"
_cell_formula_units_Z 92
_cell_length_a 26.598692
_cell_length_b 8.218367
_cell_length_c 20.075335
_cell_angle_alpha 90.000000
_cell_angle_beta 90.000000
_cell_angle_gamma 90.000000
_cell_volume 4388.424318
_symmetry_space_group_name_H-M "F 2 2 2"
_symmetry_group_IT_number 22
_symmetry_cell_setting 'orthorhombic'
loop_
_space_group_symop_operation_xyz
x,y,z
-x,-y,z
x,-y,-z
-x,y,-z
x,1/2+y,1/2+z
-x,1/2-y,1/2+z
x,1/2-y,1/2-z
-x,1/2+y,1/2-z
1/2+x,y,1/2+z
1/2-x,-y,1/2+z
1/2+x,-y,1/2-z
1/2-x,y,1/2-z
1/2+x,1/2+y,z
1/2-x,1/2-y,z
1/2+x,1/2-y,-z
1/2-x,1/2+y,-z
loop_
_atom_site_type_symbol
_atom_site_label
_atom_site_fract_x
_atom_site_fract_y
_atom_site_fract_z
Si Si1 0.852441 0.186317 0.520997
Si Si2 0.225804 0.911713 0.175504
Si Si3 0.064928 0.161818 0.106465
Si Si4 0.000000 0.500000 0.500000
Si Si5 0.380901 0.673684 0.121460
Si Si6 0.025747 0.325119 0.819461
Si Si7 0.250000 0.250000 0.097515
O O1 0.891204 0.221063 0.581402
O O2 0.862842 0.295123 0.454758
O O3 0.797975 0.220511 0.551159
O O4 0.856570 0.000000 0.500000
O O5 0.250000 0.922810 0.250000
O O6 0.250000 0.750000 0.142377
O O7 0.167151 0.859888 0.168998
O O8 0.238089 0.084595 0.140112
O O9 0.021586 0.220638 0.154943
O O10 0.088874 0.993671 0.128976
O O11 0.034833 0.117692 0.040728
O O12 0.423191 0.810702 0.137172
O O13 0.042016 0.250000 0.750000
O O14 0.000000 0.500000 0.814425
#
# Coordination Sequence:
#
# PCOD9329177 Si02
#       7
#    16  16  16   4  16  16   8
#     4  12  26  42  71 109 147 194 245 308 377 443
#     4  11  27  50  74 107 147 205 257 309 380 445
#     4  12  22  44  71 105 142 194 235 299 375 442
#     4  12  20  40  74 100 144 184 234 290 384 438
#     4  12  24  47  72 104 150 190 247 309 375 441
#     4  12  27  48  74 110 149 194 248 303 373 461
#     4  12  27  48  74 112 153 194 262 322 372 454
#
# _framework density 20.964244000000001
#
# number of rings (size 3 to 8) (size 9 to 14) (size 15 to 20)
#    0.000    0.174    5.217    3.391    6.087    0.000 
#    3.130    1.739    0.000    0.000    0.000    0.000 
#    0.000    0.000    0.000    0.000    0.000    0.000 
#
# Total GULP energy -128360.512281 kJ/mol
# GULP energy per Si atom -5580.891838 kJ/mol
# Density = 2.091653 g / cm^3
# Si number density = 20.964244 Si / 1000 Ang^3
#
#
#
# Elastic Constant Matrix: (Units=GPa)
#
#
# Indices 1 2 3 4 5 6 
#
# 1 150.0171 24.9385 24.6108 0.0000 0.0000 0.0000
# 2 24.9385 117.4690 7.5585 0.0000 0.0000 0.0000
# 3 24.6108 7.5585 53.0285 0.0000 0.0000 0.0000
# 4 0.0000 0.0000 0.0000 18.9193 0.0000 0.0000
# 5 0.0000 0.0000 0.0000 0.0000 44.6448 0.0000
# 6 0.0000 0.0000 0.0000 0.0000 0.0000 25.5844
#
#
#
# Elastic Compliance Matrix: (Units=1/GPa)
#
#
# Indices 1 2 3 4 5 6 
#
# 1 0.007427 -0.001367 -0.003252 0.000000 0.000000 0.000000
# 2 -0.001367 0.008843 -0.000626 0.000000 0.000000 0.000000
# 3 -0.003252 -0.000626 0.020456 0.000000 0.000000 0.000000
# 4 0.000000 0.000000 0.000000 0.052856 0.000000 0.000000
# 5 0.000000 0.000000 0.000000 0.000000 0.022399 0.000000
# 6 0.000000 0.000000 0.000000 0.000000 0.000000 0.039086
#
#
# Mechanical properties :
#
#
# Convention : Reuss Voigt Hill
#
# Bulk Modulus (GPa) = 38.11556 48.30334 43.20945
# Shear Modulus (GPa) = 29.35936 35.39016 32.37476
#
# Velocity S-wave (km/s) = 3.74632 4.11313 3.93400
# Velocity P-wave (km/s) = 6.07733 6.75633 6.42580
#
# Compressibility (1/GPa) = 0.02623601
#
# Stress axis : x y z
#
# Youngs Moduli (GPa) = 134.64921 113.07789 48.88497
#
# Poissons Ratio (x) = 0.15463 0.15897
# Poissons Ratio (y) = 0.18412 0.03060
# Poissons Ratio (z) = 0.43786 0.07077
#
# Static dielectric constant tensor:
#      x y z
#    x 1.850910 0.000000 0.000000 
#    y 0.000000 1.774150 0.000000 
#    z 0.000000 0.000000 1.902450 
# 
# From -- ./inp_files/45736.got.cif
#   From: 2010.05.17/outbox.cif.g08.bks.cpg/sg22_23_cif.got.tgz:45736.got - 2010.06.03 23:40:54.
