data_PCOD9329849
_publ_section_title
;
Structure prediction by ZEFSAII (Michael W. Deem and Ramdas Pophale) SiO2 
 PCOD9329849
Probable space group: I 2 2 2
;
_chemical_formula_sum "Si O2"
_cell_formula_units_Z 58
_cell_length_a 8.181699
_cell_length_b 22.730281
_cell_length_c 14.334510
_cell_angle_alpha 90.000000
_cell_angle_beta 90.000000
_cell_angle_gamma 90.000000
_cell_volume 2665.822042
_symmetry_space_group_name_H-M "I 2 2 2"
_symmetry_group_IT_number 23
_symmetry_cell_setting 'orthorhombic'
loop_
_space_group_symop_operation_xyz
x,y,z
-x,-y,z
x,-y,-z
-x,y,-z
1/2+x,1/2+y,1/2+z
1/2-x,1/2-y,1/2+z
1/2+x,1/2-y,1/2-z
1/2-x,1/2+y,1/2-z
loop_
_atom_site_type_symbol
_atom_site_label
_atom_site_fract_x
_atom_site_fract_y
_atom_site_fract_z
Si Si1 0.071434 0.183541 0.339204
Si Si2 0.505702 0.430085 0.396008
Si Si3 0.905042 0.313785 0.086397
Si Si4 0.365101 0.787535 0.790223
Si Si5 0.000000 0.500000 0.500000
Si Si6 0.406912 0.436123 0.204899
Si Si7 0.868933 0.412896 0.345751
Si Si8 0.464459 0.937012 0.352388
O O1 0.208887 0.192572 0.418741
O O2 0.181670 0.199867 0.247250
O O3 0.918451 0.227564 0.338691
O O4 0.014874 0.116365 0.337206
O O5 0.500000 0.500000 0.408244
O O6 0.500000 0.403438 0.500000
O O7 0.374501 0.418997 0.314767
O O8 0.673792 0.414943 0.345130
O O9 0.952615 0.289455 0.188348
O O10 0.955343 0.382052 0.095806
O O11 0.000000 0.286724 0.000000
O O12 0.417484 0.844265 0.850641
O O13 0.092666 0.544267 0.431330
O O14 0.500000 0.500000 0.199780
O O15 0.230400 0.434130 0.157917
O O16 0.949657 0.435559 0.250394
O O17 0.500000 0.000000 0.394958
#
# Coordination Sequence:
#
# PCOD9329849 Si02
#       8
#     8   8   8   8   2   8   8   8
#     4  10  21  41  70  91 133 173 226 279 337 426
#     4  10  19  33  53  85 130 169 211 269 331 399
#     4   9  21  42  68  94 125 165 228 278 341 405
#     4   9  22  41  66  91 132 175 232 269 345 415
#     4  12  24  32  66  88 146 172 228 284 328 388
#     4  11  22  37  64  96 126 171 224 271 352 422
#     4  11  22  38  55  96 129 180 226 271 334 411
#     4  11  21  36  63  93 134 173 214 276 353 414
#
# _framework density 21.756889999999999
#
# number of rings (size 3 to 8) (size 9 to 14) (size 15 to 20)
#    0.828    0.966    2.069    3.310    5.793    0.276 
#    0.000    2.759    0.000    0.828    0.000    0.000 
#    0.000    0.000    0.000    0.000    0.000    0.000 
#
# Total GULP energy -161492.042798 kJ/mol
# GULP energy per Si atom -5568.691131 kJ/mol
# Density = 2.170737 g / cm^3
# Si number density = 21.756890 Si / 1000 Ang^3
#
#
#
# Elastic Constant Matrix: (Units=GPa)
#
#
# Indices 1 2 3 4 5 6 
#
# 1 92.7429 32.1442 13.1058 0.0000 0.0000 0.0000
# 2 32.1442 99.4465 15.8508 0.0000 0.0000 0.0000
# 3 13.1058 15.8508 48.2443 -0.0002 0.0000 -0.0001
# 4 0.0000 0.0000 -0.0002 -19.0957 0.0000 0.0000
# 5 0.0000 0.0000 0.0000 0.0000 -0.7066 0.0000
# 6 0.0000 0.0000 -0.0001 0.0000 0.0000 32.6845
#
#
#
# Elastic Compliance Matrix: (Units=1/GPa)
#
#
# Indices 1 2 3 4 5 6 
#
# 1 0.012352 -0.003649 -0.002157 0.000000 0.000000 0.000000
# 2 -0.003649 0.011689 -0.002849 0.000000 0.000000 0.000000
# 3 -0.002157 -0.002849 0.022250 0.000000 -0.000001 0.000000
# 4 0.000000 0.000000 0.000000 -0.052368 0.000001 0.000000
# 5 0.000000 0.000000 -0.000001 0.000001 -1.415256 -0.000001
# 6 0.000000 0.000000 0.000000 0.000000 -0.000001 0.030595
#
#
# Mechanical properties :
#
#
# Convention : Reuss Voigt Hill
#
# Bulk Modulus (GPa) = 34.50474 40.29280 37.39877
# Shear Modulus (GPa) = -3.66631 14.53197 5.43283
#
# Velocity S-wave (km/s) = -1.29953 2.58723 1.58192
# Velocity P-wave (km/s) = 3.69350 5.24259 4.53468
#
# Compressibility (1/GPa) = 0.02898152
#
# Stress axis : x y z
#
# Youngs Moduli (GPa) = 80.95918 85.54896 44.94409
#
# Poissons Ratio (x) = 0.31215 0.09693
# Poissons Ratio (y) = 0.29540 0.12806
# Poissons Ratio (z) = 0.17460 0.24376
#
# Static dielectric constant tensor:
#      x y z
#    x 1.893160 0.000000 0.000000 
#    y 0.000000 1.762400 0.000000 
#    z 0.000000 0.000000 1.901520 
# 
# From -- ./inp_files/20309.got.cif
#   From: 2010.05.17/outbox.cif.g08.bks.cpg/sg23_11_cif.got.tgz:20309.got - 2010.06.04 12:02:01.
