data_PCOD9329095
_publ_section_title
;
Structure prediction by ZEFSAII (Michael W. Deem and Ramdas Pophale) SiO2 
 PCOD9329095
Probable space group: F 2 2 2
;
_chemical_formula_sum "Si O2"
_cell_formula_units_Z 64
_cell_length_a 23.400600
_cell_length_b 7.477584
_cell_length_c 15.531387
_cell_angle_alpha 90.000000
_cell_angle_beta 90.000000
_cell_angle_gamma 90.000000
_cell_volume 2717.681354
_symmetry_space_group_name_H-M "F 2 2 2"
_symmetry_group_IT_number 22
_symmetry_cell_setting 'orthorhombic'
loop_
_space_group_symop_operation_xyz
x,y,z
-x,-y,z
x,-y,-z
-x,y,-z
x,1/2+y,1/2+z
-x,1/2-y,1/2+z
x,1/2-y,1/2-z
-x,1/2+y,1/2-z
1/2+x,y,1/2+z
1/2-x,-y,1/2+z
1/2+x,-y,1/2-z
1/2-x,y,1/2-z
1/2+x,1/2+y,z
1/2-x,1/2-y,z
1/2+x,1/2-y,-z
1/2-x,1/2+y,-z
loop_
_atom_site_type_symbol
_atom_site_label
_atom_site_fract_x
_atom_site_fract_y
_atom_site_fract_z
Si Si1 0.814036 0.785478 0.350343
Si Si2 0.120315 0.839370 0.342598
Si Si3 0.904055 0.686865 0.474342
Si Si4 0.008654 0.216511 0.158900
O O1 0.812779 0.750000 0.250000
O O2 0.750000 0.750000 0.383443
O O3 0.855771 0.657255 0.402927
O O4 0.843806 0.979558 0.355044
O O5 0.139155 0.750000 0.250000
O O6 0.124795 0.758756 0.439412
O O7 0.050905 0.824031 0.335509
O O8 0.930674 0.500000 0.500000
O O9 0.954150 0.784018 0.421625
O O10 0.040054 0.250000 0.250000
O O11 0.000000 0.000000 0.155142
#
# Coordination Sequence:
#
# PCOD9329095 Si02
#       4
#    16  16  16  16
#     4  11  27  51  74 105 148 197 261 325 371 441
#     4  11  25  46  77 110 150 201 250 307 385 449
#     4  12  24  43  76 112 156 199 249 306 376 457
#     4  11  25  43  74 114 158 200 238 304 377 458
#
# _framework density 23.549485000000001
#
# number of rings (size 3 to 8) (size 9 to 14) (size 15 to 20)
#    0.000    0.750    2.500    3.750   10.500    2.000 
#    0.000   10.000    0.000    0.000    0.000    0.000 
#    0.000    0.000    0.000    0.000    0.000    0.000 
#
# Total GULP energy -89197.714765 kJ/mol
# GULP energy per Si atom -5574.857173 kJ/mol
# Density = 2.349589 g / cm^3
# Si number density = 23.549485 Si / 1000 Ang^3
#
#
#
# Elastic Constant Matrix: (Units=GPa)
#
#
# Indices 1 2 3 4 5 6 
#
# 1 127.7273 41.6998 33.2520 0.0000 0.0000 0.0000
# 2 41.6998 113.9349 27.1887 0.0000 0.0000 0.0000
# 3 33.2520 27.1887 142.0122 0.0000 0.0000 0.0000
# 4 0.0000 0.0000 0.0000 39.4523 0.0000 0.0000
# 5 0.0000 0.0000 0.0000 0.0000 24.0312 0.0000
# 6 0.0000 0.0000 0.0000 0.0000 0.0000 18.6701
#
#
#
# Elastic Compliance Matrix: (Units=1/GPa)
#
#
# Indices 1 2 3 4 5 6 
#
# 1 0.009220 -0.002996 -0.001585 0.000000 0.000000 0.000000
# 2 -0.002996 0.010171 -0.001246 0.000000 0.000000 0.000000
# 3 -0.001585 -0.001246 0.007651 0.000000 0.000000 0.000000
# 4 0.000000 0.000000 0.000000 0.025347 0.000000 0.000000
# 5 0.000000 0.000000 0.000000 0.000000 0.041612 0.000000
# 6 0.000000 0.000000 0.000000 0.000000 0.000000 0.053562
#
#
# Mechanical properties :
#
#
# Convention : Reuss Voigt Hill
#
# Bulk Modulus (GPa) = 64.98598 65.32839 65.15718
# Shear Modulus (GPa) = 30.42346 35.19966 32.81156
#
# Velocity S-wave (km/s) = 3.59819 3.87034 3.73675
# Velocity P-wave (km/s) = 6.70209 6.91186 6.80779
#
# Compressibility (1/GPa) = 0.01538793
#
# Stress axis : x y z
#
# Youngs Moduli (GPa) = 108.45908 98.32063 130.69645
#
# Poissons Ratio (x) = 0.29459 0.20718
# Poissons Ratio (y) = 0.32497 0.16281
# Poissons Ratio (z) = 0.17193 0.12248
#
# Static dielectric constant tensor:
#      x y z
#    x 1.901590 0.000000 0.000000 
#    y 0.000000 2.056460 0.000000 
#    z 0.000000 0.000000 1.967130 
# 
# From -- ./inp_files/26868.got.cif
#   From: 2010.05.17/outbox.cif.g08.bks.cpg/sg22_14_cif.got.tgz:26868.got - 2010.06.03 23:40:54.
