data_PCOD9329891
_publ_section_title
;
Structure prediction by ZEFSAII (Michael W. Deem and Ramdas Pophale) SiO2 
 PCOD9329891
Probable space group: I 2 2 2
;
_chemical_formula_sum "Si O2"
_cell_formula_units_Z 64
_cell_length_a 16.714689
_cell_length_b 30.239706
_cell_length_c 5.657828
_cell_angle_alpha 90.000000
_cell_angle_beta 90.000000
_cell_angle_gamma 90.000000
_cell_volume 2859.733780
_symmetry_space_group_name_H-M "I 2 2 2"
_symmetry_group_IT_number 23
_symmetry_cell_setting 'orthorhombic'
loop_
_space_group_symop_operation_xyz
x,y,z
-x,-y,z
x,-y,-z
-x,y,-z
1/2+x,1/2+y,1/2+z
1/2-x,1/2-y,1/2+z
1/2+x,1/2-y,1/2-z
1/2-x,1/2+y,1/2-z
loop_
_atom_site_type_symbol
_atom_site_label
_atom_site_fract_x
_atom_site_fract_y
_atom_site_fract_z
Si Si1 0.848783 0.697029 0.526793
Si Si2 0.318057 0.718347 0.310283
Si Si3 0.808208 0.049064 0.005646
Si Si4 0.323611 0.428605 0.001650
Si Si5 0.133005 0.447748 0.977867
Si Si6 0.916425 0.154989 0.513261
Si Si7 0.360871 0.905202 0.029224
Si Si8 0.069684 0.238895 0.813898
O O1 0.767951 0.695743 0.684553
O O2 0.829563 0.737366 0.345144
O O3 0.866997 0.647632 0.448739
O O4 0.923992 0.716823 0.665216
O O5 0.344025 0.733443 0.567600
O O6 0.383973 0.681717 0.238454
O O7 0.854559 0.049865 0.255083
O O8 0.734347 0.082969 0.023836
O O9 0.854176 0.059115 0.761569
O O10 0.771322 0.000000 0.000000
O O11 0.230009 0.441309 0.983732
O O12 0.343869 0.377394 0.044070
O O13 0.108508 0.425429 0.724379
O O14 0.115343 0.500000 0.000000
O O15 0.105179 0.425905 0.226501
O O16 0.936203 0.194396 0.333806
O O17 0.000000 0.128516 0.500000
O O18 0.000000 0.242736 0.000000
#
# Coordination Sequence:
#
# PCOD9329891 Si02
#       8
#     8   8   8   8   8   8   8   8
#     4  11  24  35  60  91 119 162 209 268 320 368
#     4  11  22  39  57  84 121 157 206 260 318 365
#     4  10  19  35  56  82 116 160 195 244 328 385
#     4  10  20  31  55  81 107 146 205 260 295 356
#     4  10  19  34  55  83 121 165 194 245 329 385
#     4  11  24  38  58  85 112 162 221 259 305 365
#     4  10  20  31  54  83 119 153 200 249 303 374
#     4  11  24  42  62  80 124 172 206 256 316 386
#
# _framework density 22.379704
#
# number of rings (size 3 to 8) (size 9 to 14) (size 15 to 20)
#    0.000    1.500    2.500    5.250    7.000    0.000 
#    0.000    0.000    0.000    4.125    0.000    0.000 
#    0.000    0.500    1.500    0.000    0.000    0.000 
#
# Total GULP energy -178230.365610 kJ/mol
# GULP energy per Si atom -5569.698925 kJ/mol
# Density = 2.232877 g / cm^3
# Si number density = 22.379704 Si / 1000 Ang^3
#
#
#
# Elastic Constant Matrix: (Units=GPa)
#
#
# Indices 1 2 3 4 5 6 
#
# 1 31.3160 -1.2471 6.5157 0.0321 -0.0095 -0.0011
# 2 -1.2471 114.0022 13.6109 0.0967 -0.0191 0.0096
# 3 6.5157 13.6109 143.8308 0.2503 -0.0745 0.0745
# 4 0.0321 0.0967 0.2503 -34.2319 -0.0179 0.1428
# 5 -0.0095 -0.0191 -0.0745 -0.0179 14.9376 0.0301
# 6 -0.0011 0.0096 0.0745 0.1428 0.0301 -1.3356
#
#
#
# Elastic Compliance Matrix: (Units=1/GPa)
#
#
# Indices 1 2 3 4 5 6 
#
# 1 0.032268 0.000534 -0.001512 0.000020 0.000014 -0.000104
# 2 0.000534 0.008881 -0.000865 0.000019 0.000007 0.000017
# 3 -0.001512 -0.000865 0.007103 0.000050 0.000033 0.000397
# 4 0.000020 0.000019 0.000050 -0.029225 -0.000029 -0.003121
# 5 0.000014 0.000007 0.000033 -0.000029 0.066942 0.001506
# 6 -0.000104 0.000017 0.000397 -0.003121 0.001506 -0.749013
#
#
# Mechanical properties :
#
#
# Convention : Reuss Voigt Hill
#
# Bulk Modulus (GPa) = 22.43901 36.32311 29.38106
# Shear Modulus (GPa) = -7.75793 13.89197 3.06702
#
# Velocity S-wave (km/s) = -1.86387 2.49417 1.17193
# Velocity P-wave (km/s) = 2.32728 4.95582 3.87146
#
# Compressibility (1/GPa) = 0.04456525
#
# Stress axis : x y z
#
# Youngs Moduli (GPa) = 30.99003 112.60232 140.79220
#
# Poissons Ratio (x) = -0.06008 0.21292
# Poissons Ratio (y) = -0.01653 0.12173
# Poissons Ratio (z) = 0.04687 0.09736
#
# Static dielectric constant tensor:
#      x y z
#    x 1.900760 0.000170 0.000040 
#    y 0.000170 1.859950 -0.000030 
#    z 0.000040 -0.000030 1.957590 
# 
# From -- ./inp_files/4095.got.cif
#   From: 2010.05.17/outbox.cif.g08.bks.cpg/sg23_3_cif.got.tgz:4095.got - 2010.06.04 12:02:01.
