data_PCOD9329954
_publ_section_title
;
Structure prediction by ZEFSAII (Michael W. Deem and Ramdas Pophale) SiO2 
 PCOD9329954
Probable space group: I 2 2 2
;
_chemical_formula_sum "Si O2"
_cell_formula_units_Z 64
_cell_length_a 28.316382
_cell_length_b 5.284240
_cell_length_c 22.552813
_cell_angle_alpha 90.000000
_cell_angle_beta 90.000000
_cell_angle_gamma 90.000000
_cell_volume 3374.590003
_symmetry_space_group_name_H-M "I 2 2 2"
_symmetry_group_IT_number 23
_symmetry_cell_setting 'orthorhombic'
loop_
_space_group_symop_operation_xyz
x,y,z
-x,-y,z
x,-y,-z
-x,y,-z
1/2+x,1/2+y,1/2+z
1/2-x,1/2-y,1/2+z
1/2+x,1/2-y,1/2-z
1/2-x,1/2+y,1/2-z
loop_
_atom_site_type_symbol
_atom_site_label
_atom_site_fract_x
_atom_site_fract_y
_atom_site_fract_z
Si Si1 0.263836 0.218625 0.649270
Si Si2 0.644424 0.241535 0.161740
Si Si3 0.350920 0.425753 0.347412
Si Si4 0.707525 0.089005 0.058949
Si Si5 0.446468 0.989873 0.204010
Si Si6 0.302071 0.159048 0.445823
Si Si7 0.821139 0.756049 0.725361
Si Si8 0.553737 0.496063 0.714651
O O1 0.312685 0.355463 0.663303
O O2 0.230884 0.385963 0.604519
O O3 0.232246 0.171115 0.706987
O O4 0.279874 0.985705 0.610119
O O5 0.673048 0.253788 0.100189
O O6 0.592711 0.108983 0.157268
O O7 0.648958 0.514873 0.193740
O O8 0.669606 0.023860 0.200691
O O9 0.340158 0.336250 0.414104
O O10 0.335242 0.242999 0.293683
O O11 0.405086 0.484090 0.333861
O O12 0.753725 0.220717 0.030852
O O13 0.680628 0.000000 0.000000
O O14 0.442089 0.762456 0.251428
O O15 0.500000 0.000000 0.180292
O O16 0.440285 0.256159 0.239725
O O17 0.322405 0.000000 0.500000
O O18 0.500000 0.500000 0.691342
#
# Coordination Sequence:
#
# PCOD9329954 Si02
#       8
#     8   8   8   8   8   8   8   8
#     4  10  23  34  53  77 112 156 187 239 292 344
#     4  11  20  36  57  83 116 155 195 242 291 352
#     4  11  24  34  57  85 119 151 195 246 304 363
#     4  10  20  36  53  77 111 159 207 243 276 342
#     4  10  19  35  57  83 118 153 189 239 300 369
#     4  11  22  38  56  76 115 158 207 239 284 347
#     4  11  23  36  53  84 122 151 189 236 300 363
#     4  10  21  38  59  85 117 150 191 243 308 370
#
# _framework density 18.965267999999998
#
# number of rings (size 3 to 8) (size 9 to 14) (size 15 to 20)
#    0.000    1.500    5.000    0.000    5.250    0.000 
#    0.000    0.000    0.000    0.375    0.000    2.625 
#    0.000    5.250    0.000    0.000    0.000    0.875 
#
# Total GULP energy -178184.284501 kJ/mol
# GULP energy per Si atom -5568.258891 kJ/mol
# Density = 1.892210 g / cm^3
# Si number density = 18.965268 Si / 1000 Ang^3
#
#
#
# Elastic Constant Matrix: (Units=GPa)
#
#
# Indices 1 2 3 4 5 6 
#
# 1 133.4123 17.1776 36.2855 0.0000 0.0000 0.0000
# 2 17.1776 65.6703 10.7589 0.0000 0.0000 0.0000
# 3 36.2855 10.7589 67.3562 0.0000 0.0000 0.0000
# 4 0.0000 0.0000 0.0000 29.6695 0.0000 0.0000
# 5 0.0000 0.0000 0.0000 0.0000 -9.4496 0.0000
# 6 0.0000 0.0000 0.0000 0.0000 0.0000 -24.0353
#
#
#
# Elastic Compliance Matrix: (Units=1/GPa)
#
#
# Indices 1 2 3 4 5 6 
#
# 1 0.008941 -0.001591 -0.004563 0.000000 0.000000 0.000000
# 2 -0.001591 0.015920 -0.001686 0.000000 0.000000 0.000000
# 3 -0.004563 -0.001686 0.017574 0.000000 0.000000 0.000000
# 4 0.000000 0.000000 0.000000 0.033705 0.000000 0.000000
# 5 0.000000 0.000000 0.000000 0.000000 -0.105825 0.000000
# 6 0.000000 0.000000 0.000000 0.000000 0.000000 -0.041606
#
#
# Mechanical properties :
#
#
# Convention : Reuss Voigt Hill
#
# Bulk Modulus (GPa) = 37.37513 43.87588 40.62550
# Shear Modulus (GPa) = -107.08314 12.71806 -47.18254
#
# Velocity S-wave (km/s) = -7.52232 2.59240 -4.99324
# Velocity P-wave (km/s) = 7.46305 5.66973 3.43157
#
# Compressibility (1/GPa) = 0.02675576
#
# Stress axis : x y z
#
# Youngs Moduli (GPa) = 111.83926 62.81410 56.90343
#
# Poissons Ratio (x) = 0.09996 0.25963
# Poissons Ratio (y) = 0.17797 0.09592
# Poissons Ratio (z) = 0.51028 0.10588
#
# Static dielectric constant tensor:
#      x y z
#    x 1.742580 0.000000 0.000000 
#    y 0.000000 1.903550 0.000000 
#    z 0.000000 0.000000 2.622940 
# 
# From -- ./inp_files/27418.got.cif
#   From: 2010.05.17/outbox.cif.g08.bks.cpg/sg23_14_cif.got.tgz:27418.got - 2010.06.04 12:02:01.
