data_PCOD9329530
_publ_section_title
;
Structure prediction by ZEFSAII (Michael W. Deem and Ramdas Pophale) SiO2 
 PCOD9329530
Probable space group: I 2 2 2
;
_chemical_formula_sum "Si O2"
_cell_formula_units_Z 56
_cell_length_a 12.860261
_cell_length_b 9.469524
_cell_length_c 29.355019
_cell_angle_alpha 90.000000
_cell_angle_beta 90.000000
_cell_angle_gamma 90.000000
_cell_volume 3574.870365
_symmetry_space_group_name_H-M "I 2 2 2"
_symmetry_group_IT_number 23
_symmetry_cell_setting 'orthorhombic'
loop_
_space_group_symop_operation_xyz
x,y,z
-x,-y,z
x,-y,-z
-x,y,-z
1/2+x,1/2+y,1/2+z
1/2-x,1/2-y,1/2+z
1/2+x,1/2-y,1/2-z
1/2-x,1/2+y,1/2-z
loop_
_atom_site_type_symbol
_atom_site_label
_atom_site_fract_x
_atom_site_fract_y
_atom_site_fract_z
Si Si1 0.653390 0.204238 0.125456
Si Si2 0.902728 0.423718 0.788968
Si Si3 0.098406 0.100378 0.240208
Si Si4 0.374487 0.980125 0.947959
Si Si5 0.803023 0.015574 0.662540
Si Si6 0.407070 0.749903 0.876900
Si Si7 0.181263 0.462771 0.697433
O O1 0.718653 0.345092 0.133024
O O2 0.531738 0.244935 0.121706
O O3 0.675361 0.103161 0.082747
O O4 0.668151 0.106012 0.169345
O O5 0.923050 0.264528 0.771469
O O6 0.799461 0.436053 0.819432
O O7 0.878316 0.519303 0.744699
O O8 0.000000 0.500000 0.812307
O O9 0.198702 0.061774 0.209688
O O10 0.133717 0.069384 0.292539
O O11 0.000000 0.000000 0.230864
O O12 0.361406 0.831363 0.921287
O O13 0.500000 0.000000 0.946940
O O14 0.341146 0.000000 0.000000
O O15 0.868386 0.906713 0.632454
O O16 0.368466 0.841465 0.833548
#
# Coordination Sequence:
#
# PCOD9329530 Si02
#       7
#     8   8   8   8   8   8   8
#     4  10  18  30  51  72  95 133 161 195 239 291
#     4  11  23  34  48  65  97 134 171 210 247 276
#     4  11  23  33  47  67  97 133 173 212 241 271
#     4   8  16  31  51  73  98 127 158 192 240 297
#     4  11  22  33  46  71 101 128 172 206 238 284
#     4  10  18  32  49  70  99 130 162 197 239 288
#     4  10  20  33  46  66  94 132 171 202 235 284
#
# _framework density 15.664904
#
# number of rings (size 3 to 8) (size 9 to 14) (size 15 to 20)
#    0.000    1.857    2.857    3.429    4.000    0.000 
#    0.000    0.714    0.000    3.429    0.000    0.000 
#    0.000   21.714    0.000    0.000    0.000    0.000 
#
# Total GULP energy -156084.504539 kJ/mol
# GULP energy per Si atom -5574.446591 kJ/mol
# Density = 1.562925 g / cm^3
# Si number density = 15.664904 Si / 1000 Ang^3
#
#
#
# Elastic Constant Matrix: (Units=GPa)
#
#
# Indices 1 2 3 4 5 6 
#
# 1 49.0922 11.7398 0.5410 0.0000 0.0000 0.0000
# 2 11.7398 88.1316 12.9435 0.0000 0.0000 0.0000
# 3 0.5410 12.9435 63.2554 0.0000 0.0000 0.0000
# 4 0.0000 0.0000 0.0000 8.7167 0.0000 0.0000
# 5 0.0000 0.0000 0.0000 0.0000 10.9344 0.0000
# 6 0.0000 0.0000 0.0000 0.0000 0.0000 24.8607
#
#
#
# Elastic Compliance Matrix: (Units=1/GPa)
#
#
# Indices 1 2 3 4 5 6 
#
# 1 0.021050 -0.002864 0.000406 0.000000 0.000000 0.000000
# 2 -0.002864 0.012088 -0.002449 0.000000 0.000000 0.000000
# 3 0.000406 -0.002449 0.016307 0.000000 0.000000 0.000000
# 4 0.000000 0.000000 0.000000 0.114722 0.000000 0.000000
# 5 0.000000 0.000000 0.000000 0.000000 0.091454 0.000000
# 6 0.000000 0.000000 0.000000 0.000000 0.000000 0.040224
#
#
# Mechanical properties :
#
#
# Convention : Reuss Voigt Hill
#
# Bulk Modulus (GPa) = 25.23268 27.88088 26.55678
# Shear Modulus (GPa) = 15.68040 20.58601 18.13321
#
# Velocity S-wave (km/s) = 3.16727 3.62905 3.40600
# Velocity P-wave (km/s) = 5.43307 5.94954 5.69716
#
# Compressibility (1/GPa) = 0.03963114
#
# Stress axis : x y z
#
# Youngs Moduli (GPa) = 47.50560 82.72804 61.32502
#
# Poissons Ratio (x) = 0.23691 -0.02489
# Poissons Ratio (y) = 0.13604 0.15018
# Poissons Ratio (z) = -0.01928 0.20260
#
# Static dielectric constant tensor:
#      x y z
#    x 1.540360 0.000000 0.000000 
#    y 0.000000 1.554720 0.000000 
#    z 0.000000 0.000000 1.517240 
# 
# From -- ./inp_files/30372.got.cif
#   From: 2010.05.17/outbox.cif.g08.bks.cpg/sg23_16_cif.got.tgz:30372.got - 2010.06.04 12:02:01.
