data_PCOD9329260
_publ_section_title
;
Structure prediction by ZEFSAII (Michael W. Deem and Ramdas Pophale) SiO2 
 PCOD9329260
Probable space group: F 2 2 2
;
_chemical_formula_sum "Si O2"
_cell_formula_units_Z 60
_cell_length_a 16.157069
_cell_length_b 9.785697
_cell_length_c 17.678810
_cell_angle_alpha 90.000000
_cell_angle_beta 90.000000
_cell_angle_gamma 90.000000
_cell_volume 2795.164503
_symmetry_space_group_name_H-M "F 2 2 2"
_symmetry_group_IT_number 22
_symmetry_cell_setting 'orthorhombic'
loop_
_space_group_symop_operation_xyz
x,y,z
-x,-y,z
x,-y,-z
-x,y,-z
x,1/2+y,1/2+z
-x,1/2-y,1/2+z
x,1/2-y,1/2-z
-x,1/2+y,1/2-z
1/2+x,y,1/2+z
1/2-x,-y,1/2+z
1/2+x,-y,1/2-z
1/2-x,y,1/2-z
1/2+x,1/2+y,z
1/2-x,1/2-y,z
1/2+x,1/2-y,-z
1/2-x,1/2+y,-z
loop_
_atom_site_type_symbol
_atom_site_label
_atom_site_fract_x
_atom_site_fract_y
_atom_site_fract_z
Si Si1 0.750000 0.750000 0.250000
Si Si2 0.311631 0.875908 0.059962
Si Si3 0.000000 0.000000 0.799280
Si Si4 0.493351 0.250867 0.583740
Si Si5 0.126934 0.437011 0.168798
O O1 0.813586 0.680477 0.194195
O O2 0.250000 0.750000 0.046149
O O3 0.405562 0.824282 0.071077
O O4 0.306627 0.951987 0.139659
O O5 0.303052 0.000000 0.000000
O O6 0.994461 0.865697 0.852101
O O7 0.076373 0.990160 0.741053
O O8 0.500000 0.186217 0.500000
O O9 0.561502 0.365782 0.609314
#
# Coordination Sequence:
#
# PCOD9329260 Si02
#       5
#     4  16   8  16  16
#     4  12  28  48  74 116 166 196 272 340 400 456
#     4  12  29  49  79 112 159 207 272 333 403 470
#     4  12  25  46  75 116 150 204 270 310 389 490
#     4  12  25  49  79 110 154 212 259 319 393 484
#     4  12  26  48  78 109 158 215 261 328 398 475
#
# _framework density 21.465641999999999
#
# number of rings (size 3 to 8) (size 9 to 14) (size 15 to 20)
#    0.000    0.000    8.000    0.400    5.600    2.133 
#    0.000    0.000    0.000    0.000    0.000    0.000 
#    0.000    0.000    0.000    0.000    0.000    0.000 
#
# Total GULP energy -83536.103680 kJ/mol
# GULP energy per Si atom -5569.073579 kJ/mol
# Density = 2.141678 g / cm^3
# Si number density = 21.465642 Si / 1000 Ang^3
#
#
#
# Elastic Constant Matrix: (Units=GPa)
#
#
# Indices 1 2 3 4 5 6 
#
# 1 85.6313 43.1102 12.7237 0.0000 0.0000 0.0000
# 2 43.1102 125.1763 44.8961 0.0000 0.0000 0.0000
# 3 12.7237 44.8961 119.8350 0.0000 0.0000 0.0000
# 4 0.0000 0.0000 0.0000 50.4016 0.0000 0.0000
# 5 0.0000 0.0000 0.0000 0.0000 -25.1605 0.0000
# 6 0.0000 0.0000 0.0000 0.0000 0.0000 38.0188
#
#
#
# Elastic Compliance Matrix: (Units=1/GPa)
#
#
# Indices 1 2 3 4 5 6 
#
# 1 0.014142 -0.005004 0.000373 0.000000 0.000000 0.000000
# 2 -0.005004 0.011000 -0.003590 0.000000 0.000000 0.000000
# 3 0.000373 -0.003590 0.009650 0.000000 0.000000 0.000000
# 4 0.000000 0.000000 0.000000 0.019841 0.000000 0.000000
# 5 0.000000 0.000000 0.000000 0.000000 -0.039745 0.000000
# 6 0.000000 0.000000 0.000000 0.000000 0.000000 0.026303
#
#
# Mechanical properties :
#
#
# Convention : Reuss Voigt Hill
#
# Bulk Modulus (GPa) = 54.49512 59.12251 56.80881
# Shear Modulus (GPa) = 78.43363 27.97949 53.20656
#
# Velocity S-wave (km/s) = 6.05132 3.61426 4.98404
# Velocity P-wave (km/s) = 8.61782 6.70968 7.72291
#
# Compressibility (1/GPa) = 0.01835027
#
# Stress axis : x y z
#
# Youngs Moduli (GPa) = 70.71209 90.91179 103.62649
#
# Poissons Ratio (x) = 0.45495 -0.03869
# Poissons Ratio (y) = 0.35386 0.37199
# Poissons Ratio (z) = -0.02640 0.32634
#
# Static dielectric constant tensor:
#      x y z
#    x 1.768770 0.000000 0.000000 
#    y 0.000000 1.981530 0.000000 
#    z 0.000000 0.000000 1.832440 
# 
# From -- ./inp_files/10961.got.cif
#   From: 2010.05.17/outbox.cif.g08.bks.cpg/sg22_6_cif.got.tgz:10961.got - 2010.06.03 23:40:54.
