data_PCOD9329368
_publ_section_title
;
Structure prediction by ZEFSAII (Michael W. Deem and Ramdas Pophale) SiO2 
 PCOD9329368
Probable space group: I 2 2 2
;
_chemical_formula_sum "Si O2"
_cell_formula_units_Z 44
_cell_length_a 20.099321
_cell_length_b 17.755885
_cell_length_c 5.361942
_cell_angle_alpha 90.000000
_cell_angle_beta 90.000000
_cell_angle_gamma 90.000000
_cell_volume 1913.576468
_symmetry_space_group_name_H-M "I 2 2 2"
_symmetry_group_IT_number 23
_symmetry_cell_setting 'orthorhombic'
loop_
_space_group_symop_operation_xyz
x,y,z
-x,-y,z
x,-y,-z
-x,y,-z
1/2+x,1/2+y,1/2+z
1/2-x,1/2-y,1/2+z
1/2+x,1/2-y,1/2-z
1/2-x,1/2+y,1/2-z
loop_
_atom_site_type_symbol
_atom_site_label
_atom_site_fract_x
_atom_site_fract_y
_atom_site_fract_z
Si Si1 0.286662 0.072678 0.111882
Si Si2 0.880930 0.650096 0.203117
Si Si3 0.731775 0.208853 0.618600
Si Si4 0.890381 0.500000 0.000000
Si Si5 0.077268 0.033017 0.249124
Si Si6 0.458258 0.701713 0.245819
O O1 0.242550 0.129462 0.272982
O O2 0.343142 0.036130 0.289082
O O3 0.325123 0.119804 0.896600
O O4 0.251877 0.000000 0.000000
O O5 0.921958 0.575089 0.122462
O O6 0.920621 0.720334 0.308148
O O7 0.842823 0.687934 0.968032
O O8 0.764732 0.237587 0.361681
O O9 0.080026 0.122960 0.226311
O O10 0.108038 0.000000 0.500000
O O11 0.000000 0.000000 0.251835
O O12 0.106819 0.000000 0.000000
O O13 0.500000 0.712322 0.500000
O O14 0.500000 0.686334 0.000000
#
# Coordination Sequence:
#
# PCOD9329368 Si02
#       6
#     8   8   8   4   8   8
#     4   9  18  37  62  92 114 161 205 251 297 379
#     4  10  22  38  63  90 125 159 211 255 308 372
#     4  11  21  37  62  95 121 154 200 258 314 360
#     4   8  18  36  61  82 118 162 208 248 297 374
#     4  10  16  34  55  82 106 148 207 239 276 351
#     4  12  24  36  60  92 120 159 207 254 302 368
#
# _framework density 22.993593000000001
#
# number of rings (size 3 to 8) (size 9 to 14) (size 15 to 20)
#    0.000    1.818    5.455    0.000    5.091    0.000 
#    0.000    0.455    0.000    1.091   18.909    0.000 
#    0.000    0.000    0.000    0.000    0.000    0.000 
#
# Total GULP energy -122595.201956 kJ/mol
# GULP energy per Si atom -5572.509180 kJ/mol
# Density = 2.294126 g / cm^3
# Si number density = 22.993593 Si / 1000 Ang^3
#
#
#
# Elastic Constant Matrix: (Units=GPa)
#
#
# Indices 1 2 3 4 5 6 
#
# 1 28.0151 12.7756 12.5992 0.0000 0.0000 0.0000
# 2 12.7756 177.7517 54.6718 0.0000 0.0000 0.0000
# 3 12.5992 54.6718 170.1139 0.0000 0.0000 0.0000
# 4 0.0000 0.0000 0.0000 58.1263 0.0000 0.0000
# 5 0.0000 0.0000 0.0000 0.0000 4.9894 0.0000
# 6 0.0000 0.0000 0.0000 0.0000 0.0000 15.7659
#
#
#
# Elastic Compliance Matrix: (Units=1/GPa)
#
#
# Indices 1 2 3 4 5 6 
#
# 1 0.037585 -0.002048 -0.002126 0.000000 0.000000 0.000000
# 2 -0.002048 0.006354 -0.001891 0.000000 0.000000 0.000000
# 3 -0.002126 -0.001891 0.006643 0.000000 0.000000 0.000000
# 4 0.000000 0.000000 0.000000 0.017204 0.000000 0.000000
# 5 0.000000 0.000000 0.000000 0.000000 0.200424 0.000000
# 6 0.000000 0.000000 0.000000 0.000000 0.000000 0.063428
#
#
# Mechanical properties :
#
#
# Convention : Reuss Voigt Hill
#
# Bulk Modulus (GPa) = 26.00431 59.55268 42.77849
# Shear Modulus (GPa) = 14.02193 35.49860 24.76027
#
# Velocity S-wave (km/s) = 2.47213 3.93345 3.28507
# Velocity P-wave (km/s) = 4.41390 6.82534 5.74751
#
# Compressibility (1/GPa) = 0.03845516
#
# Stress axis : x y z
#
# Youngs Moduli (GPa) = 26.60657 157.36929 150.52434
#
# Poissons Ratio (x) = 0.32222 0.31996
# Poissons Ratio (y) = 0.05448 0.28458
# Poissons Ratio (z) = 0.05656 0.29752
#
# Static dielectric constant tensor:
#      x y z
#    x 2.066740 0.000000 0.000000 
#    y 0.000000 1.890980 0.000000 
#    z 0.000000 0.000000 1.892350 
# 
# From -- ./inp_files/4871.got.cif
#   From: 2010.05.17/outbox.cif.g08.bks.cpg/sg23_3_cif.got.tgz:4871.got - 2010.06.04 12:02:01.
