data_PCOD9329394
_publ_section_title
;
Structure prediction by ZEFSAII (Michael W. Deem and Ramdas Pophale) SiO2 
 PCOD9329394
Probable space group: I 2 2 2
;
_chemical_formula_sum "Si O2"
_cell_formula_units_Z 64
_cell_length_a 28.444037
_cell_length_b 18.998135
_cell_length_c 5.517285
_cell_angle_alpha 90.000000
_cell_angle_beta 90.000000
_cell_angle_gamma 90.000000
_cell_volume 2981.450633
_symmetry_space_group_name_H-M "I 2 2 2"
_symmetry_group_IT_number 23
_symmetry_cell_setting 'orthorhombic'
loop_
_space_group_symop_operation_xyz
x,y,z
-x,-y,z
x,-y,-z
-x,y,-z
1/2+x,1/2+y,1/2+z
1/2-x,1/2-y,1/2+z
1/2+x,1/2-y,1/2-z
1/2-x,1/2+y,1/2-z
loop_
_atom_site_type_symbol
_atom_site_label
_atom_site_fract_x
_atom_site_fract_y
_atom_site_fract_z
Si Si1 0.442752 0.418414 0.997616
Si Si2 0.793617 0.767550 0.111565
Si Si3 0.673384 0.110691 0.390706
Si Si4 0.151053 0.590506 0.389446
Si Si5 0.815304 0.253860 0.388247
Si Si6 0.929806 0.319394 0.908609
Si Si7 0.453101 0.885612 0.910549
Si Si8 0.442629 0.658396 0.500853
O O1 0.428346 0.377274 0.243547
O O2 0.427959 0.500000 0.000000
O O3 0.500000 0.417612 0.000000
O O4 0.428460 0.383529 0.742286
O O5 0.795949 0.681620 0.111388
O O6 0.818637 0.787862 0.361139
O O7 0.738510 0.784353 0.111955
O O8 0.817926 0.788536 0.861063
O O9 0.677115 0.071182 0.643221
O O10 0.619862 0.140270 0.398694
O O11 0.676426 0.071141 0.137679
O O12 0.152136 0.677362 0.388453
O O13 0.096059 0.572347 0.398799
O O14 0.948872 0.329619 0.634489
O O15 0.956438 0.352929 0.141220
O O16 0.925027 0.237920 0.971595
O O17 0.500000 0.924352 0.000000
O O18 0.500000 0.661752 0.500000
#
# Coordination Sequence:
#
# PCOD9329394 Si02
#       8
#     8   8   8   8   8   8   8   8
#     4   9  17  27  36  44  52  60  71  89 111 132
#     4   8  12  18  28  38  48  61  74  89 109 130
#     4   8  14  22  29  38  51  64  75  89 109 129
#     4   8  14  21  28  37  48  62  78  96 113 128
#     4   8  12  18  27  38  48  58  75  94 110 128
#     4  10  18  25  32  42  54  65  79  95 109 131
#     4  10  17  24  31  38  51  68  83  97 114 134
#     4  10  17  24  34  44  52  62  75  89 107 130
#
# _framework density 21.466062999999998
#
# number of rings (size 3 to 8) (size 9 to 14) (size 15 to 20)
#    0.000    3.125    0.000    2.250    0.000    2.500 
#    0.000    0.000    0.000    0.000    0.000    0.000 
#    0.000    0.000    0.000    0.000    0.000    0.000 
#
# Total GULP energy -178289.074796 kJ/mol
# GULP energy per Si atom -5571.533587 kJ/mol
# Density = 2.141721 g / cm^3
# Si number density = 21.466063 Si / 1000 Ang^3
#
#
#
# Elastic Constant Matrix: (Units=GPa)
#
#
# Indices 1 2 3 4 5 6 
#
# 1 51.8459 -2.5877 9.5970 0.0000 0.0000 0.0000
# 2 -2.5877 67.9911 43.2659 0.0000 0.0000 0.0000
# 3 9.5970 43.2659 239.0978 0.0000 0.0000 0.0000
# 4 0.0000 0.0000 0.0000 9.6268 0.0000 0.0000
# 5 0.0000 0.0000 0.0000 0.0000 25.4306 0.0000
# 6 0.0000 0.0000 0.0000 0.0000 0.0000 -81.2829
#
#
#
# Elastic Compliance Matrix: (Units=1/GPa)
#
#
# Indices 1 2 3 4 5 6 
#
# 1 0.019550 0.001405 -0.001039 0.000000 0.000000 0.000000
# 2 0.001405 0.016723 -0.003082 0.000000 0.000000 0.000000
# 3 -0.001039 -0.003082 0.004782 0.000000 0.000000 0.000000
# 4 0.000000 0.000000 0.000000 0.103876 0.000000 0.000000
# 5 0.000000 0.000000 0.000000 0.000000 0.039323 0.000000
# 6 0.000000 0.000000 0.000000 0.000000 0.000000 -0.012303
#
#
# Mechanical properties :
#
#
# Convention : Reuss Voigt Hill
#
# Bulk Modulus (GPa) = 28.07204 51.05389 39.56297
# Shear Modulus (GPa) = 26.41897 11.33221 18.87559
#
# Velocity S-wave (km/s) = 3.51198 2.30013 2.96855
# Velocity P-wave (km/s) = 5.43610 5.55781 5.49729
#
# Compressibility (1/GPa) = 0.03562264
#
# Stress axis : x y z
#
# Youngs Moduli (GPa) = 51.14985 59.79855 209.12263
#
# Poissons Ratio (x) = -0.08403 0.21728
# Poissons Ratio (y) = -0.07188 0.64462
# Poissons Ratio (z) = 0.05315 0.18433
#
# Static dielectric constant tensor:
#      x y z
#    x 1.808960 0.000000 0.000000 
#    y 0.000000 1.781360 0.000000 
#    z 0.000000 0.000000 1.920130 
# 
# From -- ./inp_files/5441.got.cif
#   From: 2010.05.17/outbox.cif.g08.bks.cpg/sg23_3_cif.got.tgz:5441.got - 2010.06.04 12:02:01.
