data_PCOD9329406
_publ_section_title
;
Structure prediction by ZEFSAII (Michael W. Deem and Ramdas Pophale) SiO2 
 PCOD9329406
Probable space group: I 2 2 2
;
_chemical_formula_sum "Si O2"
_cell_formula_units_Z 56
_cell_length_a 19.821134
_cell_length_b 12.280051
_cell_length_c 10.990520
_cell_angle_alpha 90.000000
_cell_angle_beta 90.000000
_cell_angle_gamma 90.000000
_cell_volume 2675.142425
_symmetry_space_group_name_H-M "I 2 2 2"
_symmetry_group_IT_number 23
_symmetry_cell_setting 'orthorhombic'
loop_
_space_group_symop_operation_xyz
x,y,z
-x,-y,z
x,-y,-z
-x,y,-z
1/2+x,1/2+y,1/2+z
1/2-x,1/2-y,1/2+z
1/2+x,1/2-y,1/2-z
1/2-x,1/2+y,1/2-z
loop_
_atom_site_type_symbol
_atom_site_label
_atom_site_fract_x
_atom_site_fract_y
_atom_site_fract_z
Si Si1 0.328896 0.368941 0.119401
Si Si2 0.195480 0.225496 0.070452
Si Si3 0.141218 0.710984 0.158067
Si Si4 0.275827 0.578231 0.216273
Si Si5 0.029849 0.621757 0.328171
Si Si6 0.592068 0.776677 0.936340
Si Si7 0.209977 0.417282 0.403445
O O1 0.255061 0.313211 0.096515
O O2 0.353129 0.313057 0.247191
O O3 0.319894 0.498309 0.133112
O O4 0.379160 0.326014 0.012710
O O5 0.182900 0.155355 0.191548
O O6 0.134618 0.267177 0.986326
O O7 0.231072 0.141028 0.977360
O O8 0.214071 0.649574 0.164612
O O9 0.080831 0.641664 0.216954
O O10 0.237110 0.488115 0.295749
O O11 0.070814 0.643771 0.452330
O O12 0.000000 0.500000 0.324474
O O13 0.970762 0.713496 0.344646
O O14 0.655344 0.829151 0.868627
O O15 0.179053 0.500000 0.500000
#
# Coordination Sequence:
#
# PCOD9329406 Si02
#       7
#     8   8   8   8   8   8   8
#     4   9  18  30  46  75 110 158 204 233 292 351
#     4   9  18  30  46  72 113 158 193 238 290 357
#     4  10  19  30  46  77 116 163 197 236 290 365
#     4  10  18  29  49  72 111 163 196 232 298 363
#     4  10  17  27  46  76 118 165 201 234 294 345
#     4   9  16  26  44  73 113 153 196 240 278 335
#     4   9  14  25  45  69 100 150 188 225 278 345
#
# _framework density 20.933464000000001
#
# number of rings (size 3 to 8) (size 9 to 14) (size 15 to 20)
#    0.000    2.571    1.429    5.143    0.000    0.571 
#    0.000    0.000    0.000    0.000    0.000    7.000 
#    0.000  146.286   22.286   94.286    0.571    0.000 
#
# Total GULP energy -155963.151997 kJ/mol
# GULP energy per Si atom -5570.112571 kJ/mol
# Density = 2.088582 g / cm^3
# Si number density = 20.933464 Si / 1000 Ang^3
#
#
#
# Elastic Constant Matrix: (Units=GPa)
#
#
# Indices 1 2 3 4 5 6 
#
# 1 63.7311 48.4421 34.8509 0.0000 0.0000 0.0000
# 2 48.4421 97.5619 64.2324 0.0000 0.0000 0.0000
# 3 34.8509 64.2324 92.8909 0.0000 0.0000 0.0000
# 4 0.0000 0.0000 0.0000 41.1596 0.0000 0.0000
# 5 0.0000 0.0000 0.0000 0.0000 9.7639 0.0000
# 6 0.0000 0.0000 0.0000 0.0000 0.0000 23.1732
#
#
#
# Elastic Compliance Matrix: (Units=1/GPa)
#
#
# Indices 1 2 3 4 5 6 
#
# 1 0.025313 -0.011594 -0.001480 0.000000 0.000000 0.000000
# 2 -0.011594 0.024127 -0.012333 0.000000 0.000000 0.000000
# 3 -0.001480 -0.012333 0.019849 0.000000 0.000000 0.000000
# 4 0.000000 0.000000 0.000000 0.024296 0.000000 0.000000
# 5 0.000000 0.000000 0.000000 0.000000 0.102418 0.000000
# 6 0.000000 0.000000 0.000000 0.000000 0.000000 0.043153
#
#
# Mechanical properties :
#
#
# Convention : Reuss Voigt Hill
#
# Bulk Modulus (GPa) = 54.13051 61.02608 57.57830
# Shear Modulus (GPa) = 16.88462 21.92991 19.40727
#
# Velocity S-wave (km/s) = 2.84313 3.24018 3.04812
# Velocity P-wave (km/s) = 6.05742 6.57374 6.32085
#
# Compressibility (1/GPa) = 0.01847387
#
# Stress axis : x y z
#
# Youngs Moduli (GPa) = 39.50541 41.44781 50.38140
#
# Poissons Ratio (x) = 0.48057 0.07454
# Poissons Ratio (y) = 0.45804 0.62136
# Poissons Ratio (z) = 0.05845 0.51118
#
# Static dielectric constant tensor:
#      x y z
#    x 1.780550 0.000000 0.000000 
#    y 0.000000 1.814660 0.000000 
#    z 0.000000 0.000000 1.816030 
# 
# From -- ./inp_files/17995.got.cif
#   From: 2010.05.17/outbox.cif.g08.bks.cpg/sg23_9_cif.got.tgz:17995.got - 2010.06.04 12:02:01.
