data_PCOD9329485
_publ_section_title
;
Structure prediction by ZEFSAII (Michael W. Deem and Ramdas Pophale) SiO2 
 PCOD9329485
Probable space group: I 2 2 2
;
_chemical_formula_sum "Si O2"
_cell_formula_units_Z 56
_cell_length_a 8.171332
_cell_length_b 18.870936
_cell_length_c 14.689867
_cell_angle_alpha 90.000000
_cell_angle_beta 90.000000
_cell_angle_gamma 90.000000
_cell_volume 2265.187528
_symmetry_space_group_name_H-M "I 2 2 2"
_symmetry_group_IT_number 23
_symmetry_cell_setting 'orthorhombic'
loop_
_space_group_symop_operation_xyz
x,y,z
-x,-y,z
x,-y,-z
-x,y,-z
1/2+x,1/2+y,1/2+z
1/2-x,1/2-y,1/2+z
1/2+x,1/2-y,1/2-z
1/2-x,1/2+y,1/2-z
loop_
_atom_site_type_symbol
_atom_site_label
_atom_site_fract_x
_atom_site_fract_y
_atom_site_fract_z
Si Si1 0.102095 0.699195 0.275081
Si Si2 0.781016 0.282352 0.619706
Si Si3 0.827278 0.917843 0.160802
Si Si4 0.805712 0.838660 0.505744
Si Si5 0.800100 0.070510 0.125527
Si Si6 0.678591 0.466280 0.129515
Si Si7 0.846070 0.601680 0.178817
O O1 0.170809 0.758467 0.206786
O O2 0.233949 0.656317 0.335422
O O3 0.962320 0.729547 0.340269
O O4 0.012634 0.637275 0.214165
O O5 0.730252 0.228907 0.541996
O O6 0.779045 0.361684 0.578659
O O7 0.846695 0.935852 0.268629
O O8 0.005933 0.919359 0.116401
O O9 0.746145 0.988762 0.115962
O O10 0.773809 0.907043 0.442753
O O11 0.738826 0.847761 0.606273
O O12 0.000000 0.831021 0.500000
O O13 0.757319 0.090199 0.229706
O O14 0.500000 0.500000 0.105586
O O15 0.821551 0.524662 0.134185
#
# Coordination Sequence:
#
# PCOD9329485 Si02
#       7
#     8   8   8   8   8   8   8
#     4  11  24  39  62  87 126 161 209 256 305 360
#     4  11  25  38  57  86 127 159 205 257 304 357
#     4  10  17  37  65  89 117 159 203 248 305 369
#     4  12  23  37  60  84 126 168 209 235 305 369
#     4   9  19  38  64  89 123 158 202 253 306 363
#     4  11  18  34  58  86 117 166 202 236 277 369
#     4  10  22  35  58  84 120 164 205 241 289 359
#
# _framework density 24.722016
#
# number of rings (size 3 to 8) (size 9 to 14) (size 15 to 20)
#    0.000    1.429    5.714    1.286    4.000    5.714 
#    0.000    0.000    6.286    0.000    0.000    2.000 
#    0.000    0.000    0.000    0.000    0.000    0.000 
#
# Total GULP energy -156486.584793 kJ/mol
# GULP energy per Si atom -5588.806600 kJ/mol
# Density = 2.466575 g / cm^3
# Si number density = 24.722016 Si / 1000 Ang^3
#
#
#
# Elastic Constant Matrix: (Units=GPa)
#
#
# Indices 1 2 3 4 5 6 
#
# 1 50.0857 -12.3747 -15.6729 0.0000 0.0000 0.0000
# 2 -12.3747 70.0199 -14.4254 0.0000 0.0000 0.0000
# 3 -15.6729 -14.4254 34.7190 0.0000 0.0000 0.0000
# 4 0.0000 0.0000 0.0000 20.0033 0.0000 0.0000
# 5 0.0000 0.0000 0.0000 0.0000 9.9094 0.0000
# 6 0.0000 0.0000 0.0000 0.0000 0.0000 44.1907
#
#
#
# Elastic Compliance Matrix: (Units=1/GPa)
#
#
# Indices 1 2 3 4 5 6 
#
# 1 0.026710 0.007879 0.015331 0.000000 0.000000 0.000000
# 2 0.007879 0.017943 0.011012 0.000000 0.000000 0.000000
# 3 0.015331 0.011012 0.040299 0.000000 0.000000 0.000000
# 4 0.000000 0.000000 0.000000 0.049992 0.000000 0.000000
# 5 0.000000 0.000000 0.000000 0.000000 0.100915 0.000000
# 6 0.000000 0.000000 0.000000 0.000000 0.000000 0.022629
#
#
# Mechanical properties :
#
#
# Convention : Reuss Voigt Hill
#
# Bulk Modulus (GPa) = 6.51913 7.76429 7.14171
# Shear Modulus (GPa) = 20.73184 27.97386 24.35285
#
# Velocity S-wave (km/s) = 2.89900 3.36748 3.14198
# Velocity P-wave (km/s) = 3.72133 4.27403 4.00722
#
# Compressibility (1/GPa) = 0.15339459
#
# Stress axis : x y z
#
# Youngs Moduli (GPa) = 37.43944 55.73287 24.81470
#
# Poissons Ratio (x) = -0.43912 -0.38043
# Poissons Ratio (y) = -0.29498 -0.27325
# Poissons Ratio (z) = -0.57398 -0.61372
#
# Static dielectric constant tensor:
#      x y z
#    x 1.964480 0.000000 0.000000 
#    y 0.000000 2.082200 0.000000 
#    z 0.000000 0.000000 1.966260 
# 
# From -- ./inp_files/26327.got.cif
#   From: 2010.05.17/outbox.cif.g08.bks.cpg/sg23_14_cif.got.tgz:26327.got - 2010.06.04 12:02:01.
