data_PCOD9329824
_publ_section_title
;
Structure prediction by ZEFSAII (Michael W. Deem and Ramdas Pophale) SiO2 
 PCOD9329824
Probable space group: I 2 2 2
;
_chemical_formula_sum "Si O2"
_cell_formula_units_Z 48
_cell_length_a 15.312336
_cell_length_b 6.989906
_cell_length_c 18.825730
_cell_angle_alpha 90.000000
_cell_angle_beta 90.000000
_cell_angle_gamma 90.000000
_cell_volume 2014.951566
_symmetry_space_group_name_H-M "I 2 2 2"
_symmetry_group_IT_number 23
_symmetry_cell_setting 'orthorhombic'
loop_
_space_group_symop_operation_xyz
x,y,z
-x,-y,z
x,-y,-z
-x,y,-z
1/2+x,1/2+y,1/2+z
1/2-x,1/2-y,1/2+z
1/2+x,1/2-y,1/2-z
1/2-x,1/2+y,1/2-z
loop_
_atom_site_type_symbol
_atom_site_label
_atom_site_fract_x
_atom_site_fract_y
_atom_site_fract_z
Si Si1 0.647483 0.091990 0.921915
Si Si2 0.315347 0.284743 0.650832
Si Si3 0.995311 0.768372 0.080891
Si Si4 0.848841 0.763791 0.817558
Si Si5 0.026680 0.718301 0.313518
Si Si6 0.662838 0.253413 0.190002
O O1 0.732716 0.216880 0.901824
O O2 0.563537 0.209755 0.893861
O O3 0.650812 0.913343 0.867548
O O4 0.645565 0.000000 0.000000
O O5 0.402669 0.217063 0.613326
O O6 0.328310 0.512309 0.667940
O O7 0.314209 0.194406 0.729322
O O8 0.075968 0.702614 0.128313
O O9 0.000000 0.000000 0.082276
O O10 0.000000 0.708842 0.000000
O O11 0.893399 0.757860 0.739980
O O12 0.756599 0.656174 0.830383
O O13 0.000000 0.500000 0.293044
O O14 0.936050 0.836477 0.306310
#
# Coordination Sequence:
#
# PCOD9329824 Si02
#       6
#     8   8   8   8   8   8
#     4  10  22  36  57  83 117 150 197 248 293 351
#     4  10  19  32  55  85 112 141 189 238 301 352
#     4   9  18  29  50  79 110 137 176 236 299 343
#     4  10  19  33  51  80 112 145 185 238 286 355
#     4  10  20  35  53  79 110 151 193 236 286 354
#     4  10  20  33  53  80 110 152 189 242 289 348
#
# _framework density 23.821914
#
# number of rings (size 3 to 8) (size 9 to 14) (size 15 to 20)
#    0.000    2.167    3.333    0.000    7.000    3.000 
#    0.000    0.000    0.000    1.500    0.000   14.000 
#    0.000    0.000    0.000    0.000    0.000    0.000 
#
# Total GULP energy -133922.379689 kJ/mol
# GULP energy per Si atom -5580.099154 kJ/mol
# Density = 2.376769 g / cm^3
# Si number density = 23.821914 Si / 1000 Ang^3
#
#
#
# Elastic Constant Matrix: (Units=GPa)
#
#
# Indices 1 2 3 4 5 6 
#
# 1 228.7146 6.5851 62.8166 0.0000 0.0000 0.0000
# 2 6.5851 70.4769 4.9394 0.0000 0.0000 0.0000
# 3 62.8166 4.9394 160.4929 0.0000 0.0000 0.0000
# 4 0.0000 0.0000 0.0000 25.9100 0.0000 0.0000
# 5 0.0000 0.0000 0.0000 0.0000 27.7480 0.0000
# 6 0.0000 0.0000 0.0000 0.0000 0.0000 13.0975
#
#
#
# Elastic Compliance Matrix: (Units=1/GPa)
#
#
# Indices 1 2 3 4 5 6 
#
# 1 0.004906 -0.000325 -0.001910 0.000000 0.000000 0.000000
# 2 -0.000325 0.014241 -0.000311 0.000000 0.000000 0.000000
# 3 -0.001910 -0.000311 0.006988 0.000000 0.000000 0.000000
# 4 0.000000 0.000000 0.000000 0.038595 0.000000 0.000000
# 5 0.000000 0.000000 0.000000 0.000000 0.036039 0.000000
# 6 0.000000 0.000000 0.000000 0.000000 0.000000 0.076350
#
#
# Mechanical properties :
#
#
# Convention : Reuss Voigt Hill
#
# Bulk Modulus (GPa) = 47.52111 67.59631 57.55871
# Shear Modulus (GPa) = 26.42339 39.04067 32.73203
#
# Velocity S-wave (km/s) = 3.33409 4.05267 3.71081
# Velocity P-wave (km/s) = 5.90028 7.09480 6.52493
#
# Compressibility (1/GPa) = 0.02104328
#
# Stress axis : x y z
#
# Youngs Moduli (GPa) = 203.82063 70.21891 143.10086
#
# Poissons Ratio (x) = 0.02279 0.27337
# Poissons Ratio (y) = 0.06615 0.04454
# Poissons Ratio (z) = 0.38936 0.02186
#
# Static dielectric constant tensor:
#      x y z
#    x 1.996250 0.000000 0.000000 
#    y 0.000000 2.062110 0.000000 
#    z 0.000000 0.000000 1.850930 
# 
# From -- ./inp_files/11934.got.cif
#   From: 2010.05.17/outbox.cif.g08.bks.cpg/sg23_6_cif.got.tgz:11934.got - 2010.06.04 12:02:01.
