data_PCOD9329064
_publ_section_title
;
Structure prediction by ZEFSAII (Michael W. Deem and Ramdas Pophale) SiO2 
 PCOD9329064
Probable space group: F 2 2 2
;
_chemical_formula_sum "Si O2"
_cell_formula_units_Z 88
_cell_length_a 12.360225
_cell_length_b 12.538465
_cell_length_c 23.751947
_cell_angle_alpha 90.000000
_cell_angle_beta 90.000000
_cell_angle_gamma 90.000000
_cell_volume 3681.035146
_symmetry_space_group_name_H-M "F 2 2 2"
_symmetry_group_IT_number 22
_symmetry_cell_setting 'orthorhombic'
loop_
_space_group_symop_operation_xyz
x,y,z
-x,-y,z
x,-y,-z
-x,y,-z
x,1/2+y,1/2+z
-x,1/2-y,1/2+z
x,1/2-y,1/2-z
-x,1/2+y,1/2-z
1/2+x,y,1/2+z
1/2-x,-y,1/2+z
1/2+x,-y,1/2-z
1/2-x,y,1/2-z
1/2+x,1/2+y,z
1/2-x,1/2-y,z
1/2+x,1/2-y,-z
1/2-x,1/2+y,-z
loop_
_atom_site_type_symbol
_atom_site_label
_atom_site_fract_x
_atom_site_fract_y
_atom_site_fract_z
Si Si1 0.937646 0.750000 0.750000
Si Si2 0.250000 0.750000 0.379479
Si Si3 0.500000 0.500000 0.598279
Si Si4 0.615310 0.934317 0.691148
Si Si5 0.750000 0.250000 0.934391
Si Si6 0.118198 0.356798 0.975149
Si Si7 0.090822 0.293722 0.158537
Si Si8 0.750000 0.608580 0.250000
O O1 0.999776 0.770002 0.808377
O O2 0.887300 0.866823 0.748951
O O3 0.307460 0.850014 0.345930
O O4 0.155747 0.786534 0.422105
O O5 0.596282 0.532552 0.556293
O O6 0.538945 0.400471 0.633746
O O7 0.500000 0.000000 0.676846
O O8 0.687546 0.035966 0.705733
O O9 0.848680 0.231988 0.891205
O O10 0.791734 0.340371 0.977095
O O11 0.000000 0.324616 0.000000
O O12 0.168522 0.328450 0.209378
#
# Coordination Sequence:
#
# PCOD9329064 Si02
#       8
#     8   8   8  16   8  16  16   8
#     4  12  24  46  68 104 154 192 246 308 376 470
#     4  11  26  47  76 110 156 197 260 321 406 474
#     4  12  23  44  74 100 126 190 250 297 362 448
#     4  12  25  46  73 111 156 208 254 318 394 479
#     4  11  26  39  68 100 136 187 236 315 392 432
#     4  11  24  47  70 104 137 187 256 320 376 460
#     4  12  24  41  69 102 143 188 235 302 372 452
#     4  12  24  44  66 108 150 186 256 296 372 494
#
# _framework density 23.906319
#
# number of rings (size 3 to 8) (size 9 to 14) (size 15 to 20)
#    0.000    0.364    3.636    5.727    0.000    0.000 
#    0.000    0.000    0.000    0.000    0.000    0.000 
#    0.000    0.000    0.000    0.000    0.000    0.000 
#
# Total GULP energy -122491.309402 kJ/mol
# GULP energy per Si atom -5567.786791 kJ/mol
# Density = 2.385191 g / cm^3
# Si number density = 23.906319 Si / 1000 Ang^3
#
#
#
# Elastic Constant Matrix: (Units=GPa)
#
#
# Indices 1 2 3 4 5 6 
#
# 1 115.3239 44.3215 57.9071 0.0000 0.0000 0.0000
# 2 44.3215 96.7773 49.0130 0.0000 0.0000 0.0000
# 3 57.9071 49.0130 142.3922 0.0000 0.0000 0.0000
# 4 0.0000 0.0000 0.0000 45.3865 0.0000 0.0000
# 5 0.0000 0.0000 0.0000 0.0000 38.0058 0.0000
# 6 0.0000 0.0000 0.0000 0.0000 0.0000 33.1549
#
#
#
# Elastic Compliance Matrix: (Units=1/GPa)
#
#
# Indices 1 2 3 4 5 6 
#
# 1 0.011858 -0.003619 -0.003577 0.000000 0.000000 0.000000
# 2 -0.003619 0.013619 -0.003216 0.000000 0.000000 0.000000
# 3 -0.003577 -0.003216 0.009584 0.000000 0.000000 0.000000
# 4 0.000000 0.000000 0.000000 0.022033 0.000000 0.000000
# 5 0.000000 0.000000 0.000000 0.000000 0.026312 0.000000
# 6 0.000000 0.000000 0.000000 0.000000 0.000000 0.030161
#
#
# Mechanical properties :
#
#
# Convention : Reuss Voigt Hill
#
# Bulk Modulus (GPa) = 70.23508 72.99741 71.61624
# Shear Modulus (GPa) = 35.93558 36.85955 36.39756
#
# Velocity S-wave (km/s) = 3.88130 3.93088 3.90617
# Velocity P-wave (km/s) = 7.03769 7.15566 7.09692
#
# Compressibility (1/GPa) = 0.01423790
#
# Stress axis : x y z
#
# Youngs Moduli (GPa) = 84.33045 73.42496 104.33682
#
# Poissons Ratio (x) = 0.26575 0.37317
# Poissons Ratio (y) = 0.30522 0.33555
# Poissons Ratio (z) = 0.30161 0.23614
#
# Static dielectric constant tensor:
#      x y z
#    x 2.078290 0.000000 0.000000 
#    y 0.000000 1.934280 0.000000 
#    z 0.000000 0.000000 1.931970 
# 
# From -- ./inp_files/48081.got.cif
#   From: 2010.05.17/outbox.cif.g08.bks.cpg/sg22_25_cif.got.tgz:48081.got - 2010.06.03 23:40:54.
