data_PCOD9330447
_publ_section_title
;
Structure prediction by ZEFSAII (Michael W. Deem and Ramdas Pophale) SiO2 
 PCOD9330447
Probable space group: I 2 2 2
;
_chemical_formula_sum "Si O2"
_cell_formula_units_Z 64
_cell_length_a 19.027047
_cell_length_b 11.725175
_cell_length_c 16.398124
_cell_angle_alpha 90.000000
_cell_angle_beta 90.000000
_cell_angle_gamma 90.000000
_cell_volume 3658.346948
_symmetry_space_group_name_H-M "I 2 2 2"
_symmetry_group_IT_number 23
_symmetry_cell_setting 'orthorhombic'
loop_
_space_group_symop_operation_xyz
x,y,z
-x,-y,z
x,-y,-z
-x,y,-z
1/2+x,1/2+y,1/2+z
1/2-x,1/2-y,1/2+z
1/2+x,1/2-y,1/2-z
1/2-x,1/2+y,1/2-z
loop_
_atom_site_type_symbol
_atom_site_label
_atom_site_fract_x
_atom_site_fract_y
_atom_site_fract_z
Si Si1 0.721151 0.907346 0.852239
Si Si2 0.478876 0.625613 0.736107
Si Si3 0.674470 0.357994 0.787185
Si Si4 0.190265 0.053953 0.416047
Si Si5 0.125350 0.784515 0.715916
Si Si6 0.712057 0.750950 0.476413
Si Si7 0.568380 0.377845 0.547436
Si Si8 0.239014 0.159611 0.151998
O O1 0.791566 0.894002 0.798068
O O2 0.659066 0.840440 0.803711
O O3 0.735102 0.838755 0.934352
O O4 0.723127 0.041151 0.868055
O O5 0.500000 0.500000 0.763902
O O6 0.408452 0.652602 0.784381
O O7 0.544900 0.707274 0.755018
O O8 0.456602 0.612435 0.641040
O O9 0.701118 0.449081 0.853957
O O10 0.704868 0.234210 0.801130
O O11 0.140297 0.140024 0.365227
O O12 0.259539 0.127712 0.442489
O O13 0.161655 0.000000 0.500000
O O14 0.171701 0.843609 0.787867
O O15 0.633778 0.708151 0.455484
O O16 0.718450 0.731057 0.572352
O O17 0.585679 0.500000 0.500000
O O18 0.500000 0.333384 0.500000
#
# Coordination Sequence:
#
# PCOD9330447 Si02
#       8
#     8   8   8   8   8   8   8   8
#     4  10  20  37  57  84 116 150 198 238 293 346
#     4  12  20  36  56  84 122 153 189 246 296 358
#     4  11  22  36  59  84 112 159 198 237 296 349
#     4  11  21  40  57  83 116 149 200 243 292 342
#     4  10  23  36  58  86 118 155 192 244 297 349
#     4  11  22  33  60  90 118 147 191 248 295 356
#     4  11  21  32  53  90 124 153 187 239 308 362
#     4  11  20  37  60  85 117 154 195 241 292 357
#
# _framework density 17.494240000000001
#
# number of rings (size 3 to 8) (size 9 to 14) (size 15 to 20)
#    0.000    1.125    6.250    1.875    0.000    0.000 
#    0.000    1.875    0.000    0.375    0.000    1.750 
#    0.000    0.000    0.000    0.000    0.000    0.000 
#
# Total GULP energy -178183.601447 kJ/mol
# GULP energy per Si atom -5568.237545 kJ/mol
# Density = 1.745442 g / cm^3
# Si number density = 17.494240 Si / 1000 Ang^3
#
#
#
# Elastic Constant Matrix: (Units=GPa)
#
#
# Indices 1 2 3 4 5 6 
#
# 1 107.3210 34.6837 19.8391 0.0000 0.0000 0.0000
# 2 34.6837 58.5347 4.4637 0.0000 0.0000 0.0000
# 3 19.8391 4.4637 77.5036 0.0000 0.0000 0.0000
# 4 0.0000 0.0000 0.0000 14.9713 0.0000 0.0000
# 5 0.0000 0.0000 0.0000 0.0000 7.2791 0.0000
# 6 0.0000 0.0000 0.0000 0.0000 0.0000 14.2908
#
#
#
# Elastic Compliance Matrix: (Units=1/GPa)
#
#
# Indices 1 2 3 4 5 6 
#
# 1 0.012057 -0.006939 -0.002687 0.000000 0.000000 0.000000
# 2 -0.006939 0.021153 0.000558 0.000000 0.000000 0.000000
# 3 -0.002687 0.000558 0.013558 0.000000 0.000000 0.000000
# 4 0.000000 0.000000 0.000000 0.066794 0.000000 0.000000
# 5 0.000000 0.000000 0.000000 0.000000 0.137379 0.000000
# 6 0.000000 0.000000 0.000000 0.000000 0.000000 0.069975
#
#
# Mechanical properties :
#
#
# Convention : Reuss Voigt Hill
#
# Bulk Modulus (GPa) = 34.92543 40.14804 37.53673
# Shear Modulus (GPa) = 14.34321 19.59978 16.97149
#
# Velocity S-wave (km/s) = 2.86646 3.35080 3.11805
# Velocity P-wave (km/s) = 5.56442 6.16195 5.87079
#
# Compressibility (1/GPa) = 0.02863244
#
# Stress axis : x y z
#
# Youngs Moduli (GPa) = 82.93845 47.27439 73.75599
#
# Poissons Ratio (x) = 0.32805 0.19816
# Poissons Ratio (y) = 0.57554 -0.04116
# Poissons Ratio (z) = 0.22283 -0.02638
#
# Static dielectric constant tensor:
#      x y z
#    x 1.617380 0.000000 0.000000 
#    y 0.000000 1.646090 0.000000 
#    z 0.000000 0.000000 1.647080 
# 
# From -- ./inp_files/22165.got.cif
#   From: 2010.05.17/outbox.cif.g08.bks.cpg/sg23_12_cif.got.tgz:22165.got - 2010.06.04 12:02:01.
