data_PCOD9330871
_publ_section_title
;
Structure prediction by ZEFSAII (Michael W. Deem and Ramdas Pophale) SiO2 
 PCOD9330871
Probable space group: I 2 2 2
;
_chemical_formula_sum "Si O2"
_cell_formula_units_Z 48
_cell_length_a 30.262069
_cell_length_b 8.507395
_cell_length_c 9.078349
_cell_angle_alpha 90.000000
_cell_angle_beta 90.000000
_cell_angle_gamma 90.000000
_cell_volume 2337.233428
_symmetry_space_group_name_H-M "I 2 2 2"
_symmetry_group_IT_number 23
_symmetry_cell_setting 'orthorhombic'
loop_
_space_group_symop_operation_xyz
x,y,z
-x,-y,z
x,-y,-z
-x,y,-z
1/2+x,1/2+y,1/2+z
1/2-x,1/2-y,1/2+z
1/2+x,1/2-y,1/2-z
1/2-x,1/2+y,1/2-z
loop_
_atom_site_type_symbol
_atom_site_label
_atom_site_fract_x
_atom_site_fract_y
_atom_site_fract_z
Si Si1 0.338029 0.556945 0.167969
Si Si2 0.808819 0.592780 0.851110
Si Si3 0.606035 0.723360 0.211327
Si Si4 0.448502 0.029298 0.329143
Si Si5 0.742704 0.583205 0.346586
Si Si6 0.884278 0.357472 0.596736
O O1 0.379937 0.456097 0.223101
O O2 0.298223 0.505415 0.269749
O O3 0.350018 0.738506 0.168293
O O4 0.328325 0.500000 0.000000
O O5 0.851211 0.675713 0.772753
O O6 0.783820 0.461361 0.755502
O O7 0.773381 0.736797 0.869525
O O8 0.821447 0.500000 0.000000
O O9 0.564947 0.790936 0.298424
O O10 0.596057 0.756321 0.039042
O O11 0.418734 0.926832 0.214802
O O12 0.500000 0.000000 0.302626
O O13 0.438347 0.000000 0.500000
O O14 0.751372 0.500000 0.500000
O O15 0.864391 0.500000 0.500000
#
# Coordination Sequence:
#
# PCOD9330871 Si02
#       6
#     8   8   8   8   8   8
#     4   9  19  38  58  83 117 151 191 238 288 341
#     4  11  23  40  58  82 116 154 196 241 291 345
#     4   9  20  37  59  84 111 147 190 236 291 344
#     4  10  21  37  57  83 114 149 190 234 284 346
#     4  11  24  37  56  84 115 154 197 243 289 341
#     4   9  19  34  59  85 109 147 187 231 282 337
#
# _framework density 20.537102000000001
#
# number of rings (size 3 to 8) (size 9 to 14) (size 15 to 20)
#    0.000    2.167    0.000    2.000    0.000   15.667 
#    0.000    0.833    0.000    7.000    0.000    0.000 
#    0.000    0.000    0.000    0.000    0.000    0.000 
#
# Total GULP energy -133874.389898 kJ/mol
# GULP energy per Si atom -5578.099579 kJ/mol
# Density = 2.049036 g / cm^3
# Si number density = 20.537102 Si / 1000 Ang^3
#
#
#
# Elastic Constant Matrix: (Units=GPa)
#
#
# Indices 1 2 3 4 5 6 
#
# 1 68.4880 50.6327 41.9144 0.0000 0.0000 0.0000
# 2 50.6327 117.5914 37.6529 0.0000 0.0000 0.0000
# 3 41.9144 37.6529 110.8290 0.0000 0.0000 0.0000
# 4 0.0000 0.0000 0.0000 24.8850 0.0000 0.0000
# 5 0.0000 0.0000 0.0000 0.0000 14.3061 0.0000
# 6 0.0000 0.0000 0.0000 0.0000 0.0000 14.3601
#
#
#
# Elastic Compliance Matrix: (Units=1/GPa)
#
#
# Indices 1 2 3 4 5 6 
#
# 1 0.025001 -0.008682 -0.006506 0.000000 0.000000 0.000000
# 2 -0.008682 0.012557 -0.000983 0.000000 0.000000 0.000000
# 3 -0.006506 -0.000983 0.011817 0.000000 0.000000 0.000000
# 4 0.000000 0.000000 0.000000 0.040185 0.000000 0.000000
# 5 0.000000 0.000000 0.000000 0.000000 0.069900 0.000000
# 6 0.000000 0.000000 0.000000 0.000000 0.000000 0.069637
#
#
# Mechanical properties :
#
#
# Convention : Reuss Voigt Hill
#
# Bulk Modulus (GPa) = 58.70338 61.92313 60.31325
# Shear Modulus (GPa) = 18.71847 21.82413 20.27130
#
# Velocity S-wave (km/s) = 3.02229 3.26340 3.14516
# Velocity P-wave (km/s) = 6.38945 6.66461 6.52848
#
# Compressibility (1/GPa) = 0.01703479
#
# Stress axis : x y z
#
# Youngs Moduli (GPa) = 39.99865 79.63738 84.62323
#
# Poissons Ratio (x) = 0.69140 0.55052
# Poissons Ratio (y) = 0.34726 0.08316
# Poissons Ratio (z) = 0.26021 0.07826
#
# Static dielectric constant tensor:
#      x y z
#    x 1.733870 0.000000 0.000000 
#    y 0.000000 1.776440 0.000000 
#    z 0.000000 0.000000 1.752740 
# 
# From -- ./inp_files/13347.got.cif
#   From: 2010.05.17/outbox.cif.g08.bks.cpg/sg23_7_cif.got.tgz:13347.got - 2010.06.04 12:02:01.
