data_PCOD9330955
_publ_section_title
;
Structure prediction by ZEFSAII (Michael W. Deem and Ramdas Pophale) SiO2 
 PCOD9330955
Probable space group: I 2 2 2
;
_chemical_formula_sum "Si O2"
_cell_formula_units_Z 48
_cell_length_a 9.553156
_cell_length_b 28.248608
_cell_length_c 9.091062
_cell_angle_alpha 90.000000
_cell_angle_beta 90.000000
_cell_angle_gamma 90.000000
_cell_volume 2453.344528
_symmetry_space_group_name_H-M "I 2 2 2"
_symmetry_group_IT_number 23
_symmetry_cell_setting 'orthorhombic'
loop_
_space_group_symop_operation_xyz
x,y,z
-x,-y,z
x,-y,-z
-x,y,-z
1/2+x,1/2+y,1/2+z
1/2-x,1/2-y,1/2+z
1/2+x,1/2-y,1/2-z
1/2-x,1/2+y,1/2-z
loop_
_atom_site_type_symbol
_atom_site_label
_atom_site_fract_x
_atom_site_fract_y
_atom_site_fract_z
Si Si1 0.251163 0.694207 0.202448
Si Si2 0.919185 0.455959 0.655119
Si Si3 0.416064 0.456225 0.344241
Si Si4 0.211376 0.791501 0.362268
Si Si5 0.497381 0.647804 0.676704
Si Si6 0.968717 0.361635 0.835817
O O1 0.255077 0.739968 0.306019
O O2 0.345472 0.652475 0.267186
O O3 0.095753 0.673502 0.200066
O O4 0.304459 0.707857 0.038860
O O5 0.751146 0.464859 0.641103
O O6 0.945815 0.406656 0.734832
O O7 0.000000 0.500000 0.730655
O O8 0.000000 0.451763 0.500000
O O9 0.500000 0.500000 0.269072
O O10 0.500000 0.452323 0.500000
O O11 0.435323 0.403445 0.280932
O O12 0.332523 0.829287 0.332832
O O13 0.083848 0.810698 0.263180
O O14 0.500000 0.654274 0.500000
O O15 0.000000 0.379238 0.000000
#
# Coordination Sequence:
#
# PCOD9330955 Si02
#       6
#     8   8   8   8   8   8
#     4  11  24  38  68  87 128 166 209 264 309 379
#     4  11  23  38  67  97 123 159 212 255 308 374
#     4  10  21  38  62  92 131 159 203 259 313 366
#     4  11  22  44  60  95 123 166 214 258 318 368
#     4  11  23  38  63  93 126 167 207 256 314 373
#     4  10  24  42  61  89 128 164 203 257 314 369
#
# _framework density 19.565128999999999
#
# number of rings (size 3 to 8) (size 9 to 14) (size 15 to 20)
#    0.000    1.333    1.667    4.500    7.000    3.000 
#    0.000    0.000    0.000    2.000    0.000    0.000 
#    0.000    0.000    0.000    0.000    0.000    0.000 
#
# Total GULP energy -133877.244424 kJ/mol
# GULP energy per Si atom -5578.218518 kJ/mol
# Density = 1.952060 g / cm^3
# Si number density = 19.565129 Si / 1000 Ang^3
#
#
#
# Elastic Constant Matrix: (Units=GPa)
#
#
# Indices 1 2 3 4 5 6 
#
# 1 73.7980 25.6868 34.2462 0.0013 0.0008 0.0199
# 2 25.6868 106.3844 38.3785 0.0054 0.0006 0.0334
# 3 34.2462 38.3785 77.3286 0.0014 0.0042 0.0184
# 4 0.0013 0.0054 0.0014 32.4283 0.0013 -0.0051
# 5 0.0008 0.0006 0.0042 0.0013 25.1345 0.0093
# 6 0.0199 0.0334 0.0184 -0.0051 0.0093 -74.2928
#
#
#
# Elastic Compliance Matrix: (Units=1/GPa)
#
#
# Indices 1 2 3 4 5 6 
#
# 1 0.017311 -0.001722 -0.006812 0.000000 0.000001 0.000002
# 2 -0.001722 0.011621 -0.005005 -0.000002 0.000001 0.000004
# 3 -0.006812 -0.005005 0.018432 0.000000 -0.000003 0.000000
# 4 0.000000 -0.000002 0.000000 0.030837 -0.000002 -0.000002
# 5 0.000001 0.000001 -0.000003 -0.000002 0.039786 0.000005
# 6 0.000002 0.000004 0.000000 -0.000002 0.000005 -0.013460
#
#
# Mechanical properties :
#
#
# Convention : Reuss Voigt Hill
#
# Bulk Modulus (GPa) = 49.29311 50.45931 49.87621
# Shear Modulus (GPa) = 36.13561 7.26730 21.70146
#
# Velocity S-wave (km/s) = 4.30227 1.92937 3.33406
# Velocity P-wave (km/s) = 7.06600 5.55065 6.35366
#
# Compressibility (1/GPa) = 0.02028681
#
# Stress axis : x y z
#
# Youngs Moduli (GPa) = 57.76688 86.04888 54.25239
#
# Poissons Ratio (x) = 0.14822 0.36954
# Poissons Ratio (y) = 0.09950 0.27153
# Poissons Ratio (z) = 0.39348 0.43066
#
# Static dielectric constant tensor:
#      x y z
#    x 1.714010 0.000000 -0.000020 
#    y 0.000000 1.696990 0.000010 
#    z -0.000020 0.000010 1.783520 
# 
# From -- ./inp_files/7323.got.cif
#   From: 2010.05.17/outbox.cif.g08.bks.cpg/sg23_4_cif.got.tgz:7323.got - 2010.06.04 12:02:01.
