data_PCOD9330268
_publ_section_title
;
Structure prediction by ZEFSAII (Michael W. Deem and Ramdas Pophale) SiO2 
 PCOD9330268
Probable space group: I 2 2 2
;
_chemical_formula_sum "Si O2"
_cell_formula_units_Z 64
_cell_length_a 27.046518
_cell_length_b 15.780289
_cell_length_c 5.900288
_cell_angle_alpha 90.000000
_cell_angle_beta 90.000000
_cell_angle_gamma 90.000000
_cell_volume 2518.253955
_symmetry_space_group_name_H-M "I 2 2 2"
_symmetry_group_IT_number 23
_symmetry_cell_setting 'orthorhombic'
loop_
_space_group_symop_operation_xyz
x,y,z
-x,-y,z
x,-y,-z
-x,y,-z
1/2+x,1/2+y,1/2+z
1/2-x,1/2-y,1/2+z
1/2+x,1/2-y,1/2-z
1/2-x,1/2+y,1/2-z
loop_
_atom_site_type_symbol
_atom_site_label
_atom_site_fract_x
_atom_site_fract_y
_atom_site_fract_z
Si Si1 0.404998 0.870153 0.690255
Si Si2 0.289254 0.156890 0.344038
Si Si3 0.512260 0.260987 0.749993
Si Si4 0.716223 0.344393 0.494634
Si Si5 0.874982 0.189298 0.668605
Si Si6 0.442225 0.532427 0.252567
Si Si7 0.573775 0.131442 0.193190
Si Si8 0.307289 0.410889 0.096316
O O1 0.346452 0.863249 0.651398
O O2 0.432650 0.777698 0.717472
O O3 0.420658 0.908637 0.444083
O O4 0.418190 0.908364 0.941219
O O5 0.280300 0.257056 0.368871
O O6 0.247942 0.114336 0.507002
O O7 0.269449 0.133994 0.098224
O O8 0.500000 0.300488 0.500000
O O9 0.479211 0.176656 0.778234
O O10 0.500000 0.303833 0.000000
O O11 0.674208 0.326771 0.313178
O O12 0.698227 0.420636 0.640829
O O13 0.919864 0.128449 0.742463
O O14 0.889629 0.286641 0.685387
O O15 0.851683 0.156454 0.434647
O O16 0.500000 0.500000 0.258049
O O17 0.423428 0.500000 0.500000
O O18 0.427103 0.500000 0.000000
O O19 0.321425 0.500000 0.000000
#
# Coordination Sequence:
#
# PCOD9330268 Si02
#       8
#     8   8   8   8   8   8   8   8
#     4  10  20  34  57  83 123 159 200 258 323 385
#     4  11  22  37  63  91 124 165 216 277 331 407
#     4   8  16  32  47  76 121 153 193 243 312 379
#     4  11  23  39  63  93 124 165 225 280 343 401
#     4  11  24  37  64  87 125 173 226 277 331 390
#     4  10  24  46  61  86 120 171 236 284 329 382
#     4  10  20  34  55  90 121 164 204 262 321 383
#     4  11  26  43  64  91 129 172 222 281 341 403
#
# _framework density 25.414432999999999
#
# number of rings (size 3 to 8) (size 9 to 14) (size 15 to 20)
#    0.000    1.750    2.500    1.125    7.000    1.500 
#   13.500    0.000    0.000    0.000    0.000    0.000 
#    0.000    4.500    3.000    0.000    0.000    0.000 
#
# Total GULP energy -178156.380092 kJ/mol
# GULP energy per Si atom -5567.386878 kJ/mol
# Density = 2.535659 g / cm^3
# Si number density = 25.414433 Si / 1000 Ang^3
#
#
#
# Elastic Constant Matrix: (Units=GPa)
#
#
# Indices 1 2 3 4 5 6 
#
# 1 147.0029 11.8230 22.8989 0.0000 0.0000 0.0000
# 2 11.8230 46.2898 22.7625 0.0000 0.0000 0.0000
# 3 22.8989 22.7625 195.5423 0.0000 0.0000 0.0000
# 4 0.0000 0.0000 0.0000 28.3142 0.0000 0.0000
# 5 0.0000 0.0000 0.0000 0.0000 24.8923 0.0000
# 6 0.0000 0.0000 0.0000 0.0000 0.0000 15.3144
#
#
#
# Elastic Compliance Matrix: (Units=1/GPa)
#
#
# Indices 1 2 3 4 5 6 
#
# 1 0.007022 -0.001474 -0.000651 0.000000 0.000000 0.000000
# 2 -0.001474 0.023224 -0.002531 0.000000 0.000000 0.000000
# 3 -0.000651 -0.002531 0.005485 0.000000 0.000000 0.000000
# 4 0.000000 0.000000 0.000000 0.035318 0.000000 0.000000
# 5 0.000000 0.000000 0.000000 0.000000 0.040173 0.000000
# 6 0.000000 0.000000 0.000000 0.000000 0.000000 0.065298
#
#
# Mechanical properties :
#
#
# Convention : Reuss Voigt Hill
#
# Bulk Modulus (GPa) = 37.84917 55.97818 46.91367
# Shear Modulus (GPa) = 25.68872 35.79420 30.74146
#
# Velocity S-wave (km/s) = 3.18275 3.75696 3.48171
# Velocity P-wave (km/s) = 5.33213 6.39481 5.88750
#
# Compressibility (1/GPa) = 0.02642066
#
# Stress axis : x y z
#
# Youngs Moduli (GPa) = 142.39972 43.05901 182.32180
#
# Poissons Ratio (x) = 0.06345 0.11866
# Poissons Ratio (y) = 0.20984 0.46143
# Poissons Ratio (z) = 0.09268 0.10898
#
# Static dielectric constant tensor:
#      x y z
#    x 1.976620 0.000000 0.000000 
#    y 0.000000 1.969720 0.000000 
#    z 0.000000 0.000000 2.227270 
# 
# From -- ./inp_files/5068.got.cif
#   From: 2010.05.17/outbox.cif.g08.bks.cpg/sg23_3_cif.got.tgz:5068.got - 2010.06.04 12:02:01.
