data_PCOD9330661
_publ_section_title
;
Structure prediction by ZEFSAII (Michael W. Deem and Ramdas Pophale) SiO2 
 PCOD9330661
Probable space group: I 2 2 2
;
_chemical_formula_sum "Si O2"
_cell_formula_units_Z 64
_cell_length_a 14.792910
_cell_length_b 9.564832
_cell_length_c 19.708987
_cell_angle_alpha 90.000000
_cell_angle_beta 90.000000
_cell_angle_gamma 90.000000
_cell_volume 2788.658055
_symmetry_space_group_name_H-M "I 2 2 2"
_symmetry_group_IT_number 23
_symmetry_cell_setting 'orthorhombic'
loop_
_space_group_symop_operation_xyz
x,y,z
-x,-y,z
x,-y,-z
-x,y,-z
1/2+x,1/2+y,1/2+z
1/2-x,1/2-y,1/2+z
1/2+x,1/2-y,1/2-z
1/2-x,1/2+y,1/2-z
loop_
_atom_site_type_symbol
_atom_site_label
_atom_site_fract_x
_atom_site_fract_y
_atom_site_fract_z
Si Si1 0.302294 0.195230 0.010437
Si Si2 0.741303 0.050489 0.113716
Si Si3 0.570299 0.388398 0.667090
Si Si4 0.409017 0.935233 0.627380
Si Si5 0.288482 0.521742 0.906407
Si Si6 0.401972 0.692413 0.814184
Si Si7 0.104163 0.499571 0.281790
Si Si8 0.449954 0.693422 0.065836
O O1 0.397733 0.176832 0.970227
O O2 0.237374 0.156409 0.948284
O O3 0.287680 0.088171 0.071942
O O4 0.294439 0.351001 0.039617
O O5 0.664411 0.093817 0.168345
O O6 0.832142 0.041924 0.156480
O O7 0.500000 0.500000 0.637674
O O8 0.573104 0.229959 0.638565
O O9 0.551570 0.365464 0.746873
O O10 0.397897 0.015283 0.700802
O O11 0.500000 0.000000 0.595357
O O12 0.312414 0.962950 0.593352
O O13 0.318932 0.596963 0.836959
O O14 0.367938 0.407363 0.912904
O O15 0.362954 0.842958 0.794642
O O16 0.475892 0.705985 0.874895
O O17 0.000000 0.500000 0.304280
O O18 0.500000 0.636182 0.000000
#
# Coordination Sequence:
#
# PCOD9330661 Si02
#       8
#     8   8   8   8   8   8   8   8
#     4  11  25  38  67  96 138 189 230 291 356 439
#     4  11  23  45  64  99 142 186 243 288 369 431
#     4  11  25  45  73 101 138 188 251 308 364 435
#     4  10  25  44  70 100 137 185 245 306 364 419
#     4  12  23  40  67  98 143 184 234 292 361 431
#     4  11  23  39  67 109 143 190 235 294 375 440
#     4  10  20  40  63  99 143 188 235 295 358 438
#     4  12  23  39  64 103 142 178 226 285 362 444
#
# _framework density 22.950105000000001
#
# number of rings (size 3 to 8) (size 9 to 14) (size 15 to 20)
#    0.000    1.000    2.500    3.750    3.500    0.000 
#    0.000    6.250    2.750    0.750    0.000    0.000 
#    0.000    0.000    0.000    0.000    0.000    0.000 
#
# Total GULP energy -178555.216685 kJ/mol
# GULP energy per Si atom -5579.850521 kJ/mol
# Density = 2.289787 g / cm^3
# Si number density = 22.950105 Si / 1000 Ang^3
#
#
#
# Elastic Constant Matrix: (Units=GPa)
#
#
# Indices 1 2 3 4 5 6 
#
# 1 124.7083 9.7027 13.2424 0.0000 0.0000 0.0000
# 2 9.7027 70.2041 3.0499 0.0000 0.0000 0.0000
# 3 13.2424 3.0499 56.0756 0.0000 0.0000 0.0000
# 4 0.0000 0.0000 0.0000 22.2117 0.0000 0.0000
# 5 0.0000 0.0000 0.0000 0.0000 31.1763 0.0000
# 6 0.0000 0.0000 0.0000 0.0000 0.0000 29.8922
#
#
#
# Elastic Compliance Matrix: (Units=1/GPa)
#
#
# Indices 1 2 3 4 5 6 
#
# 1 0.008304 -0.001065 -0.001903 0.000000 0.000000 0.000000
# 2 -0.001065 0.014414 -0.000533 0.000000 0.000000 0.000000
# 3 -0.001903 -0.000533 0.018311 0.000000 0.000000 0.000000
# 4 0.000000 0.000000 0.000000 0.045021 0.000000 0.000000
# 5 0.000000 0.000000 0.000000 0.000000 0.032076 0.000000
# 6 0.000000 0.000000 0.000000 0.000000 0.000000 0.033453
#
#
# Mechanical properties :
#
#
# Convention : Reuss Voigt Hill
#
# Bulk Modulus (GPa) = 29.38699 33.66422 31.52560
# Shear Modulus (GPa) = 29.42496 31.65559 30.54027
#
# Velocity S-wave (km/s) = 3.58457 3.71795 3.65187
# Velocity P-wave (km/s) = 5.47400 5.75597 5.61675
#
# Compressibility (1/GPa) = 0.03402866
#
# Stress axis : x y z
#
# Youngs Moduli (GPa) = 120.42908 69.37459 54.61066
#
# Poissons Ratio (x) = 0.07388 0.10392
# Poissons Ratio (y) = 0.12825 0.02908
# Poissons Ratio (z) = 0.22918 0.03694
#
# Static dielectric constant tensor:
#      x y z
#    x 1.903400 0.000000 0.000000 
#    y 0.000000 1.985220 0.000000 
#    z 0.000000 0.000000 1.943650 
# 
# From -- ./inp_files/24869.got.cif
#   From: 2010.05.17/outbox.cif.g08.bks.cpg/sg23_13_cif.got.tgz:24869.got - 2010.06.04 12:02:01.
