data_PCOD9330014
_publ_section_title
;
Structure prediction by ZEFSAII (Michael W. Deem and Ramdas Pophale) SiO2 
 PCOD9330014
Probable space group: I 2 2 2
;
_chemical_formula_sum "Si O2"
_cell_formula_units_Z 48
_cell_length_a 15.326662
_cell_length_b 4.938536
_cell_length_c 32.265314
_cell_angle_alpha 90.000000
_cell_angle_beta 90.000000
_cell_angle_gamma 90.000000
_cell_volume 2442.202660
_symmetry_space_group_name_H-M "I 2 2 2"
_symmetry_group_IT_number 23
_symmetry_cell_setting 'orthorhombic'
loop_
_space_group_symop_operation_xyz
x,y,z
-x,-y,z
x,-y,-z
-x,y,-z
1/2+x,1/2+y,1/2+z
1/2-x,1/2-y,1/2+z
1/2+x,1/2-y,1/2-z
1/2-x,1/2+y,1/2-z
loop_
_atom_site_type_symbol
_atom_site_label
_atom_site_fract_x
_atom_site_fract_y
_atom_site_fract_z
Si Si1 0.404562 0.601705 0.932187
Si Si2 0.310158 0.278250 0.243812
Si Si3 0.785317 0.031125 0.130789
Si Si4 0.796525 0.597734 0.455690
Si Si5 0.060061 0.750632 0.183653
Si Si6 0.177945 0.034710 0.654381
O O1 0.500000 0.500000 0.943543
O O2 0.333249 0.400628 0.952364
O O3 0.390206 0.584010 0.882498
O O4 0.379182 0.902418 0.945708
O O5 0.259654 0.538704 0.262145
O O6 0.379414 0.175620 0.277246
O O7 0.349442 0.377520 0.200191
O O8 0.771410 0.056226 0.081609
O O9 0.876465 0.137065 0.147868
O O10 0.711337 0.227876 0.150788
O O11 0.761099 0.726305 0.143560
O O12 0.763125 0.500000 0.500000
O O13 0.000000 0.500000 0.171063
O O14 0.000000 0.000000 0.197028
#
# Coordination Sequence:
#
# PCOD9330014 Si02
#       6
#     8   8   8   8   8   8
#     4  10  21  34  53  82 119 152 184 235 288 330
#     4  12  21  37  60  81 113 157 196 236 278 334
#     4  10  20  38  58  79 111 149 187 234 283 345
#     4  10  21  36  58  84 107 147 199 231 279 352
#     4  12  24  37  57  89 116 143 194 245 293 334
#     4  10  19  36  57  78 107 159 198 221 272 345
#
# _framework density 19.654388000000001
#
# number of rings (size 3 to 8) (size 9 to 14) (size 15 to 20)
#    0.000    1.333    3.333    3.000    0.000    2.667 
#    0.000    3.333    0.000    0.500    0.000    1.167 
#    0.000    0.000    0.000    0.000    0.000    0.000 
#
# Total GULP energy -134102.325967 kJ/mol
# GULP energy per Si atom -5587.596915 kJ/mol
# Density = 1.960965 g / cm^3
# Si number density = 19.654388 Si / 1000 Ang^3
#
#
#
# Elastic Constant Matrix: (Units=GPa)
#
#
# Indices 1 2 3 4 5 6 
#
# 1 50.8380 -6.6771 20.8605 0.0000 0.0000 0.0000
# 2 -6.6771 65.1425 -5.8178 0.0000 0.0000 0.0000
# 3 20.8605 -5.8178 137.1099 0.0000 0.0000 0.0000
# 4 0.0000 0.0000 0.0000 24.9241 0.0000 0.0000
# 5 0.0000 0.0000 0.0000 0.0000 3.4527 0.0000
# 6 0.0000 0.0000 0.0000 0.0000 0.0000 27.3967
#
#
#
# Elastic Compliance Matrix: (Units=1/GPa)
#
#
# Indices 1 2 3 4 5 6 
#
# 1 0.021210 0.001893 -0.003147 0.000000 0.000000 0.000000
# 2 0.001893 0.015578 0.000373 0.000000 0.000000 0.000000
# 3 -0.003147 0.000373 0.007788 0.000000 0.000000 0.000000
# 4 0.000000 0.000000 0.000000 0.040122 0.000000 0.000000
# 5 0.000000 0.000000 0.000000 0.000000 0.289633 0.000000
# 6 0.000000 0.000000 0.000000 0.000000 0.000000 0.036501
#
#
# Mechanical properties :
#
#
# Convention : Reuss Voigt Hill
#
# Bulk Modulus (GPa) = 23.35625 29.98019 26.66822
# Shear Modulus (GPa) = 11.71332 27.46969 19.59150
#
# Velocity S-wave (km/s) = 2.44389 3.74255 3.16064
# Velocity P-wave (km/s) = 4.45788 5.82773 5.18821
#
# Compressibility (1/GPa) = 0.04281509
#
# Stress axis : x y z
#
# Youngs Moduli (GPa) = 47.14726 64.19187 128.40276
#
# Poissons Ratio (x) = -0.12152 0.40404
# Poissons Ratio (y) = -0.08925 -0.04789
# Poissons Ratio (z) = 0.14836 -0.02394
#
# Static dielectric constant tensor:
#      x y z
#    x 1.669000 0.000000 0.000000 
#    y 0.000000 1.678590 0.000000 
#    z 0.000000 0.000000 1.725610 
# 
# From -- ./inp_files/2692.got.cif
#   From: 2010.05.17/outbox.cif.g08.bks.cpg/sg23_2_cif.got.tgz:2692.got - 2010.06.04 12:02:01.
