data_PCOD9330420
_publ_section_title
;
Structure prediction by ZEFSAII (Michael W. Deem and Ramdas Pophale) SiO2 
 PCOD9330420
Probable space group: I 2 2 2
;
_chemical_formula_sum "Si O2"
_cell_formula_units_Z 54
_cell_length_a 11.602002
_cell_length_b 14.626655
_cell_length_c 14.779508
_cell_angle_alpha 90.000000
_cell_angle_beta 90.000000
_cell_angle_gamma 90.000000
_cell_volume 2508.060051
_symmetry_space_group_name_H-M "I 2 2 2"
_symmetry_group_IT_number 23
_symmetry_cell_setting 'orthorhombic'
loop_
_space_group_symop_operation_xyz
x,y,z
-x,-y,z
x,-y,-z
-x,y,-z
1/2+x,1/2+y,1/2+z
1/2-x,1/2-y,1/2+z
1/2+x,1/2-y,1/2-z
1/2-x,1/2+y,1/2-z
loop_
_atom_site_type_symbol
_atom_site_label
_atom_site_fract_x
_atom_site_fract_y
_atom_site_fract_z
Si Si1 0.888473 0.797273 0.873534
Si Si2 0.500000 0.000000 0.000000
Si Si3 0.187734 0.651908 0.276275
Si Si4 0.850452 0.242936 0.923973
Si Si5 0.778686 0.053154 0.235030
Si Si6 0.000000 0.790337 0.500000
Si Si7 0.937743 0.637594 0.356817
Si Si8 0.714209 0.411197 0.940426
O O1 0.827260 0.718295 0.811590
O O2 0.871180 0.896422 0.828345
O O3 0.023707 0.775023 0.883338
O O4 0.840083 0.799971 0.975783
O O5 0.424230 0.937407 0.064325
O O6 0.253038 0.707506 0.355273
O O7 0.252655 0.554543 0.272071
O O8 0.058344 0.626567 0.305844
O O9 0.828466 0.349739 0.940208
O O10 0.665294 0.114803 0.211024
O O11 0.813794 0.066061 0.337738
O O12 0.956599 0.729879 0.414427
O O13 0.891265 0.851383 0.524218
O O14 0.729022 0.500000 0.000000
#
# Coordination Sequence:
#
# PCOD9330420 Si02
#       8
#     8   2   8   8   8   4   8   8
#     4  11  26  47  71 107 151 199 247 308 380 457
#     4  10  20  36  62 112 138 168 238 300 356 440
#     4  12  24  46  73 107 146 196 251 315 378 448
#     4  11  25  49  74 100 153 200 245 305 386 447
#     4  12  25  43  73 112 148 187 252 315 378 453
#     4  11  23  45  73 106 150 198 241 311 377 447
#     4  11  22  39  74 106 143 187 243 310 375 431
#     4  12  25  47  70 108 146 197 251 301 372 452
#
# _framework density 21.530584999999999
#
# number of rings (size 3 to 8) (size 9 to 14) (size 15 to 20)
#    0.000    0.593    4.444    2.889    2.074    1.185 
#    8.000    5.926    0.000    0.000    0.000    0.000 
#    0.000    0.000    0.000    0.000    0.000    0.000 
#
# Total GULP energy -150926.810156 kJ/mol
# GULP energy per Si atom -5589.881858 kJ/mol
# Density = 2.148158 g / cm^3
# Si number density = 21.530585 Si / 1000 Ang^3
#
#
#
# Elastic Constant Matrix: (Units=GPa)
#
#
# Indices 1 2 3 4 5 6 
#
# 1 86.0132 31.8602 23.2638 0.0000 0.0000 0.0000
# 2 31.8602 133.3306 47.5261 0.0000 0.0000 0.0000
# 3 23.2638 47.5261 117.9981 0.0000 0.0000 0.0000
# 4 0.0000 0.0000 0.0000 35.4707 0.0000 0.0000
# 5 0.0000 0.0000 0.0000 0.0000 25.2283 0.0000
# 6 0.0000 0.0000 0.0000 0.0000 0.0000 -65.6055
#
#
#
# Elastic Compliance Matrix: (Units=1/GPa)
#
#
# Indices 1 2 3 4 5 6 
#
# 1 0.012988 -0.002558 -0.001530 0.000000 0.000000 0.000000
# 2 -0.002558 0.009261 -0.003226 0.000000 0.000000 0.000000
# 3 -0.001530 -0.003226 0.010076 0.000000 0.000000 0.000000
# 4 0.000000 0.000000 0.000000 0.028192 0.000000 0.000000
# 5 0.000000 0.000000 0.000000 0.000000 0.039638 0.000000
# 6 0.000000 0.000000 0.000000 0.000000 0.000000 -0.015243
#
#
# Mechanical properties :
#
#
# Convention : Reuss Voigt Hill
#
# Bulk Modulus (GPa) = 56.50904 60.29357 58.40130
# Shear Modulus (GPa) = 47.42071 14.66481 31.04276
#
# Velocity S-wave (km/s) = 4.69815 2.61265 3.80122
# Velocity P-wave (km/s) = 7.46546 6.09637 6.81538
#
# Compressibility (1/GPa) = 0.01769628
#
# Stress axis : x y z
#
# Youngs Moduli (GPa) = 76.99705 107.97671 99.24891
#
# Poissons Ratio (x) = 0.27620 0.15188
# Poissons Ratio (y) = 0.19696 0.32016
# Poissons Ratio (z) = 0.11783 0.34832
#
# Static dielectric constant tensor:
#      x y z
#    x 1.784450 0.000000 0.000000 
#    y 0.000000 1.846820 0.000000 
#    z 0.000000 0.000000 1.866840 
# 
# From -- ./inp_files/20927.got.cif
#   From: 2010.05.17/outbox.cif.g08.bks.cpg/sg23_11_cif.got.tgz:20927.got - 2010.06.04 12:02:01.
