data_PCOD9330577
_publ_section_title
;
Structure prediction by ZEFSAII (Michael W. Deem and Ramdas Pophale) SiO2 
 PCOD9330577
Probable space group: I 2 2 2
;
_chemical_formula_sum "Si O2"
_cell_formula_units_Z 58
_cell_length_a 8.302753
_cell_length_b 16.893800
_cell_length_c 18.593422
_cell_angle_alpha 90.000000
_cell_angle_beta 90.000000
_cell_angle_gamma 90.000000
_cell_volume 2608.007241
_symmetry_space_group_name_H-M "I 2 2 2"
_symmetry_group_IT_number 23
_symmetry_cell_setting 'orthorhombic'
loop_
_space_group_symop_operation_xyz
x,y,z
-x,-y,z
x,-y,-z
-x,y,-z
1/2+x,1/2+y,1/2+z
1/2-x,1/2-y,1/2+z
1/2+x,1/2-y,1/2-z
1/2-x,1/2+y,1/2-z
loop_
_atom_site_type_symbol
_atom_site_label
_atom_site_fract_x
_atom_site_fract_y
_atom_site_fract_z
Si Si1 0.743240 0.293138 0.600280
Si Si2 0.500000 0.500000 0.000000
Si Si3 0.479087 0.911591 0.884528
Si Si4 0.189850 0.130407 0.318307
Si Si5 0.531136 0.113788 0.282210
Si Si6 0.149256 0.110326 0.616607
Si Si7 0.756688 0.779281 0.064024
Si Si8 0.473237 0.706517 0.308578
O O1 0.790033 0.208553 0.633267
O O2 0.692981 0.278011 0.518319
O O3 0.640956 0.330982 0.667258
O O4 0.885242 0.353656 0.586684
O O5 0.620719 0.446600 0.951514
O O6 0.514820 0.916682 0.798811
O O7 0.322129 0.862190 0.909537
O O8 0.500000 0.000000 0.913020
O O9 0.363088 0.087753 0.321220
O O10 0.151055 0.156082 0.236558
O O11 0.018290 0.095274 0.341127
O O12 0.693022 0.100927 0.330708
O O13 0.509631 0.209122 0.270385
O O14 0.154178 0.201290 0.586963
O O15 0.911603 0.770193 0.113404
#
# Coordination Sequence:
#
# PCOD9330577 Si02
#       8
#     8   2   8   8   8   8   8   8
#     4  11  22  36  63  96 134 177 225 284 349 405
#     4  12  28  48  70 112 142 190 222 296 366 436
#     4  12  24  39  62  95 133 176 232 279 347 405
#     4  11  20  39  72 101 132 183 239 288 339 422
#     4  10  22  41  67 102 138 179 229 296 341 408
#     4  11  24  44  72  99 142 181 234 278 353 429
#     4  11  22  42  65  96 135 179 224 286 348 422
#     4  10  20  38  69 101 125 172 241 284 338 421
#
# _framework density 22.239201000000001
#
# number of rings (size 3 to 8) (size 9 to 14) (size 15 to 20)
#    0.000    1.103    4.138    2.483    3.862    2.207 
#    0.000    3.448    0.000    1.655    0.000    0.000 
#    0.000    0.000    0.000    0.000    0.000    0.000 
#
# Total GULP energy -161496.003562 kJ/mol
# GULP energy per Si atom -5568.827709 kJ/mol
# Density = 2.218858 g / cm^3
# Si number density = 22.239201 Si / 1000 Ang^3
#
#
#
# Elastic Constant Matrix: (Units=GPa)
#
#
# Indices 1 2 3 4 5 6 
#
# 1 110.6794 5.7822 41.6463 0.0000 0.0000 0.0000
# 2 5.7822 73.9150 29.3299 0.0000 0.0000 0.0000
# 3 41.6463 29.3299 144.7094 0.0000 0.0000 0.0000
# 4 0.0000 0.0000 0.0000 7.3089 0.0000 0.0000
# 5 0.0000 0.0000 0.0000 0.0000 15.1793 0.0000
# 6 0.0000 0.0000 0.0000 0.0000 0.0000 -5.6261
#
#
#
# Elastic Compliance Matrix: (Units=1/GPa)
#
#
# Indices 1 2 3 4 5 6 
#
# 1 0.010143 0.000397 -0.002999 0.000000 0.000000 0.000000
# 2 0.000397 0.014728 -0.003099 0.000000 0.000000 0.000000
# 3 -0.002999 -0.003099 0.008402 0.000000 0.000000 0.000000
# 4 0.000000 0.000000 0.000000 0.136819 0.000000 0.000000
# 5 0.000000 0.000000 0.000000 0.000000 0.065879 0.000000
# 6 0.000000 0.000000 0.000000 0.000000 0.000000 -0.177742
#
#
# Mechanical properties :
#
#
# Convention : Reuss Voigt Hill
#
# Bulk Modulus (GPa) = 45.72753 53.64673 49.68713
# Shear Modulus (GPa) = 65.00073 20.20878 42.60475
#
# Velocity S-wave (km/s) = 5.41216 3.01774 4.38168
# Velocity P-wave (km/s) = 7.72409 6.02638 6.92744
#
# Compressibility (1/GPa) = 0.02186866
#
# Stress axis : x y z
#
# Youngs Moduli (GPa) = 98.58994 67.89871 119.02222
#
# Poissons Ratio (x) = -0.02694 0.35701
# Poissons Ratio (y) = -0.03912 0.36888
# Poissons Ratio (z) = 0.29572 0.21043
#
# Static dielectric constant tensor:
#      x y z
#    x 1.995450 0.000000 0.000000 
#    y 0.000000 1.845470 0.000000 
#    z 0.000000 0.000000 1.875490 
# 
# From -- ./inp_files/23883.got.cif
#   From: 2010.05.17/outbox.cif.g08.bks.cpg/sg23_12_cif.got.tgz:23883.got - 2010.06.04 12:02:01.
