data_PCOD9330628
_publ_section_title
;
Structure prediction by ZEFSAII (Michael W. Deem and Ramdas Pophale) SiO2 
 PCOD9330628
Probable space group: I 2 2 2
;
_chemical_formula_sum "Si O2"
_cell_formula_units_Z 34
_cell_length_a 7.481422
_cell_length_b 11.419196
_cell_length_c 15.215797
_cell_angle_alpha 90.000000
_cell_angle_beta 90.000000
_cell_angle_gamma 90.000000
_cell_volume 1299.913294
_symmetry_space_group_name_H-M "I 2 2 2"
_symmetry_group_IT_number 23
_symmetry_cell_setting 'orthorhombic'
loop_
_space_group_symop_operation_xyz
x,y,z
-x,-y,z
x,-y,-z
-x,y,-z
1/2+x,1/2+y,1/2+z
1/2-x,1/2-y,1/2+z
1/2+x,1/2-y,1/2-z
1/2-x,1/2+y,1/2-z
loop_
_atom_site_type_symbol
_atom_site_label
_atom_site_fract_x
_atom_site_fract_y
_atom_site_fract_z
Si Si1 0.112624 0.351770 0.327927
Si Si2 0.130545 0.309680 0.136969
Si Si3 0.500000 0.000000 0.500000
Si Si4 0.512819 0.637308 0.895401
Si Si5 0.246700 0.063351 0.092940
O O1 0.043091 0.343788 0.228735
O O2 0.254784 0.456221 0.337810
O O3 0.170034 0.221726 0.360216
O O4 0.949220 0.386739 0.393471
O O5 0.340832 0.319552 0.157260
O O6 0.116600 0.174713 0.105992
O O7 0.101140 0.408856 0.063342
O O8 0.500000 0.500000 0.882311
O O9 0.500000 0.656467 0.000000
O O10 0.222389 0.000000 0.000000
#
# Coordination Sequence:
#
# PCOD9330628 Si02
#       5
#     8   8   2   8   8
#     4  10  20  39  67  98 138 167 238 297 346 410
#     4  11  25  41  69 102 134 193 226 303 363 423
#     4  12  24  48  64  92 154 176 240 288 376 424
#     4  10  21  41  67 100 132 182 235 279 348 437
#     4  10  21  43  68 100 134 190 236 283 364 446
#
# _framework density 26.155594000000001
#
# number of rings (size 3 to 8) (size 9 to 14) (size 15 to 20)
#    0.000    1.647    0.000    7.059    3.294    0.000 
#   16.941    0.588    0.000    0.000    0.000    0.000 
#    0.000    0.000    0.000    0.000    0.000    0.000 
#
# Total GULP energy -94886.924903 kJ/mol
# GULP energy per Si atom -5581.583818 kJ/mol
# Density = 2.609606 g / cm^3
# Si number density = 26.155594 Si / 1000 Ang^3
#
#
#
# Elastic Constant Matrix: (Units=GPa)
#
#
# Indices 1 2 3 4 5 6 
#
# 1 41.1816 23.8528 16.8487 0.0000 0.0000 0.0000
# 2 23.8528 270.8760 97.5751 0.0000 0.0000 0.0000
# 3 16.8487 97.5751 153.5503 0.0000 0.0000 0.0000
# 4 0.0000 0.0000 0.0000 44.0460 0.0000 0.0000
# 5 0.0000 0.0000 0.0000 0.0000 17.2373 0.0000
# 6 0.0000 0.0000 0.0000 0.0000 0.0000 37.0429
#
#
#
# Elastic Compliance Matrix: (Units=1/GPa)
#
#
# Indices 1 2 3 4 5 6 
#
# 1 0.025970 -0.001635 -0.001811 0.000000 0.000000 0.000000
# 2 -0.001635 0.004891 -0.002928 0.000000 0.000000 0.000000
# 3 -0.001811 -0.002928 0.008572 0.000000 0.000000 0.000000
# 4 0.000000 0.000000 0.000000 0.022704 0.000000 0.000000
# 5 0.000000 0.000000 0.000000 0.000000 0.058014 0.000000
# 6 0.000000 0.000000 0.000000 0.000000 0.000000 0.026996
#
#
# Mechanical properties :
#
#
# Convention : Reuss Voigt Hill
#
# Bulk Modulus (GPa) = 37.47400 82.46234 59.96817
# Shear Modulus (GPa) = 29.62282 41.48732 35.55507
#
# Velocity S-wave (km/s) = 3.36901 3.98700 3.69096
# Velocity P-wave (km/s) = 5.43066 7.26574 6.41416
#
# Compressibility (1/GPa) = 0.02668517
#
# Stress axis : x y z
#
# Youngs Moduli (GPa) = 38.50547 204.47721 116.65751
#
# Poissons Ratio (x) = 0.33423 0.21126
# Poissons Ratio (y) = 0.06294 0.34162
# Poissons Ratio (z) = 0.06973 0.59879
#
# Static dielectric constant tensor:
#      x y z
#    x 2.198640 0.000000 0.000000 
#    y 0.000000 2.244170 0.000000 
#    z 0.000000 0.000000 2.011380 
# 
# From -- ./inp_files/19571.got.cif
#   From: 2010.05.17/outbox.cif.g08.bks.cpg/sg23_10_cif.got.tgz:19571.got - 2010.06.04 12:02:01.
