data_PCOD9330172
_publ_section_title
;
Structure prediction by ZEFSAII (Michael W. Deem and Ramdas Pophale) SiO2 
 PCOD9330172
Probable space group: I 2 2 2
;
_chemical_formula_sum "Si O2"
_cell_formula_units_Z 52
_cell_length_a 13.347270
_cell_length_b 9.441987
_cell_length_c 23.038326
_cell_angle_alpha 90.000000
_cell_angle_beta 90.000000
_cell_angle_gamma 90.000000
_cell_volume 2903.399271
_symmetry_space_group_name_H-M "I 2 2 2"
_symmetry_group_IT_number 23
_symmetry_cell_setting 'orthorhombic'
loop_
_space_group_symop_operation_xyz
x,y,z
-x,-y,z
x,-y,-z
-x,y,-z
1/2+x,1/2+y,1/2+z
1/2-x,1/2-y,1/2+z
1/2+x,1/2-y,1/2-z
1/2-x,1/2+y,1/2-z
loop_
_atom_site_type_symbol
_atom_site_label
_atom_site_fract_x
_atom_site_fract_y
_atom_site_fract_z
Si Si1 0.130787 0.172485 0.662515
Si Si2 0.270892 0.577832 0.299128
Si Si3 0.500000 0.000000 0.316645
Si Si4 0.186489 0.690918 0.643174
Si Si5 0.959150 0.784500 0.251452
Si Si6 0.788397 0.543242 0.832927
Si Si7 0.517164 0.672416 0.932361
O O1 0.213869 0.277910 0.686387
O O2 0.192367 0.036470 0.641943
O O3 0.050536 0.143692 0.713547
O O4 0.068739 0.235679 0.609292
O O5 0.232353 0.464393 0.346505
O O6 0.388164 0.618473 0.289493
O O7 0.229060 0.527515 0.236372
O O8 0.496081 0.144627 0.279246
O O9 0.604070 0.014022 0.350071
O O10 0.116307 0.727416 0.698756
O O11 0.118271 0.747939 0.589811
O O12 0.280277 0.795139 0.649287
O O13 0.500000 0.500000 0.923223
O O14 0.500000 0.697417 0.000000
#
# Coordination Sequence:
#
# PCOD9330172 Si02
#       7
#     8   8   4   8   8   8   8
#     4  11  20  36  54  78 113 152 191 232 277 328
#     4  11  20  32  49  77 114 152 184 224 280 337
#     4  12  18  32  48  76 108 154 190 220 258 334
#     4  10  20  35  51  78 110 145 184 233 286 327
#     4  10  20  30  51  73 111 155 189 218 269 342
#     4  11  20  33  49  77 110 157 188 221 269 340
#     4  10  21  38  61  83 103 144 195 241 286 334
#
# _framework density 17.910041
#
# number of rings (size 3 to 8) (size 9 to 14) (size 15 to 20)
#    0.000    1.385    6.154    0.923    0.000    1.846 
#    0.000    1.538    0.000    0.000    0.000    2.154 
#    0.000    0.000    1.231    0.000    0.000    0.000 
#
# Total GULP energy -144769.249345 kJ/mol
# GULP energy per Si atom -5568.048052 kJ/mol
# Density = 1.786928 g / cm^3
# Si number density = 17.910041 Si / 1000 Ang^3
#
#
#
# Elastic Constant Matrix: (Units=GPa)
#
#
# Indices 1 2 3 4 5 6 
#
# 1 113.7418 33.1121 27.7511 0.0000 0.0000 0.0000
# 2 33.1121 76.5961 15.4080 0.0000 0.0000 0.0000
# 3 27.7511 15.4080 62.9410 0.0000 0.0000 0.0000
# 4 0.0000 0.0000 0.0000 11.4217 0.0000 0.0000
# 5 0.0000 0.0000 0.0000 0.0000 14.2489 0.0000
# 6 0.0000 0.0000 0.0000 0.0000 0.0000 32.3437
#
#
#
# Elastic Compliance Matrix: (Units=1/GPa)
#
#
# Indices 1 2 3 4 5 6 
#
# 1 0.010870 -0.003928 -0.003831 0.000000 0.000000 0.000000
# 2 -0.003928 0.015151 -0.001977 0.000000 0.000000 0.000000
# 3 -0.003831 -0.001977 0.018061 0.000000 0.000000 0.000000
# 4 0.000000 0.000000 0.000000 0.087553 0.000000 0.000000
# 5 0.000000 0.000000 0.000000 0.000000 0.070181 0.000000
# 6 0.000000 0.000000 0.000000 0.000000 0.000000 0.030918
#
#
# Mechanical properties :
#
#
# Convention : Reuss Voigt Hill
#
# Bulk Modulus (GPa) = 40.63456 45.09127 42.86291
# Shear Modulus (GPa) = 19.20046 23.40338 21.30192
#
# Velocity S-wave (km/s) = 3.27777 3.61878 3.45249
# Velocity P-wave (km/s) = 6.08789 6.53391 6.31484
#
# Compressibility (1/GPa) = 0.02460959
#
# Stress axis : x y z
#
# Youngs Moduli (GPa) = 91.99465 66.00027 55.36798
#
# Poissons Ratio (x) = 0.25928 0.21212
# Poissons Ratio (y) = 0.36140 0.10946
# Poissons Ratio (z) = 0.35243 0.13048
#
# Static dielectric constant tensor:
#      x y z
#    x 1.646420 0.000000 0.000000 
#    y 0.000000 1.709050 0.000000 
#    z 0.000000 0.000000 1.579490 
# 
# From -- ./inp_files/28508.got.cif
#   From: 2010.05.17/outbox.cif.g08.bks.cpg/sg23_15_cif.got.tgz:28508.got - 2010.06.04 12:02:01.
