data_PCOD9330419
_publ_section_title
;
Structure prediction by ZEFSAII (Michael W. Deem and Ramdas Pophale) SiO2 
 PCOD9330419
Probable space group: I 2 2 2
;
_chemical_formula_sum "Si O2"
_cell_formula_units_Z 48
_cell_length_a 5.404343
_cell_length_b 23.350784
_cell_length_c 16.805877
_cell_angle_alpha 90.000000
_cell_angle_beta 90.000000
_cell_angle_gamma 90.000000
_cell_volume 2120.828506
_symmetry_space_group_name_H-M "I 2 2 2"
_symmetry_group_IT_number 23
_symmetry_cell_setting 'orthorhombic'
loop_
_space_group_symop_operation_xyz
x,y,z
-x,-y,z
x,-y,-z
-x,y,-z
1/2+x,1/2+y,1/2+z
1/2-x,1/2-y,1/2+z
1/2+x,1/2-y,1/2-z
1/2-x,1/2+y,1/2-z
loop_
_atom_site_type_symbol
_atom_site_label
_atom_site_fract_x
_atom_site_fract_y
_atom_site_fract_z
Si Si1 0.371008 0.666871 0.587913
Si Si2 0.749910 0.533077 0.107396
Si Si3 0.500000 0.000000 0.759587
Si Si4 0.448475 0.658646 0.911008
Si Si5 0.500000 0.102748 0.000000
Si Si6 0.954673 0.704405 0.903227
Si Si7 0.842703 0.942250 0.122393
O O1 0.500000 0.669705 0.500000
O O2 0.374973 0.731259 0.617726
O O3 0.507184 0.616341 0.635334
O O4 0.098747 0.643533 0.569390
O O5 0.500000 0.500000 0.088449
O O6 0.685301 0.596978 0.080735
O O7 0.000000 0.500000 0.079518
O O8 0.799495 0.529910 0.202097
O O9 0.629991 0.046962 0.813553
O O10 0.729123 0.662042 0.877619
O O11 0.229617 0.693686 0.869157
O O12 0.500000 0.682002 0.000000
O O13 0.284938 0.064841 0.036433
O O14 0.000000 0.699114 0.000000
O O15 0.000000 0.000000 0.124467
#
# Coordination Sequence:
#
# PCOD9330419 Si02
#       7
#     8   8   4   8   4   8   8
#     4   9  20  32  53  84 128 161 197 249 311 366
#     4  10  22  40  63  91 122 164 203 251 308 365
#     4  10  24  39  62  79 120 164 218 250 306 376
#     4  10  20  36  61  94 125 162 195 243 307 378
#     4  10  22  33  56  88 128 154 195 264 312 366
#     4   9  19  33  57  89 128 161 198 234 303 376
#     4  11  22  37  54  90 116 166 208 258 314 367
#
# _framework density 22.632663999999998
#
# number of rings (size 3 to 8) (size 9 to 14) (size 15 to 20)
#    0.500    1.667    0.000    2.500    8.167    8.333 
#    0.000    0.833    0.000    0.000   13.000    0.000 
#    0.000    0.000    0.000    0.000    0.000    0.000 
#
# Total GULP energy -133767.780098 kJ/mol
# GULP energy per Si atom -5573.657504 kJ/mol
# Density = 2.258115 g / cm^3
# Si number density = 22.632664 Si / 1000 Ang^3
#
#
#
# Elastic Constant Matrix: (Units=GPa)
#
#
# Indices 1 2 3 4 5 6 
#
# 1 176.6657 64.6608 16.4011 0.0000 0.0000 0.0000
# 2 64.6608 99.8098 14.2508 0.0000 0.0000 0.0000
# 3 16.4011 14.2508 20.6829 0.0000 0.0000 0.0000
# 4 0.0000 0.0000 0.0000 -3.4785 0.0000 0.0000
# 5 0.0000 0.0000 0.0000 0.0000 63.6651 0.0000
# 6 0.0000 0.0000 0.0000 0.0000 0.0000 28.1297
#
#
#
# Elastic Compliance Matrix: (Units=1/GPa)
#
#
# Indices 1 2 3 4 5 6 
#
# 1 0.007575 -0.004491 -0.002912 0.000000 0.000000 0.000000
# 2 -0.004491 0.013775 -0.005930 0.000000 0.000000 0.000000
# 3 -0.002912 -0.005930 0.054744 0.000000 0.000000 0.000000
# 4 0.000000 0.000000 0.000000 -0.287483 0.000000 0.000000
# 5 0.000000 0.000000 0.000000 0.000000 0.015707 0.000000
# 6 0.000000 0.000000 0.000000 0.000000 0.000000 0.035550
#
#
# Mechanical properties :
#
#
# Convention : Reuss Voigt Hill
#
# Bulk Modulus (GPa) = 20.23161 54.19822 37.21492
# Shear Modulus (GPa) = -42.73875 31.11965 -5.80955
#
# Velocity S-wave (km/s) = -4.35025 3.71211 -1.60389
# Velocity P-wave (km/s) = 4.03415 6.50937 3.61231
#
# Compressibility (1/GPa) = 0.04942761
#
# Stress axis : x y z
#
# Youngs Moduli (GPa) = 132.01989 72.59307 18.26689
#
# Poissons Ratio (x) = 0.32604 0.05319
# Poissons Ratio (y) = 0.59295 0.10832
# Poissons Ratio (z) = 0.38443 0.43047
#
# Static dielectric constant tensor:
#      x y z
#    x 1.928940 0.000000 0.000000 
#    y 0.000000 1.902050 0.000000 
#    z 0.000000 0.000000 1.866800 
# 
# From -- ./inp_files/25772.got.cif
#   From: 2010.05.17/outbox.cif.g08.bks.cpg/sg23_13_cif.got.tgz:25772.got - 2010.06.04 12:02:01.
