data_PCOD9330284
_publ_section_title
;
Structure prediction by ZEFSAII (Michael W. Deem and Ramdas Pophale) SiO2 
 PCOD9330284
Probable space group: I 2 2 2
;
_chemical_formula_sum "Si O2"
_cell_formula_units_Z 64
_cell_length_a 12.146678
_cell_length_b 10.959083
_cell_length_c 21.284516
_cell_angle_alpha 90.000000
_cell_angle_beta 90.000000
_cell_angle_gamma 90.000000
_cell_volume 2833.319260
_symmetry_space_group_name_H-M "I 2 2 2"
_symmetry_group_IT_number 23
_symmetry_cell_setting 'orthorhombic'
loop_
_space_group_symop_operation_xyz
x,y,z
-x,-y,z
x,-y,-z
-x,y,-z
1/2+x,1/2+y,1/2+z
1/2-x,1/2-y,1/2+z
1/2+x,1/2-y,1/2-z
1/2-x,1/2+y,1/2-z
loop_
_atom_site_type_symbol
_atom_site_label
_atom_site_fract_x
_atom_site_fract_y
_atom_site_fract_z
Si Si1 0.934486 0.269312 0.939366
Si Si2 0.904116 0.250753 0.701661
Si Si3 0.812803 0.681851 0.536869
Si Si4 0.128830 0.806485 0.343814
Si Si5 0.832958 0.330234 0.227669
Si Si6 0.136264 0.411316 0.178766
Si Si7 0.823184 0.577273 0.404168
Si Si8 0.919018 0.895066 0.850981
O O1 0.818142 0.206015 0.955609
O O2 0.909801 0.373983 0.888714
O O3 0.011422 0.170168 0.905514
O O4 0.000000 0.313903 0.000000
O O5 0.792616 0.174295 0.704950
O O6 0.907678 0.315612 0.769556
O O7 0.890254 0.362404 0.652418
O O8 0.006185 0.169844 0.679666
O O9 0.867736 0.782119 0.581911
O O10 0.832592 0.671263 0.462775
O O11 0.851629 0.553823 0.567227
O O12 0.158479 0.683437 0.302820
O O13 0.230917 0.891823 0.325318
O O14 0.884491 0.207138 0.199055
O O15 0.884729 0.452319 0.201029
O O16 0.697100 0.562544 0.379948
O O17 0.000000 0.000000 0.825564
#
# Coordination Sequence:
#
# PCOD9330284 Si02
#       8
#     8   8   8   8   8   8   8   8
#     4  11  21  36  63  92 128 178 216 268 341 406
#     4  10  22  41  64  93 129 174 222 278 341 402
#     4  10  20  34  58  91 131 165 217 270 332 400
#     4  10  22  41  62  92 125 178 217 272 343 404
#     4  10  23  43  63  96 133 169 226 290 331 402
#     4  10  23  43  64  92 134 171 226 285 334 410
#     4  10  20  34  58  93 127 169 212 274 326 404
#     4  11  21  36  62  94 128 170 213 265 343 405
#
# _framework density 22.588349000000001
#
# number of rings (size 3 to 8) (size 9 to 14) (size 15 to 20)
#    0.000    1.750    2.500    1.500    0.000    4.750 
#    9.000    2.500    0.000    0.000    0.000    3.500 
#    0.000    0.000    0.000    0.000    0.000    0.000 
#
# Total GULP energy -178881.946817 kJ/mol
# GULP energy per Si atom -5590.060838 kJ/mol
# Density = 2.253694 g / cm^3
# Si number density = 22.588349 Si / 1000 Ang^3
#
#
#
# Elastic Constant Matrix: (Units=GPa)
#
#
# Indices 1 2 3 4 5 6 
#
# 1 113.1067 14.1197 29.3809 0.0000 0.0000 0.0000
# 2 14.1197 69.1495 19.2323 0.0000 0.0000 0.0000
# 3 29.3809 19.2323 122.2400 0.0000 0.0000 0.0000
# 4 0.0000 0.0000 0.0000 17.0811 0.0000 0.0000
# 5 0.0000 0.0000 0.0000 0.0000 32.1477 0.0000
# 6 0.0000 0.0000 0.0000 0.0000 0.0000 18.8617
#
#
#
# Elastic Compliance Matrix: (Units=1/GPa)
#
#
# Indices 1 2 3 4 5 6 
#
# 1 0.009553 -0.001372 -0.002080 0.000000 0.000000 0.000000
# 2 -0.001372 0.015320 -0.002081 0.000000 0.000000 0.000000
# 3 -0.002080 -0.002081 0.009008 0.000000 0.000000 0.000000
# 4 0.000000 0.000000 0.000000 0.058544 0.000000 0.000000
# 5 0.000000 0.000000 0.000000 0.000000 0.031106 0.000000
# 6 0.000000 0.000000 0.000000 0.000000 0.000000 0.053017
#
#
# Mechanical properties :
#
#
# Convention : Reuss Voigt Hill
#
# Bulk Modulus (GPa) = 43.83009 47.77354 45.80182
# Shear Modulus (GPa) = 25.61214 29.73566 27.67390
#
# Velocity S-wave (km/s) = 3.37094 3.63218 3.50400
# Velocity P-wave (km/s) = 5.88192 6.22783 6.05735
#
# Compressibility (1/GPa) = 0.02281538
#
# Stress axis : x y z
#
# Youngs Moduli (GPa) = 104.68089 65.27309 111.01294
#
# Poissons Ratio (x) = 0.08956 0.23093
# Poissons Ratio (y) = 0.14363 0.23097
# Poissons Ratio (z) = 0.21776 0.13581
#
# Static dielectric constant tensor:
#      x y z
#    x 1.896840 0.000000 0.000000 
#    y 0.000000 1.817760 0.000000 
#    z 0.000000 0.000000 1.831500 
# 
# From -- ./inp_files/17677.got.cif
#   From: 2010.05.17/outbox.cif.g08.bks.cpg/sg23_9_cif.got.tgz:17677.got - 2010.06.04 12:02:01.
