data_PCOD9330077
_publ_section_title
;
Structure prediction by ZEFSAII (Michael W. Deem and Ramdas Pophale) SiO2 
 PCOD9330077
Probable space group: I 2 2 2
;
_chemical_formula_sum "Si O2"
_cell_formula_units_Z 64
_cell_length_a 17.643504
_cell_length_b 12.781104
_cell_length_c 14.141858
_cell_angle_alpha 90.000000
_cell_angle_beta 90.000000
_cell_angle_gamma 90.000000
_cell_volume 3189.037903
_symmetry_space_group_name_H-M "I 2 2 2"
_symmetry_group_IT_number 23
_symmetry_cell_setting 'orthorhombic'
loop_
_space_group_symop_operation_xyz
x,y,z
-x,-y,z
x,-y,-z
-x,y,-z
1/2+x,1/2+y,1/2+z
1/2-x,1/2-y,1/2+z
1/2+x,1/2-y,1/2-z
1/2-x,1/2+y,1/2-z
loop_
_atom_site_type_symbol
_atom_site_label
_atom_site_fract_x
_atom_site_fract_y
_atom_site_fract_z
Si Si1 0.837135 0.906793 0.109506
Si Si2 0.614129 0.534131 0.891495
Si Si3 0.420640 0.045559 0.734061
Si Si4 0.202220 0.799705 0.092622
Si Si5 0.580255 0.407333 0.705546
Si Si6 0.682627 0.971293 0.893946
Si Si7 0.706984 0.050622 0.599728
Si Si8 0.572154 0.707602 0.754287
O O1 0.857068 0.821703 0.187435
O O2 0.900681 0.997405 0.131215
O O3 0.756785 0.960320 0.132620
O O4 0.828956 0.855212 0.005164
O O5 0.584070 0.456034 0.810331
O O6 0.704830 0.529957 0.878950
O O7 0.584733 0.647573 0.854356
O O8 0.596258 0.500000 0.000000
O O9 0.391021 0.005099 0.834451
O O10 0.432304 0.168628 0.750242
O O11 0.500000 0.000000 0.700512
O O12 0.351305 0.006324 0.669428
O O13 0.148210 0.830394 0.179469
O O14 0.284173 0.852887 0.110692
O O15 0.200934 0.675568 0.088536
O O16 0.502334 0.343332 0.704688
O O17 0.666256 0.000000 0.000000
O O18 0.689734 0.000000 0.500000
#
# Coordination Sequence:
#
# PCOD9330077 Si02
#       8
#     8   8   8   8   8   8   8   8
#     4   9  18  36  64  90 116 148 192 253 306 343
#     4  10  22  40  63  90 117 150 197 253 302 342
#     4  12  25  41  58  83 122 166 200 237 291 358
#     4  10  19  37  62  92 118 152 195 244 299 351
#     4  10  20  36  59  89 123 155 195 242 295 353
#     4   9  20  39  62  87 116 147 196 255 298 349
#     4  11  23  40  61  87 119 155 198 244 293 358
#     4  11  22  38  59  88 122 161 197 239 297 359
#
# _framework density 20.068749
#
# number of rings (size 3 to 8) (size 9 to 14) (size 15 to 20)
#    0.000    1.750    0.000    7.125    0.000    2.000 
#    0.000   23.750    0.000    0.000    0.000    0.000 
#    0.000    0.000    0.000    0.000    0.000    0.000 
#
# Total GULP energy -178324.506101 kJ/mol
# GULP energy per Si atom -5572.640816 kJ/mol
# Density = 2.002307 g / cm^3
# Si number density = 20.068749 Si / 1000 Ang^3
#
#
#
# Elastic Constant Matrix: (Units=GPa)
#
#
# Indices 1 2 3 4 5 6 
#
# 1 55.0371 13.9071 7.9016 0.0000 0.0000 0.0000
# 2 13.9071 88.0647 6.6258 0.0000 0.0000 0.0000
# 3 7.9016 6.6258 52.6639 0.0000 0.0000 0.0000
# 4 0.0000 0.0000 0.0000 14.6417 0.0000 0.0000
# 5 0.0000 0.0000 0.0000 0.0000 -6.6962 0.0000
# 6 0.0000 0.0000 0.0000 0.0000 0.0000 10.2249
#
#
#
# Elastic Compliance Matrix: (Units=1/GPa)
#
#
# Indices 1 2 3 4 5 6 
#
# 1 0.019253 -0.002850 -0.002530 0.000000 0.000000 0.000000
# 2 -0.002850 0.011886 -0.001068 0.000000 0.000000 0.000000
# 3 -0.002530 -0.001068 0.019502 0.000000 0.000000 0.000000
# 4 0.000000 0.000000 0.000000 0.068298 0.000000 0.000000
# 5 0.000000 0.000000 0.000000 0.000000 -0.149339 0.000000
# 6 0.000000 0.000000 0.000000 0.000000 0.000000 0.097801
#
#
# Mechanical properties :
#
#
# Convention : Reuss Voigt Hill
#
# Bulk Modulus (GPa) = 26.49349 28.07053 27.28201
# Shear Modulus (GPa) = 53.83351 14.78948 34.31149
#
# Velocity S-wave (km/s) = 5.18486 2.71761 4.13933
# Velocity P-wave (km/s) = 7.00526 4.88516 6.03898
#
# Compressibility (1/GPa) = 0.03774512
#
# Stress axis : x y z
#
# Youngs Moduli (GPa) = 51.94003 84.13466 51.27602
#
# Poissons Ratio (x) = 0.23979 0.12973
# Poissons Ratio (y) = 0.14803 0.05475
# Poissons Ratio (z) = 0.13141 0.08984
#
# Static dielectric constant tensor:
#      x y z
#    x 1.740060 0.000000 0.000000 
#    y 0.000000 1.835930 0.000000 
#    z 0.000000 0.000000 1.750860 
# 
# From -- ./inp_files/16972.got.cif
#   From: 2010.05.17/outbox.cif.g08.bks.cpg/sg23_9_cif.got.tgz:16972.got - 2010.06.04 12:02:01.
