data_PCOD9330941
_publ_section_title
;
Structure prediction by ZEFSAII (Michael W. Deem and Ramdas Pophale) SiO2 
 PCOD9330941
Probable space group: I 2 2 2
;
_chemical_formula_sum "Si O2"
_cell_formula_units_Z 64
_cell_length_a 9.248713
_cell_length_b 13.612029
_cell_length_c 23.767719
_cell_angle_alpha 90.000000
_cell_angle_beta 90.000000
_cell_angle_gamma 90.000000
_cell_volume 2992.207264
_symmetry_space_group_name_H-M "I 2 2 2"
_symmetry_group_IT_number 23
_symmetry_cell_setting 'orthorhombic'
loop_
_space_group_symop_operation_xyz
x,y,z
-x,-y,z
x,-y,-z
-x,y,-z
1/2+x,1/2+y,1/2+z
1/2-x,1/2-y,1/2+z
1/2+x,1/2-y,1/2-z
1/2-x,1/2+y,1/2-z
loop_
_atom_site_type_symbol
_atom_site_label
_atom_site_fract_x
_atom_site_fract_y
_atom_site_fract_z
Si Si1 0.349664 0.057395 0.897783
Si Si2 0.759401 0.571853 0.274294
Si Si3 0.265426 0.842999 0.793342
Si Si4 0.153655 0.267476 0.482399
Si Si5 0.552619 0.783878 0.439515
Si Si6 0.834838 0.868978 0.081280
Si Si7 0.977400 0.783805 0.752939
Si Si8 0.036527 0.614330 0.829277
O O1 0.308530 0.102633 0.837020
O O2 0.379649 0.137147 0.944987
O O3 0.500000 0.000000 0.888825
O O4 0.224610 0.980959 0.918800
O O5 0.791520 0.455543 0.277148
O O6 0.598100 0.613503 0.267662
O O7 0.836042 0.610244 0.217525
O O8 0.190062 0.841494 0.853834
O O9 0.402813 0.772209 0.798428
O O10 0.146118 0.802703 0.750207
O O11 0.273680 0.211010 0.444472
O O12 0.236640 0.306352 0.538175
O O13 0.000000 0.220774 0.500000
O O14 0.500000 0.818477 0.500000
O O15 0.496923 0.669938 0.432312
O O16 0.468160 0.845695 0.392540
O O17 0.941350 0.700320 0.799855
O O18 0.000000 0.500000 0.832739
#
# Coordination Sequence:
#
# PCOD9330941 Si02
#       8
#     8   8   8   8   8   8   8   8
#     4  11  22  34  60  90 136 177 224 264 333 402
#     4  11  24  40  63  98 135 181 228 279 340 420
#     4  11  24  40  65  97 132 185 222 288 347 410
#     4  11  22  39  62  93 133 174 224 275 340 415
#     4  10  23  43  64  94 125 172 225 286 348 399
#     4  10  21  38  60  86 133 172 226 270 327 409
#     4  12  22  41  65  93 137 173 224 279 348 406
#     4  12  23  42  69  95 130 171 230 287 346 416
#
# _framework density 21.388891999999998
#
# number of rings (size 3 to 8) (size 9 to 14) (size 15 to 20)
#    0.000    1.000    5.000    1.875    1.750    0.750 
#    2.250    1.875    0.000    0.000    0.000    3.500 
#    0.000    0.000    0.000    0.000    0.000    0.000 
#
# Total GULP energy -178196.382897 kJ/mol
# GULP energy per Si atom -5568.636966 kJ/mol
# Density = 2.134021 g / cm^3
# Si number density = 21.388892 Si / 1000 Ang^3
#
#
#
# Elastic Constant Matrix: (Units=GPa)
#
#
# Indices 1 2 3 4 5 6 
#
# 1 91.7414 17.5055 32.4808 0.0000 0.0000 0.0000
# 2 17.5055 52.4261 17.3244 0.0000 0.0000 0.0000
# 3 32.4808 17.3244 77.2306 0.0000 0.0000 0.0000
# 4 0.0000 0.0000 0.0000 25.0109 0.0000 0.0000
# 5 0.0000 0.0000 0.0000 0.0000 23.3313 0.0000
# 6 0.0000 0.0000 0.0000 0.0000 0.0000 21.8902
#
#
#
# Elastic Compliance Matrix: (Units=1/GPa)
#
#
# Indices 1 2 3 4 5 6 
#
# 1 0.013170 -0.002773 -0.004917 0.000000 0.000000 0.000000
# 2 -0.002773 0.021185 -0.003586 0.000000 0.000000 0.000000
# 3 -0.004917 -0.003586 0.015821 0.000000 0.000000 0.000000
# 4 0.000000 0.000000 0.000000 0.039983 0.000000 0.000000
# 5 0.000000 0.000000 0.000000 0.000000 0.042861 0.000000
# 6 0.000000 0.000000 0.000000 0.000000 0.000000 0.045682
#
#
# Mechanical properties :
#
#
# Convention : Reuss Voigt Hill
#
# Bulk Modulus (GPa) = 36.20000 39.55771 37.87885
# Shear Modulus (GPa) = 23.75726 24.31897 24.03811
#
# Velocity S-wave (km/s) = 3.33638 3.37559 3.35604
# Velocity P-wave (km/s) = 5.63944 5.80753 5.72410
#
# Compressibility (1/GPa) = 0.02762431
#
# Stress axis : x y z
#
# Youngs Moduli (GPa) = 75.92946 47.20234 63.20866
#
# Poissons Ratio (x) = 0.13088 0.31079
# Poissons Ratio (y) = 0.21053 0.22668
# Poissons Ratio (z) = 0.37334 0.16928
#
# Static dielectric constant tensor:
#      x y z
#    x 1.889730 0.000000 0.000000 
#    y 0.000000 1.853920 0.000000 
#    z 0.000000 0.000000 1.848750 
# 
# From -- ./inp_files/28089.got.cif
#   From: 2010.05.17/outbox.cif.g08.bks.cpg/sg23_15_cif.got.tgz:28089.got - 2010.06.04 12:02:01.
