data_PCOD9330859
_publ_section_title
;
Structure prediction by ZEFSAII (Michael W. Deem and Ramdas Pophale) SiO2 
 PCOD9330859
Probable space group: I 2 2 2
;
_chemical_formula_sum "Si O2"
_cell_formula_units_Z 60
_cell_length_a 16.797990
_cell_length_b 31.326137
_cell_length_c 5.819783
_cell_angle_alpha 90.000000
_cell_angle_beta 90.000000
_cell_angle_gamma 90.000000
_cell_volume 3062.463723
_symmetry_space_group_name_H-M "I 2 2 2"
_symmetry_group_IT_number 23
_symmetry_cell_setting 'orthorhombic'
loop_
_space_group_symop_operation_xyz
x,y,z
-x,-y,z
x,-y,-z
-x,y,-z
1/2+x,1/2+y,1/2+z
1/2-x,1/2-y,1/2+z
1/2+x,1/2-y,1/2-z
1/2-x,1/2+y,1/2-z
loop_
_atom_site_type_symbol
_atom_site_label
_atom_site_fract_x
_atom_site_fract_y
_atom_site_fract_z
Si Si1 0.956231 0.846506 0.749834
Si Si2 0.790317 0.541292 0.607102
Si Si3 0.818906 0.084580 0.287310
Si Si4 0.820594 0.000000 0.500000
Si Si5 0.151461 0.767797 0.190537
Si Si6 0.195812 0.309894 0.486211
Si Si7 0.910617 0.692554 0.087937
Si Si8 0.192410 0.621380 0.154200
O O1 0.885619 0.881130 0.769096
O O2 0.919770 0.798789 0.740755
O O3 0.000000 0.853560 0.500000
O O4 0.000000 0.849217 0.000000
O O5 0.833082 0.500000 0.500000
O O6 0.734953 0.565869 0.420693
O O7 0.733645 0.519938 0.798585
O O8 0.840091 0.578044 0.731911
O O9 0.860733 0.042123 0.395523
O O10 0.758300 0.106550 0.469993
O O11 0.173737 0.731684 0.370491
O O12 0.229115 0.797023 0.166162
O O13 0.128986 0.738813 0.969059
O O14 0.115520 0.319102 0.345338
O O15 0.225578 0.348593 0.643360
O O16 0.871432 0.653205 0.952167
O O17 0.000000 0.696077 0.000000
#
# Coordination Sequence:
#
# PCOD9330859 Si02
#       8
#     8   8   8   4   8   8   8   8
#     4  12  30  43  63  92 134 184 223 277 343 407
#     4   9  17  34  63  97 122 155 209 274 333 383
#     4  10  21  40  66  91 128 163 222 277 331 402
#     4   8  18  34  67  94 121 160 208 282 330 388
#     4  11  24  39  62  85 121 164 227 275 330 389
#     4  11  23  40  65  89 117 167 222 279 331 396
#     4  11  24  39  57  88 129 169 215 267 345 398
#     4  10  21  36  63  92 118 163 211 277 326 401
#
# _framework density 19.592068000000001
#
# number of rings (size 3 to 8) (size 9 to 14) (size 15 to 20)
#    0.000    1.600    1.333    2.800   11.200    1.600 
#    0.000    0.333    0.000    0.000    0.000   46.667 
#    0.000    0.000    0.000    0.000    0.000    0.000 
#
# Total GULP energy -167064.170039 kJ/mol
# GULP energy per Si atom -5568.805668 kJ/mol
# Density = 1.954748 g / cm^3
# Si number density = 19.592068 Si / 1000 Ang^3
#
#
#
# Elastic Constant Matrix: (Units=GPa)
#
#
# Indices 1 2 3 4 5 6 
#
# 1 56.6418 21.3394 25.9870 -0.0020 -0.0166 -0.0105
# 2 21.3394 131.7557 30.7877 -0.0669 -0.0311 -0.0177
# 3 25.9870 30.7877 91.6426 -0.1456 -0.0950 -0.0258
# 4 -0.0020 -0.0669 -0.1456 36.6389 -0.0588 -0.0290
# 5 -0.0166 -0.0311 -0.0950 -0.0588 4.6763 0.0168
# 6 -0.0105 -0.0177 -0.0258 -0.0290 0.0168 17.5565
#
#
#
# Elastic Compliance Matrix: (Units=1/GPa)
#
#
# Indices 1 2 3 4 5 6 
#
# 1 0.020849 -0.002165 -0.005185 -0.000023 -0.000046 0.000003
# 2 -0.002165 0.008461 -0.002229 0.000006 0.000003 0.000004
# 3 -0.005185 -0.002229 0.013131 0.000048 0.000234 0.000014
# 4 -0.000023 0.000006 0.000048 0.027294 0.000344 0.000045
# 5 -0.000046 0.000003 0.000234 0.000344 0.213855 -0.000204
# 6 0.000003 0.000004 0.000014 0.000045 -0.000204 0.056959
#
#
# Mechanical properties :
#
#
# Convention : Reuss Voigt Hill
#
# Bulk Modulus (GPa) = 42.94719 48.47426 45.71073
# Shear Modulus (GPa) = 13.60659 25.23608 19.42133
#
# Velocity S-wave (km/s) = 2.63819 3.59287 3.15188
# Velocity P-wave (km/s) = 5.59002 6.48129 6.05208
#
# Compressibility (1/GPa) = 0.02328441
#
# Stress axis : x y z
#
# Youngs Moduli (GPa) = 47.96313 118.18582 76.15412
#
# Poissons Ratio (x) = 0.25590 0.39485
# Poissons Ratio (y) = 0.10385 0.16972
# Poissons Ratio (z) = 0.24868 0.26339
#
# Static dielectric constant tensor:
#      x y z
#    x 1.655530 0.000000 0.000020 
#    y 0.000000 1.698110 -0.000070 
#    z 0.000020 -0.000070 1.829390 
# 
# From -- ./inp_files/3548.got.cif
#   From: 2010.05.17/outbox.cif.g08.bks.cpg/sg23_2_cif.got.tgz:3548.got - 2010.06.04 12:02:01.
