data_PCOD9330313
_publ_section_title
;
Structure prediction by ZEFSAII (Michael W. Deem and Ramdas Pophale) SiO2 
 PCOD9330313
Probable space group: I 2 2 2
;
_chemical_formula_sum "Si O2"
_cell_formula_units_Z 44
_cell_length_a 22.616849
_cell_length_b 22.789924
_cell_length_c 5.323297
_cell_angle_alpha 90.000000
_cell_angle_beta 90.000000
_cell_angle_gamma 90.000000
_cell_volume 2743.820349
_symmetry_space_group_name_H-M "I 2 2 2"
_symmetry_group_IT_number 23
_symmetry_cell_setting 'orthorhombic'
loop_
_space_group_symop_operation_xyz
x,y,z
-x,-y,z
x,-y,-z
-x,y,-z
1/2+x,1/2+y,1/2+z
1/2-x,1/2-y,1/2+z
1/2+x,1/2-y,1/2-z
1/2-x,1/2+y,1/2-z
loop_
_atom_site_type_symbol
_atom_site_label
_atom_site_fract_x
_atom_site_fract_y
_atom_site_fract_z
Si Si1 0.577096 0.500000 0.500000
Si Si2 0.554799 0.393715 0.813265
Si Si3 0.670552 0.255383 0.774210
Si Si4 0.285237 0.320178 0.726807
Si Si5 0.462849 0.262292 0.261731
Si Si6 0.664253 0.438592 0.117042
O O1 0.543941 0.453352 0.667535
O O2 0.619493 0.460382 0.329577
O O3 0.552535 0.331042 0.680041
O O4 0.500000 0.389737 0.000000
O O5 0.619755 0.404890 0.927581
O O6 0.686708 0.297158 0.535393
O O7 0.717902 0.202571 0.765163
O O8 0.602521 0.235478 0.763451
O O9 0.682241 0.288363 0.038482
O O10 0.292330 0.389719 0.771450
O O11 0.500000 0.240044 0.500000
O O12 0.500000 0.258395 0.000000
O O13 0.688329 0.500000 0.000000
#
# Coordination Sequence:
#
# PCOD9330313 Si02
#       6
#     4   8   8   8   8   8
#     4  10  22  33  44  58  92 128 175 206 238 278
#     4  10  22  32  42  61  90 133 171 208 239 277
#     4  10  20  35  55  75  95 131 169 210 253 298
#     4  10  20  35  55  73  98 129 173 208 249 304
#     4  11  22  34  51  71 100 128 164 209 250 296
#     4  10  21  34  47  67  96 130 166 211 247 286
#
# _framework density 16.036034999999998
#
# number of rings (size 3 to 8) (size 9 to 14) (size 15 to 20)
#    0.000    1.818    1.818    2.182   10.182    4.000 
#    0.000    0.000    0.000    0.000    0.000    0.000 
#    0.000    0.727    0.000    0.000    0.000    0.000 
#
# Total GULP energy -122629.748022 kJ/mol
# GULP energy per Si atom -5574.079456 kJ/mol
# Density = 1.599954 g / cm^3
# Si number density = 16.036035 Si / 1000 Ang^3
#
#
#
# Elastic Constant Matrix: (Units=GPa)
#
#
# Indices 1 2 3 4 5 6 
#
# 1 101.8056 22.6778 23.5228 0.0000 0.0000 0.0000
# 2 22.6778 46.0051 -2.1469 0.0000 0.0000 0.0000
# 3 23.5228 -2.1469 65.1229 0.0000 0.0000 0.0000
# 4 0.0000 0.0000 0.0000 15.9853 0.0000 0.0000
# 5 0.0000 0.0000 0.0000 0.0000 -13.7268 0.0000
# 6 0.0000 0.0000 0.0000 0.0000 0.0000 7.3148
#
#
#
# Elastic Compliance Matrix: (Units=1/GPa)
#
#
# Indices 1 2 3 4 5 6 
#
# 1 0.012295 -0.006278 -0.004648 0.000000 0.000000 0.000000
# 2 -0.006278 0.024975 0.003091 0.000000 0.000000 0.000000
# 3 -0.004648 0.003091 0.017136 0.000000 0.000000 0.000000
# 4 0.000000 0.000000 0.000000 0.062557 0.000000 0.000000
# 5 0.000000 0.000000 0.000000 0.000000 -0.072850 0.000000
# 6 0.000000 0.000000 0.000000 0.000000 0.000000 0.136709
#
#
# Mechanical properties :
#
#
# Convention : Reuss Voigt Hill
#
# Bulk Modulus (GPa) = 25.81485 33.44898 29.63192
# Shear Modulus (GPa) = 23.87721 13.17332 18.52526
#
# Velocity S-wave (km/s) = 3.86291 2.86926 3.40255
# Velocity P-wave (km/s) = 6.00242 5.64631 5.82708
#
# Compressibility (1/GPa) = 0.03873739
#
# Stress axis : x y z
#
# Youngs Moduli (GPa) = 81.33419 40.03936 58.35542
#
# Poissons Ratio (x) = 0.25135 0.27123
# Poissons Ratio (y) = 0.51058 -0.18037
# Poissons Ratio (z) = 0.37804 -0.12376
#
# Static dielectric constant tensor:
#      x y z
#    x 1.566170 0.000000 0.000000 
#    y 0.000000 1.720150 0.000000 
#    z 0.000000 0.000000 2.099610 
# 
# From -- ./inp_files/3337.got.cif
#   From: 2010.05.17/outbox.cif.g08.bks.cpg/sg23_2_cif.got.tgz:3337.got - 2010.06.04 12:02:01.
