data_PCOD9330145
_publ_section_title
;
Structure prediction by ZEFSAII (Michael W. Deem and Ramdas Pophale) SiO2 
 PCOD9330145
Probable space group: I 2 2 2
;
_chemical_formula_sum "Si O2"
_cell_formula_units_Z 34
_cell_length_a 11.543343
_cell_length_b 12.600730
_cell_length_c 11.220550
_cell_angle_alpha 90.000000
_cell_angle_beta 90.000000
_cell_angle_gamma 90.000000
_cell_volume 1632.080034
_symmetry_space_group_name_H-M "I 2 2 2"
_symmetry_group_IT_number 23
_symmetry_cell_setting 'orthorhombic'
loop_
_space_group_symop_operation_xyz
x,y,z
-x,-y,z
x,-y,-z
-x,y,-z
1/2+x,1/2+y,1/2+z
1/2-x,1/2-y,1/2+z
1/2+x,1/2-y,1/2-z
1/2-x,1/2+y,1/2-z
loop_
_atom_site_type_symbol
_atom_site_label
_atom_site_fract_x
_atom_site_fract_y
_atom_site_fract_z
Si Si1 0.432222 0.614166 0.395358
Si Si2 0.879813 0.540106 0.704147
Si Si3 0.331919 0.355638 0.845240
Si Si4 0.000000 0.000000 0.500000
Si Si5 0.187149 0.639795 0.517739
O O1 0.500000 0.500000 0.376006
O O2 0.500000 0.673343 0.500000
O O3 0.408969 0.671908 0.271708
O O4 0.306492 0.605977 0.454436
O O5 0.783610 0.586235 0.794010
O O6 0.836342 0.438694 0.627578
O O7 0.899958 0.624782 0.595033
O O8 0.000000 0.500000 0.759949
O O9 0.414390 0.432225 0.918830
O O10 0.304670 0.255832 0.927521
#
# Coordination Sequence:
#
# PCOD9330145 Si02
#       5
#     8   8   8   2   8
#     4  10  19  40  67  99 135 182 237 286 335 420
#     4  10  22  43  66  99 140 186 233 284 341 437
#     4  11  25  42  69 105 140 187 229 307 356 417
#     4  12  28  44  68 102 152 172 244 312 376 398
#     4  10  22  39  68 102 139 184 241 274 359 419
#
# _framework density 20.832312999999999
#
# number of rings (size 3 to 8) (size 9 to 14) (size 15 to 20)
#    0.000    1.647    1.176    7.059    3.294    5.647 
#    0.000    0.588    0.000    0.000    0.000    0.000 
#    0.000    0.000    0.000    0.000    0.000    0.000 
#
# Total GULP energy -94710.785662 kJ/mol
# GULP energy per Si atom -5571.222686 kJ/mol
# Density = 2.078490 g / cm^3
# Si number density = 20.832313 Si / 1000 Ang^3
#
#
#
# Elastic Constant Matrix: (Units=GPa)
#
#
# Indices 1 2 3 4 5 6 
#
# 1 108.7617 55.5582 56.2580 0.0000 0.0000 0.0000
# 2 55.5582 102.2714 61.1568 0.0000 0.0000 0.0000
# 3 56.2580 61.1568 107.6424 0.0000 0.0000 0.0000
# 4 0.0000 0.0000 0.0000 21.6016 0.0000 0.0000
# 5 0.0000 0.0000 0.0000 0.0000 23.2680 0.0000
# 6 0.0000 0.0000 0.0000 0.0000 0.0000 11.9871
#
#
#
# Elastic Compliance Matrix: (Units=1/GPa)
#
#
# Indices 1 2 3 4 5 6 
#
# 1 0.014062 -0.004914 -0.004558 0.000000 0.000000 0.000000
# 2 -0.004914 0.016526 -0.006821 0.000000 0.000000 0.000000
# 3 -0.004558 -0.006821 0.015548 0.000000 0.000000 0.000000
# 4 0.000000 0.000000 0.000000 0.046293 0.000000 0.000000
# 5 0.000000 0.000000 0.000000 0.000000 0.042978 0.000000
# 6 0.000000 0.000000 0.000000 0.000000 0.000000 0.083423
#
#
# Mechanical properties :
#
#
# Convention : Reuss Voigt Hill
#
# Bulk Modulus (GPa) = 73.79773 73.84684 73.82229
# Shear Modulus (GPa) = 19.53651 21.08483 20.31067
#
# Velocity S-wave (km/s) = 3.06567 3.18484 3.12582
# Velocity P-wave (km/s) = 6.93056 7.00353 6.96714
#
# Compressibility (1/GPa) = 0.01355055
#
# Stress axis : x y z
#
# Youngs Moduli (GPa) = 71.11416 60.50978 64.31901
#
# Poissons Ratio (x) = 0.29732 0.29314
# Poissons Ratio (y) = 0.34943 0.43874
# Poissons Ratio (z) = 0.32411 0.41276
#
# Static dielectric constant tensor:
#      x y z
#    x 1.909140 0.000000 0.000000 
#    y 0.000000 1.754590 0.000000 
#    z 0.000000 0.000000 1.785660 
# 
# From -- ./inp_files/15317.got.cif
#   From: 2010.05.17/outbox.cif.g08.bks.cpg/sg23_8_cif.got.tgz:15317.got - 2010.06.04 12:02:01.
