data_PCOD9330863
_publ_section_title
;
Structure prediction by ZEFSAII (Michael W. Deem and Ramdas Pophale) SiO2 
 PCOD9330863
Probable space group: I 2 2 2
;
_chemical_formula_sum "Si O2"
_cell_formula_units_Z 58
_cell_length_a 8.516492
_cell_length_b 26.057048
_cell_length_c 14.919644
_cell_angle_alpha 90.000000
_cell_angle_beta 90.000000
_cell_angle_gamma 90.000000
_cell_volume 3310.887440
_symmetry_space_group_name_H-M "I 2 2 2"
_symmetry_group_IT_number 23
_symmetry_cell_setting 'orthorhombic'
loop_
_space_group_symop_operation_xyz
x,y,z
-x,-y,z
x,-y,-z
-x,y,-z
1/2+x,1/2+y,1/2+z
1/2-x,1/2-y,1/2+z
1/2+x,1/2-y,1/2-z
1/2-x,1/2+y,1/2-z
loop_
_atom_site_type_symbol
_atom_site_label
_atom_site_fract_x
_atom_site_fract_y
_atom_site_fract_z
Si Si1 0.221880 0.294796 0.315714
Si Si2 0.152177 0.305064 0.710564
Si Si3 0.500000 0.000000 0.500000
Si Si4 0.342924 0.388257 0.200905
Si Si5 0.784817 0.104269 0.674121
Si Si6 0.310478 0.226347 0.013960
Si Si7 0.666407 0.011124 0.323565
Si Si8 0.190098 0.155580 0.510985
O O1 0.282000 0.241614 0.271585
O O2 0.298927 0.343728 0.269299
O O3 0.255193 0.296274 0.421876
O O4 0.034818 0.297844 0.298759
O O5 0.194834 0.359311 0.755621
O O6 0.221203 0.299407 0.609781
O O7 0.385156 0.973923 0.426371
O O8 0.530060 0.390434 0.191943
O O9 0.267786 0.443784 0.218693
O O10 0.275891 0.370674 0.104794
O O11 0.745749 0.126736 0.575774
O O12 0.747719 0.044111 0.674413
O O13 0.258688 0.285564 0.016523
O O14 0.500000 0.226156 0.000000
O O15 0.500000 0.000000 0.276244
O O16 0.000000 0.155733 0.500000
#
# Coordination Sequence:
#
# PCOD9330863 Si02
#       8
#     8   8   2   8   8   8   8   8
#     4  11  21  36  56  82 111 150 191 237 283 339
#     4  11  21  36  56  82 111 150 191 237 283 339
#     4   8  20  36  58  80 124 138 198 236 272 326
#     4  11  21  36  57  81 113 152 193 230 281 341
#     4  11  21  36  57  81 113 152 193 230 281 341
#     4   9  18  35  54  76 114 150 185 225 284 339
#     4  10  21  37  53  80 114 149 184 236 275 331
#     4   9  17  30  51  78 111 151 182 218 272 340
#
# _framework density 17.517962000000001
#
# number of rings (size 3 to 8) (size 9 to 14) (size 15 to 20)
#    0.414    1.379    2.759    2.897    0.000    0.000 
#    0.000    6.897    0.000    0.828    0.000    5.793 
#    0.000    0.000    0.000    0.000    0.000    0.000 
#
# Total GULP energy -161647.034999 kJ/mol
# GULP energy per Si atom -5574.035690 kJ/mol
# Density = 1.747809 g / cm^3
# Si number density = 17.517962 Si / 1000 Ang^3
#
#
#
# Elastic Constant Matrix: (Units=GPa)
#
#
# Indices 1 2 3 4 5 6 
#
# 1 36.1407 16.2145 13.3207 0.0000 0.0000 0.0000
# 2 16.2145 107.5857 43.5029 0.0000 0.0000 0.0000
# 3 13.3207 43.5029 101.3200 0.0001 0.0000 0.0000
# 4 0.0000 0.0000 0.0001 18.1614 0.0000 0.0000
# 5 0.0000 0.0000 0.0000 0.0000 19.7649 0.0000
# 6 0.0000 0.0000 0.0000 0.0000 0.0000 25.4415
#
#
#
# Elastic Compliance Matrix: (Units=1/GPa)
#
#
# Indices 1 2 3 4 5 6 
#
# 1 0.030165 -0.003561 -0.002437 0.000000 0.000000 0.000000
# 2 -0.003561 0.011668 -0.004542 0.000000 0.000000 0.000000
# 3 -0.002437 -0.004542 0.012140 0.000000 0.000000 0.000000
# 4 0.000000 0.000000 0.000000 0.055062 0.000000 0.000000
# 5 0.000000 0.000000 0.000000 0.000000 0.050595 0.000000
# 6 0.000000 0.000000 0.000000 0.000000 0.000000 0.039306
#
#
# Mechanical properties :
#
#
# Convention : Reuss Voigt Hill
#
# Bulk Modulus (GPa) = 30.40018 43.45808 36.92913
# Shear Modulus (GPa) = 21.64690 24.14078 22.89384
#
# Velocity S-wave (km/s) = 3.51906 3.71625 3.61900
# Velocity P-wave (km/s) = 5.82264 6.57842 6.21203
#
# Compressibility (1/GPa) = 0.03289454
#
# Stress axis : x y z
#
# Youngs Moduli (GPa) = 33.15051 85.70425 82.37151
#
# Poissons Ratio (x) = 0.30519 0.20074
# Poissons Ratio (y) = 0.11805 0.37410
# Poissons Ratio (z) = 0.08079 0.38924
#
# Static dielectric constant tensor:
#      x y z
#    x 1.630020 0.000000 0.000000 
#    y 0.000000 1.591370 0.000000 
#    z 0.000000 0.000000 1.601030 
# 
# From -- ./inp_files/10334.got.cif
#   From: 2010.05.17/outbox.cif.g08.bks.cpg/sg23_6_cif.got.tgz:10334.got - 2010.06.04 12:02:01.
