data_PCOD9330678
_publ_section_title
;
Structure prediction by ZEFSAII (Michael W. Deem and Ramdas Pophale) SiO2 
 PCOD9330678
Probable space group: I 2 2 2
;
_chemical_formula_sum "Si O2"
_cell_formula_units_Z 48
_cell_length_a 13.263470
_cell_length_b 10.868315
_cell_length_c 14.726887
_cell_angle_alpha 90.000000
_cell_angle_beta 90.000000
_cell_angle_gamma 90.000000
_cell_volume 2122.903882
_symmetry_space_group_name_H-M "I 2 2 2"
_symmetry_group_IT_number 23
_symmetry_cell_setting 'orthorhombic'
loop_
_space_group_symop_operation_xyz
x,y,z
-x,-y,z
x,-y,-z
-x,y,-z
1/2+x,1/2+y,1/2+z
1/2-x,1/2-y,1/2+z
1/2+x,1/2-y,1/2-z
1/2-x,1/2+y,1/2-z
loop_
_atom_site_type_symbol
_atom_site_label
_atom_site_fract_x
_atom_site_fract_y
_atom_site_fract_z
Si Si1 0.414546 0.600090 0.641710
Si Si2 0.197331 0.393827 0.404095
Si Si3 0.013831 0.637999 0.893244
Si Si4 0.862884 0.341239 0.400271
Si Si5 0.991964 0.128382 0.327679
Si Si6 0.677792 0.740823 0.722392
O O1 0.500000 0.500000 0.615325
O O2 0.313384 0.563629 0.590663
O O3 0.442007 0.744176 0.626315
O O4 0.408387 0.598766 0.750993
O O5 0.124404 0.511523 0.396743
O O6 0.199794 0.321360 0.310530
O O7 0.171490 0.319417 0.495390
O O8 0.000000 0.500000 0.853053
O O9 0.121130 0.682945 0.856116
O O10 0.000000 0.625259 0.000000
O O11 0.955823 0.251378 0.377821
O O12 0.774977 0.316232 0.325930
O O13 0.091521 0.154376 0.267292
O O14 0.000000 0.000000 0.381708
#
# Coordination Sequence:
#
# PCOD9330678 Si02
#       6
#     8   8   8   8   8   8
#     4  10  20  40  68  99 139 185 243 291 361 437
#     4  11  24  41  70 106 140 191 242 306 376 436
#     4  10  22  38  60  98 137 178 234 296 368 430
#     4  11  24  44  68 103 145 178 250 300 363 456
#     4  10  22  43  70  99 134 188 233 294 364 437
#     4  11  24  40  70  96 137 187 233 297 370 436
#
# _framework density 22.610538999999999
#
# number of rings (size 3 to 8) (size 9 to 14) (size 15 to 20)
#    0.000    1.500    1.667    4.000    4.667    2.333 
#    0.000    4.167    0.000    0.000    0.000    0.000 
#    0.000    0.000    0.000    0.000    0.000    0.000 
#
# Total GULP energy -133762.818754 kJ/mol
# GULP energy per Si atom -5573.450781 kJ/mol
# Density = 2.255908 g / cm^3
# Si number density = 22.610539 Si / 1000 Ang^3
#
#
#
# Elastic Constant Matrix: (Units=GPa)
#
#
# Indices 1 2 3 4 5 6 
#
# 1 69.4774 36.2037 25.5411 0.0000 0.0000 0.0000
# 2 36.2037 159.8999 32.9025 0.0000 0.0000 0.0000
# 3 25.5411 32.9025 124.6817 0.0000 0.0000 0.0000
# 4 0.0000 0.0000 0.0000 34.3473 0.0000 0.0000
# 5 0.0000 0.0000 0.0000 0.0000 15.9836 0.0000
# 6 0.0000 0.0000 0.0000 0.0000 0.0000 21.0434
#
#
#
# Elastic Compliance Matrix: (Units=1/GPa)
#
#
# Indices 1 2 3 4 5 6 
#
# 1 0.017093 -0.003330 -0.002623 0.000000 0.000000 0.000000
# 2 -0.003330 0.007262 -0.001234 0.000000 0.000000 0.000000
# 3 -0.002623 -0.001234 0.008883 0.000000 0.000000 0.000000
# 4 0.000000 0.000000 0.000000 0.029114 0.000000 0.000000
# 5 0.000000 0.000000 0.000000 0.000000 0.062564 0.000000
# 6 0.000000 0.000000 0.000000 0.000000 0.000000 0.047521
#
#
# Mechanical properties :
#
#
# Convention : Reuss Voigt Hill
#
# Bulk Modulus (GPa) = 53.01173 60.37260 56.69217
# Shear Modulus (GPa) = 25.89338 31.56897 28.73117
#
# Velocity S-wave (km/s) = 3.38774 3.74064 3.56855
# Velocity P-wave (km/s) = 6.22887 6.73911 6.48901
#
# Compressibility (1/GPa) = 0.01886375
#
# Stress axis : x y z
#
# Youngs Moduli (GPa) = 58.50448 137.70481 112.57033
#
# Poissons Ratio (x) = 0.45861 0.29522
# Poissons Ratio (y) = 0.19484 0.13893
# Poissons Ratio (z) = 0.15343 0.16994
#
# Static dielectric constant tensor:
#      x y z
#    x 1.947490 0.000000 0.000000 
#    y 0.000000 1.966790 0.000000 
#    z 0.000000 0.000000 1.937740 
# 
# From -- ./inp_files/26668.got.cif
#   From: 2010.05.17/outbox.cif.g08.bks.cpg/sg23_14_cif.got.tgz:26668.got - 2010.06.04 12:02:01.
