data_PCOD9330038
_publ_section_title
;
Structure prediction by ZEFSAII (Michael W. Deem and Ramdas Pophale) SiO2 
 PCOD9330038
Probable space group: I 2 2 2
;
_chemical_formula_sum "Si O2"
_cell_formula_units_Z 54
_cell_length_a 13.722292
_cell_length_b 5.699988
_cell_length_c 31.076863
_cell_angle_alpha 90.000000
_cell_angle_beta 90.000000
_cell_angle_gamma 90.000000
_cell_volume 2430.735877
_symmetry_space_group_name_H-M "I 2 2 2"
_symmetry_group_IT_number 23
_symmetry_cell_setting 'orthorhombic'
loop_
_space_group_symop_operation_xyz
x,y,z
-x,-y,z
x,-y,-z
-x,y,-z
1/2+x,1/2+y,1/2+z
1/2-x,1/2-y,1/2+z
1/2+x,1/2-y,1/2-z
1/2-x,1/2+y,1/2-z
loop_
_atom_site_type_symbol
_atom_site_label
_atom_site_fract_x
_atom_site_fract_y
_atom_site_fract_z
Si Si1 0.500000 0.000000 0.000000
Si Si2 0.889436 0.090477 0.348231
Si Si3 0.439864 0.248691 0.239859
Si Si4 0.500000 0.000000 0.392849
Si Si5 0.344429 0.902320 0.452778
Si Si6 0.257901 0.761243 0.112191
Si Si7 0.400078 0.647996 0.667069
Si Si8 0.152873 0.359127 0.564350
O O1 0.570601 0.156148 0.970958
O O2 0.882579 0.247042 0.305283
O O3 0.870637 0.212161 0.393534
O O4 0.809260 0.885992 0.350031
O O5 0.000000 0.000000 0.349369
O O6 0.500000 0.500000 0.238853
O O7 0.379378 0.281763 0.283876
O O8 0.500000 0.000000 0.242657
O O9 0.440261 0.832089 0.425462
O O10 0.573193 0.878435 0.359932
O O11 0.258759 0.711040 0.454039
O O12 0.367269 0.000000 0.500000
O O13 0.299398 0.110764 0.423527
O O14 0.188686 0.946127 0.137863
O O15 0.340707 0.881229 0.083663
O O16 0.500000 0.500000 0.666348
#
# Coordination Sequence:
#
# PCOD9330038 Si02
#       8
#     2   8   8   4   8   8   8   8
#     4  12  24  36  64  88 114 180 228 280 346 410
#     4  10  23  40  61  86 122 171 213 281 338 404
#     4  10  22  40  66  97 131 176 223 276 341 421
#     4  10  19  36  63  88 124 171 212 263 358 426
#     4  10  21  37  59  90 126 162 215 278 340 421
#     4  10  22  40  60  92 125 168 224 277 351 417
#     4  10  20  39  64  93 128 172 220 277 349 433
#     4  11  23  40  60  86 125 167 221 285 343 411
#
# _framework density 22.215494
#
# number of rings (size 3 to 8) (size 9 to 14) (size 15 to 20)
#    0.000    1.778    0.741    2.889    5.185    1.185 
#    2.667    2.963    0.000    2.667    0.000    0.000 
#    0.000    0.000    0.000    0.000    0.000    0.000 
#
# Total GULP energy -150418.843586 kJ/mol
# GULP energy per Si atom -5571.068281 kJ/mol
# Density = 2.216493 g / cm^3
# Si number density = 22.215494 Si / 1000 Ang^3
#
#
#
# Elastic Constant Matrix: (Units=GPa)
#
#
# Indices 1 2 3 4 5 6 
#
# 1 55.2032 -6.7097 38.6129 0.0000 0.0000 0.0000
# 2 -6.7097 38.8092 11.0241 0.0000 0.0000 0.0000
# 3 38.6129 11.0241 147.6611 0.0000 0.0000 0.0000
# 4 0.0000 0.0000 0.0000 4.6855 0.0000 0.0000
# 5 0.0000 0.0000 0.0000 0.0000 22.6354 0.0000
# 6 0.0000 0.0000 0.0000 0.0000 0.0000 28.5478
#
#
#
# Elastic Compliance Matrix: (Units=1/GPa)
#
#
# Indices 1 2 3 4 5 6 
#
# 1 0.023428 0.005916 -0.006568 0.000000 0.000000 0.000000
# 2 0.005916 0.027819 -0.003624 0.000000 0.000000 0.000000
# 3 -0.006568 -0.003624 0.008760 0.000000 0.000000 0.000000
# 4 0.000000 0.000000 0.000000 0.213425 0.000000 0.000000
# 5 0.000000 0.000000 0.000000 0.000000 0.044179 0.000000
# 6 0.000000 0.000000 0.000000 0.000000 0.000000 0.035029
#
#
# Mechanical properties :
#
#
# Convention : Reuss Voigt Hill
#
# Bulk Modulus (GPa) = 19.43403 36.39200 27.91302
# Shear Modulus (GPa) = 13.21546 24.42347 18.81946
#
# Velocity S-wave (km/s) = 2.44165 3.31930 2.91371
# Velocity P-wave (km/s) = 4.08850 5.57739 4.88994
#
# Compressibility (1/GPa) = 0.05145613
#
# Stress axis : x y z
#
# Youngs Moduli (GPa) = 42.68366 35.94616 114.15056
#
# Poissons Ratio (x) = -0.21266 0.74975
# Poissons Ratio (y) = -0.25253 0.41368
# Poissons Ratio (z) = 0.28035 0.13027
#
# Static dielectric constant tensor:
#      x y z
#    x 2.015840 0.000000 0.000000 
#    y 0.000000 1.915590 0.000000 
#    z 0.000000 0.000000 1.793050 
# 
# From -- ./inp_files/2757.got.cif
#   From: 2010.05.17/outbox.cif.g08.bks.cpg/sg23_2_cif.got.tgz:2757.got - 2010.06.04 12:02:01.
