data_PCOD9330914
_publ_section_title
;
Structure prediction by ZEFSAII (Michael W. Deem and Ramdas Pophale) SiO2 
 PCOD9330914
Probable space group: I 2 2 2
;
_chemical_formula_sum "Si O2"
_cell_formula_units_Z 58
_cell_length_a 17.524578
_cell_length_b 6.073338
_cell_length_c 27.858068
_cell_angle_alpha 90.000000
_cell_angle_beta 90.000000
_cell_angle_gamma 90.000000
_cell_volume 2965.008990
_symmetry_space_group_name_H-M "I 2 2 2"
_symmetry_group_IT_number 23
_symmetry_cell_setting 'orthorhombic'
loop_
_space_group_symop_operation_xyz
x,y,z
-x,-y,z
x,-y,-z
-x,y,-z
1/2+x,1/2+y,1/2+z
1/2-x,1/2-y,1/2+z
1/2+x,1/2-y,1/2-z
1/2-x,1/2+y,1/2-z
loop_
_atom_site_type_symbol
_atom_site_label
_atom_site_fract_x
_atom_site_fract_y
_atom_site_fract_z
Si Si1 0.456812 0.289703 0.915434
Si Si2 0.215699 0.727930 0.133951
Si Si3 0.500000 0.000000 0.000000
Si Si4 0.196974 0.028231 0.555386
Si Si5 0.588936 0.523757 0.318322
Si Si6 0.687438 0.133408 0.288230
Si Si7 0.645920 0.218330 0.773513
Si Si8 0.150199 0.578298 0.375842
O O1 0.500000 0.500000 0.892695
O O2 0.380390 0.388292 0.939035
O O3 0.419823 0.089352 0.885131
O O4 0.508639 0.188760 0.957848
O O5 0.238363 0.591025 0.087126
O O6 0.220058 0.554248 0.176994
O O7 0.132011 0.828581 0.142031
O O8 0.277671 0.923942 0.137828
O O9 0.177030 0.266520 0.579579
O O10 0.218350 0.000000 0.500000
O O11 0.500000 0.500000 0.326429
O O12 0.633913 0.294932 0.317757
O O13 0.604717 0.626276 0.264960
O O14 0.762831 0.248677 0.268806
O O15 0.636237 0.028652 0.246315
O O16 0.629257 0.228582 0.829864
#
# Coordination Sequence:
#
# PCOD9330914 Si02
#       8
#     8   8   2   8   8   8   8   8
#     4  11  23  37  58  83 121 169 218 264 325 380
#     4  10  21  37  64  89 117 162 206 269 329 386
#     4  12  22  44  60  78 116 180 212 264 320 374
#     4  11  22  38  62  93 122 159 224 278 323 393
#     4  11  24  39  61  94 129 163 214 271 326 397
#     4  11  19  38  64  88 116 163 212 253 316 385
#     4  11  20  35  64  86 120 169 211 258 312 380
#     4  11  22  39  61  91 121 165 220 267 321 381
#
# _framework density 19.561489999999999
#
# number of rings (size 3 to 8) (size 9 to 14) (size 15 to 20)
#    0.000    1.103    4.138    3.517    0.000    3.862 
#    0.000    6.897    0.000    0.000    0.000   13.517 
#    0.000    0.000    0.000    0.000    0.000    0.000 
#
# Total GULP energy -161447.193866 kJ/mol
# GULP energy per Si atom -5567.144616 kJ/mol
# Density = 1.951697 g / cm^3
# Si number density = 19.561490 Si / 1000 Ang^3
#
#
#
# Elastic Constant Matrix: (Units=GPa)
#
#
# Indices 1 2 3 4 5 6 
#
# 1 105.6105 31.6922 41.3106 0.0000 0.0000 0.0000
# 2 31.6922 91.2591 43.3351 0.0000 0.0000 0.0000
# 3 41.3106 43.3351 120.3371 0.0000 0.0000 0.0000
# 4 0.0000 0.0000 0.0000 28.7904 0.0000 0.0000
# 5 0.0000 0.0000 0.0000 0.0000 8.2381 0.0000
# 6 0.0000 0.0000 0.0000 0.0000 0.0000 29.6878
#
#
#
# Elastic Compliance Matrix: (Units=1/GPa)
#
#
# Indices 1 2 3 4 5 6 
#
# 1 0.011404 -0.002535 -0.003002 0.000000 0.000000 0.000000
# 2 -0.002535 0.013782 -0.004093 0.000000 0.000000 0.000000
# 3 -0.003002 -0.004093 0.010814 0.000000 0.000000 0.000000
# 4 0.000000 0.000000 0.000000 0.034734 0.000000 0.000000
# 5 0.000000 0.000000 0.000000 0.000000 0.121387 0.000000
# 6 0.000000 0.000000 0.000000 0.000000 0.000000 0.033684
#
#
# Mechanical properties :
#
#
# Convention : Reuss Voigt Hill
#
# Bulk Modulus (GPa) = 59.73485 61.09806 60.41645
# Shear Modulus (GPa) = 19.94869 26.73452 23.34160
#
# Velocity S-wave (km/s) = 3.19689 3.70089 3.45808
# Velocity P-wave (km/s) = 6.65057 7.04015 6.84813
#
# Compressibility (1/GPa) = 0.01674065
#
# Stress axis : x y z
#
# Youngs Moduli (GPa) = 87.69131 72.56073 92.46920
#
# Poissons Ratio (x) = 0.18392 0.27759
# Poissons Ratio (y) = 0.22227 0.37846
# Poissons Ratio (z) = 0.26325 0.29698
#
# Static dielectric constant tensor:
#      x y z
#    x 1.686290 0.000000 0.000000 
#    y 0.000000 1.779880 0.000000 
#    z 0.000000 0.000000 1.721400 
# 
# From -- ./inp_files/29694.got.cif
#   From: 2010.05.17/outbox.cif.g08.bks.cpg/sg23_15_cif.got.tgz:29694.got - 2010.06.04 12:02:01.
