data_PCOD9330713
_publ_section_title
;
Structure prediction by ZEFSAII (Michael W. Deem and Ramdas Pophale) SiO2 
 PCOD9330713
Probable space group: I 2 2 2
;
_chemical_formula_sum "Si O2"
_cell_formula_units_Z 40
_cell_length_a 5.525073
_cell_length_b 22.916616
_cell_length_c 16.729726
_cell_angle_alpha 90.000000
_cell_angle_beta 90.000000
_cell_angle_gamma 90.000000
_cell_volume 2118.250591
_symmetry_space_group_name_H-M "I 2 2 2"
_symmetry_group_IT_number 23
_symmetry_cell_setting 'orthorhombic'
loop_
_space_group_symop_operation_xyz
x,y,z
-x,-y,z
x,-y,-z
-x,y,-z
1/2+x,1/2+y,1/2+z
1/2-x,1/2-y,1/2+z
1/2+x,1/2-y,1/2-z
1/2-x,1/2+y,1/2-z
loop_
_atom_site_type_symbol
_atom_site_label
_atom_site_fract_x
_atom_site_fract_y
_atom_site_fract_z
Si Si1 0.500000 0.500000 0.879145
Si Si2 0.735142 0.820312 0.204124
Si Si3 0.896133 0.441746 0.232953
Si Si4 0.235217 0.234521 0.853661
Si Si5 0.663475 0.095656 0.425611
Si Si6 0.000000 0.707518 0.000000
O O1 0.693419 0.530203 0.822524
O O2 0.390372 0.553948 0.926220
O O3 0.698362 0.889370 0.213522
O O4 0.498488 0.795119 0.157695
O O5 0.730020 0.788716 0.291136
O O6 0.999962 0.804782 0.169323
O O7 0.000000 0.500000 0.275101
O O8 0.068308 0.412856 0.164886
O O9 0.173661 0.256890 0.941979
O O10 0.500000 0.073372 0.500000
O O11 0.666233 0.164134 0.445754
#
# Coordination Sequence:
#
# PCOD9330713 Si02
#       6
#     4   8   8   8   8   4
#     4  10  22  33  56  80 114 171 190 248 276 375
#     4  10  21  39  58  88 113 161 194 260 290 362
#     4  10  21  35  55  86 116 152 202 239 298 356
#     4  10  22  37  63  81 120 153 210 239 311 337
#     4   9  20  36  50  79 122 154 202 232 287 351
#     4  10  20  42  55  88 115 164 198 254 286 370
#
# _framework density 18.883507000000002
#
# number of rings (size 3 to 8) (size 9 to 14) (size 15 to 20)
#    0.600    1.600    2.000    0.000    5.600    7.600 
#    3.600    0.000    4.400    0.000    0.000    4.200 
#    0.000    0.000    0.000    0.000    0.000    0.000 
#
# Total GULP energy -111377.511277 kJ/mol
# GULP energy per Si atom -5568.875564 kJ/mol
# Density = 1.884053 g / cm^3
# Si number density = 18.883507 Si / 1000 Ang^3
#
#
#
# Elastic Constant Matrix: (Units=GPa)
#
#
# Indices 1 2 3 4 5 6 
#
# 1 34.6609 -9.9554 -11.5291 0.0000 0.0000 0.0000
# 2 -9.9554 81.8981 -0.2549 0.0000 0.0000 0.0000
# 3 -11.5291 -0.2549 23.2876 0.0000 0.0000 0.0000
# 4 0.0000 0.0000 0.0000 29.0495 0.0000 0.0000
# 5 0.0000 0.0000 0.0000 0.0000 17.4914 0.0000
# 6 0.0000 0.0000 0.0000 0.0000 0.0000 -32.7414
#
#
#
# Elastic Compliance Matrix: (Units=1/GPa)
#
#
# Indices 1 2 3 4 5 6 
#
# 1 0.036085 0.004442 0.017914 0.000000 0.000000 0.000000
# 2 0.004442 0.012758 0.002339 0.000000 0.000000 0.000000
# 3 0.017914 0.002339 0.051835 0.000000 0.000000 0.000000
# 4 0.000000 0.000000 0.000000 0.034424 0.000000 0.000000
# 5 0.000000 0.000000 0.000000 0.000000 0.057171 0.000000
# 6 0.000000 0.000000 0.000000 0.000000 0.000000 -0.030542
#
#
# Mechanical properties :
#
#
# Convention : Reuss Voigt Hill
#
# Bulk Modulus (GPa) = 6.66365 10.70753 8.68559
# Shear Modulus (GPa) = 30.79497 13.53229 22.16363
#
# Velocity S-wave (km/s) = 4.04268 2.67988 3.42965
# Velocity P-wave (km/s) = 5.03264 3.90619 4.50476
#
# Compressibility (1/GPa) = 0.15006791
#
# Stress axis : x y z
#
# Youngs Moduli (GPa) = 27.71203 78.38484 19.29182
#
# Poissons Ratio (x) = -0.34820 -0.34559
# Poissons Ratio (y) = -0.12310 -0.04512
# Poissons Ratio (z) = -0.49642 -0.18333
#
# Static dielectric constant tensor:
#      x y z
#    x 1.708490 0.000000 0.000000 
#    y 0.000000 1.659550 0.000000 
#    z 0.000000 0.000000 1.710670 
# 
# From -- ./inp_files/23120.got.cif
#   From: 2010.05.17/outbox.cif.g08.bks.cpg/sg23_12_cif.got.tgz:23120.got - 2010.06.04 12:02:01.
