data_PCOD9330438
_publ_section_title
;
Structure prediction by ZEFSAII (Michael W. Deem and Ramdas Pophale) SiO2 
 PCOD9330438
Probable space group: I 2 2 2
;
_chemical_formula_sum "Si O2"
_cell_formula_units_Z 48
_cell_length_a 26.424688
_cell_length_b 9.216887
_cell_length_c 9.134232
_cell_angle_alpha 90.000000
_cell_angle_beta 90.000000
_cell_angle_gamma 90.000000
_cell_volume 2224.672925
_symmetry_space_group_name_H-M "I 2 2 2"
_symmetry_group_IT_number 23
_symmetry_cell_setting 'orthorhombic'
loop_
_space_group_symop_operation_xyz
x,y,z
-x,-y,z
x,-y,-z
-x,y,-z
1/2+x,1/2+y,1/2+z
1/2-x,1/2-y,1/2+z
1/2+x,1/2-y,1/2-z
1/2-x,1/2+y,1/2-z
loop_
_atom_site_type_symbol
_atom_site_label
_atom_site_fract_x
_atom_site_fract_y
_atom_site_fract_z
Si Si1 0.922665 0.742543 0.190423
Si Si2 0.913220 0.000000 0.000000
Si Si3 0.720708 0.136335 0.696842
Si Si4 0.428364 0.000000 0.500000
Si Si5 0.939873 0.835166 0.508869
Si Si6 0.802908 0.307142 0.857819
Si Si7 0.382150 0.246107 0.290849
O O1 0.953128 0.613151 0.112022
O O2 0.925158 0.749562 0.363313
O O3 0.862865 0.719957 0.155728
O O4 0.940878 0.891052 0.112313
O O5 0.883767 0.889717 0.892401
O O6 0.772367 0.186017 0.769749
O O7 0.714866 0.184571 0.526962
O O8 0.673442 0.217708 0.771991
O O9 0.711432 0.964910 0.705516
O O10 0.397237 0.892650 0.609104
O O11 0.921000 0.766049 0.658955
O O12 0.000000 0.842961 0.500000
O O13 0.919264 0.000000 0.500000
#
# Coordination Sequence:
#
# PCOD9330438 Si02
#       7
#     8   4   8   4   8   8   8
#     4  11  21  44  68  95 133 178 220 277 336 393
#     4  10  20  36  73  94 114 182 224 260 319 408
#     4  11  24  41  62  93 132 170 217 268 324 395
#     4  10  20  44  73  88 128 172 220 272 327 398
#     4  11  26  45  67 103 139 174 225 283 342 406
#     4  11  24  41  62  93 132 170 217 268 324 395
#     4  11  21  44  68  95 133 178 220 277 336 393
#
# _framework density 21.576205000000002
#
# number of rings (size 3 to 8) (size 9 to 14) (size 15 to 20)
#    0.000    1.167    6.667    0.000    4.667    1.333 
#    0.000    6.667    0.000    0.000    0.000    0.000 
#    0.000    0.000    0.000    0.000    0.000    0.000 
#
# Total GULP energy -133989.640909 kJ/mol
# GULP energy per Si atom -5582.901705 kJ/mol
# Density = 2.152710 g / cm^3
# Si number density = 21.576205 Si / 1000 Ang^3
#
#
#
# Elastic Constant Matrix: (Units=GPa)
#
#
# Indices 1 2 3 4 5 6 
#
# 1 51.4415 20.2027 39.9355 0.0000 0.0000 0.0000
# 2 20.2027 121.1563 48.8656 0.0000 0.0000 0.0000
# 3 39.9355 48.8656 113.1935 0.0000 0.0000 0.0000
# 4 0.0000 0.0000 0.0000 33.5742 0.0000 0.0000
# 5 0.0000 0.0000 0.0000 0.0000 28.5379 0.0000
# 6 0.0000 0.0000 0.0000 0.0000 0.0000 19.6696
#
#
#
# Elastic Compliance Matrix: (Units=1/GPa)
#
#
# Indices 1 2 3 4 5 6 
#
# 1 0.026835 -0.000795 -0.009125 0.000000 0.000000 0.000000
# 2 -0.000795 0.010017 -0.004044 0.000000 0.000000 0.000000
# 3 -0.009125 -0.004044 0.013800 0.000000 0.000000 0.000000
# 4 0.000000 0.000000 0.000000 0.029785 0.000000 0.000000
# 5 0.000000 0.000000 0.000000 0.000000 0.035041 0.000000
# 6 0.000000 0.000000 0.000000 0.000000 0.000000 0.050840
#
#
# Mechanical properties :
#
#
# Convention : Reuss Voigt Hill
#
# Bulk Modulus (GPa) = 44.00349 55.97767 49.99058
# Shear Modulus (GPa) = 24.77453 28.14218 26.45835
#
# Velocity S-wave (km/s) = 3.39224 3.61545 3.50562
# Velocity P-wave (km/s) = 5.98178 6.59008 6.29328
#
# Compressibility (1/GPa) = 0.02272547
#
# Stress axis : x y z
#
# Youngs Moduli (GPa) = 37.26423 99.82608 72.46598
#
# Poissons Ratio (x) = 0.07932 0.66123
# Poissons Ratio (y) = 0.02961 0.29307
# Poissons Ratio (z) = 0.34003 0.40372
#
# Static dielectric constant tensor:
#      x y z
#    x 1.792800 0.000000 0.000000 
#    y 0.000000 1.805640 0.000000 
#    z 0.000000 0.000000 1.768790 
# 
# From -- ./inp_files/13378.got.cif
#   From: 2010.05.17/outbox.cif.g08.bks.cpg/sg23_7_cif.got.tgz:13378.got - 2010.06.04 12:02:01.
