data_PCOD9330474
_publ_section_title
;
Structure prediction by ZEFSAII (Michael W. Deem and Ramdas Pophale) SiO2 
 PCOD9330474
Probable space group: I 2 2 2
;
_chemical_formula_sum "Si O2"
_cell_formula_units_Z 32
_cell_length_a 14.367748
_cell_length_b 11.720737
_cell_length_c 8.974887
_cell_angle_alpha 90.000000
_cell_angle_beta 90.000000
_cell_angle_gamma 90.000000
_cell_volume 1511.376316
_symmetry_space_group_name_H-M "I 2 2 2"
_symmetry_group_IT_number 23
_symmetry_cell_setting 'orthorhombic'
loop_
_space_group_symop_operation_xyz
x,y,z
-x,-y,z
x,-y,-z
-x,y,-z
1/2+x,1/2+y,1/2+z
1/2-x,1/2-y,1/2+z
1/2+x,1/2-y,1/2-z
1/2-x,1/2+y,1/2-z
loop_
_atom_site_type_symbol
_atom_site_label
_atom_site_fract_x
_atom_site_fract_y
_atom_site_fract_z
Si Si1 0.668095 0.263167 0.567733
Si Si2 0.143849 0.566587 0.301885
Si Si3 0.864560 0.696157 0.271773
Si Si4 0.500000 0.802659 0.000000
Si Si5 0.317600 0.500000 0.500000
O O1 0.635093 0.157498 0.668465
O O2 0.772843 0.281693 0.629361
O O3 0.656541 0.230240 0.396249
O O4 0.628393 0.392882 0.571200
O O5 0.113210 0.439020 0.262088
O O6 0.247467 0.549764 0.371879
O O7 0.080305 0.620215 0.429445
O O8 0.948828 0.757134 0.360909
#
# Coordination Sequence:
#
# PCOD9330474 Si02
#       5
#     8   8   8   4   4
#     4  11  21  38  58  91 116 159 206 234 302 354
#     4  11  20  36  60  90 117 156 191 248 309 347
#     4  11  21  35  61  88 121 152 196 252 301 360
#     4  12  21  38  60  89 128 149 190 258 323 344
#     4  10  20  37  62  87 120 158 192 260 282 351
#
# _framework density 21.172754999999999
#
# number of rings (size 3 to 8) (size 9 to 14) (size 15 to 20)
#    0.000    1.000    7.500    2.250    0.000    1.000 
#    0.000    2.500    0.000    4.500    0.000    0.000 
#    0.000    0.000    0.000    0.000    0.000    0.000 
#
# Total GULP energy -89137.458262 kJ/mol
# GULP energy per Si atom -5571.091141 kJ/mol
# Density = 2.112456 g / cm^3
# Si number density = 21.172755 Si / 1000 Ang^3
#
#
#
# Elastic Constant Matrix: (Units=GPa)
#
#
# Indices 1 2 3 4 5 6 
#
# 1 25.9093 12.8816 35.5056 0.0000 0.0000 0.0000
# 2 12.8816 82.4722 66.2795 0.0000 0.0000 0.0000
# 3 35.5056 66.2795 182.3436 0.0000 0.0000 0.0000
# 4 0.0000 0.0000 0.0000 46.2250 0.0000 0.0000
# 5 0.0000 0.0000 0.0000 0.0000 18.9521 0.0000
# 6 0.0000 0.0000 0.0000 0.0000 0.0000 14.1012
#
#
#
# Elastic Compliance Matrix: (Units=1/GPa)
#
#
# Indices 1 2 3 4 5 6 
#
# 1 0.052644 0.000022 -0.010259 0.000000 0.000000 0.000000
# 2 0.000022 0.017129 -0.006230 0.000000 0.000000 0.000000
# 3 -0.010259 -0.006230 0.009746 0.000000 0.000000 0.000000
# 4 0.000000 0.000000 0.000000 0.021633 0.000000 0.000000
# 5 0.000000 0.000000 0.000000 0.000000 0.052765 0.000000
# 6 0.000000 0.000000 0.000000 0.000000 0.000000 0.070916
#
#
# Mechanical properties :
#
#
# Convention : Reuss Voigt Hill
#
# Bulk Modulus (GPa) = 21.46636 57.78428 39.62532
# Shear Modulus (GPa) = 18.29522 27.59288 22.94405
#
# Velocity S-wave (km/s) = 2.94273 3.61394 3.29547
# Velocity P-wave (km/s) = 4.65907 6.69067 5.76507
#
# Compressibility (1/GPa) = 0.04658452
#
# Stress axis : x y z
#
# Youngs Moduli (GPa) = 18.99570 58.38044 102.60239
#
# Poissons Ratio (x) = -0.00127 1.05256
# Poissons Ratio (y) = -0.00041 0.63926
# Poissons Ratio (z) = 0.19487 0.36373
#
# Static dielectric constant tensor:
#      x y z
#    x 1.805500 0.000000 0.000000 
#    y 0.000000 1.818360 0.000000 
#    z 0.000000 0.000000 1.814040 
# 
# From -- ./inp_files/8124.got.cif
#   From: 2010.05.17/outbox.cif.g08.bks.cpg/sg23_5_cif.got.tgz:8124.got - 2010.06.04 12:02:01.
