data_PCOD9330192
_publ_section_title
;
Structure prediction by ZEFSAII (Michael W. Deem and Ramdas Pophale) SiO2 
 PCOD9330192
Probable space group: I 2 2 2
;
_chemical_formula_sum "Si O2"
_cell_formula_units_Z 56
_cell_length_a 11.286245
_cell_length_b 7.032884
_cell_length_c 27.030648
_cell_angle_alpha 90.000000
_cell_angle_beta 90.000000
_cell_angle_gamma 90.000000
_cell_volume 2145.553681
_symmetry_space_group_name_H-M "I 2 2 2"
_symmetry_group_IT_number 23
_symmetry_cell_setting 'orthorhombic'
loop_
_space_group_symop_operation_xyz
x,y,z
-x,-y,z
x,-y,-z
-x,y,-z
1/2+x,1/2+y,1/2+z
1/2-x,1/2-y,1/2+z
1/2+x,1/2-y,1/2-z
1/2-x,1/2+y,1/2-z
loop_
_atom_site_type_symbol
_atom_site_label
_atom_site_fract_x
_atom_site_fract_y
_atom_site_fract_z
Si Si1 0.097633 0.718029 0.352405
Si Si2 0.987344 0.729791 0.094738
Si Si3 0.267611 0.252486 0.052911
Si Si4 0.982357 0.726885 0.208995
Si Si5 0.211749 0.285711 0.742320
Si Si6 0.268814 0.211902 0.445633
Si Si7 0.836155 0.835067 0.343183
O O1 0.135295 0.674582 0.408617
O O2 0.167744 0.613436 0.308161
O O3 0.959941 0.724317 0.339738
O O4 0.136322 0.940910 0.349901
O O5 0.861902 0.798651 0.074132
O O6 0.997319 0.788424 0.152074
O O7 0.000000 0.500000 0.097509
O O8 0.094013 0.771178 0.057322
O O9 0.255989 0.484044 0.052628
O O10 0.286035 0.205958 0.995480
O O11 0.846112 0.740816 0.225478
O O12 0.000000 0.500000 0.213194
O O13 0.086638 0.821089 0.242885
O O14 0.246305 0.345260 0.797701
O O15 0.222028 0.256337 0.391372
#
# Coordination Sequence:
#
# PCOD9330192 Si02
#       7
#     8   8   8   8   8   8   8
#     4  10  20  32  46  68  98 132 171 209 251 307
#     4   9  15  26  43  65  95 127 161 196 236 299
#     4   9  16  26  42  64  93 130 164 197 245 306
#     4  11  22  35  53  78 106 141 179 217 261 312
#     4  12  20  34  52  72 100 142 178 214 262 302
#     4   9  16  26  42  64  93 130 164 197 245 306
#     4  10  20  32  46  68  98 132 171 209 251 307
#
# _framework density 26.100490000000001
#
# number of rings (size 3 to 8) (size 9 to 14) (size 15 to 20)
#    0.000    2.000    4.286    1.286    0.000    2.286 
#    0.000    2.857    0.000    0.000    0.000    0.000 
#    0.000    5.714    0.000   14.000    0.000    1.143 
#
# Total GULP energy -156203.276559 kJ/mol
# GULP energy per Si atom -5578.688449 kJ/mol
# Density = 2.604108 g / cm^3
# Si number density = 26.100490 Si / 1000 Ang^3
#
#
#
# Elastic Constant Matrix: (Units=GPa)
#
#
# Indices 1 2 3 4 5 6 
#
# 1 142.8349 12.8447 66.2549 0.0000 0.0000 0.0000
# 2 12.8447 98.9407 8.2735 0.0000 0.0000 0.0000
# 3 66.2549 8.2735 234.1872 0.0000 0.0000 0.0000
# 4 0.0000 0.0000 0.0000 5.7876 0.0000 0.0000
# 5 0.0000 0.0000 0.0000 0.0000 41.5369 0.0000
# 6 0.0000 0.0000 0.0000 0.0000 0.0000 11.2211
#
#
#
# Elastic Compliance Matrix: (Units=1/GPa)
#
#
# Indices 1 2 3 4 5 6 
#
# 1 0.008132 -0.000866 -0.002270 0.000000 0.000000 0.000000
# 2 -0.000866 0.010229 -0.000116 0.000000 0.000000 0.000000
# 3 -0.002270 -0.000116 0.004916 0.000000 0.000000 0.000000
# 4 0.000000 0.000000 0.000000 0.172783 0.000000 0.000000
# 5 0.000000 0.000000 0.000000 0.000000 0.024075 0.000000
# 6 0.000000 0.000000 0.000000 0.000000 0.000000 0.089118
#
#
# Mechanical properties :
#
#
# Convention : Reuss Voigt Hill
#
# Bulk Modulus (GPa) = 59.62004 72.30102 65.96053
# Shear Modulus (GPa) = 15.55940 37.61510 26.58725
#
# Velocity S-wave (km/s) = 2.44423 3.80039 3.19509
# Velocity P-wave (km/s) = 5.55498 6.85700 6.24004
#
# Compressibility (1/GPa) = 0.01677288
#
# Stress axis : x y z
#
# Youngs Moduli (GPa) = 122.97202 97.75925 203.39959
#
# Poissons Ratio (x) = 0.08465 0.46173
# Poissons Ratio (y) = 0.10648 0.02368
# Poissons Ratio (z) = 0.27915 0.01138
#
# Static dielectric constant tensor:
#      x y z
#    x 2.029570 0.000000 0.000000 
#    y 0.000000 2.329670 0.000000 
#    z 0.000000 0.000000 2.010490 
# 
# From -- ./inp_files/28378.got.cif
#   From: 2010.05.17/outbox.cif.g08.bks.cpg/sg23_15_cif.got.tgz:28378.got - 2010.06.04 12:02:01.
