data_PCOD9330520
_publ_section_title
;
Structure prediction by ZEFSAII (Michael W. Deem and Ramdas Pophale) SiO2 
 PCOD9330520
Probable space group: I 2 2 2
;
_chemical_formula_sum "Si O2"
_cell_formula_units_Z 48
_cell_length_a 12.235825
_cell_length_b 17.945986
_cell_length_c 11.769510
_cell_angle_alpha 90.000000
_cell_angle_beta 90.000000
_cell_angle_gamma 90.000000
_cell_volume 2584.395426
_symmetry_space_group_name_H-M "I 2 2 2"
_symmetry_group_IT_number 23
_symmetry_cell_setting 'orthorhombic'
loop_
_space_group_symop_operation_xyz
x,y,z
-x,-y,z
x,-y,-z
-x,y,-z
1/2+x,1/2+y,1/2+z
1/2-x,1/2-y,1/2+z
1/2+x,1/2-y,1/2-z
1/2-x,1/2+y,1/2-z
loop_
_atom_site_type_symbol
_atom_site_label
_atom_site_fract_x
_atom_site_fract_y
_atom_site_fract_z
Si Si1 0.258081 0.500000 0.500000
Si Si2 0.125568 0.357561 0.516273
Si Si3 0.797352 0.208436 0.140983
Si Si4 0.651188 0.348433 0.119481
Si Si5 0.397243 0.542158 0.309336
Si Si6 0.898216 0.804850 0.622797
Si Si7 0.000000 0.152603 0.000000
O O1 0.187913 0.432265 0.550338
O O2 0.333856 0.483893 0.390746
O O3 0.192322 0.335939 0.403878
O O4 0.127254 0.281341 0.588969
O O5 0.000000 0.375670 0.500000
O O6 0.749647 0.291958 0.145681
O O7 0.836521 0.179928 0.261853
O O8 0.900264 0.198935 0.055807
O O9 0.661943 0.417056 0.205671
O O10 0.528646 0.314299 0.141174
O O11 0.642989 0.355424 0.982446
O O12 0.500000 0.500000 0.257399
O O13 0.443040 0.602537 0.401406
#
# Coordination Sequence:
#
# PCOD9330520 Si02
#       7
#     4   8   8   8   8   8   4
#     4  12  22  34  60  88 126 163 211 268 312 380
#     4  11  21  39  57  90 125 164 206 260 323 373
#     4  11  21  36  64  90 126 162 210 265 315 385
#     4  10  22  37  58  87 130 165 202 261 314 379
#     4  12  21  38  59  91 125 167 211 266 316 371
#     4  10  20  38  59  87 122 166 205 256 321 380
#     4  12  21  36  62  90 120 160 213 268 318 361
#
# _framework density 18.573008999999999
#
# number of rings (size 3 to 8) (size 9 to 14) (size 15 to 20)
#    0.000    1.000    8.333    1.250    2.333    0.000 
#    0.000    1.667    0.000    0.000    0.000    0.000 
#    0.000    2.667    0.000    0.000    0.000    0.000 
#
# Total GULP energy -133712.459030 kJ/mol
# GULP energy per Si atom -5571.352460 kJ/mol
# Density = 1.853074 g / cm^3
# Si number density = 18.573009 Si / 1000 Ang^3
#
#
#
# Elastic Constant Matrix: (Units=GPa)
#
#
# Indices 1 2 3 4 5 6 
#
# 1 97.7436 12.0409 44.5286 0.0000 0.0000 0.0000
# 2 12.0409 40.0349 14.8525 0.0001 0.0000 0.0000
# 3 44.5286 14.8525 101.6309 0.0002 0.0000 0.0000
# 4 0.0000 0.0001 0.0002 27.7472 0.0000 0.0000
# 5 0.0000 0.0000 0.0000 0.0000 24.4776 0.0000
# 6 0.0000 0.0000 0.0000 0.0000 0.0000 41.5879
#
#
#
# Elastic Compliance Matrix: (Units=1/GPa)
#
#
# Indices 1 2 3 4 5 6 
#
# 1 0.012916 -0.001887 -0.005383 0.000000 0.000000 0.000000
# 2 -0.001887 0.026686 -0.003073 0.000000 0.000000 0.000000
# 3 -0.005383 -0.003073 0.012647 0.000000 0.000000 0.000000
# 4 0.000000 0.000000 0.000000 0.036040 0.000000 0.000000
# 5 0.000000 0.000000 0.000000 0.000000 0.040854 0.000000
# 6 0.000000 0.000000 0.000000 0.000000 0.000000 0.024045
#
#
# Mechanical properties :
#
#
# Convention : Reuss Voigt Hill
#
# Bulk Modulus (GPa) = 31.68383 42.47259 37.07821
# Shear Modulus (GPa) = 27.11570 29.96171 28.53871
#
# Velocity S-wave (km/s) = 3.82508 4.02081 3.92416
# Velocity P-wave (km/s) = 6.05016 6.66884 6.36702
#
# Compressibility (1/GPa) = 0.03156184
#
# Stress axis : x y z
#
# Youngs Moduli (GPa) = 77.42520 37.47294 79.06925
#
# Poissons Ratio (x) = 0.07073 0.42563
# Poissons Ratio (y) = 0.14614 0.24298
# Poissons Ratio (z) = 0.41678 0.11515
#
# Static dielectric constant tensor:
#      x y z
#    x 1.648210 0.000000 0.000000 
#    y 0.000000 1.755940 0.000000 
#    z 0.000000 0.000000 1.656040 
# 
# From -- ./inp_files/15888.got.cif
#   From: 2010.05.17/outbox.cif.g08.bks.cpg/sg23_8_cif.got.tgz:15888.got - 2010.06.04 12:02:01.
