data_PCOD9330144
_publ_section_title
;
Structure prediction by ZEFSAII (Michael W. Deem and Ramdas Pophale) SiO2 
 PCOD9330144
Probable space group: I 2 2 2
;
_chemical_formula_sum "Si O2"
_cell_formula_units_Z 50
_cell_length_a 8.906835
_cell_length_b 18.007741
_cell_length_c 15.034400
_cell_angle_alpha 90.000000
_cell_angle_beta 90.000000
_cell_angle_gamma 90.000000
_cell_volume 2411.397151
_symmetry_space_group_name_H-M "I 2 2 2"
_symmetry_group_IT_number 23
_symmetry_cell_setting 'orthorhombic'
loop_
_space_group_symop_operation_xyz
x,y,z
-x,-y,z
x,-y,-z
-x,y,-z
1/2+x,1/2+y,1/2+z
1/2-x,1/2-y,1/2+z
1/2+x,1/2-y,1/2-z
1/2-x,1/2+y,1/2-z
loop_
_atom_site_type_symbol
_atom_site_label
_atom_site_fract_x
_atom_site_fract_y
_atom_site_fract_z
Si Si1 0.164976 0.117288 0.171881
Si Si2 0.324932 0.982153 0.097564
Si Si3 0.178464 0.762148 0.979296
Si Si4 0.324459 0.371859 0.296035
Si Si5 0.000000 0.500000 0.000000
Si Si6 0.126664 0.620508 0.869106
Si Si7 0.685395 0.795173 0.328034
O O1 0.211943 0.167796 0.085510
O O2 0.206074 0.160711 0.262290
O O3 0.988224 0.101115 0.175836
O O4 0.249778 0.039773 0.164710
O O5 0.284691 0.898600 0.124483
O O6 0.500000 0.000000 0.098398
O O7 0.264052 0.000000 0.000000
O O8 0.199336 0.689907 0.919061
O O9 0.241656 0.734048 0.074985
O O10 0.000000 0.771170 0.000000
O O11 0.236760 0.401363 0.210193
O O12 0.346691 0.284126 0.283228
O O13 0.095634 0.446261 0.063486
O O14 0.964591 0.654390 0.838378
#
# Coordination Sequence:
#
# PCOD9330144 Si02
#       7
#     8   8   8   8   2   8   8
#     4  12  24  41  69  99 139 180 225 296 355 414
#     4  11  27  45  64  96 135 179 230 287 359 431
#     4  10  19  40  66  96 132 178 233 270 341 424
#     4  12  23  41  67  99 137 175 230 291 353 419
#     4  12  24  44  76  98 138 198 238 288 348 440
#     4  11  23  41  70 100 133 183 241 281 341 421
#     4  11  21  41  69  98 133 184 230 287 339 426
#
# _framework density 20.734866
#
# number of rings (size 3 to 8) (size 9 to 14) (size 15 to 20)
#    0.000    0.800    7.200    2.400    3.360    0.640 
#    0.000    0.800    0.000    0.960    0.000    0.000 
#    0.000    0.000    0.000    0.000    0.000    0.000 
#
# Total GULP energy -139397.708139 kJ/mol
# GULP energy per Si atom -5575.908326 kJ/mol
# Density = 2.068767 g / cm^3
# Si number density = 20.734866 Si / 1000 Ang^3
#
#
#
# Elastic Constant Matrix: (Units=GPa)
#
#
# Indices 1 2 3 4 5 6 
#
# 1 52.9299 22.0424 26.9990 0.0000 0.0000 0.0000
# 2 22.0424 99.9570 24.6172 0.0000 0.0000 0.0000
# 3 26.9990 24.6172 119.6971 0.0000 0.0000 0.0000
# 4 0.0000 0.0000 0.0000 38.6057 0.0000 0.0000
# 5 0.0000 0.0000 0.0000 0.0000 23.1726 0.0000
# 6 0.0000 0.0000 0.0000 0.0000 0.0000 13.6562
#
#
#
# Elastic Compliance Matrix: (Units=1/GPa)
#
#
# Indices 1 2 3 4 5 6 
#
# 1 0.022740 -0.003952 -0.004317 0.000000 0.000000 0.000000
# 2 -0.003952 0.011225 -0.001417 0.000000 0.000000 0.000000
# 3 -0.004317 -0.001417 0.009620 0.000000 0.000000 0.000000
# 4 0.000000 0.000000 0.000000 0.025903 0.000000 0.000000
# 5 0.000000 0.000000 0.000000 0.000000 0.043154 0.000000
# 6 0.000000 0.000000 0.000000 0.000000 0.000000 0.073227
#
#
# Mechanical properties :
#
#
# Convention : Reuss Voigt Hill
#
# Bulk Modulus (GPa) = 41.29869 46.65569 43.97719
# Shear Modulus (GPa) = 23.43998 28.34859 25.89428
#
# Velocity S-wave (km/s) = 3.36588 3.70157 3.53771
# Velocity P-wave (km/s) = 5.92168 6.38896 6.15975
#
# Compressibility (1/GPa) = 0.02421384
#
# Stress axis : x y z
#
# Youngs Moduli (GPa) = 43.97457 89.08904 103.95492
#
# Poissons Ratio (x) = 0.35204 0.44874
# Poissons Ratio (y) = 0.17377 0.14732
# Poissons Ratio (z) = 0.18982 0.12626
#
# Static dielectric constant tensor:
#      x y z
#    x 1.740360 0.000000 0.000000 
#    y 0.000000 1.768040 0.000000 
#    z 0.000000 0.000000 1.832580 
# 
# From -- ./inp_files/20036.got.cif
#   From: 2010.05.17/outbox.cif.g08.bks.cpg/sg23_11_cif.got.tgz:20036.got - 2010.06.04 12:02:01.
