data_PCOD9330768
_publ_section_title
;
Structure prediction by ZEFSAII (Michael W. Deem and Ramdas Pophale) SiO2 
 PCOD9330768
Probable space group: I 2 2 2
;
_chemical_formula_sum "Si O2"
_cell_formula_units_Z 40
_cell_length_a 9.359986
_cell_length_b 25.099843
_cell_length_c 8.318180
_cell_angle_alpha 90.000000
_cell_angle_beta 90.000000
_cell_angle_gamma 90.000000
_cell_volume 1954.224790
_symmetry_space_group_name_H-M "I 2 2 2"
_symmetry_group_IT_number 23
_symmetry_cell_setting 'orthorhombic'
loop_
_space_group_symop_operation_xyz
x,y,z
-x,-y,z
x,-y,-z
-x,y,-z
1/2+x,1/2+y,1/2+z
1/2-x,1/2-y,1/2+z
1/2+x,1/2-y,1/2-z
1/2-x,1/2+y,1/2-z
loop_
_atom_site_type_symbol
_atom_site_label
_atom_site_fract_x
_atom_site_fract_y
_atom_site_fract_z
Si Si1 0.912289 0.854888 0.838988
Si Si2 0.500000 0.685492 0.000000
Si Si3 0.500000 0.000000 0.000000
Si Si4 0.227634 0.249570 0.349902
Si Si5 0.500000 0.000000 0.500000
Si Si6 0.637022 0.923267 0.756957
Si Si7 0.016284 0.317357 0.809439
O O1 0.831723 0.799277 0.884840
O O2 0.791059 0.896828 0.783077
O O3 0.998723 0.844657 0.671657
O O4 0.000000 0.870294 0.000000
O O5 0.356808 0.721345 0.003895
O O6 0.601565 0.962740 0.898458
O O7 0.326198 0.203746 0.274384
O O8 0.098571 0.273986 0.247699
O O9 0.399221 0.040197 0.602079
O O10 0.526224 0.873898 0.762389
O O11 0.000000 0.322438 0.000000
#
# Coordination Sequence:
#
# PCOD9330768 Si02
#       7
#     8   4   2   8   2   8   8
#     4  11  26  45  68 105 150 194 235 295 358 438
#     4  12  26  39  66  99 148 199 243 266 358 434
#     4  10  24  48  70 102 128 174 246 316 372 420
#     4  11  23  39  60 102 147 192 230 278 343 434
#     4  10  20  46  80 100 132 178 256 324 344 452
#     4  10  23  45  74 104 133 184 240 308 370 417
#     4  11  22  39  65 100 140 185 230 282 349 430
#
# _framework density 20.468475000000002
#
# number of rings (size 3 to 8) (size 9 to 14) (size 15 to 20)
#    0.000    1.200    3.000    3.000    2.800    4.800 
#    3.600    0.500    0.000    0.000    0.000    0.000 
#    0.000    0.000    0.000    0.000    0.000    0.000 
#
# Total GULP energy -111653.259889 kJ/mol
# GULP energy per Si atom -5582.662994 kJ/mol
# Density = 2.042189 g / cm^3
# Si number density = 20.468475 Si / 1000 Ang^3
#
#
#
# Elastic Constant Matrix: (Units=GPa)
#
#
# Indices 1 2 3 4 5 6 
#
# 1 112.1442 63.4896 39.6362 -0.0017 -0.0120 0.0003
# 2 63.4896 129.5207 54.6527 0.0024 0.0006 -0.0001
# 3 39.6362 54.6527 123.8690 -0.0147 -0.0005 0.0015
# 4 -0.0017 0.0024 -0.0147 -43.8952 0.1138 -0.0001
# 5 -0.0120 0.0006 -0.0005 0.1138 -797.9877 -0.0120
# 6 0.0003 -0.0001 0.0015 -0.0001 -0.0120 26.7133
#
#
#
# Elastic Compliance Matrix: (Units=1/GPa)
#
#
# Indices 1 2 3 4 5 6 
#
# 1 0.012597 -0.005497 -0.001605 0.000000 0.000000 0.000000
# 2 -0.005497 0.011886 -0.003485 0.000002 0.000000 0.000000
# 3 -0.001605 -0.003485 0.010124 -0.000004 0.000000 -0.000001
# 4 0.000000 0.000002 -0.000004 -0.022782 -0.000003 0.000000
# 5 0.000000 0.000000 0.000000 -0.000003 -0.001253 -0.000001
# 6 0.000000 0.000000 -0.000001 0.000000 -0.000001 0.037435
#
#
# Mechanical properties :
#
#
# Convention : Reuss Voigt Hill
#
# Bulk Modulus (GPa) = 74.45161 75.67680 75.06420
# Shear Modulus (GPa) = 67.87907 -149.18359 -40.65226
#
# Velocity S-wave (km/s) = 5.76496 -8.54651 -4.46139
# Velocity P-wave (km/s) = 8.98698 7.76774 3.19593
#
# Compressibility (1/GPa) = 0.01343154
#
# Stress axis : x y z
#
# Youngs Moduli (GPa) = 79.38529 84.13113 98.77098
#
# Poissons Ratio (x) = 0.46251 0.15855
# Poissons Ratio (y) = 0.43642 0.34424
# Poissons Ratio (z) = 0.12743 0.29322
#
# Static dielectric constant tensor:
#      x y z
#    x 1.953190 -0.000150 -0.000020 
#    y -0.000150 2.094740 -0.000010 
#    z -0.000020 -0.000010 1.825590 
# 
# From -- ./inp_files/7152.got.cif
#   From: 2010.05.17/outbox.cif.g08.bks.cpg/sg23_4_cif.got.tgz:7152.got - 2010.06.04 12:02:01.
