data_PCOD9330793
_publ_section_title
;
Structure prediction by ZEFSAII (Michael W. Deem and Ramdas Pophale) SiO2 
 PCOD9330793
Probable space group: I 2 2 2
;
_chemical_formula_sum "Si O2"
_cell_formula_units_Z 58
_cell_length_a 28.650131
_cell_length_b 5.223668
_cell_length_c 15.455192
_cell_angle_alpha 90.000000
_cell_angle_beta 90.000000
_cell_angle_gamma 90.000000
_cell_volume 2313.005063
_symmetry_space_group_name_H-M "I 2 2 2"
_symmetry_group_IT_number 23
_symmetry_cell_setting 'orthorhombic'
loop_
_space_group_symop_operation_xyz
x,y,z
-x,-y,z
x,-y,-z
-x,y,-z
1/2+x,1/2+y,1/2+z
1/2-x,1/2-y,1/2+z
1/2+x,1/2-y,1/2-z
1/2-x,1/2+y,1/2-z
loop_
_atom_site_type_symbol
_atom_site_label
_atom_site_fract_x
_atom_site_fract_y
_atom_site_fract_z
Si Si1 0.413408 0.672666 0.603935
Si Si2 0.000000 0.000000 0.000000
Si Si3 0.213424 0.942682 0.658240
Si Si4 0.050319 0.605436 0.404417
Si Si5 0.737318 0.563464 0.635694
Si Si6 0.372751 0.134653 0.801862
Si Si7 0.145500 0.653492 0.889256
Si Si8 0.551265 0.474270 0.772916
O O1 0.463158 0.668721 0.555574
O O2 0.391320 0.387256 0.597355
O O3 0.423573 0.716304 0.706139
O O4 0.376136 0.887020 0.576476
O O5 0.246812 0.725686 0.615029
O O6 0.224766 0.952618 0.761578
O O7 0.161405 0.834713 0.651607
O O8 0.221220 0.230103 0.625871
O O9 0.049552 0.500000 0.500000
O O10 0.102518 0.548757 0.368954
O O11 0.047824 0.896849 0.373018
O O12 0.000000 0.500000 0.365745
O O13 0.693942 0.703195 0.588717
O O14 0.346468 0.070301 0.712625
O O15 0.419048 0.274767 0.768023
O O16 0.500000 0.500000 0.737594
#
# Coordination Sequence:
#
# PCOD9330793 Si02
#       8
#     8   2   8   8   8   8   8   8
#     4  11  24  40  65  94 129 169 217 266 329 386
#     4  12  28  46  64 106 140 172 220 290 332 394
#     4   9  18  29  53  87 125 156 196 272 324 369
#     4  11  23  38  57  85 121 163 213 263 311 380
#     4   9  17  32  53  88 123 154 207 263 323 377
#     4  10  21  34  57  88 122 166 212 264 323 386
#     4  10  21  38  64  92 126 173 214 263 324 400
#     4  11  21  39  60  85 124 173 217 267 318 398
#
# _framework density 25.075604999999999
#
# number of rings (size 3 to 8) (size 9 to 14) (size 15 to 20)
#    0.000    1.793    3.448    0.828    1.931    5.517 
#    0.000    0.000    0.000    0.000   10.759    0.000 
#    0.000    0.000    0.000    0.000    0.000    0.000 
#
# Total GULP energy -161549.053270 kJ/mol
# GULP energy per Si atom -5570.657009 kJ/mol
# Density = 2.501853 g / cm^3
# Si number density = 25.075605 Si / 1000 Ang^3
#
#
#
# Elastic Constant Matrix: (Units=GPa)
#
#
# Indices 1 2 3 4 5 6 
#
# 1 57.9648 -18.8981 -8.1935 0.0000 0.0000 0.0000
# 2 -18.8981 83.9289 10.9471 0.0000 0.0000 0.0000
# 3 -8.1935 10.9471 61.9796 0.0000 0.0000 0.0000
# 4 0.0000 0.0000 0.0000 7.9435 0.0000 0.0000
# 5 0.0000 0.0000 0.0000 0.0000 21.8778 0.0000
# 6 0.0000 0.0000 0.0000 0.0000 0.0000 38.0826
#
#
#
# Elastic Compliance Matrix: (Units=1/GPa)
#
#
# Indices 1 2 3 4 5 6 
#
# 1 0.018808 0.004003 0.001779 0.000000 0.000000 0.000000
# 2 0.004003 0.013048 -0.001775 0.000000 0.000000 0.000000
# 3 0.001779 -0.001775 0.016683 0.000000 0.000000 0.000000
# 4 0.000000 0.000000 0.000000 0.125890 0.000000 0.000000
# 5 0.000000 0.000000 0.000000 0.000000 0.045708 0.000000
# 6 0.000000 0.000000 0.000000 0.000000 0.000000 0.026259
#
#
# Mechanical properties :
#
#
# Convention : Reuss Voigt Hill
#
# Bulk Modulus (GPa) = 17.68245 19.06495 18.37370
# Shear Modulus (GPa) = 19.43761 28.24864 23.84312
#
# Velocity S-wave (km/s) = 2.78719 3.36004 3.08693
# Velocity P-wave (km/s) = 4.17431 4.76158 4.47758
#
# Compressibility (1/GPa) = 0.05655327
#
# Stress axis : x y z
#
# Youngs Moduli (GPa) = 53.16760 76.64156 59.94076
#
# Poissons Ratio (x) = -0.30679 -0.10666
# Poissons Ratio (y) = -0.21283 0.10642
# Poissons Ratio (z) = -0.09461 0.13607
#
# Static dielectric constant tensor:
#      x y z
#    x 2.055340 0.000000 0.000000 
#    y 0.000000 2.004600 0.000000 
#    z 0.000000 0.000000 2.357750 
# 
# From -- ./inp_files/25435.got.cif
#   From: 2010.05.17/outbox.cif.g08.bks.cpg/sg23_13_cif.got.tgz:25435.got - 2010.06.04 12:02:01.
