data_PCOD9330892
_publ_section_title
;
Structure prediction by ZEFSAII (Michael W. Deem and Ramdas Pophale) SiO2 
 PCOD9330892
Probable space group: I 2 2 2
;
_chemical_formula_sum "Si O2"
_cell_formula_units_Z 32
_cell_length_a 4.945164
_cell_length_b 16.941983
_cell_length_c 18.075606
_cell_angle_alpha 90.000000
_cell_angle_beta 90.000000
_cell_angle_gamma 90.000000
_cell_volume 1514.390257
_symmetry_space_group_name_H-M "I 2 2 2"
_symmetry_group_IT_number 23
_symmetry_cell_setting 'orthorhombic'
loop_
_space_group_symop_operation_xyz
x,y,z
-x,-y,z
x,-y,-z
-x,y,-z
1/2+x,1/2+y,1/2+z
1/2-x,1/2-y,1/2+z
1/2+x,1/2-y,1/2-z
1/2-x,1/2+y,1/2-z
loop_
_atom_site_type_symbol
_atom_site_label
_atom_site_fract_x
_atom_site_fract_y
_atom_site_fract_z
Si Si1 0.745861 0.229793 0.550349
Si Si2 0.760415 0.945232 0.397236
Si Si3 0.259258 0.444608 0.726925
Si Si4 0.493640 0.779195 0.206505
O O1 0.500000 0.260594 0.500000
O O2 0.712824 0.135816 0.561154
O O3 0.827808 0.259996 0.631878
O O4 0.000000 0.245318 0.500000
O O5 0.832691 0.924436 0.311979
O O6 0.500000 0.000000 0.398242
O O7 0.000000 0.000000 0.424367
O O8 0.500000 0.500000 0.695573
O O9 0.000000 0.500000 0.728358
O O10 0.151713 0.361975 0.695110
O O11 0.747969 0.722817 0.232089
#
# Coordination Sequence:
#
# PCOD9330892 Si02
#       4
#     8   8   8   8
#     4  12  26  41  61  97 141 183 230 282 346 413
#     4  10  21  37  59  89 132 179 221 265 326 410
#     4  10  21  38  64  97 131 168 231 296 339 396
#     4  12  24  42  70  97 133 189 241 291 343 410
#
# _framework density 21.130618999999999
#
# number of rings (size 3 to 8) (size 9 to 14) (size 15 to 20)
#    0.000    1.000    2.500    4.500    7.000    3.000 
#    0.000    0.000    0.000    0.750    0.000    3.500 
#    0.000    0.000    0.000    0.000    0.000    0.000 
#
# Total GULP energy -89259.397751 kJ/mol
# GULP energy per Si atom -5578.712359 kJ/mol
# Density = 2.108252 g / cm^3
# Si number density = 21.130619 Si / 1000 Ang^3
#
#
#
# Elastic Constant Matrix: (Units=GPa)
#
#
# Indices 1 2 3 4 5 6 
#
# 1 147.2446 61.1914 47.1812 0.0000 0.0000 0.0000
# 2 61.1914 97.5262 39.3650 0.0000 0.0000 0.0000
# 3 47.1812 39.3650 99.3337 0.0000 0.0000 0.0000
# 4 0.0000 0.0000 0.0000 17.0142 0.0000 0.0000
# 5 0.0000 0.0000 0.0000 0.0000 44.1443 0.0000
# 6 0.0000 0.0000 0.0000 0.0000 0.0000 44.1791
#
#
#
# Elastic Compliance Matrix: (Units=1/GPa)
#
#
# Indices 1 2 3 4 5 6 
#
# 1 0.009728 -0.005046 -0.002621 0.000000 0.000000 0.000000
# 2 -0.005046 0.014823 -0.003478 0.000000 0.000000 0.000000
# 3 -0.002621 -0.003478 0.012690 0.000000 0.000000 0.000000
# 4 0.000000 0.000000 0.000000 0.058774 0.000000 0.000000
# 5 0.000000 0.000000 0.000000 0.000000 0.022653 0.000000
# 6 0.000000 0.000000 0.000000 0.000000 0.000000 0.022635
#
#
# Mechanical properties :
#
#
# Convention : Reuss Voigt Hill
#
# Bulk Modulus (GPa) = 66.87830 71.06444 68.97137
# Shear Modulus (GPa) = 29.65992 34.15865 31.90929
#
# Velocity S-wave (km/s) = 3.75059 4.02499 3.89021
# Velocity P-wave (km/s) = 7.10455 7.43672 7.27253
#
# Compressibility (1/GPa) = 0.01495253
#
# Stress axis : x y z
#
# Youngs Moduli (GPa) = 102.79372 67.46127 78.80109
#
# Poissons Ratio (x) = 0.34040 0.20654
# Poissons Ratio (y) = 0.51868 0.27404
# Poissons Ratio (z) = 0.26943 0.23461
#
# Static dielectric constant tensor:
#      x y z
#    x 1.735980 0.000000 0.000000 
#    y 0.000000 1.797270 0.000000 
#    z 0.000000 0.000000 1.780470 
# 
# From -- ./inp_files/2100.got.cif
#   From: 2010.05.17/outbox.cif.g08.bks.cpg/sg23_2_cif.got.tgz:2100.got - 2010.06.04 12:02:01.
