data_PCOD9330253
_publ_section_title
;
Structure prediction by ZEFSAII (Michael W. Deem and Ramdas Pophale) SiO2 
 PCOD9330253
Probable space group: I 2 2 2
;
_chemical_formula_sum "Si O2"
_cell_formula_units_Z 44
_cell_length_a 5.061224
_cell_length_b 17.899180
_cell_length_c 21.156575
_cell_angle_alpha 90.000000
_cell_angle_beta 90.000000
_cell_angle_gamma 90.000000
_cell_volume 1916.611352
_symmetry_space_group_name_H-M "I 2 2 2"
_symmetry_group_IT_number 23
_symmetry_cell_setting 'orthorhombic'
loop_
_space_group_symop_operation_xyz
x,y,z
-x,-y,z
x,-y,-z
-x,y,-z
1/2+x,1/2+y,1/2+z
1/2-x,1/2-y,1/2+z
1/2+x,1/2-y,1/2-z
1/2-x,1/2+y,1/2-z
loop_
_atom_site_type_symbol
_atom_site_label
_atom_site_fract_x
_atom_site_fract_y
_atom_site_fract_z
Si Si1 0.700460 0.057384 0.261379
Si Si2 0.000000 0.000000 0.859047
Si Si3 0.466569 0.660462 0.613069
Si Si4 0.554200 0.352259 0.154782
Si Si5 0.052010 0.677534 0.929480
Si Si6 0.034874 0.310298 0.691194
O O1 0.955694 0.080395 0.301514
O O2 0.549255 0.135160 0.247059
O O3 0.500000 0.000000 0.293002
O O4 0.777423 0.022354 0.192967
O O5 0.966038 0.074238 0.900979
O O6 0.526719 0.731721 0.570062
O O7 0.663940 0.676304 0.671896
O O8 0.161133 0.666400 0.633410
O O9 0.831606 0.352609 0.119110
O O10 0.530860 0.276683 0.196752
O O11 0.334397 0.342566 0.099673
O O12 0.000000 0.649655 0.000000
#
# Coordination Sequence:
#
# PCOD9330253 Si02
#       6
#     8   4   8   8   8   8
#     4  11  22  35  58  89 134 170 194 240 313 384
#     4  10  20  34  53  84 131 164 192 226 308 388
#     4   9  18  33  55  81 114 157 203 243 297 365
#     4  10  23  36  61  90 119 158 212 254 304 373
#     4  10  21  41  62  84 113 157 213 276 307 338
#     4   9  19  35  51  81 120 162 200 237 294 368
#
# _framework density 22.957182
#
# number of rings (size 3 to 8) (size 9 to 14) (size 15 to 20)
#    0.000    2.182    1.818    0.545    2.545    7.273 
#    0.000    0.455    0.000    0.545    0.000    7.636 
#    0.000    0.000    0.000    0.000    0.000    0.000 
#
# Total GULP energy -122894.477558 kJ/mol
# GULP energy per Si atom -5586.112616 kJ/mol
# Density = 2.290493 g / cm^3
# Si number density = 22.957182 Si / 1000 Ang^3
#
#
#
# Elastic Constant Matrix: (Units=GPa)
#
#
# Indices 1 2 3 4 5 6 
#
# 1 80.8067 3.1899 18.9478 0.0000 0.0000 0.0000
# 2 3.1899 90.1398 -5.6142 0.0000 0.0000 0.0000
# 3 18.9478 -5.6142 57.4537 0.0000 0.0000 0.0000
# 4 0.0000 0.0000 0.0000 12.7623 0.0000 0.0000
# 5 0.0000 0.0000 0.0000 0.0000 9.5197 0.0000
# 6 0.0000 0.0000 0.0000 0.0000 0.0000 36.7302
#
#
#
# Elastic Compliance Matrix: (Units=1/GPa)
#
#
# Indices 1 2 3 4 5 6 
#
# 1 0.013464 -0.000758 -0.004514 0.000000 0.000000 0.000000
# 2 -0.000758 0.011204 0.001345 0.000000 0.000000 0.000000
# 3 -0.004514 0.001345 0.019025 0.000000 0.000000 0.000000
# 4 0.000000 0.000000 0.000000 0.078356 0.000000 0.000000
# 5 0.000000 0.000000 0.000000 0.000000 0.105045 0.000000
# 6 0.000000 0.000000 0.000000 0.000000 0.000000 0.027226
#
#
# Mechanical properties :
#
#
# Convention : Reuss Voigt Hill
#
# Bulk Modulus (GPa) = 27.90234 29.04969 28.47601
# Shear Modulus (GPa) = 18.24012 25.92755 22.08383
#
# Velocity S-wave (km/s) = 2.82179 3.36428 3.10491
# Velocity P-wave (km/s) = 4.77464 5.26996 5.02840
#
# Compressibility (1/GPa) = 0.03583929
#
# Stress axis : x y z
#
# Youngs Moduli (GPa) = 74.27419 89.25027 52.56112
#
# Poissons Ratio (x) = 0.06762 0.23727
# Poissons Ratio (y) = 0.05627 -0.07068
# Poissons Ratio (z) = 0.33529 -0.12002
#
# Static dielectric constant tensor:
#      x y z
#    x 1.888970 0.000000 0.000000 
#    y 0.000000 1.924920 0.000000 
#    z 0.000000 0.000000 1.806990 
# 
# From -- ./inp_files/27643.got.cif
#   From: 2010.05.17/outbox.cif.g08.bks.cpg/sg23_14_cif.got.tgz:27643.got - 2010.06.04 12:02:01.
