data_PCOD9330261
_publ_section_title
;
Structure prediction by ZEFSAII (Michael W. Deem and Ramdas Pophale) SiO2 
 PCOD9330261
Probable space group: I 2 2 2
;
_chemical_formula_sum "Si O2"
_cell_formula_units_Z 56
_cell_length_a 14.626850
_cell_length_b 15.695236
_cell_length_c 11.091939
_cell_angle_alpha 90.000000
_cell_angle_beta 90.000000
_cell_angle_gamma 90.000000
_cell_volume 2546.397097
_symmetry_space_group_name_H-M "I 2 2 2"
_symmetry_group_IT_number 23
_symmetry_cell_setting 'orthorhombic'
loop_
_space_group_symop_operation_xyz
x,y,z
-x,-y,z
x,-y,-z
-x,y,-z
1/2+x,1/2+y,1/2+z
1/2-x,1/2-y,1/2+z
1/2+x,1/2-y,1/2-z
1/2-x,1/2+y,1/2-z
loop_
_atom_site_type_symbol
_atom_site_label
_atom_site_fract_x
_atom_site_fract_y
_atom_site_fract_z
Si Si1 0.652195 0.576349 0.085557
Si Si2 0.203445 0.448579 0.617220
Si Si3 0.697673 0.754432 0.133473
Si Si4 0.862700 0.525578 0.136536
Si Si5 0.411597 0.276406 0.373290
Si Si6 0.598934 0.206572 0.371831
Si Si7 0.900583 0.962441 0.848166
O O1 0.657442 0.676712 0.051894
O O2 0.758073 0.555699 0.114408
O O3 0.597896 0.566544 0.209051
O O4 0.620636 0.500000 0.000000
O O5 0.169837 0.500000 0.500000
O O6 0.194879 0.349407 0.585029
O O7 0.149424 0.467515 0.743684
O O8 0.310283 0.478968 0.636007
O O9 0.644821 0.749724 0.258597
O O10 0.802215 0.735363 0.168878
O O11 0.919538 0.610372 0.168917
O O12 0.892451 0.500000 0.000000
O O13 0.518011 0.269994 0.339564
O O14 0.395828 0.211504 0.482511
O O15 0.387826 0.371884 0.415345
O O16 0.000000 0.000000 0.875583
#
# Coordination Sequence:
#
# PCOD9330261 Si02
#       7
#     8   8   8   8   8   8   8
#     4   8  17  34  56  83 114 155 207 254 306 373
#     4  11  22  36  57  88 122 164 206 251 318 385
#     4  10  20  36  60  87 124 163 202 259 319 375
#     4   9  18  36  60  84 114 155 206 258 305 361
#     4  10  21  38  60  92 120 154 216 267 314 378
#     4  10  20  37  62  89 119 160 207 264 315 370
#     4  10  20  34  54  85 123 156 197 259 321 382
#
# _framework density 21.991857
#
# number of rings (size 3 to 8) (size 9 to 14) (size 15 to 20)
#    0.000    2.286    0.000    3.429    0.000    2.857 
#    0.000    6.429    0.000    9.429    0.000    0.000 
#    0.000    0.000    0.000    0.000    0.000    0.000 
#
# Total GULP energy -156090.384564 kJ/mol
# GULP energy per Si atom -5574.656592 kJ/mol
# Density = 2.194180 g / cm^3
# Si number density = 21.991857 Si / 1000 Ang^3
#
#
#
# Elastic Constant Matrix: (Units=GPa)
#
#
# Indices 1 2 3 4 5 6 
#
# 1 63.8808 18.4626 38.1391 0.0000 0.0000 0.0000
# 2 18.4626 173.6023 46.5537 0.0000 0.0000 0.0000
# 3 38.1391 46.5537 76.1985 0.0000 0.0000 0.0000
# 4 0.0000 0.0000 0.0000 29.7502 0.0000 0.0000
# 5 0.0000 0.0000 0.0000 0.0000 13.9587 0.0000
# 6 0.0000 0.0000 0.0000 0.0000 0.0000 17.2144
#
#
#
# Elastic Compliance Matrix: (Units=1/GPa)
#
#
# Indices 1 2 3 4 5 6 
#
# 1 0.022406 0.000747 -0.011671 0.000000 0.000000 0.000000
# 2 0.000747 0.006914 -0.004598 0.000000 0.000000 0.000000
# 3 -0.011671 -0.004598 0.021774 0.000000 0.000000 0.000000
# 4 0.000000 0.000000 0.000000 0.033613 0.000000 0.000000
# 5 0.000000 0.000000 0.000000 0.000000 0.071640 0.000000
# 6 0.000000 0.000000 0.000000 0.000000 0.000000 0.058091
#
#
# Mechanical properties :
#
#
# Convention : Reuss Voigt Hill
#
# Bulk Modulus (GPa) = 49.87471 57.77695 53.82583
# Shear Modulus (GPa) = 19.82815 26.21974 23.02395
#
# Velocity S-wave (km/s) = 3.00595 3.45664 3.23914
# Velocity P-wave (km/s) = 5.89708 6.50078 6.20628
#
# Compressibility (1/GPa) = 0.02005024
#
# Stress axis : x y z
#
# Youngs Moduli (GPa) = 44.62997 144.63744 45.92536
#
# Poissons Ratio (x) = -0.10803 0.53601
# Poissons Ratio (y) = -0.03333 0.21116
# Poissons Ratio (z) = 0.52089 0.66502
#
# Static dielectric constant tensor:
#      x y z
#    x 1.741230 0.000000 0.000000 
#    y 0.000000 1.905460 0.000000 
#    z 0.000000 0.000000 1.846880 
# 
# From -- ./inp_files/16770.got.cif
#   From: 2010.05.17/outbox.cif.g08.bks.cpg/sg23_9_cif.got.tgz:16770.got - 2010.06.04 12:02:01.
