data_PCOD9330401
_publ_section_title
;
Structure prediction by ZEFSAII (Michael W. Deem and Ramdas Pophale) SiO2 
 PCOD9330401
Probable space group: I 2 2 2
;
_chemical_formula_sum "Si O2"
_cell_formula_units_Z 64
_cell_length_a 24.788176
_cell_length_b 13.822868
_cell_length_c 8.780823
_cell_angle_alpha 90.000000
_cell_angle_beta 90.000000
_cell_angle_gamma 90.000000
_cell_volume 3008.693548
_symmetry_space_group_name_H-M "I 2 2 2"
_symmetry_group_IT_number 23
_symmetry_cell_setting 'orthorhombic'
loop_
_space_group_symop_operation_xyz
x,y,z
-x,-y,z
x,-y,-z
-x,y,-z
1/2+x,1/2+y,1/2+z
1/2-x,1/2-y,1/2+z
1/2+x,1/2-y,1/2-z
1/2-x,1/2+y,1/2-z
loop_
_atom_site_type_symbol
_atom_site_label
_atom_site_fract_x
_atom_site_fract_y
_atom_site_fract_z
Si Si1 0.640563 0.191911 0.961937
Si Si2 0.642376 0.597700 0.546269
Si Si3 0.164009 0.906548 0.591479
Si Si4 0.750248 0.352458 0.609183
Si Si5 0.391452 0.185790 0.525671
Si Si6 0.566034 0.110110 0.754824
Si Si7 0.271977 0.858181 0.471437
Si Si8 0.443063 0.883652 0.181945
O O1 0.648045 0.304295 0.009062
O O2 0.691578 0.132827 0.027923
O O3 0.585931 0.145367 0.027317
O O4 0.622538 0.169628 0.790066
O O5 0.611335 0.500000 0.500000
O O6 0.650829 0.599189 0.729550
O O7 0.698860 0.590812 0.452607
O O8 0.617059 0.699938 0.496345
O O9 0.229005 0.915229 0.573258
O O10 0.141431 0.000000 0.500000
O O11 0.735806 0.246847 0.545783
O O12 0.755750 0.356971 0.791997
O O13 0.435463 0.132434 0.424768
O O14 0.335390 0.125598 0.521121
O O15 0.411690 0.180700 0.697593
O O16 0.506235 0.136785 0.813212
O O17 0.569653 0.995907 0.786319
#
# Coordination Sequence:
#
# PCOD9330401 Si02
#       8
#     8   8   8   8   8   8   8   8
#     4  11  22  41  65  92 129 165 207 257 314 375
#     4  11  24  40  64  93 131 168 210 255 308 378
#     4  11  24  40  64  93 131 168 210 255 308 378
#     4  10  20  36  59  88 128 164 207 251 298 363
#     4  11  22  41  65  92 129 165 207 257 314 375
#     4  11  26  36  72  91 121 163 208 266 316 385
#     4  10  20  36  59  88 128 164 207 251 298 363
#     4  11  22  48  58  95 123 159 212 262 326 365
#
# _framework density 21.271692000000002
#
# number of rings (size 3 to 8) (size 9 to 14) (size 15 to 20)
#    0.000    1.250    2.500    4.500   10.500    4.000 
#    0.000    0.000    0.000    4.500    0.000    0.000 
#    0.000    0.000    0.000    0.000    0.000    0.000 
#
# Total GULP energy -178309.588206 kJ/mol
# GULP energy per Si atom -5572.174631 kJ/mol
# Density = 2.122328 g / cm^3
# Si number density = 21.271692 Si / 1000 Ang^3
#
#
#
# Elastic Constant Matrix: (Units=GPa)
#
#
# Indices 1 2 3 4 5 6 
#
# 1 83.5795 12.1261 5.8911 0.0000 0.0000 0.0000
# 2 12.1261 77.5575 -2.2936 0.0000 0.0000 0.0000
# 3 5.8911 -2.2936 49.7173 0.0000 0.0000 0.0000
# 4 0.0000 0.0000 0.0000 30.3821 0.0000 0.0000
# 5 0.0000 0.0000 0.0000 0.0000 43.9798 0.0000
# 6 0.0000 0.0000 0.0000 0.0000 0.0000 17.6453
#
#
#
# Elastic Compliance Matrix: (Units=1/GPa)
#
#
# Indices 1 2 3 4 5 6 
#
# 1 0.012361 -0.001979 -0.001556 0.000000 0.000000 0.000000
# 2 -0.001979 0.013228 0.000845 0.000000 0.000000 0.000000
# 3 -0.001556 0.000845 0.020337 0.000000 0.000000 0.000000
# 4 0.000000 0.000000 0.000000 0.032914 0.000000 0.000000
# 5 0.000000 0.000000 0.000000 0.000000 0.022738 0.000000
# 6 0.000000 0.000000 0.000000 0.000000 0.000000 0.056672
#
#
# Mechanical properties :
#
#
# Convention : Reuss Voigt Hill
#
# Bulk Modulus (GPa) = 24.66307 26.92239 25.79273
# Shear Modulus (GPa) = 28.22530 31.41017 29.81774
#
# Velocity S-wave (km/s) = 3.64661 3.84685 3.74807
# Velocity P-wave (km/s) = 5.41755 5.69341 5.55719
#
# Compressibility (1/GPa) = 0.04054644
#
# Stress axis : x y z
#
# Youngs Moduli (GPa) = 80.89684 75.59711 49.17129
#
# Poissons Ratio (x) = 0.14959 0.07651
# Poissons Ratio (y) = 0.16007 -0.04154
# Poissons Ratio (z) = 0.12588 -0.06386
#
# Static dielectric constant tensor:
#      x y z
#    x 1.780600 0.000000 0.000000 
#    y 0.000000 1.514260 0.000000 
#    z 0.000000 0.000000 1.795910 
# 
# From -- ./inp_files/12730.got.cif
#   From: 2010.05.17/outbox.cif.g08.bks.cpg/sg23_7_cif.got.tgz:12730.got - 2010.06.04 12:02:01.
