data_PCOD9330139
_publ_section_title
;
Structure prediction by ZEFSAII (Michael W. Deem and Ramdas Pophale) SiO2 
 PCOD9330139
Probable space group: I 2 2 2
;
_chemical_formula_sum "Si O2"
_cell_formula_units_Z 52
_cell_length_a 16.602605
_cell_length_b 8.940883
_cell_length_c 13.798764
_cell_angle_alpha 90.000000
_cell_angle_beta 90.000000
_cell_angle_gamma 90.000000
_cell_volume 2048.315419
_symmetry_space_group_name_H-M "I 2 2 2"
_symmetry_group_IT_number 23
_symmetry_cell_setting 'orthorhombic'
loop_
_space_group_symop_operation_xyz
x,y,z
-x,-y,z
x,-y,-z
-x,y,-z
1/2+x,1/2+y,1/2+z
1/2-x,1/2-y,1/2+z
1/2+x,1/2-y,1/2-z
1/2-x,1/2+y,1/2-z
loop_
_atom_site_type_symbol
_atom_site_label
_atom_site_fract_x
_atom_site_fract_y
_atom_site_fract_z
Si Si1 0.379815 0.500000 0.000000
Si Si2 0.873001 0.139439 0.856808
Si Si3 0.028203 0.663289 0.138075
Si Si4 0.311565 0.690055 0.629280
Si Si5 0.709265 0.286343 0.863089
Si Si6 0.362940 0.722985 0.140475
Si Si7 0.919901 0.448990 0.347597
O O1 0.325469 0.571481 0.916437
O O2 0.418061 0.361651 0.939706
O O3 0.801524 0.251769 0.885390
O O4 0.869087 0.131159 0.739701
O O5 0.960473 0.209917 0.879431
O O6 0.843309 0.977079 0.892195
O O7 0.114467 0.707396 0.096838
O O8 0.047217 0.641308 0.253623
O O9 0.000000 0.500000 0.106671
O O10 0.299126 0.700034 0.746492
O O11 0.225675 0.750924 0.594167
O O12 0.650198 0.149529 0.892669
O O13 0.382035 0.890859 0.176369
O O14 0.000000 0.500000 0.402072
#
# Coordination Sequence:
#
# PCOD9330139 Si02
#       7
#     4   8   8   8   8   8   8
#     4  12  26  42  59  93 134 170 216 270 320 383
#     4  11  19  38  64  96 124 164 214 262 319 382
#     4  10  20  32  64  98 128 154 209 272 316 363
#     4  10  21  37  64  92 124 163 212 264 314 376
#     4  10  23  37  63  92 125 167 213 261 322 378
#     4  11  22  39  62  89 126 167 218 262 315 376
#     4  10  19  40  61  86 123 170 211 264 304 377
#
# _framework density 25.386713
#
# number of rings (size 3 to 8) (size 9 to 14) (size 15 to 20)
#    0.000    1.538    6.154    0.462    2.154    0.615 
#    0.000    3.077    0.000    1.846    0.000    2.154 
#    0.000    0.000    0.000    0.000    0.000    0.000 
#
# Total GULP energy -145212.879638 kJ/mol
# GULP energy per Si atom -5585.110755 kJ/mol
# Density = 2.532893 g / cm^3
# Si number density = 25.386713 Si / 1000 Ang^3
#
#
#
# Elastic Constant Matrix: (Units=GPa)
#
#
# Indices 1 2 3 4 5 6 
#
# 1 139.8999 14.6855 2.6648 0.0000 0.0000 0.0000
# 2 14.6855 97.5760 -5.0817 0.0000 0.0000 0.0000
# 3 2.6648 -5.0817 93.6820 0.0000 0.0000 0.0000
# 4 0.0000 0.0000 0.0000 -3.1849 0.0000 0.0000
# 5 0.0000 0.0000 0.0000 0.0000 4.7513 0.0000
# 6 0.0000 0.0000 0.0000 0.0000 0.0000 38.3860
#
#
#
# Elastic Compliance Matrix: (Units=1/GPa)
#
#
# Indices 1 2 3 4 5 6 
#
# 1 0.007269 -0.001108 -0.000267 0.000000 0.000000 0.000000
# 2 -0.001108 0.010446 0.000598 0.000000 0.000000 0.000000
# 3 -0.000267 0.000598 0.010714 0.000000 0.000000 0.000000
# 4 0.000000 0.000000 0.000000 -0.313984 0.000000 0.000000
# 5 0.000000 0.000000 0.000000 0.000000 0.210467 0.000000
# 6 0.000000 0.000000 0.000000 0.000000 0.000000 0.026051
#
#
# Mechanical properties :
#
#
# Convention : Reuss Voigt Hill
#
# Bulk Modulus (GPa) = 37.20683 39.52168 38.36426
# Shear Modulus (GPa) = -129.79057 29.24977 -50.27040
#
# Velocity S-wave (km/s) = -7.15796 3.39804 -4.45475
# Velocity P-wave (km/s) = 7.32307 5.56752 3.36378
#
# Compressibility (1/GPa) = 0.02687678
#
# Stress axis : x y z
#
# Youngs Moduli (GPa) = 137.56374 95.72745 93.33191
#
# Poissons Ratio (x) = 0.10606 0.02491
# Poissons Ratio (y) = 0.15241 -0.05583
# Poissons Ratio (z) = 0.03671 -0.05726
#
# Static dielectric constant tensor:
#      x y z
#    x 2.026690 0.000000 0.000000 
#    y 0.000000 2.110340 0.000000 
#    z 0.000000 0.000000 2.076120 
# 
# From -- ./inp_files/25061.got.cif
#   From: 2010.05.17/outbox.cif.g08.bks.cpg/sg23_13_cif.got.tgz:25061.got - 2010.06.04 12:02:01.
