data_PCOD9330169
_publ_section_title
;
Structure prediction by ZEFSAII (Michael W. Deem and Ramdas Pophale) SiO2 
 PCOD9330169
Probable space group: I 2 2 2
;
_chemical_formula_sum "Si O2"
_cell_formula_units_Z 36
_cell_length_a 25.964185
_cell_length_b 14.571061
_cell_length_c 5.037683
_cell_angle_alpha 90.000000
_cell_angle_beta 90.000000
_cell_angle_gamma 90.000000
_cell_volume 1905.885065
_symmetry_space_group_name_H-M "I 2 2 2"
_symmetry_group_IT_number 23
_symmetry_cell_setting 'orthorhombic'
loop_
_space_group_symop_operation_xyz
x,y,z
-x,-y,z
x,-y,-z
-x,y,-z
1/2+x,1/2+y,1/2+z
1/2-x,1/2-y,1/2+z
1/2+x,1/2-y,1/2-z
1/2-x,1/2+y,1/2-z
loop_
_atom_site_type_symbol
_atom_site_label
_atom_site_fract_x
_atom_site_fract_y
_atom_site_fract_z
Si Si1 0.381327 0.159632 0.439347
Si Si2 0.059821 0.392653 0.443813
Si Si3 0.771159 0.868106 0.797583
Si Si4 0.299880 0.000000 0.500000
Si Si5 0.186218 0.794332 0.715807
O O1 0.424851 0.122375 0.639424
O O2 0.336553 0.083097 0.406419
O O3 0.357886 0.243842 0.610073
O O4 0.405835 0.168038 0.147430
O O5 0.070644 0.500000 0.500000
O O6 0.000000 0.375340 0.500000
O O7 0.737351 0.953670 0.711793
O O8 0.794829 0.873353 0.086749
O O9 0.730017 0.784235 0.807313
O O10 0.813874 0.838368 0.577245
#
# Coordination Sequence:
#
# PCOD9330169 Si02
#       5
#     8   8   8   4   8
#     4  11  20  33  49  68  89 130 162 192 222 284
#     4  11  21  33  47  68  94 119 156 203 236 260
#     4   9  18  30  43  65  88 120 152 199 220 261
#     4  10  20  30  49  68  94 126 171 186 220 266
#     4   9  18  31  45  61  90 118 156 188 235 260
#
# _framework density 18.888863000000001
#
# number of rings (size 3 to 8) (size 9 to 14) (size 15 to 20)
#    0.000    2.000    2.222    2.000    0.000    9.778 
#    0.000    0.000    0.000    0.000    0.000    0.000 
#    0.000    0.000    0.000   70.000    0.000    0.000 
#
# Total GULP energy -100343.978253 kJ/mol
# GULP energy per Si atom -5574.665459 kJ/mol
# Density = 1.884587 g / cm^3
# Si number density = 18.888863 Si / 1000 Ang^3
#
#
#
# Elastic Constant Matrix: (Units=GPa)
#
#
# Indices 1 2 3 4 5 6 
#
# 1 42.2914 22.5181 -0.7818 0.0000 0.0000 0.0000
# 2 22.5181 33.8444 13.6719 0.0000 0.0000 0.0000
# 3 -0.7818 13.6719 90.2272 0.0000 0.0000 0.0000
# 4 0.0000 0.0000 0.0000 22.2706 0.0000 0.0000
# 5 0.0000 0.0000 0.0000 0.0000 -0.0165 0.0000
# 6 0.0000 0.0000 0.0000 0.0000 0.0000 7.9987
#
#
#
# Elastic Compliance Matrix: (Units=1/GPa)
#
#
# Indices 1 2 3 4 5 6 
#
# 1 0.038231 -0.027237 0.004458 0.000000 -0.000006 0.000000
# 2 -0.027237 0.050879 -0.007946 0.000000 0.000008 0.000000
# 3 0.004458 -0.007946 0.012326 0.000000 -0.000011 0.000000
# 4 0.000000 0.000000 0.000000 0.044902 -0.000001 0.000000
# 5 -0.000006 0.000008 -0.000011 -0.000001-60.500368 0.000007
# 6 0.000000 0.000000 0.000000 0.000000 0.000007 0.125020
#
#
# Mechanical properties :
#
#
# Convention : Reuss Voigt Hill
#
# Bulk Modulus (GPa) = 25.00867 26.35327 25.68097
# Shear Modulus (GPa) = -0.08312 14.78087 7.34887
#
# Velocity S-wave (km/s) = -0.21000 2.80039 1.97460
# Velocity P-wave (km/s) = 3.63454 4.94351 4.33867
#
# Compressibility (1/GPa) = 0.03998612
#
# Stress axis : x y z
#
# Youngs Moduli (GPa) = 26.15709 19.65448 81.13097
#
# Poissons Ratio (x) = 0.53534 -0.36172
# Poissons Ratio (y) = 0.71245 0.64463
# Poissons Ratio (z) = -0.11662 0.15617
#
# Static dielectric constant tensor:
#      x y z
#    x 1.681370 0.000000 0.000000 
#    y 0.000000 1.685000 0.000000 
#    z 0.000000 0.000000 1.697580 
# 
# From -- ./inp_files/3739.got.cif
#   From: 2010.05.17/outbox.cif.g08.bks.cpg/sg23_2_cif.got.tgz:3739.got - 2010.06.04 12:02:01.
