data_PCOD9330309
_publ_section_title
;
Structure prediction by ZEFSAII (Michael W. Deem and Ramdas Pophale) SiO2 
 PCOD9330309
Probable space group: I 2 2 2
;
_chemical_formula_sum "Si O2"
_cell_formula_units_Z 64
_cell_length_a 9.386848
_cell_length_b 33.243220
_cell_length_c 10.006703
_cell_angle_alpha 90.000000
_cell_angle_beta 90.000000
_cell_angle_gamma 90.000000
_cell_volume 3122.582197
_symmetry_space_group_name_H-M "I 2 2 2"
_symmetry_group_IT_number 23
_symmetry_cell_setting 'orthorhombic'
loop_
_space_group_symop_operation_xyz
x,y,z
-x,-y,z
x,-y,-z
-x,y,-z
1/2+x,1/2+y,1/2+z
1/2-x,1/2-y,1/2+z
1/2+x,1/2-y,1/2-z
1/2-x,1/2+y,1/2-z
loop_
_atom_site_type_symbol
_atom_site_label
_atom_site_fract_x
_atom_site_fract_y
_atom_site_fract_z
Si Si1 0.189157 0.852786 0.751173
Si Si2 0.526254 0.745169 0.354920
Si Si3 0.178072 0.415035 0.360101
Si Si4 0.852595 0.429518 0.321574
Si Si5 0.337207 0.494590 0.338353
Si Si6 0.718221 0.220278 0.868867
Si Si7 0.143888 0.837569 0.213864
Si Si8 0.830960 0.199281 0.495276
O O1 0.260225 0.895878 0.747486
O O2 0.261382 0.827532 0.873765
O O3 0.224011 0.827048 0.617861
O O4 0.017592 0.854957 0.767735
O O5 0.500000 0.764660 0.500000
O O6 0.596729 0.770047 0.238179
O O7 0.370053 0.732908 0.306469
O O8 0.611074 0.702871 0.371785
O O9 0.165908 0.422113 0.519237
O O10 0.282122 0.450026 0.307660
O O11 0.250147 0.371848 0.335541
O O12 0.020921 0.422638 0.298841
O O13 0.779924 0.472590 0.291725
O O14 0.500000 0.500000 0.290436
O O15 0.341537 0.500000 0.500000
O O16 0.696910 0.252767 0.986710
O O17 0.207046 0.820036 0.352521
O O18 0.000000 0.195572 0.500000
#
# Coordination Sequence:
#
# PCOD9330309 Si02
#       8
#     8   8   8   8   8   8   8   8
#     4  10  20  35  55  81 107 144 193 236 282 339
#     4  10  21  35  54  78 109 146 191 249 296 347
#     4  10  20  35  53  82 120 149 181 227 280 339
#     4  10  21  34  52  86 116 150 182 226 284 337
#     4   9  17  32  56  83 114 150 183 223 274 336
#     4  10  21  36  54  80 104 147 193 239 295 342
#     4   9  20  34  56  77 104 147 188 230 281 336
#     4   9  19  39  57  77 108 148 191 242 288 338
#
# _framework density 20.495857999999998
#
# number of rings (size 3 to 8) (size 9 to 14) (size 15 to 20)
#    0.000    2.375    0.000    2.625    3.500    4.500 
#    2.250    1.875    0.000    0.750    0.000    5.250 
#    0.000    0.000    0.000    0.000    0.000    0.000 
#
# Total GULP energy -178383.865439 kJ/mol
# GULP energy per Si atom -5574.495795 kJ/mol
# Density = 2.044921 g / cm^3
# Si number density = 20.495858 Si / 1000 Ang^3
#
#
#
# Elastic Constant Matrix: (Units=GPa)
#
#
# Indices 1 2 3 4 5 6 
#
# 1 75.6130 24.6151 4.4974 0.0001 0.0000 0.0000
# 2 24.6151 78.5075 11.8737 -0.0005 0.0002 0.0002
# 3 4.4974 11.8737 45.9810 -0.0004 0.0008 0.0004
# 4 0.0001 -0.0005 -0.0004 16.9287 0.0002 0.0002
# 5 0.0000 0.0002 0.0008 0.0002 20.7114 0.0000
# 6 0.0000 0.0002 0.0004 0.0002 0.0000 39.7335
#
#
#
# Elastic Compliance Matrix: (Units=1/GPa)
#
#
# Indices 1 2 3 4 5 6 
#
# 1 0.014732 -0.004580 -0.000258 0.000000 0.000000 0.000000
# 2 -0.004580 0.014679 -0.003343 0.000000 0.000000 0.000000
# 3 -0.000258 -0.003343 0.022637 0.000000 -0.000001 0.000000
# 4 0.000000 0.000000 0.000000 0.059071 -0.000001 0.000000
# 5 0.000000 0.000000 -0.000001 -0.000001 0.048283 0.000000
# 6 0.000000 0.000000 0.000000 0.000000 0.000000 0.025168
#
#
# Mechanical properties :
#
#
# Convention : Reuss Voigt Hill
#
# Bulk Modulus (GPa) = 28.02235 31.34151 29.68193
# Shear Modulus (GPa) = 23.49345 26.08241 24.78793
#
# Velocity S-wave (km/s) = 3.38931 3.57118 3.48143
# Velocity P-wave (km/s) = 5.38688 5.68588 5.53840
#
# Compressibility (1/GPa) = 0.03568580
#
# Stress axis : x y z
#
# Youngs Moduli (GPa) = 67.88163 68.12385 44.17634
#
# Poissons Ratio (x) = 0.31200 0.01141
# Poissons Ratio (y) = 0.31089 0.14767
# Poissons Ratio (z) = 0.01753 0.22771
#
# Static dielectric constant tensor:
#      x y z
#    x 1.770970 0.000000 0.000000 
#    y 0.000000 1.739150 0.000000 
#    z 0.000000 0.000000 1.808450 
# 
# From -- ./inp_files/14975.got.cif
#   From: 2010.05.17/outbox.cif.g08.bks.cpg/sg23_8_cif.got.tgz:14975.got - 2010.06.04 12:02:01.
